0:0:0
     RDKit          3D

 95103  0  0  1  0  0  0  0  0999 V2000
  -29.0530  -17.8710   20.6970 C   0  0  0  0  0  3  0  0  0  0  0  0
  -31.4210  -17.9350   21.0720 C   0  0  0  0  0  3  0  0  0  0  0  0
  -29.0190  -19.2750   20.4180 C   0  0  0  0  0  0  0  0  0  0  0  0
  -30.2330  -17.1610   21.0470 C   0  0  0  0  0  0  0  0  0  0  0  0
  -31.4090  -19.3330   20.7780 C   0  0  0  0  0  0  0  0  0  0  0  0
  -30.2240  -20.0520   20.4370 C   0  0  0  0  0  0  0  0  0  0  0  0
  -30.9600  -14.6590   21.2370 C   0  0  0  0  0  0  0  0  0  0  0  0
  -30.8920  -12.2920   20.4790 C   0  0  0  0  0  2  0  0  0  0  0  0
  -30.1570  -12.2470   19.1200 C   0  0  0  0  0  2  0  0  0  0  0  0
  -28.6310  -12.1430   19.3190 C   0  0  0  0  0  2  0  0  0  0  0  0
  -28.0940  -13.1710   20.3500 C   0  0  0  0  0  3  0  0  0  0  0  0
  -28.9530  -13.1700   21.6350 C   0  0  0  0  0  2  0  0  0  0  0  0
  -30.3470  -13.4330   21.2400 N   0  0  0  0  0  0  0  0  0  0  0  0
  -32.1670  -14.7750   20.9990 O   0  0  0  0  0  0  0  0  0  0  0  0
  -30.1180  -15.7330   21.3550 N   0  0  0  0  0  0  0  0  0  0  0  0
  -29.1850  -15.4410   21.6030 H   0  0  0  0  0  0  0  0  0  0  0  0
  -25.6740  -13.9000   20.8260 C   0  0  0  0  0  0  0  0  0  0  0  0
  -24.5180  -13.1870   20.9940 C   0  0  0  0  0  0  0  0  0  0  0  0
  -24.8870  -11.8100   20.8940 C   0  0  0  0  0  0  0  0  0  0  0  0
  -26.6770  -12.9610   20.6390 N   0  0  0  0  0  0  0  0  0  0  0  0
  -26.1990  -11.6940   20.7390 N   0  0  0  0  0  0  0  0  0  0  0  0
  -24.0560  -10.5980   20.8800 C   0  0  0  0  0  0  0  0  0  0  0  0
  -24.3620   -9.4840   21.6920 C   0  0  0  0  0  3  0  0  0  0  0  0
  -23.5390   -8.3380   21.6760 C   0  0  0  0  0  3  0  0  0  0  0  0
  -22.3950   -8.2980   20.8430 C   0  0  0  0  0  0  0  0  0  0  0  0
  -22.1080   -9.4010   20.0200 C   0  0  0  0  0  3  0  0  0  0  0  0
  -22.9320  -10.5390   20.0350 C   0  0  0  0  0  3  0  0  0  0  0  0
  -21.5530   -7.2170   20.7410 O   0  0  0  0  0  0  0  0  0  0  0  0
  -21.4400   -6.2950   21.7500 C   0  0  0  0  0  0  0  0  0  0  0  0
  -21.0750   -6.6670   23.0640 C   0  0  0  0  0  3  0  0  0  0  0  0
  -20.9040   -5.6790   24.0530 C   0  0  0  0  0  3  0  0  0  0  0  0
  -21.0860   -4.3200   23.7320 C   0  0  0  0  0  0  0  0  0  0  0  0
  -21.4430   -3.9480   22.4230 C   0  0  0  0  0  3  0  0  0  0  0  0
  -21.6160   -4.9320   21.4350 C   0  0  0  0  0  0  0  0  0  0  0  0
  -21.9400   -4.5660   20.1720 F   0  0  0  0  0  0  0  0  0  0  0  0
  -20.9130   -3.3690   24.6790 F   0  0  0  0  0  0  0  0  0  0  0  0
  -23.1330  -13.7500   21.1380 C   0  0  0  0  0  0  0  0  0  0  0  0
  -22.2620  -13.0570   21.8620 N   0  0  0  0  0  0  0  0  0  0  0  0
  -22.8310  -14.8380   20.6470 O   0  0  0  0  0  0  0  0  0  0  0  0
  -22.5150  -12.1750   22.2820 H   0  0  0  0  0  0  0  0  0  0  0  0
  -21.3270  -13.4140   21.9980 H   0  0  0  0  0  0  0  0  0  0  0  0
  -25.9540  -15.2630   20.7930 N   0  0  0  0  0  0  0  0  0  0  0  0
  -25.2190  -15.9600   20.8540 H   0  0  0  0  0  0  0  0  0  0  0  0
  -26.8550  -15.6580   20.5600 H   0  0  0  0  0  0  0  0  0  0  0  0
  -27.7000  -19.8650   20.1510 C   0  0  0  0  0  3  0  0  0  0  0  0
  -26.8750  -19.4830   19.1610 C   0  0  0  0  0  3  0  0  0  0  0  0
  -25.5060  -20.0790   18.9130 C   0  0  0  0  0  1  0  0  0  0  0  0
  -32.6130  -20.0380   20.8260 N   0  0  0  0  0  0  0  0  0  0  0  0
  -33.4730  -19.5290   20.6480 H   0  0  0  0  0  0  0  0  0  0  0  0
  -32.6020  -20.9560   20.3900 H   0  0  0  0  0  0  0  0  0  0  0  0
  -30.3670  -21.4490   20.2200 O   0  0  0  0  0  0  0  0  0  0  0  0
  -29.3470  -22.3450   19.6640 C   0  0  0  0  0  3  0  0  0  0  0  0
  -29.7140  -23.8960   19.6560 C   0  0  0  0  0  3  0  0  0  0  0  0
  -28.5500  -24.9010   19.2710 C   0  0  0  0  0  2  0  0  0  0  0  0
  -28.6940  -26.3580   19.4940 O   0  0  0  0  0  0  0  0  0  0  0  0
  -24.6660  -31.2890   22.8930 C   0  0  0  0  0  0  0  0  0  0  0  0
  -27.5200  -27.1300   19.5090 C   0  0  0  0  0  0  0  0  0  0  0  0
  -23.5320  -29.9420   21.1630 C   0  0  0  0  0  3  0  0  0  0  0  0
  -25.0580  -28.5870   19.6260 C   0  0  0  0  0  0  0  0  0  0  0  0
  -26.0460  -30.4240   20.9920 C   0  0  0  0  0  2  0  0  0  0  0  0
  -26.2020  -29.1030   20.2490 C   0  0  0  0  0  0  0  0  0  0  0  0
  -27.4340  -28.3890   20.1810 C   0  0  0  0  0  3  0  0  0  0  0  0
  -26.3460  -26.6670   18.8680 C   0  0  0  0  0  3  0  0  0  0  0  0
  -25.1320  -27.3730   18.9280 C   0  0  0  0  0  3  0  0  0  0  0  0
  -23.7730  -29.3780   19.7380 C   0  0  0  0  0  2  0  0  0  0  0  0
  -24.7670  -30.5660   21.7400 N   0  0  0  0  0  0  0  0  0  0  0  0
  -23.5710  -31.4640   23.4480 O   0  0  0  0  0  0  0  0  0  0  0  0
  -22.9370  -28.8230   22.0500 C   0  0  0  0  0  0  0  0  0  0  0  0
  -21.6110  -28.6210   21.9600 N   0  0  0  0  0  0  0  0  0  0  0  0
  -23.6650  -28.1440   22.7790 O   0  0  0  0  0  0  0  0  0  0  0  0
  -21.0810  -29.2220   21.3450 H   0  0  0  0  0  0  0  0  0  0  0  0
  -18.2830  -27.3140   22.5080 C   0  0  0  0  0  0  0  0  0  0  0  0
  -20.8490  -27.5960   22.6730 C   0  0  0  0  0  3  0  0  0  0  0  0
  -20.9410  -26.2310   21.9540 C   0  0  0  0  0  2  0  0  0  0  0  0
  -19.7920  -25.9890   20.9690 C   0  0  0  0  0  2  0  0  0  0  0  0
  -18.4440  -26.0420   21.6930 C   0  0  0  0  0  2  0  0  0  0  0  0
  -19.4120  -28.0520   22.9550 C   0  0  0  0  0  0  0  0  0  0  0  0
  -19.2060  -29.2450   23.6800 C   0  0  0  0  0  3  0  0  0  0  0  0
  -17.9040  -29.7030   23.9600 C   0  0  0  0  0  3  0  0  0  0  0  0
  -16.7910  -28.9610   23.5280 C   0  0  0  0  0  3  0  0  0  0  0  0
  -16.9820  -27.7670   22.8090 C   0  0  0  0  0  3  0  0  0  0  0  0
  -25.9150  -31.9480   23.5540 C   0  0  0  0  0  3  0  0  0  0  0  0
  -25.5310  -33.3040   23.9720 N   0  0  0  0  0  0  0  0  0  0  0  0
  -25.8190  -34.4210   23.2900 C   0  0  0  0  0  0  0  0  0  0  0  0
  -26.5050  -34.4200   22.2640 O   0  0  0  0  0  0  0  0  0  0  0  0
  -24.9240  -33.3750   24.7740 H   0  0  0  0  0  0  0  0  0  0  0  0
  -24.0060  -36.1450   23.0310 C   0  0  0  0  0  1  0  0  0  0  0  0
  -25.2580  -35.7500   23.8320 C   0  0  0  0  0  3  0  0  0  0  0  0
  -27.3370  -36.6810   24.7460 C   0  0  0  0  0  1  0  0  0  0  0  0
  -26.2360  -36.8590   23.8030 N   0  0  0  0  0  0  0  0  0  0  0  0
  -25.7830  -37.7450   24.0070 H   0  0  0  0  0  0  0  0  0  0  0  0
  -26.4740  -31.1270   24.7800 C   0  0  1  0  0  0  0  0  0  0  0  0
  -25.3990  -30.7720   25.8330 C   0  0  0  0  0  1  0  0  0  0  0  0
  -27.1210  -29.8050   24.3040 C   0  0  0  0  0  1  0  0  0  0  0  0
  -27.5880  -31.9350   25.4870 C   0  0  0  0  0  1  0  0  0  0  0  0
  1  4  1  0
  3  6  1  0
  3  1  2  0
  4  2  2  0
  4 15  1  0
  5 48  1  0
  5  2  1  0
  6  5  2  0
  7 13  1  0
  7 15  1  0
  8 13  1  0
  9 10  1  0
  9  8  1  0
 11 10  1  0
 11 20  1  0
 11 12  1  0
 13 12  1  0
 14  7  2  0
 15 16  1  0
 17 18  2  0
 18 37  1  0
 19 18  1  0
 20 21  1  0
 20 17  1  0
 21 19  2  0
 22 19  1  0
 22 23  1  0
 24 23  2  0
 25 24  1  0
 26 27  1  0
 26 25  2  0
 27 22  2  0
 28 25  1  0
 28 29  1  0
 29 30  1  0
 30 31  2  0
 32 31  1  0
 32 36  1  0
 33 32  2  0
 34 29  2  0
 34 33  1  0
 35 34  1  0
 37 38  1  0
 38 41  1  0
 38 40  1  0
 39 37  2  0
 42 17  1  0
 42 43  1  0
 44 42  1  0
 45  3  1  0
 46 45  2  0
 47 46  1  0
 49 48  1  0
 50 48  1  0
 51  6  1  0
 52 51  1  0
 53 52  2  0
 54 55  1  0
 54 53  1  0
 55 57  1  0
 56 67  2  0
 57 62  1  0
 58 66  1  0
 58 68  1  0
 59 65  1  0
 59 61  1  0
 60 66  1  0
 61 60  1  0
 62 61  2  0
 63 64  1  0
 63 57  2  0
 64 59  2  0
 65 58  1  0
 66 56  1  0
 68 70  2  0
 69 68  1  0
 71 69  1  0
 72 81  2  0
 72 77  1  0
 73 69  1  0
 73 77  1  0
 74 73  1  0
 75 76  1  0
 75 74  1  0
 76 72  1  0
 77 78  2  0
 78 79  1  0
 80 79  2  0
 81 80  1  0
 82 56  1  0
 82 83  1  0
 82 92  1  0
 83 86  1  0
 84 88  1  0
 84 83  1  0
 85 84  2  0
 88 87  1  0
 90 88  1  0
 90 91  1  0
 90 89  1  0
 92 95  1  1
 92 93  1  0
 94 92  1  0
M  ISO  4   7 100  15 100  54 101  55 101
M  END
>  <TORSDO>  (1) 
F 22

>  <SCORE>  (1) 
-10.324

>  <name>  (1) 
0

>  <ligand_id>  (1) 
0

>  <original_smiles>  (1) 
[H]C(=C([H])C([H])([H])[H])c1c([H])c(N([H])C(=O)N2C([H])([H])C([H])([H])C([H])([H])C([H])(n3nc(-c4c([H])c([H])c(Oc5c([H])c([H])c(F)c([H])c5F)c([H])c4[H])c(C(=O)N([H])[H])c3N([H])[H])C2([H])[H])c([H])c(N([H])[H])c1OC([H])([H])C([H])([H])C([H])([H])Oc1c([H])c([H])c2c(c1[H])C([H])([H])N(C(=O)C([H])(N([H])C(=O)C([H])(N([H])C([H])([H])[H])C([H])([H])[H])C(C([H])([H])[H])(C([H])([H])[H])C([H])([H])[H])C([H])(C(=O)N([H])C1([H])c3c([H])c([H])c([H])c([H])c3C([H])([H])C([H])([H])C1([H])[H])C2([H])[H]

>  <smiles>  (1) 
[H]C(=C([H])C([H])([H])[H])c1c([H])c(N([H])C(=O)N2C([H])([H])C([H])([H])C([H])([H])C([H])(n3nc(-c4c([H])c([H])c(Oc5c([H])c([H])c(F)c([H])c5F)c([H])c4[H])c(C(=O)N([H])[H])c3N([H])[H])C2([H])[H])c([H])c(N([H])[H])c1OC([H])([H])C([H])([H])C([H])([H])Oc1c([H])c([H])c2c(c1[H])C([H])([H])N(C(=O)C([H])(N([H])C(=O)C([H])(N([H])C([H])([H])[H])C([H])([H])[H])C(C([H])([H])[H])(C([H])([H])[H])C([H])([H])[H])C([H])(C(=O)N([H])C1([H])c3c([H])c([H])c([H])c([H])c3C([H])([H])C([H])([H])C1([H])[H])C2([H])[H]

$$$$
1:0:0
     RDKit          3D

101110  0  0  1  0  0  0  0  0999 V2000
  -29.0180  -24.0250   22.2150 C   0  0  0  0  0  3  0  0  0  0  0  0
  -29.0750  -23.8100   20.8770 C   0  0  0  0  0  0  0  0  0  0  0  0
  -29.5370  -23.1640   23.3040 C   0  0  0  0  0  0  0  0  0  0  0  0
  -29.7650  -22.5830   20.2970 C   0  0  0  0  0  0  0  0  0  0  0  0
  -29.5170  -21.6380   23.2020 C   0  0  0  0  0  2  0  0  0  0  0  0
  -28.7340  -21.1110   21.9940 C   0  0  0  0  0  2  0  0  0  0  0  0
  -29.5160  -21.2720   20.7680 N   0  0  0  0  0  0  0  0  0  0  0  0
  -29.9910  -23.6610   24.3360 O   0  0  0  0  0  0  0  0  0  0  0  0
  -30.6060  -22.7640   19.4130 O   0  0  0  0  0  0  0  0  0  0  0  0
  -30.1610  -20.0260   18.7120 C   0  0  0  0  0  3  0  0  0  0  0  0
  -30.1300  -18.6720   20.7210 C   0  0  0  0  0  3  0  0  0  0  0  0
  -30.6930  -17.6200   18.5800 C   0  0  0  0  0  0  0  0  0  0  0  0
  -29.9680  -19.9940   20.1100 C   0  0  0  0  0  0  0  0  0  0  0  0
  -30.5340  -18.8950   17.9730 C   0  0  0  0  0  0  0  0  0  0  0  0
  -30.5000  -17.4530   19.9950 C   0  0  0  0  0  0  0  0  0  0  0  0
  -31.2160  -14.9240   20.4030 C   0  0  0  0  0  0  0  0  0  0  0  0
  -30.9830  -12.6300   19.4340 C   0  0  0  0  0  2  0  0  0  0  0  0
  -30.0880  -12.6800   18.1740 C   0  0  0  0  0  2  0  0  0  0  0  0
  -28.5890  -12.6530   18.5370 C   0  0  0  0  0  2  0  0  0  0  0  0
  -28.2220  -13.5440   19.7530 C   0  0  0  0  0  3  0  0  0  0  0  0
  -29.2360  -13.4120   20.9110 C   0  0  0  0  0  2  0  0  0  0  0  0
  -30.5620  -13.7110   20.3560 N   0  0  0  0  0  0  0  0  0  0  0  0
  -32.4190  -14.9800   20.1240 O   0  0  0  0  0  0  0  0  0  0  0  0
  -30.4590  -16.0790   20.6010 N   0  0  0  0  0  0  0  0  0  0  0  0
  -29.5540  -15.8590   20.9900 H   0  0  0  0  0  0  0  0  0  0  0  0
  -25.8340  -14.2390   20.4020 C   0  0  0  0  0  0  0  0  0  0  0  0
  -24.7210  -13.5150   20.7270 C   0  0  0  0  0  0  0  0  0  0  0  0
  -25.1230  -12.1430   20.7050 C   0  0  0  0  0  0  0  0  0  0  0  0
  -26.8470  -13.3160   20.2000 N   0  0  0  0  0  0  0  0  0  0  0  0
  -26.4210  -12.0480   20.4390 N   0  0  0  0  0  0  0  0  0  0  0  0
  -24.3270  -10.9170   20.8560 C   0  0  0  0  0  0  0  0  0  0  0  0
  -24.6940   -9.9140   21.7790 C   0  0  0  0  0  3  0  0  0  0  0  0
  -23.9120   -8.7490   21.9190 C   0  0  0  0  0  3  0  0  0  0  0  0
  -22.7480   -8.5790   21.1340 C   0  0  0  0  0  0  0  0  0  0  0  0
  -22.4000   -9.5680   20.1990 C   0  0  0  0  0  3  0  0  0  0  0  0
  -23.1810  -10.7280   20.0570 C   0  0  0  0  0  3  0  0  0  0  0  0
  -21.9390   -7.4710   21.1830 O   0  0  0  0  0  0  0  0  0  0  0  0
  -21.8070   -6.7280   22.3280 C   0  0  0  0  0  0  0  0  0  0  0  0
  -21.3850   -7.3040   23.5460 C   0  0  0  0  0  3  0  0  0  0  0  0
  -21.1980   -6.4920   24.6810 C   0  0  0  0  0  3  0  0  0  0  0  0
  -21.4190   -5.1030   24.5970 C   0  0  0  0  0  0  0  0  0  0  0  0
  -21.8300   -4.5270   23.3810 C   0  0  0  0  0  3  0  0  0  0  0  0
  -22.0220   -5.3380   22.2520 C   0  0  0  0  0  0  0  0  0  0  0  0
  -22.4030   -4.7760   21.0780 F   0  0  0  0  0  0  0  0  0  0  0  0
  -21.2270   -4.3190   25.6810 F   0  0  0  0  0  0  0  0  0  0  0  0
  -23.3360  -14.0590   20.9470 C   0  0  0  0  0  0  0  0  0  0  0  0
  -22.5390  -13.4120   21.7900 N   0  0  0  0  0  0  0  0  0  0  0  0
  -22.9690  -15.0990   20.4010 O   0  0  0  0  0  0  0  0  0  0  0  0
  -22.8430  -12.5700   22.2570 H   0  0  0  0  0  0  0  0  0  0  0  0
  -21.6090  -13.7630   21.9770 H   0  0  0  0  0  0  0  0  0  0  0  0
  -26.0610  -15.6000   20.2240 N   0  0  0  0  0  0  0  0  0  0  0  0
  -25.2760  -16.2400   20.2230 H   0  0  0  0  0  0  0  0  0  0  0  0
  -26.8670  -15.9680   19.7320 H   0  0  0  0  0  0  0  0  0  0  0  0
  -30.6950  -19.0800   16.5960 N   0  0  0  0  0  0  0  0  0  0  0  0
  -30.5630  -19.9790   16.1490 H   0  0  0  0  0  0  0  0  0  0  0  0
  -31.0050  -18.3310   15.9860 H   0  0  0  0  0  0  0  0  0  0  0  0
  -30.9460  -16.4440   17.6360 C   0  0  0  0  0  2  0  0  0  0  0  0
  -32.5940  -15.7680   15.7770 C   0  0  0  0  0  1  0  0  0  0  0  0
  -32.4270  -16.2850   17.2140 C   0  0  0  0  0  2  0  0  0  0  0  0
  -28.4490  -24.9160   19.9090 C   0  0  0  0  0  2  0  0  0  0  0  0
  -28.5380  -26.4020   20.2060 O   0  0  0  0  0  0  0  0  0  0  0  0
  -24.5460  -31.7460   23.0330 C   0  0  0  0  0  0  0  0  0  0  0  0
  -27.4200  -27.2680   20.0470 C   0  0  0  0  0  0  0  0  0  0  0  0
  -23.4480  -30.3140   21.3460 C   0  0  0  0  0  3  0  0  0  0  0  0
  -25.0080  -28.8410   19.9440 C   0  0  0  0  0  0  0  0  0  0  0  0
  -25.9790  -30.7270   21.2440 C   0  0  0  0  0  2  0  0  0  0  0  0
  -26.1380  -29.3520   20.5930 C   0  0  0  0  0  0  0  0  0  0  0  0
  -27.3430  -28.5770   20.6430 C   0  0  0  0  0  3  0  0  0  0  0  0
  -26.2750  -26.8460   19.3310 C   0  0  0  0  0  3  0  0  0  0  0  0
  -25.0860  -27.5980   19.2970 C   0  0  0  0  0  3  0  0  0  0  0  0
  -23.7320  -29.6610   19.9670 C   0  0  0  0  0  2  0  0  0  0  0  0
  -24.6740  -30.9480   21.9320 N   0  0  0  0  0  0  0  0  0  0  0  0
  -23.4370  -31.9760   23.5360 O   0  0  0  0  0  0  0  0  0  0  0  0
  -22.7990  -29.2630   22.2820 C   0  0  0  0  0  0  0  0  0  0  0  0
  -21.4720  -29.0780   22.1660 N   0  0  0  0  0  0  0  0  0  0  0  0
  -23.4890  -28.6180   23.0750 O   0  0  0  0  0  0  0  0  0  0  0  0
  -20.9690  -29.6560   21.5070 H   0  0  0  0  0  0  0  0  0  0  0  0
  -18.1060  -27.8600   22.6890 C   0  0  0  0  0  0  0  0  0  0  0  0
  -20.6700  -28.1080   22.9140 C   0  0  0  0  0  3  0  0  0  0  0  0
  -20.7570  -26.7010   22.2760 C   0  0  0  0  0  2  0  0  0  0  0  0
  -19.6350  -26.4220   21.2740 C   0  0  0  0  0  2  0  0  0  0  0  0
  -18.2660  -26.5420   21.9520 C   0  0  0  0  0  2  0  0  0  0  0  0
  -19.2340  -28.6040   23.1270 C   0  0  0  0  0  0  0  0  0  0  0  0
  -19.0290  -29.8410   23.7750 C   0  0  0  0  0  3  0  0  0  0  0  0
  -17.7270  -30.3310   23.9940 C   0  0  0  0  0  3  0  0  0  0  0  0
  -16.6130  -29.5830   23.5730 C   0  0  0  0  0  3  0  0  0  0  0  0
  -16.8040  -28.3500   22.9250 C   0  0  0  0  0  3  0  0  0  0  0  0
  -25.7830  -32.4290   23.6960 C   0  0  0  0  0  3  0  0  0  0  0  0
  -25.3960  -33.8010   24.0550 N   0  0  0  0  0  0  0  0  0  0  0  0
  -25.7050  -34.8910   23.3400 C   0  0  0  0  0  0  0  0  0  0  0  0
  -26.4110  -34.8510   22.3280 O   0  0  0  0  0  0  0  0  0  0  0  0
  -24.7730  -33.9050   24.8420 H   0  0  0  0  0  0  0  0  0  0  0  0
  -23.9030  -36.6110   22.9910 C   0  0  0  0  0  1  0  0  0  0  0  0
  -25.1390  -36.2410   23.8250 C   0  0  0  0  0  3  0  0  0  0  0  0
  -27.2040  -37.2020   24.7430 C   0  0  0  0  0  1  0  0  0  0  0  0
  -26.1210  -37.3450   23.7720 N   0  0  0  0  0  0  0  0  0  0  0  0
  -25.6660  -38.2380   23.9370 H   0  0  0  0  0  0  0  0  0  0  0  0
  -26.3130  -31.6540   24.9640 C   0  0  1  0  0  0  0  0  0  0  0  0
  -25.2120  -31.3510   26.0070 C   0  0  0  0  0  1  0  0  0  0  0  0
  -26.9630  -30.3120   24.5560 C   0  0  0  0  0  1  0  0  0  0  0  0
  -27.4160  -32.4840   25.6630 C   0  0  0  0  0  1  0  0  0  0  0  0
  1  3  1  0
  2  1  2  0
  3  8  2  0
  4  7  1  0
  4  2  1  0
  5  3  1  0
  6  5  1  0
  7  6  1  0
  9  4  2  0
 10 13  1  0
 12 15  2  0
 13 11  2  0
 13  7  1  0
 14 12  1  0
 14 10  2  0
 15 24  1  0
 15 11  1  0
 16 24  1  0
 17 22  1  0
 18 19  1  0
 18 17  1  0
 20 19  1  0
 20 29  1  0
 20 21  1  0
 22 16  1  0
 22 21  1  0
 23 16  2  0
 24 25  1  0
 26 27  2  0
 27 46  1  0
 28 27  1  0
 28 31  1  0
 29 26  1  0
 29 30  1  0
 30 28  2  0
 31 32  1  0
 32 33  2  0
 34 37  1  0
 34 33  1  0
 35 34  2  0
 36 35  1  0
 36 31  2  0
 37 38  1  0
 38 39  1  0
 39 40  2  0
 41 40  1  0
 41 45  1  0
 42 41  2  0
 43 38  2  0
 43 42  1  0
 44 43  1  0
 46 47  1  0
 47 50  1  0
 47 49  1  0
 48 46  2  0
 51 26  1  0
 52 51  1  0
 53 51  1  0
 54 14  1  0
 55 54  1  0
 56 54  1  0
 57 12  1  0
 58 59  1  0
 59 57  1  0
 60 61  1  0
 60  2  1  0
 62 73  2  0
 63 61  1  0
 63 68  1  0
 64 72  1  0
 64 74  1  0
 65 71  1  0
 65 67  1  0
 66 72  1  0
 67 68  2  0
 67 66  1  0
 69 63  2  0
 70 69  1  0
 70 65  2  0
 71 64  1  0
 72 62  1  0
 74 76  2  0
 75 74  1  0
 77 75  1  0
 78 87  2  0
 78 83  1  0
 79 75  1  0
 79 83  1  0
 80 79  1  0
 81 82  1  0
 81 80  1  0
 82 78  1  0
 83 84  2  0
 84 85  1  0
 86 85  2  0
 87 86  1  0
 88 62  1  0
 88 89  1  0
 88 98  1  0
 89 92  1  0
 90 94  1  0
 90 89  1  0
 91 90  2  0
 94 93  1  0
 96 94  1  0
 96 97  1  0
 96 95  1  0
 98101  1  1
 98 99  1  0
100 98  1  0
M  ISO  4  16 100  24 100  60 101  61 101
M  END
>  <TORSDO>  (2) 
F 21

>  <SCORE>  (2) 
-12.544

>  <name>  (2) 
1

>  <ligand_id>  (2) 
1

>  <original_smiles>  (2) 
[H]C1=C(C([H])([H])Oc2c([H])c([H])c3c(c2[H])C([H])([H])N(C(=O)C([H])(N([H])C(=O)C([H])(N([H])C([H])([H])[H])C([H])([H])[H])C(C([H])([H])[H])(C([H])([H])[H])C([H])([H])[H])C([H])(C(=O)N([H])C2([H])c4c([H])c([H])c([H])c([H])c4C([H])([H])C([H])([H])C2([H])[H])C3([H])[H])C(=O)N(c2c([H])c(N([H])[H])c(C([H])([H])C([H])([H])C([H])([H])[H])c(N([H])C(=O)N3C([H])([H])C([H])([H])C([H])([H])C([H])(n4nc(-c5c([H])c([H])c(Oc6c([H])c([H])c(F)c([H])c6F)c([H])c5[H])c(C(=O)N([H])[H])c4N([H])[H])C3([H])[H])c2[H])C([H])([H])C([H])([H])C1=O

>  <smiles>  (2) 
[H]C1=C(C([H])([H])Oc2c([H])c([H])c3c(c2[H])C([H])([H])N(C(=O)C([H])(N([H])C(=O)C([H])(N([H])C([H])([H])[H])C([H])([H])[H])C(C([H])([H])[H])(C([H])([H])[H])C([H])([H])[H])C([H])(C(=O)N([H])C2([H])c4c([H])c([H])c([H])c([H])c4C([H])([H])C([H])([H])C2([H])[H])C3([H])[H])C(=O)N(c2c([H])c(N([H])[H])c(C([H])([H])C([H])([H])C([H])([H])[H])c(N([H])C(=O)N3C([H])([H])C([H])([H])C([H])([H])C([H])(n4nc(-c5c([H])c([H])c(Oc6c([H])c([H])c(F)c([H])c6F)c([H])c5[H])c(C(=O)N([H])[H])c4N([H])[H])C3([H])[H])c2[H])C([H])([H])C([H])([H])C1=O

$$$$
2:0:0
     RDKit          3D

 90 98  0  0  1  0  0  0  0  0999 V2000
  -30.8400  -20.3440   20.6080 C   0  0  0  0  0  3  0  0  0  0  0  0
  -31.1110  -18.9140   20.6730 C   0  0  0  0  0  0  0  0  0  0  0  0
  -29.5040  -20.5960   20.3960 C   0  0  0  0  0  0  0  0  0  0  0  0
  -29.9710  -18.1520   20.4720 C   0  0  0  0  0  0  0  0  0  0  0  0
  -28.9750  -19.2300   20.3210 O   0  0  0  0  0  0  0  0  0  0  0  0
  -29.5280  -16.6060   20.5030 C   0  0  0  0  0  3  0  0  0  0  0  0
  -28.2880  -16.4660   20.7210 N   0  0  0  0  0  2  0  0  0  0  0  0
  -27.8760  -17.3850   20.8520 H   0  0  0  0  0  0  0  0  0  0  0  0
  -30.4500  -15.1810   20.2590 C   0  0  0  0  0  0  0  0  0  0  0  0
  -30.3660  -12.8060   19.3050 C   0  0  0  0  0  2  0  0  0  0  0  0
  -29.4030  -12.7290   18.0920 C   0  0  0  0  0  2  0  0  0  0  0  0
  -27.9570  -12.4690   18.5530 C   0  0  0  0  0  2  0  0  0  0  0  0
  -27.5560  -13.3780   19.7420 C   0  0  0  0  0  3  0  0  0  0  0  0
  -28.6380  -13.3980   20.8430 C   0  0  0  0  0  2  0  0  0  0  0  0
  -29.8830  -13.8880   20.2240 N   0  0  0  0  0  0  0  0  0  0  0  0
  -31.6430  -15.2380   19.9360 O   0  0  0  0  0  0  0  0  0  0  0  0
  -25.1910  -13.9260   20.5430 C   0  0  0  0  0  0  0  0  0  0  0  0
  -24.1370  -13.1370   20.9170 C   0  0  0  0  0  0  0  0  0  0  0  0
  -24.6140  -11.7920   20.8600 C   0  0  0  0  0  0  0  0  0  0  0  0
  -26.2340  -13.0600   20.2680 N   0  0  0  0  0  0  0  0  0  0  0  0
  -25.8990  -11.7700   20.5240 N   0  0  0  0  0  0  0  0  0  0  0  0
  -23.9030  -10.5220   21.0510 C   0  0  0  0  0  0  0  0  0  0  0  0
  -24.3570   -9.5500   21.9680 C   0  0  0  0  0  3  0  0  0  0  0  0
  -23.6430   -8.3450   22.1460 C   0  0  0  0  0  3  0  0  0  0  0  0
  -22.4620   -8.1020   21.4060 C   0  0  0  0  0  0  0  0  0  0  0  0
  -22.0270   -9.0650   20.4770 C   0  0  0  0  0  3  0  0  0  0  0  0
  -22.7410  -10.2600   20.2980 C   0  0  0  0  0  3  0  0  0  0  0  0
  -21.7180   -6.9510   21.4940 O   0  0  0  0  0  0  0  0  0  0  0  0
  -21.6820   -6.2040   22.6430 C   0  0  0  0  0  0  0  0  0  0  0  0
  -21.2420   -6.7440   23.8720 C   0  0  0  0  0  3  0  0  0  0  0  0
  -21.1560   -5.9220   25.0130 C   0  0  0  0  0  3  0  0  0  0  0  0
  -21.4980   -4.5580   24.9260 C   0  0  0  0  0  0  0  0  0  0  0  0
  -21.9290   -4.0170   23.7030 C   0  0  0  0  0  3  0  0  0  0  0  0
  -22.0180   -4.8370   22.5650 C   0  0  0  0  0  0  0  0  0  0  0  0
  -22.4150   -4.3050   21.3830 F   0  0  0  0  0  0  0  0  0  0  0  0
  -21.4070   -3.7660   26.0200 F   0  0  0  0  0  0  0  0  0  0  0  0
  -22.7440  -13.5990   21.2260 C   0  0  0  0  0  0  0  0  0  0  0  0
  -22.0430  -12.8890   22.1040 N   0  0  0  0  0  0  0  0  0  0  0  0
  -22.2850  -14.6240   20.7250 O   0  0  0  0  0  0  0  0  0  0  0  0
  -22.4280  -12.0600   22.5310 H   0  0  0  0  0  0  0  0  0  0  0  0
  -21.1080  -13.1800   22.3530 H   0  0  0  0  0  0  0  0  0  0  0  0
  -25.3490  -15.3000   20.3960 N   0  0  0  0  0  0  0  0  0  0  0  0
  -24.6180  -15.9660   20.6160 H   0  0  0  0  0  0  0  0  0  0  0  0
  -26.2700  -15.7260   20.2930 H   0  0  0  0  0  0  0  0  0  0  0  0
  -33.5240  -19.0990   21.3120 C   0  0  0  0  0  2  0  0  0  0  0  0
  -32.4380  -18.3700   21.0030 C   0  0  0  0  0  3  0  0  0  0  0  0
  -28.6860  -21.9250   20.2770 C   0  0  0  0  0  3  0  0  0  0  0  0
  -28.8960  -23.3490   20.3290 C   0  0  0  0  0  3  0  0  0  0  0  0
  -27.8600  -24.6470   20.1520 C   0  0  0  0  0  2  0  0  0  0  0  0
  -28.1730  -26.1860   20.3250 O   0  0  0  0  0  0  0  0  0  0  0  0
  -24.5820  -31.9740   23.2820 C   0  0  0  0  0  0  0  0  0  0  0  0
  -27.1320  -27.2040   20.2570 C   0  0  0  0  0  0  0  0  0  0  0  0
  -23.3720  -30.5810   21.6480 C   0  0  0  0  0  3  0  0  0  0  0  0
  -24.8100  -28.9880   20.2280 C   0  0  0  0  0  0  0  0  0  0  0  0
  -25.9320  -30.8180   21.4850 C   0  0  0  0  0  2  0  0  0  0  0  0
  -25.9980  -29.4220   20.8300 C   0  0  0  0  0  0  0  0  0  0  0  0
  -27.1570  -28.5490   20.8230 C   0  0  0  0  0  3  0  0  0  0  0  0
  -25.9120  -26.8830   19.6140 C   0  0  0  0  0  3  0  0  0  0  0  0
  -24.7840  -27.7320   19.6050 C   0  0  0  0  0  3  0  0  0  0  0  0
  -23.5890  -29.8950   20.2740 C   0  0  0  0  0  2  0  0  0  0  0  0
  -24.6500  -31.1480   22.1910 N   0  0  0  0  0  0  0  0  0  0  0  0
  -23.4970  -32.2670   23.8100 O   0  0  0  0  0  0  0  0  0  0  0  0
  -22.6850  -29.5820   22.6150 C   0  0  0  0  0  0  0  0  0  0  0  0
  -21.3580  -29.4070   22.4800 N   0  0  0  0  0  0  0  0  0  0  0  0
  -23.3510  -28.9690   23.4540 O   0  0  0  0  0  0  0  0  0  0  0  0
  -20.8760  -29.9530   21.7800 H   0  0  0  0  0  0  0  0  0  0  0  0
  -17.9790  -28.1860   22.9630 C   0  0  0  0  0  0  0  0  0  0  0  0
  -20.5320  -28.4750   23.2540 C   0  0  0  0  0  3  0  0  0  0  0  0
  -20.6530  -27.0350   22.7030 C   0  0  0  0  0  2  0  0  0  0  0  0
  -19.5660  -26.6870   21.6810 C   0  0  0  0  0  2  0  0  0  0  0  0
  -18.1750  -26.8310   22.3050 C   0  0  0  0  0  2  0  0  0  0  0  0
  -19.0850  -28.9660   23.3930 C   0  0  0  0  0  0  0  0  0  0  0  0
  -18.8470  -30.2320   23.9680 C   0  0  0  0  0  3  0  0  0  0  0  0
  -17.5360  -30.7220   24.1160 C   0  0  0  0  0  3  0  0  0  0  0  0
  -16.4430  -29.9400   23.7000 C   0  0  0  0  0  3  0  0  0  0  0  0
  -16.6660  -28.6740   23.1310 C   0  0  0  0  0  3  0  0  0  0  0  0
  -25.8640  -32.6070   23.9040 C   0  0  0  0  0  3  0  0  0  0  0  0
  -26.3710  -31.8450   25.1900 C   0  0  1  0  0  0  0  0  0  0  0  0
  -25.2720  -31.6200   26.2550 C   0  0  0  0  0  1  0  0  0  0  0  0
  -26.9530  -30.4620   24.8200 C   0  0  0  0  0  1  0  0  0  0  0  0
  -27.5200  -32.6430   25.8530 C   0  0  0  0  0  1  0  0  0  0  0  0
  -25.5600  -34.0100   24.2300 N   0  0  0  0  0  0  0  0  0  0  0  0
  -25.8800  -35.0610   23.4620 C   0  0  0  0  0  0  0  0  0  0  0  0
  -26.5250  -34.9500   22.4170 O   0  0  0  0  0  0  0  0  0  0  0  0
  -24.9880  -34.1710   25.0460 H   0  0  0  0  0  0  0  0  0  0  0  0
  -24.1400  -36.8530   23.1560 C   0  0  0  0  0  1  0  0  0  0  0  0
  -25.4100  -36.4540   23.9260 C   0  0  0  0  0  3  0  0  0  0  0  0
  -27.5680  -37.3460   24.6800 C   0  0  0  0  0  1  0  0  0  0  0  0
  -26.4370  -37.5060   23.7700 N   0  0  0  0  0  0  0  0  0  0  0  0
  -26.0360  -38.4270   23.9240 H   0  0  0  0  0  0  0  0  0  0  0  0
  1  2  1  0
  2 46  1  0
  3  1  2  0
  4  6  1  0
  4  2  2  0
  5  3  1  0
  5  4  1  0
  6  9  1  0
  6  7  1  0
  7  8  1  0
 10 15  1  0
 11 12  1  0
 11 10  1  0
 13 12  1  0
 13 20  1  0
 13 14  1  0
 15  9  1  0
 15 14  1  0
 16  9  2  0
 17 18  2  0
 18 37  1  0
 19 18  1  0
 19 22  1  0
 20 21  1  0
 20 17  1  0
 21 19  2  0
 22 23  1  0
 23 24  2  0
 25 28  1  0
 25 24  1  0
 26 25  2  0
 27 26  1  0
 27 22  2  0
 28 29  1  0
 29 30  1  0
 30 31  2  0
 32 31  1  0
 32 36  1  0
 33 32  2  0
 34 29  2  0
 34 33  1  0
 35 34  1  0
 37 38  1  0
 38 41  1  0
 38 40  1  0
 39 37  2  0
 42 17  1  0
 42 43  1  0
 44 42  1  0
 46 45  2  0
 47 48  2  0
 47  3  1  0
 49 50  1  0
 49 48  1  0
 51 62  2  0
 52 50  1  0
 52 57  1  0
 53 61  1  0
 53 63  1  0
 54 60  1  0
 54 56  1  0
 55 61  1  0
 56 55  1  0
 57 56  2  0
 58 52  2  0
 59 58  1  0
 59 54  2  0
 60 53  1  0
 61 51  1  0
 63 65  2  0
 64 63  1  0
 66 64  1  0
 67 76  2  0
 67 72  1  0
 68 64  1  0
 68 72  1  0
 69 68  1  0
 70 71  1  0
 70 69  1  0
 71 67  1  0
 72 73  2  0
 73 74  1  0
 75 74  2  0
 76 75  1  0
 77 51  1  0
 77 82  1  0
 77 78  1  0
 78 81  1  1
 78 79  1  0
 80 78  1  0
 82 85  1  0
 83 87  1  0
 83 82  1  0
 84 83  2  0
 87 86  1  0
 89 90  1  0
 89 87  1  0
 89 88  1  0
M  ISO  4   6 100   9 100  49 101  50 101
M  END
>  <TORSDO>  (3) 
F 20

>  <SCORE>  (3) 
-14.248

>  <name>  (3) 
2

>  <ligand_id>  (3) 
2

>  <original_smiles>  (3) 
[H]N=C(C(=O)N1C([H])([H])C([H])([H])C([H])([H])C([H])(n2nc(-c3c([H])c([H])c(Oc4c([H])c([H])c(F)c([H])c4F)c([H])c3[H])c(C(=O)N([H])[H])c2N([H])[H])C1([H])[H])c1oc(C([H])=C([H])C([H])([H])Oc2c([H])c([H])c3c(c2[H])C([H])([H])N(C(=O)C([H])(N([H])C(=O)C([H])(N([H])C([H])([H])[H])C([H])([H])[H])C(C([H])([H])[H])(C([H])([H])[H])C([H])([H])[H])C([H])(C(=O)N([H])C2([H])c4c([H])c([H])c([H])c([H])c4C([H])([H])C([H])([H])C2([H])[H])C3([H])[H])c([H])c1C([H])=C([H])[H]

>  <smiles>  (3) 
[H]N=C(C(=O)N1C([H])([H])C([H])([H])C([H])([H])C([H])(n2nc(-c3c([H])c([H])c(Oc4c([H])c([H])c(F)c([H])c4F)c([H])c3[H])c(C(=O)N([H])[H])c2N([H])[H])C1([H])[H])c1oc(C([H])=C([H])C([H])([H])Oc2c([H])c([H])c3c(c2[H])C([H])([H])N(C(=O)C([H])(N([H])C(=O)C([H])(N([H])C([H])([H])[H])C([H])([H])[H])C(C([H])([H])[H])(C([H])([H])[H])C([H])([H])[H])C([H])(C(=O)N([H])C2([H])c4c([H])c([H])c([H])c([H])c4C([H])([H])C([H])([H])C2([H])[H])C3([H])[H])c([H])c1C([H])=C([H])[H]

$$$$
3:0:0
     RDKit          3D

 90 98  0  0  1  0  0  0  0  0999 V2000
  -30.5170  -20.3440   19.5790 C   0  0  0  0  0  3  0  0  0  0  0  0
  -28.6400  -19.1600   19.4150 C   0  0  0  0  0  0  0  0  0  0  0  0
  -29.1700  -20.5640   19.4150 C   0  0  0  0  0  0  0  0  0  0  0  0
  -29.6330  -18.1310   19.5680 C   0  0  0  0  0  0  0  0  0  0  0  0
  -30.7690  -18.9500   19.6640 N   0  0  0  0  0  0  0  0  0  0  0  0
  -31.7060  -18.5800   19.7890 H   0  0  0  0  0  0  0  0  0  0  0  0
  -26.6710  -17.8850   20.3600 C   0  0  0  0  0  1  0  0  0  0  0  0
  -27.1740  -18.8350   19.2660 C   0  0  0  0  0  2  0  0  0  0  0  0
  -28.4480  -21.8810   19.2680 N   0  0  0  0  0  0  0  0  0  0  0  0
  -27.4550  -21.7090   19.1430 H   0  0  0  0  0  0  0  0  0  0  0  0
  -28.7580  -23.3570   19.2670 C   0  0  0  0  0  3  0  0  0  0  0  0
  -27.9230  -24.5270   19.3400 C   0  0  0  0  0  3  0  0  0  0  0  0
  -28.1910  -25.9920   19.3800 O   0  0  0  0  0  0  0  0  0  0  0  0
  -24.6430  -31.4140   23.0570 C   0  0  0  0  0  0  0  0  0  0  0  0
  -27.1530  -27.0120   19.4850 C   0  0  0  0  0  0  0  0  0  0  0  0
  -23.4180  -30.2160   21.2870 C   0  0  0  0  0  3  0  0  0  0  0  0
  -24.8410  -28.7970   19.6760 C   0  0  0  0  0  0  0  0  0  0  0  0
  -25.9740  -30.4720   21.1250 C   0  0  0  0  0  2  0  0  0  0  0  0
  -26.0330  -29.1550   20.3220 C   0  0  0  0  0  0  0  0  0  0  0  0
  -27.1860  -28.2800   20.2110 C   0  0  0  0  0  3  0  0  0  0  0  0
  -25.9380  -26.7790   18.8060 C   0  0  0  0  0  3  0  0  0  0  0  0
  -24.8100  -27.6250   18.9040 C   0  0  0  0  0  3  0  0  0  0  0  0
  -23.6220  -29.6960   19.8380 C   0  0  0  0  0  2  0  0  0  0  0  0
  -24.7000  -30.7180   21.8790 N   0  0  0  0  0  0  0  0  0  0  0  0
  -23.5640  -31.6430   23.6260 O   0  0  0  0  0  0  0  0  0  0  0  0
  -22.7420  -29.1120   22.1390 C   0  0  0  0  0  0  0  0  0  0  0  0
  -21.4050  -28.9890   22.0430 N   0  0  0  0  0  0  0  0  0  0  0  0
  -23.4230  -28.3710   22.8530 O   0  0  0  0  0  0  0  0  0  0  0  0
  -20.9120  -29.6400   21.4480 H   0  0  0  0  0  0  0  0  0  0  0  0
  -18.0050  -27.8620   22.5920 C   0  0  0  0  0  0  0  0  0  0  0  0
  -20.5860  -27.9800   22.7200 C   0  0  0  0  0  3  0  0  0  0  0  0
  -20.5800  -26.6490   21.9320 C   0  0  0  0  0  2  0  0  0  0  0  0
  -19.4030  -26.5290   20.9580 C   0  0  0  0  0  2  0  0  0  0  0  0
  -18.0730  -26.6260   21.7110 C   0  0  0  0  0  2  0  0  0  0  0  0
  -19.1840  -28.5070   23.0540 C   0  0  0  0  0  0  0  0  0  0  0  0
  -19.0640  -29.6700   23.8460 C   0  0  0  0  0  3  0  0  0  0  0  0
  -17.7970  -30.1870   24.1760 C   0  0  0  0  0  3  0  0  0  0  0  0
  -16.6330  -29.5370   23.7270 C   0  0  0  0  0  3  0  0  0  0  0  0
  -16.7380  -28.3760   22.9410 C   0  0  0  0  0  3  0  0  0  0  0  0
  -25.9310  -31.9720   23.7370 C   0  0  0  0  0  3  0  0  0  0  0  0
  -26.4350  -31.0790   24.9370 C   0  0  1  0  0  0  0  0  0  0  0  0
  -25.3420  -30.7730   25.9880 C   0  0  0  0  0  1  0  0  0  0  0  0
  -26.9830  -29.7270   24.4260 C   0  0  0  0  0  1  0  0  0  0  0  0
  -27.6070  -31.7840   25.6590 C   0  0  0  0  0  1  0  0  0  0  0  0
  -25.6360  -33.3370   24.2050 N   0  0  0  0  0  0  0  0  0  0  0  0
  -25.9480  -34.4570   23.5410 C   0  0  0  0  0  0  0  0  0  0  0  0
  -26.5780  -34.4500   22.4800 O   0  0  0  0  0  0  0  0  0  0  0  0
  -25.0730  -33.4140   25.0390 H   0  0  0  0  0  0  0  0  0  0  0  0
  -24.2090  -36.2760   23.4410 C   0  0  0  0  0  1  0  0  0  0  0  0
  -25.4890  -35.8000   24.1470 C   0  0  0  0  0  3  0  0  0  0  0  0
  -27.6610  -36.6170   24.9500 C   0  0  0  0  0  1  0  0  0  0  0  0
  -26.5180  -36.8610   24.0770 N   0  0  0  0  0  0  0  0  0  0  0  0
  -26.1200  -37.7640   24.3200 H   0  0  0  0  0  0  0  0  0  0  0  0
  -29.5980  -16.4410   19.6370 C   0  0  0  0  0  2  0  0  0  0  0  0
  -30.5440  -15.0280   19.4990 C   0  0  0  0  0  0  0  0  0  0  0  0
  -30.5890  -12.5310   18.9350 C   0  0  0  0  0  2  0  0  0  0  0  0
  -29.5930  -12.2290   17.7880 C   0  0  0  0  0  2  0  0  0  0  0  0
  -28.1770  -11.9830   18.3420 C   0  0  0  0  0  2  0  0  0  0  0  0
  -27.7670  -13.0450   19.3940 C   0  0  0  0  0  3  0  0  0  0  0  0
  -28.8780  -13.3060   20.4300 C   0  0  0  0  0  2  0  0  0  0  0  0
  -30.0820  -13.7160   19.6960 N   0  0  0  0  0  0  0  0  0  0  0  0
  -31.7140  -15.1030   19.0910 O   0  0  0  0  0  0  0  0  0  0  0  0
  -25.4900  -13.6150   20.4110 C   0  0  0  0  0  0  0  0  0  0  0  0
  -24.4600  -12.8380   20.8630 C   0  0  0  0  0  0  0  0  0  0  0  0
  -24.8990  -11.4860   20.7350 C   0  0  0  0  0  0  0  0  0  0  0  0
  -26.4880  -12.7360   20.0250 N   0  0  0  0  0  0  0  0  0  0  0  0
  -26.1480  -11.4460   20.2860 N   0  0  0  0  0  0  0  0  0  0  0  0
  -24.1750  -10.2250   20.9560 C   0  0  0  0  0  0  0  0  0  0  0  0
  -24.6230   -9.2710   21.8970 C   0  0  0  0  0  3  0  0  0  0  0  0
  -23.8980   -8.0780   22.1070 C   0  0  0  0  0  3  0  0  0  0  0  0
  -22.7110   -7.8310   21.3770 C   0  0  0  0  0  0  0  0  0  0  0  0
  -22.2830   -8.7730   20.4250 C   0  0  0  0  0  3  0  0  0  0  0  0
  -23.0080   -9.9580   20.2140 C   0  0  0  0  0  3  0  0  0  0  0  0
  -21.9570   -6.6870   21.4940 O   0  0  0  0  0  0  0  0  0  0  0  0
  -21.8210   -6.0360   22.6940 C   0  0  0  0  0  0  0  0  0  0  0  0
  -21.2670   -6.6700   23.8270 C   0  0  0  0  0  3  0  0  0  0  0  0
  -21.0800   -5.9430   25.0200 C   0  0  0  0  0  3  0  0  0  0  0  0
  -21.4360   -4.5820   25.0790 C   0  0  0  0  0  0  0  0  0  0  0  0
  -21.9830   -3.9470   23.9490 C   0  0  0  0  0  3  0  0  0  0  0  0
  -22.1710   -4.6720   22.7600 C   0  0  0  0  0  0  0  0  0  0  0  0
  -22.6780   -4.0500   21.6680 F   0  0  0  0  0  0  0  0  0  0  0  0
  -21.2500   -3.8820   26.2210 F   0  0  0  0  0  0  0  0  0  0  0  0
  -23.1070  -13.3220   21.2970 C   0  0  0  0  0  0  0  0  0  0  0  0
  -22.4680  -12.6120   22.2190 N   0  0  0  0  0  0  0  0  0  0  0  0
  -22.6290  -14.3660   20.8530 O   0  0  0  0  0  0  0  0  0  0  0  0
  -22.8710  -11.7680   22.5990 H   0  0  0  0  0  0  0  0  0  0  0  0
  -21.5650  -12.9180   22.5510 H   0  0  0  0  0  0  0  0  0  0  0  0
  -25.6560  -14.9900   20.2710 N   0  0  0  0  0  0  0  0  0  0  0  0
  -24.9190  -15.6500   20.4970 H   0  0  0  0  0  0  0  0  0  0  0  0
  -26.4800  -15.4360   19.8890 H   0  0  0  0  0  0  0  0  0  0  0  0
  1  5  1  0
  2  3  1  0
  2  4  2  0
  3  1  2  0
  4 54  1  0
  4  5  1  0
  5  6  1  0
  8  2  1  0
  8  7  1  0
  9  3  1  0
 10  9  1  0
 11  9  1  0
 11 12  2  0
 12 13  1  0
 13 15  1  0
 14 25  2  0
 15 20  1  0
 16 24  1  0
 16 26  1  0
 17 23  1  0
 17 19  1  0
 18 24  1  0
 19 18  1  0
 20 19  2  0
 21 22  1  0
 21 15  2  0
 22 17  2  0
 23 16  1  0
 24 14  1  0
 26 28  2  0
 27 26  1  0
 29 27  1  0
 30 39  2  0
 30 35  1  0
 31 27  1  0
 31 35  1  0
 32 31  1  0
 33 34  1  0
 33 32  1  0
 34 30  1  0
 35 36  2  0
 36 37  1  0
 38 37  2  0
 39 38  1  0
 40 14  1  0
 40 45  1  0
 40 41  1  0
 41 44  1  1
 41 42  1  0
 43 41  1  0
 45 48  1  0
 46 50  1  0
 46 45  1  0
 47 46  2  0
 50 49  1  0
 52 50  1  0
 52 53  1  0
 52 51  1  0
 55 54  1  0
 55 61  1  0
 56 61  1  0
 57 58  1  0
 57 56  1  0
 59 58  1  0
 59 66  1  0
 59 60  1  0
 61 60  1  0
 62 55  2  0
 63 64  2  0
 64 83  1  0
 65 64  1  0
 65 68  1  0
 66 67  1  0
 66 63  1  0
 67 65  2  0
 68 69  1  0
 69 70  2  0
 71 74  1  0
 71 70  1  0
 72 71  2  0
 73 72  1  0
 73 68  2  0
 74 75  1  0
 75 80  2  0
 75 76  1  0
 76 77  2  0
 77 78  1  0
 78 82  1  0
 79 78  2  0
 80 79  1  0
 81 80  1  0
 83 84  1  0
 84 87  1  0
 84 86  1  0
 85 83  2  0
 88 63  1  0
 88 89  1  0
 90 88  1  0
M  ISO  4  12 101  13 101  54 100  55 100
M  END
>  <TORSDO>  (4) 
F 20

>  <SCORE>  (4) 
-12.765

>  <name>  (4) 
3

>  <ligand_id>  (4) 
3

>  <original_smiles>  (4) 
[H]C(Oc1c([H])c([H])c2c(c1[H])C([H])([H])N(C(=O)C([H])(N([H])C(=O)C([H])(N([H])C([H])([H])[H])C([H])([H])[H])C(C([H])([H])[H])(C([H])([H])[H])C([H])([H])[H])C([H])(C(=O)N([H])C1([H])c3c([H])c([H])c([H])c([H])c3C([H])([H])C([H])([H])C1([H])[H])C2([H])[H])=C([H])N([H])c1c(C([H])([H])C([H])([H])[H])c(C([H])([H])C(=O)N2C([H])([H])C([H])([H])C([H])([H])C([H])(n3nc(-c4c([H])c([H])c(Oc5c([H])c([H])c(F)c([H])c5F)c([H])c4[H])c(C(=O)N([H])[H])c3N([H])[H])C2([H])[H])n([H])c1[H]

>  <smiles>  (4) 
[H]C(Oc1c([H])c([H])c2c(c1[H])C([H])([H])N(C(=O)C([H])(N([H])C(=O)C([H])(N([H])C([H])([H])[H])C([H])([H])[H])C(C([H])([H])[H])(C([H])([H])[H])C([H])([H])[H])C([H])(C(=O)N([H])C1([H])c3c([H])c([H])c([H])c([H])c3C([H])([H])C([H])([H])C1([H])[H])C2([H])[H])=C([H])N([H])c1c(C([H])([H])C([H])([H])[H])c(C([H])([H])C(=O)N2C([H])([H])C([H])([H])C([H])([H])C([H])(n3nc(-c4c([H])c([H])c(Oc5c([H])c([H])c(F)c([H])c5F)c([H])c4[H])c(C(=O)N([H])[H])c3N([H])[H])C2([H])[H])n([H])c1[H]

$$$$
4:0:0
     RDKit          3D

 96105  0  0  1  0  0  0  0  0999 V2000
  -29.2290  -23.6630   19.9780 C   0  0  0  0  0  0  0  0  0  0  0  0
  -28.9410  -22.3110   20.2040 C   0  0  0  0  0  0  0  0  0  0  0  0
  -30.5900  -23.9560   19.4380 C   0  0  0  0  0  0  0  0  0  0  0  0
  -31.5930  -22.8030   19.3290 C   0  0  0  0  0  2  0  0  0  0  0  0
  -30.9210  -21.4570   19.0010 C   0  0  0  0  0  2  0  0  0  0  0  0
  -27.5820  -21.8820   20.7390 C   0  0  0  0  0  1  0  0  0  0  0  0
  -29.8060  -21.1830   19.9070 N   0  0  0  0  0  0  0  0  0  0  0  0
  -30.9600  -25.0830   19.0970 O   0  0  0  0  0  0  0  0  0  0  0  0
  -30.7300  -17.3900   21.8400 C   0  0  0  0  0  3  0  0  0  0  0  0
  -30.0000  -18.6040   19.8720 C   0  0  0  0  0  3  0  0  0  0  0  0
  -30.7360  -18.6040   22.5580 C   0  0  0  0  0  0  0  0  0  0  0  0
  -30.3830  -19.8420   21.9460 C   0  0  0  0  0  0  0  0  0  0  0  0
  -30.0000  -19.8900   20.5690 C   0  0  0  0  0  0  0  0  0  0  0  0
  -30.3680  -17.3310   20.4840 C   0  0  0  0  0  0  0  0  0  0  0  0
  -31.1540  -18.5410   24.0210 C   0  0  0  0  0  1  0  0  0  0  0  0
  -30.5130  -21.1150   22.7890 C   0  0  0  0  0  1  0  0  0  0  0  0
  -31.0170  -14.8290   19.9620 C   0  0  0  0  0  0  0  0  0  0  0  0
  -30.7420  -12.5490   18.9580 C   0  0  0  0  0  2  0  0  0  0  0  0
  -29.7620  -12.6330   17.7660 C   0  0  0  0  0  2  0  0  0  0  0  0
  -28.2990  -12.5150   18.2440 C   0  0  0  0  0  2  0  0  0  0  0  0
  -27.9900  -13.4170   19.4700 C   0  0  0  0  0  3  0  0  0  0  0  0
  -29.0850  -13.3040   20.5510 C   0  0  0  0  0  2  0  0  0  0  0  0
  -30.3610  -13.6220   19.8980 N   0  0  0  0  0  0  0  0  0  0  0  0
  -32.2290  -14.8880   19.7290 O   0  0  0  0  0  0  0  0  0  0  0  0
  -30.2290  -15.9740   19.8940 N   0  0  0  0  0  0  0  0  0  0  0  0
  -29.2860  -15.7620   19.6090 H   0  0  0  0  0  0  0  0  0  0  0  0
  -25.6500  -14.0940   20.2720 C   0  0  0  0  0  0  0  0  0  0  0  0
  -24.5700  -13.3580   20.6780 C   0  0  0  0  0  0  0  0  0  0  0  0
  -24.9860  -11.9910   20.6380 C   0  0  0  0  0  0  0  0  0  0  0  0
  -26.6550  -13.1780   20.0080 N   0  0  0  0  0  0  0  0  0  0  0  0
  -26.2650  -11.9080   20.2920 N   0  0  0  0  0  0  0  0  0  0  0  0
  -24.2230  -10.7570   20.8530 C   0  0  0  0  0  0  0  0  0  0  0  0
  -24.6230   -9.7970   21.8090 C   0  0  0  0  0  3  0  0  0  0  0  0
  -23.8620   -8.6260   22.0100 C   0  0  0  0  0  3  0  0  0  0  0  0
  -22.6840   -8.4060   21.2570 C   0  0  0  0  0  0  0  0  0  0  0  0
  -22.3030   -9.3530   20.2900 C   0  0  0  0  0  3  0  0  0  0  0  0
  -23.0650  -10.5160   20.0860 C   0  0  0  0  0  3  0  0  0  0  0  0
  -21.8950   -7.2870   21.3680 O   0  0  0  0  0  0  0  0  0  0  0  0
  -21.7840   -6.6000   22.5500 C   0  0  0  0  0  0  0  0  0  0  0  0
  -21.3400   -7.2220   23.7370 C   0  0  0  0  0  3  0  0  0  0  0  0
  -21.1760   -6.4620   24.9120 C   0  0  0  0  0  3  0  0  0  0  0  0
  -21.4430   -5.0800   24.9010 C   0  0  0  0  0  0  0  0  0  0  0  0
  -21.8790   -4.4570   23.7170 C   0  0  0  0  0  3  0  0  0  0  0  0
  -22.0460   -5.2140   22.5450 C   0  0  0  0  0  0  0  0  0  0  0  0
  -22.4470   -4.6050   21.4030 F   0  0  0  0  0  0  0  0  0  0  0  0
  -21.2760   -4.3470   26.0260 F   0  0  0  0  0  0  0  0  0  0  0  0
  -23.1990  -13.8850   20.9850 C   0  0  0  0  0  0  0  0  0  0  0  0
  -22.4770  -13.2280   21.8850 N   0  0  0  0  0  0  0  0  0  0  0  0
  -22.7760  -14.9140   20.4590 O   0  0  0  0  0  0  0  0  0  0  0  0
  -22.8290  -12.3930   22.3320 H   0  0  0  0  0  0  0  0  0  0  0  0
  -21.5580  -13.5640   22.1360 H   0  0  0  0  0  0  0  0  0  0  0  0
  -25.8490  -15.4580   20.0810 N   0  0  0  0  0  0  0  0  0  0  0  0
  -25.0990  -16.1280   20.2120 H   0  0  0  0  0  0  0  0  0  0  0  0
  -26.6840  -15.8740   19.6920 H   0  0  0  0  0  0  0  0  0  0  0  0
  -28.2510  -24.9210   20.2410 C   0  0  0  0  0  2  0  0  0  0  0  0
  -28.5200  -26.4050   20.2570 O   0  0  0  0  0  0  0  0  0  0  0  0
  -24.6460  -31.8270   23.1800 C   0  0  0  0  0  0  0  0  0  0  0  0
  -27.4050  -27.2750   20.1930 C   0  0  0  0  0  0  0  0  0  0  0  0
  -23.5020  -30.3980   21.5210 C   0  0  0  0  0  3  0  0  0  0  0  0
  -25.0130  -28.8640   20.1310 C   0  0  0  0  0  0  0  0  0  0  0  0
  -26.0420  -30.7600   21.3850 C   0  0  0  0  0  2  0  0  0  0  0  0
  -26.1650  -29.3770   20.7430 C   0  0  0  0  0  0  0  0  0  0  0  0
  -27.3670  -28.5960   20.7580 C   0  0  0  0  0  3  0  0  0  0  0  0
  -26.2270  -26.8280   19.5550 C   0  0  0  0  0  3  0  0  0  0  0  0
  -25.0480  -27.5990   19.5270 C   0  0  0  0  0  3  0  0  0  0  0  0
  -23.7580  -29.7160   20.1500 C   0  0  0  0  0  2  0  0  0  0  0  0
  -24.7470  -31.0160   22.0830 N   0  0  0  0  0  0  0  0  0  0  0  0
  -23.5470  -32.0820   23.6940 O   0  0  0  0  0  0  0  0  0  0  0  0
  -22.8400  -29.3750   22.4770 C   0  0  0  0  0  0  0  0  0  0  0  0
  -21.5200  -29.1680   22.3260 N   0  0  0  0  0  0  0  0  0  0  0  0
  -23.5150  -28.7680   23.3120 O   0  0  0  0  0  0  0  0  0  0  0  0
  -21.0310  -29.7110   21.6280 H   0  0  0  0  0  0  0  0  0  0  0  0
  -18.1680  -27.8730   22.7460 C   0  0  0  0  0  0  0  0  0  0  0  0
  -20.7090  -28.2170   23.0890 C   0  0  0  0  0  3  0  0  0  0  0  0
  -20.8720  -26.7800   22.5430 C   0  0  0  0  0  2  0  0  0  0  0  0
  -19.8130  -26.4090   21.4990 C   0  0  0  0  0  2  0  0  0  0  0  0
  -18.4080  -26.5200   22.0990 C   0  0  0  0  0  2  0  0  0  0  0  0
  -19.2490  -28.6770   23.1980 C   0  0  0  0  0  0  0  0  0  0  0  0
  -18.9740  -29.9410   23.7630 C   0  0  0  0  0  3  0  0  0  0  0  0
  -17.6490  -30.4020   23.8820 C   0  0  0  0  0  3  0  0  0  0  0  0
  -16.5830  -29.5970   23.4480 C   0  0  0  0  0  3  0  0  0  0  0  0
  -16.8430  -28.3350   22.8870 C   0  0  0  0  0  3  0  0  0  0  0  0
  -25.9030  -32.4910   23.8210 C   0  0  0  0  0  3  0  0  0  0  0  0
  -25.5590  -33.8840   24.1420 N   0  0  0  0  0  0  0  0  0  0  0  0
  -25.9150  -34.9460   23.4070 C   0  0  0  0  0  0  0  0  0  0  0  0
  -26.6350  -34.8560   22.4090 O   0  0  0  0  0  0  0  0  0  0  0  0
  -24.9220  -34.0280   24.9130 H   0  0  0  0  0  0  0  0  0  0  0  0
  -24.1780  -36.7160   22.9790 C   0  0  0  0  0  1  0  0  0  0  0  0
  -25.3860  -36.3260   23.8460 C   0  0  0  0  0  3  0  0  0  0  0  0
  -27.4710  -37.2280   24.7780 C   0  0  0  0  0  1  0  0  0  0  0  0
  -26.4070  -37.3950   23.7900 N   0  0  0  0  0  0  0  0  0  0  0  0
  -25.9810  -38.3060   23.9320 H   0  0  0  0  0  0  0  0  0  0  0  0
  -26.4120  -31.7380   25.1110 C   0  0  1  0  0  0  0  0  0  0  0  0
  -25.3050  -31.4790   26.1600 C   0  0  0  0  0  1  0  0  0  0  0  0
  -27.0340  -30.3730   24.7380 C   0  0  0  0  0  1  0  0  0  0  0  0
  -27.5300  -32.5600   25.7920 C   0  0  0  0  0  1  0  0  0  0  0  0
  1  2  2  0
  1 55  1  0
  2  6  1  0
  3  1  1  0
  4  3  1  0
  5  4  1  0
  5  7  1  0
  7  2  1  0
  7 13  1  0
  8  3  2  0
  9 11  1  0
 10 14  1  0
 10 13  2  0
 11 15  1  0
 12 11  2  0
 12 16  1  0
 13 12  1  0
 14  9  2  0
 18 23  1  0
 19 20  1  0
 19 18  1  0
 21 20  1  0
 21 30  1  0
 21 22  1  0
 23 17  1  0
 23 22  1  0
 24 17  2  0
 25 17  1  0
 25 14  1  0
 26 25  1  0
 27 28  2  0
 28 47  1  0
 29 28  1  0
 29 32  1  0
 30 27  1  0
 30 31  1  0
 31 29  2  0
 32 33  1  0
 33 34  2  0
 35 38  1  0
 35 34  1  0
 36 35  2  0
 37 36  1  0
 37 32  2  0
 38 39  1  0
 39 40  1  0
 40 41  2  0
 42 41  1  0
 42 46  1  0
 43 42  2  0
 44 39  2  0
 44 43  1  0
 45 44  1  0
 47 48  1  0
 48 51  1  0
 48 50  1  0
 49 47  2  0
 52 53  1  0
 52 27  1  0
 54 52  1  0
 55 56  1  0
 57 68  2  0
 58 56  1  0
 58 63  1  0
 59 67  1  0
 59 69  1  0
 60 66  1  0
 60 62  1  0
 61 67  1  0
 62 63  2  0
 62 61  1  0
 64 58  2  0
 65 64  1  0
 65 60  2  0
 66 59  1  0
 67 57  1  0
 69 71  2  0
 70 69  1  0
 72 70  1  0
 73 82  2  0
 73 78  1  0
 74 70  1  0
 74 78  1  0
 75 74  1  0
 76 77  1  0
 76 75  1  0
 77 73  1  0
 78 79  2  0
 79 80  1  0
 81 80  2  0
 82 81  1  0
 83 57  1  0
 83 84  1  0
 83 93  1  0
 84 87  1  0
 85 89  1  0
 85 84  1  0
 86 85  2  0
 89 88  1  0
 91 89  1  0
 91 92  1  0
 91 90  1  0
 93 96  1  1
 93 94  1  0
 95 93  1  0
M  ISO  4  17 100  25 100  55 101  56 101
M  END
>  <TORSDO>  (5) 
F 18

>  <SCORE>  (5) 
-13.533

>  <name>  (5) 
4

>  <ligand_id>  (5) 
4

>  <original_smiles>  (5) 
[H]c1c([H])c([H])c2c(c1[H])C([H])([H])C([H])([H])C([H])([H])C2([H])N([H])C(=O)C1([H])N(C(=O)C([H])(N([H])C(=O)C([H])(N([H])C([H])([H])[H])C([H])([H])[H])C(C([H])([H])[H])(C([H])([H])[H])C([H])([H])[H])C([H])([H])c2c([H])c(OC([H])([H])C3=C(C([H])([H])[H])N(c4c([H])c(N([H])C(=O)N5C([H])([H])C([H])([H])C([H])([H])C([H])(n6nc(-c7c([H])c([H])c(Oc8c([H])c([H])c(F)c([H])c8F)c([H])c7[H])c(C(=O)N([H])[H])c6N([H])[H])C5([H])[H])c([H])c(C([H])([H])[H])c4C([H])([H])[H])C([H])([H])C([H])([H])C3=O)c([H])c([H])c2C1([H])[H]

>  <smiles>  (5) 
[H]c1c([H])c([H])c2c(c1[H])C([H])([H])C([H])([H])C([H])([H])C2([H])N([H])C(=O)C1([H])N(C(=O)C([H])(N([H])C(=O)C([H])(N([H])C([H])([H])[H])C([H])([H])[H])C(C([H])([H])[H])(C([H])([H])[H])C([H])([H])[H])C([H])([H])c2c([H])c(OC([H])([H])C3=C(C([H])([H])[H])N(c4c([H])c(N([H])C(=O)N5C([H])([H])C([H])([H])C([H])([H])C([H])(n6nc(-c7c([H])c([H])c(Oc8c([H])c([H])c(F)c([H])c8F)c([H])c7[H])c(C(=O)N([H])[H])c6N([H])[H])C5([H])[H])c([H])c(C([H])([H])[H])c4C([H])([H])[H])C([H])([H])C([H])([H])C3=O)c([H])c([H])c2C1([H])[H]

$$$$
5:0:0
     RDKit          3D

100104  0  0  1  0  0  0  0  0999 V2000
  -29.0820  -21.3290   19.6490 C   0  0  0  0  0  2  0  0  0  0  0  0
  -30.3150  -20.5820   20.3910 C   0  0  0  0  0  3  0  0  0  0  0  0
  -28.5460  -20.2390   18.1540 C   0  0  0  0  0  3  0  0  0  0  0  0
  -29.8060  -19.0470   17.0410 C   0  0  0  0  0 15  0  0  0  0  0  0
  -31.8490  -18.7530   18.0570 C   0  0  0  0  0  1  0  0  0  0  0  0
  -31.7370  -19.5910   19.8530 N   0  0  0  0  0  2  0  0  0  0  0  0
  -27.3730  -20.2780   17.7750 O   0  0  0  0  0  0  0  0  0  0  0  0
  -33.5870  -20.5360   18.8190 C   0  0  0  0  0  3  0  0  0  0  0  0
  -32.4750  -21.2030   18.2200 C   0  0  0  0  0  3  0  0  0  0  0  0
  -32.9880  -20.2550   19.9990 C   0  0  0  0  0  3  0  0  0  0  0  0
  -32.4820  -22.3890   18.9260 C   0  0  0  0  0  3  0  0  0  0  0  0
  -35.0530  -20.7940   18.5700 C   0  0  0  0  0  1  0  0  0  0  0  0
  -33.0550  -21.9360   20.5450 S   0  0  0  0  0  0  0  0  0  0  0  0
  -31.8850  -23.6220   18.6870 N   0  0  0  0  0  0  0  0  0  0  0  0
  -31.3980  -23.8740   17.8340 H   0  0  0  0  0  0  0  0  0  0  0  0
  -31.8720  -24.3710   19.3730 H   0  0  0  0  0  0  0  0  0  0  0  0
  -31.5010  -20.5580   16.2180 C   0  0  0  0  0  1  0  0  0  0  0  0
  -31.1230  -20.4110   17.8030 C   0  0  0  0  0  3  0  0  0  0  0  0
  -30.5700  -16.5090   19.5020 C   0  0  0  0  0  0  0  0  0  0  0  0
  -30.8360  -13.7610   19.0070 C   0  0  0  0  0  2  0  0  0  0  0  0
  -30.0440  -12.8510   18.0060 C   0  0  0  0  0  2  0  0  0  0  0  0
  -28.7280  -12.3620   18.6110 C   0  0  0  0  0  2  0  0  0  0  0  0
  -28.0910  -13.4930   19.4380 C   0  0  0  0  0  3  0  0  0  0  0  0
  -29.0750  -14.2820   20.3690 C   0  0  0  0  0  2  0  0  0  0  0  0
  -30.0540  -15.0530   19.5000 N   0  0  0  0  0  0  0  0  0  0  0  0
  -31.7720  -16.1600   19.6760 O   0  0  0  0  0  0  0  0  0  0  0  0
  -30.0480  -18.1610   19.1640 N   0  0  0  0  0  2  0  0  0  0  0  0
  -29.0460  -18.2220   19.2680 H   0  0  0  0  0  0  0  0  0  0  0  0
  -25.8080  -13.9790   20.3990 C   0  0  0  0  0  0  0  0  0  0  0  0
  -24.7630  -13.1970   20.7960 C   0  0  0  0  0  0  0  0  0  0  0  0
  -25.2110  -11.8440   20.6820 C   0  0  0  0  0  0  0  0  0  0  0  0
  -26.8280  -13.1140   20.0600 N   0  0  0  0  0  0  0  0  0  0  0  0
  -26.4850  -11.8130   20.2860 N   0  0  0  0  0  0  0  0  0  0  0  0
  -24.4690  -10.5850   20.8680 C   0  0  0  0  0  0  0  0  0  0  0  0
  -24.8210   -9.6560   21.8710 C   0  0  0  0  0  3  0  0  0  0  0  0
  -24.0710   -8.4730   22.0500 C   0  0  0  0  0  3  0  0  0  0  0  0
  -22.9530   -8.2070   21.2230 C   0  0  0  0  0  0  0  0  0  0  0  0
  -22.6210   -9.1230   20.2100 C   0  0  0  0  0  3  0  0  0  0  0  0
  -23.3710  -10.2980   20.0300 C   0  0  0  0  0  3  0  0  0  0  0  0
  -22.1840   -7.0710   21.3060 O   0  0  0  0  0  0  0  0  0  0  0  0
  -21.9110   -6.4690   22.5090 C   0  0  0  0  0  0  0  0  0  0  0  0
  -21.1760   -7.1270   23.5200 C   0  0  0  0  0  3  0  0  0  0  0  0
  -20.8600   -6.4500   24.7150 C   0  0  0  0  0  3  0  0  0  0  0  0
  -21.2680   -5.1140   24.8970 C   0  0  0  0  0  0  0  0  0  0  0  0
  -21.9940   -4.4560   23.8880 C   0  0  0  0  0  3  0  0  0  0  0  0
  -22.3110   -5.1310   22.6970 C   0  0  0  0  0  0  0  0  0  0  0  0
  -22.9930   -4.4850   21.7200 F   0  0  0  0  0  0  0  0  0  0  0  0
  -20.9580   -4.4600   26.0400 F   0  0  0  0  0  0  0  0  0  0  0  0
  -23.3910  -13.6840   21.1580 C   0  0  0  0  0  0  0  0  0  0  0  0
  -22.7000  -12.9710   22.0390 N   0  0  0  0  0  0  0  0  0  0  0  0
  -22.9470  -14.7360   20.6970 O   0  0  0  0  0  0  0  0  0  0  0  0
  -23.0760  -12.1210   22.4330 H   0  0  0  0  0  0  0  0  0  0  0  0
  -21.7810  -13.2790   22.3240 H   0  0  0  0  0  0  0  0  0  0  0  0
  -25.9720  -15.3550   20.2560 N   0  0  0  0  0  0  0  0  0  0  0  0
  -25.2190  -16.0100   20.4310 H   0  0  0  0  0  0  0  0  0  0  0  0
  -26.8090  -15.7950   19.9000 H   0  0  0  0  0  0  0  0  0  0  0  0
  -29.1960  -21.3320   22.4670 C   0  0  0  0  0  2  0  0  0  0  0  0
  -30.2820  -20.8710   21.8250 C   0  0  0  0  0  3  0  0  0  0  0  0
  -28.2320  -23.2050   20.0030 C   0  0  0  0  0 15  0  0  0  0  0  0
  -28.3700  -25.1720   20.1070 O   0  0  0  0  0  1  0  0  0  0  0  0
  -24.9250  -31.9210   23.1910 C   0  0  0  0  0  0  0  0  0  0  0  0
  -27.4430  -26.5690   20.1230 C   0  0  0  0  0  0  0  0  0  0  0  0
  -23.7510  -30.5360   21.5420 C   0  0  0  0  0  3  0  0  0  0  0  0
  -25.2030  -28.8450   20.1130 C   0  0  0  0  0  0  0  0  0  0  0  0
  -26.3450  -30.5820   21.4490 C   0  0  0  0  0  2  0  0  0  0  0  0
  -26.4090  -29.1190   20.7660 C   0  0  0  0  0  0  0  0  0  0  0  0
  -27.4940  -28.0250   20.7250 C   0  0  0  0  0  3  0  0  0  0  0  0
  -26.1940  -26.6130   19.4150 C   0  0  0  0  0  3  0  0  0  0  0  0
  -25.1590  -27.6230   19.4120 C   0  0  0  0  0  3  0  0  0  0  0  0
  -24.0080  -29.8350   20.1710 C   0  0  0  0  0  2  0  0  0  0  0  0
  -25.0370  -31.0550   22.1130 N   0  0  0  0  0  0  0  0  0  0  0  0
  -23.8260  -32.2210   23.6930 O   0  0  0  0  0  0  0  0  0  0  0  0
  -23.0100  -29.5720   22.5100 C   0  0  0  0  0  0  0  0  0  0  0  0
  -21.6870  -29.3670   22.3380 N   0  0  0  0  0  0  0  0  0  0  0  0
  -23.6470  -29.0000   23.3980 O   0  0  0  0  0  0  0  0  0  0  0  0
  -21.2150  -29.8810   21.6070 H   0  0  0  0  0  0  0  0  0  0  0  0
  -18.3400  -27.9880   22.7560 C   0  0  0  0  0  0  0  0  0  0  0  0
  -20.8730  -28.4040   23.0980 C   0  0  0  0  0  3  0  0  0  0  0  0
  -21.0680  -26.9670   22.5570 C   0  0  0  0  0  2  0  0  0  0  0  0
  -20.0230  -26.5710   21.5080 C   0  0  0  0  0  2  0  0  0  0  0  0
  -18.6150  -26.6450   22.1000 C   0  0  0  0  0  2  0  0  0  0  0  0
  -19.3990  -28.8210   23.2090 C   0  0  0  0  0  0  0  0  0  0  0  0
  -19.0850  -30.0690   23.7880 C   0  0  0  0  0  3  0  0  0  0  0  0
  -17.7470  -30.4890   23.9150 C   0  0  0  0  0  3  0  0  0  0  0  0
  -16.7030  -29.6580   23.4730 C   0  0  0  0  0  3  0  0  0  0  0  0
  -17.0010  -28.4080   22.9000 C   0  0  0  0  0  3  0  0  0  0  0  0
  -26.1700  -32.5880   23.8550 C   0  0  0  0  0  3  0  0  0  0  0  0
  -25.8240  -33.9810   24.2230 N   0  0  0  0  0  0  0  0  0  0  0  0
  -26.0770  -35.0700   23.4810 C   0  0  0  0  0  0  0  0  0  0  0  0
  -26.6720  -35.0090   22.4030 O   0  0  0  0  0  0  0  0  0  0  0  0
  -25.2800  -34.0980   25.0650 H   0  0  0  0  0  0  0  0  0  0  0  0
  -24.2630  -36.8220   23.3600 C   0  0  0  0  0  1  0  0  0  0  0  0
  -25.6020  -36.4420   24.0150 C   0  0  0  0  0  3  0  0  0  0  0  0
  -27.7750  -37.4170   24.6250 C   0  0  0  0  0  1  0  0  0  0  0  0
  -26.5790  -37.5330   23.7970 N   0  0  0  0  0  0  0  0  0  0  0  0
  -26.1530  -38.4390   23.9790 H   0  0  0  0  0  0  0  0  0  0  0  0
  -26.6650  -31.8190   25.1430 C   0  0  1  0  0  0  0  0  0  0  0  0
  -25.5380  -31.4960   26.1530 C   0  0  0  0  0  1  0  0  0  0  0  0
  -27.3460  -30.4850   24.7710 C   0  0  0  0  0  1  0  0  0  0  0  0
  -27.7360  -32.6610   25.8760 C   0  0  0  0  0  1  0  0  0  0  0  0
  2  1  1  0
  2 58  1  0
  3  1  1  0
  6  2  1  0
  7  3  2  0
  8 12  1  0
  8 10  1  0
  9 18  1  0
  9  8  1  0
  9 11  1  0
 10  6  1  0
 10 13  1  0
 11 14  1  0
 11 13  1  0
 14 16  1  0
 15 14  1  0
 17 18  1  0
 18  5  1  0
 19 26  2  0
 20 25  1  0
 21 22  1  0
 21 20  1  0
 23 22  1  0
 23 32  1  0
 23 24  1  0
 25 19  1  0
 25 24  1  0
 27 28  1  0
 27 19  1  0
 29 30  2  0
 30 49  1  0
 31 30  1  0
 31 34  1  0
 32 33  1  0
 32 29  1  0
 33 31  2  0
 34 35  1  0
 35 36  2  0
 37 40  1  0
 37 36  1  0
 38 37  2  0
 39 38  1  0
 39 34  2  0
 40 41  1  0
 41 46  2  0
 41 42  1  0
 42 43  2  0
 43 44  1  0
 44 48  1  0
 45 44  2  0
 46 45  1  0
 47 46  1  0
 49 50  1  0
 50 53  1  0
 50 52  1  0
 51 49  2  0
 54 29  1  0
 54 55  1  0
 56 54  1  0
 58 57  2  0
 60 62  1  0
 61 72  2  0
 62 67  1  0
 63 71  1  0
 63 73  1  0
 64 70  1  0
 64 66  1  0
 65 71  1  0
 66 65  1  0
 67 66  2  0
 68 62  2  0
 69 68  1  0
 69 64  2  0
 70 63  1  0
 71 61  1  0
 73 75  2  0
 74 73  1  0
 76 74  1  0
 77 86  2  0
 77 82  1  0
 78 74  1  0
 78 82  1  0
 79 78  1  0
 80 81  1  0
 80 79  1  0
 81 77  1  0
 82 83  2  0
 83 84  1  0
 85 84  2  0
 86 85  1  0
 87 61  1  0
 87 88  1  0
 87 97  1  0
 88 91  1  0
 89 93  1  0
 89 88  1  0
 90 89  2  0
 93 92  1  0
 95 96  1  0
 95 93  1  0
 95 94  1  0
 97100  1  1
 97 98  1  0
 99 97  1  0
M  ISO  4  19 100  27 100  59 101  60 101
M  END
>  <TORSDO>  (6) 
F 21

>  <SCORE>  (6) 
-14.531

>  <name>  (6) 
5

>  <ligand_id>  (6) 
5

>  <original_smiles>  (6) 
[H]C([H])=C([H])C1=C(C([H])([H])Oc2c([H])c([H])c3c(c2[H])C([H])([H])N(C(=O)C([H])(N([H])C(=O)C([H])(N([H])C([H])([H])[H])C([H])([H])[H])C(C([H])([H])[H])(C([H])([H])[H])C([H])([H])[H])C([H])(C(=O)N([H])C2([H])c4c([H])c([H])c([H])c([H])c4C([H])([H])C([H])([H])C2([H])[H])C3([H])[H])C(=O)C([H])([H])C([H])([H])N1c1sc(N([H])[H])c(C([H])(N([H])C(=O)N2C([H])([H])C([H])([H])C([H])([H])C([H])(n3nc(-c4c([H])c([H])c(Oc5c([H])c([H])c(F)c([H])c5F)c([H])c4[H])c(C(=O)N([H])[H])c3N([H])[H])C2([H])[H])C([H])([H])[H])c1C([H])([H])[H]

>  <smiles>  (6) 
[H]C([H])=C([H])C1=C(C([H])([H])Oc2c([H])c([H])c3c(c2[H])C([H])([H])N(C(=O)C([H])(N([H])C(=O)C([H])(N([H])C([H])([H])[H])C([H])([H])[H])C(C([H])([H])[H])(C([H])([H])[H])C([H])([H])[H])C([H])(C(=O)N([H])C2([H])c4c([H])c([H])c([H])c([H])c4C([H])([H])C([H])([H])C2([H])[H])C3([H])[H])C(=O)C([H])([H])C([H])([H])N1c1sc(N([H])[H])c(C([H])(N([H])C(=O)N2C([H])([H])C([H])([H])C([H])([H])C([H])(n3nc(-c4c([H])c([H])c(Oc5c([H])c([H])c(F)c([H])c5F)c([H])c4[H])c(C(=O)N([H])[H])c3N([H])[H])C2([H])[H])C([H])([H])[H])c1C([H])([H])[H]

$$$$
6:0:0
     RDKit          3D

 91 99  0  0  1  0  0  0  0  0999 V2000
  -29.0330  -19.7190   19.8990 C   0  0  0  0  0  0  0  0  0  0  0  0
  -28.7240  -21.2580   19.8520 C   0  0  0  0  0  0  0  0  0  0  0  0
  -27.7110  -19.2160   19.6500 C   0  0  0  0  0  0  0  0  0  0  0  0
  -26.7940  -20.0940   19.3570 N   0  0  0  0  0  0  0  0  0  0  0  0
  -27.3080  -17.8870   19.6740 N   0  0  0  0  0  0  0  0  0  0  0  0
  -27.4080  -21.3270   19.4910 O   0  0  0  0  0  0  0  0  0  0  0  0
  -27.4350  -17.4660   20.5850 H   0  0  0  0  0  0  0  0  0  0  0  0
  -26.3250  -17.8090   19.4410 H   0  0  0  0  0  0  0  0  0  0  0  0
  -30.8040  -15.6990   20.6810 C   0  0  0  0  0  0  0  0  0  0  0  0
  -30.9960  -13.0890   20.3200 C   0  0  0  0  0  2  0  0  0  0  0  0
  -30.2850  -12.5330   19.0570 C   0  0  0  0  0  2  0  0  0  0  0  0
  -28.8010  -12.2500   19.3420 C   0  0  0  0  0  2  0  0  0  0  0  0
  -28.1520  -13.3900   20.1630 C   0  0  0  0  0  3  0  0  0  0  0  0
  -29.0140  -13.8610   21.3560 C   0  0  0  0  0  2  0  0  0  0  0  0
  -30.2880  -14.3510   20.7930 N   0  0  0  0  0  0  0  0  0  0  0  0
  -32.0470  -15.6610   20.6700 O   0  0  0  0  0  0  0  0  0  0  0  0
  -30.2020  -18.4730   20.1340 C   0  0  0  0  0  0  0  0  0  0  0  0
  -30.0110  -16.9810   20.4260 N   0  0  0  0  0  0  0  0  0  0  0  0
  -31.3670  -18.8730   20.0420 O   0  0  0  0  0  0  0  0  0  0  0  0
  -29.0210  -16.7840   20.4320 H   0  0  0  0  0  0  0  0  0  0  0  0
  -25.7260  -13.9960   20.6270 C   0  0  0  0  0  0  0  0  0  0  0  0
  -24.6150  -13.2510   20.8980 C   0  0  0  0  0  0  0  0  0  0  0  0
  -25.0580  -11.8940   20.9680 C   0  0  0  0  0  0  0  0  0  0  0  0
  -26.7750  -13.1020   20.5380 N   0  0  0  0  0  0  0  0  0  0  0  0
  -26.3770  -11.8300   20.8100 N   0  0  0  0  0  0  0  0  0  0  0  0
  -24.2850  -10.6530   21.1150 C   0  0  0  0  0  0  0  0  0  0  0  0
  -24.5870   -9.7070   22.1180 C   0  0  0  0  0  3  0  0  0  0  0  0
  -23.8130   -8.5350   22.2520 C   0  0  0  0  0  3  0  0  0  0  0  0
  -22.7220   -8.3000   21.3820 C   0  0  0  0  0  0  0  0  0  0  0  0
  -22.4400   -9.2350   20.3700 C   0  0  0  0  0  3  0  0  0  0  0  0
  -23.2140  -10.3980   20.2350 C   0  0  0  0  0  3  0  0  0  0  0  0
  -21.9300   -7.1770   21.4210 O   0  0  0  0  0  0  0  0  0  0  0  0
  -21.7220   -6.4850   22.5870 C   0  0  0  0  0  0  0  0  0  0  0  0
  -21.1290   -7.0900   23.7170 C   0  0  0  0  0  3  0  0  0  0  0  0
  -20.8680   -6.3240   24.8700 C   0  0  0  0  0  3  0  0  0  0  0  0
  -21.1890   -4.9530   24.8940 C   0  0  0  0  0  0  0  0  0  0  0  0
  -21.7750   -4.3480   23.7670 C   0  0  0  0  0  3  0  0  0  0  0  0
  -22.0360   -5.1110   22.6170 C   0  0  0  0  0  0  0  0  0  0  0  0
  -22.5800   -4.5180   21.5270 F   0  0  0  0  0  0  0  0  0  0  0  0
  -20.9330   -4.2160   25.9990 F   0  0  0  0  0  0  0  0  0  0  0  0
  -23.2080  -13.7630   20.9860 C   0  0  0  0  0  0  0  0  0  0  0  0
  -22.3760  -13.1330   21.8070 N   0  0  0  0  0  0  0  0  0  0  0  0
  -22.8540  -14.7630   20.3610 O   0  0  0  0  0  0  0  0  0  0  0  0
  -22.6760  -12.3280   22.3360 H   0  0  0  0  0  0  0  0  0  0  0  0
  -21.4270  -13.4630   21.9100 H   0  0  0  0  0  0  0  0  0  0  0  0
  -25.9190  -15.3570   20.4200 N   0  0  0  0  0  0  0  0  0  0  0  0
  -25.1360  -16.0000   20.4220 H   0  0  0  0  0  0  0  0  0  0  0  0
  -26.8030  -15.8230   20.2560 H   0  0  0  0  0  0  0  0  0  0  0  0
  -29.0540  -22.8920   19.9990 C   0  0  0  0  0  3  0  0  0  0  0  0
  -28.2710  -24.1950   19.9720 C   0  0  0  0  0  3  0  0  0  0  0  0
  -28.4620  -25.7550   20.1390 O   0  0  0  0  0  0  0  0  0  0  0  0
  -24.6800  -31.7190   23.2020 C   0  0  0  0  0  0  0  0  0  0  0  0
  -27.4400  -26.8930   20.1280 C   0  0  0  0  0  0  0  0  0  0  0  0
  -23.5790  -30.3510   21.4800 C   0  0  0  0  0  3  0  0  0  0  0  0
  -25.1130  -28.8040   20.0620 C   0  0  0  0  0  0  0  0  0  0  0  0
  -26.1500  -30.5870   21.4420 C   0  0  0  0  0  2  0  0  0  0  0  0
  -26.2730  -29.1870   20.7460 C   0  0  0  0  0  0  0  0  0  0  0  0
  -27.4250  -28.2560   20.7530 C   0  0  0  0  0  3  0  0  0  0  0  0
  -26.2470  -26.7000   19.3910 C   0  0  0  0  0  3  0  0  0  0  0  0
  -25.1320  -27.5850   19.3640 C   0  0  0  0  0  3  0  0  0  0  0  0
  -23.8770  -29.7120   20.0940 C   0  0  0  0  0  2  0  0  0  0  0  0
  -24.8230  -30.9150   22.0960 N   0  0  0  0  0  0  0  0  0  0  0  0
  -23.5650  -31.9700   23.6900 O   0  0  0  0  0  0  0  0  0  0  0  0
  -22.8650  -29.3150   22.3920 C   0  0  0  0  0  0  0  0  0  0  0  0
  -21.5360  -29.1590   22.2460 N   0  0  0  0  0  0  0  0  0  0  0  0
  -23.5190  -28.6550   23.2020 O   0  0  0  0  0  0  0  0  0  0  0  0
  -21.0600  -29.7440   21.5730 H   0  0  0  0  0  0  0  0  0  0  0  0
  -18.1360  -27.9830   22.7390 C   0  0  0  0  0  0  0  0  0  0  0  0
  -20.7070  -28.1830   22.9610 C   0  0  0  0  0  3  0  0  0  0  0  0
  -20.7650  -26.7960   22.2790 C   0  0  0  0  0  2  0  0  0  0  0  0
  -19.6360  -26.5730   21.2690 C   0  0  0  0  0  2  0  0  0  0  0  0
  -18.2710  -26.6900   21.9530 C   0  0  0  0  0  2  0  0  0  0  0  0
  -19.2790  -28.6930   23.1990 C   0  0  0  0  0  0  0  0  0  0  0  0
  -19.0930  -29.9040   23.9000 C   0  0  0  0  0  3  0  0  0  0  0  0
  -17.8010  -30.4070   24.1410 C   0  0  0  0  0  3  0  0  0  0  0  0
  -16.6740  -29.6950   23.6950 C   0  0  0  0  0  3  0  0  0  0  0  0
  -16.8440  -28.4840   22.9990 C   0  0  0  0  0  3  0  0  0  0  0  0
  -25.9080  -32.3740   23.9020 C   0  0  0  0  0  3  0  0  0  0  0  0
  -25.5680  -33.7770   24.2060 N   0  0  0  0  0  0  0  0  0  0  0  0
  -25.9050  -34.8320   23.4530 C   0  0  0  0  0  0  0  0  0  0  0  0
  -26.5940  -34.7280   22.4340 O   0  0  0  0  0  0  0  0  0  0  0  0
  -24.9550  -33.9300   24.9930 H   0  0  0  0  0  0  0  0  0  0  0  0
  -24.1480  -36.6030   23.0870 C   0  0  0  0  0  1  0  0  0  0  0  0
  -25.4000  -36.2230   23.8940 C   0  0  0  0  0  3  0  0  0  0  0  0
  -27.5180  -37.1670   24.7100 C   0  0  0  0  0  1  0  0  0  0  0  0
  -26.4160  -37.2910   23.7590 N   0  0  0  0  0  0  0  0  0  0  0  0
  -25.9940  -38.2070   23.8790 H   0  0  0  0  0  0  0  0  0  0  0  0
  -26.3360  -31.6260   25.2260 C   0  0  1  0  0  0  0  0  0  0  0  0
  -25.1730  -31.4040   26.2220 C   0  0  0  0  0  1  0  0  0  0  0  0
  -26.9480  -30.2430   24.9090 C   0  0  0  0  0  1  0  0  0  0  0  0
  -27.4380  -32.4350   25.9510 C   0  0  0  0  0  1  0  0  0  0  0  0
  1 17  1  0
  2  1  2  0
  2 49  1  0
  3  5  1  0
  3  1  1  0
  4  6  1  0
  4  3  2  0
  5  7  1  0
  6  2  1  0
  8  5  1  0
  9 15  1  0
 10 15  1  0
 11 12  1  0
 11 10  1  0
 13 12  1  0
 13 24  1  0
 13 14  1  0
 15 14  1  0
 16  9  2  0
 17 18  1  0
 18 20  1  0
 18  9  1  0
 19 17  2  0
 21 22  2  0
 22 23  1  0
 22 41  1  0
 23 26  1  0
 24 21  1  0
 24 25  1  0
 25 23  2  0
 26 27  1  0
 27 28  2  0
 29 32  1  0
 29 28  1  0
 30 29  2  0
 31 30  1  0
 31 26  2  0
 32 33  1  0
 33 38  2  0
 33 34  1  0
 34 35  2  0
 35 36  1  0
 36 40  1  0
 37 36  2  0
 38 37  1  0
 39 38  1  0
 41 42  1  0
 42 45  1  0
 42 44  1  0
 43 41  2  0
 46 47  1  0
 46 21  1  0
 48 46  1  0
 50 49  2  0
 50 51  1  0
 52 63  2  0
 53 51  1  0
 53 58  1  0
 54 62  1  0
 54 64  1  0
 55 61  1  0
 55 57  1  0
 56 62  1  0
 57 58  2  0
 57 56  1  0
 59 53  2  0
 60 59  1  0
 60 55  2  0
 61 54  1  0
 62 52  1  0
 64 66  2  0
 65 64  1  0
 67 65  1  0
 68 77  2  0
 68 73  1  0
 69 65  1  0
 69 73  1  0
 70 69  1  0
 71 72  1  0
 71 70  1  0
 72 68  1  0
 73 74  2  0
 74 75  1  0
 76 75  2  0
 77 76  1  0
 78 52  1  0
 78 79  1  0
 78 88  1  0
 79 82  1  0
 80 84  1  0
 80 79  1  0
 81 80  2  0
 84 83  1  0
 86 87  1  0
 86 84  1  0
 86 85  1  0
 88 91  1  1
 88 89  1  0
 90 88  1  0
M  ISO  4   9 100  18 100  50 101  51 101
M  END
>  <TORSDO>  (7) 
F 17

>  <SCORE>  (7) 
-14.435

>  <name>  (7) 
6

>  <ligand_id>  (7) 
6

>  <original_smiles>  (7) 
[H]C(Oc1c([H])c([H])c2c(c1[H])C([H])([H])N(C(=O)C([H])(N([H])C(=O)C([H])(N([H])C([H])([H])[H])C([H])([H])[H])C(C([H])([H])[H])(C([H])([H])[H])C([H])([H])[H])C([H])(C(=O)N([H])C1([H])c3c([H])c([H])c([H])c([H])c3C([H])([H])C([H])([H])C1([H])[H])C2([H])[H])=C([H])c1onc(N([H])[H])c1C(=O)N([H])C(=O)N1C([H])([H])C([H])([H])C([H])([H])C([H])(n2nc(-c3c([H])c([H])c(Oc4c([H])c([H])c(F)c([H])c4F)c([H])c3[H])c(C(=O)N([H])[H])c2N([H])[H])C1([H])[H]

>  <smiles>  (7) 
[H]C(Oc1c([H])c([H])c2c(c1[H])C([H])([H])N(C(=O)C([H])(N([H])C(=O)C([H])(N([H])C([H])([H])[H])C([H])([H])[H])C(C([H])([H])[H])(C([H])([H])[H])C([H])([H])[H])C([H])(C(=O)N([H])C1([H])c3c([H])c([H])c([H])c([H])c3C([H])([H])C([H])([H])C1([H])[H])C2([H])[H])=C([H])c1onc(N([H])[H])c1C(=O)N([H])C(=O)N1C([H])([H])C([H])([H])C([H])([H])C([H])(n2nc(-c3c([H])c([H])c(Oc4c([H])c([H])c(F)c([H])c4F)c([H])c3[H])c(C(=O)N([H])[H])c2N([H])[H])C1([H])[H]

$$$$
7:0:0
     RDKit          3D

 97106  0  0  1  0  0  0  0  0999 V2000
  -29.0540  -20.8760   19.9630 C   0  0  0  0  0  3  0  0  0  0  0  0
  -30.1140  -21.5340   21.9990 C   0  0  0  0  0  3  0  0  0  0  0  0
  -30.3620  -19.1520   21.2210 C   0  0  0  0  0  0  0  0  0  0  0  0
  -29.3360  -21.9240   20.8830 C   0  0  0  0  0  0  0  0  0  0  0  0
  -29.5620  -19.5380   20.0920 C   0  0  0  0  0  0  0  0  0  0  0  0
  -30.5970  -20.2010   22.1750 C   0  0  0  0  0  0  0  0  0  0  0  0
  -31.4840  -19.9070   23.6350 Cl  0  0  0  0  0  0  0  0  0  0  0  0
  -31.2510  -15.3700   20.9090 C   0  0  0  0  0  0  0  0  0  0  0  0
  -31.0390  -13.1440   19.8170 C   0  0  0  0  0  2  0  0  0  0  0  0
  -30.1920  -13.2520   18.5350 C   0  0  0  0  0  2  0  0  0  0  0  0
  -28.7000  -13.0650   18.8680 C   0  0  0  0  0  2  0  0  0  0  0  0
  -28.2430  -13.9260   20.0770 C   0  0  0  0  0  3  0  0  0  0  0  0
  -29.2310  -13.8480   21.2610 C   0  0  0  0  0  2  0  0  0  0  0  0
  -30.5610  -14.1930   20.7470 N   0  0  0  0  0  0  0  0  0  0  0  0
  -32.4560  -15.3760   20.6480 O   0  0  0  0  0  0  0  0  0  0  0  0
  -31.1310  -17.8010   21.3310 C   0  0  0  0  0  0  0  0  0  0  0  0
  -30.5620  -16.5530   21.1270 N   0  0  0  0  0  0  0  0  0  0  0  0
  -32.3300  -17.9170   21.6110 O   0  0  0  0  0  0  0  0  0  0  0  0
  -29.5570  -16.5120   21.1000 H   0  0  0  0  0  0  0  0  0  0  0  0
  -25.8130  -14.4650   20.6960 C   0  0  0  0  0  0  0  0  0  0  0  0
  -24.7340  -13.6670   20.9640 C   0  0  0  0  0  0  0  0  0  0  0  0
  -25.2110  -12.3230   20.8970 C   0  0  0  0  0  0  0  0  0  0  0  0
  -26.8770  -13.6060   20.4780 N   0  0  0  0  0  0  0  0  0  0  0  0
  -26.5180  -12.3080   20.6630 N   0  0  0  0  0  0  0  0  0  0  0  0
  -24.4840  -11.0490   20.9850 C   0  0  0  0  0  0  0  0  0  0  0  0
  -24.8690  -10.0390   21.8940 C   0  0  0  0  0  3  0  0  0  0  0  0
  -24.1420   -8.8320   21.9720 C   0  0  0  0  0  3  0  0  0  0  0  0
  -23.0160   -8.6240   21.1400 C   0  0  0  0  0  0  0  0  0  0  0  0
  -22.6510   -9.6230   20.2200 C   0  0  0  0  0  3  0  0  0  0  0  0
  -23.3790  -10.8220   20.1380 C   0  0  0  0  0  3  0  0  0  0  0  0
  -22.2670   -7.4730   21.1290 O   0  0  0  0  0  0  0  0  0  0  0  0
  -22.0610   -6.7370   22.2680 C   0  0  0  0  0  0  0  0  0  0  0  0
  -21.4400   -7.2870   23.4100 C   0  0  0  0  0  3  0  0  0  0  0  0
  -21.1870   -6.4750   24.5340 C   0  0  0  0  0  3  0  0  0  0  0  0
  -21.5440   -5.1140   24.5140 C   0  0  0  0  0  0  0  0  0  0  0  0
  -22.1580   -4.5630   23.3760 C   0  0  0  0  0  3  0  0  0  0  0  0
  -22.4120   -5.3720   22.2550 C   0  0  0  0  0  0  0  0  0  0  0  0
  -22.9840   -4.8300   21.1530 F   0  0  0  0  0  0  0  0  0  0  0  0
  -21.2950   -4.3320   25.5900 F   0  0  0  0  0  0  0  0  0  0  0  0
  -23.3210  -14.1240   21.1740 C   0  0  0  0  0  0  0  0  0  0  0  0
  -22.5550  -13.3960   21.9790 N   0  0  0  0  0  0  0  0  0  0  0  0
  -22.9010  -15.1620   20.6620 O   0  0  0  0  0  0  0  0  0  0  0  0
  -22.9060  -12.5570   22.4150 H   0  0  0  0  0  0  0  0  0  0  0  0
  -21.6040  -13.6830   22.1630 H   0  0  0  0  0  0  0  0  0  0  0  0
  -25.9770  -15.8430   20.5950 N   0  0  0  0  0  0  0  0  0  0  0  0
  -25.1970  -16.4850   20.6920 H   0  0  0  0  0  0  0  0  0  0  0  0
  -26.8400  -16.3010   20.3440 H   0  0  0  0  0  0  0  0  0  0  0  0
  -30.0370  -18.3320   17.9930 C   0  0  0  0  0  0  0  0  0  0  0  0
  -29.3430  -17.3970   17.0200 C   0  0  0  0  0  2  0  0  0  0  0  0
  -28.0290  -17.0600   17.7300 C   0  0  0  0  0  2  0  0  0  0  0  0
  -27.9040  -18.0940   18.8560 C   0  0  0  0  0  2  0  0  0  0  0  0
  -29.2490  -18.6220   19.0430 N   0  0  0  0  0  0  0  0  0  0  0  0
  -31.1940  -18.7240   17.8200 O   0  0  0  0  0  0  0  0  0  0  0  0
  -29.2200  -24.4040   20.8990 C   0  0  0  0  0  3  0  0  0  0  0  0
  -28.7020  -23.2120   20.7450 N   0  0  0  0  0  0  0  0  0  0  0  0
  -28.3260  -25.7020   21.0530 C   0  0  0  0  0  2  0  0  0  0  0  0
  -28.6490  -27.0110   20.4040 O   0  0  0  0  0  0  0  0  0  0  0  0
  -25.0010  -32.3500   23.6620 C   0  0  0  0  0  0  0  0  0  0  0  0
  -27.5750  -27.9200   20.3870 C   0  0  0  0  0  0  0  0  0  0  0  0
  -23.7750  -30.9990   22.0010 C   0  0  0  0  0  3  0  0  0  0  0  0
  -25.2100  -29.5260   20.4810 C   0  0  0  0  0  0  0  0  0  0  0  0
  -26.3100  -31.3450   21.7790 C   0  0  0  0  0  2  0  0  0  0  0  0
  -26.3890  -29.9930   21.0780 C   0  0  0  0  0  0  0  0  0  0  0  0
  -27.5770  -29.2010   21.0260 C   0  0  0  0  0  3  0  0  0  0  0  0
  -26.3840  -27.5370   19.7290 C   0  0  0  0  0  3  0  0  0  0  0  0
  -25.2110  -28.3050   19.7950 C   0  0  0  0  0  3  0  0  0  0  0  0
  -23.9650  -30.3830   20.5910 C   0  0  0  0  0  2  0  0  0  0  0  0
  -25.0480  -31.5800   22.5370 N   0  0  0  0  0  0  0  0  0  0  0  0
  -23.9270  -32.5960   24.2300 O   0  0  0  0  0  0  0  0  0  0  0  0
  -23.1460  -29.9380   22.9350 C   0  0  0  0  0  0  0  0  0  0  0  0
  -21.8520  -29.6390   22.7280 N   0  0  0  0  0  0  0  0  0  0  0  0
  -23.8210  -29.3880   23.8080 O   0  0  0  0  0  0  0  0  0  0  0  0
  -21.3610  -30.1400   21.9990 H   0  0  0  0  0  0  0  0  0  0  0  0
  -18.5890  -28.0940   22.9800 C   0  0  0  0  0  0  0  0  0  0  0  0
  -21.0690  -28.6450   23.4650 C   0  0  0  0  0  3  0  0  0  0  0  0
  -21.3770  -27.2140   22.9690 C   0  0  0  0  0  2  0  0  0  0  0  0
  -20.4170  -26.7340   21.8750 C   0  0  0  0  0  2  0  0  0  0  0  0
  -18.9730  -26.7500   22.3840 C   0  0  0  0  0  2  0  0  0  0  0  0
  -19.5750  -28.9900   23.4720 C   0  0  0  0  0  0  0  0  0  0  0  0
  -19.1670  -30.2410   23.9830 C   0  0  0  0  0  3  0  0  0  0  0  0
  -17.8060  -30.6000   24.0090 C   0  0  0  0  0  3  0  0  0  0  0  0
  -16.8340  -29.7020   23.5360 C   0  0  0  0  0  3  0  0  0  0  0  0
  -17.2260  -28.4510   23.0260 C   0  0  0  0  0  3  0  0  0  0  0  0
  -26.2910  -32.9740   24.2770 C   0  0  0  0  0  3  0  0  0  0  0  0
  -26.7870  -32.2240   25.5740 C   0  0  1  0  0  0  0  0  0  0  0  0
  -25.6650  -31.9580   26.6040 C   0  0  0  0  0  1  0  0  0  0  0  0
  -27.4250  -30.8630   25.2110 C   0  0  0  0  0  1  0  0  0  0  0  0
  -27.8890  -33.0570   26.2700 C   0  0  0  0  0  1  0  0  0  0  0  0
  -26.0040  -34.3850   24.5740 N   0  0  0  0  0  0  0  0  0  0  0  0
  -26.3550  -35.4160   23.7940 C   0  0  0  0  0  0  0  0  0  0  0  0
  -27.0270  -35.2780   22.7680 O   0  0  0  0  0  0  0  0  0  0  0  0
  -25.4120  -34.5670   25.3720 H   0  0  0  0  0  0  0  0  0  0  0  0
  -24.6640  -37.2310   23.3880 C   0  0  0  0  0  1  0  0  0  0  0  0
  -25.8900  -36.8210   24.2190 C   0  0  0  0  0  3  0  0  0  0  0  0
  -28.0250  -37.6920   25.0640 C   0  0  0  0  0  1  0  0  0  0  0  0
  -26.9420  -37.8530   24.0970 N   0  0  0  0  0  0  0  0  0  0  0  0
  -26.5490  -38.7830   24.2130 H   0  0  0  0  0  0  0  0  0  0  0  0
  1  5  2  0
  1  4  1  0
  2  6  1  0
  3 16  1  0
  3  6  2  0
  4  2  2  0
  5  3  1  0
  6  7  1  0
  8 17  1  0
  9 14  1  0
 10 11  1  0
 10  9  1  0
 12 11  1  0
 12 23  1  0
 12 13  1  0
 14  8  1  0
 14 13  1  0
 15  8  2  0
 16 18  2  0
 17 16  1  0
 19 17  1  0
 20 21  2  0
 21 40  1  0
 22 21  1  0
 22 25  1  0
 23 24  1  0
 23 20  1  0
 24 22  2  0
 25 26  1  0
 26 27  2  0
 28 27  1  0
 29 28  2  0
 30 29  1  0
 30 25  2  0
 31 28  1  0
 31 32  1  0
 32 33  1  0
 33 34  2  0
 35 34  1  0
 35 39  1  0
 36 35  2  0
 37 32  2  0
 37 36  1  0
 38 37  1  0
 40 41  1  0
 41 44  1  0
 41 43  1  0
 42 40  2  0
 45 46  1  0
 45 20  1  0
 47 45  1  0
 48 52  1  0
 49 50  1  0
 49 48  1  0
 50 51  1  0
 51 52  1  0
 52  5  1  0
 53 48  2  0
 54 56  1  0
 55  4  1  0
 55 54  2  0
 57 56  1  0
 58 69  2  0
 59 57  1  0
 59 64  1  0
 60 68  1  0
 60 70  1  0
 61 67  1  0
 61 63  1  0
 62 68  1  0
 63 62  1  0
 64 63  2  0
 65 66  1  0
 65 59  2  0
 66 61  2  0
 67 60  1  0
 68 58  1  0
 70 72  2  0
 71 70  1  0
 73 71  1  0
 74 83  2  0
 74 79  1  0
 75 71  1  0
 75 79  1  0
 76 75  1  0
 77 78  1  0
 77 76  1  0
 78 74  1  0
 79 80  2  0
 80 81  1  0
 82 81  2  0
 83 82  1  0
 84 58  1  0
 84 89  1  0
 84 85  1  0
 85 88  1  1
 85 86  1  0
 87 85  1  0
 89 92  1  0
 90 94  1  0
 90 89  1  0
 91 90  2  0
 94 93  1  0
 96 97  1  0
 96 94  1  0
 96 95  1  0
M  ISO  4   8 100  17 100  56 101  57 101
M  END
>  <TORSDO>  (8) 
F 19

>  <SCORE>  (8) 
-10.658

>  <name>  (8) 
7

>  <ligand_id>  (8) 
7

>  <original_smiles>  (8) 
[H]C(=Nc1c([H])c(Cl)c(C(=O)N([H])C(=O)N2C([H])([H])C([H])([H])C([H])([H])C([H])(n3nc(-c4c([H])c([H])c(Oc5c([H])c([H])c(F)c([H])c5F)c([H])c4[H])c(C(=O)N([H])[H])c3N([H])[H])C2([H])[H])c(N2C(=O)C([H])([H])C([H])([H])C2([H])[H])c1[H])C([H])([H])Oc1c([H])c([H])c2c(c1[H])C([H])([H])N(C(=O)C([H])(N([H])C(=O)C([H])(N([H])C([H])([H])[H])C([H])([H])[H])C(C([H])([H])[H])(C([H])([H])[H])C([H])([H])[H])C([H])(C(=O)N([H])C1([H])c3c([H])c([H])c([H])c([H])c3C([H])([H])C([H])([H])C1([H])[H])C2([H])[H]

>  <smiles>  (8) 
[H]C(=Nc1c([H])c(Cl)c(C(=O)N([H])C(=O)N2C([H])([H])C([H])([H])C([H])([H])C([H])(n3nc(-c4c([H])c([H])c(Oc5c([H])c([H])c(F)c([H])c5F)c([H])c4[H])c(C(=O)N([H])[H])c3N([H])[H])C2([H])[H])c(N2C(=O)C([H])([H])C([H])([H])C2([H])[H])c1[H])C([H])([H])Oc1c([H])c([H])c2c(c1[H])C([H])([H])N(C(=O)C([H])(N([H])C(=O)C([H])(N([H])C([H])([H])[H])C([H])([H])[H])C(C([H])([H])[H])(C([H])([H])[H])C([H])([H])[H])C([H])(C(=O)N([H])C1([H])c3c([H])c([H])c([H])c([H])c3C([H])([H])C([H])([H])C1([H])[H])C2([H])[H]

$$$$
8:0:0
     RDKit          3D

 92100  0  0  1  0  0  0  0  0999 V2000
  -29.4020  -21.2590   19.6840 C   0  0  0  0  0  3  0  0  0  0  0  0
  -29.9870  -19.3700   21.4370 C   0  0  0  0  0  3  0  0  0  0  0  0
  -29.4060  -18.6420   19.4250 C   0  0  0  0  0  3  0  0  0  0  0  0
  -30.1670  -17.9930   21.4100 C   0  0  0  0  0  0  0  0  0  0  0  0
  -29.8200  -17.4940   20.1120 C   0  0  0  0  0  0  0  0  0  0  0  0
  -29.5410  -19.8210   20.1960 N   0  0  0  0  0  0  0  0  0  0  0  0
  -30.6110  -14.9800   19.9230 C   0  0  0  0  0  0  0  0  0  0  0  0
  -30.3960  -12.6700   18.9760 C   0  0  0  0  0  2  0  0  0  0  0  0
  -29.3860  -12.5870   17.8060 C   0  0  0  0  0  2  0  0  0  0  0  0
  -27.9310  -12.4940   18.3070 C   0  0  0  0  0  2  0  0  0  0  0  0
  -27.6100  -13.4110   19.5200 C   0  0  0  0  0  3  0  0  0  0  0  0
  -28.7320  -13.3910   20.5780 C   0  0  0  0  0  2  0  0  0  0  0  0
  -29.9730  -13.7560   19.8880 N   0  0  0  0  0  0  0  0  0  0  0  0
  -31.8320  -15.0230   19.7540 O   0  0  0  0  0  0  0  0  0  0  0  0
  -29.5950  -16.1140   18.0920 C   0  0  0  0  0  1  0  0  0  0  0  0
  -29.8640  -16.1060   19.5440 N   0  0  0  0  0  0  0  0  0  0  0  0
  -25.2620  -13.9750   20.3860 C   0  0  0  0  0  0  0  0  0  0  0  0
  -24.2210  -13.1850   20.7950 C   0  0  0  0  0  0  0  0  0  0  0  0
  -24.6970  -11.8390   20.7290 C   0  0  0  0  0  0  0  0  0  0  0  0
  -26.3020  -13.1080   20.0900 N   0  0  0  0  0  0  0  0  0  0  0  0
  -25.9730  -11.8190   20.3660 N   0  0  0  0  0  0  0  0  0  0  0  0
  -23.9960  -10.5650   20.9360 C   0  0  0  0  0  0  0  0  0  0  0  0
  -24.4660   -9.6030   21.8570 C   0  0  0  0  0  3  0  0  0  0  0  0
  -23.7630   -8.3960   22.0530 C   0  0  0  0  0  3  0  0  0  0  0  0
  -22.5760   -8.1390   21.3270 C   0  0  0  0  0  0  0  0  0  0  0  0
  -22.1250   -9.0900   20.3930 C   0  0  0  0  0  3  0  0  0  0  0  0
  -22.8280  -10.2890   20.1950 C   0  0  0  0  0  3  0  0  0  0  0  0
  -21.8410   -6.9840   21.4330 O   0  0  0  0  0  0  0  0  0  0  0  0
  -21.8100   -6.2540   22.5940 C   0  0  0  0  0  0  0  0  0  0  0  0
  -21.3720   -6.8160   23.8140 C   0  0  0  0  0  3  0  0  0  0  0  0
  -21.2880   -6.0120   24.9690 C   0  0  0  0  0  3  0  0  0  0  0  0
  -21.6340   -4.6490   24.9060 C   0  0  0  0  0  0  0  0  0  0  0  0
  -22.0650   -4.0870   23.6920 C   0  0  0  0  0  3  0  0  0  0  0  0
  -22.1490   -4.8880   22.5380 C   0  0  0  0  0  0  0  0  0  0  0  0
  -22.5450   -4.3360   21.3660 F   0  0  0  0  0  0  0  0  0  0  0  0
  -21.5480   -3.8760   26.0130 F   0  0  0  0  0  0  0  0  0  0  0  0
  -22.8320  -13.6420   21.1320 C   0  0  0  0  0  0  0  0  0  0  0  0
  -22.1550  -12.9310   22.0270 N   0  0  0  0  0  0  0  0  0  0  0  0
  -22.3550  -14.6620   20.6370 O   0  0  0  0  0  0  0  0  0  0  0  0
  -22.5550  -12.1050   22.4490 H   0  0  0  0  0  0  0  0  0  0  0  0
  -21.2240  -13.2160   22.2970 H   0  0  0  0  0  0  0  0  0  0  0  0
  -25.4060  -15.3480   20.2150 N   0  0  0  0  0  0  0  0  0  0  0  0
  -24.6470  -16.0000   20.3800 H   0  0  0  0  0  0  0  0  0  0  0  0
  -26.2520  -15.7990   19.8890 H   0  0  0  0  0  0  0  0  0  0  0  0
  -30.6720  -17.1980   22.5430 C   0  0  0  0  0  3  0  0  0  0  0  0
  -30.9260  -17.6860   23.7700 C   0  0  0  0  0  3  0  0  0  0  0  0
  -31.4740  -16.8670   24.9180 C   0  0  0  0  0  1  0  0  0  0  0  0
  -28.7910  -22.4720   20.5550 C   0  0  0  0  0  3  0  0  0  0  0  0
  -28.8910  -23.9670   19.9770 C   0  0  0  0  0  0  0  0  0  0  0  0
  -29.6600  -24.2010   19.0390 O   0  0  0  0  0  0  0  0  0  0  0  0
  -28.0200  -25.1600   20.5870 C   0  0  0  0  0  2  0  0  0  0  0  0
  -28.2880  -26.5660   20.1220 O   0  0  0  0  0  0  0  0  0  0  0  0
  -24.6340  -31.9970   23.2590 C   0  0  0  0  0  0  0  0  0  0  0  0
  -27.1960  -27.4570   20.1140 C   0  0  0  0  0  0  0  0  0  0  0  0
  -23.4100  -30.6230   21.6150 C   0  0  0  0  0  3  0  0  0  0  0  0
  -24.8400  -29.0910   20.1460 C   0  0  0  0  0  0  0  0  0  0  0  0
  -25.9470  -30.9380   21.4040 C   0  0  0  0  0  2  0  0  0  0  0  0
  -26.0190  -29.5670   20.7350 C   0  0  0  0  0  0  0  0  0  0  0  0
  -27.2030  -28.7630   20.7050 C   0  0  0  0  0  3  0  0  0  0  0  0
  -25.9990  -27.0480   19.4890 C   0  0  0  0  0  3  0  0  0  0  0  0
  -24.8340  -27.8410   19.5090 C   0  0  0  0  0  3  0  0  0  0  0  0
  -23.6060  -29.9690   20.2210 C   0  0  0  0  0  2  0  0  0  0  0  0
  -24.6830  -31.2030   22.1490 N   0  0  0  0  0  0  0  0  0  0  0  0
  -23.5590  -32.2670   23.8120 O   0  0  0  0  0  0  0  0  0  0  0  0
  -22.7570  -29.5950   22.5680 C   0  0  0  0  0  0  0  0  0  0  0  0
  -21.4310  -29.4060   22.4440 N   0  0  0  0  0  0  0  0  0  0  0  0
  -23.4430  -28.9690   23.3820 O   0  0  0  0  0  0  0  0  0  0  0  0
  -20.9360  -29.9600   21.7590 H   0  0  0  0  0  0  0  0  0  0  0  0
  -18.0720  -28.1570   22.9320 C   0  0  0  0  0  0  0  0  0  0  0  0
  -20.6240  -28.4550   23.2100 C   0  0  0  0  0  3  0  0  0  0  0  0
  -20.7500  -27.0260   22.6310 C   0  0  0  0  0  2  0  0  0  0  0  0
  -19.6560  -26.6900   21.6120 C   0  0  0  0  0  2  0  0  0  0  0  0
  -18.2710  -26.8140   22.2510 C   0  0  0  0  0  2  0  0  0  0  0  0
  -19.1770  -28.9350   23.3670 C   0  0  0  0  0  0  0  0  0  0  0  0
  -18.9380  -30.1920   23.9640 C   0  0  0  0  0  3  0  0  0  0  0  0
  -17.6260  -30.6740   24.1270 C   0  0  0  0  0  3  0  0  0  0  0  0
  -16.5340  -29.8940   23.7090 C   0  0  0  0  0  3  0  0  0  0  0  0
  -16.7570  -28.6370   23.1160 C   0  0  0  0  0  3  0  0  0  0  0  0
  -25.9250  -32.6210   23.8730 C   0  0  0  0  0  3  0  0  0  0  0  0
  -25.6280  -34.0220   24.2050 N   0  0  0  0  0  0  0  0  0  0  0  0
  -25.9710  -35.0730   23.4490 C   0  0  0  0  0  0  0  0  0  0  0  0
  -26.6390  -34.9650   22.4170 O   0  0  0  0  0  0  0  0  0  0  0  0
  -25.0360  -34.1810   25.0070 H   0  0  0  0  0  0  0  0  0  0  0  0
  -24.2650  -36.8890   23.0930 C   0  0  0  0  0  1  0  0  0  0  0  0
  -25.4970  -36.4660   23.9090 C   0  0  0  0  0  3  0  0  0  0  0  0
  -27.6390  -37.3220   24.7560 C   0  0  0  0  0  1  0  0  0  0  0  0
  -26.5440  -37.5070   23.8070 N   0  0  0  0  0  0  0  0  0  0  0  0
  -26.1480  -38.4310   23.9580 H   0  0  0  0  0  0  0  0  0  0  0  0
  -26.4420  -31.8470   25.1480 C   0  0  1  0  0  0  0  0  0  0  0  0
  -25.3530  -31.6210   26.2210 C   0  0  0  0  0  1  0  0  0  0  0  0
  -27.0130  -30.4640   24.7570 C   0  0  0  0  0  1  0  0  0  0  0  0
  -27.6010  -32.6350   25.8040 C   0  0  0  0  0  1  0  0  0  0  0  0
  1  6  1  0
  1 48  2  0
  3  5  2  0
  3  6  1  0
  4  2  2  0
  4 45  1  0
  5  4  1  0
  6  2  1  0
  8 13  1  0
  9 10  1  0
  9  8  1  0
 11 10  1  0
 11 20  1  0
 11 12  1  0
 13  7  1  0
 13 12  1  0
 14  7  2  0
 15 16  1  0
 16  7  1  0
 16  5  1  0
 17 18  2  0
 18 37  1  0
 19 18  1  0
 19 22  1  0
 20 21  1  0
 20 17  1  0
 21 19  2  0
 22 23  1  0
 23 24  2  0
 25 28  1  0
 25 24  1  0
 26 25  2  0
 27 26  1  0
 27 22  2  0
 28 29  1  0
 29 30  1  0
 30 31  2  0
 32 31  1  0
 32 36  1  0
 33 32  2  0
 34 29  2  0
 34 33  1  0
 35 34  1  0
 37 38  1  0
 38 41  1  0
 38 40  1  0
 39 37  2  0
 42 43  1  0
 42 17  1  0
 44 42  1  0
 45 46  2  0
 46 47  1  0
 49 48  1  0
 49 51  1  0
 50 49  2  0
 52 51  1  0
 53 64  2  0
 54 52  1  0
 54 59  1  0
 55 63  1  0
 55 65  1  0
 56 62  1  0
 56 58  1  0
 57 63  1  0
 58 57  1  0
 59 58  2  0
 60 61  1  0
 60 54  2  0
 61 56  2  0
 62 55  1  0
 63 53  1  0
 65 67  2  0
 66 65  1  0
 68 66  1  0
 69 78  2  0
 69 74  1  0
 70 66  1  0
 70 74  1  0
 71 70  1  0
 72 73  1  0
 72 71  1  0
 73 69  1  0
 74 75  2  0
 75 76  1  0
 77 76  2  0
 78 77  1  0
 79 53  1  0
 79 80  1  0
 79 89  1  0
 80 83  1  0
 81 85  1  0
 81 80  1  0
 82 81  2  0
 85 84  1  0
 87 85  1  0
 87 88  1  0
 87 86  1  0
 89 92  1  1
 89 90  1  0
 91 89  1  0
M  ISO  4   7 100  16 100  51 101  52 101
M  END
>  <TORSDO>  (9) 
F 21

>  <SCORE>  (9) 
-7.782

>  <name>  (9) 
8

>  <ligand_id>  (9) 
8

>  <original_smiles>  (9) 
[H]C(=C([H])C([H])([H])[H])c1c(N(C(=O)N2C([H])([H])C([H])([H])C([H])([H])C([H])(n3nc(-c4c([H])c([H])c(Oc5c([H])c([H])c(F)c([H])c5F)c([H])c4[H])c(C(=O)N([H])[H])c3N([H])[H])C2([H])[H])C([H])([H])[H])c([H])n(C([H])([H])C([H])([H])C(=O)C([H])([H])Oc2c([H])c([H])c3c(c2[H])C([H])([H])N(C(=O)C([H])(N([H])C(=O)C([H])(N([H])C([H])([H])[H])C([H])([H])[H])C(C([H])([H])[H])(C([H])([H])[H])C([H])([H])[H])C([H])(C(=O)N([H])C2([H])c4c([H])c([H])c([H])c([H])c4C([H])([H])C([H])([H])C2([H])[H])C3([H])[H])c1[H]

>  <smiles>  (9) 
[H]C(=C([H])C([H])([H])[H])c1c(N(C(=O)N2C([H])([H])C([H])([H])C([H])([H])C([H])(n3nc(-c4c([H])c([H])c(Oc5c([H])c([H])c(F)c([H])c5F)c([H])c4[H])c(C(=O)N([H])[H])c3N([H])[H])C2([H])[H])C([H])([H])[H])c([H])n(C([H])([H])C([H])([H])C(=O)C([H])([H])Oc2c([H])c([H])c3c(c2[H])C([H])([H])N(C(=O)C([H])(N([H])C(=O)C([H])(N([H])C([H])([H])[H])C([H])([H])[H])C(C([H])([H])[H])(C([H])([H])[H])C([H])([H])[H])C([H])(C(=O)N([H])C2([H])c4c([H])c([H])c([H])c([H])c4C([H])([H])C([H])([H])C2([H])[H])C3([H])[H])c1[H]

$$$$
9:0:0
     RDKit          3D

 91 99  0  0  1  0  0  0  0  0999 V2000
  -30.4630  -19.1490   19.3650 C   0  0  0  0  0  3  0  0  0  0  0  0
  -30.2340  -20.5800   19.2750 C   0  0  0  0  0  0  0  0  0  0  0  0
  -29.7210  -18.6320   20.4050 C   0  0  0  0  0  0  0  0  0  0  0  0
  -29.3470  -20.9470   20.2660 C   0  0  0  0  0  0  0  0  0  0  0  0
  -29.0310  -19.7550   20.9490 O   0  0  0  0  0  0  0  0  0  0  0  0
  -30.8580  -21.4550   18.2570 C   0  0  0  0  0  3  0  0  0  0  0  0
  -31.6060  -21.0540   17.3160 N   0  0  0  0  0  0  0  0  0  0  0  0
  -31.7360  -20.0490   17.3410 H   0  0  0  0  0  0  0  0  0  0  0  0
  -29.4820  -17.2890   21.0370 C   0  0  0  0  0  3  0  0  0  0  0  0
  -29.7130  -15.9020   21.1030 C   0  0  0  0  0  3  0  0  0  0  0  0
  -30.5370  -14.8230   20.4220 C   0  0  0  0  0  0  0  0  0  0  0  0
  -30.4250  -12.5430   19.3380 C   0  0  0  0  0  2  0  0  0  0  0  0
  -29.4740  -12.6080   18.1180 C   0  0  0  0  0  2  0  0  0  0  0  0
  -27.9980  -12.4270   18.5350 C   0  0  0  0  0  2  0  0  0  0  0  0
  -27.6270  -13.2780   19.7770 C   0  0  0  0  0  3  0  0  0  0  0  0
  -28.6840  -13.1080   20.8870 C   0  0  0  0  0  2  0  0  0  0  0  0
  -29.9780  -13.5520   20.3330 N   0  0  0  0  0  0  0  0  0  0  0  0
  -31.6660  -15.0000   19.9510 O   0  0  0  0  0  0  0  0  0  0  0  0
  -25.2340  -13.8770   20.4870 C   0  0  0  0  0  0  0  0  0  0  0  0
  -24.1650  -13.1070   20.8560 C   0  0  0  0  0  0  0  0  0  0  0  0
  -24.6250  -11.7540   20.8280 C   0  0  0  0  0  0  0  0  0  0  0  0
  -26.2770  -12.9940   20.2560 N   0  0  0  0  0  0  0  0  0  0  0  0
  -25.9180  -11.7130   20.5230 N   0  0  0  0  0  0  0  0  0  0  0  0
  -23.8970  -10.4940   21.0210 C   0  0  0  0  0  0  0  0  0  0  0  0
  -24.3280   -9.5270   21.9570 C   0  0  0  0  0  3  0  0  0  0  0  0
  -23.5990   -8.3320   22.1380 C   0  0  0  0  0  3  0  0  0  0  0  0
  -22.4250   -8.0960   21.3860 C   0  0  0  0  0  0  0  0  0  0  0  0
  -22.0140   -9.0510   20.4400 C   0  0  0  0  0  3  0  0  0  0  0  0
  -22.7420  -10.2380   20.2550 C   0  0  0  0  0  3  0  0  0  0  0  0
  -21.6710   -6.9520   21.4730 O   0  0  0  0  0  0  0  0  0  0  0  0
  -21.6240   -6.2060   22.6240 C   0  0  0  0  0  0  0  0  0  0  0  0
  -21.2090   -6.7600   23.8540 C   0  0  0  0  0  3  0  0  0  0  0  0
  -21.1090   -5.9410   24.9970 C   0  0  0  0  0  3  0  0  0  0  0  0
  -21.4150   -4.5700   24.9120 C   0  0  0  0  0  0  0  0  0  0  0  0
  -21.8240   -4.0160   23.6850 C   0  0  0  0  0  3  0  0  0  0  0  0
  -21.9240   -4.8300   22.5450 C   0  0  0  0  0  0  0  0  0  0  0  0
  -22.2980   -4.2860   21.3620 F   0  0  0  0  0  0  0  0  0  0  0  0
  -21.3140   -3.7820   26.0070 F   0  0  0  0  0  0  0  0  0  0  0  0
  -22.7670  -13.5860   21.1220 C   0  0  0  0  0  0  0  0  0  0  0  0
  -22.0360  -12.8950   21.9880 N   0  0  0  0  0  0  0  0  0  0  0  0
  -22.3320  -14.6090   20.5950 O   0  0  0  0  0  0  0  0  0  0  0  0
  -22.4010  -12.0680   22.4380 H   0  0  0  0  0  0  0  0  0  0  0  0
  -21.0980  -13.1980   22.2030 H   0  0  0  0  0  0  0  0  0  0  0  0
  -25.3980  -15.2470   20.3100 N   0  0  0  0  0  0  0  0  0  0  0  0
  -24.6320  -15.9000   20.4290 H   0  0  0  0  0  0  0  0  0  0  0  0
  -26.2540  -15.6930   20.0010 H   0  0  0  0  0  0  0  0  0  0  0  0
  -28.7470  -22.2400   20.6290 N   0  0  0  0  0  0  0  0  0  0  0  0
  -28.0630  -22.2080   21.3810 H   0  0  0  0  0  0  0  0  0  0  0  0
  -28.9940  -23.6410   20.0650 C   0  0  0  0  0  3  0  0  0  0  0  0
  -28.1100  -24.9030   20.6250 C   0  0  0  0  0  3  0  0  0  0  0  0
  -28.3340  -26.3520   20.2330 O   0  0  0  0  0  0  0  0  0  0  0  0
  -24.6220  -31.8670   23.2380 C   0  0  0  0  0  0  0  0  0  0  0  0
  -27.2380  -27.2530   20.2080 C   0  0  0  0  0  0  0  0  0  0  0  0
  -23.4260  -30.4670   21.5950 C   0  0  0  0  0  3  0  0  0  0  0  0
  -24.8840  -28.9100   20.1720 C   0  0  0  0  0  0  0  0  0  0  0  0
  -25.9690  -30.7730   21.4230 C   0  0  0  0  0  2  0  0  0  0  0  0
  -26.0530  -29.3870   20.7800 C   0  0  0  0  0  0  0  0  0  0  0  0
  -27.2340  -28.5720   20.7840 C   0  0  0  0  0  3  0  0  0  0  0  0
  -26.0490  -26.8540   19.5620 C   0  0  0  0  0  3  0  0  0  0  0  0
  -24.8870  -27.6510   19.5520 C   0  0  0  0  0  3  0  0  0  0  0  0
  -23.6470  -29.7900   20.2160 C   0  0  0  0  0  2  0  0  0  0  0  0
  -24.6910  -31.0550   22.1410 N   0  0  0  0  0  0  0  0  0  0  0  0
  -23.5360  -32.1450   23.7680 O   0  0  0  0  0  0  0  0  0  0  0  0
  -22.7560  -29.4530   22.5560 C   0  0  0  0  0  0  0  0  0  0  0  0
  -21.4300  -29.2800   22.4300 N   0  0  0  0  0  0  0  0  0  0  0  0
  -23.4330  -28.8260   23.3740 O   0  0  0  0  0  0  0  0  0  0  0  0
  -20.9420  -29.8360   21.7420 H   0  0  0  0  0  0  0  0  0  0  0  0
  -18.0490  -28.0900   22.9380 C   0  0  0  0  0  0  0  0  0  0  0  0
  -20.6090  -28.3430   23.2020 C   0  0  0  0  0  3  0  0  0  0  0  0
  -20.7070  -26.9140   22.6220 C   0  0  0  0  0  2  0  0  0  0  0  0
  -19.6010  -26.5960   21.6110 C   0  0  0  0  0  2  0  0  0  0  0  0
  -18.2220  -26.7430   22.2570 C   0  0  0  0  0  2  0  0  0  0  0  0
  -19.1710  -28.8480   23.3680 C   0  0  0  0  0  0  0  0  0  0  0  0
  -18.9570  -30.1080   23.9660 C   0  0  0  0  0  3  0  0  0  0  0  0
  -17.6530  -30.6130   24.1370 C   0  0  0  0  0  3  0  0  0  0  0  0
  -16.5460  -29.8520   23.7240 C   0  0  0  0  0  3  0  0  0  0  0  0
  -16.7450  -28.5930   23.1300 C   0  0  0  0  0  3  0  0  0  0  0  0
  -25.9000  -32.5040   23.8640 C   0  0  0  0  0  3  0  0  0  0  0  0
  -25.5880  -33.9010   24.1960 N   0  0  0  0  0  0  0  0  0  0  0  0
  -25.9140  -34.9580   23.4380 C   0  0  0  0  0  0  0  0  0  0  0  0
  -26.5830  -34.8570   22.4050 O   0  0  0  0  0  0  0  0  0  0  0  0
  -24.9950  -34.0530   24.9990 H   0  0  0  0  0  0  0  0  0  0  0  0
  -24.1850  -36.7510   23.0880 C   0  0  0  0  0  1  0  0  0  0  0  0
  -25.4270  -36.3460   23.8990 C   0  0  0  0  0  3  0  0  0  0  0  0
  -27.5610  -37.2310   24.7280 C   0  0  0  0  0  1  0  0  0  0  0  0
  -26.4580  -37.3990   23.7870 N   0  0  0  0  0  0  0  0  0  0  0  0
  -26.0510  -38.3190   23.9360 H   0  0  0  0  0  0  0  0  0  0  0  0
  -26.4140  -31.7330   25.1420 C   0  0  1  0  0  0  0  0  0  0  0  0
  -25.3180  -31.4970   26.2080 C   0  0  0  0  0  1  0  0  0  0  0  0
  -26.9990  -30.3560   24.7540 C   0  0  0  0  0  1  0  0  0  0  0  0
  -27.5630  -32.5280   25.8050 C   0  0  0  0  0  1  0  0  0  0  0  0
  1  3  2  0
  2  1  1  0
  2  4  2  0
  3  5  1  0
  3  9  1  0
  4 47  1  0
  4  5  1  0
  6  2  1  0
  7  8  1  0
  7  6  2  0
  9 10  2  0
 11 10  1  0
 12 17  1  0
 13 14  1  0
 13 12  1  0
 15 14  1  0
 15 22  1  0
 15 16  1  0
 17 11  1  0
 17 16  1  0
 18 11  2  0
 19 20  2  0
 20 39  1  0
 21 20  1  0
 21 24  1  0
 22 19  1  0
 22 23  1  0
 23 21  2  0
 24 25  1  0
 25 26  2  0
 27 30  1  0
 27 26  1  0
 28 27  2  0
 29 28  1  0
 29 24  2  0
 30 31  1  0
 31 32  1  0
 32 33  2  0
 34 33  1  0
 34 38  1  0
 35 34  2  0
 36 31  2  0
 36 35  1  0
 37 36  1  0
 39 40  1  0
 40 43  1  0
 40 42  1  0
 41 39  2  0
 44 45  1  0
 44 19  1  0
 46 44  1  0
 47 48  1  0
 49 50  2  0
 49 47  1  0
 51 50  1  0
 52 63  2  0
 53 51  1  0
 53 58  1  0
 54 62  1  0
 54 64  1  0
 55 61  1  0
 55 57  1  0
 56 62  1  0
 57 58  2  0
 57 56  1  0
 59 53  2  0
 60 59  1  0
 60 55  2  0
 61 54  1  0
 62 52  1  0
 64 66  2  0
 65 64  1  0
 67 65  1  0
 68 77  2  0
 68 73  1  0
 69 65  1  0
 69 73  1  0
 70 69  1  0
 71 72  1  0
 71 70  1  0
 72 68  1  0
 73 74  2  0
 74 75  1  0
 76 75  2  0
 77 76  1  0
 78 52  1  0
 78 79  1  0
 78 88  1  0
 79 82  1  0
 80 84  1  0
 80 79  1  0
 81 80  2  0
 84 83  1  0
 86 84  1  0
 86 87  1  0
 86 85  1  0
 88 91  1  1
 88 89  1  0
 90 88  1  0
M  ISO  4  10 100  11 100  50 101  51 101
M  END
>  <TORSDO>  (10) 
F 21

>  <SCORE>  (10) 
-13.487

>  <name>  (10) 
9

>  <ligand_id>  (10) 
9

>  <original_smiles>  (10) 
[H]N=C([H])c1c(N([H])C([H])([H])C([H])([H])Oc2c([H])c([H])c3c(c2[H])C([H])([H])N(C(=O)C([H])(N([H])C(=O)C([H])(N([H])C([H])([H])[H])C([H])([H])[H])C(C([H])([H])[H])(C([H])([H])[H])C([H])([H])[H])C([H])(C(=O)N([H])C2([H])c4c([H])c([H])c([H])c([H])c4C([H])([H])C([H])([H])C2([H])[H])C3([H])[H])oc(C([H])=C([H])C(=O)N2C([H])([H])C([H])([H])C([H])([H])C([H])(n3nc(-c4c([H])c([H])c(Oc5c([H])c([H])c(F)c([H])c5F)c([H])c4[H])c(C(=O)N([H])[H])c3N([H])[H])C2([H])[H])c1[H]

>  <smiles>  (10) 
[H]N=C([H])c1c(N([H])C([H])([H])C([H])([H])Oc2c([H])c([H])c3c(c2[H])C([H])([H])N(C(=O)C([H])(N([H])C(=O)C([H])(N([H])C([H])([H])[H])C([H])([H])[H])C(C([H])([H])[H])(C([H])([H])[H])C([H])([H])[H])C([H])(C(=O)N([H])C2([H])c4c([H])c([H])c([H])c([H])c4C([H])([H])C([H])([H])C2([H])[H])C3([H])[H])oc(C([H])=C([H])C(=O)N2C([H])([H])C([H])([H])C([H])([H])C([H])(n3nc(-c4c([H])c([H])c(Oc5c([H])c([H])c(F)c([H])c5F)c([H])c4[H])c(C(=O)N([H])[H])c3N([H])[H])C2([H])[H])c1[H]

$$$$
10:0:0
     RDKit          3D

 91 99  0  0  1  0  0  0  0  0999 V2000
  -28.7280  -19.6320   20.4700 C   0  0  0  0  0  3  0  0  0  0  0  0
  -30.8100  -18.6370   19.0020 C   0  0  0  0  0  3  0  0  0  0  0  0
  -29.0010  -18.1960   20.4630 C   0  0  0  0  0  0  0  0  0  0  0  0
  -29.4310  -20.6510   19.7360 C   0  0  0  0  0  0  0  0  0  0  0  0
  -30.0550  -17.6050   19.6810 C   0  0  0  0  0  0  0  0  0  0  0  0
  -30.5290  -20.0680   19.0210 C   0  0  0  0  0  0  0  0  0  0  0  0
  -31.3010  -20.8810   18.2620 F   0  0  0  0  0  0  0  0  0  0  0  0
  -30.9120  -14.9800   19.6900 C   0  0  0  0  0  0  0  0  0  0  0  0
  -30.8400  -12.5780   18.8650 C   0  0  0  0  0  2  0  0  0  0  0  0
  -29.8640  -12.3880   17.6800 C   0  0  0  0  0  2  0  0  0  0  0  0
  -28.4060  -12.2160   18.1640 C   0  0  0  0  0  2  0  0  0  0  0  0
  -28.0150  -13.1610   19.3320 C   0  0  0  0  0  3  0  0  0  0  0  0
  -29.1230  -13.2670   20.3990 C   0  0  0  0  0  2  0  0  0  0  0  0
  -30.3380  -13.7060   19.7000 N   0  0  0  0  0  0  0  0  0  0  0  0
  -32.1400  -15.0300   19.5520 O   0  0  0  0  0  0  0  0  0  0  0  0
  -29.8020  -16.0050   17.8530 C   0  0  0  0  0  1  0  0  0  0  0  0
  -30.1260  -16.1120   19.2860 N   0  0  0  0  0  0  0  0  0  0  0  0
  -25.6650  -13.6980   20.1860 C   0  0  0  0  0  0  0  0  0  0  0  0
  -24.6290  -12.9030   20.5890 C   0  0  0  0  0  0  0  0  0  0  0  0
  -25.1160  -11.5610   20.5330 C   0  0  0  0  0  0  0  0  0  0  0  0
  -26.7120  -12.8380   19.8990 N   0  0  0  0  0  0  0  0  0  0  0  0
  -26.3950  -11.5480   20.1740 N   0  0  0  0  0  0  0  0  0  0  0  0
  -24.4210  -10.2850   20.7420 C   0  0  0  0  0  0  0  0  0  0  0  0
  -24.8010   -9.3980   21.7720 C   0  0  0  0  0  3  0  0  0  0  0  0
  -24.1010   -8.1870   21.9670 C   0  0  0  0  0  3  0  0  0  0  0  0
  -23.0080   -7.8560   21.1310 C   0  0  0  0  0  0  0  0  0  0  0  0
  -22.6490   -8.7330   20.0930 C   0  0  0  0  0  3  0  0  0  0  0  0
  -23.3490   -9.9340   19.8960 C   0  0  0  0  0  3  0  0  0  0  0  0
  -22.2880   -6.6910   21.2300 O   0  0  0  0  0  0  0  0  0  0  0  0
  -21.9530   -6.1520   22.4470 C   0  0  0  0  0  0  0  0  0  0  0  0
  -21.1980   -6.8710   23.3980 C   0  0  0  0  0  3  0  0  0  0  0  0
  -20.8190   -6.2560   24.6080 C   0  0  0  0  0  3  0  0  0  0  0  0
  -21.1830   -4.9200   24.8620 C   0  0  0  0  0  0  0  0  0  0  0  0
  -21.9290   -4.1990   23.9130 C   0  0  0  0  0  3  0  0  0  0  0  0
  -22.3100   -4.8140   22.7080 C   0  0  0  0  0  0  0  0  0  0  0  0
  -23.0120   -4.1090   21.7880 F   0  0  0  0  0  0  0  0  0  0  0  0
  -20.8120   -4.3250   26.0210 F   0  0  0  0  0  0  0  0  0  0  0  0
  -23.2340  -13.3550   20.9150 C   0  0  0  0  0  0  0  0  0  0  0  0
  -22.5610  -12.6570   21.8210 N   0  0  0  0  0  0  0  0  0  0  0  0
  -22.7530  -14.3630   20.4000 O   0  0  0  0  0  0  0  0  0  0  0  0
  -22.9650  -11.8430   22.2580 H   0  0  0  0  0  0  0  0  0  0  0  0
  -21.6260  -12.9420   22.0800 H   0  0  0  0  0  0  0  0  0  0  0  0
  -25.7960  -15.0730   20.0150 N   0  0  0  0  0  0  0  0  0  0  0  0
  -25.0360  -15.7150   20.2060 H   0  0  0  0  0  0  0  0  0  0  0  0
  -26.6510  -15.5410   19.7400 H   0  0  0  0  0  0  0  0  0  0  0  0
  -26.7510  -17.2670   21.1220 C   0  0  0  0  0  2  0  0  0  0  0  0
  -28.0940  -17.2810   21.1830 C   0  0  0  0  0  3  0  0  0  0  0  0
  -29.3450  -23.2750   19.3420 C   0  0  0  0  0  3  0  0  0  0  0  0
  -28.8840  -22.0520   19.6650 N   0  0  0  0  0  0  0  0  0  0  0  0
  -28.4150  -24.6440   19.1220 C   0  0  0  0  0  2  0  0  0  0  0  0
  -28.8180  -26.1440   19.2570 O   0  0  0  0  0  0  0  0  0  0  0  0
  -25.2680  -31.2370   23.2430 C   0  0  0  0  0  0  0  0  0  0  0  0
  -27.7860  -27.1500   19.3760 C   0  0  0  0  0  0  0  0  0  0  0  0
  -24.0520  -30.1960   21.3700 C   0  0  0  0  0  3  0  0  0  0  0  0
  -25.4830  -28.9080   19.6710 C   0  0  0  0  0  0  0  0  0  0  0  0
  -26.6110  -30.4530   21.2590 C   0  0  0  0  0  2  0  0  0  0  0  0
  -26.6680  -29.2090   20.3550 C   0  0  0  0  0  0  0  0  0  0  0  0
  -27.8200  -28.3500   20.1950 C   0  0  0  0  0  3  0  0  0  0  0  0
  -26.5750  -26.9660   18.6670 C   0  0  0  0  0  3  0  0  0  0  0  0
  -25.4520  -27.8030   18.8110 C   0  0  0  0  0  3  0  0  0  0  0  0
  -24.2670  -29.7940   19.8880 C   0  0  0  0  0  2  0  0  0  0  0  0
  -25.3300  -30.6390   22.0150 N   0  0  0  0  0  0  0  0  0  0  0  0
  -24.1850  -31.4310   23.8150 O   0  0  0  0  0  0  0  0  0  0  0  0
  -23.3560  -29.0330   22.1210 C   0  0  0  0  0  0  0  0  0  0  0  0
  -22.0340  -28.8840   21.9300 N   0  0  0  0  0  0  0  0  0  0  0  0
  -24.0100  -28.2730   22.8410 O   0  0  0  0  0  0  0  0  0  0  0  0
  -21.5620  -29.5500   21.3340 H   0  0  0  0  0  0  0  0  0  0  0  0
  -18.6330  -27.6620   22.1950 C   0  0  0  0  0  0  0  0  0  0  0  0
  -21.1970  -27.8250   22.5030 C   0  0  0  0  0  3  0  0  0  0  0  0
  -21.2750  -26.5330   21.6560 C   0  0  0  0  0  2  0  0  0  0  0  0
  -20.1690  -26.4350   20.6010 C   0  0  0  0  0  2  0  0  0  0  0  0
  -18.7890  -26.4710   21.2650 C   0  0  0  0  0  2  0  0  0  0  0  0
  -19.7640  -28.3070   22.7640 C   0  0  0  0  0  0  0  0  0  0  0  0
  -19.5630  -29.4300   23.5950 C   0  0  0  0  0  3  0  0  0  0  0  0
  -18.2660  -29.9060   23.8640 C   0  0  0  0  0  3  0  0  0  0  0  0
  -17.1500  -29.2540   23.3110 C   0  0  0  0  0  3  0  0  0  0  0  0
  -17.3350  -28.1340   22.4820 C   0  0  0  0  0  3  0  0  0  0  0  0
  -26.5530  -31.7220   23.9800 C   0  0  0  0  0  3  0  0  0  0  0  0
  -27.0010  -30.7540   25.1440 C   0  0  1  0  0  0  0  0  0  0  0  0
  -25.8650  -30.4010   26.1320 C   0  0  0  0  0  1  0  0  0  0  0  0
  -27.5560  -29.4290   24.5750 C   0  0  0  0  0  1  0  0  0  0  0  0
  -28.1510  -31.4030   25.9510 C   0  0  0  0  0  1  0  0  0  0  0  0
  -26.2840  -33.0690   24.5060 N   0  0  0  0  0  0  0  0  0  0  0  0
  -26.6340  -34.2110   23.8990 C   0  0  0  0  0  0  0  0  0  0  0  0
  -27.2840  -34.2380   22.8510 O   0  0  0  0  0  0  0  0  0  0  0  0
  -25.7040  -33.1230   25.3300 H   0  0  0  0  0  0  0  0  0  0  0  0
  -24.9400  -36.0720   23.8570 C   0  0  0  0  0  1  0  0  0  0  0  0
  -26.1960  -35.5330   24.5600 C   0  0  0  0  0  3  0  0  0  0  0  0
  -28.3690  -36.2650   25.4420 C   0  0  0  0  0  1  0  0  0  0  0  0
  -27.2490  -36.5720   24.5560 N   0  0  0  0  0  0  0  0  0  0  0  0
  -26.8670  -37.4730   24.8300 H   0  0  0  0  0  0  0  0  0  0  0  0
  2  6  2  0
  2  5  1  0
  3  1  1  0
  3 47  1  0
  4  1  2  0
  5  3  2  0
  6  4  1  0
  7  6  1  0
  8 14  1  0
  9 14  1  0
 10 11  1  0
 10  9  1  0
 12 11  1  0
 12 21  1  0
 12 13  1  0
 14 13  1  0
 15  8  2  0
 16 17  1  0
 17  5  1  0
 17  8  1  0
 18 19  2  0
 19 38  1  0
 20 19  1  0
 20 23  1  0
 21 22  1  0
 21 18  1  0
 22 20  2  0
 23 24  1  0
 24 25  2  0
 26 29  1  0
 26 25  1  0
 27 26  2  0
 28 27  1  0
 28 23  2  0
 29 30  1  0
 30 35  2  0
 30 31  1  0
 31 32  2  0
 32 33  1  0
 33 37  1  0
 34 33  2  0
 35 34  1  0
 36 35  1  0
 38 39  1  0
 39 42  1  0
 39 41  1  0
 40 38  2  0
 43 18  1  0
 43 44  1  0
 45 43  1  0
 46 47  2  0
 48 49  2  0
 49  4  1  0
 50 51  1  0
 50 48  1  0
 51 53  1  0
 52 63  2  0
 53 58  1  0
 54 62  1  0
 54 64  1  0
 55 61  1  0
 55 57  1  0
 56 62  1  0
 57 56  1  0
 58 57  2  0
 59 60  1  0
 59 53  2  0
 60 55  2  0
 61 54  1  0
 62 52  1  0
 64 66  2  0
 65 64  1  0
 67 65  1  0
 68 77  2  0
 68 73  1  0
 69 65  1  0
 69 73  1  0
 70 69  1  0
 71 72  1  0
 71 70  1  0
 72 68  1  0
 73 74  2  0
 74 75  1  0
 76 75  2  0
 77 76  1  0
 78 52  1  0
 78 83  1  0
 78 79  1  0
 79 82  1  1
 79 80  1  0
 81 79  1  0
 83 86  1  0
 84 83  1  0
 84 88  1  0
 85 84  2  0
 88 87  1  0
 90 88  1  0
 90 91  1  0
 90 89  1  0
M  ISO  4   8 100  17 100  50 101  51 101
M  END
>  <TORSDO>  (11) 
F 19

>  <SCORE>  (11) 
-7.464

>  <name>  (11) 
10

>  <ligand_id>  (11) 
10

>  <original_smiles>  (11) 
[H]C(=Nc1c([H])c(C([H])=C([H])[H])c(N(C(=O)N2C([H])([H])C([H])([H])C([H])([H])C([H])(n3nc(-c4c([H])c([H])c(Oc5c([H])c([H])c(F)c([H])c5F)c([H])c4[H])c(C(=O)N([H])[H])c3N([H])[H])C2([H])[H])C([H])([H])[H])c([H])c1F)C([H])([H])Oc1c([H])c([H])c2c(c1[H])C([H])([H])N(C(=O)C([H])(N([H])C(=O)C([H])(N([H])C([H])([H])[H])C([H])([H])[H])C(C([H])([H])[H])(C([H])([H])[H])C([H])([H])[H])C([H])(C(=O)N([H])C1([H])c3c([H])c([H])c([H])c([H])c3C([H])([H])C([H])([H])C1([H])[H])C2([H])[H]

>  <smiles>  (11) 
[H]C(=Nc1c([H])c(C([H])=C([H])[H])c(N(C(=O)N2C([H])([H])C([H])([H])C([H])([H])C([H])(n3nc(-c4c([H])c([H])c(Oc5c([H])c([H])c(F)c([H])c5F)c([H])c4[H])c(C(=O)N([H])[H])c3N([H])[H])C2([H])[H])C([H])([H])[H])c([H])c1F)C([H])([H])Oc1c([H])c([H])c2c(c1[H])C([H])([H])N(C(=O)C([H])(N([H])C(=O)C([H])(N([H])C([H])([H])[H])C([H])([H])[H])C(C([H])([H])[H])(C([H])([H])[H])C([H])([H])[H])C([H])(C(=O)N([H])C1([H])c3c([H])c([H])c([H])c([H])c3C([H])([H])C([H])([H])C1([H])[H])C2([H])[H]

$$$$
11:0:0
     RDKit          3D

 91 99  0  0  1  0  0  0  0  0999 V2000
  -28.8800  -20.8320   20.8330 C   0  0  0  0  0  0  0  0  0  0  0  0
  -29.3560  -21.3660   19.6500 C   0  0  0  0  0  0  0  0  0  0  0  0
  -29.8850  -19.0900   19.7670 C   0  0  0  0  0  0  0  0  0  0  0  0
  -28.1280  -21.4010   21.9930 C   0  0  0  0  0  1  0  0  0  0  0  0
  -29.9900  -20.2470   19.0250 N   0  0  0  0  0  0  0  0  0  0  0  0
  -29.1930  -19.4480   20.9010 O   0  0  0  0  0  0  0  0  0  0  0  0
  -30.8740  -15.1590   19.7760 C   0  0  0  0  0  0  0  0  0  0  0  0
  -30.5790  -12.8230   18.8990 C   0  0  0  0  0  2  0  0  0  0  0  0
  -29.5850  -12.8390   17.7210 C   0  0  0  0  0  2  0  0  0  0  0  0
  -28.1470  -12.6690   18.2440 C   0  0  0  0  0  2  0  0  0  0  0  0
  -27.8380  -13.5840   19.4640 C   0  0  0  0  0  3  0  0  0  0  0  0
  -28.9700  -13.5850   20.5130 C   0  0  0  0  0  2  0  0  0  0  0  0
  -30.2080  -13.9390   19.8120 N   0  0  0  0  0  0  0  0  0  0  0  0
  -32.0530  -15.1160   19.4210 O   0  0  0  0  0  0  0  0  0  0  0  0
  -30.6620  -17.6850   19.6150 C   0  0  0  0  0  0  0  0  0  0  0  0
  -30.1920  -16.3910   19.9320 N   0  0  0  0  0  0  0  0  0  0  0  0
  -31.7840  -17.8210   19.1050 O   0  0  0  0  0  0  0  0  0  0  0  0
  -29.2390  -16.3490   20.2520 H   0  0  0  0  0  0  0  0  0  0  0  0
  -25.5320  -14.1600   20.4070 C   0  0  0  0  0  0  0  0  0  0  0  0
  -24.4920  -13.3860   20.8420 C   0  0  0  0  0  0  0  0  0  0  0  0
  -24.9320  -12.0310   20.7260 C   0  0  0  0  0  0  0  0  0  0  0  0
  -26.5400  -13.2800   20.0560 N   0  0  0  0  0  0  0  0  0  0  0  0
  -26.1940  -11.9910   20.3150 N   0  0  0  0  0  0  0  0  0  0  0  0
  -24.1990  -10.7720   20.9270 C   0  0  0  0  0  0  0  0  0  0  0  0
  -24.6330   -9.8090   21.8620 C   0  0  0  0  0  3  0  0  0  0  0  0
  -23.9040   -8.6150   22.0520 C   0  0  0  0  0  3  0  0  0  0  0  0
  -22.7230   -8.3770   21.3090 C   0  0  0  0  0  0  0  0  0  0  0  0
  -22.3080   -9.3290   20.3600 C   0  0  0  0  0  3  0  0  0  0  0  0
  -23.0400  -10.5140   20.1670 C   0  0  0  0  0  3  0  0  0  0  0  0
  -21.9630   -7.2370   21.4090 O   0  0  0  0  0  0  0  0  0  0  0  0
  -21.8650   -6.5390   22.5870 C   0  0  0  0  0  0  0  0  0  0  0  0
  -21.3360   -7.1240   23.7590 C   0  0  0  0  0  3  0  0  0  0  0  0
  -21.1880   -6.3510   24.9270 C   0  0  0  0  0  3  0  0  0  0  0  0
  -21.5560   -4.9920   24.9240 C   0  0  0  0  0  0  0  0  0  0  0  0
  -22.0780   -4.4060   23.7560 C   0  0  0  0  0  3  0  0  0  0  0  0
  -22.2260   -5.1760   22.5910 C   0  0  0  0  0  0  0  0  0  0  0  0
  -22.7070   -4.6020   21.4620 F   0  0  0  0  0  0  0  0  0  0  0  0
  -21.4100   -4.2460   26.0430 F   0  0  0  0  0  0  0  0  0  0  0  0
  -23.1270  -13.8670   21.2400 C   0  0  0  0  0  0  0  0  0  0  0  0
  -22.4600  -13.1590   22.1440 N   0  0  0  0  0  0  0  0  0  0  0  0
  -22.6630  -14.9100   20.7810 O   0  0  0  0  0  0  0  0  0  0  0  0
  -22.8520  -12.3210   22.5500 H   0  0  0  0  0  0  0  0  0  0  0  0
  -21.5430  -13.4630   22.4430 H   0  0  0  0  0  0  0  0  0  0  0  0
  -25.7040  -15.5340   20.2580 N   0  0  0  0  0  0  0  0  0  0  0  0
  -24.9650  -16.2000   20.4590 H   0  0  0  0  0  0  0  0  0  0  0  0
  -26.5170  -15.9650   19.8360 H   0  0  0  0  0  0  0  0  0  0  0  0
  -28.9130  -23.9690   19.0380 C   0  0  0  0  0  0  0  0  0  0  0  0
  -29.0260  -24.6880   17.7020 C   0  0  0  0  0  1  0  0  0  0  0  0
  -29.2570  -22.6680   18.9620 N   0  0  0  0  0  0  0  0  0  0  0  0
  -28.3790  -25.0770   20.0960 C   0  0  0  0  0  2  0  0  0  0  0  0
  -28.4400  -26.5760   19.7340 O   0  0  0  0  0  0  0  0  0  0  0  0
  -24.6010  -31.8300   23.0860 C   0  0  0  0  0  0  0  0  0  0  0  0
  -27.3040  -27.4400   19.7790 C   0  0  0  0  0  0  0  0  0  0  0  0
  -23.4160  -30.4750   21.4000 C   0  0  0  0  0  3  0  0  0  0  0  0
  -24.8940  -29.0330   19.8730 C   0  0  0  0  0  0  0  0  0  0  0  0
  -25.9480  -30.8710   21.1880 C   0  0  0  0  0  2  0  0  0  0  0  0
  -26.0640  -29.5210   20.4690 C   0  0  0  0  0  0  0  0  0  0  0  0
  -27.2730  -28.7460   20.3930 C   0  0  0  0  0  3  0  0  0  0  0  0
  -26.1070  -27.0250   19.1630 C   0  0  0  0  0  3  0  0  0  0  0  0
  -24.9240  -27.7960   19.2020 C   0  0  0  0  0  3  0  0  0  0  0  0
  -23.6310  -29.8710   19.9850 C   0  0  0  0  0  2  0  0  0  0  0  0
  -24.6760  -31.0740   21.9490 N   0  0  0  0  0  0  0  0  0  0  0  0
  -23.5180  -32.0420   23.6530 O   0  0  0  0  0  0  0  0  0  0  0  0
  -22.8030  -29.3930   22.3220 C   0  0  0  0  0  0  0  0  0  0  0  0
  -21.4870  -29.1560   22.1940 N   0  0  0  0  0  0  0  0  0  0  0  0
  -23.5150  -28.7690   23.1140 O   0  0  0  0  0  0  0  0  0  0  0  0
  -20.9710  -29.7110   21.5260 H   0  0  0  0  0  0  0  0  0  0  0  0
  -18.1820  -27.7510   22.6490 C   0  0  0  0  0  0  0  0  0  0  0  0
  -20.7220  -28.1470   22.9310 C   0  0  0  0  0  3  0  0  0  0  0  0
  -20.9040  -26.7460   22.3040 C   0  0  0  0  0  2  0  0  0  0  0  0
  -19.8200  -26.3950   21.2780 C   0  0  0  0  0  2  0  0  0  0  0  0
  -18.4330  -26.4400   21.9240 C   0  0  0  0  0  2  0  0  0  0  0  0
  -19.2550  -28.5590   23.1070 C   0  0  0  0  0  0  0  0  0  0  0  0
  -18.9630  -29.7850   23.7470 C   0  0  0  0  0  3  0  0  0  0  0  0
  -17.6310  -30.2010   23.9330 C   0  0  0  0  0  3  0  0  0  0  0  0
  -16.5730  -29.3910   23.4890 C   0  0  0  0  0  3  0  0  0  0  0  0
  -16.8490  -28.1670   22.8520 C   0  0  0  0  0  3  0  0  0  0  0  0
  -25.8680  -32.4840   23.7160 C   0  0  0  0  0  3  0  0  0  0  0  0
  -25.5260  -33.8640   24.0810 N   0  0  0  0  0  0  0  0  0  0  0  0
  -25.8310  -34.9480   23.3550 C   0  0  0  0  0  0  0  0  0  0  0  0
  -26.5030  -34.8890   22.3220 O   0  0  0  0  0  0  0  0  0  0  0  0
  -24.9260  -33.9820   24.8860 H   0  0  0  0  0  0  0  0  0  0  0  0
  -24.0640  -36.7140   23.0530 C   0  0  0  0  0  1  0  0  0  0  0  0
  -25.3110  -36.3080   23.8560 C   0  0  0  0  0  3  0  0  0  0  0  0
  -27.4150  -37.2170   24.7340 C   0  0  0  0  0  1  0  0  0  0  0  0
  -26.3170  -37.3890   23.7860 N   0  0  0  0  0  0  0  0  0  0  0  0
  -25.8850  -38.2930   23.9600 H   0  0  0  0  0  0  0  0  0  0  0  0
  -26.4080  -31.7030   24.9790 C   0  0  1  0  0  0  0  0  0  0  0  0
  -25.3240  -31.4150   26.0440 C   0  0  0  0  0  1  0  0  0  0  0  0
  -27.0250  -30.3510   24.5620 C   0  0  0  0  0  1  0  0  0  0  0  0
  -27.5390  -32.5160   25.6530 C   0  0  0  0  0  1  0  0  0  0  0  0
  1  6  1  0
  1  4  1  0
  2  1  2  0
  3  6  1  0
  5  2  1  0
  5  3  2  0
  7 13  1  0
  7 16  1  0
  8 13  1  0
  9 10  1  0
  9  8  1  0
 11 10  1  0
 11 22  1  0
 11 12  1  0
 13 12  1  0
 14  7  2  0
 15  3  1  0
 15 16  1  0
 16 18  1  0
 17 15  2  0
 19 20  2  0
 20 39  1  0
 21 20  1  0
 21 24  1  0
 22 23  1  0
 22 19  1  0
 23 21  2  0
 24 25  1  0
 25 26  2  0
 27 30  1  0
 27 26  1  0
 28 27  2  0
 29 28  1  0
 29 24  2  0
 30 31  1  0
 31 36  2  0
 31 32  1  0
 32 33  2  0
 34 33  1  0
 34 38  1  0
 35 34  2  0
 36 35  1  0
 37 36  1  0
 39 40  1  0
 40 43  1  0
 40 42  1  0
 41 39  2  0
 44 19  1  0
 44 45  1  0
 46 44  1  0
 47 50  1  0
 48 47  1  0
 49 47  2  0
 49  2  1  0
 51 53  1  0
 51 50  1  0
 52 63  2  0
 53 58  1  0
 54 62  1  0
 54 64  1  0
 55 61  1  0
 55 57  1  0
 56 62  1  0
 57 56  1  0
 58 57  2  0
 59 60  1  0
 59 53  2  0
 60 55  2  0
 61 54  1  0
 62 52  1  0
 64 66  2  0
 65 64  1  0
 67 65  1  0
 68 77  2  0
 68 73  1  0
 69 65  1  0
 69 73  1  0
 70 69  1  0
 71 72  1  0
 71 70  1  0
 72 68  1  0
 73 74  2  0
 74 75  1  0
 76 75  2  0
 77 76  1  0
 78 52  1  0
 78 79  1  0
 78 88  1  0
 79 82  1  0
 80 84  1  0
 80 79  1  0
 81 80  2  0
 84 83  1  0
 86 84  1  0
 86 87  1  0
 86 85  1  0
 88 91  1  1
 88 89  1  0
 90 88  1  0
M  ISO  4   7 100  16 100  50 101  51 101
M  END
>  <TORSDO>  (12) 
F 18

>  <SCORE>  (12) 
-13.412

>  <name>  (12) 
11

>  <ligand_id>  (12) 
11

>  <original_smiles>  (12) 
[H]c1c([H])c([H])c2c(c1[H])C([H])([H])C([H])([H])C([H])([H])C2([H])N([H])C(=O)C1([H])N(C(=O)C([H])(N([H])C(=O)C([H])(N([H])C([H])([H])[H])C([H])([H])[H])C(C([H])([H])[H])(C([H])([H])[H])C([H])([H])[H])C([H])([H])c2c([H])c(OC([H])([H])C(=Nc3nc(C(=O)N([H])C(=O)N4C([H])([H])C([H])([H])C([H])([H])C([H])(n5nc(-c6c([H])c([H])c(Oc7c([H])c([H])c(F)c([H])c7F)c([H])c6[H])c(C(=O)N([H])[H])c5N([H])[H])C4([H])[H])oc3C([H])([H])[H])C([H])([H])[H])c([H])c([H])c2C1([H])[H]

>  <smiles>  (12) 
[H]c1c([H])c([H])c2c(c1[H])C([H])([H])C([H])([H])C([H])([H])C2([H])N([H])C(=O)C1([H])N(C(=O)C([H])(N([H])C(=O)C([H])(N([H])C([H])([H])[H])C([H])([H])[H])C(C([H])([H])[H])(C([H])([H])[H])C([H])([H])[H])C([H])([H])c2c([H])c(OC([H])([H])C(=Nc3nc(C(=O)N([H])C(=O)N4C([H])([H])C([H])([H])C([H])([H])C([H])(n5nc(-c6c([H])c([H])c(Oc7c([H])c([H])c(F)c([H])c7F)c([H])c6[H])c(C(=O)N([H])[H])c5N([H])[H])C4([H])[H])oc3C([H])([H])[H])C([H])([H])[H])c([H])c([H])c2C1([H])[H]

$$$$
12:0:0
     RDKit          3D

 97106  0  0  1  0  0  0  0  0999 V2000
  -28.6300  -24.1470   18.6530 C   0  0  0  0  0  0  0  0  0  0  0  0
  -28.5440  -25.5350   18.6920 C   0  0  0  0  0  3  0  0  0  0  0  0
  -28.5540  -23.4230   17.3180 C   0  0  0  0  0  3  0  0  0  0  0  0
  -28.7370  -21.9120   17.5720 C   0  0  0  0  0  3  0  0  0  0  0  0
  -28.7330  -23.0310   19.7330 C   0  0  0  0  0  3  0  0  0  0  0  0
  -28.9660  -21.6980   19.0220 N   0  0  2  0  0  4  0  0  0  0  0  0
  -28.1920  -21.1130   19.3140 H   0  0  0  0  0  0  0  0  0  0  0  0
  -27.3740  -22.9080   20.4800 C   0  0  0  0  0  0  0  0  0  0  0  0
  -27.2040  -21.8000   21.5180 C   0  0  0  0  0  1  0  0  0  0  0  0
  -26.4040  -23.6430   20.2620 O   0  0  0  0  0  0  0  0  0  0  0  0
  -31.3960  -20.9970   18.5000 C   0  0  0  0  0  1  0  0  0  0  0  0
  -30.1500  -20.8120   19.3990 C   0  0  0  0  0  3  0  0  0  0  0  0
  -30.6050  -18.0780   19.4360 C   0  0  0  0  0  3  0  0  0  0  0  0
  -29.8190  -19.2940   19.5920 C   0  0  0  0  0  0  0  0  0  0  0  0
  -29.7920  -17.0570   19.8970 C   0  0  0  0  0  0  0  0  0  0  0  0
  -27.3920  -17.0220   20.8070 C   0  0  0  0  0  1  0  0  0  0  0  0
  -28.6150  -18.9890   20.0720 N   0  0  0  0  0  0  0  0  0  0  0  0
  -28.5940  -17.6420   20.2620 N   0  0  0  0  0  0  0  0  0  0  0  0
  -30.8300  -14.7310   19.5840 C   0  0  0  0  0  0  0  0  0  0  0  0
  -30.6870  -12.4070   18.6990 C   0  0  0  0  0  2  0  0  0  0  0  0
  -29.6370  -12.3970   17.5640 C   0  0  0  0  0  2  0  0  0  0  0  0
  -28.2010  -12.2720   18.1140 C   0  0  0  0  0  2  0  0  0  0  0  0
  -27.9210  -13.2250   19.3050 C   0  0  0  0  0  3  0  0  0  0  0  0
  -29.0580  -13.1120   20.3450 C   0  0  0  0  0  2  0  0  0  0  0  0
  -30.3110  -13.4660   19.6560 N   0  0  0  0  0  0  0  0  0  0  0  0
  -31.9350  -14.9630   19.0790 O   0  0  0  0  0  0  0  0  0  0  0  0
  -29.9400  -15.6850   19.9810 N   0  0  0  0  0  0  0  0  0  0  0  0
  -29.1430  -15.2410   20.4100 H   0  0  0  0  0  0  0  0  0  0  0  0
  -25.6290  -13.8960   20.2540 C   0  0  0  0  0  0  0  0  0  0  0  0
  -24.5730  -13.1540   20.7070 C   0  0  0  0  0  0  0  0  0  0  0  0
  -24.9740  -11.7870   20.5910 C   0  0  0  0  0  0  0  0  0  0  0  0
  -26.6120  -12.9820   19.9030 N   0  0  0  0  0  0  0  0  0  0  0  0
  -26.2280  -11.7060   20.1640 N   0  0  0  0  0  0  0  0  0  0  0  0
  -24.2150  -10.5500   20.8060 C   0  0  0  0  0  0  0  0  0  0  0  0
  -24.6110   -9.6110   21.7830 C   0  0  0  0  0  3  0  0  0  0  0  0
  -23.8620   -8.4310   21.9840 C   0  0  0  0  0  3  0  0  0  0  0  0
  -22.7030   -8.1850   21.2110 C   0  0  0  0  0  0  0  0  0  0  0  0
  -22.3250   -9.1180   20.2270 C   0  0  0  0  0  3  0  0  0  0  0  0
  -23.0730  -10.2890   20.0230 C   0  0  0  0  0  3  0  0  0  0  0  0
  -21.9280   -7.0550   21.3170 O   0  0  0  0  0  0  0  0  0  0  0  0
  -21.7200   -6.4380   22.5240 C   0  0  0  0  0  0  0  0  0  0  0  0
  -21.1430   -7.1190   23.6180 C   0  0  0  0  0  3  0  0  0  0  0  0
  -20.8810   -6.4300   24.8180 C   0  0  0  0  0  3  0  0  0  0  0  0
  -21.1840   -5.0590   24.9240 C   0  0  0  0  0  0  0  0  0  0  0  0
  -21.7500   -4.3770   23.8330 C   0  0  0  0  0  3  0  0  0  0  0  0
  -22.0170   -5.0650   22.6360 C   0  0  0  0  0  0  0  0  0  0  0  0
  -22.5440   -4.3980   21.5810 F   0  0  0  0  0  0  0  0  0  0  0  0
  -20.9280   -4.3940   26.0760 F   0  0  0  0  0  0  0  0  0  0  0  0
  -23.2260  -13.6740   21.1230 C   0  0  0  0  0  0  0  0  0  0  0  0
  -22.5560  -12.9890   22.0400 N   0  0  0  0  0  0  0  0  0  0  0  0
  -22.7750  -14.7240   20.6670 O   0  0  0  0  0  0  0  0  0  0  0  0
  -22.9220  -12.1330   22.4290 H   0  0  0  0  0  0  0  0  0  0  0  0
  -21.6570  -13.3280   22.3480 H   0  0  0  0  0  0  0  0  0  0  0  0
  -25.8360  -15.2600   20.0830 N   0  0  0  0  0  0  0  0  0  0  0  0
  -25.1340  -15.9540   20.3090 H   0  0  0  0  0  0  0  0  0  0  0  0
  -26.5780  -15.6260   19.5020 H   0  0  0  0  0  0  0  0  0  0  0  0
  -28.4530  -26.4750   19.7360 O   0  0  0  0  0  0  0  0  0  0  0  0
  -24.7100  -31.5930   23.2400 C   0  0  0  0  0  0  0  0  0  0  0  0
  -27.3420  -27.3460   19.7710 C   0  0  0  0  0  0  0  0  0  0  0  0
  -23.4980  -30.2810   21.5410 C   0  0  0  0  0  3  0  0  0  0  0  0
  -24.9410  -28.8960   19.9560 C   0  0  0  0  0  0  0  0  0  0  0  0
  -26.0200  -30.6970   21.3020 C   0  0  0  0  0  2  0  0  0  0  0  0
  -26.1230  -29.3730   20.5490 C   0  0  0  0  0  0  0  0  0  0  0  0
  -27.3260  -28.6050   20.4490 C   0  0  0  0  0  3  0  0  0  0  0  0
  -26.1260  -26.9210   19.1840 C   0  0  0  0  0  3  0  0  0  0  0  0
  -24.9470  -27.6790   19.2650 C   0  0  0  0  0  3  0  0  0  0  0  0
  -23.6860  -29.7250   20.1050 C   0  0  0  0  0  2  0  0  0  0  0  0
  -24.7610  -30.8720   22.0830 N   0  0  0  0  0  0  0  0  0  0  0  0
  -23.6390  -31.7890   23.8300 O   0  0  0  0  0  0  0  0  0  0  0  0
  -22.9020  -29.1680   22.4370 C   0  0  0  0  0  0  0  0  0  0  0  0
  -21.6170  -28.8390   22.2220 N   0  0  0  0  0  0  0  0  0  0  0  0
  -23.5950  -28.6080   23.2900 O   0  0  0  0  0  0  0  0  0  0  0  0
  -21.1110  -29.3590   21.5180 H   0  0  0  0  0  0  0  0  0  0  0  0
  -18.4280  -27.1440   22.3640 C   0  0  0  0  0  0  0  0  0  0  0  0
  -20.8650  -27.7990   22.9250 C   0  0  0  0  0  3  0  0  0  0  0  0
  -21.2500  -26.3900   22.4200 C   0  0  0  0  0  2  0  0  0  0  0  0
  -20.3440  -25.8890   21.2900 C   0  0  0  0  0  2  0  0  0  0  0  0
  -18.8900  -25.8280   21.7620 C   0  0  0  0  0  2  0  0  0  0  0  0
  -19.3560  -28.0760   22.8970 C   0  0  0  0  0  0  0  0  0  0  0  0
  -18.8750  -29.3000   23.4090 C   0  0  0  0  0  3  0  0  0  0  0  0
  -17.4980  -29.5920   23.4040 C   0  0  0  0  0  3  0  0  0  0  0  0
  -16.5840  -28.6580   22.8890 C   0  0  0  0  0  3  0  0  0  0  0  0
  -17.0500  -27.4370   22.3710 C   0  0  0  0  0  3  0  0  0  0  0  0
  -25.9920  -32.2200   23.8710 C   0  0  0  0  0  3  0  0  0  0  0  0
  -26.4790  -31.4630   25.1670 C   0  0  1  0  0  0  0  0  0  0  0  0
  -25.3700  -31.2560   26.2260 C   0  0  0  0  0  1  0  0  0  0  0  0
  -27.0540  -30.0740   24.8060 C   0  0  0  0  0  1  0  0  0  0  0  0
  -27.6250  -32.2580   25.8350 C   0  0  0  0  0  1  0  0  0  0  0  0
  -25.6900  -33.6240   24.1770 N   0  0  0  0  0  0  0  0  0  0  0  0
  -25.9980  -34.6600   23.3860 C   0  0  0  0  0  0  0  0  0  0  0  0
  -26.6400  -34.5320   22.3380 O   0  0  0  0  0  0  0  0  0  0  0  0
  -25.1140  -33.7970   24.9900 H   0  0  0  0  0  0  0  0  0  0  0  0
  -24.2660  -36.4430   23.0330 C   0  0  0  0  0  1  0  0  0  0  0  0
  -25.5240  -36.0570   23.8240 C   0  0  0  0  0  3  0  0  0  0  0  0
  -27.6710  -36.9620   24.6000 C   0  0  0  0  0  1  0  0  0  0  0  0
  -26.5550  -37.1070   23.6700 N   0  0  0  0  0  0  0  0  0  0  0  0
  -26.1490  -38.0300   23.8010 H   0  0  0  0  0  0  0  0  0  0  0  0
  1  2  2  0
  1  5  1  0
  2 57  1  0
  3  4  2  0
  3  1  1  0
  4  6  1  0
  5  8  1  0
  6  7  1  1
  6 12  1  0
  6  5  1  0
  8  9  1  0
 10  8  2  0
 12 11  1  0
 12 14  1  0
 13 14  1  0
 13 15  2  0
 14 17  2  0
 15 27  1  0
 15 18  1  0
 17 18  1  0
 18 16  1  0
 19 25  1  0
 19 27  1  0
 20 25  1  0
 21 22  1  0
 21 20  1  0
 23 22  1  0
 23 32  1  0
 23 24  1  0
 25 24  1  0
 26 19  2  0
 27 28  1  0
 29 30  2  0
 30 49  1  0
 31 30  1  0
 31 34  1  0
 32 33  1  0
 32 29  1  0
 33 31  2  0
 34 35  1  0
 35 36  2  0
 37 40  1  0
 37 36  1  0
 38 37  2  0
 39 38  1  0
 39 34  2  0
 40 41  1  0
 41 46  2  0
 41 42  1  0
 42 43  2  0
 43 44  1  0
 44 48  1  0
 45 44  2  0
 46 45  1  0
 47 46  1  0
 49 50  1  0
 50 53  1  0
 50 52  1  0
 51 49  2  0
 54 29  1  0
 54 55  1  0
 56 54  1  0
 57 59  1  0
 58 69  2  0
 59 64  1  0
 60 68  1  0
 60 70  1  0
 61 67  1  0
 61 63  1  0
 62 68  1  0
 63 62  1  0
 64 63  2  0
 65 66  1  0
 65 59  2  0
 66 61  2  0
 67 60  1  0
 68 58  1  0
 70 72  2  0
 71 70  1  0
 73 71  1  0
 74 83  2  0
 74 79  1  0
 75 71  1  0
 76 75  1  0
 77 78  1  0
 77 76  1  0
 78 74  1  0
 79 75  1  0
 79 80  2  0
 81 80  1  0
 82 81  2  0
 83 82  1  0
 84 58  1  0
 84 89  1  0
 84 85  1  0
 85 88  1  1
 85 86  1  0
 87 85  1  0
 89 92  1  0
 90 94  1  0
 90 89  1  0
 91 90  2  0
 94 93  1  0
 96 97  1  0
 96 94  1  0
 96 95  1  0
M  ISO  4   2 101  19 100  27 100  57 101
M  END
>  <TORSDO>  (13) 
F 19

>  <SCORE>  (13) 
-11.975

>  <name>  (13) 
12

>  <ligand_id>  (13) 
12

>  <original_smiles>  (13) 
[H]C(Oc1c([H])c([H])c2c(c1[H])C([H])([H])N(C(=O)C([H])(N([H])C(=O)C([H])(N([H])C([H])([H])[H])C([H])([H])[H])C(C([H])([H])[H])(C([H])([H])[H])C([H])([H])[H])C([H])(C(=O)N([H])C1([H])c3c([H])c([H])c([H])c([H])c3C([H])([H])C([H])([H])C1([H])[H])C2([H])[H])=C1C([H])([H])C([H])([H])[N+]([H])(C([H])(c2nn(C([H])([H])[H])c(N([H])C(=O)N3C([H])([H])C([H])([H])C([H])([H])C([H])(n4nc(-c5c([H])c([H])c(Oc6c([H])c([H])c(F)c([H])c6F)c([H])c5[H])c(C(=O)N([H])[H])c4N([H])[H])C3([H])[H])c2[H])C([H])([H])[H])C1([H])C(=O)C([H])([H])[H]

>  <smiles>  (13) 
[H]C(Oc1c([H])c([H])c2c(c1[H])C([H])([H])N(C(=O)C([H])(N([H])C(=O)C([H])(N([H])C([H])([H])[H])C([H])([H])[H])C(C([H])([H])[H])(C([H])([H])[H])C([H])([H])[H])C([H])(C(=O)N([H])C1([H])c3c([H])c([H])c([H])c([H])c3C([H])([H])C([H])([H])C1([H])[H])C2([H])[H])=C1C([H])([H])C([H])([H])[N+]([H])(C([H])(c2nn(C([H])([H])[H])c(N([H])C(=O)N3C([H])([H])C([H])([H])C([H])([H])C([H])(n4nc(-c5c([H])c([H])c(Oc6c([H])c([H])c(F)c([H])c6F)c([H])c5[H])c(C(=O)N([H])[H])c4N([H])[H])C3([H])[H])c2[H])C([H])([H])[H])C1([H])C(=O)C([H])([H])[H]

$$$$
13:0:0
     RDKit          3D

 91 99  0  0  1  0  0  0  0  0999 V2000
  -28.3680  -20.1170   19.8300 C   0  0  0  0  0  3  0  0  0  0  0  0
  -30.2900  -20.1240   21.1640 C   0  0  0  0  0  3  0  0  0  0  0  0
  -29.5900  -17.8580   20.1940 C   0  0  0  0  0  0  0  0  0  0  0  0
  -28.5050  -18.6830   19.6540 C   0  0  0  0  0  0  0  0  0  0  0  0
  -29.2450  -20.9330   20.5910 C   0  0  0  0  0  0  0  0  0  0  0  0
  -30.4690  -18.6870   20.9750 C   0  0  0  0  0  0  0  0  0  0  0  0
  -27.3640  -18.0730   18.8450 C   0  0  0  0  0  1  0  0  0  0  0  0
  -31.5380  -18.1060   21.5700 F   0  0  0  0  0  0  0  0  0  0  0  0
  -29.7850  -16.2820   19.8100 C   0  0  0  0  0  0  0  0  0  0  0  0
  -29.2990  -15.9410   18.6890 N   0  0  0  0  0  0  0  0  0  0  0  0
  -29.5090  -14.9680   18.4990 H   0  0  0  0  0  0  0  0  0  0  0  0
  -30.6170  -15.0330   20.5090 C   0  0  0  0  0  0  0  0  0  0  0  0
  -30.5510  -12.6530   19.6460 C   0  0  0  0  0  2  0  0  0  0  0  0
  -29.6540  -12.5510   18.3890 C   0  0  0  0  0  2  0  0  0  0  0  0
  -28.1730  -12.3560   18.7750 C   0  0  0  0  0  2  0  0  0  0  0  0
  -27.7100  -13.3040   19.9130 C   0  0  0  0  0  3  0  0  0  0  0  0
  -28.7370  -13.3780   21.0610 C   0  0  0  0  0  2  0  0  0  0  0  0
  -30.0320  -13.7660   20.4820 N   0  0  0  0  0  0  0  0  0  0  0  0
  -31.8510  -15.0900   20.4840 O   0  0  0  0  0  0  0  0  0  0  0  0
  -25.3120  -13.8890   20.5800 C   0  0  0  0  0  0  0  0  0  0  0  0
  -24.2370  -13.1150   20.9130 C   0  0  0  0  0  0  0  0  0  0  0  0
  -24.7070  -11.7660   20.9100 C   0  0  0  0  0  0  0  0  0  0  0  0
  -26.3640  -13.0100   20.3810 N   0  0  0  0  0  0  0  0  0  0  0  0
  -26.0080  -11.7290   20.6500 N   0  0  0  0  0  0  0  0  0  0  0  0
  -23.9800  -10.5040   21.0810 C   0  0  0  0  0  0  0  0  0  0  0  0
  -24.3820   -9.5460   22.0380 C   0  0  0  0  0  3  0  0  0  0  0  0
  -23.6540   -8.3480   22.1970 C   0  0  0  0  0  3  0  0  0  0  0  0
  -22.5130   -8.1000   21.3980 C   0  0  0  0  0  0  0  0  0  0  0  0
  -22.1320   -9.0460   20.4310 C   0  0  0  0  0  3  0  0  0  0  0  0
  -22.8600  -10.2370   20.2690 C   0  0  0  0  0  3  0  0  0  0  0  0
  -21.7590   -6.9530   21.4660 O   0  0  0  0  0  0  0  0  0  0  0  0
  -21.6680   -6.2200   22.6220 C   0  0  0  0  0  0  0  0  0  0  0  0
  -21.1750   -6.7790   23.8210 C   0  0  0  0  0  3  0  0  0  0  0  0
  -21.0330   -5.9720   24.9680 C   0  0  0  0  0  3  0  0  0  0  0  0
  -21.3730   -4.6070   24.9150 C   0  0  0  0  0  0  0  0  0  0  0  0
  -21.8600   -4.0480   23.7200 C   0  0  0  0  0  3  0  0  0  0  0  0
  -22.0040   -4.8520   22.5760 C   0  0  0  0  0  0  0  0  0  0  0  0
  -22.4530   -4.3040   21.4210 F   0  0  0  0  0  0  0  0  0  0  0  0
  -21.2290   -3.8290   26.0130 F   0  0  0  0  0  0  0  0  0  0  0  0
  -22.8290  -13.5910   21.1230 C   0  0  0  0  0  0  0  0  0  0  0  0
  -22.0700  -12.9000   21.9660 N   0  0  0  0  0  0  0  0  0  0  0  0
  -22.4100  -14.6110   20.5760 O   0  0  0  0  0  0  0  0  0  0  0  0
  -22.4210  -12.0760   22.4300 H   0  0  0  0  0  0  0  0  0  0  0  0
  -21.1230  -13.2010   22.1500 H   0  0  0  0  0  0  0  0  0  0  0  0
  -25.4780  -15.2580   20.4020 N   0  0  0  0  0  0  0  0  0  0  0  0
  -24.7080  -15.9140   20.4830 H   0  0  0  0  0  0  0  0  0  0  0  0
  -26.3410  -15.6910   20.1030 H   0  0  0  0  0  0  0  0  0  0  0  0
  -28.5900  -23.4320   20.2380 C   0  0  0  0  0  3  0  0  0  0  0  0
  -29.0130  -22.3670   20.9390 N   0  0  0  0  0  0  0  0  0  0  0  0
  -28.0530  -24.8850   20.8340 C   0  0  0  0  0  2  0  0  0  0  0  0
  -28.2560  -26.2850   20.2220 O   0  0  0  0  0  0  0  0  0  0  0  0
  -24.5930  -31.9180   23.2380 C   0  0  0  0  0  0  0  0  0  0  0  0
  -27.1810  -27.2340   20.2220 C   0  0  0  0  0  0  0  0  0  0  0  0
  -23.3880  -30.5090   21.6110 C   0  0  0  0  0  3  0  0  0  0  0  0
  -24.8360  -28.9330   20.1920 C   0  0  0  0  0  0  0  0  0  0  0  0
  -25.9360  -30.7960   21.4260 C   0  0  0  0  0  2  0  0  0  0  0  0
  -26.0150  -29.4020   20.7860 C   0  0  0  0  0  0  0  0  0  0  0  0
  -27.1930  -28.5700   20.7810 C   0  0  0  0  0  3  0  0  0  0  0  0
  -25.9770  -26.8500   19.5970 C   0  0  0  0  0  3  0  0  0  0  0  0
  -24.8270  -27.6690   19.5820 C   0  0  0  0  0  3  0  0  0  0  0  0
  -23.6040  -29.8220   20.2370 C   0  0  0  0  0  2  0  0  0  0  0  0
  -24.6590  -31.0950   22.1470 N   0  0  0  0  0  0  0  0  0  0  0  0
  -23.5100  -32.2000   23.7720 O   0  0  0  0  0  0  0  0  0  0  0  0
  -22.7200  -29.5040   22.5830 C   0  0  0  0  0  0  0  0  0  0  0  0
  -21.3940  -29.3210   22.4560 N   0  0  0  0  0  0  0  0  0  0  0  0
  -23.3980  -28.8910   23.4120 O   0  0  0  0  0  0  0  0  0  0  0  0
  -20.9050  -29.8660   21.7620 H   0  0  0  0  0  0  0  0  0  0  0  0
  -18.0210  -28.1080   22.9750 C   0  0  0  0  0  0  0  0  0  0  0  0
  -20.5790  -28.3850   23.2350 C   0  0  0  0  0  3  0  0  0  0  0  0
  -20.6860  -26.9490   22.6700 C   0  0  0  0  0  2  0  0  0  0  0  0
  -19.5840  -26.6140   21.6600 C   0  0  0  0  0  2  0  0  0  0  0  0
  -18.2030  -26.7560   22.3060 C   0  0  0  0  0  2  0  0  0  0  0  0
  -19.1370  -28.8790   23.3960 C   0  0  0  0  0  0  0  0  0  0  0  0
  -18.9120  -30.1440   23.9830 C   0  0  0  0  0  3  0  0  0  0  0  0
  -17.6030  -30.6370   24.1510 C   0  0  0  0  0  3  0  0  0  0  0  0
  -16.5030  -29.8640   23.7450 C   0  0  0  0  0  3  0  0  0  0  0  0
  -16.7130  -28.6010   23.1630 C   0  0  0  0  0  3  0  0  0  0  0  0
  -25.8750  -32.5590   23.8540 C   0  0  0  0  0  3  0  0  0  0  0  0
  -26.3830  -31.8090   25.1470 C   0  0  1  0  0  0  0  0  0  0  0  0
  -25.2850  -31.5930   26.2140 C   0  0  0  0  0  1  0  0  0  0  0  0
  -26.9640  -30.4220   24.7850 C   0  0  0  0  0  1  0  0  0  0  0  0
  -27.5330  -32.6110   25.7990 C   0  0  0  0  0  1  0  0  0  0  0  0
  -25.5670  -33.9640   24.1640 N   0  0  0  0  0  0  0  0  0  0  0  0
  -25.9110  -35.0070   23.4000 C   0  0  0  0  0  0  0  0  0  0  0  0
  -26.5880  -34.8900   22.3760 O   0  0  0  0  0  0  0  0  0  0  0  0
  -24.9660  -34.1280   24.9590 H   0  0  0  0  0  0  0  0  0  0  0  0
  -24.2070  -36.8180   23.0030 C   0  0  0  0  0  1  0  0  0  0  0  0
  -25.4290  -36.4050   23.8400 C   0  0  0  0  0  3  0  0  0  0  0  0
  -27.5550  -37.2770   24.7080 C   0  0  0  0  0  1  0  0  0  0  0  0
  -26.4740  -37.4470   23.7400 N   0  0  0  0  0  0  0  0  0  0  0  0
  -26.0730  -38.3730   23.8710 H   0  0  0  0  0  0  0  0  0  0  0  0
  1  5  1  0
  3  6  2  0
  4  1  2  0
  4  3  1  0
  5 49  1  0
  5  2  2  0
  6  2  1  0
  6  8  1  0
  7  4  1  0
  9  3  1  0
  9 12  1  0
 10  9  2  0
 11 10  1  0
 13 18  1  0
 14 15  1  0
 14 13  1  0
 16 15  1  0
 16 23  1  0
 16 17  1  0
 18 12  1  0
 18 17  1  0
 19 12  2  0
 20 21  2  0
 21 40  1  0
 22 21  1  0
 22 25  1  0
 23 20  1  0
 23 24  1  0
 24 22  2  0
 25 26  1  0
 26 27  2  0
 28 31  1  0
 28 27  1  0
 29 28  2  0
 30 29  1  0
 30 25  2  0
 31 32  1  0
 32 33  1  0
 33 34  2  0
 35 34  1  0
 35 39  1  0
 36 35  2  0
 37 32  2  0
 37 36  1  0
 38 37  1  0
 40 41  1  0
 41 44  1  0
 41 43  1  0
 42 40  2  0
 45 46  1  0
 45 20  1  0
 47 45  1  0
 48 50  1  0
 48 49  2  0
 51 50  1  0
 52 63  2  0
 53 51  1  0
 53 58  1  0
 54 62  1  0
 54 64  1  0
 55 61  1  0
 55 57  1  0
 56 62  1  0
 57 56  1  0
 58 57  2  0
 59 53  2  0
 60 59  1  0
 60 55  2  0
 61 54  1  0
 62 52  1  0
 64 66  2  0
 65 64  1  0
 67 65  1  0
 68 77  2  0
 68 73  1  0
 69 65  1  0
 69 73  1  0
 70 69  1  0
 71 72  1  0
 71 70  1  0
 72 68  1  0
 73 74  2  0
 74 75  1  0
 76 75  2  0
 77 76  1  0
 78 52  1  0
 78 83  1  0
 78 79  1  0
 79 82  1  1
 79 80  1  0
 81 79  1  0
 83 86  1  0
 84 88  1  0
 84 83  1  0
 85 84  2  0
 88 87  1  0
 90 88  1  0
 90 91  1  0
 90 89  1  0
M  ISO  4   9 100  12 100  50 101  51 101
M  END
>  <TORSDO>  (14) 
F 19

>  <SCORE>  (14) 
-14.429

>  <name>  (14) 
13

>  <ligand_id>  (14) 
13

>  <original_smiles>  (14) 
[H]N=C(C(=O)N1C([H])([H])C([H])([H])C([H])([H])C([H])(n2nc(-c3c([H])c([H])c(Oc4c([H])c([H])c(F)c([H])c4F)c([H])c3[H])c(C(=O)N([H])[H])c2N([H])[H])C1([H])[H])c1c(F)c([H])c(N=C([H])C([H])([H])Oc2c([H])c([H])c3c(c2[H])C([H])([H])N(C(=O)C([H])(N([H])C(=O)C([H])(N([H])C([H])([H])[H])C([H])([H])[H])C(C([H])([H])[H])(C([H])([H])[H])C([H])([H])[H])C([H])(C(=O)N([H])C2([H])c4c([H])c([H])c([H])c([H])c4C([H])([H])C([H])([H])C2([H])[H])C3([H])[H])c([H])c1C([H])([H])[H]

>  <smiles>  (14) 
[H]N=C(C(=O)N1C([H])([H])C([H])([H])C([H])([H])C([H])(n2nc(-c3c([H])c([H])c(Oc4c([H])c([H])c(F)c([H])c4F)c([H])c3[H])c(C(=O)N([H])[H])c2N([H])[H])C1([H])[H])c1c(F)c([H])c(N=C([H])C([H])([H])Oc2c([H])c([H])c3c(c2[H])C([H])([H])N(C(=O)C([H])(N([H])C(=O)C([H])(N([H])C([H])([H])[H])C([H])([H])[H])C(C([H])([H])[H])(C([H])([H])[H])C([H])([H])[H])C([H])(C(=O)N([H])C2([H])c4c([H])c([H])c([H])c([H])c4C([H])([H])C([H])([H])C2([H])[H])C3([H])[H])c([H])c1C([H])([H])[H]

$$$$
14:0:0
     RDKit          3D

 97106  0  0  1  0  0  0  0  0999 V2000
  -28.8770  -24.2290   21.0490 C   0  0  0  0  0  0  0  0  0  0  0  0
  -28.4680  -25.5220   21.1330 C   0  0  0  0  0  3  0  0  0  0  0  0
  -29.7700  -21.0200   19.3720 C   0  0  0  0  0  0  0  0  0  0  0  0
  -28.8620  -23.2750   22.2190 C   0  0  0  0  0  2  0  0  0  0  0  0
  -29.3670  -23.4500   19.8400 C   0  0  0  0  0  2  0  0  0  0  0  0
  -29.0380  -21.8610   21.6320 C   0  0  0  0  0  2  0  0  0  0  0  0
  -29.3670  -22.0140   20.2130 N   0  0  0  0  0  0  0  0  0  0  0  0
  -30.2040  -21.2750   18.2450 O   0  0  0  0  0  0  0  0  0  0  0  0
  -30.8860  -18.9380   20.3160 C   0  0  0  0  0  3  0  0  0  0  0  0
  -30.9110  -17.5560   20.6250 C   0  0  0  0  0  3  0  0  0  0  0  0
  -28.5870  -18.7470   19.5910 C   0  0  0  0  0  3  0  0  0  0  0  0
  -29.7240  -19.5600   19.8040 C   0  0  0  0  0  0  0  0  0  0  0  0
  -29.7660  -16.7470   20.4260 C   0  0  0  0  0  0  0  0  0  0  0  0
  -28.5930  -17.3610   19.9230 C   0  0  0  0  0  0  0  0  0  0  0  0
  -30.4590  -14.3130   20.2700 C   0  0  0  0  0  0  0  0  0  0  0  0
  -30.1720  -12.1590   19.1100 C   0  0  0  0  0  2  0  0  0  0  0  0
  -29.2120  -12.4030   17.9260 C   0  0  0  0  0  2  0  0  0  0  0  0
  -27.7420  -12.2540   18.3660 C   0  0  0  0  0  2  0  0  0  0  0  0
  -27.4210  -13.0390   19.6660 C   0  0  0  0  0  3  0  0  0  0  0  0
  -28.4980  -12.7960   20.7490 C   0  0  0  0  0  2  0  0  0  0  0  0
  -29.8120  -13.1180   20.1660 N   0  0  0  0  0  0  0  0  0  0  0  0
  -31.6070  -14.4790   19.8540 O   0  0  0  0  0  0  0  0  0  0  0  0
  -29.6900  -15.3350   20.7000 N   0  0  0  0  0  0  0  0  0  0  0  0
  -28.7890  -15.0420   21.0460 H   0  0  0  0  0  0  0  0  0  0  0  0
  -25.0020  -13.5890   20.3510 C   0  0  0  0  0  0  0  0  0  0  0  0
  -23.9580  -12.7990   20.7470 C   0  0  0  0  0  0  0  0  0  0  0  0
  -24.4610  -11.4630   20.7580 C   0  0  0  0  0  0  0  0  0  0  0  0
  -26.0780  -12.7370   20.1580 N   0  0  0  0  0  0  0  0  0  0  0  0
  -25.7530  -11.4520   20.4560 N   0  0  0  0  0  0  0  0  0  0  0  0
  -23.7710  -10.1870   20.9810 C   0  0  0  0  0  0  0  0  0  0  0  0
  -24.2460   -9.2440   21.9180 C   0  0  0  0  0  3  0  0  0  0  0  0
  -23.5530   -8.0330   22.1280 C   0  0  0  0  0  3  0  0  0  0  0  0
  -22.3700   -7.7570   21.4010 C   0  0  0  0  0  0  0  0  0  0  0  0
  -21.9140   -8.6890   20.4530 C   0  0  0  0  0  3  0  0  0  0  0  0
  -22.6080   -9.8910   20.2410 C   0  0  0  0  0  3  0  0  0  0  0  0
  -21.6450   -6.5960   21.5210 O   0  0  0  0  0  0  0  0  0  0  0  0
  -21.5930   -5.8990   22.7010 C   0  0  0  0  0  0  0  0  0  0  0  0
  -21.0980   -6.4810   23.8890 C   0  0  0  0  0  3  0  0  0  0  0  0
  -20.9980   -5.7080   25.0620 C   0  0  0  0  0  3  0  0  0  0  0  0
  -21.3830   -4.3520   25.0500 C   0  0  0  0  0  0  0  0  0  0  0  0
  -21.8700   -3.7710   23.8660 C   0  0  0  0  0  3  0  0  0  0  0  0
  -21.9720   -4.5420   22.6960 C   0  0  0  0  0  0  0  0  0  0  0  0
  -22.4230   -3.9710   21.5520 F   0  0  0  0  0  0  0  0  0  0  0  0
  -21.2790   -3.6070   26.1750 F   0  0  0  0  0  0  0  0  0  0  0  0
  -22.5500  -13.2450   21.0090 C   0  0  0  0  0  0  0  0  0  0  0  0
  -21.8630  -12.5900   21.9390 N   0  0  0  0  0  0  0  0  0  0  0  0
  -22.0650  -14.2110   20.4220 O   0  0  0  0  0  0  0  0  0  0  0  0
  -22.2680  -11.8110   22.4370 H   0  0  0  0  0  0  0  0  0  0  0  0
  -20.9190  -12.8740   22.1590 H   0  0  0  0  0  0  0  0  0  0  0  0
  -25.1150  -14.9530   20.1190 N   0  0  0  0  0  0  0  0  0  0  0  0
  -24.3230  -15.5760   20.2240 H   0  0  0  0  0  0  0  0  0  0  0  0
  -25.9780  -15.4390   19.9060 H   0  0  0  0  0  0  0  0  0  0  0  0
  -27.5050  -16.5400   19.7170 O   0  0  0  0  0  0  0  0  0  0  0  0
  -26.3000  -17.1300   19.2350 C   0  0  0  0  0  2  0  0  0  0  0  0
  -24.0320  -16.6380   20.2270 C   0  0  0  0  0  2  0  0  0  0  0  0
  -25.2590  -17.1710   20.3310 C   0  0  0  0  0  3  0  0  0  0  0  0
  -28.4440  -26.4640   20.1210 O   0  0  0  0  0  0  0  0  0  0  0  0
  -24.4650  -31.6420   23.0590 C   0  0  0  0  0  0  0  0  0  0  0  0
  -27.3070  -27.2490   20.0690 C   0  0  0  0  0  0  0  0  0  0  0  0
  -23.3550  -30.2440   21.3470 C   0  0  0  0  0  3  0  0  0  0  0  0
  -24.8980  -28.7360   19.9750 C   0  0  0  0  0  0  0  0  0  0  0  0
  -25.8840  -30.6320   21.2720 C   0  0  0  0  0  2  0  0  0  0  0  0
  -26.0210  -29.2680   20.6240 C   0  0  0  0  0  0  0  0  0  0  0  0
  -27.2300  -28.5300   20.6710 C   0  0  0  0  0  3  0  0  0  0  0  0
  -26.1710  -26.7400   19.4070 C   0  0  0  0  0  3  0  0  0  0  0  0
  -24.9670  -27.4710   19.3670 C   0  0  0  0  0  3  0  0  0  0  0  0
  -23.6410  -29.5810   19.9720 C   0  0  0  0  0  2  0  0  0  0  0  0
  -24.5830  -30.8550   21.9500 N   0  0  0  0  0  0  0  0  0  0  0  0
  -23.3580  -31.8930   23.5540 O   0  0  0  0  0  0  0  0  0  0  0  0
  -22.6730  -29.2060   22.2680 C   0  0  0  0  0  0  0  0  0  0  0  0
  -21.3490  -29.0370   22.1120 N   0  0  0  0  0  0  0  0  0  0  0  0
  -23.3340  -28.5560   23.0820 O   0  0  0  0  0  0  0  0  0  0  0  0
  -20.8760  -29.6160   21.4330 H   0  0  0  0  0  0  0  0  0  0  0  0
  -17.9420  -27.9470   22.6120 C   0  0  0  0  0  0  0  0  0  0  0  0
  -20.5120  -28.0870   22.8440 C   0  0  0  0  0  3  0  0  0  0  0  0
  -20.5460  -26.6910   22.1790 C   0  0  0  0  0  2  0  0  0  0  0  0
  -19.4120  -26.4730   21.1720 C   0  0  0  0  0  2  0  0  0  0  0  0
  -18.0490  -26.6330   21.8540 C   0  0  0  0  0  2  0  0  0  0  0  0
  -19.0980  -28.6360   23.0650 C   0  0  0  0  0  0  0  0  0  0  0  0
  -18.9400  -29.8660   23.7370 C   0  0  0  0  0  3  0  0  0  0  0  0
  -17.6590  -30.4080   23.9580 C   0  0  0  0  0  3  0  0  0  0  0  0
  -16.5170  -29.7140   23.5240 C   0  0  0  0  0  3  0  0  0  0  0  0
  -16.6600  -28.4850   22.8550 C   0  0  0  0  0  3  0  0  0  0  0  0
  -25.7130  -32.2860   23.7420 C   0  0  0  0  0  3  0  0  0  0  0  0
  -26.2010  -31.4950   25.0200 C   0  0  1  0  0  0  0  0  0  0  0  0
  -25.0750  -31.2110   26.0400 C   0  0  0  0  0  1  0  0  0  0  0  0
  -26.8270  -30.1420   24.6140 C   0  0  0  0  0  1  0  0  0  0  0  0
  -27.3100  -32.2960   25.7410 C   0  0  0  0  0  1  0  0  0  0  0  0
  -25.3650  -33.6700   24.0900 N   0  0  0  0  0  0  0  0  0  0  0  0
  -25.6870  -34.7430   23.3570 C   0  0  0  0  0  0  0  0  0  0  0  0
  -26.3780  -34.6750   22.3360 O   0  0  0  0  0  0  0  0  0  0  0  0
  -24.7530  -33.7960   24.8830 H   0  0  0  0  0  0  0  0  0  0  0  0
  -23.9270  -36.5030   22.9960 C   0  0  0  0  0  1  0  0  0  0  0  0
  -25.1580  -36.1100   23.8270 C   0  0  0  0  0  3  0  0  0  0  0  0
  -27.2440  -37.0360   24.7330 C   0  0  0  0  0  1  0  0  0  0  0  0
  -26.1660  -37.1880   23.7580 N   0  0  0  0  0  0  0  0  0  0  0  0
  -25.7340  -38.0980   23.9030 H   0  0  0  0  0  0  0  0  0  0  0  0
  1  2  2  0
  1  4  1  0
  3 12  1  0
  3  7  1  0
  5  7  1  0
  5  1  1  0
  6  4  1  0
  7  6  1  0
  8  3  2  0
  9 10  1  0
 11 12  1  0
 11 14  2  0
 12  9  2  0
 13 10  2  0
 13 23  1  0
 14 13  1  0
 15 23  1  0
 16 21  1  0
 17 18  1  0
 17 16  1  0
 19 18  1  0
 19 28  1  0
 19 20  1  0
 21 15  1  0
 21 20  1  0
 22 15  2  0
 23 24  1  0
 25 26  2  0
 26 27  1  0
 26 45  1  0
 27 30  1  0
 28 25  1  0
 28 29  1  0
 29 27  2  0
 30 31  1  0
 31 32  2  0
 33 36  1  0
 33 32  1  0
 34 33  2  0
 35 34  1  0
 35 30  2  0
 36 37  1  0
 37 38  1  0
 38 39  2  0
 40 39  1  0
 40 44  1  0
 41 40  2  0
 42 37  2  0
 42 41  1  0
 43 42  1  0
 45 46  1  0
 46 49  1  0
 46 48  1  0
 47 45  2  0
 50 51  1  0
 50 25  1  0
 52 50  1  0
 53 14  1  0
 54 53  1  0
 54 56  1  0
 55 56  2  0
 57  2  1  0
 58 69  2  0
 59 57  1  0
 59 64  1  0
 60 68  1  0
 60 70  1  0
 61 63  1  0
 62 68  1  0
 63 64  2  0
 63 62  1  0
 65 59  2  0
 66 65  1  0
 66 61  2  0
 67 61  1  0
 67 60  1  0
 68 58  1  0
 70 72  2  0
 71 70  1  0
 73 71  1  0
 74 83  2  0
 74 79  1  0
 75 71  1  0
 75 79  1  0
 76 75  1  0
 77 78  1  0
 77 76  1  0
 78 74  1  0
 79 80  2  0
 80 81  1  0
 82 81  2  0
 83 82  1  0
 84 58  1  0
 84 89  1  0
 84 85  1  0
 85 88  1  1
 85 86  1  0
 87 85  1  0
 89 92  1  0
 90 94  1  0
 90 89  1  0
 91 90  2  0
 94 93  1  0
 96 94  1  0
 96 97  1  0
 96 95  1  0
M  ISO  4   2 101  15 100  23 100  57 101
M  END
>  <TORSDO>  (15) 
F 20

>  <SCORE>  (15) 
-12.307

>  <name>  (15) 
14

>  <ligand_id>  (15) 
14

>  <original_smiles>  (15) 
[H]C([H])=C([H])C([H])([H])Oc1c([H])c(C(=O)N2C([H])([H])C(=C([H])Oc3c([H])c([H])c4c(c3[H])C([H])([H])N(C(=O)C([H])(N([H])C(=O)C([H])(N([H])C([H])([H])[H])C([H])([H])[H])C(C([H])([H])[H])(C([H])([H])[H])C([H])([H])[H])C([H])(C(=O)N([H])C3([H])c5c([H])c([H])c([H])c([H])c5C([H])([H])C([H])([H])C3([H])[H])C4([H])[H])C([H])([H])C2([H])[H])c([H])c([H])c1N([H])C(=O)N1C([H])([H])C([H])([H])C([H])([H])C([H])(n2nc(-c3c([H])c([H])c(Oc4c([H])c([H])c(F)c([H])c4F)c([H])c3[H])c(C(=O)N([H])[H])c2N([H])[H])C1([H])[H]

>  <smiles>  (15) 
[H]C([H])=C([H])C([H])([H])Oc1c([H])c(C(=O)N2C([H])([H])C(=C([H])Oc3c([H])c([H])c4c(c3[H])C([H])([H])N(C(=O)C([H])(N([H])C(=O)C([H])(N([H])C([H])([H])[H])C([H])([H])[H])C(C([H])([H])[H])(C([H])([H])[H])C([H])([H])[H])C([H])(C(=O)N([H])C3([H])c5c([H])c([H])c([H])c([H])c5C([H])([H])C([H])([H])C3([H])[H])C4([H])[H])C([H])([H])C2([H])[H])c([H])c([H])c1N([H])C(=O)N1C([H])([H])C([H])([H])C([H])([H])C([H])(n2nc(-c3c([H])c([H])c(Oc4c([H])c([H])c(F)c([H])c4F)c([H])c3[H])c(C(=O)N([H])[H])c2N([H])[H])C1([H])[H]

$$$$
15:0:0
     RDKit          3D

 95104  0  0  1  0  0  0  0  0999 V2000
  -29.4780  -19.9790   20.7190 C   0  0  0  0  0  3  0  0  0  0  0  0
  -29.9590  -21.4670   18.8600 C   0  0  0  0  0  3  0  0  0  0  0  0
  -30.7600  -19.1410   18.8220 C   0  0  0  0  0  0  0  0  0  0  0  0
  -30.1750  -18.8550   20.0910 C   0  0  0  0  0  0  0  0  0  0  0  0
  -29.3430  -21.3120   20.1200 C   0  0  0  0  0  0  0  0  0  0  0  0
  -30.6890  -20.4280   18.2360 C   0  0  0  0  0  0  0  0  0  0  0  0
  -31.3330  -17.5290   16.9950 C   0  0  0  0  0  3  0  0  0  0  0  0
  -31.6400  -18.1690   18.1270 C   0  0  0  0  0  3  0  0  0  0  0  0
  -32.4820  -16.7470   16.4160 C   0  0  0  0  0  3  0  0  0  0  0  0
  -33.0810  -17.9300   18.5080 C   0  0  0  0  0  3  0  0  0  0  0  0
  -33.6560  -17.0300   17.3870 C   0  0  0  0  0  3  0  0  0  0  0  0
  -30.5700  -17.4780   20.7020 C   0  0  0  0  0  2  0  0  0  0  0  0
  -30.2040  -16.1850   20.3380 C   0  0  0  0  0  2  0  0  0  0  0  0
  -30.9930  -14.9190   20.6110 C   0  0  0  0  0  0  0  0  0  0  0  0
  -30.8180  -12.5840   19.7400 C   0  0  0  0  0  2  0  0  0  0  0  0
  -29.9590  -12.6070   18.4540 C   0  0  0  0  0  2  0  0  0  0  0  0
  -28.4610  -12.4630   18.7920 C   0  0  0  0  0  2  0  0  0  0  0  0
  -28.0180  -13.4120   19.9340 C   0  0  0  0  0  3  0  0  0  0  0  0
  -29.0100  -13.3920   21.1160 C   0  0  0  0  0  2  0  0  0  0  0  0
  -30.3440  -13.7000   20.5880 N   0  0  0  0  0  0  0  0  0  0  0  0
  -32.2220  -14.9260   20.5050 O   0  0  0  0  0  0  0  0  0  0  0  0
  -25.6190  -14.0700   20.5290 C   0  0  0  0  0  0  0  0  0  0  0  0
  -24.5150  -13.3290   20.8510 C   0  0  0  0  0  0  0  0  0  0  0  0
  -24.9460  -11.9650   20.8630 C   0  0  0  0  0  0  0  0  0  0  0  0
  -26.6500  -13.1610   20.3650 N   0  0  0  0  0  0  0  0  0  0  0  0
  -26.2510  -11.8900   20.6300 N   0  0  0  0  0  0  0  0  0  0  0  0
  -24.1770  -10.7250   21.0280 C   0  0  0  0  0  0  0  0  0  0  0  0
  -24.5400   -9.7550   21.9860 C   0  0  0  0  0  3  0  0  0  0  0  0
  -23.7750   -8.5810   22.1370 C   0  0  0  0  0  3  0  0  0  0  0  0
  -22.6320   -8.3670   21.3290 C   0  0  0  0  0  0  0  0  0  0  0  0
  -22.2860   -9.3270   20.3640 C   0  0  0  0  0  3  0  0  0  0  0  0
  -23.0520  -10.4950   20.2090 C   0  0  0  0  0  3  0  0  0  0  0  0
  -21.8410   -7.2460   21.3910 O   0  0  0  0  0  0  0  0  0  0  0  0
  -21.7180   -6.5160   22.5450 C   0  0  0  0  0  0  0  0  0  0  0  0
  -21.2650   -7.0990   23.7490 C   0  0  0  0  0  3  0  0  0  0  0  0
  -21.0870   -6.2960   24.8940 C   0  0  0  0  0  3  0  0  0  0  0  0
  -21.3500   -4.9130   24.8350 C   0  0  0  0  0  0  0  0  0  0  0  0
  -21.7940   -4.3330   23.6350 C   0  0  0  0  0  3  0  0  0  0  0  0
  -21.9730   -5.1310   22.4900 C   0  0  0  0  0  0  0  0  0  0  0  0
  -22.3810   -4.5630   21.3290 F   0  0  0  0  0  0  0  0  0  0  0  0
  -21.1730   -4.1400   25.9320 F   0  0  0  0  0  0  0  0  0  0  0  0
  -23.1190  -13.8450   21.0420 C   0  0  0  0  0  0  0  0  0  0  0  0
  -22.3380  -13.1920   21.8970 N   0  0  0  0  0  0  0  0  0  0  0  0
  -22.7300  -14.8610   20.4700 O   0  0  0  0  0  0  0  0  0  0  0  0
  -22.6690  -12.3740   22.3880 H   0  0  0  0  0  0  0  0  0  0  0  0
  -21.3960  -13.5110   22.0680 H   0  0  0  0  0  0  0  0  0  0  0  0
  -25.8300  -15.4340   20.3390 N   0  0  0  0  0  0  0  0  0  0  0  0
  -25.0790  -16.1120   20.4050 H   0  0  0  0  0  0  0  0  0  0  0  0
  -26.7160  -15.8440   20.0730 H   0  0  0  0  0  0  0  0  0  0  0  0
  -28.7060  -23.7260   20.3320 C   0  0  0  0  0  3  0  0  0  0  0  0
  -28.6330  -22.4510   20.7160 N   0  0  0  0  0  0  0  0  0  0  0  0
  -27.8500  -24.9840   20.8430 C   0  0  0  0  0  2  0  0  0  0  0  0
  -28.1650  -26.3830   20.3700 O   0  0  0  0  0  0  0  0  0  0  0  0
  -24.5770  -31.9730   23.2560 C   0  0  0  0  0  0  0  0  0  0  0  0
  -27.0990  -27.3020   20.3020 C   0  0  0  0  0  0  0  0  0  0  0  0
  -23.3490  -30.5730   21.6360 C   0  0  0  0  0  3  0  0  0  0  0  0
  -24.7730  -28.9780   20.2310 C   0  0  0  0  0  0  0  0  0  0  0  0
  -25.8930  -30.8500   21.4400 C   0  0  0  0  0  2  0  0  0  0  0  0
  -25.9540  -29.4570   20.8170 C   0  0  0  0  0  0  0  0  0  0  0  0
  -27.1240  -28.6340   20.8340 C   0  0  0  0  0  3  0  0  0  0  0  0
  -25.9050  -26.8860   19.6830 C   0  0  0  0  0  3  0  0  0  0  0  0
  -24.7520  -27.6980   19.6550 C   0  0  0  0  0  3  0  0  0  0  0  0
  -23.5520  -29.8770   20.2650 C   0  0  0  0  0  2  0  0  0  0  0  0
  -24.6270  -31.1480   22.1680 N   0  0  0  0  0  0  0  0  0  0  0  0
  -23.4980  -32.2720   23.7890 O   0  0  0  0  0  0  0  0  0  0  0  0
  -22.6730  -29.5800   22.6090 C   0  0  0  0  0  0  0  0  0  0  0  0
  -21.3460  -29.4040   22.4760 N   0  0  0  0  0  0  0  0  0  0  0  0
  -23.3410  -28.9660   23.4480 O   0  0  0  0  0  0  0  0  0  0  0  0
  -20.8650  -29.9490   21.7750 H   0  0  0  0  0  0  0  0  0  0  0  0
  -17.9610  -28.2280   22.9770 C   0  0  0  0  0  0  0  0  0  0  0  0
  -20.5190  -28.4860   23.2610 C   0  0  0  0  0  3  0  0  0  0  0  0
  -20.6210  -27.0430   22.7180 C   0  0  0  0  0  2  0  0  0  0  0  0
  -19.5260  -26.7010   21.7010 C   0  0  0  0  0  2  0  0  0  0  0  0
  -18.1380  -26.8650   22.3270 C   0  0  0  0  0  2  0  0  0  0  0  0
  -19.0800  -28.9960   23.3990 C   0  0  0  0  0  0  0  0  0  0  0  0
  -18.8620  -30.2710   23.9650 C   0  0  0  0  0  3  0  0  0  0  0  0
  -17.5570  -30.7810   24.1120 C   0  0  0  0  0  3  0  0  0  0  0  0
  -16.4540  -30.0110   23.7050 C   0  0  0  0  0  3  0  0  0  0  0  0
  -16.6560  -28.7350   23.1460 C   0  0  0  0  0  3  0  0  0  0  0  0
  -25.8700  -32.5960   23.8680 C   0  0  0  0  0  3  0  0  0  0  0  0
  -25.5700  -33.9990   24.1960 N   0  0  0  0  0  0  0  0  0  0  0  0
  -25.9060  -35.0470   23.4340 C   0  0  0  0  0  0  0  0  0  0  0  0
  -26.5670  -34.9380   22.3980 O   0  0  0  0  0  0  0  0  0  0  0  0
  -24.9900  -34.1610   25.0040 H   0  0  0  0  0  0  0  0  0  0  0  0
  -24.1880  -36.8500   23.0840 C   0  0  0  0  0  1  0  0  0  0  0  0
  -25.4310  -36.4410   23.8900 C   0  0  0  0  0  3  0  0  0  0  0  0
  -27.5790  -37.3060   24.7060 C   0  0  0  0  0  1  0  0  0  0  0  0
  -26.4690  -37.4870   23.7730 N   0  0  0  0  0  0  0  0  0  0  0  0
  -26.0720  -38.4080   23.9320 H   0  0  0  0  0  0  0  0  0  0  0  0
  -26.3840  -31.8280   25.1470 C   0  0  1  0  0  0  0  0  0  0  0  0
  -25.2900  -31.5860   26.2130 C   0  0  0  0  0  1  0  0  0  0  0  0
  -26.9760  -30.4520   24.7600 C   0  0  0  0  0  1  0  0  0  0  0  0
  -27.5290  -32.6270   25.8130 C   0  0  0  0  0  1  0  0  0  0  0  0
  -31.7770  -21.9660   16.7400 C   0  0  0  0  0  1  0  0  0  0  0  0
  -31.3890  -20.6340   17.0660 O   0  0  0  0  0  0  0  0  0  0  0  0
  2  5  2  0
  3  4  1  0
  4 12  1  0
  4  1  2  0
  5 51  1  0
  5  1  1  0
  6  3  2  0
  6  2  1  0
  7  8  1  0
  8 10  1  0
  8  3  1  0
  9  7  2  0
  9 11  1  0
 11 10  2  0
 13 14  1  0
 13 12  1  0
 15 20  1  0
 16 17  1  0
 16 15  1  0
 18 17  1  0
 18 25  1  0
 18 19  1  0
 20 14  1  0
 20 19  1  0
 21 14  2  0
 22 23  2  0
 23 24  1  0
 23 42  1  0
 24 27  1  0
 25 22  1  0
 25 26  1  0
 26 24  2  0
 27 28  1  0
 28 29  2  0
 30 33  1  0
 30 29  1  0
 31 30  2  0
 32 31  1  0
 32 27  2  0
 33 34  1  0
 34 35  1  0
 35 36  2  0
 37 36  1  0
 37 41  1  0
 38 37  2  0
 39 34  2  0
 39 38  1  0
 40 39  1  0
 42 43  1  0
 43 46  1  0
 43 45  1  0
 44 42  2  0
 47 48  1  0
 47 22  1  0
 49 47  1  0
 50 51  2  0
 50 52  1  0
 53 52  1  0
 54 65  2  0
 55 53  1  0
 55 60  1  0
 56 64  1  0
 56 66  1  0
 57 63  1  0
 57 59  1  0
 58 64  1  0
 59 60  2  0
 59 58  1  0
 61 55  2  0
 62 61  1  0
 62 57  2  0
 63 56  1  0
 64 54  1  0
 66 68  2  0
 67 66  1  0
 69 67  1  0
 70 79  2  0
 70 75  1  0
 71 67  1  0
 71 75  1  0
 72 71  1  0
 73 74  1  0
 73 72  1  0
 74 70  1  0
 75 76  2  0
 76 77  1  0
 78 77  2  0
 79 78  1  0
 80 54  1  0
 80 81  1  0
 80 90  1  0
 81 84  1  0
 82 86  1  0
 82 81  1  0
 83 82  2  0
 86 85  1  0
 88 86  1  0
 88 89  1  0
 88 87  1  0
 90 93  1  1
 90 91  1  0
 92 90  1  0
 94 95  1  0
 95  6  1  0
M  ISO  4  13 100  14 100  52 101  53 101
M  END
>  <TORSDO>  (16) 
F 21

>  <SCORE>  (16) 
-13.324

>  <name>  (16) 
15

>  <ligand_id>  (16) 
15

>  <original_smiles>  (16) 
[H]C(=Nc1c([H])c(OC([H])([H])[H])c(C2=C([H])C([H])([H])C([H])([H])C2([H])[H])c(C([H])=C([H])C(=O)N2C([H])([H])C([H])([H])C([H])([H])C([H])(n3nc(-c4c([H])c([H])c(Oc5c([H])c([H])c(F)c([H])c5F)c([H])c4[H])c(C(=O)N([H])[H])c3N([H])[H])C2([H])[H])c1[H])C([H])([H])Oc1c([H])c([H])c2c(c1[H])C([H])([H])N(C(=O)C([H])(N([H])C(=O)C([H])(N([H])C([H])([H])[H])C([H])([H])[H])C(C([H])([H])[H])(C([H])([H])[H])C([H])([H])[H])C([H])(C(=O)N([H])C1([H])c3c([H])c([H])c([H])c([H])c3C([H])([H])C([H])([H])C1([H])[H])C2([H])[H]

>  <smiles>  (16) 
[H]C(=Nc1c([H])c(OC([H])([H])[H])c(C2=C([H])C([H])([H])C([H])([H])C2([H])[H])c(C([H])=C([H])C(=O)N2C([H])([H])C([H])([H])C([H])([H])C([H])(n3nc(-c4c([H])c([H])c(Oc5c([H])c([H])c(F)c([H])c5F)c([H])c4[H])c(C(=O)N([H])[H])c3N([H])[H])C2([H])[H])c1[H])C([H])([H])Oc1c([H])c([H])c2c(c1[H])C([H])([H])N(C(=O)C([H])(N([H])C(=O)C([H])(N([H])C([H])([H])[H])C([H])([H])[H])C(C([H])([H])[H])(C([H])([H])[H])C([H])([H])[H])C([H])(C(=O)N([H])C1([H])c3c([H])c([H])c([H])c([H])c3C([H])([H])C([H])([H])C1([H])[H])C2([H])[H]

$$$$
16:0:0
     RDKit          3D

 96105  0  0  1  0  0  0  0  0999 V2000
  -28.7060  -20.6520   19.5750 C   0  0  0  0  0  3  0  0  0  0  0  0
  -30.1390  -21.0120   21.4690 C   0  0  0  0  0  3  0  0  0  0  0  0
  -29.1350  -19.2830   19.4950 C   0  0  0  0  0  0  0  0  0  0  0  0
  -30.5680  -19.6540   21.4170 C   0  0  0  0  0  0  0  0  0  0  0  0
  -30.0990  -18.7560   20.4120 C   0  0  0  0  0  0  0  0  0  0  0  0
  -29.1970  -21.5520   20.5560 C   0  0  0  0  0  0  0  0  0  0  0  0
  -31.5660  -19.1910   22.4650 C   0  0  0  0  0  1  0  0  0  0  0  0
  -27.8240  -23.0400   21.8430 C   0  0  0  0  0  0  0  0  0  0  0  0
  -28.0560  -24.3660   22.5470 C   0  0  0  0  0  2  0  0  0  0  0  0
  -29.3360  -24.8590   21.8740 C   0  0  0  0  0  2  0  0  0  0  0  0
  -29.2620  -24.2310   20.4740 C   0  0  0  0  0  3  0  0  0  0  0  0
  -28.6290  -22.8900   20.7690 N   0  0  0  0  0  0  0  0  0  0  0  0
  -26.9910  -22.2230   22.2480 O   0  0  0  0  0  0  0  0  0  0  0  0
  -28.3780  -25.2060   19.5670 C   0  0  0  0  0  2  0  0  0  0  0  0
  -28.5480  -26.6790   19.6860 O   0  0  0  0  0  0  0  0  0  0  0  0
  -24.6260  -31.7250   23.0150 C   0  0  0  0  0  0  0  0  0  0  0  0
  -27.4050  -27.4930   19.6620 C   0  0  0  0  0  0  0  0  0  0  0  0
  -23.4770  -30.4010   21.2770 C   0  0  0  0  0  3  0  0  0  0  0  0
  -24.9850  -29.0140   19.7490 C   0  0  0  0  0  0  0  0  0  0  0  0
  -26.0030  -30.8250   21.1290 C   0  0  0  0  0  2  0  0  0  0  0  0
  -26.1320  -29.5000   20.3880 C   0  0  0  0  0  0  0  0  0  0  0  0
  -27.3440  -28.7500   20.3400 C   0  0  0  0  0  3  0  0  0  0  0  0
  -26.2390  -27.0780   18.9770 C   0  0  0  0  0  3  0  0  0  0  0  0
  -25.0400  -27.8090   19.0350 C   0  0  0  0  0  3  0  0  0  0  0  0
  -23.7150  -29.8340   19.8540 C   0  0  0  0  0  2  0  0  0  0  0  0
  -24.7200  -30.9970   21.8650 N   0  0  0  0  0  0  0  0  0  0  0  0
  -23.5330  -31.9260   23.5630 O   0  0  0  0  0  0  0  0  0  0  0  0
  -22.8510  -29.2950   22.1590 C   0  0  0  0  0  0  0  0  0  0  0  0
  -21.5260  -29.1020   22.0390 N   0  0  0  0  0  0  0  0  0  0  0  0
  -23.5540  -28.6180   22.9130 O   0  0  0  0  0  0  0  0  0  0  0  0
  -21.0160  -29.7040   21.4080 H   0  0  0  0  0  0  0  0  0  0  0  0
  -18.1790  -27.8090   22.4910 C   0  0  0  0  0  0  0  0  0  0  0  0
  -20.7370  -28.0910   22.7430 C   0  0  0  0  0  3  0  0  0  0  0  0
  -20.8540  -26.7120   22.0530 C   0  0  0  0  0  2  0  0  0  0  0  0
  -19.7410  -26.4520   21.0330 C   0  0  0  0  0  2  0  0  0  0  0  0
  -18.3670  -26.5210   21.7070 C   0  0  0  0  0  2  0  0  0  0  0  0
  -19.2920  -28.5530   22.9640 C   0  0  0  0  0  0  0  0  0  0  0  0
  -19.0620  -29.7600   23.6600 C   0  0  0  0  0  3  0  0  0  0  0  0
  -17.7520  -30.2230   23.8870 C   0  0  0  0  0  3  0  0  0  0  0  0
  -16.6540  -29.4740   23.4300 C   0  0  0  0  0  3  0  0  0  0  0  0
  -16.8690  -28.2680   22.7380 C   0  0  0  0  0  3  0  0  0  0  0  0
  -25.8850  -32.3580   23.6840 C   0  0  0  0  0  3  0  0  0  0  0  0
  -26.4010  -31.5410   24.9320 C   0  0  1  0  0  0  0  0  0  0  0  0
  -25.3030  -31.2410   25.9780 C   0  0  0  0  0  1  0  0  0  0  0  0
  -27.0100  -30.1890   24.4890 C   0  0  0  0  0  1  0  0  0  0  0  0
  -27.5320  -32.3240   25.6390 C   0  0  0  0  0  1  0  0  0  0  0  0
  -25.5360  -33.7310   24.0740 N   0  0  0  0  0  0  0  0  0  0  0  0
  -25.8580  -34.8270   23.3730 C   0  0  0  0  0  0  0  0  0  0  0  0
  -26.5500  -34.7880   22.3520 O   0  0  0  0  0  0  0  0  0  0  0  0
  -24.9230  -33.8340   24.8690 H   0  0  0  0  0  0  0  0  0  0  0  0
  -24.0870  -36.5890   23.0790 C   0  0  0  0  0  1  0  0  0  0  0  0
  -25.3300  -36.1810   23.8860 C   0  0  0  0  0  3  0  0  0  0  0  0
  -27.4300  -37.0840   24.7810 C   0  0  0  0  0  1  0  0  0  0  0  0
  -26.3350  -37.2640   23.8320 N   0  0  0  0  0  0  0  0  0  0  0  0
  -25.9030  -38.1660   24.0130 H   0  0  0  0  0  0  0  0  0  0  0  0
  -28.0670  -18.8410   17.2590 C   0  0  0  0  0  2  0  0  0  0  0  0
  -28.6190  -18.4220   18.4110 C   0  0  0  0  0  3  0  0  0  0  0  0
  -30.7990  -17.3520   20.1980 C   0  0  0  0  0  2  0  0  0  0  0  0
  -30.8700  -14.8460   20.3890 C   0  0  0  0  0  0  0  0  0  0  0  0
  -30.6030  -12.5600   19.4710 C   0  0  0  0  0  2  0  0  0  0  0  0
  -29.7110  -12.6200   18.2140 C   0  0  0  0  0  2  0  0  0  0  0  0
  -28.2260  -12.5000   18.6050 C   0  0  0  0  0  2  0  0  0  0  0  0
  -27.8340  -13.4460   19.7710 C   0  0  0  0  0  3  0  0  0  0  0  0
  -28.8570  -13.3930   20.9290 C   0  0  0  0  0  2  0  0  0  0  0  0
  -30.1820  -13.6630   20.3620 N   0  0  0  0  0  0  0  0  0  0  0  0
  -32.0580  -14.8850   20.0610 O   0  0  0  0  0  0  0  0  0  0  0  0
  -30.1820  -16.0230   20.5470 N   0  0  0  0  0  0  0  0  0  0  0  0
  -29.1990  -15.9880   20.7700 H   0  0  0  0  0  0  0  0  0  0  0  0
  -25.4390  -14.0940   20.4310 C   0  0  0  0  0  0  0  0  0  0  0  0
  -24.3510  -13.3450   20.7880 C   0  0  0  0  0  0  0  0  0  0  0  0
  -24.7900  -11.9860   20.7910 C   0  0  0  0  0  0  0  0  0  0  0  0
  -26.4720  -13.1930   20.2350 N   0  0  0  0  0  0  0  0  0  0  0  0
  -26.0870  -11.9200   20.5140 N   0  0  0  0  0  0  0  0  0  0  0  0
  -24.0360  -10.7400   20.9840 C   0  0  0  0  0  0  0  0  0  0  0  0
  -24.4400   -9.7690   21.9270 C   0  0  0  0  0  3  0  0  0  0  0  0
  -23.6880   -8.5890   22.1080 C   0  0  0  0  0  3  0  0  0  0  0  0
  -22.5170   -8.3690   21.3430 C   0  0  0  0  0  0  0  0  0  0  0  0
  -22.1320   -9.3280   20.3880 C   0  0  0  0  0  3  0  0  0  0  0  0
  -22.8850  -10.5000   20.2060 C   0  0  0  0  0  3  0  0  0  0  0  0
  -21.7370   -7.2410   21.4330 O   0  0  0  0  0  0  0  0  0  0  0  0
  -21.6740   -6.5000   22.5850 C   0  0  0  0  0  0  0  0  0  0  0  0
  -21.2640   -7.0630   23.8130 C   0  0  0  0  0  3  0  0  0  0  0  0
  -21.1470   -6.2480   24.9570 C   0  0  0  0  0  3  0  0  0  0  0  0
  -21.4310   -4.8720   24.8740 C   0  0  0  0  0  0  0  0  0  0  0  0
  -21.8340   -4.3080   23.6510 C   0  0  0  0  0  3  0  0  0  0  0  0
  -21.9520   -5.1200   22.5090 C   0  0  0  0  0  0  0  0  0  0  0  0
  -22.3210   -4.5670   21.3280 F   0  0  0  0  0  0  0  0  0  0  0  0
  -21.3110   -4.0870   25.9710 F   0  0  0  0  0  0  0  0  0  0  0  0
  -22.9570  -13.8520   21.0180 C   0  0  0  0  0  0  0  0  0  0  0  0
  -22.2030  -13.1960   21.8940 N   0  0  0  0  0  0  0  0  0  0  0  0
  -22.5440  -14.8640   20.4560 O   0  0  0  0  0  0  0  0  0  0  0  0
  -22.5480  -12.3770   22.3710 H   0  0  0  0  0  0  0  0  0  0  0  0
  -21.2650  -13.5190   22.0900 H   0  0  0  0  0  0  0  0  0  0  0  0
  -25.6310  -15.4590   20.2350 N   0  0  0  0  0  0  0  0  0  0  0  0
  -24.8720  -16.1260   20.3150 H   0  0  0  0  0  0  0  0  0  0  0  0
  -26.4910  -15.8770   19.9040 H   0  0  0  0  0  0  0  0  0  0  0  0
  1  6  1  0
  3  1  2  0
  3  5  1  0
  4  2  1  0
  4  7  1  0
  5  4  2  0
  6 12  1  0
  6  2  2  0
  8 13  2  0
  8  9  1  0
 10  9  1  0
 11 14  1  0
 11 12  1  0
 11 10  1  0
 12  8  1  0
 14 15  1  0
 16 27  2  0
 17 15  1  0
 17 22  1  0
 18 26  1  0
 18 28  1  0
 19 25  1  0
 19 21  1  0
 20 26  1  0
 21 20  1  0
 22 21  2  0
 23 24  1  0
 23 17  2  0
 24 19  2  0
 25 18  1  0
 26 16  1  0
 28 30  2  0
 29 28  1  0
 31 29  1  0
 32 41  2  0
 32 37  1  0
 33 29  1  0
 33 37  1  0
 34 33  1  0
 35 36  1  0
 35 34  1  0
 36 32  1  0
 37 38  2  0
 38 39  1  0
 40 39  2  0
 41 40  1  0
 42 16  1  0
 42 47  1  0
 42 43  1  0
 43 46  1  1
 43 44  1  0
 45 43  1  0
 47 50  1  0
 48 52  1  0
 48 47  1  0
 49 48  2  0
 52 51  1  0
 54 52  1  0
 54 55  1  0
 54 53  1  0
 56 57  2  0
 57  3  1  0
 58  5  1  0
 58 67  1  0
 59 67  1  0
 60 65  1  0
 61 62  1  0
 61 60  1  0
 63 62  1  0
 63 72  1  0
 63 64  1  0
 65 59  1  0
 65 64  1  0
 66 59  2  0
 67 68  1  0
 69 70  2  0
 70 71  1  0
 70 89  1  0
 71 74  1  0
 72 69  1  0
 72 73  1  0
 73 71  2  0
 74 75  1  0
 75 76  2  0
 77 80  1  0
 77 76  1  0
 78 77  2  0
 79 78  1  0
 79 74  2  0
 80 81  1  0
 81 82  1  0
 82 83  2  0
 84 83  1  0
 84 88  1  0
 85 84  2  0
 86 81  2  0
 86 85  1  0
 87 86  1  0
 89 90  1  0
 90 93  1  0
 90 92  1  0
 91 89  2  0
 94 95  1  0
 94 69  1  0
 96 94  1  0
M  ISO  4  14 101  15 101  59 100  67 100
M  END
>  <TORSDO>  (17) 
F 20

>  <SCORE>  (17) 
-12.969

>  <name>  (17) 
16

>  <ligand_id>  (17) 
16

>  <original_smiles>  (17) 
[H]C([H])=C([H])c1c([H])c(N2C(=O)C([H])([H])C([H])([H])C2([H])C([H])([H])Oc2c([H])c([H])c3c(c2[H])C([H])([H])N(C(=O)C([H])(N([H])C(=O)C([H])(N([H])C([H])([H])[H])C([H])([H])[H])C(C([H])([H])[H])(C([H])([H])[H])C([H])([H])[H])C([H])(C(=O)N([H])C2([H])c4c([H])c([H])c([H])c([H])c4C([H])([H])C([H])([H])C2([H])[H])C3([H])[H])c([H])c(C([H])([H])[H])c1C([H])([H])N([H])C(=O)N1C([H])([H])C([H])([H])C([H])([H])C([H])(n2nc(-c3c([H])c([H])c(Oc4c([H])c([H])c(F)c([H])c4F)c([H])c3[H])c(C(=O)N([H])[H])c2N([H])[H])C1([H])[H]

>  <smiles>  (17) 
[H]C([H])=C([H])c1c([H])c(N2C(=O)C([H])([H])C([H])([H])C2([H])C([H])([H])Oc2c([H])c([H])c3c(c2[H])C([H])([H])N(C(=O)C([H])(N([H])C(=O)C([H])(N([H])C([H])([H])[H])C([H])([H])[H])C(C([H])([H])[H])(C([H])([H])[H])C([H])([H])[H])C([H])(C(=O)N([H])C2([H])c4c([H])c([H])c([H])c([H])c4C([H])([H])C([H])([H])C2([H])[H])C3([H])[H])c([H])c(C([H])([H])[H])c1C([H])([H])N([H])C(=O)N1C([H])([H])C([H])([H])C([H])([H])C([H])(n2nc(-c3c([H])c([H])c(Oc4c([H])c([H])c(F)c([H])c4F)c([H])c3[H])c(C(=O)N([H])[H])c2N([H])[H])C1([H])[H]

$$$$
17:0:0
     RDKit          3D

 91 99  0  0  1  0  0  0  0  0999 V2000
  -29.1670  -21.6690   20.3430 C   0  0  0  0  0  3  0  0  0  0  0  0
  -29.0000  -20.4710   20.7810 N   0  0  0  0  0  0  0  0  0  0  0  0
  -29.8020  -19.3410   18.7060 C   0  0  0  0  0  3  0  0  0  0  0  0
  -30.3190  -16.9580   18.7540 C   0  0  0  0  0  3  0  0  0  0  0  0
  -29.5160  -18.0720   20.7660 C   0  0  0  0  0  3  0  0  0  0  0  0
  -30.2380  -18.1740   18.0520 C   0  0  0  0  0  0  0  0  0  0  0  0
  -29.4490  -19.3220   20.0810 C   0  0  0  0  0  0  0  0  0  0  0  0
  -29.9600  -16.8830   20.1210 C   0  0  0  0  0  0  0  0  0  0  0  0
  -30.6120  -18.2150   16.5810 C   0  0  0  0  0  1  0  0  0  0  0  0
  -30.7200  -14.5440   20.4730 C   0  0  0  0  0  0  0  0  0  0  0  0
  -30.4510  -12.3620   19.3800 C   0  0  0  0  0  2  0  0  0  0  0  0
  -29.5390  -12.5730   18.1520 C   0  0  0  0  0  2  0  0  0  0  0  0
  -28.0560  -12.4450   18.5500 C   0  0  0  0  0  2  0  0  0  0  0  0
  -27.6950  -13.2880   19.8020 C   0  0  0  0  0  3  0  0  0  0  0  0
  -28.7260  -13.0720   20.9350 C   0  0  0  0  0  2  0  0  0  0  0  0
  -30.0640  -13.3560   20.3950 N   0  0  0  0  0  0  0  0  0  0  0  0
  -31.8860  -14.6850   20.0920 O   0  0  0  0  0  0  0  0  0  0  0  0
  -29.9660  -15.6170   20.8090 N   0  0  0  0  0  0  0  0  0  0  0  0
  -29.1400  -15.4130   21.3500 H   0  0  0  0  0  0  0  0  0  0  0  0
  -25.2820  -13.9090   20.4450 C   0  0  0  0  0  0  0  0  0  0  0  0
  -24.2050  -13.1430   20.8020 C   0  0  0  0  0  0  0  0  0  0  0  0
  -24.6650  -11.7910   20.8060 C   0  0  0  0  0  0  0  0  0  0  0  0
  -26.3310  -13.0230   20.2540 N   0  0  0  0  0  0  0  0  0  0  0  0
  -25.9630  -11.7460   20.5290 N   0  0  0  0  0  0  0  0  0  0  0  0
  -23.9350  -10.5320   21.0010 C   0  0  0  0  0  0  0  0  0  0  0  0
  -24.3530   -9.5740   21.9500 C   0  0  0  0  0  3  0  0  0  0  0  0
  -23.6230   -8.3800   22.1330 C   0  0  0  0  0  3  0  0  0  0  0  0
  -22.4600   -8.1350   21.3640 C   0  0  0  0  0  0  0  0  0  0  0  0
  -22.0610   -9.0810   20.4030 C   0  0  0  0  0  3  0  0  0  0  0  0
  -22.7930  -10.2670   20.2200 C   0  0  0  0  0  3  0  0  0  0  0  0
  -21.7030   -6.9920   21.4540 O   0  0  0  0  0  0  0  0  0  0  0  0
  -21.6460   -6.2550   22.6080 C   0  0  0  0  0  0  0  0  0  0  0  0
  -21.2220   -6.8190   23.8320 C   0  0  0  0  0  3  0  0  0  0  0  0
  -21.1120   -6.0090   24.9800 C   0  0  0  0  0  3  0  0  0  0  0  0
  -21.4150   -4.6360   24.9050 C   0  0  0  0  0  0  0  0  0  0  0  0
  -21.8330   -4.0730   23.6870 C   0  0  0  0  0  3  0  0  0  0  0  0
  -21.9450   -4.8790   22.5410 C   0  0  0  0  0  0  0  0  0  0  0  0
  -22.3270   -4.3270   21.3640 F   0  0  0  0  0  0  0  0  0  0  0  0
  -21.3020   -3.8560   26.0050 F   0  0  0  0  0  0  0  0  0  0  0  0
  -22.8010  -13.6260   21.0320 C   0  0  0  0  0  0  0  0  0  0  0  0
  -22.0530  -12.9470   21.8930 N   0  0  0  0  0  0  0  0  0  0  0  0
  -22.3760  -14.6410   20.4820 O   0  0  0  0  0  0  0  0  0  0  0  0
  -22.4080  -12.1270   22.3620 H   0  0  0  0  0  0  0  0  0  0  0  0
  -21.1100  -13.2530   22.0880 H   0  0  0  0  0  0  0  0  0  0  0  0
  -25.4540  -15.2760   20.2500 N   0  0  0  0  0  0  0  0  0  0  0  0
  -24.6870  -15.9340   20.3330 H   0  0  0  0  0  0  0  0  0  0  0  0
  -26.3130  -15.7080   19.9360 H   0  0  0  0  0  0  0  0  0  0  0  0
  -28.6690  -22.9250   21.0640 C   0  0  0  0  0  2  0  0  0  0  0  0
  -28.7070  -24.2250   20.2050 C   0  0  0  0  0  2  0  0  0  0  0  0
  -28.2700  -25.4940   20.9790 C   0  0  0  0  0  2  0  0  0  0  0  0
  -28.3470  -26.7000   20.1950 O   0  0  0  0  0  0  0  0  0  0  0  0
  -24.5550  -31.9060   23.2450 C   0  0  0  0  0  0  0  0  0  0  0  0
  -27.1940  -27.4550   20.1840 C   0  0  0  0  0  0  0  0  0  0  0  0
  -23.3460  -30.4980   21.6070 C   0  0  0  0  0  3  0  0  0  0  0  0
  -24.8010  -28.9580   20.1830 C   0  0  0  0  0  0  0  0  0  0  0  0
  -25.8700  -30.8630   21.4010 C   0  0  0  0  0  2  0  0  0  0  0  0
  -25.9590  -29.4890   20.7660 C   0  0  0  0  0  0  0  0  0  0  0  0
  -27.1620  -28.7460   20.7610 C   0  0  0  0  0  3  0  0  0  0  0  0
  -26.0240  -26.9380   19.5920 C   0  0  0  0  0  3  0  0  0  0  0  0
  -24.8290  -27.6820   19.5900 C   0  0  0  0  0  3  0  0  0  0  0  0
  -23.5550  -29.8140   20.2290 C   0  0  0  0  0  2  0  0  0  0  0  0
  -24.6080  -31.1040   22.1440 N   0  0  0  0  0  0  0  0  0  0  0  0
  -23.4750  -32.1790   23.7860 O   0  0  0  0  0  0  0  0  0  0  0  0
  -22.6980  -29.4800   22.5730 C   0  0  0  0  0  0  0  0  0  0  0  0
  -21.3740  -29.2920   22.4450 N   0  0  0  0  0  0  0  0  0  0  0  0
  -23.3830  -28.8620   23.3920 O   0  0  0  0  0  0  0  0  0  0  0  0
  -20.8830  -29.8450   21.7550 H   0  0  0  0  0  0  0  0  0  0  0  0
  -18.0040  -28.0840   22.9360 C   0  0  0  0  0  0  0  0  0  0  0  0
  -20.5590  -28.3560   23.2180 C   0  0  0  0  0  3  0  0  0  0  0  0
  -20.6710  -26.9220   22.6510 C   0  0  0  0  0  2  0  0  0  0  0  0
  -19.5760  -26.5870   21.6330 C   0  0  0  0  0  2  0  0  0  0  0  0
  -18.1910  -26.7300   22.2700 C   0  0  0  0  0  2  0  0  0  0  0  0
  -19.1170  -28.8530   23.3660 C   0  0  0  0  0  0  0  0  0  0  0  0
  -18.8900  -30.1200   23.9480 C   0  0  0  0  0  3  0  0  0  0  0  0
  -17.5820  -30.6170   24.1030 C   0  0  0  0  0  3  0  0  0  0  0  0
  -16.4840  -29.8430   23.6890 C   0  0  0  0  0  3  0  0  0  0  0  0
  -16.6950  -28.5790   23.1110 C   0  0  0  0  0  3  0  0  0  0  0  0
  -25.8410  -32.5390   23.8600 C   0  0  0  0  0  3  0  0  0  0  0  0
  -26.3620  -31.7730   25.1390 C   0  0  1  0  0  0  0  0  0  0  0  0
  -25.2720  -31.5420   26.2120 C   0  0  0  0  0  1  0  0  0  0  0  0
  -26.9400  -30.3940   24.7480 C   0  0  0  0  0  1  0  0  0  0  0  0
  -27.5170  -32.5680   25.7930 C   0  0  0  0  0  1  0  0  0  0  0  0
  -25.5360  -33.9390   24.1820 N   0  0  0  0  0  0  0  0  0  0  0  0
  -25.8780  -34.9860   23.4170 C   0  0  0  0  0  0  0  0  0  0  0  0
  -26.5530  -34.8740   22.3900 O   0  0  0  0  0  0  0  0  0  0  0  0
  -24.9370  -34.1010   24.9780 H   0  0  0  0  0  0  0  0  0  0  0  0
  -24.1610  -36.7840   23.0360 C   0  0  0  0  0  1  0  0  0  0  0  0
  -25.3910  -36.3790   23.8630 C   0  0  0  0  0  3  0  0  0  0  0  0
  -27.5220  -37.2550   24.7100 C   0  0  0  0  0  1  0  0  0  0  0  0
  -26.4310  -37.4260   23.7560 N   0  0  0  0  0  0  0  0  0  0  0  0
  -26.0270  -38.3490   23.8970 H   0  0  0  0  0  0  0  0  0  0  0  0
  1  2  2  0
  1 48  1  0
  3  7  1  0
  4  8  2  0
  6  3  2  0
  6  4  1  0
  7  5  2  0
  7  2  1  0
  8  5  1  0
  8 18  1  0
  9  6  1  0
 10 18  1  0
 11 16  1  0
 12 13  1  0
 12 11  1  0
 14 13  1  0
 14 23  1  0
 14 15  1  0
 16 10  1  0
 16 15  1  0
 17 10  2  0
 18 19  1  0
 20 21  2  0
 21 22  1  0
 21 40  1  0
 22 25  1  0
 23 20  1  0
 23 24  1  0
 24 22  2  0
 25 26  1  0
 26 27  2  0
 28 31  1  0
 28 27  1  0
 29 28  2  0
 30 29  1  0
 30 25  2  0
 31 32  1  0
 32 33  1  0
 33 34  2  0
 35 34  1  0
 35 39  1  0
 36 35  2  0
 37 32  2  0
 37 36  1  0
 38 37  1  0
 40 41  1  0
 41 44  1  0
 41 43  1  0
 42 40  2  0
 45 46  1  0
 45 20  1  0
 47 45  1  0
 49 50  1  0
 49 48  1  0
 51 50  1  0
 52 63  2  0
 53 51  1  0
 53 58  1  0
 54 62  1  0
 54 64  1  0
 55 61  1  0
 55 57  1  0
 56 62  1  0
 57 56  1  0
 58 57  2  0
 59 53  2  0
 60 59  1  0
 60 55  2  0
 61 54  1  0
 62 52  1  0
 64 66  2  0
 65 64  1  0
 67 65  1  0
 68 77  2  0
 68 73  1  0
 69 65  1  0
 69 73  1  0
 70 69  1  0
 71 72  1  0
 71 70  1  0
 72 68  1  0
 73 74  2  0
 74 75  1  0
 76 75  2  0
 77 76  1  0
 78 52  1  0
 78 83  1  0
 78 79  1  0
 79 82  1  1
 79 80  1  0
 81 79  1  0
 83 86  1  0
 84 88  1  0
 84 83  1  0
 85 84  2  0
 88 87  1  0
 90 88  1  0
 90 91  1  0
 90 89  1  0
M  ISO  4  10 100  18 100  50 101  51 101
M  END
>  <TORSDO>  (18) 
F 20

>  <SCORE>  (18) 
-13.855

>  <name>  (18) 
17

>  <ligand_id>  (18) 
17

>  <original_smiles>  (18) 
[H]C(=Nc1c([H])c(N([H])C(=O)N2C([H])([H])C([H])([H])C([H])([H])C([H])(n3nc(-c4c([H])c([H])c(Oc5c([H])c([H])c(F)c([H])c5F)c([H])c4[H])c(C(=O)N([H])[H])c3N([H])[H])C2([H])[H])c([H])c(C([H])([H])[H])c1[H])C([H])([H])C([H])([H])C([H])([H])Oc1c([H])c([H])c2c(c1[H])C([H])([H])N(C(=O)C([H])(N([H])C(=O)C([H])(N([H])C([H])([H])[H])C([H])([H])[H])C(C([H])([H])[H])(C([H])([H])[H])C([H])([H])[H])C([H])(C(=O)N([H])C1([H])c3c([H])c([H])c([H])c([H])c3C([H])([H])C([H])([H])C1([H])[H])C2([H])[H]

>  <smiles>  (18) 
[H]C(=Nc1c([H])c(N([H])C(=O)N2C([H])([H])C([H])([H])C([H])([H])C([H])(n3nc(-c4c([H])c([H])c(Oc5c([H])c([H])c(F)c([H])c5F)c([H])c4[H])c(C(=O)N([H])[H])c3N([H])[H])C2([H])[H])c([H])c(C([H])([H])[H])c1[H])C([H])([H])C([H])([H])C([H])([H])Oc1c([H])c([H])c2c(c1[H])C([H])([H])N(C(=O)C([H])(N([H])C(=O)C([H])(N([H])C([H])([H])[H])C([H])([H])[H])C(C([H])([H])[H])(C([H])([H])[H])C([H])([H])[H])C([H])(C(=O)N([H])C1([H])c3c([H])c([H])c([H])c([H])c3C([H])([H])C([H])([H])C1([H])[H])C2([H])[H]

$$$$
18:0:0
     RDKit          3D

 97106  0  0  1  0  0  0  0  0999 V2000
  -28.8030  -23.6410   20.5140 C   0  0  0  0  0  0  0  0  0  0  0  0
  -28.7220  -22.3210   20.0610 C   0  0  0  0  0  0  0  0  0  0  0  0
  -29.6050  -23.8690   21.7390 C   0  0  0  0  0  0  0  0  0  0  0  0
  -30.4350  -22.6950   22.2780 C   0  0  0  0  0  2  0  0  0  0  0  0
  -29.7480  -21.3270   22.0820 C   0  0  0  0  0  2  0  0  0  0  0  0
  -27.8420  -21.9960   18.8610 C   0  0  0  0  0  1  0  0  0  0  0  0
  -29.2900  -21.1490   20.7020 N   0  0  0  0  0  0  0  0  0  0  0  0
  -29.6570  -24.9470   22.3380 O   0  0  0  0  0  0  0  0  0  0  0  0
  -29.5920  -18.5340   20.7920 C   0  0  0  0  0  3  0  0  0  0  0  0
  -30.1780  -19.7970   18.8360 C   0  0  0  0  0  3  0  0  0  0  0  0
  -29.6480  -19.8450   20.1420 C   0  0  0  0  0  0  0  0  0  0  0  0
  -30.0400  -17.3020   20.1520 C   0  0  0  0  0  0  0  0  0  0  0  0
  -30.5370  -17.4950   18.8370 C   0  0  0  0  0  0  0  0  0  0  0  0
  -30.6010  -18.6780   18.2100 N   0  0  0  0  0  0  0  0  0  0  0  0
  -30.6400  -14.7730   20.5050 C   0  0  0  0  0  0  0  0  0  0  0  0
  -30.4490  -12.4860   19.5320 C   0  0  0  0  0  2  0  0  0  0  0  0
  -29.5560  -12.5640   18.2740 C   0  0  0  0  0  2  0  0  0  0  0  0
  -28.0720  -12.4070   18.6530 C   0  0  0  0  0  2  0  0  0  0  0  0
  -27.6640  -13.3040   19.8530 C   0  0  0  0  0  3  0  0  0  0  0  0
  -28.6840  -13.2200   21.0110 C   0  0  0  0  0  2  0  0  0  0  0  0
  -30.0050  -13.5510   20.4640 N   0  0  0  0  0  0  0  0  0  0  0  0
  -31.8280  -14.8550   20.1810 O   0  0  0  0  0  0  0  0  0  0  0  0
  -29.8920  -15.9230   20.7220 N   0  0  0  0  0  0  0  0  0  0  0  0
  -29.0090  -15.7500   21.1790 H   0  0  0  0  0  0  0  0  0  0  0  0
  -25.2520  -13.9080   20.4810 C   0  0  0  0  0  0  0  0  0  0  0  0
  -24.1730  -13.1420   20.8290 C   0  0  0  0  0  0  0  0  0  0  0  0
  -24.6360  -11.7900   20.8440 C   0  0  0  0  0  0  0  0  0  0  0  0
  -26.3030  -13.0240   20.3000 N   0  0  0  0  0  0  0  0  0  0  0  0
  -25.9370  -11.7470   20.5810 N   0  0  0  0  0  0  0  0  0  0  0  0
  -23.9030  -10.5320   21.0340 C   0  0  0  0  0  0  0  0  0  0  0  0
  -24.3140   -9.5720   21.9850 C   0  0  0  0  0  3  0  0  0  0  0  0
  -23.5800   -8.3800   22.1640 C   0  0  0  0  0  3  0  0  0  0  0  0
  -22.4200   -8.1380   21.3900 C   0  0  0  0  0  0  0  0  0  0  0  0
  -22.0270   -9.0850   20.4280 C   0  0  0  0  0  3  0  0  0  0  0  0
  -22.7620  -10.2690   20.2480 C   0  0  0  0  0  3  0  0  0  0  0  0
  -21.6590   -6.9960   21.4760 O   0  0  0  0  0  0  0  0  0  0  0  0
  -21.5980   -6.2580   22.6310 C   0  0  0  0  0  0  0  0  0  0  0  0
  -21.1800   -6.8230   23.8550 C   0  0  0  0  0  3  0  0  0  0  0  0
  -21.0640   -6.0120   25.0010 C   0  0  0  0  0  3  0  0  0  0  0  0
  -21.3560   -4.6370   24.9240 C   0  0  0  0  0  0  0  0  0  0  0  0
  -21.7680   -4.0720   23.7050 C   0  0  0  0  0  3  0  0  0  0  0  0
  -21.8850   -4.8800   22.5600 C   0  0  0  0  0  0  0  0  0  0  0  0
  -22.2620   -4.3260   21.3830 F   0  0  0  0  0  0  0  0  0  0  0  0
  -21.2380   -3.8560   26.0230 F   0  0  0  0  0  0  0  0  0  0  0  0
  -22.7670  -13.6240   21.0400 C   0  0  0  0  0  0  0  0  0  0  0  0
  -22.0090  -12.9490   21.8970 N   0  0  0  0  0  0  0  0  0  0  0  0
  -22.3480  -14.6360   20.4800 O   0  0  0  0  0  0  0  0  0  0  0  0
  -22.3600  -12.1310   22.3730 H   0  0  0  0  0  0  0  0  0  0  0  0
  -21.0650  -13.2560   22.0810 H   0  0  0  0  0  0  0  0  0  0  0  0
  -25.4220  -15.2740   20.2790 N   0  0  0  0  0  0  0  0  0  0  0  0
  -24.6510  -15.9290   20.3450 H   0  0  0  0  0  0  0  0  0  0  0  0
  -26.2770  -15.7030   19.9490 H   0  0  0  0  0  0  0  0  0  0  0  0
  -30.9520  -16.4520   18.0300 N   0  0  0  0  0  0  0  0  0  0  0  0
  -31.4010  -15.7070   18.5570 H   0  0  0  0  0  0  0  0  0  0  0  0
  -31.5010  -16.7320   17.2280 H   0  0  0  0  0  0  0  0  0  0  0  0
  -27.9980  -24.8880   19.9050 C   0  0  0  0  0  2  0  0  0  0  0  0
  -28.2760  -26.3460   20.1990 O   0  0  0  0  0  0  0  0  0  0  0  0
  -24.6140  -31.8730   23.1880 C   0  0  0  0  0  0  0  0  0  0  0  0
  -27.1970  -27.2660   20.1170 C   0  0  0  0  0  0  0  0  0  0  0  0
  -23.4010  -30.4720   21.5620 C   0  0  0  0  0  3  0  0  0  0  0  0
  -24.8430  -28.9270   20.1170 C   0  0  0  0  0  0  0  0  0  0  0  0
  -25.9440  -30.7780   21.3650 C   0  0  0  0  0  2  0  0  0  0  0  0
  -26.0200  -29.3970   20.7150 C   0  0  0  0  0  0  0  0  0  0  0  0
  -27.1970  -28.5780   20.7090 C   0  0  0  0  0  3  0  0  0  0  0  0
  -26.0000  -26.8880   19.4630 C   0  0  0  0  0  3  0  0  0  0  0  0
  -24.8390  -27.6810   19.4800 C   0  0  0  0  0  3  0  0  0  0  0  0
  -23.6070  -29.8030   20.1790 C   0  0  0  0  0  2  0  0  0  0  0  0
  -24.6720  -31.0600   22.0940 N   0  0  0  0  0  0  0  0  0  0  0  0
  -23.5320  -32.1510   23.7300 O   0  0  0  0  0  0  0  0  0  0  0  0
  -22.7470  -29.4530   22.5280 C   0  0  0  0  0  0  0  0  0  0  0  0
  -21.4190  -29.2780   22.4180 N   0  0  0  0  0  0  0  0  0  0  0  0
  -23.4340  -28.8250   23.3370 O   0  0  0  0  0  0  0  0  0  0  0  0
  -20.9230  -29.8370   21.7370 H   0  0  0  0  0  0  0  0  0  0  0  0
  -18.0460  -28.0790   22.9580 C   0  0  0  0  0  0  0  0  0  0  0  0
  -20.6080  -28.3410   23.1990 C   0  0  0  0  0  3  0  0  0  0  0  0
  -20.7040  -26.9090   22.6250 C   0  0  0  0  0  2  0  0  0  0  0  0
  -19.5920  -26.5830   21.6230 C   0  0  0  0  0  2  0  0  0  0  0  0
  -18.2170  -26.7290   22.2820 C   0  0  0  0  0  2  0  0  0  0  0  0
  -19.1690  -28.8420   23.3750 C   0  0  0  0  0  0  0  0  0  0  0  0
  -18.9550  -30.1050   23.9690 C   0  0  0  0  0  3  0  0  0  0  0  0
  -17.6520  -30.6050   24.1490 C   0  0  0  0  0  3  0  0  0  0  0  0
  -16.5440  -29.8380   23.7480 C   0  0  0  0  0  3  0  0  0  0  0  0
  -16.7420  -28.5770   23.1580 C   0  0  0  0  0  3  0  0  0  0  0  0
  -25.8980  -32.5120   23.7980 C   0  0  0  0  0  3  0  0  0  0  0  0
  -26.4380  -31.7340   25.0610 C   0  0  1  0  0  0  0  0  0  0  0  0
  -25.3620  -31.4810   26.1430 C   0  0  0  0  0  1  0  0  0  0  0  0
  -27.0250  -30.3630   24.6520 C   0  0  0  0  0  1  0  0  0  0  0  0
  -27.5930  -32.5320   25.7120 C   0  0  0  0  0  1  0  0  0  0  0  0
  -25.5800  -33.9050   24.1480 N   0  0  0  0  0  0  0  0  0  0  0  0
  -25.8950  -34.9710   23.4000 C   0  0  0  0  0  0  0  0  0  0  0  0
  -26.5550  -34.8850   22.3610 O   0  0  0  0  0  0  0  0  0  0  0  0
  -24.9920  -34.0440   24.9570 H   0  0  0  0  0  0  0  0  0  0  0  0
  -24.1520  -36.7580   23.0850 C   0  0  0  0  0  1  0  0  0  0  0  0
  -25.4020  -36.3500   23.8810 C   0  0  0  0  0  3  0  0  0  0  0  0
  -27.5380  -37.2360   24.7060 C   0  0  0  0  0  1  0  0  0  0  0  0
  -26.4270  -37.4110   23.7760 N   0  0  0  0  0  0  0  0  0  0  0  0
  -26.0160  -38.3260   23.9400 H   0  0  0  0  0  0  0  0  0  0  0  0
  1  3  1  0
  2  1  2  0
  2  7  1  0
  3  4  1  0
  3  8  2  0
  5  4  1  0
  6  2  1  0
  7  5  1  0
 10 11  1  0
 11  7  1  0
 11  9  2  0
 12 23  1  0
 12  9  1  0
 13 12  2  0
 14 10  2  0
 14 13  1  0
 15 23  1  0
 16 21  1  0
 17 18  1  0
 17 16  1  0
 19 18  1  0
 19 28  1  0
 19 20  1  0
 21 15  1  0
 21 20  1  0
 22 15  2  0
 23 24  1  0
 25 26  2  0
 26 27  1  0
 26 45  1  0
 27 30  1  0
 28 25  1  0
 28 29  1  0
 29 27  2  0
 30 31  1  0
 31 32  2  0
 33 36  1  0
 33 32  1  0
 34 33  2  0
 35 34  1  0
 35 30  2  0
 36 37  1  0
 37 38  1  0
 38 39  2  0
 40 39  1  0
 40 44  1  0
 41 40  2  0
 42 37  2  0
 42 41  1  0
 43 42  1  0
 45 46  1  0
 46 49  1  0
 46 48  1  0
 47 45  2  0
 50 51  1  0
 50 25  1  0
 52 50  1  0
 53 54  1  0
 53 13  1  0
 55 53  1  0
 56 57  1  0
 56  1  1  0
 58 69  2  0
 59 57  1  0
 59 64  1  0
 60 68  1  0
 60 70  1  0
 61 67  1  0
 61 63  1  0
 62 68  1  0
 63 62  1  0
 64 63  2  0
 65 66  1  0
 65 59  2  0
 66 61  2  0
 67 60  1  0
 68 58  1  0
 70 72  2  0
 71 70  1  0
 73 71  1  0
 74 83  2  0
 74 79  1  0
 75 71  1  0
 75 79  1  0
 76 75  1  0
 77 78  1  0
 77 76  1  0
 78 74  1  0
 79 80  2  0
 80 81  1  0
 82 81  2  0
 83 82  1  0
 84 58  1  0
 84 89  1  0
 84 85  1  0
 85 88  1  1
 85 86  1  0
 87 85  1  0
 89 92  1  0
 90 94  1  0
 90 89  1  0
 91 90  2  0
 94 93  1  0
 96 94  1  0
 96 97  1  0
 96 95  1  0
M  ISO  4  15 100  23 100  56 101  57 101
M  END
>  <TORSDO>  (19) 
F 19

>  <SCORE>  (19) 
-14.943

>  <name>  (19) 
18

>  <ligand_id>  (19) 
18

>  <original_smiles>  (19) 
[H]c1nc(N([H])[H])c(N([H])C(=O)N2C([H])([H])C([H])([H])C([H])([H])C([H])(n3nc(-c4c([H])c([H])c(Oc5c([H])c([H])c(F)c([H])c5F)c([H])c4[H])c(C(=O)N([H])[H])c3N([H])[H])C2([H])[H])c([H])c1N1C(C([H])([H])[H])=C(C([H])([H])Oc2c([H])c([H])c3c(c2[H])C([H])([H])N(C(=O)C([H])(N([H])C(=O)C([H])(N([H])C([H])([H])[H])C([H])([H])[H])C(C([H])([H])[H])(C([H])([H])[H])C([H])([H])[H])C([H])(C(=O)N([H])C2([H])c4c([H])c([H])c([H])c([H])c4C([H])([H])C([H])([H])C2([H])[H])C3([H])[H])C(=O)C([H])([H])C1([H])[H]

>  <smiles>  (19) 
[H]c1nc(N([H])[H])c(N([H])C(=O)N2C([H])([H])C([H])([H])C([H])([H])C([H])(n3nc(-c4c([H])c([H])c(Oc5c([H])c([H])c(F)c([H])c5F)c([H])c4[H])c(C(=O)N([H])[H])c3N([H])[H])C2([H])[H])c([H])c1N1C(C([H])([H])[H])=C(C([H])([H])Oc2c([H])c([H])c3c(c2[H])C([H])([H])N(C(=O)C([H])(N([H])C(=O)C([H])(N([H])C([H])([H])[H])C([H])([H])[H])C(C([H])([H])[H])(C([H])([H])[H])C([H])([H])[H])C([H])(C(=O)N([H])C2([H])c4c([H])c([H])c([H])c([H])c4C([H])([H])C([H])([H])C2([H])[H])C3([H])[H])C(=O)C([H])([H])C1([H])[H]

$$$$
19:0:0
     RDKit          3D

 95103  0  0  1  0  0  0  0  0999 V2000
  -31.5890  -17.6250   20.5270 C   0  0  0  0  0  3  0  0  0  0  0  0
  -29.1840  -17.6450   20.8820 C   0  0  0  0  0  3  0  0  0  0  0  0
  -31.6230  -19.0440   20.5750 C   0  0  0  0  0  0  0  0  0  0  0  0
  -30.3750  -16.9120   20.6880 C   0  0  0  0  0  0  0  0  0  0  0  0
  -29.1990  -19.0540   20.9260 C   0  0  0  0  0  0  0  0  0  0  0  0
  -30.4130  -19.7610   20.7710 C   0  0  0  0  0  0  0  0  0  0  0  0
  -30.9000  -14.5340   19.9850 C   0  0  0  0  0  0  0  0  0  0  0  0
  -30.5260  -12.3640   18.8650 C   0  0  0  0  0  2  0  0  0  0  0  0
  -29.5400  -12.5670   17.6950 C   0  0  0  0  0  2  0  0  0  0  0  0
  -28.0780  -12.4830   18.1780 C   0  0  0  0  0  2  0  0  0  0  0  0
  -27.8130  -13.3560   19.4340 C   0  0  0  0  0  3  0  0  0  0  0  0
  -28.8950  -13.0950   20.5060 C   0  0  0  0  0  2  0  0  0  0  0  0
  -30.2130  -13.3630   19.8980 N   0  0  0  0  0  0  0  0  0  0  0  0
  -31.9800  -14.7200   19.4150 O   0  0  0  0  0  0  0  0  0  0  0  0
  -30.2600  -15.4860   20.6940 N   0  0  0  0  0  0  0  0  0  0  0  0
  -29.4320  -15.1300   21.1460 H   0  0  0  0  0  0  0  0  0  0  0  0
  -25.4640  -14.0680   20.2140 C   0  0  0  0  0  0  0  0  0  0  0  0
  -24.3810  -13.3420   20.6350 C   0  0  0  0  0  0  0  0  0  0  0  0
  -24.7900  -11.9740   20.6060 C   0  0  0  0  0  0  0  0  0  0  0  0
  -26.4660  -13.1440   19.9610 N   0  0  0  0  0  0  0  0  0  0  0  0
  -26.0650  -11.8810   20.2510 N   0  0  0  0  0  0  0  0  0  0  0  0
  -24.0260  -10.7430   20.8430 C   0  0  0  0  0  0  0  0  0  0  0  0
  -24.4630   -9.7680   21.7660 C   0  0  0  0  0  3  0  0  0  0  0  0
  -23.7020   -8.6000   21.9880 C   0  0  0  0  0  3  0  0  0  0  0  0
  -22.4890   -8.4000   21.2880 C   0  0  0  0  0  0  0  0  0  0  0  0
  -22.0690   -9.3630   20.3550 C   0  0  0  0  0  3  0  0  0  0  0  0
  -22.8300  -10.5220   20.1300 C   0  0  0  0  0  3  0  0  0  0  0  0
  -21.6970   -7.2840   21.4210 O   0  0  0  0  0  0  0  0  0  0  0  0
  -21.6910   -6.5390   22.5730 C   0  0  0  0  0  0  0  0  0  0  0  0
  -21.3850   -7.1090   23.8270 C   0  0  0  0  0  3  0  0  0  0  0  0
  -21.3220   -6.2930   24.9740 C   0  0  0  0  0  3  0  0  0  0  0  0
  -21.5540   -4.9090   24.8680 C   0  0  0  0  0  0  0  0  0  0  0  0
  -21.8540   -4.3380   23.6190 C   0  0  0  0  0  3  0  0  0  0  0  0
  -21.9190   -5.1520   22.4740 C   0  0  0  0  0  0  0  0  0  0  0  0
  -22.1880   -4.5930   21.2690 F   0  0  0  0  0  0  0  0  0  0  0  0
  -21.4860   -4.1240   25.9690 F   0  0  0  0  0  0  0  0  0  0  0  0
  -23.0140  -13.8750   20.9520 C   0  0  0  0  0  0  0  0  0  0  0  0
  -22.2990  -13.2260   21.8660 N   0  0  0  0  0  0  0  0  0  0  0  0
  -22.5890  -14.9030   20.4260 O   0  0  0  0  0  0  0  0  0  0  0  0
  -22.6560  -12.3950   22.3130 H   0  0  0  0  0  0  0  0  0  0  0  0
  -21.3840  -13.5670   22.1210 H   0  0  0  0  0  0  0  0  0  0  0  0
  -25.6740  -15.4290   20.0110 N   0  0  0  0  0  0  0  0  0  0  0  0
  -24.9370  -16.1150   20.1360 H   0  0  0  0  0  0  0  0  0  0  0  0
  -26.5270  -15.8290   19.6380 H   0  0  0  0  0  0  0  0  0  0  0  0
  -28.0160  -19.7590   21.1510 N   0  0  0  0  0  0  0  0  0  0  0  0
  -27.2510  -19.2790   21.6130 H   0  0  0  0  0  0  0  0  0  0  0  0
  -28.1230  -20.7200   21.4610 H   0  0  0  0  0  0  0  0  0  0  0  0
  -34.0990  -19.2700   20.1430 C   0  0  0  0  0  2  0  0  0  0  0  0
  -32.8920  -19.7860   20.4340 C   0  0  0  0  0  3  0  0  0  0  0  0
  -30.4080  -21.1310   20.9240 O   0  0  0  0  0  0  0  0  0  0  0  0
  -29.8640  -21.8900   19.8440 C   0  0  0  0  0  2  0  0  0  0  0  0
  -29.4340  -23.2650   20.4010 C   0  0  0  0  0  2  0  0  0  0  0  0
  -28.9420  -24.2860   19.3480 C   0  0  0  0  0  2  0  0  0  0  0  0
  -28.5140  -25.6300   19.9810 C   0  0  0  0  0  2  0  0  0  0  0  0
  -28.2670  -26.6360   18.9930 O   0  0  0  0  0  0  0  0  0  0  0  0
  -24.7190  -31.4740   22.8430 C   0  0  0  0  0  0  0  0  0  0  0  0
  -27.1120  -27.3570   19.1780 C   0  0  0  0  0  0  0  0  0  0  0  0
  -23.3910  -30.2410   21.1570 C   0  0  0  0  0  3  0  0  0  0  0  0
  -24.7330  -28.8430   19.4980 C   0  0  0  0  0  0  0  0  0  0  0  0
  -25.8990  -30.6170   20.8230 C   0  0  0  0  0  2  0  0  0  0  0  0
  -25.9310  -29.3130   20.0530 C   0  0  0  0  0  0  0  0  0  0  0  0
  -27.1270  -28.5770   19.8890 C   0  0  0  0  0  3  0  0  0  0  0  0
  -25.9030  -26.8920   18.6260 C   0  0  0  0  0  3  0  0  0  0  0  0
  -24.7120  -27.6300   18.7840 C   0  0  0  0  0  3  0  0  0  0  0  0
  -23.5010  -29.6950   19.7080 C   0  0  0  0  0  2  0  0  0  0  0  0
  -24.6920  -30.7860   21.6660 N   0  0  0  0  0  0  0  0  0  0  0  0
  -23.6800  -31.6950   23.4800 O   0  0  0  0  0  0  0  0  0  0  0  0
  -22.7970  -29.1340   22.0570 C   0  0  0  0  0  0  0  0  0  0  0  0
  -21.4640  -28.9780   22.0100 N   0  0  0  0  0  0  0  0  0  0  0  0
  -23.5280  -28.4240   22.7520 O   0  0  0  0  0  0  0  0  0  0  0  0
  -20.9340  -29.6050   21.4220 H   0  0  0  0  0  0  0  0  0  0  0  0
  -18.1160  -27.7730   22.6360 C   0  0  0  0  0  0  0  0  0  0  0  0
  -20.6910  -27.9740   22.7410 C   0  0  0  0  0  3  0  0  0  0  0  0
  -20.7250  -26.6090   22.0150 C   0  0  0  0  0  2  0  0  0  0  0  0
  -19.5460  -26.4050   21.0580 C   0  0  0  0  0  2  0  0  0  0  0  0
  -18.2180  -26.4980   21.8150 C   0  0  0  0  0  2  0  0  0  0  0  0
  -19.2770  -28.4740   23.0560 C   0  0  0  0  0  0  0  0  0  0  0  0
  -19.1260  -29.6730   23.7870 C   0  0  0  0  0  3  0  0  0  0  0  0
  -17.8460  -30.1690   24.0990 C   0  0  0  0  0  3  0  0  0  0  0  0
  -16.7000  -29.4640   23.6920 C   0  0  0  0  0  3  0  0  0  0  0  0
  -16.8370  -28.2660   22.9670 C   0  0  0  0  0  3  0  0  0  0  0  0
  -26.0510  -32.0360   23.4330 C   0  0  0  0  0  3  0  0  0  0  0  0
  -25.7710  -33.3800   23.9520 N   0  0  0  0  0  0  0  0  0  0  0  0
  -26.0850  -34.5190   23.3210 C   0  0  0  0  0  0  0  0  0  0  0  0
  -26.7110  -34.5450   22.2580 O   0  0  0  0  0  0  0  0  0  0  0  0
  -25.2120  -33.4340   24.7910 H   0  0  0  0  0  0  0  0  0  0  0  0
  -24.3650  -36.3520   23.2660 C   0  0  0  0  0  1  0  0  0  0  0  0
  -25.6300  -35.8400   23.9710 C   0  0  0  0  0  3  0  0  0  0  0  0
  -27.8050  -36.5960   24.8230 C   0  0  0  0  0  1  0  0  0  0  0  0
  -26.6710  -36.8920   23.9540 N   0  0  0  0  0  0  0  0  0  0  0  0
  -26.2810  -37.7880   24.2340 H   0  0  0  0  0  0  0  0  0  0  0  0
  -26.6700  -31.1180   24.5580 C   0  0  1  0  0  0  0  0  0  0  0  0
  -25.6690  -30.7490   25.6790 C   0  0  0  0  0  1  0  0  0  0  0  0
  -27.2090  -29.8010   23.9530 C   0  0  0  0  0  1  0  0  0  0  0  0
  -27.8770  -31.8310   25.2110 C   0  0  0  0  0  1  0  0  0  0  0  0
  1  3  2  0
  1  4  1  0
  2  5  1  0
  3  6  1  0
  4 15  1  0
  4  2  2  0
  5 45  1  0
  6 50  1  0
  6  5  2  0
  7 15  1  0
  8 13  1  0
  9 10  1  0
  9  8  1  0
 11 10  1  0
 11 20  1  0
 11 12  1  0
 13  7  1  0
 13 12  1  0
 14  7  2  0
 15 16  1  0
 17 18  2  0
 18 37  1  0
 19 18  1  0
 19 22  1  0
 20 17  1  0
 20 21  1  0
 21 19  2  0
 22 23  1  0
 23 24  2  0
 25 28  1  0
 25 24  1  0
 26 25  2  0
 27 26  1  0
 27 22  2  0
 28 29  1  0
 29 30  1  0
 30 31  2  0
 32 31  1  0
 32 36  1  0
 33 32  2  0
 34 29  2  0
 34 33  1  0
 35 34  1  0
 37 38  1  0
 38 41  1  0
 38 40  1  0
 39 37  2  0
 42 43  1  0
 42 17  1  0
 44 42  1  0
 45 47  1  0
 45 46  1  0
 48 49  2  0
 49  3  1  0
 51 52  1  0
 51 50  1  0
 53 54  1  0
 53 52  1  0
 55 57  1  0
 55 54  1  0
 56 67  2  0
 57 62  1  0
 58 66  1  0
 58 68  1  0
 59 65  1  0
 59 61  1  0
 60 66  1  0
 61 60  1  0
 62 61  2  0
 63 64  1  0
 63 57  2  0
 64 59  2  0
 65 58  1  0
 66 56  1  0
 68 70  2  0
 69 68  1  0
 71 69  1  0
 72 81  2  0
 72 77  1  0
 73 69  1  0
 73 77  1  0
 74 73  1  0
 75 76  1  0
 75 74  1  0
 76 72  1  0
 77 78  2  0
 78 79  1  0
 80 79  2  0
 81 80  1  0
 82 56  1  0
 82 83  1  0
 82 92  1  0
 83 86  1  0
 84 83  1  0
 84 88  1  0
 85 84  2  0
 88 87  1  0
 90 88  1  0
 90 91  1  0
 90 89  1  0
 92 95  1  1
 92 93  1  0
 94 92  1  0
M  ISO  4   7 100  15 100  54 101  55 101
M  END
>  <TORSDO>  (20) 
F 23

>  <SCORE>  (20) 
-11.524

>  <name>  (20) 
19

>  <ligand_id>  (20) 
19

>  <original_smiles>  (20) 
[H]C([H])=C([H])c1c([H])c(N([H])C(=O)N2C([H])([H])C([H])([H])C([H])([H])C([H])(n3nc(-c4c([H])c([H])c(Oc5c([H])c([H])c(F)c([H])c5F)c([H])c4[H])c(C(=O)N([H])[H])c3N([H])[H])C2([H])[H])c([H])c(N([H])[H])c1OC([H])([H])C([H])([H])C([H])([H])C([H])([H])Oc1c([H])c([H])c2c(c1[H])C([H])([H])N(C(=O)C([H])(N([H])C(=O)C([H])(N([H])C([H])([H])[H])C([H])([H])[H])C(C([H])([H])[H])(C([H])([H])[H])C([H])([H])[H])C([H])(C(=O)N([H])C1([H])c3c([H])c([H])c([H])c([H])c3C([H])([H])C([H])([H])C1([H])[H])C2([H])[H]

>  <smiles>  (20) 
[H]C([H])=C([H])c1c([H])c(N([H])C(=O)N2C([H])([H])C([H])([H])C([H])([H])C([H])(n3nc(-c4c([H])c([H])c(Oc5c([H])c([H])c(F)c([H])c5F)c([H])c4[H])c(C(=O)N([H])[H])c3N([H])[H])C2([H])[H])c([H])c(N([H])[H])c1OC([H])([H])C([H])([H])C([H])([H])C([H])([H])Oc1c([H])c([H])c2c(c1[H])C([H])([H])N(C(=O)C([H])(N([H])C(=O)C([H])(N([H])C([H])([H])[H])C([H])([H])[H])C(C([H])([H])[H])(C([H])([H])[H])C([H])([H])[H])C([H])(C(=O)N([H])C1([H])c3c([H])c([H])c([H])c([H])c3C([H])([H])C([H])([H])C1([H])[H])C2([H])[H]

$$$$
21:0:0
     RDKit          3D

 93102  0  0  1  0  0  0  0  0999 V2000
  -28.6210  -24.1100   20.1330 C   0  0  0  0  0  0  0  0  0  0  0  0
  -28.5140  -25.3500   19.5620 C   0  0  0  0  0  3  0  0  0  0  0  0
  -28.3550  -23.7460   21.5690 C   0  0  0  0  0  2  0  0  0  0  0  0
  -29.0140  -22.7880   19.4370 C   0  0  0  0  0  2  0  0  0  0  0  0
  -27.9300  -22.2640   21.4830 C   0  0  0  0  0  2  0  0  0  0  0  0
  -28.6980  -21.6420   20.3680 N   0  0  2  0  0  4  0  0  0  0  0  0
  -28.0710  -21.0160   19.8860 H   0  0  0  0  0  0  0  0  0  0  0  0
  -28.3620  -26.5660   20.2330 O   0  0  0  0  0  0  0  0  0  0  0  0
  -24.6140  -31.8710   23.2170 C   0  0  0  0  0  0  0  0  0  0  0  0
  -27.2220  -27.3630   20.1260 C   0  0  0  0  0  0  0  0  0  0  0  0
  -23.4000  -30.4770   21.5740 C   0  0  0  0  0  3  0  0  0  0  0  0
  -24.8430  -28.9340   20.1320 C   0  0  0  0  0  0  0  0  0  0  0  0
  -25.9300  -30.8130   21.3710 C   0  0  0  0  0  2  0  0  0  0  0  0
  -26.0070  -29.4390   20.7230 C   0  0  0  0  0  0  0  0  0  0  0  0
  -27.1970  -28.6600   20.7130 C   0  0  0  0  0  3  0  0  0  0  0  0
  -26.0370  -26.8920   19.5190 C   0  0  0  0  0  3  0  0  0  0  0  0
  -24.8580  -27.6670   19.5220 C   0  0  0  0  0  3  0  0  0  0  0  0
  -23.6020  -29.8000   20.1900 C   0  0  0  0  0  2  0  0  0  0  0  0
  -24.6670  -31.0710   22.1110 N   0  0  0  0  0  0  0  0  0  0  0  0
  -23.5350  -32.1440   23.7600 O   0  0  0  0  0  0  0  0  0  0  0  0
  -22.7450  -29.4600   22.5370 C   0  0  0  0  0  0  0  0  0  0  0  0
  -21.4180  -29.2850   22.4180 N   0  0  0  0  0  0  0  0  0  0  0  0
  -23.4280  -28.8270   23.3460 O   0  0  0  0  0  0  0  0  0  0  0  0
  -20.9260  -29.8460   21.7350 H   0  0  0  0  0  0  0  0  0  0  0  0
  -18.0390  -28.1090   22.9380 C   0  0  0  0  0  0  0  0  0  0  0  0
  -20.6020  -28.3490   23.1890 C   0  0  0  0  0  3  0  0  0  0  0  0
  -20.6880  -26.9200   22.6030 C   0  0  0  0  0  2  0  0  0  0  0  0
  -19.5770  -26.6140   21.5950 C   0  0  0  0  0  2  0  0  0  0  0  0
  -18.2010  -26.7630   22.2510 C   0  0  0  0  0  2  0  0  0  0  0  0
  -19.1660  -28.8590   23.3650 C   0  0  0  0  0  0  0  0  0  0  0  0
  -18.9600  -30.1200   23.9680 C   0  0  0  0  0  3  0  0  0  0  0  0
  -17.6590  -30.6280   24.1470 C   0  0  0  0  0  3  0  0  0  0  0  0
  -16.5480  -29.8730   23.7340 C   0  0  0  0  0  3  0  0  0  0  0  0
  -16.7390  -28.6150   23.1370 C   0  0  0  0  0  3  0  0  0  0  0  0
  -25.9010  -32.4980   23.8360 C   0  0  0  0  0  3  0  0  0  0  0  0
  -25.5920  -33.8920   24.1840 N   0  0  0  0  0  0  0  0  0  0  0  0
  -25.9070  -34.9520   23.4270 C   0  0  0  0  0  0  0  0  0  0  0  0
  -26.5560  -34.8590   22.3820 O   0  0  0  0  0  0  0  0  0  0  0  0
  -25.0130  -34.0360   24.9980 H   0  0  0  0  0  0  0  0  0  0  0  0
  -24.1590  -36.7350   23.1260 C   0  0  0  0  0  1  0  0  0  0  0  0
  -25.4220  -36.3350   23.9050 C   0  0  0  0  0  3  0  0  0  0  0  0
  -27.5710  -37.2280   24.6900 C   0  0  0  0  0  1  0  0  0  0  0  0
  -26.4450  -37.3960   23.7740 N   0  0  0  0  0  0  0  0  0  0  0  0
  -26.0360  -38.3120   23.9370 H   0  0  0  0  0  0  0  0  0  0  0  0
  -26.4260  -31.7160   25.1020 C   0  0  1  0  0  0  0  0  0  0  0  0
  -25.3430  -31.4710   26.1770 C   0  0  0  0  0  1  0  0  0  0  0  0
  -27.0040  -30.3430   24.6900 C   0  0  0  0  0  1  0  0  0  0  0  0
  -27.5820  -32.5040   25.7640 C   0  0  0  0  0  1  0  0  0  0  0  0
  -29.8520  -20.7780   20.8340 C   0  0  0  0  0  2  0  0  0  0  0  0
  -29.4680  -18.0880   21.0100 C   0  0  0  0  0  3  0  0  0  0  0  0
  -29.9630  -19.2900   20.3770 C   0  0  0  0  0  0  0  0  0  0  0  0
  -30.7230  -18.8120   19.3340 C   0  0  0  0  0  0  0  0  0  0  0  0
  -30.0440  -17.0040   20.3790 C   0  0  0  0  0  0  0  0  0  0  0  0
  -31.5380  -19.4990   18.2880 C   0  0  0  0  0  1  0  0  0  0  0  0
  -30.7920  -17.4380   19.3300 O   0  0  0  0  0  0  0  0  0  0  0  0
  -30.6300  -14.6020   20.3220 C   0  0  0  0  0  0  0  0  0  0  0  0
  -30.3720  -12.3790   19.2650 C   0  0  0  0  0  2  0  0  0  0  0  0
  -29.4340  -12.5460   18.0490 C   0  0  0  0  0  2  0  0  0  0  0  0
  -27.9600  -12.4040   18.4810 C   0  0  0  0  0  2  0  0  0  0  0  0
  -27.6150  -13.2670   19.7240 C   0  0  0  0  0  3  0  0  0  0  0  0
  -28.6710  -13.0880   20.8390 C   0  0  0  0  0  2  0  0  0  0  0  0
  -29.9880  -13.3960   20.2640 N   0  0  0  0  0  0  0  0  0  0  0  0
  -31.7930  -14.7320   19.9250 O   0  0  0  0  0  0  0  0  0  0  0  0
  -29.8750  -15.6730   20.7050 N   0  0  0  0  0  0  0  0  0  0  0  0
  -29.0080  -15.4380   21.1600 H   0  0  0  0  0  0  0  0  0  0  0  0
  -25.2220  -13.8870   20.4250 C   0  0  0  0  0  0  0  0  0  0  0  0
  -24.1490  -13.1220   20.7950 C   0  0  0  0  0  0  0  0  0  0  0  0
  -24.6050  -11.7680   20.7820 C   0  0  0  0  0  0  0  0  0  0  0  0
  -26.2640  -12.9990   20.2070 N   0  0  0  0  0  0  0  0  0  0  0  0
  -25.8960  -11.7200   20.4800 N   0  0  0  0  0  0  0  0  0  0  0  0
  -23.8730  -10.5100   20.9810 C   0  0  0  0  0  0  0  0  0  0  0  0
  -24.2970   -9.5500   21.9230 C   0  0  0  0  0  3  0  0  0  0  0  0
  -23.5660   -8.3560   22.1080 C   0  0  0  0  0  3  0  0  0  0  0  0
  -22.3950   -8.1170   21.3510 C   0  0  0  0  0  0  0  0  0  0  0  0
  -21.9900   -9.0670   20.3970 C   0  0  0  0  0  3  0  0  0  0  0  0
  -22.7230  -10.2510   20.2090 C   0  0  0  0  0  3  0  0  0  0  0  0
  -21.6340   -6.9770   21.4460 O   0  0  0  0  0  0  0  0  0  0  0  0
  -21.5780   -6.2440   22.6050 C   0  0  0  0  0  0  0  0  0  0  0  0
  -21.1410   -6.8080   23.8230 C   0  0  0  0  0  3  0  0  0  0  0  0
  -21.0320   -6.0000   24.9730 C   0  0  0  0  0  3  0  0  0  0  0  0
  -21.3490   -4.6310   24.9050 C   0  0  0  0  0  0  0  0  0  0  0  0
  -21.7800   -4.0670   23.6910 C   0  0  0  0  0  3  0  0  0  0  0  0
  -21.8910   -4.8710   22.5440 C   0  0  0  0  0  0  0  0  0  0  0  0
  -22.2860   -4.3170   21.3710 F   0  0  0  0  0  0  0  0  0  0  0  0
  -21.2370   -3.8520   26.0070 F   0  0  0  0  0  0  0  0  0  0  0  0
  -22.7520  -13.6080   21.0540 C   0  0  0  0  0  0  0  0  0  0  0  0
  -22.0140  -12.9240   21.9210 N   0  0  0  0  0  0  0  0  0  0  0  0
  -22.3220  -14.6300   20.5200 O   0  0  0  0  0  0  0  0  0  0  0  0
  -22.3740  -12.0970   22.3740 H   0  0  0  0  0  0  0  0  0  0  0  0
  -21.0770  -13.2330   22.1350 H   0  0  0  0  0  0  0  0  0  0  0  0
  -25.3940  -15.2540   20.2320 N   0  0  0  0  0  0  0  0  0  0  0  0
  -24.6250  -15.9100   20.3170 H   0  0  0  0  0  0  0  0  0  0  0  0
  -26.2390  -15.6810   19.8720 H   0  0  0  0  0  0  0  0  0  0  0  0
  1  3  1  0
  2  1  2  0
  2  8  1  0
  4  1  1  0
  4  6  1  0
  5  3  1  0
  6 49  1  0
  6  5  1  0
  6  7  1  6
  9 20  2  0
 10  8  1  0
 10 15  1  0
 11 19  1  0
 11 21  1  0
 12 18  1  0
 12 14  1  0
 13 19  1  0
 14 13  1  0
 15 14  2  0
 16 17  1  0
 16 10  2  0
 17 12  2  0
 18 11  1  0
 19  9  1  0
 21 23  2  0
 22 21  1  0
 24 22  1  0
 25 34  2  0
 25 30  1  0
 26 22  1  0
 26 30  1  0
 27 26  1  0
 28 29  1  0
 28 27  1  0
 29 25  1  0
 30 31  2  0
 31 32  1  0
 33 32  2  0
 34 33  1  0
 35  9  1  0
 35 36  1  0
 35 45  1  0
 36 39  1  0
 37 41  1  0
 37 36  1  0
 38 37  2  0
 41 40  1  0
 43 41  1  0
 43 44  1  0
 43 42  1  0
 45 48  1  1
 45 46  1  0
 47 45  1  0
 51 49  1  0
 51 50  1  0
 52 51  2  0
 53 64  1  0
 53 50  2  0
 54 52  1  0
 55 52  1  0
 55 53  1  0
 56 64  1  0
 57 62  1  0
 58 59  1  0
 58 57  1  0
 60 59  1  0
 60 69  1  0
 60 61  1  0
 62 56  1  0
 62 61  1  0
 63 56  2  0
 64 65  1  0
 66 67  2  0
 67 86  1  0
 68 67  1  0
 68 71  1  0
 69 66  1  0
 69 70  1  0
 70 68  2  0
 71 72  1  0
 72 73  2  0
 74 77  1  0
 74 73  1  0
 75 74  2  0
 76 75  1  0
 76 71  2  0
 77 78  1  0
 78 79  1  0
 79 80  2  0
 81 80  1  0
 81 85  1  0
 82 81  2  0
 83 78  2  0
 83 82  1  0
 84 83  1  0
 86 87  1  0
 87 90  1  0
 87 89  1  0
 88 86  2  0
 91 92  1  0
 91 66  1  0
 93 91  1  0
M  ISO  4   2 101   8 101  56 100  64 100
M  END
>  <TORSDO>  (21) 
F 18

>  <SCORE>  (21) 
-14.751

>  <name>  (21) 
21

>  <ligand_id>  (21) 
21

>  <original_smiles>  (21) 
[H]C(Oc1c([H])c([H])c2c(c1[H])C([H])([H])N(C(=O)C([H])(N([H])C(=O)C([H])(N([H])C([H])([H])[H])C([H])([H])[H])C(C([H])([H])[H])(C([H])([H])[H])C([H])([H])[H])C([H])(C(=O)N([H])C1([H])c3c([H])c([H])c([H])c([H])c3C([H])([H])C([H])([H])C1([H])[H])C2([H])[H])=C1C([H])([H])C([H])([H])[N+]([H])(C([H])([H])c2c(C([H])([H])[H])oc(N([H])C(=O)N3C([H])([H])C([H])([H])C([H])([H])C([H])(n4nc(-c5c([H])c([H])c(Oc6c([H])c([H])c(F)c([H])c6F)c([H])c5[H])c(C(=O)N([H])[H])c4N([H])[H])C3([H])[H])c2[H])C1([H])[H]

>  <smiles>  (21) 
[H]C(Oc1c([H])c([H])c2c(c1[H])C([H])([H])N(C(=O)C([H])(N([H])C(=O)C([H])(N([H])C([H])([H])[H])C([H])([H])[H])C(C([H])([H])[H])(C([H])([H])[H])C([H])([H])[H])C([H])(C(=O)N([H])C1([H])c3c([H])c([H])c([H])c([H])c3C([H])([H])C([H])([H])C1([H])[H])C2([H])[H])=C1C([H])([H])C([H])([H])[N+]([H])(C([H])([H])c2c(C([H])([H])[H])oc(N([H])C(=O)N3C([H])([H])C([H])([H])C([H])([H])C([H])(n4nc(-c5c([H])c([H])c(Oc6c([H])c([H])c(F)c([H])c6F)c([H])c5[H])c(C(=O)N([H])[H])c4N([H])[H])C3([H])[H])c2[H])C1([H])[H]

$$$$
22:0:0
     RDKit          3D

 91 99  0  0  1  0  0  0  0  0999 V2000
  -29.7840  -20.3230   19.5060 O   0  0  0  0  0  0  0  0  0  0  0  0
  -30.5900  -17.9160   19.7310 C   0  0  0  0  0  3  0  0  0  0  0  0
  -30.1790  -19.2040   20.2450 C   0  0  0  0  0  0  0  0  0  0  0  0
  -30.8330  -17.0620   20.7940 C   0  0  0  0  0  0  0  0  0  0  0  0
  -30.1660  -19.0350   21.6060 C   0  0  0  0  0  0  0  0  0  0  0  0
  -29.7670  -19.8790   22.7710 C   0  0  0  0  0  1  0  0  0  0  0  0
  -30.5800  -17.7770   21.9340 O   0  0  0  0  0  0  0  0  0  0  0  0
  -31.2800  -15.6640   21.0930 C   0  0  0  0  0  3  0  0  0  0  0  0
  -31.3680  -15.2910   22.3050 N   0  0  0  0  0  2  0  0  0  0  0  0
  -31.0880  -16.0580   22.9070 H   0  0  0  0  0  0  0  0  0  0  0  0
  -31.6530  -14.6880   19.9480 C   0  0  0  0  0  0  0  0  0  0  0  0
  -31.1460  -12.6110   18.6750 C   0  0  0  0  0  2  0  0  0  0  0  0
  -30.1350  -12.9030   17.5450 C   0  0  0  0  0  2  0  0  0  0  0  0
  -28.6860  -12.8120   18.0610 C   0  0  0  0  0  2  0  0  0  0  0  0
  -28.4800  -13.6040   19.3780 C   0  0  0  0  0  3  0  0  0  0  0  0
  -29.5830  -13.2580   20.3990 C   0  0  0  0  0  2  0  0  0  0  0  0
  -30.8930  -13.5540   19.7850 N   0  0  0  0  0  0  0  0  0  0  0  0
  -32.6570  -14.9060   19.2590 O   0  0  0  0  0  0  0  0  0  0  0  0
  -26.1760  -14.3270   20.2650 C   0  0  0  0  0  0  0  0  0  0  0  0
  -25.0890  -13.6060   20.6830 C   0  0  0  0  0  0  0  0  0  0  0  0
  -25.4630  -12.2310   20.5800 C   0  0  0  0  0  0  0  0  0  0  0  0
  -27.1470  -13.3930   19.9350 N   0  0  0  0  0  0  0  0  0  0  0  0
  -26.7250  -12.1260   20.1810 N   0  0  0  0  0  0  0  0  0  0  0  0
  -24.6760  -11.0090   20.7830 C   0  0  0  0  0  0  0  0  0  0  0  0
  -25.0460  -10.0430   21.7450 C   0  0  0  0  0  3  0  0  0  0  0  0
  -24.2620   -8.8840   21.9320 C   0  0  0  0  0  3  0  0  0  0  0  0
  -23.0940   -8.6830   21.1580 C   0  0  0  0  0  0  0  0  0  0  0  0
  -22.7450   -9.6360   20.1860 C   0  0  0  0  0  3  0  0  0  0  0  0
  -23.5280  -10.7870   19.9960 C   0  0  0  0  0  3  0  0  0  0  0  0
  -22.2870   -7.5760   21.2520 O   0  0  0  0  0  0  0  0  0  0  0  0
  -22.0730   -6.9410   22.4490 C   0  0  0  0  0  0  0  0  0  0  0  0
  -21.5450   -7.6200   23.5690 C   0  0  0  0  0  3  0  0  0  0  0  0
  -21.2760   -6.9140   24.7580 C   0  0  0  0  0  3  0  0  0  0  0  0
  -21.5250   -5.5300   24.8280 C   0  0  0  0  0  0  0  0  0  0  0  0
  -22.0450   -4.8510   23.7120 C   0  0  0  0  0  3  0  0  0  0  0  0
  -22.3160   -5.5550   22.5250 C   0  0  0  0  0  0  0  0  0  0  0  0
  -22.7970   -4.8910   21.4460 F   0  0  0  0  0  0  0  0  0  0  0  0
  -21.2590   -4.8500   25.9670 F   0  0  0  0  0  0  0  0  0  0  0  0
  -23.7450  -14.1560   21.0650 C   0  0  0  0  0  0  0  0  0  0  0  0
  -23.0530  -13.4980   21.9900 N   0  0  0  0  0  0  0  0  0  0  0  0
  -23.3200  -15.2030   20.5770 O   0  0  0  0  0  0  0  0  0  0  0  0
  -23.4100  -12.6510   22.4050 H   0  0  0  0  0  0  0  0  0  0  0  0
  -22.1530  -13.8480   22.2850 H   0  0  0  0  0  0  0  0  0  0  0  0
  -26.4120  -15.6900   20.1190 N   0  0  0  0  0  0  0  0  0  0  0  0
  -25.6980  -16.3850   20.3040 H   0  0  0  0  0  0  0  0  0  0  0  0
  -27.2680  -16.0910   19.7550 H   0  0  0  0  0  0  0  0  0  0  0  0
  -29.9180  -21.6660   20.0560 C   0  0  0  0  0  2  0  0  0  0  0  0
  -28.9210  -22.6920   19.4060 C   0  0  0  0  0  2  0  0  0  0  0  0
  -28.9550  -24.1540   19.9190 C   0  0  0  0  0  3  0  0  0  0  0  0
  -28.4900  -25.2380   19.2370 C   0  0  0  0  0  3  0  0  0  0  0  0
  -28.4980  -26.5550   19.6970 O   0  0  0  0  0  0  0  0  0  0  0  0
  -24.7120  -31.6410   23.0460 C   0  0  0  0  0  0  0  0  0  0  0  0
  -27.3240  -27.3100   19.7170 C   0  0  0  0  0  0  0  0  0  0  0  0
  -23.4770  -30.2720   21.3990 C   0  0  0  0  0  3  0  0  0  0  0  0
  -24.9080  -28.8130   19.8670 C   0  0  0  0  0  0  0  0  0  0  0  0
  -25.9930  -30.6730   21.1310 C   0  0  0  0  0  2  0  0  0  0  0  0
  -26.0810  -29.3250   20.4350 C   0  0  0  0  0  0  0  0  0  0  0  0
  -27.2890  -28.5810   20.3550 C   0  0  0  0  0  3  0  0  0  0  0  0
  -26.1220  -26.8290   19.1460 C   0  0  0  0  0  3  0  0  0  0  0  0
  -24.9250  -27.5680   19.2200 C   0  0  0  0  0  3  0  0  0  0  0  0
  -23.6520  -29.6490   19.9900 C   0  0  0  0  0  2  0  0  0  0  0  0
  -24.7480  -30.8770   21.9160 N   0  0  0  0  0  0  0  0  0  0  0  0
  -23.6440  -31.8730   23.6300 O   0  0  0  0  0  0  0  0  0  0  0  0
  -22.8760  -29.2060   22.3460 C   0  0  0  0  0  0  0  0  0  0  0  0
  -21.5590  -28.9710   22.2280 N   0  0  0  0  0  0  0  0  0  0  0  0
  -23.5940  -28.5950   23.1430 O   0  0  0  0  0  0  0  0  0  0  0  0
  -21.0390  -29.5190   21.5580 H   0  0  0  0  0  0  0  0  0  0  0  0
  -18.2540  -27.5840   22.7010 C   0  0  0  0  0  0  0  0  0  0  0  0
  -20.7920  -27.9820   22.9880 C   0  0  0  0  0  3  0  0  0  0  0  0
  -20.9770  -26.5630   22.4010 C   0  0  0  0  0  2  0  0  0  0  0  0
  -19.8990  -26.1870   21.3790 C   0  0  0  0  0  2  0  0  0  0  0  0
  -18.5080  -26.2520   22.0170 C   0  0  0  0  0  2  0  0  0  0  0  0
  -19.3260  -28.4040   23.1420 C   0  0  0  0  0  0  0  0  0  0  0  0
  -19.0340  -29.6490   23.7400 C   0  0  0  0  0  3  0  0  0  0  0  0
  -17.7030  -30.0760   23.9020 C   0  0  0  0  0  3  0  0  0  0  0  0
  -16.6450  -29.2540   23.4770 C   0  0  0  0  0  3  0  0  0  0  0  0
  -16.9220  -28.0100   22.8820 C   0  0  0  0  0  3  0  0  0  0  0  0
  -26.0050  -32.2780   23.6420 C   0  0  0  0  0  3  0  0  0  0  0  0
  -25.6540  -33.6200   24.1260 N   0  0  0  0  0  0  0  0  0  0  0  0
  -25.8960  -34.7580   23.4600 C   0  0  0  0  0  0  0  0  0  0  0  0
  -26.5100  -34.7880   22.3900 O   0  0  0  0  0  0  0  0  0  0  0  0
  -25.0990  -33.6670   24.9680 H   0  0  0  0  0  0  0  0  0  0  0  0
  -24.0780  -36.4930   23.3730 C   0  0  0  0  0  1  0  0  0  0  0  0
  -25.3750  -36.0690   24.0790 C   0  0  0  0  0  3  0  0  0  0  0  0
  -27.5100  -36.9670   24.8950 C   0  0  0  0  0  1  0  0  0  0  0  0
  -26.3550  -37.1750   24.0260 N   0  0  0  0  0  0  0  0  0  0  0  0
  -25.9180  -38.0560   24.2840 H   0  0  0  0  0  0  0  0  0  0  0  0
  -26.6440  -31.4180   24.8000 C   0  0  1  0  0  0  0  0  0  0  0  0
  -25.6390  -31.0170   25.9040 C   0  0  0  0  0  1  0  0  0  0  0  0
  -27.2700  -30.1210   24.2370 C   0  0  0  0  0  1  0  0  0  0  0  0
  -27.7940  -32.2100   25.4670 C   0  0  0  0  0  1  0  0  0  0  0  0
  1 47  1  0
  1  3  1  0
  2  3  1  0
  2  4  2  0
  3  5  2  0
  4  8  1  0
  4  7  1  0
  5  7  1  0
  5  6  1  0
  8 11  1  0
  8  9  1  0
  9 10  1  0
 12 17  1  0
 13 14  1  0
 13 12  1  0
 15 14  1  0
 15 22  1  0
 15 16  1  0
 17 11  1  0
 17 16  1  0
 18 11  2  0
 19 20  2  0
 20 39  1  0
 21 20  1  0
 21 24  1  0
 22 23  1  0
 22 19  1  0
 23 21  2  0
 24 25  1  0
 25 26  2  0
 27 30  1  0
 27 26  1  0
 28 27  2  0
 29 28  1  0
 29 24  2  0
 30 31  1  0
 31 36  2  0
 31 32  1  0
 32 33  2  0
 33 34  1  0
 34 38  1  0
 35 34  2  0
 36 35  1  0
 37 36  1  0
 39 40  1  0
 40 43  1  0
 40 42  1  0
 41 39  2  0
 44 19  1  0
 44 45  1  0
 46 44  1  0
 48 49  1  0
 48 47  1  0
 50 51  1  0
 50 49  2  0
 51 53  1  0
 52 63  2  0
 53 58  1  0
 54 62  1  0
 54 64  1  0
 55 61  1  0
 55 57  1  0
 56 62  1  0
 57 56  1  0
 58 57  2  0
 59 60  1  0
 59 53  2  0
 60 55  2  0
 61 54  1  0
 62 52  1  0
 64 66  2  0
 65 64  1  0
 67 65  1  0
 68 77  2  0
 68 73  1  0
 69 65  1  0
 69 73  1  0
 70 69  1  0
 71 72  1  0
 71 70  1  0
 72 68  1  0
 73 74  2  0
 74 75  1  0
 76 75  2  0
 77 76  1  0
 78 52  1  0
 78 79  1  0
 78 88  1  0
 79 82  1  0
 80 84  1  0
 80 79  1  0
 81 80  2  0
 84 83  1  0
 86 84  1  0
 86 87  1  0
 86 85  1  0
 88 91  1  1
 88 89  1  0
 90 88  1  0
M  ISO  4   8 100  11 100  50 101  51 101
M  END
>  <TORSDO>  (22) 
F 21

>  <SCORE>  (22) 
-10.192

>  <name>  (22) 
22

>  <ligand_id>  (22) 
22

>  <original_smiles>  (22) 
[H]N=C(C(=O)N1C([H])([H])C([H])([H])C([H])([H])C([H])(n2nc(-c3c([H])c([H])c(Oc4c([H])c([H])c(F)c([H])c4F)c([H])c3[H])c(C(=O)N([H])[H])c2N([H])[H])C1([H])[H])c1oc(C([H])([H])[H])c(OC([H])([H])C([H])([H])C([H])=C([H])Oc2c([H])c([H])c3c(c2[H])C([H])([H])N(C(=O)C([H])(N([H])C(=O)C([H])(N([H])C([H])([H])[H])C([H])([H])[H])C(C([H])([H])[H])(C([H])([H])[H])C([H])([H])[H])C([H])(C(=O)N([H])C2([H])c4c([H])c([H])c([H])c([H])c4C([H])([H])C([H])([H])C2([H])[H])C3([H])[H])c1[H]

>  <smiles>  (22) 
[H]N=C(C(=O)N1C([H])([H])C([H])([H])C([H])([H])C([H])(n2nc(-c3c([H])c([H])c(Oc4c([H])c([H])c(F)c([H])c4F)c([H])c3[H])c(C(=O)N([H])[H])c2N([H])[H])C1([H])[H])c1oc(C([H])([H])[H])c(OC([H])([H])C([H])([H])C([H])=C([H])Oc2c([H])c([H])c3c(c2[H])C([H])([H])N(C(=O)C([H])(N([H])C(=O)C([H])(N([H])C([H])([H])[H])C([H])([H])[H])C(C([H])([H])[H])(C([H])([H])[H])C([H])([H])[H])C([H])(C(=O)N([H])C2([H])c4c([H])c([H])c([H])c([H])c4C([H])([H])C([H])([H])C2([H])[H])C3([H])[H])c1[H]

$$$$
23:0:0
     RDKit          3D

 95103  0  0  1  0  0  0  0  0999 V2000
  -29.3200  -22.2620   20.4930 N   0  0  0  0  0  0  0  0  0  0  0  0
  -28.5440  -22.5540   21.0890 H   0  0  0  0  0  0  0  0  0  0  0  0
  -27.3530  -19.4990   18.9430 C   0  0  0  0  0  3  0  0  0  0  0  0
  -29.8550  -19.8360   20.1090 C   0  0  0  0  0  3  0  0  0  0  0  0
  -27.8140  -20.8110   19.2220 C   0  0  0  0  0  0  0  0  0  0  0  0
  -29.4400  -18.5240   19.7370 C   0  0  0  0  0  0  0  0  0  0  0  0
  -28.1230  -18.3530   19.2320 C   0  0  0  0  0  0  0  0  0  0  0  0
  -29.0260  -20.9970   19.9250 C   0  0  0  0  0  0  0  0  0  0  0  0
  -27.5670  -16.9590   18.8970 C   0  0  0  0  0  1  0  0  0  0  0  0
  -30.3210  -17.3180   19.9710 C   0  0  0  0  0  3  0  0  0  0  0  0
  -30.2160  -15.9340   19.9100 C   0  0  0  0  0  3  0  0  0  0  0  0
  -31.0840  -14.7210   19.8410 C   0  0  0  0  0  0  0  0  0  0  0  0
  -30.9340  -12.2750   19.4350 C   0  0  0  0  0  2  0  0  0  0  0  0
  -30.0330  -11.9840   18.2140 C   0  0  0  0  0  2  0  0  0  0  0  0
  -28.5510  -11.9140   18.6210 C   0  0  0  0  0  2  0  0  0  0  0  0
  -28.1310  -13.1020   19.5180 C   0  0  0  0  0  3  0  0  0  0  0  0
  -29.1290  -13.3460   20.6640 C   0  0  0  0  0  2  0  0  0  0  0  0
  -30.4650  -13.5340   20.0660 N   0  0  0  0  0  0  0  0  0  0  0  0
  -32.2290  -14.7600   19.3830 O   0  0  0  0  0  0  0  0  0  0  0  0
  -25.8170  -13.8930   20.2970 C   0  0  0  0  0  0  0  0  0  0  0  0
  -24.6980  -13.2010   20.7130 C   0  0  0  0  0  0  0  0  0  0  0  0
  -25.0530  -11.8250   20.6680 C   0  0  0  0  0  0  0  0  0  0  0  0
  -26.7740  -12.9250   20.0230 N   0  0  0  0  0  0  0  0  0  0  0  0
  -26.3230  -11.6780   20.3020 N   0  0  0  0  0  0  0  0  0  0  0  0
  -24.2360  -10.6220   20.8830 C   0  0  0  0  0  0  0  0  0  0  0  0
  -24.6350   -9.5980   21.7670 C   0  0  0  0  0  3  0  0  0  0  0  0
  -23.8160   -8.4650   21.9620 C   0  0  0  0  0  3  0  0  0  0  0  0
  -22.5890   -8.3460   21.2750 C   0  0  0  0  0  0  0  0  0  0  0  0
  -22.2160   -9.3580   20.3700 C   0  0  0  0  0  3  0  0  0  0  0  0
  -23.0340  -10.4780   20.1700 C   0  0  0  0  0  3  0  0  0  0  0  0
  -21.7470   -7.2680   21.3820 O   0  0  0  0  0  0  0  0  0  0  0  0
  -21.7160   -6.4930   22.5190 C   0  0  0  0  0  0  0  0  0  0  0  0
  -21.4450   -7.0400   23.7910 C   0  0  0  0  0  3  0  0  0  0  0  0
  -21.3550   -6.1920   24.9150 C   0  0  0  0  0  3  0  0  0  0  0  0
  -21.5210   -4.8030   24.7630 C   0  0  0  0  0  0  0  0  0  0  0  0
  -21.7850   -4.2570   23.4950 C   0  0  0  0  0  3  0  0  0  0  0  0
  -21.8720   -5.1020   22.3730 C   0  0  0  0  0  0  0  0  0  0  0  0
  -22.1000   -4.5670   21.1510 F   0  0  0  0  0  0  0  0  0  0  0  0
  -21.4300   -3.9880   25.8410 F   0  0  0  0  0  0  0  0  0  0  0  0
  -23.3590  -13.7970   21.0220 C   0  0  0  0  0  0  0  0  0  0  0  0
  -22.6110  -13.1750   21.9230 N   0  0  0  0  0  0  0  0  0  0  0  0
  -22.9750  -14.8470   20.5030 O   0  0  0  0  0  0  0  0  0  0  0  0
  -22.9340  -12.3240   22.3630 H   0  0  0  0  0  0  0  0  0  0  0  0
  -21.7110  -13.5530   22.1860 H   0  0  0  0  0  0  0  0  0  0  0  0
  -26.0600  -15.2320   20.1330 N   0  0  0  0  0  0  0  0  0  0  0  0
  -25.3560  -15.9340   20.3390 H   0  0  0  0  0  0  0  0  0  0  0  0
  -26.9530  -15.6290   19.8470 H   0  0  0  0  0  0  0  0  0  0  0  0
  -25.9400  -22.4640   19.2060 C   0  0  0  0  0  2  0  0  0  0  0  0
  -27.0760  -21.9630   18.6920 C   0  0  0  0  0  3  0  0  0  0  0  0
  -29.8490  -23.3800   19.6620 C   0  0  0  0  0  2  0  0  0  0  0  0
  -28.9210  -24.6650   19.6670 C   0  0  0  0  0  3  0  0  0  0  0  0
  -28.2310  -24.6460   18.4330 O   0  0  0  0  0  0  0  0  0  0  0  0
  -27.8400  -23.8060   18.3440 H   0  0  0  0  0  0  0  0  0  0  0  0
  -29.6720  -26.0430   19.7900 C   0  0  0  0  0  2  0  0  0  0  0  0
  -29.1840  -27.0680   20.7160 O   0  0  0  0  0  0  0  0  0  0  0  0
  -24.7720  -32.0330   23.4700 C   0  0  0  0  0  0  0  0  0  0  0  0
  -27.9750  -27.7520   20.5610 C   0  0  0  0  0  0  0  0  0  0  0  0
  -23.8200  -30.5390   21.7220 C   0  0  0  0  0  3  0  0  0  0  0  0
  -25.4810  -29.1340   20.4250 C   0  0  0  0  0  0  0  0  0  0  0  0
  -26.3310  -31.0630   21.7570 C   0  0  0  0  0  2  0  0  0  0  0  0
  -26.5570  -29.7010   21.1080 C   0  0  0  0  0  0  0  0  0  0  0  0
  -27.8110  -29.0410   21.1530 C   0  0  0  0  0  3  0  0  0  0  0  0
  -26.8550  -27.1910   19.9240 C   0  0  0  0  0  3  0  0  0  0  0  0
  -25.6220  -27.8750   19.8340 C   0  0  0  0  0  3  0  0  0  0  0  0
  -24.1920  -29.8840   20.3820 C   0  0  0  0  0  2  0  0  0  0  0  0
  -24.9900  -31.2400   22.3740 N   0  0  0  0  0  0  0  0  0  0  0  0
  -23.6350  -32.2100   23.9360 O   0  0  0  0  0  0  0  0  0  0  0  0
  -23.1570  -29.4720   22.6120 C   0  0  0  0  0  0  0  0  0  0  0  0
  -21.8590  -29.2320   22.3810 N   0  0  0  0  0  0  0  0  0  0  0  0
  -23.8040  -28.8750   23.4850 O   0  0  0  0  0  0  0  0  0  0  0  0
  -21.4320  -29.7550   21.6270 H   0  0  0  0  0  0  0  0  0  0  0  0
  -18.5130  -27.8580   22.6550 C   0  0  0  0  0  0  0  0  0  0  0  0
  -21.0310  -28.2600   23.1070 C   0  0  0  0  0  3  0  0  0  0  0  0
  -21.2400  -26.8390   22.5280 C   0  0  0  0  0  2  0  0  0  0  0  0
  -20.2600  -26.4570   21.4230 C   0  0  0  0  0  2  0  0  0  0  0  0
  -18.8240  -26.5360   21.9670 C   0  0  0  0  0  2  0  0  0  0  0  0
  -19.5590  -28.6650   23.1670 C   0  0  0  0  0  0  0  0  0  0  0  0
  -19.2180  -29.8960   23.7720 C   0  0  0  0  0  3  0  0  0  0  0  0
  -17.8850  -30.3420   23.8730 C   0  0  0  0  0  3  0  0  0  0  0  0
  -16.8660  -29.5300   23.3790 C   0  0  0  0  0  3  0  0  0  0  0  0
  -17.1730  -28.2910   22.7700 C   0  0  0  0  0  3  0  0  0  0  0  0
  -25.9700  -32.7420   24.1960 C   0  0  0  0  0  3  0  0  0  0  0  0
  -25.5780  -34.1320   24.4010 N   0  0  0  0  0  0  0  0  0  0  0  0
  -25.9600  -35.1570   23.6280 C   0  0  0  0  0  0  0  0  0  0  0  0
  -26.7290  -35.0250   22.6740 O   0  0  0  0  0  0  0  0  0  0  0  0
  -24.9040  -34.2980   25.1290 H   0  0  0  0  0  0  0  0  0  0  0  0
  -24.2140  -36.8620   22.9770 C   0  0  0  0  0  1  0  0  0  0  0  0
  -25.3740  -36.5490   23.9450 C   0  0  0  0  0  3  0  0  0  0  0  0
  -27.3770  -37.5600   24.9490 C   0  0  0  0  0  1  0  0  0  0  0  0
  -26.3750  -37.6430   23.8870 N   0  0  0  0  0  0  0  0  0  0  0  0
  -25.9290  -38.5540   23.9580 H   0  0  0  0  0  0  0  0  0  0  0  0
  -26.3680  -32.0640   25.5590 C   0  0  1  0  0  0  0  0  0  0  0  0
  -25.1680  -31.8110   26.4990 C   0  0  0  0  0  1  0  0  0  0  0  0
  -27.0550  -30.7040   25.3120 C   0  0  0  0  0  1  0  0  0  0  0  0
  -27.3780  -32.9550   26.3070 C   0  0  0  0  0  1  0  0  0  0  0  0
  1  2  1  0
  3  5  2  0
  3  7  1  0
  5  8  1  0
  6 10  1  0
  6  4  1  0
  7  6  2  0
  8  4  2  0
  8  1  1  0
  9  7  1  0
 11 10  2  0
 12 11  1  0
 12 18  1  0
 13 18  1  0
 14 15  1  0
 14 13  1  0
 16 15  1  0
 16 23  1  0
 16 17  1  0
 18 17  1  0
 19 12  2  0
 20 21  2  0
 21 40  1  0
 22 21  1  0
 22 25  1  0
 23 20  1  0
 23 24  1  0
 24 22  2  0
 25 26  1  0
 26 27  2  0
 28 31  1  0
 28 27  1  0
 29 28  2  0
 30 29  1  0
 30 25  2  0
 31 32  1  0
 32 33  1  0
 33 34  2  0
 35 34  1  0
 35 39  1  0
 36 35  2  0
 37 32  2  0
 37 36  1  0
 38 37  1  0
 40 41  1  0
 41 44  1  0
 41 43  1  0
 42 40  2  0
 45 20  1  0
 45 46  1  0
 47 45  1  0
 49 48  2  0
 49  5  1  0
 50  1  1  0
 51 50  1  0
 51 54  1  0
 52 51  1  0
 53 52  1  0
 54 55  1  0
 56 67  2  0
 57 55  1  0
 57 62  1  0
 58 66  1  0
 58 68  1  0
 59 61  1  0
 60 66  1  0
 61 62  2  0
 61 60  1  0
 63 57  2  0
 64 63  1  0
 64 59  2  0
 65 59  1  0
 65 58  1  0
 66 56  1  0
 68 70  2  0
 69 68  1  0
 71 69  1  0
 72 81  2  0
 72 77  1  0
 73 69  1  0
 73 77  1  0
 74 73  1  0
 75 76  1  0
 75 74  1  0
 76 72  1  0
 77 78  2  0
 78 79  1  0
 80 79  2  0
 81 80  1  0
 82 56  1  0
 82 83  1  0
 82 92  1  0
 83 86  1  0
 84 88  1  0
 84 83  1  0
 85 84  2  0
 88 87  1  0
 90 88  1  0
 90 91  1  0
 90 89  1  0
 92 95  1  1
 92 93  1  0
 94 92  1  0
M  ISO  4  11 100  12 100  54 101  55 101
M  END
>  <TORSDO>  (23) 
F 23

>  <SCORE>  (23) 
-12.402

>  <name>  (23) 
23

>  <ligand_id>  (23) 
23

>  <original_smiles>  (23) 
[H]OC([H])(C([H])([H])Oc1c([H])c([H])c2c(c1[H])C([H])([H])N(C(=O)C([H])(N([H])C(=O)C([H])(N([H])C([H])([H])[H])C([H])([H])[H])C(C([H])([H])[H])(C([H])([H])[H])C([H])([H])[H])C([H])(C(=O)N([H])C1([H])c3c([H])c([H])c([H])c([H])c3C([H])([H])C([H])([H])C1([H])[H])C2([H])[H])C([H])([H])N([H])c1c([H])c(C([H])=C([H])C(=O)N2C([H])([H])C([H])([H])C([H])([H])C([H])(n3nc(-c4c([H])c([H])c(Oc5c([H])c([H])c(F)c([H])c5F)c([H])c4[H])c(C(=O)N([H])[H])c3N([H])[H])C2([H])[H])c(C([H])([H])[H])c([H])c1C([H])=C([H])[H]

>  <smiles>  (23) 
[H]OC([H])(C([H])([H])Oc1c([H])c([H])c2c(c1[H])C([H])([H])N(C(=O)C([H])(N([H])C(=O)C([H])(N([H])C([H])([H])[H])C([H])([H])[H])C(C([H])([H])[H])(C([H])([H])[H])C([H])([H])[H])C([H])(C(=O)N([H])C1([H])c3c([H])c([H])c([H])c([H])c3C([H])([H])C([H])([H])C1([H])[H])C2([H])[H])C([H])([H])N([H])c1c([H])c(C([H])=C([H])C(=O)N2C([H])([H])C([H])([H])C([H])([H])C([H])(n3nc(-c4c([H])c([H])c(Oc5c([H])c([H])c(F)c([H])c5F)c([H])c4[H])c(C(=O)N([H])[H])c3N([H])[H])C2([H])[H])c(C([H])([H])[H])c([H])c1C([H])=C([H])[H]

$$$$
24:0:0
     RDKit          3D

 96105  0  0  1  0  0  0  0  0999 V2000
  -28.4650  -23.1550   19.8860 C   0  0  0  0  0  0  0  0  0  0  0  0
  -29.2410  -24.2530   19.7610 C   0  0  0  0  0  0  0  0  0  0  0  0
  -30.7010  -23.8680   19.9130 C   0  0  0  0  0  2  0  0  0  0  0  0
  -30.6820  -22.3120   19.9450 C   0  0  0  0  0  2  0  0  0  0  0  0
  -29.2790  -21.9250   20.2490 N   0  0  2  0  0  4  0  0  0  0  0  0
  -29.2810  -21.8620   21.2550 H   0  0  0  0  0  0  0  0  0  0  0  0
  -26.6330  -22.9530   18.2770 C   0  0  0  0  0  2  0  0  0  0  0  0
  -27.0570  -23.0970   19.5440 C   0  0  0  0  0  3  0  0  0  0  0  0
  -27.4120  -20.2910   20.5340 C   0  0  0  0  0  1  0  0  0  0  0  0
  -28.7610  -20.5640   19.8170 C   0  0  0  0  0  3  0  0  0  0  0  0
  -29.5520  -18.0970   20.6770 C   0  0  0  0  0  3  0  0  0  0  0  0
  -29.6680  -19.2920   19.8750 C   0  0  0  0  0  0  0  0  0  0  0  0
  -30.3970  -17.1670   20.1090 C   0  0  0  0  0  0  0  0  0  0  0  0
  -31.9600  -17.3310   18.0320 C   0  0  0  0  0  1  0  0  0  0  0  0
  -30.5860  -19.0890   18.9290 N   0  0  0  0  0  0  0  0  0  0  0  0
  -31.0270  -17.8030   19.0400 N   0  0  0  0  0  0  0  0  0  0  0  0
  -31.1930  -14.7750   20.0590 C   0  0  0  0  0  0  0  0  0  0  0  0
  -30.9200  -12.5000   19.1090 C   0  0  0  0  0  2  0  0  0  0  0  0
  -29.9650  -12.6090   17.9000 C   0  0  0  0  0  2  0  0  0  0  0  0
  -28.5050  -12.4710   18.3670 C   0  0  0  0  0  2  0  0  0  0  0  0
  -28.1720  -13.4220   19.5460 C   0  0  0  0  0  3  0  0  0  0  0  0
  -29.2350  -13.2990   20.6570 C   0  0  0  0  0  2  0  0  0  0  0  0
  -30.5530  -13.5680   20.0560 N   0  0  0  0  0  0  0  0  0  0  0  0
  -32.3440  -14.8960   19.6170 O   0  0  0  0  0  0  0  0  0  0  0  0
  -30.4460  -15.8340   20.4790 N   0  0  0  0  0  0  0  0  0  0  0  0
  -29.6430  -15.5410   21.0160 H   0  0  0  0  0  0  0  0  0  0  0  0
  -25.8310  -14.1220   20.3520 C   0  0  0  0  0  0  0  0  0  0  0  0
  -24.7380  -13.3890   20.7380 C   0  0  0  0  0  0  0  0  0  0  0  0
  -25.1330  -12.0180   20.6520 C   0  0  0  0  0  0  0  0  0  0  0  0
  -26.8210  -13.1960   20.0610 N   0  0  0  0  0  0  0  0  0  0  0  0
  -26.4080  -11.9240   20.3010 N   0  0  0  0  0  0  0  0  0  0  0  0
  -24.3520  -10.7840   20.8290 C   0  0  0  0  0  0  0  0  0  0  0  0
  -24.7140   -9.8140   21.7900 C   0  0  0  0  0  3  0  0  0  0  0  0
  -23.9440   -8.6420   21.9480 C   0  0  0  0  0  3  0  0  0  0  0  0
  -22.7940   -8.4380   21.1480 C   0  0  0  0  0  0  0  0  0  0  0  0
  -22.4510   -9.3960   20.1790 C   0  0  0  0  0  3  0  0  0  0  0  0
  -23.2210  -10.5600   20.0190 C   0  0  0  0  0  3  0  0  0  0  0  0
  -21.9960   -7.3210   21.2160 O   0  0  0  0  0  0  0  0  0  0  0  0
  -21.7830   -6.6590   22.3980 C   0  0  0  0  0  0  0  0  0  0  0  0
  -21.1930   -7.2910   23.5150 C   0  0  0  0  0  3  0  0  0  0  0  0
  -20.9270   -6.5510   24.6850 C   0  0  0  0  0  3  0  0  0  0  0  0
  -21.2430   -5.1790   24.7390 C   0  0  0  0  0  0  0  0  0  0  0  0
  -21.8280   -4.5480   23.6260 C   0  0  0  0  0  3  0  0  0  0  0  0
  -22.0940   -5.2850   22.4600 C   0  0  0  0  0  0  0  0  0  0  0  0
  -22.6360   -4.6670   21.3840 F   0  0  0  0  0  0  0  0  0  0  0  0
  -20.9850   -4.4660   25.8580 F   0  0  0  0  0  0  0  0  0  0  0  0
  -23.3770  -13.9250   21.0790 C   0  0  0  0  0  0  0  0  0  0  0  0
  -22.6600  -13.2380   21.9620 N   0  0  0  0  0  0  0  0  0  0  0  0
  -22.9580  -14.9760   20.5980 O   0  0  0  0  0  0  0  0  0  0  0  0
  -23.0140  -12.3820   22.3580 H   0  0  0  0  0  0  0  0  0  0  0  0
  -21.7490  -13.5700   22.2430 H   0  0  0  0  0  0  0  0  0  0  0  0
  -26.0670  -15.4880   20.2090 N   0  0  0  0  0  0  0  0  0  0  0  0
  -25.3420  -16.1870   20.3150 H   0  0  0  0  0  0  0  0  0  0  0  0
  -26.9410  -15.8710   19.8660 H   0  0  0  0  0  0  0  0  0  0  0  0
  -28.8120  -25.6640   19.2530 C   0  0  0  0  0  2  0  0  0  0  0  0
  -28.5220  -26.7110   20.2480 O   0  0  0  0  0  0  0  0  0  0  0  0
  -24.6040  -31.9200   23.3170 C   0  0  0  0  0  0  0  0  0  0  0  0
  -27.3470  -27.4780   20.2100 C   0  0  0  0  0  0  0  0  0  0  0  0
  -23.4480  -30.5300   21.6410 C   0  0  0  0  0  3  0  0  0  0  0  0
  -24.9420  -29.0260   20.2120 C   0  0  0  0  0  0  0  0  0  0  0  0
  -25.9820  -30.8930   21.5000 C   0  0  0  0  0  2  0  0  0  0  0  0
  -26.0920  -29.5300   20.8300 C   0  0  0  0  0  0  0  0  0  0  0  0
  -27.2950  -28.7680   20.8170 C   0  0  0  0  0  3  0  0  0  0  0  0
  -26.1570  -27.0050   19.6090 C   0  0  0  0  0  3  0  0  0  0  0  0
  -24.9760  -27.7680   19.5960 C   0  0  0  0  0  3  0  0  0  0  0  0
  -23.6880  -29.8780   20.2550 C   0  0  0  0  0  2  0  0  0  0  0  0
  -24.6980  -31.1290   22.2110 N   0  0  0  0  0  0  0  0  0  0  0  0
  -23.5060  -32.1740   23.8330 O   0  0  0  0  0  0  0  0  0  0  0  0
  -22.7890  -29.4850   22.5710 C   0  0  0  0  0  0  0  0  0  0  0  0
  -21.4650  -29.2970   22.4280 N   0  0  0  0  0  0  0  0  0  0  0  0
  -23.4650  -28.8480   23.3820 O   0  0  0  0  0  0  0  0  0  0  0  0
  -20.9640  -29.8980   21.7870 H   0  0  0  0  0  0  0  0  0  0  0  0
  -18.0870  -28.1010   22.8740 C   0  0  0  0  0  0  0  0  0  0  0  0
  -20.6430  -28.3470   23.1780 C   0  0  0  0  0  3  0  0  0  0  0  0
  -20.7410  -26.9190   22.5950 C   0  0  0  0  0  2  0  0  0  0  0  0
  -19.6640  -26.6450   21.5400 C   0  0  0  0  0  2  0  0  0  0  0  0
  -18.2650  -26.7730   22.1600 C   0  0  0  0  0  2  0  0  0  0  0  0
  -19.2060  -28.8490   23.3260 C   0  0  0  0  0  0  0  0  0  0  0  0
  -18.9920  -30.1000   23.9410 C   0  0  0  0  0  3  0  0  0  0  0  0
  -17.6930  -30.6090   24.1120 C   0  0  0  0  0  3  0  0  0  0  0  0
  -16.5870  -29.8560   23.6840 C   0  0  0  0  0  3  0  0  0  0  0  0
  -16.7850  -28.6050   23.0710 C   0  0  0  0  0  3  0  0  0  0  0  0
  -25.8660  -32.5580   23.9700 C   0  0  0  0  0  3  0  0  0  0  0  0
  -26.3340  -31.8060   25.2780 C   0  0  1  0  0  0  0  0  0  0  0  0
  -25.1920  -31.5770   26.2960 C   0  0  0  0  0  1  0  0  0  0  0  0
  -26.9450  -30.4260   24.9350 C   0  0  0  0  0  1  0  0  0  0  0  0
  -27.4490  -32.6160   25.9780 C   0  0  0  0  0  1  0  0  0  0  0  0
  -25.5490  -33.9620   24.2620 N   0  0  0  0  0  0  0  0  0  0  0  0
  -25.9040  -34.9970   23.4910 C   0  0  0  0  0  0  0  0  0  0  0  0
  -26.5990  -34.8710   22.4790 O   0  0  0  0  0  0  0  0  0  0  0  0
  -24.9110  -34.1290   25.0270 H   0  0  0  0  0  0  0  0  0  0  0  0
  -24.1770  -36.7780   23.0730 C   0  0  0  0  0  1  0  0  0  0  0  0
  -25.4080  -36.3930   23.9100 C   0  0  0  0  0  3  0  0  0  0  0  0
  -27.5180  -37.3050   24.7680 C   0  0  0  0  0  1  0  0  0  0  0  0
  -26.4420  -37.4440   23.7900 N   0  0  0  0  0  0  0  0  0  0  0  0
  -26.0310  -38.3680   23.8960 H   0  0  0  0  0  0  0  0  0  0  0  0
  1  5  1  0
  2  1  2  0
  2  3  1  0
  3  4  1  0
  4  5  1  0
  5  6  1  1
  7  8  2  0
  8  1  1  0
 10 12  1  0
 10  5  1  0
 10  9  1  0
 12 11  1  0
 13 25  1  0
 13 11  2  0
 14 16  1  0
 15 16  1  0
 15 12  2  0
 16 13  1  0
 17 25  1  0
 18 23  1  0
 19 20  1  0
 19 18  1  0
 21 20  1  0
 21 30  1  0
 21 22  1  0
 23 17  1  0
 23 22  1  0
 24 17  2  0
 25 26  1  0
 27 28  2  0
 28 47  1  0
 29 28  1  0
 29 32  1  0
 30 31  1  0
 30 27  1  0
 31 29  2  0
 32 33  1  0
 33 34  2  0
 35 38  1  0
 35 34  1  0
 36 35  2  0
 37 36  1  0
 37 32  2  0
 38 39  1  0
 39 44  2  0
 39 40  1  0
 40 41  2  0
 41 42  1  0
 42 46  1  0
 43 42  2  0
 44 43  1  0
 45 44  1  0
 47 48  1  0
 48 51  1  0
 48 50  1  0
 49 47  2  0
 52 53  1  0
 52 27  1  0
 54 52  1  0
 55  2  1  0
 55 56  1  0
 57 68  2  0
 58 56  1  0
 58 63  1  0
 59 67  1  0
 59 69  1  0
 60 66  1  0
 60 62  1  0
 61 67  1  0
 62 61  1  0
 63 62  2  0
 64 58  2  0
 65 64  1  0
 65 60  2  0
 66 59  1  0
 67 57  1  0
 69 71  2  0
 70 69  1  0
 72 70  1  0
 73 82  2  0
 73 78  1  0
 74 70  1  0
 74 78  1  0
 75 74  1  0
 76 77  1  0
 76 75  1  0
 77 73  1  0
 78 79  2  0
 79 80  1  0
 81 80  2  0
 82 81  1  0
 83 57  1  0
 83 88  1  0
 83 84  1  0
 84 87  1  1
 84 85  1  0
 86 84  1  0
 88 91  1  0
 89 93  1  0
 89 88  1  0
 90 89  2  0
 93 92  1  0
 95 96  1  0
 95 93  1  0
 95 94  1  0
M  ISO  4  17 100  25 100  55 101  56 101
M  END
>  <TORSDO>  (24) 
F 20

>  <SCORE>  (24) 
-13.116

>  <name>  (24) 
24

>  <ligand_id>  (24) 
24

>  <original_smiles>  (24) 
[H]C([H])=C([H])C1=C(C([H])([H])Oc2c([H])c([H])c3c(c2[H])C([H])([H])N(C(=O)C([H])(N([H])C(=O)C([H])(N([H])C([H])([H])[H])C([H])([H])[H])C(C([H])([H])[H])(C([H])([H])[H])C([H])([H])[H])C([H])(C(=O)N([H])C2([H])c4c([H])c([H])c([H])c([H])c4C([H])([H])C([H])([H])C2([H])[H])C3([H])[H])C([H])([H])C([H])([H])[N+]1([H])C([H])(c1nn(C([H])([H])[H])c(N([H])C(=O)N2C([H])([H])C([H])([H])C([H])([H])C([H])(n3nc(-c4c([H])c([H])c(Oc5c([H])c([H])c(F)c([H])c5F)c([H])c4[H])c(C(=O)N([H])[H])c3N([H])[H])C2([H])[H])c1[H])C([H])([H])[H]

>  <smiles>  (24) 
[H]C([H])=C([H])C1=C(C([H])([H])Oc2c([H])c([H])c3c(c2[H])C([H])([H])N(C(=O)C([H])(N([H])C(=O)C([H])(N([H])C([H])([H])[H])C([H])([H])[H])C(C([H])([H])[H])(C([H])([H])[H])C([H])([H])[H])C([H])(C(=O)N([H])C2([H])c4c([H])c([H])c([H])c([H])c4C([H])([H])C([H])([H])C2([H])[H])C3([H])[H])C([H])([H])C([H])([H])[N+]1([H])C([H])(c1nn(C([H])([H])[H])c(N([H])C(=O)N2C([H])([H])C([H])([H])C([H])([H])C([H])(n3nc(-c4c([H])c([H])c(Oc5c([H])c([H])c(F)c([H])c5F)c([H])c4[H])c(C(=O)N([H])[H])c3N([H])[H])C2([H])[H])c1[H])C([H])([H])[H]

$$$$
25:0:0
     RDKit          3D

100108  0  0  1  0  0  0  0  0999 V2000
  -30.9970  -18.9020   22.8900 C   0  0  0  0  0  3  0  0  0  0  0  0
  -29.5150  -20.0230   20.7620 C   0  0  0  0  0  0  0  0  0  0  0  0
  -30.6930  -18.0910   21.7820 C   0  0  0  0  0  0  0  0  0  0  0  0
  -30.6020  -20.2490   22.9380 C   0  0  0  0  0  0  0  0  0  0  0  0
  -29.9470  -18.6560   20.7130 C   0  0  0  0  0  0  0  0  0  0  0  0
  -29.8590  -20.8390   21.8900 C   0  0  0  0  0  0  0  0  0  0  0  0
  -30.9610  -21.0220   24.0420 N   0  0  0  0  0  0  0  0  0  0  0  0
  -31.0150  -20.5600   24.9430 H   0  0  0  0  0  0  0  0  0  0  0  0
  -30.4960  -21.9240   24.0960 H   0  0  0  0  0  0  0  0  0  0  0  0
  -28.7380  -20.5820   19.6400 C   0  0  0  0  0  3  0  0  0  0  0  0
  -27.7040  -19.9770   19.0320 C   0  0  0  0  0  3  0  0  0  0  0  0
  -26.9060  -20.5910   17.9040 C   0  0  0  0  0  1  0  0  0  0  0  0
  -29.6090  -22.1980   22.0860 O   0  0  0  0  0  0  0  0  0  0  0  0
  -28.3980  -22.8750   21.7320 C   0  0  0  0  0  2  0  0  0  0  0  0
  -28.7600  -24.1770   20.9710 C   0  0  0  0  0  2  0  0  0  0  0  0
  -28.8230  -25.4250   21.8880 C   0  0  0  0  0  2  0  0  0  0  0  0
  -29.5290  -26.6740   21.3030 C   0  0  0  0  0  2  0  0  0  0  0  0
  -28.9810  -27.1750   20.0840 O   0  0  0  0  0  0  0  0  0  0  0  0
  -24.6810  -31.9470   23.2700 C   0  0  0  0  0  0  0  0  0  0  0  0
  -27.7880  -27.8550   20.1470 C   0  0  0  0  0  0  0  0  0  0  0  0
  -23.6570  -30.5160   21.5320 C   0  0  0  0  0  3  0  0  0  0  0  0
  -25.2870  -29.1670   20.1020 C   0  0  0  0  0  0  0  0  0  0  0  0
  -26.1490  -31.0850   21.4500 C   0  0  0  0  0  2  0  0  0  0  0  0
  -26.3700  -29.7490   20.7740 C   0  0  0  0  0  0  0  0  0  0  0  0
  -27.6220  -29.0920   20.8140 C   0  0  0  0  0  3  0  0  0  0  0  0
  -26.7000  -27.3010   19.4470 C   0  0  0  0  0  3  0  0  0  0  0  0
  -25.4430  -27.9380   19.4380 C   0  0  0  0  0  3  0  0  0  0  0  0
  -23.9740  -29.9190   20.1340 C   0  0  0  0  0  2  0  0  0  0  0  0
  -24.8420  -31.1980   22.1430 N   0  0  0  0  0  0  0  0  0  0  0  0
  -23.5620  -32.1080   23.7780 O   0  0  0  0  0  0  0  0  0  0  0  0
  -23.0630  -29.4020   22.4250 C   0  0  0  0  0  0  0  0  0  0  0  0
  -21.7570  -29.1370   22.2600 N   0  0  0  0  0  0  0  0  0  0  0  0
  -23.7750  -28.7830   23.2190 O   0  0  0  0  0  0  0  0  0  0  0  0
  -21.2420  -29.6990   21.5980 H   0  0  0  0  0  0  0  0  0  0  0  0
  -18.4570  -27.7090   22.6310 C   0  0  0  0  0  0  0  0  0  0  0  0
  -20.9920  -28.1080   22.9630 C   0  0  0  0  0  3  0  0  0  0  0  0
  -21.1900  -26.7210   22.3080 C   0  0  0  0  0  2  0  0  0  0  0  0
  -20.1240  -26.3940   21.2570 C   0  0  0  0  0  2  0  0  0  0  0  0
  -18.7270  -26.4130   21.8850 C   0  0  0  0  0  2  0  0  0  0  0  0
  -19.5210  -28.5140   23.1210 C   0  0  0  0  0  0  0  0  0  0  0  0
  -19.2140  -29.7280   23.7730 C   0  0  0  0  0  3  0  0  0  0  0  0
  -17.8800  -30.1400   23.9380 C   0  0  0  0  0  3  0  0  0  0  0  0
  -16.8310  -29.3310   23.4660 C   0  0  0  0  0  3  0  0  0  0  0  0
  -17.1210  -28.1170   22.8200 C   0  0  0  0  0  3  0  0  0  0  0  0
  -25.8890  -32.6530   23.9610 C   0  0  0  0  0  3  0  0  0  0  0  0
  -26.3710  -31.9130   25.2660 C   0  0  1  0  0  0  0  0  0  0  0  0
  -25.2320  -31.6230   26.2720 C   0  0  0  0  0  1  0  0  0  0  0  0
  -27.0460  -30.5680   24.9100 C   0  0  0  0  0  1  0  0  0  0  0  0
  -27.4410  -32.7690   25.9840 C   0  0  0  0  0  1  0  0  0  0  0  0
  -25.4770  -34.0300   24.2640 N   0  0  0  0  0  0  0  0  0  0  0  0
  -25.7900  -35.0980   23.5180 C   0  0  0  0  0  0  0  0  0  0  0  0
  -26.5240  -35.0320   22.5270 O   0  0  0  0  0  0  0  0  0  0  0  0
  -24.8250  -34.1470   25.0260 H   0  0  0  0  0  0  0  0  0  0  0  0
  -23.9690  -36.7690   23.0640 C   0  0  0  0  0  1  0  0  0  0  0  0
  -25.1930  -36.4540   23.9370 C   0  0  0  0  0  3  0  0  0  0  0  0
  -27.2330  -37.4770   24.8460 C   0  0  0  0  0  1  0  0  0  0  0  0
  -26.1610  -37.5720   23.8590 N   0  0  0  0  0  0  0  0  0  0  0  0
  -25.6910  -38.4640   23.9870 H   0  0  0  0  0  0  0  0  0  0  0  0
  -29.6810  -17.8760   19.6120 O   0  0  0  0  0  0  0  0  0  0  0  0
  -30.1530  -17.1830   17.3630 C   0  0  0  0  0  1  0  0  0  0  0  0
  -30.5420  -18.1190   18.5060 C   0  0  0  0  0  2  0  0  0  0  0  0
  -31.3210  -16.6850   21.7850 C   0  0  0  0  0  2  0  0  0  0  0  0
  -30.9860  -14.6570   20.3810 C   0  0  0  0  0  0  0  0  0  0  0  0
  -30.5550  -12.5930   19.0930 C   0  0  0  0  0  2  0  0  0  0  0  0
  -29.5830  -12.8300   17.9210 C   0  0  0  0  0  2  0  0  0  0  0  0
  -28.1260  -12.6900   18.3970 C   0  0  0  0  0  2  0  0  0  0  0  0
  -27.8310  -13.5120   19.6780 C   0  0  0  0  0  3  0  0  0  0  0  0
  -28.9090  -13.2650   20.7580 C   0  0  0  0  0  2  0  0  0  0  0  0
  -30.2290  -13.5470   20.1690 N   0  0  0  0  0  0  0  0  0  0  0  0
  -32.0370  -14.8600   19.7700 O   0  0  0  0  0  0  0  0  0  0  0  0
  -30.5400  -15.5350   21.3000 N   0  0  0  0  0  0  0  0  0  0  0  0
  -29.6650  -15.3380   21.7600 H   0  0  0  0  0  0  0  0  0  0  0  0
  -25.4650  -14.1350   20.4710 C   0  0  0  0  0  0  0  0  0  0  0  0
  -24.3900  -13.3690   20.8330 C   0  0  0  0  0  0  0  0  0  0  0  0
  -24.8230  -12.0110   20.7340 C   0  0  0  0  0  0  0  0  0  0  0  0
  -26.4850  -13.2450   20.1810 N   0  0  0  0  0  0  0  0  0  0  0  0
  -26.1040  -11.9600   20.3940 N   0  0  0  0  0  0  0  0  0  0  0  0
  -24.0780  -10.7550   20.8880 C   0  0  0  0  0  0  0  0  0  0  0  0
  -24.5180   -9.7350   21.7610 C   0  0  0  0  0  3  0  0  0  0  0  0
  -23.7740   -8.5450   21.9050 C   0  0  0  0  0  3  0  0  0  0  0  0
  -22.5760   -8.3650   21.1750 C   0  0  0  0  0  0  0  0  0  0  0  0
  -22.1550   -9.3710   20.2880 C   0  0  0  0  0  3  0  0  0  0  0  0
  -22.8980  -10.5540   20.1430 C   0  0  0  0  0  3  0  0  0  0  0  0
  -21.8010   -7.2310   21.2330 O   0  0  0  0  0  0  0  0  0  0  0  0
  -21.7640   -6.4420   22.3530 C   0  0  0  0  0  0  0  0  0  0  0  0
  -21.3980   -6.9570   23.6150 C   0  0  0  0  0  3  0  0  0  0  0  0
  -21.3050   -6.0950   24.7270 C   0  0  0  0  0  3  0  0  0  0  0  0
  -21.5700   -4.7200   24.5770 C   0  0  0  0  0  0  0  0  0  0  0  0
  -21.9280   -4.2060   23.3190 C   0  0  0  0  0  3  0  0  0  0  0  0
  -22.0220   -5.0630   22.2090 C   0  0  0  0  0  0  0  0  0  0  0  0
  -22.3480   -4.5590   20.9940 F   0  0  0  0  0  0  0  0  0  0  0  0
  -21.4730   -3.8900   25.6420 F   0  0  0  0  0  0  0  0  0  0  0  0
  -23.0100  -13.8590   21.1620 C   0  0  0  0  0  0  0  0  0  0  0  0
  -22.2980  -13.1500   22.0290 N   0  0  0  0  0  0  0  0  0  0  0  0
  -22.5740  -14.9060   20.6860 O   0  0  0  0  0  0  0  0  0  0  0  0
  -22.6620  -12.3000   22.4350 H   0  0  0  0  0  0  0  0  0  0  0  0
  -21.3740  -13.4610   22.2930 H   0  0  0  0  0  0  0  0  0  0  0  0
  -25.6590  -15.5090   20.3490 N   0  0  0  0  0  0  0  0  0  0  0  0
  -24.9220  -16.1830   20.5160 H   0  0  0  0  0  0  0  0  0  0  0  0
  -26.5300  -15.9350   20.0610 H   0  0  0  0  0  0  0  0  0  0  0  0
  1  4  1  0
  2  6  1  0
  3 62  1  0
  3  1  2  0
  4  7  1  0
  5  2  2  0
  5  3  1  0
  6 13  1  0
  6  4  2  0
  7  9  1  0
  7  8  1  0
 10  2  1  0
 11 10  2  0
 12 11  1  0
 14 13  1  0
 15 14  1  0
 15 16  1  0
 17 16  1  0
 18 20  1  0
 18 17  1  0
 19 30  2  0
 20 25  1  0
 21 29  1  0
 21 31  1  0
 22 28  1  0
 22 24  1  0
 23 29  1  0
 24 25  2  0
 24 23  1  0
 26 20  2  0
 27 26  1  0
 27 22  2  0
 28 21  1  0
 29 19  1  0
 31 33  2  0
 32 31  1  0
 34 32  1  0
 35 44  2  0
 35 40  1  0
 36 32  1  0
 36 40  1  0
 37 36  1  0
 38 39  1  0
 38 37  1  0
 39 35  1  0
 40 41  2  0
 41 42  1  0
 43 42  2  0
 44 43  1  0
 45 19  1  0
 45 50  1  0
 45 46  1  0
 46 49  1  1
 46 47  1  0
 48 46  1  0
 50 53  1  0
 51 55  1  0
 51 50  1  0
 52 51  2  0
 55 54  1  0
 57 55  1  0
 57 58  1  0
 57 56  1  0
 59  5  1  0
 60 61  1  0
 61 59  1  0
 63 71  1  0
 64 69  1  0
 65 66  1  0
 65 64  1  0
 67 66  1  0
 67 76  1  0
 67 68  1  0
 69 63  1  0
 69 68  1  0
 70 63  2  0
 71 72  1  0
 71 62  1  0
 73 74  2  0
 74 93  1  0
 75 74  1  0
 75 78  1  0
 76 77  1  0
 76 73  1  0
 77 75  2  0
 78 79  1  0
 79 80  2  0
 81 84  1  0
 81 80  1  0
 82 81  2  0
 83 82  1  0
 83 78  2  0
 84 85  1  0
 85 86  1  0
 86 87  2  0
 88 87  1  0
 88 92  1  0
 89 88  2  0
 90 85  2  0
 90 89  1  0
 91 90  1  0
 93 94  1  0
 94 97  1  0
 94 96  1  0
 95 93  2  0
 98 73  1  0
 98 99  1  0
100 98  1  0
M  ISO  4  17 101  18 101  63 100  71 100
M  END
>  <TORSDO>  (25) 
F 26

>  <SCORE>  (25) 
-11.224

>  <name>  (25) 
25

>  <ligand_id>  (25) 
25

>  <original_smiles>  (25) 
[H]C(=C([H])C([H])([H])[H])c1c(OC([H])([H])C([H])([H])C([H])([H])C([H])([H])Oc2c([H])c([H])c3c(c2[H])C([H])([H])N(C(=O)C([H])(N([H])C(=O)C([H])(N([H])C([H])([H])[H])C([H])([H])[H])C(C([H])([H])[H])(C([H])([H])[H])C([H])([H])[H])C([H])(C(=O)N([H])C2([H])c4c([H])c([H])c([H])c([H])c4C([H])([H])C([H])([H])C2([H])[H])C3([H])[H])c(N([H])[H])c([H])c(C([H])([H])N([H])C(=O)N2C([H])([H])C([H])([H])C([H])([H])C([H])(n3nc(-c4c([H])c([H])c(Oc5c([H])c([H])c(F)c([H])c5F)c([H])c4[H])c(C(=O)N([H])[H])c3N([H])[H])C2([H])[H])c1OC([H])([H])C([H])([H])[H]

>  <smiles>  (25) 
[H]C(=C([H])C([H])([H])[H])c1c(OC([H])([H])C([H])([H])C([H])([H])C([H])([H])Oc2c([H])c([H])c3c(c2[H])C([H])([H])N(C(=O)C([H])(N([H])C(=O)C([H])(N([H])C([H])([H])[H])C([H])([H])[H])C(C([H])([H])[H])(C([H])([H])[H])C([H])([H])[H])C([H])(C(=O)N([H])C2([H])c4c([H])c([H])c([H])c([H])c4C([H])([H])C([H])([H])C2([H])[H])C3([H])[H])c(N([H])[H])c([H])c(C([H])([H])N([H])C(=O)N2C([H])([H])C([H])([H])C([H])([H])C([H])(n3nc(-c4c([H])c([H])c(Oc5c([H])c([H])c(F)c([H])c5F)c([H])c4[H])c(C(=O)N([H])[H])c3N([H])[H])C2([H])[H])c1OC([H])([H])C([H])([H])[H]

$$$$
26:0:0
     RDKit          3D

100109  0  0  1  0  0  0  0  0999 V2000
  -31.1950  -20.2510   22.1110 C   0  0  0  0  0  3  0  0  0  0  0  0
  -30.7180  -21.5850   21.9780 C   0  0  0  0  0  3  0  0  0  0  0  0
  -28.9200  -20.7780   20.5990 C   0  0  0  0  0  3  0  0  0  0  0  0
  -29.4120  -19.4310   20.6950 C   0  0  0  0  0  0  0  0  0  0  0  0
  -30.5680  -19.1400   21.4840 C   0  0  0  0  0  0  0  0  0  0  0  0
  -29.5550  -21.8830   21.2270 C   0  0  0  0  0  0  0  0  0  0  0  0
  -28.0060  -23.4000   22.2270 C   0  0  0  0  0  0  0  0  0  0  0  0
  -28.1140  -24.7710   22.8730 C   0  0  0  0  0  2  0  0  0  0  0  0
  -29.4610  -25.2610   22.3490 C   0  0  0  0  0  2  0  0  0  0  0  0
  -29.5890  -24.5530   20.9920 C   0  0  0  0  0  3  0  0  0  0  0  0
  -28.9420  -23.2140   21.2730 N   0  0  0  0  0  0  0  0  0  0  0  0
  -27.1480  -22.5820   22.5740 O   0  0  0  0  0  0  0  0  0  0  0  0
  -28.8160  -25.4460   19.9150 C   0  0  0  0  0  2  0  0  0  0  0  0
  -28.9380  -26.9270   19.9530 O   0  0  0  0  0  0  0  0  0  0  0  0
  -24.7900  -31.7420   23.3510 C   0  0  0  0  0  0  0  0  0  0  0  0
  -27.7690  -27.7060   19.9280 C   0  0  0  0  0  0  0  0  0  0  0  0
  -23.7180  -30.4370   21.5490 C   0  0  0  0  0  3  0  0  0  0  0  0
  -25.3000  -29.1480   20.0110 C   0  0  0  0  0  0  0  0  0  0  0  0
  -26.2310  -30.9450   21.4660 C   0  0  0  0  0  2  0  0  0  0  0  0
  -26.4190  -29.6490   20.6890 C   0  0  0  0  0  0  0  0  0  0  0  0
  -27.6530  -28.9370   20.6430 C   0  0  0  0  0  3  0  0  0  0  0  0
  -26.6310  -27.2790   19.2020 C   0  0  0  0  0  3  0  0  0  0  0  0
  -25.4070  -27.9710   19.2590 C   0  0  0  0  0  3  0  0  0  0  0  0
  -24.0040  -29.9240   20.1150 C   0  0  0  0  0  2  0  0  0  0  0  0
  -24.9300  -31.0540   22.1810 N   0  0  0  0  0  0  0  0  0  0  0  0
  -23.6810  -31.8900   23.8830 O   0  0  0  0  0  0  0  0  0  0  0  0
  -23.1120  -29.2840   22.3850 C   0  0  0  0  0  0  0  0  0  0  0  0
  -21.8150  -29.0060   22.1770 N   0  0  0  0  0  0  0  0  0  0  0  0
  -23.8100  -28.6490   23.1800 O   0  0  0  0  0  0  0  0  0  0  0  0
  -21.3090  -29.5780   21.5160 H   0  0  0  0  0  0  0  0  0  0  0  0
  -18.5560  -27.4440   22.3520 C   0  0  0  0  0  0  0  0  0  0  0  0
  -21.0500  -27.9390   22.8240 C   0  0  0  0  0  3  0  0  0  0  0  0
  -21.3400  -26.5690   22.1680 C   0  0  0  0  0  2  0  0  0  0  0  0
  -20.3470  -26.2100   21.0570 C   0  0  0  0  0  2  0  0  0  0  0  0
  -18.9180  -26.1710   21.6060 C   0  0  0  0  0  2  0  0  0  0  0  0
  -19.5590  -28.2820   22.9100 C   0  0  0  0  0  0  0  0  0  0  0  0
  -19.1690  -29.4710   23.5640 C   0  0  0  0  0  3  0  0  0  0  0  0
  -17.8110  -29.8260   23.6660 C   0  0  0  0  0  3  0  0  0  0  0  0
  -16.8230  -28.9860   23.1250 C   0  0  0  0  0  3  0  0  0  0  0  0
  -17.1960  -27.7960   22.4740 C   0  0  0  0  0  3  0  0  0  0  0  0
  -26.0150  -32.3920   24.0650 C   0  0  0  0  0  3  0  0  0  0  0  0
  -25.6290  -33.7570   24.4520 N   0  0  0  0  0  0  0  0  0  0  0  0
  -26.0070  -34.8670   23.8050 C   0  0  0  0  0  0  0  0  0  0  0  0
  -26.7860  -34.8520   22.8490 O   0  0  0  0  0  0  0  0  0  0  0  0
  -24.9470  -33.8400   25.1920 H   0  0  0  0  0  0  0  0  0  0  0  0
  -24.2690  -36.6380   23.3890 C   0  0  0  0  0  1  0  0  0  0  0  0
  -25.4310  -36.2090   24.2990 C   0  0  0  0  0  3  0  0  0  0  0  0
  -27.4340  -37.0900   25.4130 C   0  0  0  0  0  1  0  0  0  0  0  0
  -26.4360  -37.2920   24.3660 N   0  0  0  0  0  0  0  0  0  0  0  0
  -25.9880  -38.1900   24.5260 H   0  0  0  0  0  0  0  0  0  0  0  0
  -26.5070  -31.5760   25.3230 C   0  0  1  0  0  0  0  0  0  0  0  0
  -25.3800  -31.2520   26.3330 C   0  0  0  0  0  1  0  0  0  0  0  0
  -27.1510  -30.2380   24.8910 C   0  0  0  0  0  1  0  0  0  0  0  0
  -27.6030  -32.3720   26.0690 C   0  0  0  0  0  1  0  0  0  0  0  0
  -28.7860  -18.3530   19.9000 C   0  0  0  0  0  3  0  0  0  0  0  0
  -28.0100  -18.5300   18.8090 C   0  0  0  0  0  3  0  0  0  0  0  0
  -27.4250  -17.4300   18.0150 C   0  0  0  0  0  0  0  0  0  0  0  0
  -27.0600  -17.7730   16.5780 C   0  0  0  0  0  1  0  0  0  0  0  0
  -27.2440  -16.2710   18.5180 N   0  0  0  0  0  0  0  0  0  0  0  0
  -26.5980  -14.1020   18.2350 C   0  0  0  0  0  1  0  0  0  0  0  0
  -26.6790  -15.3690   17.6050 O   0  0  0  0  0  0  0  0  0  0  0  0
  -31.3130  -17.7500   21.5090 C   0  0  0  0  0  2  0  0  0  0  0  0
  -31.3510  -15.2390   21.6640 C   0  0  0  0  0  0  0  0  0  0  0  0
  -31.2370  -12.9410   20.7470 C   0  0  0  0  0  2  0  0  0  0  0  0
  -30.5350  -12.9690   19.3730 C   0  0  0  0  0  2  0  0  0  0  0  0
  -29.0140  -12.8240   19.5580 C   0  0  0  0  0  2  0  0  0  0  0  0
  -28.4460  -13.7970   20.6250 C   0  0  0  0  0  3  0  0  0  0  0  0
  -29.2870  -13.7800   21.9200 C   0  0  0  0  0  2  0  0  0  0  0  0
  -30.6800  -14.0510   21.5480 N   0  0  0  0  0  0  0  0  0  0  0  0
  -32.5750  -15.2820   21.5210 O   0  0  0  0  0  0  0  0  0  0  0  0
  -30.6440  -16.4150   21.7040 N   0  0  0  0  0  0  0  0  0  0  0  0
  -29.6390  -16.3790   21.7790 H   0  0  0  0  0  0  0  0  0  0  0  0
  -25.9860  -14.4390   20.9820 C   0  0  0  0  0  0  0  0  0  0  0  0
  -24.8570  -13.6860   21.1530 C   0  0  0  0  0  0  0  0  0  0  0  0
  -25.2860  -12.3240   21.1540 C   0  0  0  0  0  0  0  0  0  0  0  0
  -27.0330  -13.5380   20.8870 N   0  0  0  0  0  0  0  0  0  0  0  0
  -26.6080  -12.2580   21.0550 N   0  0  0  0  0  0  0  0  0  0  0  0
  -24.5100  -11.0770   21.1850 C   0  0  0  0  0  0  0  0  0  0  0  0
  -24.8550  -10.0120   22.0480 C   0  0  0  0  0  3  0  0  0  0  0  0
  -24.0810   -8.8320   22.0730 C   0  0  0  0  0  3  0  0  0  0  0  0
  -22.9470   -8.7090   21.2350 C   0  0  0  0  0  0  0  0  0  0  0  0
  -22.6210   -9.7620   20.3620 C   0  0  0  0  0  3  0  0  0  0  0  0
  -23.3960  -10.9340   20.3340 C   0  0  0  0  0  3  0  0  0  0  0  0
  -22.1520   -7.5900   21.1730 O   0  0  0  0  0  0  0  0  0  0  0  0
  -22.1360   -6.6610   22.1840 C   0  0  0  0  0  0  0  0  0  0  0  0
  -21.8220   -7.0130   23.5140 C   0  0  0  0  0  3  0  0  0  0  0  0
  -21.7490   -6.0160   24.5070 C   0  0  0  0  0  3  0  0  0  0  0  0
  -21.9810   -4.6690   24.1720 C   0  0  0  0  0  0  0  0  0  0  0  0
  -22.2900   -4.3160   22.8460 C   0  0  0  0  0  3  0  0  0  0  0  0
  -22.3630   -5.3100   21.8550 C   0  0  0  0  0  0  0  0  0  0  0  0
  -22.6400   -4.9620   20.5750 F   0  0  0  0  0  0  0  0  0  0  0  0
  -21.9040   -3.7100   25.1230 F   0  0  0  0  0  0  0  0  0  0  0  0
  -23.4450  -14.1950   21.2130 C   0  0  0  0  0  0  0  0  0  0  0  0
  -22.5740  -13.5000   21.9360 N   0  0  0  0  0  0  0  0  0  0  0  0
  -23.1200  -15.2420   20.6550 O   0  0  0  0  0  0  0  0  0  0  0  0
  -22.8460  -12.6530   22.4100 H   0  0  0  0  0  0  0  0  0  0  0  0
  -21.6200  -13.8220   22.0180 H   0  0  0  0  0  0  0  0  0  0  0  0
  -26.2070  -15.8090   20.8730 N   0  0  0  0  0  0  0  0  0  0  0  0
  -25.4430  -16.4750   20.8680 H   0  0  0  0  0  0  0  0  0  0  0  0
  -27.0990  -16.2310   20.6500 H   0  0  0  0  0  0  0  0  0  0  0  0
  2  1  1  0
  3  4  2  0
  3  6  1  0
  4  5  1  0
  5 62  1  0
  5  1  2  0
  6 11  1  0
  6  2  2  0
  7 12  2  0
  7  8  1  0
  9  8  1  0
 10 13  1  0
 10 11  1  0
 10  9  1  0
 11  7  1  0
 13 14  1  0
 15 26  2  0
 16 14  1  0
 16 21  1  0
 17 25  1  0
 17 27  1  0
 18 24  1  0
 18 20  1  0
 19 25  1  0
 20 19  1  0
 21 20  2  0
 22 23  1  0
 22 16  2  0
 23 18  2  0
 24 17  1  0
 25 15  1  0
 27 29  2  0
 28 27  1  0
 30 28  1  0
 31 40  2  0
 31 36  1  0
 32 28  1  0
 32 36  1  0
 33 32  1  0
 34 35  1  0
 34 33  1  0
 35 31  1  0
 36 37  2  0
 37 38  1  0
 39 38  2  0
 40 39  1  0
 41 15  1  0
 41 42  1  0
 41 51  1  0
 42 45  1  0
 43 47  1  0
 43 42  1  0
 44 43  2  0
 47 46  1  0
 47 49  1  0
 49 50  1  0
 49 48  1  0
 51 54  1  1
 51 52  1  0
 53 51  1  0
 55  4  1  0
 56 55  2  0
 57 59  2  0
 57 56  1  0
 58 57  1  0
 61 60  1  0
 61 59  1  0
 62 71  1  0
 63 71  1  0
 64 69  1  0
 65 66  1  0
 65 64  1  0
 67 66  1  0
 67 76  1  0
 67 68  1  0
 69 63  1  0
 69 68  1  0
 70 63  2  0
 71 72  1  0
 73 74  2  0
 74 75  1  0
 74 93  1  0
 75 78  1  0
 76 73  1  0
 76 77  1  0
 77 75  2  0
 78 79  1  0
 79 80  2  0
 81 80  1  0
 82 81  2  0
 83 82  1  0
 83 78  2  0
 84 81  1  0
 84 85  1  0
 85 86  1  0
 86 87  2  0
 88 87  1  0
 88 92  1  0
 89 88  2  0
 90 85  2  0
 90 89  1  0
 91 90  1  0
 93 94  1  0
 94 97  1  0
 94 96  1  0
 95 93  2  0
 98 73  1  0
 99 98  1  0
100 98  1  0
M  ISO  4  13 101  14 101  63 100  71 100
M  END
>  <TORSDO>  (26) 
F 22

>  <SCORE>  (26) 
-0.863

>  <name>  (26) 
26

>  <ligand_id>  (26) 
26

>  <original_smiles>  (26) 
[H]C(C(=NOC([H])([H])[H])C([H])([H])[H])=C([H])c1c([H])c(N2C(=O)C([H])([H])C([H])([H])C2([H])C([H])([H])Oc2c([H])c([H])c3c(c2[H])C([H])([H])N(C(=O)C([H])(N([H])C(=O)C([H])(N([H])C([H])([H])[H])C([H])([H])[H])C(C([H])([H])[H])(C([H])([H])[H])C([H])([H])[H])C([H])(C(=O)N([H])C2([H])c4c([H])c([H])c([H])c([H])c4C([H])([H])C([H])([H])C2([H])[H])C3([H])[H])c([H])c([H])c1C([H])([H])N([H])C(=O)N1C([H])([H])C([H])([H])C([H])([H])C([H])(n2nc(-c3c([H])c([H])c(Oc4c([H])c([H])c(F)c([H])c4F)c([H])c3[H])c(C(=O)N([H])[H])c2N([H])[H])C1([H])[H]

>  <smiles>  (26) 
[H]C(C(=NOC([H])([H])[H])C([H])([H])[H])=C([H])c1c([H])c(N2C(=O)C([H])([H])C([H])([H])C2([H])C([H])([H])Oc2c([H])c([H])c3c(c2[H])C([H])([H])N(C(=O)C([H])(N([H])C(=O)C([H])(N([H])C([H])([H])[H])C([H])([H])[H])C(C([H])([H])[H])(C([H])([H])[H])C([H])([H])[H])C([H])(C(=O)N([H])C2([H])c4c([H])c([H])c([H])c([H])c4C([H])([H])C([H])([H])C2([H])[H])C3([H])[H])c([H])c([H])c1C([H])([H])N([H])C(=O)N1C([H])([H])C([H])([H])C([H])([H])C([H])(n2nc(-c3c([H])c([H])c(Oc4c([H])c([H])c(F)c([H])c4F)c([H])c3[H])c(C(=O)N([H])[H])c2N([H])[H])C1([H])[H]

$$$$
27:0:0
     RDKit          3D

 94102  0  0  1  0  0  0  0  0999 V2000
  -29.8750  -20.7820   21.7330 C   0  0  0  0  0  3  0  0  0  0  0  0
  -30.3620  -19.4250   21.8020 C   0  0  0  0  0  0  0  0  0  0  0  0
  -29.1430  -20.9750   20.5950 C   0  0  0  0  0  0  0  0  0  0  0  0
  -29.8910  -18.7440   20.6910 C   0  0  0  0  0  0  0  0  0  0  0  0
  -29.1580  -19.7110   19.9450 O   0  0  0  0  0  0  0  0  0  0  0  0
  -28.4330  -22.1860   20.0540 C   0  0  0  0  0  3  0  0  0  0  0  0
  -28.4030  -23.5430   20.3970 C   0  0  0  0  0  3  0  0  0  0  0  0
  -27.4730  -24.7030   19.8080 C   0  0  0  0  0  2  0  0  0  0  0  0
  -27.7920  -26.1840   19.9240 O   0  0  0  0  0  0  0  0  0  0  0  0
  -24.5090  -31.8040   23.1560 C   0  0  0  0  0  0  0  0  0  0  0  0
  -26.7360  -27.1420   19.8970 C   0  0  0  0  0  0  0  0  0  0  0  0
  -23.1470  -30.4590   21.5970 C   0  0  0  0  0  3  0  0  0  0  0  0
  -24.4430  -28.8870   20.0430 C   0  0  0  0  0  0  0  0  0  0  0  0
  -25.6780  -30.6900   21.2340 C   0  0  0  0  0  2  0  0  0  0  0  0
  -25.6670  -29.3090   20.5780 C   0  0  0  0  0  0  0  0  0  0  0  0
  -26.8120  -28.4470   20.5030 C   0  0  0  0  0  3  0  0  0  0  0  0
  -25.4980  -26.8230   19.2920 C   0  0  0  0  0  3  0  0  0  0  0  0
  -24.3660  -27.6560   19.3810 C   0  0  0  0  0  3  0  0  0  0  0  0
  -23.2420  -29.8020   20.1950 C   0  0  0  0  0  2  0  0  0  0  0  0
  -24.4690  -31.0030   22.0510 N   0  0  0  0  0  0  0  0  0  0  0  0
  -23.4770  -32.1090   23.7700 O   0  0  0  0  0  0  0  0  0  0  0  0
  -22.5250  -29.4510   22.5960 C   0  0  0  0  0  0  0  0  0  0  0  0
  -21.2090  -29.2070   22.4730 N   0  0  0  0  0  0  0  0  0  0  0  0
  -23.2280  -28.8970   23.4460 O   0  0  0  0  0  0  0  0  0  0  0  0
  -20.6980  -29.7040   21.7550 H   0  0  0  0  0  0  0  0  0  0  0  0
  -17.9340  -27.7220   22.8900 C   0  0  0  0  0  0  0  0  0  0  0  0
  -20.4330  -28.2640   23.2820 C   0  0  0  0  0  3  0  0  0  0  0  0
  -20.7110  -26.8050   22.8530 C   0  0  0  0  0  2  0  0  0  0  0  0
  -19.7150  -26.2820   21.8110 C   0  0  0  0  0  2  0  0  0  0  0  0
  -18.2870  -26.3430   22.3560 C   0  0  0  0  0  2  0  0  0  0  0  0
  -18.9440  -28.6280   23.3110 C   0  0  0  0  0  0  0  0  0  0  0  0
  -18.5670  -29.9090   23.7710 C   0  0  0  0  0  3  0  0  0  0  0  0
  -17.2110  -30.2890   23.8110 C   0  0  0  0  0  3  0  0  0  0  0  0
  -16.2160  -29.3820   23.4060 C   0  0  0  0  0  3  0  0  0  0  0  0
  -16.5770  -28.1020   22.9530 C   0  0  0  0  0  3  0  0  0  0  0  0
  -25.8520  -32.3940   23.6830 C   0  0  0  0  0  3  0  0  0  0  0  0
  -25.5980  -33.7840   24.0850 N   0  0  0  0  0  0  0  0  0  0  0  0
  -25.9110  -34.8610   23.3510 C   0  0  0  0  0  0  0  0  0  0  0  0
  -26.5180  -34.7860   22.2780 O   0  0  0  0  0  0  0  0  0  0  0  0
  -25.0520  -33.9200   24.9230 H   0  0  0  0  0  0  0  0  0  0  0  0
  -24.2100  -36.7100   23.1750 C   0  0  0  0  0  1  0  0  0  0  0  0
  -25.4860  -36.2410   23.8910 C   0  0  0  0  0  3  0  0  0  0  0  0
  -27.6890  -37.0450   24.6230 C   0  0  0  0  0  1  0  0  0  0  0  0
  -26.5350  -37.2760   23.7590 N   0  0  0  0  0  0  0  0  0  0  0  0
  -26.1580  -38.1950   23.9690 H   0  0  0  0  0  0  0  0  0  0  0  0
  -26.4650  -31.5680   24.8800 C   0  0  1  0  0  0  0  0  0  0  0  0
  -25.4610  -31.2930   26.0220 C   0  0  0  0  0  1  0  0  0  0  0  0
  -27.0000  -30.2010   24.3910 C   0  0  0  0  0  1  0  0  0  0  0  0
  -27.6790  -32.3230   25.4720 C   0  0  0  0  0  1  0  0  0  0  0  0
  -30.1500  -17.3500   20.1600 C   0  0  0  0  0  3  0  0  0  0  0  0
  -30.0180  -16.0290   20.6150 C   0  0  0  0  0  3  0  0  0  0  0  0
  -30.5840  -14.7980   19.9180 C   0  0  0  0  0  0  0  0  0  0  0  0
  -30.2380  -12.5430   18.8520 C   0  0  0  0  0  2  0  0  0  0  0  0
  -29.2170  -12.6450   17.6950 C   0  0  0  0  0  2  0  0  0  0  0  0
  -27.7890  -12.4350   18.2270 C   0  0  0  0  0  2  0  0  0  0  0  0
  -27.5070  -13.3020   19.4820 C   0  0  0  0  0  3  0  0  0  0  0  0
  -28.6460  -13.2160   20.5270 C   0  0  0  0  0  2  0  0  0  0  0  0
  -29.9050  -13.5850   19.8640 N   0  0  0  0  0  0  0  0  0  0  0  0
  -31.6720  -14.8610   19.3360 O   0  0  0  0  0  0  0  0  0  0  0  0
  -25.1880  -13.8740   20.4180 C   0  0  0  0  0  0  0  0  0  0  0  0
  -24.1490  -13.0940   20.8420 C   0  0  0  0  0  0  0  0  0  0  0  0
  -24.5920  -11.7410   20.7200 C   0  0  0  0  0  0  0  0  0  0  0  0
  -26.2030  -12.9970   20.0640 N   0  0  0  0  0  0  0  0  0  0  0  0
  -25.8540  -11.7060   20.3070 N   0  0  0  0  0  0  0  0  0  0  0  0
  -23.8660  -10.4790   20.9220 C   0  0  0  0  0  0  0  0  0  0  0  0
  -24.3200   -9.5100   21.8460 C   0  0  0  0  0  3  0  0  0  0  0  0
  -23.5960   -8.3130   22.0400 C   0  0  0  0  0  3  0  0  0  0  0  0
  -22.4050   -8.0770   21.3120 C   0  0  0  0  0  0  0  0  0  0  0  0
  -21.9700   -9.0330   20.3800 C   0  0  0  0  0  3  0  0  0  0  0  0
  -22.6920  -10.2230   20.1820 C   0  0  0  0  0  3  0  0  0  0  0  0
  -21.6500   -6.9320   21.4160 O   0  0  0  0  0  0  0  0  0  0  0  0
  -21.5770   -6.2220   22.5880 C   0  0  0  0  0  0  0  0  0  0  0  0
  -21.1250   -6.8120   23.7910 C   0  0  0  0  0  3  0  0  0  0  0  0
  -21.0000   -6.0270   24.9550 C   0  0  0  0  0  3  0  0  0  0  0  0
  -21.3170   -4.6540   24.9180 C   0  0  0  0  0  0  0  0  0  0  0  0
  -21.7610   -4.0670   23.7210 C   0  0  0  0  0  3  0  0  0  0  0  0
  -21.8900   -4.8500   22.5600 C   0  0  0  0  0  0  0  0  0  0  0  0
  -22.2970   -4.2740   21.4040 F   0  0  0  0  0  0  0  0  0  0  0  0
  -21.1910   -3.9000   26.0350 F   0  0  0  0  0  0  0  0  0  0  0  0
  -22.7840  -13.5720   21.2460 C   0  0  0  0  0  0  0  0  0  0  0  0
  -22.1300  -12.8570   22.1570 N   0  0  0  0  0  0  0  0  0  0  0  0
  -22.3120  -14.6130   20.7890 O   0  0  0  0  0  0  0  0  0  0  0  0
  -22.5290  -12.0160   22.5480 H   0  0  0  0  0  0  0  0  0  0  0  0
  -21.2140  -13.1520   22.4650 H   0  0  0  0  0  0  0  0  0  0  0  0
  -25.3530  -15.2470   20.2810 N   0  0  0  0  0  0  0  0  0  0  0  0
  -24.6060  -15.9020   20.4930 H   0  0  0  0  0  0  0  0  0  0  0  0
  -26.1910  -15.6940   19.9290 H   0  0  0  0  0  0  0  0  0  0  0  0
  -31.2840  -18.9140   22.8960 C   0  0  0  0  0  2  0  0  0  0  0  0
  -33.5770  -19.6930   22.2720 C   0  0  0  0  0  0  0  0  0  0  0  0
  -32.4910  -19.7370   23.0530 N   0  0  0  0  0  0  0  0  0  0  0  0
  -33.7110  -18.8710   21.3650 O   0  0  0  0  0  0  0  0  0  0  0  0
  -32.4690  -20.4510   23.7680 H   0  0  0  0  0  0  0  0  0  0  0  0
  -35.5760  -21.0140   21.8090 C   0  0  0  0  0  2  0  0  0  0  0  0
  -34.5400  -20.7250   22.6200 C   0  0  0  0  0  3  0  0  0  0  0  0
  1  2  1  0
  2 88  1  0
  3  1  2  0
  4  2  2  0
  5  3  1  0
  5  4  1  0
  6  7  2  0
  6  3  1  0
  8  9  1  0
  8  7  1  0
 10 21  2  0
 11  9  1  0
 11 16  1  0
 12 20  1  0
 12 22  1  0
 13 19  1  0
 13 15  1  0
 14 20  1  0
 15 14  1  0
 16 15  2  0
 17 18  1  0
 17 11  2  0
 18 13  2  0
 19 12  1  0
 20 10  1  0
 22 24  2  0
 23 22  1  0
 25 23  1  0
 26 35  2  0
 26 31  1  0
 27 23  1  0
 27 31  1  0
 28 27  1  0
 29 30  1  0
 29 28  1  0
 30 26  1  0
 31 32  2  0
 32 33  1  0
 34 33  2  0
 35 34  1  0
 36 10  1  0
 36 37  1  0
 36 46  1  0
 37 40  1  0
 38 42  1  0
 38 37  1  0
 39 38  2  0
 42 41  1  0
 44 42  1  0
 44 45  1  0
 44 43  1  0
 46 49  1  1
 46 47  1  0
 48 46  1  0
 50 51  2  0
 50  4  1  0
 52 51  1  0
 53 58  1  0
 54 55  1  0
 54 53  1  0
 56 55  1  0
 56 63  1  0
 56 57  1  0
 58 52  1  0
 58 57  1  0
 59 52  2  0
 60 61  2  0
 61 80  1  0
 62 61  1  0
 62 65  1  0
 63 64  1  0
 63 60  1  0
 64 62  2  0
 65 66  1  0
 66 67  2  0
 68 71  1  0
 68 67  1  0
 69 68  2  0
 70 69  1  0
 70 65  2  0
 71 72  1  0
 72 73  1  0
 73 74  2  0
 75 74  1  0
 75 79  1  0
 76 75  2  0
 77 72  2  0
 77 76  1  0
 78 77  1  0
 80 81  1  0
 81 84  1  0
 81 83  1  0
 82 80  2  0
 85 60  1  0
 85 86  1  0
 87 85  1  0
 88 90  1  0
 89 94  1  0
 89 90  1  0
 90 92  1  0
 91 89  2  0
 93 94  2  0
M  ISO  4   8 101   9 101  51 100  52 100
M  END
>  <TORSDO>  (27) 
F 22

>  <SCORE>  (27) 
-12.570

>  <name>  (27) 
27

>  <ligand_id>  (27) 
27

>  <original_smiles>  (27) 
[H]C([H])=C([H])C(=O)N([H])C([H])([H])c1c(C([H])=C([H])C(=O)N2C([H])([H])C([H])([H])C([H])([H])C([H])(n3nc(-c4c([H])c([H])c(Oc5c([H])c([H])c(F)c([H])c5F)c([H])c4[H])c(C(=O)N([H])[H])c3N([H])[H])C2([H])[H])oc(C([H])=C([H])C([H])([H])Oc2c([H])c([H])c3c(c2[H])C([H])([H])N(C(=O)C([H])(N([H])C(=O)C([H])(N([H])C([H])([H])[H])C([H])([H])[H])C(C([H])([H])[H])(C([H])([H])[H])C([H])([H])[H])C([H])(C(=O)N([H])C2([H])c4c([H])c([H])c([H])c([H])c4C([H])([H])C([H])([H])C2([H])[H])C3([H])[H])c1[H]

>  <smiles>  (27) 
[H]C([H])=C([H])C(=O)N([H])C([H])([H])c1c(C([H])=C([H])C(=O)N2C([H])([H])C([H])([H])C([H])([H])C([H])(n3nc(-c4c([H])c([H])c(Oc5c([H])c([H])c(F)c([H])c5F)c([H])c4[H])c(C(=O)N([H])[H])c3N([H])[H])C2([H])[H])oc(C([H])=C([H])C([H])([H])Oc2c([H])c([H])c3c(c2[H])C([H])([H])N(C(=O)C([H])(N([H])C(=O)C([H])(N([H])C([H])([H])[H])C([H])([H])[H])C(C([H])([H])[H])(C([H])([H])[H])C([H])([H])[H])C([H])(C(=O)N([H])C2([H])c4c([H])c([H])c([H])c([H])c4C([H])([H])C([H])([H])C2([H])[H])C3([H])[H])c1[H]

$$$$
28:0:0
     RDKit          3D

 92100  0  0  1  0  0  0  0  0999 V2000
  -29.6240  -18.8600   20.3710 C   0  0  0  0  0  3  0  0  0  0  0  0
  -30.9340  -18.3380   18.4950 C   0  0  0  0  0  3  0  0  0  0  0  0
  -29.3660  -20.2040   19.8700 C   0  0  0  0  0  0  0  0  0  0  0  0
  -29.8650  -20.6870   18.6000 C   0  0  0  0  0  0  0  0  0  0  0  0
  -30.3850  -17.8350   19.7250 C   0  0  0  0  0  0  0  0  0  0  0  0
  -30.6760  -19.6760   17.9570 C   0  0  0  0  0  0  0  0  0  0  0  0
  -31.1900  -19.9620   16.7360 F   0  0  0  0  0  0  0  0  0  0  0  0
  -31.2600  -15.3110   20.5100 C   0  0  0  0  0  0  0  0  0  0  0  0
  -31.2960  -12.7800   20.3670 C   0  0  0  0  0  2  0  0  0  0  0  0
  -30.5750  -12.3310   19.0730 C   0  0  0  0  0  2  0  0  0  0  0  0
  -29.0550  -12.2160   19.2990 C   0  0  0  0  0  2  0  0  0  0  0  0
  -28.4770  -13.4430   20.0500 C   0  0  0  0  0  3  0  0  0  0  0  0
  -29.3290  -13.8180   21.2820 C   0  0  0  0  0  2  0  0  0  0  0  0
  -30.6970  -14.0720   20.8060 N   0  0  0  0  0  0  0  0  0  0  0  0
  -32.4800  -15.3630   20.3180 O   0  0  0  0  0  0  0  0  0  0  0  0
  -30.3980  -16.4170   20.3220 N   0  0  0  0  0  0  0  0  0  0  0  0
  -29.4860  -16.1620   20.6730 H   0  0  0  0  0  0  0  0  0  0  0  0
  -26.0830  -14.2360   20.5020 C   0  0  0  0  0  0  0  0  0  0  0  0
  -24.9200  -13.5590   20.7470 C   0  0  0  0  0  0  0  0  0  0  0  0
  -25.2640  -12.1730   20.7690 C   0  0  0  0  0  0  0  0  0  0  0  0
  -27.0670  -13.2690   20.3850 N   0  0  0  0  0  0  0  0  0  0  0  0
  -26.5750  -12.0220   20.6090 N   0  0  0  0  0  0  0  0  0  0  0  0
  -24.4140  -10.9800   20.8730 C   0  0  0  0  0  0  0  0  0  0  0  0
  -24.6740   -9.9670   21.8220 C   0  0  0  0  0  3  0  0  0  0  0  0
  -23.8290   -8.8400   21.9170 C   0  0  0  0  0  3  0  0  0  0  0  0
  -22.7110   -8.7180   21.0610 C   0  0  0  0  0  0  0  0  0  0  0  0
  -22.4680   -9.7180   20.1020 C   0  0  0  0  0  3  0  0  0  0  0  0
  -23.3130  -10.8360   20.0050 C   0  0  0  0  0  3  0  0  0  0  0  0
  -21.8510   -7.6460   21.0620 O   0  0  0  0  0  0  0  0  0  0  0  0
  -21.6720   -6.8680   22.1790 C   0  0  0  0  0  0  0  0  0  0  0  0
  -21.1780   -7.4040   23.3880 C   0  0  0  0  0  3  0  0  0  0  0  0
  -20.9430   -6.5570   24.4890 C   0  0  0  0  0  3  0  0  0  0  0  0
  -21.1920   -5.1750   24.3820 C   0  0  0  0  0  0  0  0  0  0  0  0
  -21.6800   -4.6390   23.1770 C   0  0  0  0  0  3  0  0  0  0  0  0
  -21.9170   -5.4840   22.0770 C   0  0  0  0  0  0  0  0  0  0  0  0
  -22.3650   -4.9600   20.9120 F   0  0  0  0  0  0  0  0  0  0  0  0
  -20.9600   -4.3600   25.4370 F   0  0  0  0  0  0  0  0  0  0  0  0
  -23.5470  -14.1580   20.8540 C   0  0  0  0  0  0  0  0  0  0  0  0
  -22.6680  -13.5410   21.6350 N   0  0  0  0  0  0  0  0  0  0  0  0
  -23.2610  -15.2090   20.2800 O   0  0  0  0  0  0  0  0  0  0  0  0
  -22.9090  -12.6910   22.1230 H   0  0  0  0  0  0  0  0  0  0  0  0
  -21.7410  -13.9260   21.7490 H   0  0  0  0  0  0  0  0  0  0  0  0
  -26.3840  -15.5860   20.3440 N   0  0  0  0  0  0  0  0  0  0  0  0
  -25.6630  -16.3000   20.3600 H   0  0  0  0  0  0  0  0  0  0  0  0
  -27.2890  -15.9450   20.0720 H   0  0  0  0  0  0  0  0  0  0  0  0
  -28.5510  -21.1820   22.0570 C   0  0  0  0  0  2  0  0  0  0  0  0
  -28.5490  -21.1120   20.7140 C   0  0  0  0  0  3  0  0  0  0  0  0
  -29.2410  -21.9990   17.8660 C   0  0  0  0  0  0  0  0  0  0  0  0
  -28.3460  -21.7160   17.0640 O   0  0  0  0  0  0  0  0  0  0  0  0
  -29.5210  -23.5650   17.9900 C   0  0  0  0  0  3  0  0  0  0  0  0
  -28.5250  -24.5780   17.9170 C   0  0  0  0  0  3  0  0  0  0  0  0
  -28.5550  -26.0490   17.9350 O   0  0  0  0  0  0  0  0  0  0  0  0
  -24.7040  -30.3950   22.4980 C   0  0  0  0  0  0  0  0  0  0  0  0
  -27.3930  -26.8680   18.2050 C   0  0  0  0  0  0  0  0  0  0  0  0
  -23.4700  -29.2400   20.7040 C   0  0  0  0  0  3  0  0  0  0  0  0
  -24.8950  -28.2380   18.8150 C   0  0  0  0  0  0  0  0  0  0  0  0
  -25.9380  -29.8810   20.3620 C   0  0  0  0  0  2  0  0  0  0  0  0
  -26.0840  -28.6890   19.4010 C   0  0  0  0  0  0  0  0  0  0  0  0
  -27.3270  -28.0160   19.0950 C   0  0  0  0  0  3  0  0  0  0  0  0
  -26.1640  -26.5480   17.5820 C   0  0  0  0  0  3  0  0  0  0  0  0
  -24.9440  -27.1840   17.8930 C   0  0  0  0  0  3  0  0  0  0  0  0
  -23.5900  -28.9210   19.1910 C   0  0  0  0  0  2  0  0  0  0  0  0
  -24.7280  -29.8510   21.2440 N   0  0  0  0  0  0  0  0  0  0  0  0
  -23.6680  -30.4050   23.1810 O   0  0  0  0  0  0  0  0  0  0  0  0
  -23.0380  -27.9620   21.4650 C   0  0  0  0  0  0  0  0  0  0  0  0
  -21.7420  -27.6080   21.3820 N   0  0  0  0  0  0  0  0  0  0  0  0
  -23.8660  -27.2980   22.0940 O   0  0  0  0  0  0  0  0  0  0  0  0
  -21.1200  -28.2060   20.8570 H   0  0  0  0  0  0  0  0  0  0  0  0
  -18.6400  -25.7800   21.7810 C   0  0  0  0  0  0  0  0  0  0  0  0
  -21.1400  -26.4140   21.9830 C   0  0  0  0  0  3  0  0  0  0  0  0
  -21.4200  -25.1570   21.1260 C   0  0  0  0  0  2  0  0  0  0  0  0
  -20.3070  -24.8550   20.1160 C   0  0  0  0  0  2  0  0  0  0  0  0
  -18.9740  -24.6370   20.8370 C   0  0  0  0  0  2  0  0  0  0  0  0
  -19.6550  -26.6240   22.3060 C   0  0  0  0  0  0  0  0  0  0  0  0
  -19.2860  -27.6900   23.1550 C   0  0  0  0  0  3  0  0  0  0  0  0
  -17.9360  -27.9190   23.4790 C   0  0  0  0  0  3  0  0  0  0  0  0
  -16.9370  -27.0720   22.9670 C   0  0  0  0  0  3  0  0  0  0  0  0
  -17.2900  -26.0030   22.1240 C   0  0  0  0  0  3  0  0  0  0  0  0
  -25.9720  -31.0490   23.1270 C   0  0  0  0  0  3  0  0  0  0  0  0
  -26.7250  -30.0960   24.1360 C   0  0  1  0  0  0  0  0  0  0  0  0
  -25.8060  -29.4890   25.2220 C   0  0  0  0  0  1  0  0  0  0  0  0
  -27.4030  -28.9250   23.3890 C   0  0  0  0  0  1  0  0  0  0  0  0
  -27.8540  -30.8770   24.8490 C   0  0  0  0  0  1  0  0  0  0  0  0
  -25.5470  -32.2830   23.8080 N   0  0  0  0  0  0  0  0  0  0  0  0
  -25.6870  -33.5180   23.3090 C   0  0  0  0  0  0  0  0  0  0  0  0
  -26.2550  -33.7440   22.2380 O   0  0  0  0  0  0  0  0  0  0  0  0
  -25.0240  -32.1680   24.6640 H   0  0  0  0  0  0  0  0  0  0  0  0
  -23.7540  -35.1140   23.5360 C   0  0  0  0  0  1  0  0  0  0  0  0
  -25.1070  -34.6890   24.1290 C   0  0  0  0  0  3  0  0  0  0  0  0
  -27.2040  -35.6220   25.0030 C   0  0  0  0  0  1  0  0  0  0  0  0
  -26.0080  -35.8610   24.2000 N   0  0  0  0  0  0  0  0  0  0  0  0
  -25.5220  -36.6660   24.5850 H   0  0  0  0  0  0  0  0  0  0  0  0
  2  5  1  0
  3  1  1  0
  3 47  1  0
  4  3  2  0
  5 16  1  0
  5  1  2  0
  6  2  2  0
  6  4  1  0
  7  6  1  0
  8 14  1  0
  9 14  1  0
 10 11  1  0
 10  9  1  0
 12 11  1  0
 12 21  1  0
 12 13  1  0
 14 13  1  0
 15  8  2  0
 16  8  1  0
 16 17  1  0
 18 19  2  0
 19 20  1  0
 19 38  1  0
 20 23  1  0
 21 18  1  0
 21 22  1  0
 22 20  2  0
 23 24  1  0
 24 25  2  0
 26 29  1  0
 26 25  1  0
 27 26  2  0
 28 27  1  0
 28 23  2  0
 29 30  1  0
 30 31  1  0
 31 32  2  0
 33 32  1  0
 33 37  1  0
 34 33  2  0
 35 30  2  0
 35 34  1  0
 36 35  1  0
 38 39  1  0
 39 42  1  0
 39 41  1  0
 40 38  2  0
 43 44  1  0
 43 18  1  0
 45 43  1  0
 47 46  2  0
 48 50  1  0
 48  4  1  0
 49 48  2  0
 51 52  1  0
 51 50  2  0
 52 54  1  0
 53 64  2  0
 54 59  1  0
 55 63  1  0
 55 65  1  0
 56 62  1  0
 56 58  1  0
 57 63  1  0
 58 57  1  0
 59 58  2  0
 60 61  1  0
 60 54  2  0
 61 56  2  0
 62 55  1  0
 63 53  1  0
 65 67  2  0
 66 65  1  0
 68 66  1  0
 69 78  2  0
 69 74  1  0
 70 66  1  0
 70 74  1  0
 71 70  1  0
 72 73  1  0
 72 71  1  0
 73 69  1  0
 74 75  2  0
 75 76  1  0
 77 76  2  0
 78 77  1  0
 79 53  1  0
 79 84  1  0
 79 80  1  0
 80 83  1  1
 80 81  1  0
 82 80  1  0
 84 87  1  0
 85 84  1  0
 85 89  1  0
 86 85  2  0
 89 88  1  0
 89 91  1  0
 91 92  1  0
 91 90  1  0
M  ISO  4   8 100  16 100  51 101  52 101
M  END
>  <TORSDO>  (28) 
F 19

>  <SCORE>  (28) 
-9.312

>  <name>  (28) 
28

>  <ligand_id>  (28) 
28

>  <original_smiles>  (28) 
[H]C([H])=C([H])c1c([H])c(N([H])C(=O)N2C([H])([H])C([H])([H])C([H])([H])C([H])(n3nc(-c4c([H])c([H])c(Oc5c([H])c([H])c(F)c([H])c5F)c([H])c4[H])c(C(=O)N([H])[H])c3N([H])[H])C2([H])[H])c([H])c(F)c1C(=O)C([H])=C([H])Oc1c([H])c([H])c2c(c1[H])C([H])([H])N(C(=O)C([H])(N([H])C(=O)C([H])(N([H])C([H])([H])[H])C([H])([H])[H])C(C([H])([H])[H])(C([H])([H])[H])C([H])([H])[H])C([H])(C(=O)N([H])C1([H])c3c([H])c([H])c([H])c([H])c3C([H])([H])C([H])([H])C1([H])[H])C2([H])[H]

>  <smiles>  (28) 
[H]C([H])=C([H])c1c([H])c(N([H])C(=O)N2C([H])([H])C([H])([H])C([H])([H])C([H])(n3nc(-c4c([H])c([H])c(Oc5c([H])c([H])c(F)c([H])c5F)c([H])c4[H])c(C(=O)N([H])[H])c3N([H])[H])C2([H])[H])c([H])c(F)c1C(=O)C([H])=C([H])Oc1c([H])c([H])c2c(c1[H])C([H])([H])N(C(=O)C([H])(N([H])C(=O)C([H])(N([H])C([H])([H])[H])C([H])([H])[H])C(C([H])([H])[H])(C([H])([H])[H])C([H])([H])[H])C([H])(C(=O)N([H])C1([H])c3c([H])c([H])c([H])c([H])c3C([H])([H])C([H])([H])C1([H])[H])C2([H])[H]

$$$$
29:0:0
     RDKit          3D

 93101  0  0  1  0  0  0  0  0999 V2000
  -28.3820  -20.0660   20.2850 C   0  0  0  0  0  3  0  0  0  0  0  0
  -31.1040  -19.7050   20.5180 C   0  0  0  0  0  3  0  0  0  0  0  0
  -28.9050  -18.7240   20.3230 C   0  0  0  0  0  0  0  0  0  0  0  0
  -30.3180  -18.5190   20.4140 C   0  0  0  0  0  0  0  0  0  0  0  0
  -29.1720  -21.2470   20.4020 C   0  0  0  0  0  0  0  0  0  0  0  0
  -30.5670  -21.0230   20.5210 C   0  0  0  0  0  0  0  0  0  0  0  0
  -31.4160  -22.0750   20.6170 F   0  0  0  0  0  0  0  0  0  0  0  0
  -31.1080  -14.7140   20.2810 C   0  0  0  0  0  0  0  0  0  0  0  0
  -30.7810  -12.4360   19.3350 C   0  0  0  0  0  2  0  0  0  0  0  0
  -29.8420  -12.4870   18.1140 C   0  0  0  0  0  2  0  0  0  0  0  0
  -28.3770  -12.3490   18.5660 C   0  0  0  0  0  2  0  0  0  0  0  0
  -28.0240  -13.2860   19.7530 C   0  0  0  0  0  3  0  0  0  0  0  0
  -29.0960  -13.2580   20.8650 C   0  0  0  0  0  2  0  0  0  0  0  0
  -30.3890  -13.5450   20.2340 N   0  0  0  0  0  0  0  0  0  0  0  0
  -32.2930  -14.6860   19.9420 O   0  0  0  0  0  0  0  0  0  0  0  0
  -31.0480  -17.1590   20.5890 C   0  0  0  0  0  0  0  0  0  0  0  0
  -30.4510  -15.9180   20.4710 N   0  0  0  0  0  0  0  0  0  0  0  0
  -32.2590  -17.2700   20.8190 O   0  0  0  0  0  0  0  0  0  0  0  0
  -29.4460  -15.8950   20.4540 H   0  0  0  0  0  0  0  0  0  0  0  0
  -25.6730  -13.9090   20.5650 C   0  0  0  0  0  0  0  0  0  0  0  0
  -24.5970  -13.1500   20.9360 C   0  0  0  0  0  0  0  0  0  0  0  0
  -25.0240  -11.7900   20.8460 C   0  0  0  0  0  0  0  0  0  0  0  0
  -26.6880  -13.0130   20.2730 N   0  0  0  0  0  0  0  0  0  0  0  0
  -26.3060  -11.7300   20.5050 N   0  0  0  0  0  0  0  0  0  0  0  0
  -24.2680  -10.5400   21.0100 C   0  0  0  0  0  0  0  0  0  0  0  0
  -24.6250   -9.5830   21.9840 C   0  0  0  0  0  3  0  0  0  0  0  0
  -23.8720   -8.3990   22.1340 C   0  0  0  0  0  3  0  0  0  0  0  0
  -22.7460   -8.1640   21.3100 C   0  0  0  0  0  0  0  0  0  0  0  0
  -22.4080   -9.1100   20.3250 C   0  0  0  0  0  3  0  0  0  0  0  0
  -23.1620  -10.2850   20.1740 C   0  0  0  0  0  3  0  0  0  0  0  0
  -21.9700   -7.0330   21.3690 O   0  0  0  0  0  0  0  0  0  0  0  0
  -21.7240   -6.3880   22.5540 C   0  0  0  0  0  0  0  0  0  0  0  0
  -21.0980   -7.0380   23.6400 C   0  0  0  0  0  3  0  0  0  0  0  0
  -20.8020   -6.3190   24.8160 C   0  0  0  0  0  3  0  0  0  0  0  0
  -21.1210   -4.9510   24.9040 C   0  0  0  0  0  0  0  0  0  0  0  0
  -21.7400   -4.3000   23.8220 C   0  0  0  0  0  3  0  0  0  0  0  0
  -22.0370   -5.0170   22.6480 C   0  0  0  0  0  0  0  0  0  0  0  0
  -22.6140   -4.3810   21.6010 F   0  0  0  0  0  0  0  0  0  0  0  0
  -20.8300   -4.2570   26.0290 F   0  0  0  0  0  0  0  0  0  0  0  0
  -23.2200  -13.6550   21.2550 C   0  0  0  0  0  0  0  0  0  0  0  0
  -22.5030  -12.9580   22.1310 N   0  0  0  0  0  0  0  0  0  0  0  0
  -22.7910  -14.6990   20.7670 O   0  0  0  0  0  0  0  0  0  0  0  0
  -22.8630  -12.1130   22.5470 H   0  0  0  0  0  0  0  0  0  0  0  0
  -21.5800  -13.2760   22.3890 H   0  0  0  0  0  0  0  0  0  0  0  0
  -25.8670  -15.2790   20.4250 N   0  0  0  0  0  0  0  0  0  0  0  0
  -25.1230  -15.9490   20.5810 H   0  0  0  0  0  0  0  0  0  0  0  0
  -26.7200  -15.7100   20.0930 H   0  0  0  0  0  0  0  0  0  0  0  0
  -26.8740  -17.4700   19.5000 C   0  0  0  0  0  2  0  0  0  0  0  0
  -27.9700  -17.5780   20.2710 C   0  0  0  0  0  3  0  0  0  0  0  0
  -28.9790  -23.7340   20.5370 C   0  0  0  0  0  3  0  0  0  0  0  0
  -28.5320  -22.5330   20.2750 N   0  0  0  0  0  0  0  0  0  0  0  0
  -28.1420  -24.9980   20.0990 C   0  0  0  0  0  2  0  0  0  0  0  0
  -28.4450  -26.4050   20.5020 O   0  0  0  0  0  0  0  0  0  0  0  0
  -24.6040  -31.8850   23.2690 C   0  0  0  0  0  0  0  0  0  0  0  0
  -27.3640  -27.3060   20.3620 C   0  0  0  0  0  0  0  0  0  0  0  0
  -23.4820  -30.4680   21.5910 C   0  0  0  0  0  3  0  0  0  0  0  0
  -25.0020  -28.9310   20.2350 C   0  0  0  0  0  0  0  0  0  0  0  0
  -26.0300  -30.7970   21.5200 C   0  0  0  0  0  2  0  0  0  0  0  0
  -26.1450  -29.4180   20.8820 C   0  0  0  0  0  0  0  0  0  0  0  0
  -27.3310  -28.6180   20.9380 C   0  0  0  0  0  3  0  0  0  0  0  0
  -26.1980  -26.8990   19.6670 C   0  0  0  0  0  3  0  0  0  0  0  0
  -25.0330  -27.6780   19.6170 C   0  0  0  0  0  3  0  0  0  0  0  0
  -23.7590  -29.7930   20.2250 C   0  0  0  0  0  2  0  0  0  0  0  0
  -24.7220  -31.0680   22.1820 N   0  0  0  0  0  0  0  0  0  0  0  0
  -23.4960  -32.1590   23.7530 O   0  0  0  0  0  0  0  0  0  0  0  0
  -22.7880  -29.4500   22.5260 C   0  0  0  0  0  0  0  0  0  0  0  0
  -21.4750  -29.2430   22.3290 N   0  0  0  0  0  0  0  0  0  0  0  0
  -23.4310  -28.8490   23.3910 O   0  0  0  0  0  0  0  0  0  0  0  0
  -21.0140  -29.7780   21.6050 H   0  0  0  0  0  0  0  0  0  0  0  0
  -18.0830  -28.0420   22.7180 C   0  0  0  0  0  0  0  0  0  0  0  0
  -20.6310  -28.3020   23.0690 C   0  0  0  0  0  3  0  0  0  0  0  0
  -20.7520  -26.8720   22.4950 C   0  0  0  0  0  2  0  0  0  0  0  0
  -19.6850  -26.5510   21.4430 C   0  0  0  0  0  2  0  0  0  0  0  0
  -18.2830  -26.6950   22.0430 C   0  0  0  0  0  2  0  0  0  0  0  0
  -19.1880  -28.8040   23.1850 C   0  0  0  0  0  0  0  0  0  0  0  0
  -18.9490  -30.0640   23.7750 C   0  0  0  0  0  3  0  0  0  0  0  0
  -17.6410  -30.5650   23.9010 C   0  0  0  0  0  3  0  0  0  0  0  0
  -16.5500  -29.8000   23.4500 C   0  0  0  0  0  3  0  0  0  0  0  0
  -16.7720  -28.5400   22.8670 C   0  0  0  0  0  3  0  0  0  0  0  0
  -25.8540  -32.5340   23.9380 C   0  0  0  0  0  3  0  0  0  0  0  0
  -26.3060  -31.7920   25.2560 C   0  0  1  0  0  0  0  0  0  0  0  0
  -25.1520  -31.5280   26.2500 C   0  0  0  0  0  1  0  0  0  0  0  0
  -26.9600  -30.4320   24.9250 C   0  0  0  0  0  1  0  0  0  0  0  0
  -27.3840  -32.6310   25.9820 C   0  0  0  0  0  1  0  0  0  0  0  0
  -25.5250  -33.9380   24.2240 N   0  0  0  0  0  0  0  0  0  0  0  0
  -25.8520  -34.9720   23.4370 C   0  0  0  0  0  0  0  0  0  0  0  0
  -26.5340  -34.8460   22.4160 O   0  0  0  0  0  0  0  0  0  0  0  0
  -24.9260  -34.1090   25.0160 H   0  0  0  0  0  0  0  0  0  0  0  0
  -24.0990  -36.7260   23.0230 C   0  0  0  0  0  1  0  0  0  0  0  0
  -25.3430  -36.3670   23.8500 C   0  0  0  0  0  3  0  0  0  0  0  0
  -27.4590  -37.3150   24.6610 C   0  0  0  0  0  1  0  0  0  0  0  0
  -26.3610  -37.4310   23.7040 N   0  0  0  0  0  0  0  0  0  0  0  0
  -25.9400  -38.3500   23.8150 H   0  0  0  0  0  0  0  0  0  0  0  0
  1  3  2  0
  1  5  1  0
  2  6  1  0
  3  4  1  0
  4  2  2  0
  4 16  1  0
  5  6  2  0
  6  7  1  0
  8 17  1  0
  9 14  1  0
 10 11  1  0
 10  9  1  0
 12 11  1  0
 12 23  1  0
 12 13  1  0
 14  8  1  0
 14 13  1  0
 15  8  2  0
 16 18  2  0
 17 16  1  0
 19 17  1  0
 20 21  2  0
 21 40  1  0
 22 21  1  0
 22 25  1  0
 23 24  1  0
 23 20  1  0
 24 22  2  0
 25 26  1  0
 26 27  2  0
 28 31  1  0
 28 27  1  0
 29 28  2  0
 30 29  1  0
 30 25  2  0
 31 32  1  0
 32 37  2  0
 32 33  1  0
 33 34  2  0
 34 35  1  0
 35 39  1  0
 36 35  2  0
 37 36  1  0
 38 37  1  0
 40 41  1  0
 41 44  1  0
 41 43  1  0
 42 40  2  0
 45 20  1  0
 45 46  1  0
 47 45  1  0
 48 49  2  0
 49  3  1  0
 51  5  1  0
 51 50  2  0
 52 53  1  0
 52 50  1  0
 54 65  2  0
 55 53  1  0
 55 60  1  0
 56 64  1  0
 56 66  1  0
 57 59  1  0
 58 64  1  0
 59 60  2  0
 59 58  1  0
 61 55  2  0
 62 61  1  0
 62 57  2  0
 63 57  1  0
 63 56  1  0
 64 54  1  0
 66 68  2  0
 67 66  1  0
 69 67  1  0
 70 79  2  0
 70 75  1  0
 71 67  1  0
 71 75  1  0
 72 71  1  0
 73 74  1  0
 73 72  1  0
 74 70  1  0
 75 76  2  0
 76 77  1  0
 78 77  2  0
 79 78  1  0
 80 54  1  0
 80 85  1  0
 80 81  1  0
 81 84  1  1
 81 82  1  0
 83 81  1  0
 85 88  1  0
 86 90  1  0
 86 85  1  0
 87 86  2  0
 90 89  1  0
 92 93  1  0
 92 90  1  0
 92 91  1  0
M  ISO  4   8 100  17 100  52 101  53 101
M  END
>  <TORSDO>  (29) 
F 19

>  <SCORE>  (29) 
-14.344

>  <name>  (29) 
29

>  <ligand_id>  (29) 
29

>  <original_smiles>  (29) 
[H]C(=Nc1c([H])c(C([H])=C([H])[H])c(C(=O)N([H])C(=O)N2C([H])([H])C([H])([H])C([H])([H])C([H])(n3nc(-c4c([H])c([H])c(Oc5c([H])c([H])c(F)c([H])c5F)c([H])c4[H])c(C(=O)N([H])[H])c3N([H])[H])C2([H])[H])c([H])c1F)C([H])([H])Oc1c([H])c([H])c2c(c1[H])C([H])([H])N(C(=O)C([H])(N([H])C(=O)C([H])(N([H])C([H])([H])[H])C([H])([H])[H])C(C([H])([H])[H])(C([H])([H])[H])C([H])([H])[H])C([H])(C(=O)N([H])C1([H])c3c([H])c([H])c([H])c([H])c3C([H])([H])C([H])([H])C1([H])[H])C2([H])[H]

>  <smiles>  (29) 
[H]C(=Nc1c([H])c(C([H])=C([H])[H])c(C(=O)N([H])C(=O)N2C([H])([H])C([H])([H])C([H])([H])C([H])(n3nc(-c4c([H])c([H])c(Oc5c([H])c([H])c(F)c([H])c5F)c([H])c4[H])c(C(=O)N([H])[H])c3N([H])[H])C2([H])[H])c([H])c1F)C([H])([H])Oc1c([H])c([H])c2c(c1[H])C([H])([H])N(C(=O)C([H])(N([H])C(=O)C([H])(N([H])C([H])([H])[H])C([H])([H])[H])C(C([H])([H])[H])(C([H])([H])[H])C([H])([H])[H])C([H])(C(=O)N([H])C1([H])c3c([H])c([H])c([H])c([H])c3C([H])([H])C([H])([H])C1([H])[H])C2([H])[H]

$$$$
30:0:0
     RDKit          3D

 96104  0  0  1  0  0  0  0  0999 V2000
  -28.5240  -20.0400   20.4380 C   0  0  0  0  0  3  0  0  0  0  0  0
  -28.7200  -18.6580   20.1860 C   0  0  0  0  0  0  0  0  0  0  0  0
  -29.9780  -18.0840   20.5200 C   0  0  0  0  0  0  0  0  0  0  0  0
  -29.5460  -20.8460   21.0050 C   0  0  0  0  0  0  0  0  0  0  0  0
  -30.7310  -20.2270   21.4470 C   0  0  0  0  0  0  0  0  0  0  0  0
  -30.9430  -18.8540   21.2050 C   0  0  0  0  0  0  0  0  0  0  0  0
  -32.1310  -18.3040   21.5630 F   0  0  0  0  0  0  0  0  0  0  0  0
  -30.7600  -14.4660   20.1810 C   0  0  0  0  0  0  0  0  0  0  0  0
  -30.3280  -12.3240   19.1040 C   0  0  0  0  0  2  0  0  0  0  0  0
  -29.3790  -12.5940   17.9200 C   0  0  0  0  0  2  0  0  0  0  0  0
  -27.9160  -12.4760   18.3840 C   0  0  0  0  0  2  0  0  0  0  0  0
  -27.6220  -13.2960   19.6690 C   0  0  0  0  0  3  0  0  0  0  0  0
  -28.7080  -13.0870   20.7510 C   0  0  0  0  0  2  0  0  0  0  0  0
  -30.0230  -13.3250   20.1420 N   0  0  0  0  0  0  0  0  0  0  0  0
  -31.9260  -14.4820   19.7820 O   0  0  0  0  0  0  0  0  0  0  0  0
  -30.4550  -16.8020   19.9030 C   0  0  0  0  0  0  0  0  0  0  0  0
  -30.1060  -15.6150   20.4550 N   0  0  0  0  0  0  0  0  0  0  0  0
  -31.1390  -16.9260   18.8790 O   0  0  0  0  0  0  0  0  0  0  0  0
  -29.3280  -15.5910   21.0920 H   0  0  0  0  0  0  0  0  0  0  0  0
  -25.2420  -13.8900   20.4440 C   0  0  0  0  0  0  0  0  0  0  0  0
  -24.1840  -13.1160   20.8350 C   0  0  0  0  0  0  0  0  0  0  0  0
  -24.6430  -11.7640   20.7830 C   0  0  0  0  0  0  0  0  0  0  0  0
  -26.2810  -13.0140   20.1800 N   0  0  0  0  0  0  0  0  0  0  0  0
  -25.9260  -11.7300   20.4430 N   0  0  0  0  0  0  0  0  0  0  0  0
  -23.9210  -10.5000   20.9820 C   0  0  0  0  0  0  0  0  0  0  0  0
  -24.3680   -9.5340   21.9100 C   0  0  0  0  0  3  0  0  0  0  0  0
  -23.6460   -8.3370   22.1000 C   0  0  0  0  0  3  0  0  0  0  0  0
  -22.4630   -8.0950   21.3610 C   0  0  0  0  0  0  0  0  0  0  0  0
  -22.0370   -9.0510   20.4230 C   0  0  0  0  0  3  0  0  0  0  0  0
  -22.7590  -10.2400   20.2300 C   0  0  0  0  0  3  0  0  0  0  0  0
  -21.7120   -6.9490   21.4610 O   0  0  0  0  0  0  0  0  0  0  0  0
  -21.6650   -6.2120   22.6170 C   0  0  0  0  0  0  0  0  0  0  0  0
  -21.2230   -6.7720   23.8360 C   0  0  0  0  0  3  0  0  0  0  0  0
  -21.1260   -5.9660   24.9880 C   0  0  0  0  0  3  0  0  0  0  0  0
  -21.4610   -4.6010   24.9210 C   0  0  0  0  0  0  0  0  0  0  0  0
  -21.8910   -4.0390   23.7060 C   0  0  0  0  0  3  0  0  0  0  0  0
  -21.9930   -4.8420   22.5570 C   0  0  0  0  0  0  0  0  0  0  0  0
  -22.3910   -4.2910   21.3830 F   0  0  0  0  0  0  0  0  0  0  0  0
  -21.3600   -3.8230   26.0250 F   0  0  0  0  0  0  0  0  0  0  0  0
  -22.7940  -13.5920   21.1470 C   0  0  0  0  0  0  0  0  0  0  0  0
  -22.0890  -12.8850   22.0240 N   0  0  0  0  0  0  0  0  0  0  0  0
  -22.3450  -14.6220   20.6480 O   0  0  0  0  0  0  0  0  0  0  0  0
  -22.4690  -12.0500   22.4420 H   0  0  0  0  0  0  0  0  0  0  0  0
  -21.1600  -13.1880   22.2810 H   0  0  0  0  0  0  0  0  0  0  0  0
  -25.4010  -15.2600   20.2670 N   0  0  0  0  0  0  0  0  0  0  0  0
  -24.6330  -15.9120   20.3770 H   0  0  0  0  0  0  0  0  0  0  0  0
  -26.2400  -15.6970   19.9130 H   0  0  0  0  0  0  0  0  0  0  0  0
  -26.6260  -18.3720   18.8000 C   0  0  0  0  0  2  0  0  0  0  0  0
  -27.6760  -17.8780   19.4790 C   0  0  0  0  0  3  0  0  0  0  0  0
  -32.7350  -21.3950   21.1910 C   0  0  0  0  0  1  0  0  0  0  0  0
  -31.6970  -20.9780   22.0660 O   0  0  0  0  0  0  0  0  0  0  0  0
  -29.4760  -22.2220   21.1190 O   0  0  0  0  0  0  0  0  0  0  0  0
  -28.5310  -22.9000   20.2990 C   0  0  0  0  0  2  0  0  0  0  0  0
  -28.8940  -24.3560   20.0780 C   0  0  0  0  0  3  0  0  0  0  0  0
  -28.1620  -25.3760   20.5490 C   0  0  0  0  0  3  0  0  0  0  0  0
  -28.3860  -26.6990   20.2500 O   0  0  0  0  0  0  0  0  0  0  0  0
  -24.5980  -31.9130   23.2600 C   0  0  0  0  0  0  0  0  0  0  0  0
  -27.2490  -27.4750   20.2010 C   0  0  0  0  0  0  0  0  0  0  0  0
  -23.3990  -30.5070   21.6160 C   0  0  0  0  0  3  0  0  0  0  0  0
  -24.8610  -28.9830   20.1900 C   0  0  0  0  0  0  0  0  0  0  0  0
  -25.9270  -30.8700   21.4340 C   0  0  0  0  0  2  0  0  0  0  0  0
  -26.0150  -29.5040   20.7890 C   0  0  0  0  0  0  0  0  0  0  0  0
  -27.2160  -28.7570   20.7930 C   0  0  0  0  0  3  0  0  0  0  0  0
  -26.0810  -26.9780   19.5770 C   0  0  0  0  0  3  0  0  0  0  0  0
  -24.8880  -27.7200   19.5790 C   0  0  0  0  0  3  0  0  0  0  0  0
  -23.6120  -29.8320   20.2350 C   0  0  0  0  0  2  0  0  0  0  0  0
  -24.6590  -31.1110   22.1590 N   0  0  0  0  0  0  0  0  0  0  0  0
  -23.5150  -32.1830   23.7960 O   0  0  0  0  0  0  0  0  0  0  0  0
  -22.7510  -29.4810   22.5730 C   0  0  0  0  0  0  0  0  0  0  0  0
  -21.4260  -29.2990   22.4450 N   0  0  0  0  0  0  0  0  0  0  0  0
  -23.4350  -28.8540   23.3860 O   0  0  0  0  0  0  0  0  0  0  0  0
  -20.9360  -29.8530   21.7560 H   0  0  0  0  0  0  0  0  0  0  0  0
  -18.0450  -28.1300   22.9480 C   0  0  0  0  0  0  0  0  0  0  0  0
  -20.6060  -28.3630   23.2150 C   0  0  0  0  0  3  0  0  0  0  0  0
  -20.6940  -26.9350   22.6330 C   0  0  0  0  0  2  0  0  0  0  0  0
  -19.5900  -26.6280   21.6170 C   0  0  0  0  0  2  0  0  0  0  0  0
  -18.2070  -26.7850   22.2600 C   0  0  0  0  0  2  0  0  0  0  0  0
  -19.1710  -28.8800   23.3800 C   0  0  0  0  0  0  0  0  0  0  0  0
  -18.9660  -30.1420   23.9770 C   0  0  0  0  0  3  0  0  0  0  0  0
  -17.6660  -30.6550   24.1460 C   0  0  0  0  0  3  0  0  0  0  0  0
  -16.5540  -29.9000   23.7370 C   0  0  0  0  0  3  0  0  0  0  0  0
  -16.7440  -28.6400   23.1440 C   0  0  0  0  0  3  0  0  0  0  0  0
  -25.8820  -32.5450   23.8810 C   0  0  0  0  0  3  0  0  0  0  0  0
  -25.5750  -33.9430   24.2030 N   0  0  0  0  0  0  0  0  0  0  0  0
  -25.9080  -34.9910   23.4360 C   0  0  0  0  0  0  0  0  0  0  0  0
  -26.5820  -34.8790   22.4080 O   0  0  0  0  0  0  0  0  0  0  0  0
  -24.9850  -34.1050   25.0050 H   0  0  0  0  0  0  0  0  0  0  0  0
  -24.1900  -36.7820   23.0450 C   0  0  0  0  0  1  0  0  0  0  0  0
  -25.4160  -36.3800   23.8800 C   0  0  0  0  0  3  0  0  0  0  0  0
  -27.5390  -37.2630   24.7400 C   0  0  0  0  0  1  0  0  0  0  0  0
  -26.4510  -37.4310   23.7800 N   0  0  0  0  0  0  0  0  0  0  0  0
  -26.0460  -38.3520   23.9180 H   0  0  0  0  0  0  0  0  0  0  0  0
  -26.3970  -31.7790   25.1630 C   0  0  1  0  0  0  0  0  0  0  0  0
  -25.2990  -31.5460   26.2270 C   0  0  0  0  0  1  0  0  0  0  0  0
  -26.9790  -30.3990   24.7810 C   0  0  0  0  0  1  0  0  0  0  0  0
  -27.5470  -32.5750   25.8240 C   0  0  0  0  0  1  0  0  0  0  0  0
  1  4  1  0
  2  1  2  0
  2  3  1  0
  3  6  2  0
  4 52  1  0
  4  5  2  0
  5 51  1  0
  6  5  1  0
  6  7  1  0
  8 17  1  0
  9 14  1  0
 10 11  1  0
 10  9  1  0
 12 11  1  0
 12 23  1  0
 12 13  1  0
 14  8  1  0
 14 13  1  0
 15  8  2  0
 16 17  1  0
 16  3  1  0
 17 19  1  0
 18 16  2  0
 20 21  2  0
 21 40  1  0
 22 21  1  0
 22 25  1  0
 23 24  1  0
 23 20  1  0
 24 22  2  0
 25 26  1  0
 26 27  2  0
 28 31  1  0
 28 27  1  0
 29 28  2  0
 30 29  1  0
 30 25  2  0
 31 32  1  0
 32 33  1  0
 33 34  2  0
 35 34  1  0
 35 39  1  0
 36 35  2  0
 37 32  2  0
 37 36  1  0
 38 37  1  0
 40 41  1  0
 41 44  1  0
 41 43  1  0
 42 40  2  0
 45 46  1  0
 45 20  1  0
 47 45  1  0
 48 49  2  0
 49  2  1  0
 50 51  1  0
 53 52  1  0
 54 53  1  0
 54 55  2  0
 56 55  1  0
 57 68  2  0
 58 56  1  0
 58 63  1  0
 59 67  1  0
 59 69  1  0
 60 66  1  0
 60 62  1  0
 61 67  1  0
 62 63  2  0
 62 61  1  0
 64 65  1  0
 64 58  2  0
 65 60  2  0
 66 59  1  0
 67 57  1  0
 69 71  2  0
 70 69  1  0
 72 70  1  0
 73 82  2  0
 73 78  1  0
 74 70  1  0
 74 78  1  0
 75 74  1  0
 76 77  1  0
 76 75  1  0
 77 73  1  0
 78 79  2  0
 79 80  1  0
 81 80  2  0
 82 81  1  0
 83 57  1  0
 83 84  1  0
 83 93  1  0
 84 87  1  0
 85 89  1  0
 85 84  1  0
 86 85  2  0
 89 88  1  0
 91 89  1  0
 91 92  1  0
 91 90  1  0
 93 96  1  1
 93 94  1  0
 95 93  1  0
M  ISO  4   8 100  17 100  55 101  56 101
M  END
>  <TORSDO>  (30) 
F 21

>  <SCORE>  (30) 
-13.985

>  <name>  (30) 
30

>  <ligand_id>  (30) 
30

>  <original_smiles>  (30) 
[H]C([H])=C([H])c1c([H])c(OC([H])([H])C([H])=C([H])Oc2c([H])c([H])c3c(c2[H])C([H])([H])N(C(=O)C([H])(N([H])C(=O)C([H])(N([H])C([H])([H])[H])C([H])([H])[H])C(C([H])([H])[H])(C([H])([H])[H])C([H])([H])[H])C([H])(C(=O)N([H])C2([H])c4c([H])c([H])c([H])c([H])c4C([H])([H])C([H])([H])C2([H])[H])C3([H])[H])c(OC([H])([H])[H])c(F)c1C(=O)N([H])C(=O)N1C([H])([H])C([H])([H])C([H])([H])C([H])(n2nc(-c3c([H])c([H])c(Oc4c([H])c([H])c(F)c([H])c4F)c([H])c3[H])c(C(=O)N([H])[H])c2N([H])[H])C1([H])[H]

>  <smiles>  (30) 
[H]C([H])=C([H])c1c([H])c(OC([H])([H])C([H])=C([H])Oc2c([H])c([H])c3c(c2[H])C([H])([H])N(C(=O)C([H])(N([H])C(=O)C([H])(N([H])C([H])([H])[H])C([H])([H])[H])C(C([H])([H])[H])(C([H])([H])[H])C([H])([H])[H])C([H])(C(=O)N([H])C2([H])c4c([H])c([H])c([H])c([H])c4C([H])([H])C([H])([H])C2([H])[H])C3([H])[H])c(OC([H])([H])[H])c(F)c1C(=O)N([H])C(=O)N1C([H])([H])C([H])([H])C([H])([H])C([H])(n2nc(-c3c([H])c([H])c(Oc4c([H])c([H])c(F)c([H])c4F)c([H])c3[H])c(C(=O)N([H])[H])c2N([H])[H])C1([H])[H]

$$$$
31:0:0
     RDKit          3D

 94102  0  0  1  0  0  0  0  0999 V2000
  -29.6000  -17.8080   20.0470 C   0  0  0  0  0  3  0  0  0  0  0  0
  -31.7830  -19.5510   20.2440 C   0  0  0  0  0  3  0  0  0  0  0  0
  -29.4130  -19.1750   20.4370 C   0  0  0  0  0  0  0  0  0  0  0  0
  -30.5090  -20.1020   20.5150 C   0  0  0  0  0  0  0  0  0  0  0  0
  -30.8630  -17.2460   19.7450 C   0  0  0  0  0  0  0  0  0  0  0  0
  -31.9720  -18.1640   19.8920 C   0  0  0  0  0  0  0  0  0  0  0  0
  -31.5610  -14.7270   19.5790 C   0  0  0  0  0  0  0  0  0  0  0  0
  -31.1500  -12.4610   18.5990 C   0  0  0  0  0  2  0  0  0  0  0  0
  -30.1020  -12.4150   17.4570 C   0  0  0  0  0  2  0  0  0  0  0  0
  -28.6680  -12.3950   18.0020 C   0  0  0  0  0  2  0  0  0  0  0  0
  -28.4250  -13.3540   19.1970 C   0  0  0  0  0  3  0  0  0  0  0  0
  -29.5660  -13.2860   20.2350 C   0  0  0  0  0  2  0  0  0  0  0  0
  -30.8150  -13.5680   19.5190 N   0  0  0  0  0  0  0  0  0  0  0  0
  -32.7870  -14.6540   19.4450 O   0  0  0  0  0  0  0  0  0  0  0  0
  -30.9540  -15.8960   19.1040 N   0  0  0  0  0  0  0  0  0  0  0  0
  -26.1130  -14.0480   20.0630 C   0  0  0  0  0  0  0  0  0  0  0  0
  -25.0390  -13.3180   20.5010 C   0  0  0  0  0  0  0  0  0  0  0  0
  -25.4580  -11.9510   20.4840 C   0  0  0  0  0  0  0  0  0  0  0  0
  -27.1130  -13.1300   19.7970 N   0  0  0  0  0  0  0  0  0  0  0  0
  -26.7300  -11.8680   20.1190 N   0  0  0  0  0  0  0  0  0  0  0  0
  -24.7060  -10.7140   20.7350 C   0  0  0  0  0  0  0  0  0  0  0  0
  -25.0360   -9.8510   21.8020 C   0  0  0  0  0  3  0  0  0  0  0  0
  -24.2870   -8.6770   22.0350 C   0  0  0  0  0  3  0  0  0  0  0  0
  -23.1920   -8.3590   21.1980 C   0  0  0  0  0  0  0  0  0  0  0  0
  -22.8830   -9.2070   20.1190 C   0  0  0  0  0  3  0  0  0  0  0  0
  -23.6340  -10.3720   19.8860 C   0  0  0  0  0  3  0  0  0  0  0  0
  -22.4220   -7.2290   21.3330 O   0  0  0  0  0  0  0  0  0  0  0  0
  -21.9920   -6.7950   22.5620 C   0  0  0  0  0  0  0  0  0  0  0  0
  -21.2120   -7.6090   23.4100 C   0  0  0  0  0  3  0  0  0  0  0  0
  -20.7320   -7.0970   24.6320 C   0  0  0  0  0  3  0  0  0  0  0  0
  -21.0240   -5.7710   25.0040 C   0  0  0  0  0  0  0  0  0  0  0  0
  -21.7980   -4.9570   24.1570 C   0  0  0  0  0  3  0  0  0  0  0  0
  -22.2770   -5.4660   22.9390 C   0  0  0  0  0  0  0  0  0  0  0  0
  -23.0030   -4.6700   22.1170 F   0  0  0  0  0  0  0  0  0  0  0  0
  -20.5580   -5.2760   26.1740 F   0  0  0  0  0  0  0  0  0  0  0  0
  -23.6720  -13.8470   20.8240 C   0  0  0  0  0  0  0  0  0  0  0  0
  -22.9730  -13.2150   21.7590 N   0  0  0  0  0  0  0  0  0  0  0  0
  -23.2340  -14.8590   20.2780 O   0  0  0  0  0  0  0  0  0  0  0  0
  -23.3400  -12.3970   22.2230 H   0  0  0  0  0  0  0  0  0  0  0  0
  -22.0580  -13.5580   22.0150 H   0  0  0  0  0  0  0  0  0  0  0  0
  -26.3200  -15.4050   19.8360 N   0  0  0  0  0  0  0  0  0  0  0  0
  -25.5960  -16.1040   19.9550 H   0  0  0  0  0  0  0  0  0  0  0  0
  -27.1750  -15.7830   19.4480 H   0  0  0  0  0  0  0  0  0  0  0  0
  -29.9330  -16.9340   17.0390 C   0  0  0  0  0  1  0  0  0  0  0  0
  -30.9530  -15.9410   17.6230 C   0  0  0  0  0  2  0  0  0  0  0  0
  -26.8990  -19.3130   20.1100 C   0  0  0  0  0  2  0  0  0  0  0  0
  -28.0360  -19.6450   20.7420 C   0  0  0  0  0  3  0  0  0  0  0  0
  -30.2130  -22.7070   20.6330 C   0  0  0  0  0  3  0  0  0  0  0  0
  -30.2250  -21.4420   20.9840 N   0  0  0  0  0  0  0  0  0  0  0  0
  -30.4560  -23.6840   19.4120 C   0  0  0  0  0  2  0  0  0  0  0  0
  -29.6930  -25.1040   19.6050 C   0  0  0  0  0  2  0  0  0  0  0  0
  -29.4150  -26.1150   18.5390 O   0  0  0  0  0  0  0  0  0  0  0  0
  -25.5140  -30.4490   22.8450 C   0  0  0  0  0  0  0  0  0  0  0  0
  -28.2840  -26.9300   18.7340 C   0  0  0  0  0  0  0  0  0  0  0  0
  -24.3530  -29.4460   20.9110 C   0  0  0  0  0  3  0  0  0  0  0  0
  -25.8520  -28.3820   19.1310 C   0  0  0  0  0  0  0  0  0  0  0  0
  -26.8700  -29.9330   20.8000 C   0  0  0  0  0  2  0  0  0  0  0  0
  -27.0080  -28.7650   19.8260 C   0  0  0  0  0  0  0  0  0  0  0  0
  -28.2300  -28.0550   19.6160 C   0  0  0  0  0  3  0  0  0  0  0  0
  -27.1090  -26.6100   18.0240 C   0  0  0  0  0  3  0  0  0  0  0  0
  -25.9070  -27.3160   18.2190 C   0  0  0  0  0  3  0  0  0  0  0  0
  -24.5760  -29.1520   19.4040 C   0  0  0  0  0  2  0  0  0  0  0  0
  -25.5980  -29.9470   21.5780 N   0  0  0  0  0  0  0  0  0  0  0  0
  -24.4270  -30.5230   23.4390 O   0  0  0  0  0  0  0  0  0  0  0  0
  -23.7570  -28.1890   21.5900 C   0  0  0  0  0  0  0  0  0  0  0  0
  -22.4420  -27.9730   21.4160 N   0  0  0  0  0  0  0  0  0  0  0  0
  -24.4760  -27.4220   22.2360 O   0  0  0  0  0  0  0  0  0  0  0  0
  -21.9170  -28.6490   20.8790 H   0  0  0  0  0  0  0  0  0  0  0  0
  -19.1290  -26.5490   21.6950 C   0  0  0  0  0  0  0  0  0  0  0  0
  -21.6880  -26.8260   21.9280 C   0  0  0  0  0  3  0  0  0  0  0  0
  -21.8030  -25.6130   20.9740 C   0  0  0  0  0  2  0  0  0  0  0  0
  -20.6610  -25.5410   19.9550 C   0  0  0  0  0  2  0  0  0  0  0  0
  -19.3090  -25.4460   20.6660 C   0  0  0  0  0  2  0  0  0  0  0  0
  -20.2440  -27.2080   22.2760 C   0  0  0  0  0  0  0  0  0  0  0  0
  -20.0220  -28.2490   23.2020 C   0  0  0  0  0  3  0  0  0  0  0  0
  -18.7120  -28.6320   23.5510 C   0  0  0  0  0  3  0  0  0  0  0  0
  -17.6120  -27.9650   22.9870 C   0  0  0  0  0  3  0  0  0  0  0  0
  -17.8210  -26.9230   22.0660 C   0  0  0  0  0  3  0  0  0  0  0  0
  -26.7740  -30.9710   23.5990 C   0  0  0  0  0  3  0  0  0  0  0  0
  -26.3590  -32.1160   24.4220 N   0  0  0  0  0  0  0  0  0  0  0  0
  -26.5550  -33.4000   24.0950 C   0  0  0  0  0  0  0  0  0  0  0  0
  -27.1750  -33.7460   23.0850 O   0  0  0  0  0  0  0  0  0  0  0  0
  -25.7970  -31.9080   25.2350 H   0  0  0  0  0  0  0  0  0  0  0  0
  -24.6650  -35.0240   24.4420 C   0  0  0  0  0  1  0  0  0  0  0  0
  -25.9710  -34.4720   25.0360 C   0  0  0  0  0  3  0  0  0  0  0  0
  -28.0470  -35.2020   26.1290 C   0  0  0  0  0  1  0  0  0  0  0  0
  -26.9020  -35.5890   25.3080 N   0  0  0  0  0  0  0  0  0  0  0  0
  -26.4210  -36.3530   25.7740 H   0  0  0  0  0  0  0  0  0  0  0  0
  -27.4670  -29.8690   24.4900 C   0  0  1  0  0  0  0  0  0  0  0  0
  -26.4950  -29.1480   25.4540 C   0  0  0  0  0  1  0  0  0  0  0  0
  -28.1390  -28.7910   23.6080 C   0  0  0  0  0  1  0  0  0  0  0  0
  -28.5870  -30.5120   25.3420 C   0  0  0  0  0  1  0  0  0  0  0  0
  -34.2980  -18.5810   19.3890 C   0  0  0  0  0  1  0  0  0  0  0  0
  -33.2500  -17.6740   19.7210 O   0  0  0  0  0  0  0  0  0  0  0  0
  1  3  1  0
  2  4  1  0
  3  4  2  0
  3 47  1  0
  4 49  1  0
  5  6  1  0
  5  1  2  0
  6  2  2  0
  8 13  1  0
  9 10  1  0
  9  8  1  0
 11 10  1  0
 11 19  1  0
 11 12  1  0
 13  7  1  0
 13 12  1  0
 14  7  2  0
 15  7  1  0
 15  5  1  0
 16 17  2  0
 17 36  1  0
 18 17  1  0
 18 21  1  0
 19 16  1  0
 19 20  1  0
 20 18  2  0
 21 22  1  0
 22 23  2  0
 24 27  1  0
 24 23  1  0
 25 24  2  0
 26 25  1  0
 26 21  2  0
 27 28  1  0
 28 33  2  0
 28 29  1  0
 29 30  2  0
 30 31  1  0
 31 35  1  0
 32 31  2  0
 33 32  1  0
 34 33  1  0
 36 37  1  0
 37 40  1  0
 37 39  1  0
 38 36  2  0
 41 42  1  0
 41 16  1  0
 43 41  1  0
 44 45  1  0
 45 15  1  0
 46 47  2  0
 48 49  2  0
 50 51  1  0
 50 48  1  0
 52 54  1  0
 52 51  1  0
 53 64  2  0
 54 59  1  0
 55 63  1  0
 55 65  1  0
 56 62  1  0
 56 58  1  0
 57 63  1  0
 58 57  1  0
 59 58  2  0
 60 61  1  0
 60 54  2  0
 61 56  2  0
 62 55  1  0
 63 53  1  0
 65 67  2  0
 66 65  1  0
 68 66  1  0
 69 78  2  0
 69 74  1  0
 70 66  1  0
 70 74  1  0
 71 70  1  0
 72 73  1  0
 72 71  1  0
 73 69  1  0
 74 75  2  0
 75 76  1  0
 77 76  2  0
 78 77  1  0
 79 53  1  0
 79 80  1  0
 79 89  1  0
 80 83  1  0
 81 80  1  0
 81 85  1  0
 82 81  2  0
 85 84  1  0
 85 87  1  0
 87 88  1  0
 87 86  1  0
 89 92  1  1
 89 90  1  0
 91 89  1  0
 93 94  1  0
 94  6  1  0
M  ISO  4   7 100  15 100  51 101  52 101
M  END
>  <TORSDO>  (31) 
F 22

>  <SCORE>  (31) 
-5.089

>  <name>  (31) 
31

>  <ligand_id>  (31) 
31

>  <original_smiles>  (31) 
[H]C(=Nc1c([H])c(OC([H])([H])[H])c(N(C(=O)N2C([H])([H])C([H])([H])C([H])([H])C([H])(n3nc(-c4c([H])c([H])c(Oc5c([H])c([H])c(F)c([H])c5F)c([H])c4[H])c(C(=O)N([H])[H])c3N([H])[H])C2([H])[H])C([H])([H])C([H])([H])[H])c([H])c1C([H])=C([H])[H])C([H])([H])C([H])([H])Oc1c([H])c([H])c2c(c1[H])C([H])([H])N(C(=O)C([H])(N([H])C(=O)C([H])(N([H])C([H])([H])[H])C([H])([H])[H])C(C([H])([H])[H])(C([H])([H])[H])C([H])([H])[H])C([H])(C(=O)N([H])C1([H])c3c([H])c([H])c([H])c([H])c3C([H])([H])C([H])([H])C1([H])[H])C2([H])[H]

>  <smiles>  (31) 
[H]C(=Nc1c([H])c(OC([H])([H])[H])c(N(C(=O)N2C([H])([H])C([H])([H])C([H])([H])C([H])(n3nc(-c4c([H])c([H])c(Oc5c([H])c([H])c(F)c([H])c5F)c([H])c4[H])c(C(=O)N([H])[H])c3N([H])[H])C2([H])[H])C([H])([H])C([H])([H])[H])c([H])c1C([H])=C([H])[H])C([H])([H])C([H])([H])Oc1c([H])c([H])c2c(c1[H])C([H])([H])N(C(=O)C([H])(N([H])C(=O)C([H])(N([H])C([H])([H])[H])C([H])([H])[H])C(C([H])([H])[H])(C([H])([H])[H])C([H])([H])[H])C([H])(C(=O)N([H])C1([H])c3c([H])c([H])c([H])c([H])c3C([H])([H])C([H])([H])C1([H])[H])C2([H])[H]

$$$$
32:0:0
     RDKit          3D

 98107  0  0  1  0  0  0  0  0999 V2000
  -29.0910  -23.9830   20.1850 C   0  0  0  0  0  0  0  0  0  0  0  0
  -29.2730  -22.7800   20.8630 C   0  0  0  0  0  0  0  0  0  0  0  0
  -31.2940  -22.3140   18.3890 C   0  0  0  0  0  0  0  0  0  0  0  0
  -29.7280  -24.3160   18.8310 C   0  0  0  0  0  2  0  0  0  0  0  0
  -30.0940  -23.1270   17.9160 C   0  0  0  0  0  2  0  0  0  0  0  0
  -31.4690  -22.1290   19.8910 C   0  0  0  0  0  2  0  0  0  0  0  0
  -28.5260  -22.5320   22.1660 C   0  0  0  0  0  1  0  0  0  0  0  0
  -30.2180  -21.7420   20.5550 N   0  0  0  0  0  0  0  0  0  0  0  0
  -32.0820  -21.8170   17.5800 O   0  0  0  0  0  0  0  0  0  0  0  0
  -31.2710  -19.5410   21.2690 C   0  0  0  0  0  3  0  0  0  0  0  0
  -31.2360  -18.1190   21.4320 C   0  0  0  0  0  3  0  0  0  0  0  0
  -29.0070  -19.5490   20.5150 C   0  0  0  0  0  3  0  0  0  0  0  0
  -28.9670  -18.1260   20.6500 C   0  0  0  0  0  0  0  0  0  0  0  0
  -30.1600  -20.3130   20.8070 C   0  0  0  0  0  0  0  0  0  0  0  0
  -30.0780  -17.3570   21.1300 C   0  0  0  0  0  0  0  0  0  0  0  0
  -30.8240  -14.8470   21.3270 C   0  0  0  0  0  0  0  0  0  0  0  0
  -30.8130  -12.5050   20.4780 C   0  0  0  0  0  2  0  0  0  0  0  0
  -30.0200  -12.4740   19.1530 C   0  0  0  0  0  2  0  0  0  0  0  0
  -28.5110  -12.2850   19.4130 C   0  0  0  0  0  2  0  0  0  0  0  0
  -27.9730  -13.2310   20.5180 C   0  0  0  0  0  3  0  0  0  0  0  0
  -28.8980  -13.2470   21.7570 C   0  0  0  0  0  2  0  0  0  0  0  0
  -30.2540  -13.5970   21.3010 N   0  0  0  0  0  0  0  0  0  0  0  0
  -32.0310  -15.0010   21.1140 O   0  0  0  0  0  0  0  0  0  0  0  0
  -29.9510  -15.9080   21.3850 N   0  0  0  0  0  0  0  0  0  0  0  0
  -28.9990  -15.5950   21.4810 H   0  0  0  0  0  0  0  0  0  0  0  0
  -25.5080  -13.7990   21.0060 C   0  0  0  0  0  0  0  0  0  0  0  0
  -24.4190  -13.0180   21.2600 C   0  0  0  0  0  0  0  0  0  0  0  0
  -24.8950  -11.6730   21.2570 C   0  0  0  0  0  0  0  0  0  0  0  0
  -26.5830  -12.9350   20.8640 N   0  0  0  0  0  0  0  0  0  0  0  0
  -26.2110  -11.6460   21.0770 N   0  0  0  0  0  0  0  0  0  0  0  0
  -24.1590  -10.4080   21.3540 C   0  0  0  0  0  0  0  0  0  0  0  0
  -24.5100   -9.4210   22.3010 C   0  0  0  0  0  3  0  0  0  0  0  0
  -23.7730   -8.2220   22.3870 C   0  0  0  0  0  3  0  0  0  0  0  0
  -22.6700   -8.0040   21.5270 C   0  0  0  0  0  0  0  0  0  0  0  0
  -22.3380   -8.9810   20.5720 C   0  0  0  0  0  3  0  0  0  0  0  0
  -23.0780  -10.1710   20.4830 C   0  0  0  0  0  3  0  0  0  0  0  0
  -21.9110   -6.8590   21.5250 O   0  0  0  0  0  0  0  0  0  0  0  0
  -21.7570   -6.0950   22.6540 C   0  0  0  0  0  0  0  0  0  0  0  0
  -21.2160   -6.6260   23.8460 C   0  0  0  0  0  3  0  0  0  0  0  0
  -21.0120   -5.7880   24.9600 C   0  0  0  0  0  3  0  0  0  0  0  0
  -21.3400   -4.4210   24.8830 C   0  0  0  0  0  0  0  0  0  0  0  0
  -21.8730   -3.8910   23.6960 C   0  0  0  0  0  3  0  0  0  0  0  0
  -22.0780   -4.7250   22.5830 C   0  0  0  0  0  0  0  0  0  0  0  0
  -22.5740   -4.2030   21.4340 F   0  0  0  0  0  0  0  0  0  0  0  0
  -21.1350   -3.6140   25.9500 F   0  0  0  0  0  0  0  0  0  0  0  0
  -23.0000  -13.4910   21.3940 C   0  0  0  0  0  0  0  0  0  0  0  0
  -22.1940  -12.7920   22.1860 N   0  0  0  0  0  0  0  0  0  0  0  0
  -22.6140  -14.5190   20.8390 O   0  0  0  0  0  0  0  0  0  0  0  0
  -22.5160  -11.9630   22.6600 H   0  0  0  0  0  0  0  0  0  0  0  0
  -21.2400  -13.0950   22.3200 H   0  0  0  0  0  0  0  0  0  0  0  0
  -25.6470  -15.1700   20.8570 N   0  0  0  0  0  0  0  0  0  0  0  0
  -24.8250  -15.7630   20.8430 H   0  0  0  0  0  0  0  0  0  0  0  0
  -26.4600  -15.6180   20.4660 H   0  0  0  0  0  0  0  0  0  0  0  0
  -27.6980  -17.4400   20.1980 C   0  0  0  0  0  2  0  0  0  0  0  0
  -27.2250  -15.8670   18.2720 C   0  0  0  0  0  2  0  0  0  0  0  0
  -27.7640  -16.9980   18.7510 C   0  0  0  0  0  3  0  0  0  0  0  0
  -28.1700  -25.1590   20.6970 C   0  0  0  0  0  2  0  0  0  0  0  0
  -28.3210  -26.5120   20.0960 O   0  0  0  0  0  0  0  0  0  0  0  0
  -24.6110  -31.8990   23.1700 C   0  0  0  0  0  0  0  0  0  0  0  0
  -27.1970  -27.3510   20.0900 C   0  0  0  0  0  0  0  0  0  0  0  0
  -23.3840  -30.4930   21.5500 C   0  0  0  0  0  3  0  0  0  0  0  0
  -24.8180  -28.9420   20.1090 C   0  0  0  0  0  0  0  0  0  0  0  0
  -25.9170  -30.8280   21.3200 C   0  0  0  0  0  2  0  0  0  0  0  0
  -25.9950  -29.4460   20.6790 C   0  0  0  0  0  0  0  0  0  0  0  0
  -27.1890  -28.6640   20.6560 C   0  0  0  0  0  3  0  0  0  0  0  0
  -25.9990  -26.9020   19.4900 C   0  0  0  0  0  3  0  0  0  0  0  0
  -24.8220  -27.6740   19.5060 C   0  0  0  0  0  3  0  0  0  0  0  0
  -23.5770  -29.8080   20.1710 C   0  0  0  0  0  2  0  0  0  0  0  0
  -24.6570  -31.0920   22.0700 N   0  0  0  0  0  0  0  0  0  0  0  0
  -23.5360  -32.1730   23.7240 O   0  0  0  0  0  0  0  0  0  0  0  0
  -22.7410  -29.4800   22.5260 C   0  0  0  0  0  0  0  0  0  0  0  0
  -21.4150  -29.2880   22.4120 N   0  0  0  0  0  0  0  0  0  0  0  0
  -23.4330  -28.8660   23.3430 O   0  0  0  0  0  0  0  0  0  0  0  0
  -20.9150  -29.8330   21.7250 H   0  0  0  0  0  0  0  0  0  0  0  0
  -18.0570  -28.0590   22.9600 C   0  0  0  0  0  0  0  0  0  0  0  0
  -20.6150  -28.3490   23.2000 C   0  0  0  0  0  3  0  0  0  0  0  0
  -20.7250  -26.9120   22.6360 C   0  0  0  0  0  2  0  0  0  0  0  0
  -19.6170  -26.5700   21.6350 C   0  0  0  0  0  2  0  0  0  0  0  0
  -18.2400  -26.7070   22.2910 C   0  0  0  0  0  2  0  0  0  0  0  0
  -19.1710  -28.8370   23.3710 C   0  0  0  0  0  0  0  0  0  0  0  0
  -18.9460  -30.1010   23.9580 C   0  0  0  0  0  3  0  0  0  0  0  0
  -17.6390  -30.5910   24.1310 C   0  0  0  0  0  3  0  0  0  0  0  0
  -16.5380  -29.8110   23.7360 C   0  0  0  0  0  3  0  0  0  0  0  0
  -16.7480  -28.5470   23.1580 C   0  0  0  0  0  3  0  0  0  0  0  0
  -25.9040  -32.5380   23.7690 C   0  0  0  0  0  3  0  0  0  0  0  0
  -26.4670  -31.7510   25.0150 C   0  0  1  0  0  0  0  0  0  0  0  0
  -25.4130  -31.4770   26.1110 C   0  0  0  0  0  1  0  0  0  0  0  0
  -27.0590  -30.3900   24.5830 C   0  0  0  0  0  1  0  0  0  0  0  0
  -27.6280  -32.5500   25.6570 C   0  0  0  0  0  1  0  0  0  0  0  0
  -25.5840  -33.9260   24.1340 N   0  0  0  0  0  0  0  0  0  0  0  0
  -25.8820  -34.9990   23.3880 C   0  0  0  0  0  0  0  0  0  0  0  0
  -26.5240  -34.9250   22.3370 O   0  0  0  0  0  0  0  0  0  0  0  0
  -25.0170  -34.0560   24.9590 H   0  0  0  0  0  0  0  0  0  0  0  0
  -24.1240  -36.7770   23.1110 C   0  0  0  0  0  1  0  0  0  0  0  0
  -25.3880  -36.3720   23.8870 C   0  0  0  0  0  3  0  0  0  0  0  0
  -27.5310  -37.2660   24.6850 C   0  0  0  0  0  1  0  0  0  0  0  0
  -26.4040  -37.4410   23.7730 N   0  0  0  0  0  0  0  0  0  0  0  0
  -25.9880  -38.3510   23.9550 H   0  0  0  0  0  0  0  0  0  0  0  0
  1 57  1  0
  1  2  2  0
  2  7  1  0
  3  6  1  0
  4  1  1  0
  5  3  1  0
  5  4  1  0
  6  8  1  0
  8 14  1  0
  8  2  1  0
  9  3  2  0
 10 11  1  0
 12 13  2  0
 12 14  1  0
 13 15  1  0
 14 10  2  0
 15 24  1  0
 15 11  2  0
 16 24  1  0
 17 22  1  0
 18 19  1  0
 18 17  1  0
 20 19  1  0
 20 29  1  0
 20 21  1  0
 22 16  1  0
 22 21  1  0
 23 16  2  0
 24 25  1  0
 26 27  2  0
 27 46  1  0
 28 27  1  0
 28 31  1  0
 29 26  1  0
 29 30  1  0
 30 28  2  0
 31 32  1  0
 32 33  2  0
 34 33  1  0
 35 34  2  0
 36 35  1  0
 36 31  2  0
 37 34  1  0
 37 38  1  0
 38 39  1  0
 39 40  2  0
 41 40  1  0
 41 45  1  0
 42 41  2  0
 43 38  2  0
 43 42  1  0
 44 43  1  0
 46 47  1  0
 47 50  1  0
 47 49  1  0
 48 46  2  0
 51 26  1  0
 52 51  1  0
 53 51  1  0
 54 13  1  0
 55 56  2  0
 56 54  1  0
 58 57  1  0
 59 70  2  0
 60 58  1  0
 60 65  1  0
 61 69  1  0
 61 71  1  0
 62 68  1  0
 62 64  1  0
 63 69  1  0
 64 63  1  0
 65 64  2  0
 66 67  1  0
 66 60  2  0
 67 62  2  0
 68 61  1  0
 69 59  1  0
 71 73  2  0
 72 71  1  0
 74 72  1  0
 75 84  2  0
 75 80  1  0
 76 72  1  0
 76 80  1  0
 77 76  1  0
 78 79  1  0
 78 77  1  0
 79 75  1  0
 80 81  2  0
 81 82  1  0
 83 82  2  0
 84 83  1  0
 85 59  1  0
 85 90  1  0
 85 86  1  0
 86 89  1  1
 86 87  1  0
 88 86  1  0
 90 93  1  0
 91 95  1  0
 91 90  1  0
 92 91  2  0
 95 94  1  0
 97 95  1  0
 97 98  1  0
 97 96  1  0
M  ISO  4  16 100  24 100  57 101  58 101
M  END
>  <TORSDO>  (32) 
F 20

>  <SCORE>  (32) 
-12.029

>  <name>  (32) 
32

>  <ligand_id>  (32) 
32

>  <original_smiles>  (32) 
[H]C([H])=C([H])C([H])([H])c1c([H])c(N2C(C([H])([H])[H])=C(C([H])([H])Oc3c([H])c([H])c4c(c3[H])C([H])([H])N(C(=O)C([H])(N([H])C(=O)C([H])(N([H])C([H])([H])[H])C([H])([H])[H])C(C([H])([H])[H])(C([H])([H])[H])C([H])([H])[H])C([H])(C(=O)N([H])C3([H])c5c([H])c([H])c([H])c([H])c5C([H])([H])C([H])([H])C3([H])[H])C4([H])[H])C([H])([H])C([H])([H])C(=O)C2([H])[H])c([H])c([H])c1N([H])C(=O)N1C([H])([H])C([H])([H])C([H])([H])C([H])(n2nc(-c3c([H])c([H])c(Oc4c([H])c([H])c(F)c([H])c4F)c([H])c3[H])c(C(=O)N([H])[H])c2N([H])[H])C1([H])[H]

>  <smiles>  (32) 
[H]C([H])=C([H])C([H])([H])c1c([H])c(N2C(C([H])([H])[H])=C(C([H])([H])Oc3c([H])c([H])c4c(c3[H])C([H])([H])N(C(=O)C([H])(N([H])C(=O)C([H])(N([H])C([H])([H])[H])C([H])([H])[H])C(C([H])([H])[H])(C([H])([H])[H])C([H])([H])[H])C([H])(C(=O)N([H])C3([H])c5c([H])c([H])c([H])c([H])c5C([H])([H])C([H])([H])C3([H])[H])C4([H])[H])C([H])([H])C([H])([H])C(=O)C2([H])[H])c([H])c([H])c1N([H])C(=O)N1C([H])([H])C([H])([H])C([H])([H])C([H])(n2nc(-c3c([H])c([H])c(Oc4c([H])c([H])c(F)c([H])c4F)c([H])c3[H])c(C(=O)N([H])[H])c2N([H])[H])C1([H])[H]

$$$$
33:0:0
     RDKit          3D

 97106  0  0  1  0  0  0  0  0999 V2000
  -29.8880  -20.7370   18.9710 C   0  0  0  0  0  3  0  0  0  0  0  0
  -29.7130  -20.7720   21.3640 C   0  0  0  0  0  3  0  0  0  0  0  0
  -30.5540  -18.6890   20.2650 C   0  0  0  0  0  0  0  0  0  0  0  0
  -30.4200  -19.4090   19.0220 C   0  0  0  0  0  0  0  0  0  0  0  0
  -29.4940  -21.4480   20.1320 C   0  0  0  0  0  0  0  0  0  0  0  0
  -30.2200  -19.4360   21.4390 C   0  0  0  0  0  0  0  0  0  0  0  0
  -30.8390  -18.8180   17.6740 C   0  0  0  0  0  1  0  0  0  0  0  0
  -31.1820  -14.8530   20.0280 C   0  0  0  0  0  0  0  0  0  0  0  0
  -30.7080  -12.6840   18.9140 C   0  0  0  0  0  2  0  0  0  0  0  0
  -29.6970  -12.8590   17.7650 C   0  0  0  0  0  2  0  0  0  0  0  0
  -28.2650  -12.7050   18.3020 C   0  0  0  0  0  2  0  0  0  0  0  0
  -28.0060  -13.5610   19.5720 C   0  0  0  0  0  3  0  0  0  0  0  0
  -29.1440  -13.4250   20.6120 C   0  0  0  0  0  2  0  0  0  0  0  0
  -30.4050  -13.7230   19.9250 N   0  0  0  0  0  0  0  0  0  0  0  0
  -32.3590  -14.7760   19.6750 O   0  0  0  0  0  0  0  0  0  0  0  0
  -31.2610  -17.3060   20.3290 C   0  0  0  0  0  0  0  0  0  0  0  0
  -30.5970  -16.0870   20.2650 N   0  0  0  0  0  0  0  0  0  0  0  0
  -32.4910  -17.3770   20.4390 O   0  0  0  0  0  0  0  0  0  0  0  0
  -29.5950  -16.1200   20.3420 H   0  0  0  0  0  0  0  0  0  0  0  0
  -25.6860  -14.1750   20.4670 C   0  0  0  0  0  0  0  0  0  0  0  0
  -24.6220  -13.4130   20.8660 C   0  0  0  0  0  0  0  0  0  0  0  0
  -25.0450  -12.0520   20.7580 C   0  0  0  0  0  0  0  0  0  0  0  0
  -26.6910  -13.2820   20.1430 N   0  0  0  0  0  0  0  0  0  0  0  0
  -26.3190  -11.9990   20.3810 N   0  0  0  0  0  0  0  0  0  0  0  0
  -24.2980  -10.8010   20.9450 C   0  0  0  0  0  0  0  0  0  0  0  0
  -24.7090   -9.8240   21.8780 C   0  0  0  0  0  3  0  0  0  0  0  0
  -23.9600   -8.6400   22.0510 C   0  0  0  0  0  3  0  0  0  0  0  0
  -22.7860   -8.4250   21.2920 C   0  0  0  0  0  0  0  0  0  0  0  0
  -22.3940   -9.3910   20.3480 C   0  0  0  0  0  3  0  0  0  0  0  0
  -23.1430  -10.5660   20.1730 C   0  0  0  0  0  3  0  0  0  0  0  0
  -22.0120   -7.2930   21.3710 O   0  0  0  0  0  0  0  0  0  0  0  0
  -21.8700   -6.6010   22.5480 C   0  0  0  0  0  0  0  0  0  0  0  0
  -21.3830   -7.2190   23.7210 C   0  0  0  0  0  3  0  0  0  0  0  0
  -21.1870   -6.4550   24.8890 C   0  0  0  0  0  3  0  0  0  0  0  0
  -21.4670   -5.0740   24.8830 C   0  0  0  0  0  0  0  0  0  0  0  0
  -21.9450   -4.4580   23.7150 C   0  0  0  0  0  3  0  0  0  0  0  0
  -22.1430   -5.2180   22.5500 C   0  0  0  0  0  0  0  0  0  0  0  0
  -22.5840   -4.6160   21.4190 F   0  0  0  0  0  0  0  0  0  0  0  0
  -21.2700   -4.3390   26.0010 F   0  0  0  0  0  0  0  0  0  0  0  0
  -23.2520  -13.9120   21.2300 C   0  0  0  0  0  0  0  0  0  0  0  0
  -22.5670  -13.2180   22.1280 N   0  0  0  0  0  0  0  0  0  0  0  0
  -22.8050  -14.9540   20.7520 O   0  0  0  0  0  0  0  0  0  0  0  0
  -22.9460  -12.3740   22.5350 H   0  0  0  0  0  0  0  0  0  0  0  0
  -21.6520  -13.5350   22.4150 H   0  0  0  0  0  0  0  0  0  0  0  0
  -25.8740  -15.5480   20.3240 N   0  0  0  0  0  0  0  0  0  0  0  0
  -25.1260  -16.2140   20.4780 H   0  0  0  0  0  0  0  0  0  0  0  0
  -26.7110  -15.9760   19.9490 H   0  0  0  0  0  0  0  0  0  0  0  0
  -27.3630  -22.4910   20.1340 C   0  0  0  0  0  0  0  0  0  0  0  0
  -26.6760  -23.5210   21.0090 C   0  0  0  0  0  2  0  0  0  0  0  0
  -27.8670  -24.2280   21.6650 C   0  0  0  0  0  2  0  0  0  0  0  0
  -29.0200  -24.0410   20.6650 C   0  0  0  0  0  3  0  0  0  0  0  0
  -28.6990  -22.6830   20.0650 N   0  0  0  0  0  0  0  0  0  0  0  0
  -26.7310  -21.5760   19.5970 O   0  0  0  0  0  0  0  0  0  0  0  0
  -29.0530  -25.2870   19.6480 C   0  0  0  0  0  2  0  0  0  0  0  0
  -28.9480  -26.6950   20.1380 O   0  0  0  0  0  0  0  0  0  0  0  0
  -24.6910  -31.7510   23.1340 C   0  0  0  0  0  0  0  0  0  0  0  0
  -27.7570  -27.4420   20.0750 C   0  0  0  0  0  0  0  0  0  0  0  0
  -23.6720  -30.2820   21.4400 C   0  0  0  0  0  3  0  0  0  0  0  0
  -25.2810  -28.8830   20.0450 C   0  0  0  0  0  0  0  0  0  0  0  0
  -26.1790  -30.8080   21.3370 C   0  0  0  0  0  2  0  0  0  0  0  0
  -26.3940  -29.4450   20.6780 C   0  0  0  0  0  0  0  0  0  0  0  0
  -27.6350  -28.7360   20.6800 C   0  0  0  0  0  3  0  0  0  0  0  0
  -26.6040  -26.9290   19.4390 C   0  0  0  0  0  3  0  0  0  0  0  0
  -25.3860  -27.6310   19.4250 C   0  0  0  0  0  3  0  0  0  0  0  0
  -23.9850  -29.6650   20.0570 C   0  0  0  0  0  2  0  0  0  0  0  0
  -24.8660  -30.9630   22.0300 N   0  0  0  0  0  0  0  0  0  0  0  0
  -23.5670  -31.9270   23.6270 O   0  0  0  0  0  0  0  0  0  0  0  0
  -23.0720  -29.1920   22.3600 C   0  0  0  0  0  0  0  0  0  0  0  0
  -21.7670  -28.9140   22.1890 N   0  0  0  0  0  0  0  0  0  0  0  0
  -23.7740  -28.6050   23.1860 O   0  0  0  0  0  0  0  0  0  0  0  0
  -21.2580  -29.4470   21.4990 H   0  0  0  0  0  0  0  0  0  0  0  0
  -18.4730  -27.4610   22.5760 C   0  0  0  0  0  0  0  0  0  0  0  0
  -20.9990  -27.9010   22.9160 C   0  0  0  0  0  3  0  0  0  0  0  0
  -21.2230  -26.4960   22.3130 C   0  0  0  0  0  2  0  0  0  0  0  0
  -20.1730  -26.1160   21.2650 C   0  0  0  0  0  2  0  0  0  0  0  0
  -18.7670  -26.1450   21.8740 C   0  0  0  0  0  2  0  0  0  0  0  0
  -19.5230  -28.2940   23.0480 C   0  0  0  0  0  0  0  0  0  0  0  0
  -19.1970  -29.5230   23.6650 C   0  0  0  0  0  3  0  0  0  0  0  0
  -17.8550  -29.9230   23.8070 C   0  0  0  0  0  3  0  0  0  0  0  0
  -16.8200  -29.0890   23.3490 C   0  0  0  0  0  3  0  0  0  0  0  0
  -17.1310  -27.8580   22.7400 C   0  0  0  0  0  3  0  0  0  0  0  0
  -25.8880  -32.4840   23.8140 C   0  0  0  0  0  3  0  0  0  0  0  0
  -26.4210  -31.7400   25.0970 C   0  0  1  0  0  0  0  0  0  0  0  0
  -25.3220  -31.3800   26.1270 C   0  0  0  0  0  1  0  0  0  0  0  0
  -27.1280  -30.4270   24.6950 C   0  0  0  0  0  1  0  0  0  0  0  0
  -27.4760  -32.6180   25.8130 C   0  0  0  0  0  1  0  0  0  0  0  0
  -25.4510  -33.8480   24.1520 N   0  0  0  0  0  0  0  0  0  0  0  0
  -25.7040  -34.9340   23.4090 C   0  0  0  0  0  0  0  0  0  0  0  0
  -26.4030  -34.9010   22.3940 O   0  0  0  0  0  0  0  0  0  0  0  0
  -24.8580  -33.9480   24.9640 H   0  0  0  0  0  0  0  0  0  0  0  0
  -23.8320  -36.5610   23.0200 C   0  0  0  0  0  1  0  0  0  0  0  0
  -25.0830  -36.2710   23.8610 C   0  0  0  0  0  3  0  0  0  0  0  0
  -27.1120  -37.3320   24.7470 C   0  0  0  0  0  1  0  0  0  0  0  0
  -26.0200  -37.4130   23.7790 N   0  0  0  0  0  0  0  0  0  0  0  0
  -25.5340  -38.2920   23.9310 H   0  0  0  0  0  0  0  0  0  0  0  0
  -31.3340  -19.9620   24.0560 C   0  0  0  0  0  1  0  0  0  0  0  0
  -30.4690  -18.7250   23.0450 S   0  0  0  0  0  0  0  0  0  0  0  0
  1  4  2  0
  1  5  1  0
  2  6  1  0
  3 16  1  0
  3  6  2  0
  4  3  1  0
  5  2  2  0
  6 97  1  0
  7  4  1  0
  8 17  1  0
  9 14  1  0
 10 11  1  0
 10  9  1  0
 12 11  1  0
 12 23  1  0
 12 13  1  0
 14  8  1  0
 14 13  1  0
 15  8  2  0
 16 18  2  0
 17 16  1  0
 17 19  1  0
 20 21  2  0
 21 40  1  0
 22 21  1  0
 22 25  1  0
 23 24  1  0
 23 20  1  0
 24 22  2  0
 25 26  1  0
 26 27  2  0
 28 31  1  0
 28 27  1  0
 29 28  2  0
 30 29  1  0
 30 25  2  0
 31 32  1  0
 32 37  2  0
 32 33  1  0
 33 34  2  0
 35 34  1  0
 35 39  1  0
 36 35  2  0
 37 36  1  0
 38 37  1  0
 40 41  1  0
 41 44  1  0
 41 43  1  0
 42 40  2  0
 45 20  1  0
 45 46  1  0
 47 45  1  0
 48 49  1  0
 49 50  1  0
 51 54  1  0
 51 50  1  0
 52  5  1  0
 52 48  1  0
 52 51  1  0
 53 48  2  0
 54 55  1  0
 56 67  2  0
 57 55  1  0
 57 62  1  0
 58 66  1  0
 58 68  1  0
 59 65  1  0
 59 61  1  0
 60 66  1  0
 61 62  2  0
 61 60  1  0
 63 57  2  0
 64 63  1  0
 64 59  2  0
 65 58  1  0
 66 56  1  0
 68 70  2  0
 69 68  1  0
 71 69  1  0
 72 81  2  0
 72 77  1  0
 73 69  1  0
 73 77  1  0
 74 73  1  0
 75 76  1  0
 75 74  1  0
 76 72  1  0
 77 78  2  0
 78 79  1  0
 80 79  2  0
 81 80  1  0
 82 56  1  0
 82 87  1  0
 82 83  1  0
 83 86  1  1
 83 84  1  0
 85 83  1  0
 87 90  1  0
 88 92  1  0
 88 87  1  0
 89 88  2  0
 92 91  1  0
 94 92  1  0
 94 95  1  0
 94 93  1  0
 97 96  1  0
M  ISO  4   8 100  17 100  54 101  55 101
M  END
>  <TORSDO>  (33) 
F 19

>  <SCORE>  (33) 
-12.678

>  <name>  (33) 
33

>  <ligand_id>  (33) 
33

>  <original_smiles>  (33) 
[H]c1c([H])c([H])c2c(c1[H])C([H])([H])C([H])([H])C([H])([H])C2([H])N([H])C(=O)C1([H])N(C(=O)C([H])(N([H])C(=O)C([H])(N([H])C([H])([H])[H])C([H])([H])[H])C(C([H])([H])[H])(C([H])([H])[H])C([H])([H])[H])C([H])([H])c2c([H])c(OC([H])([H])C3([H])N(c4c([H])c(SC([H])([H])[H])c(C(=O)N([H])C(=O)N5C([H])([H])C([H])([H])C([H])([H])C([H])(n6nc(-c7c([H])c([H])c(Oc8c([H])c([H])c(F)c([H])c8F)c([H])c7[H])c(C(=O)N([H])[H])c6N([H])[H])C5([H])[H])c(C([H])([H])[H])c4[H])C(=O)C([H])([H])C3([H])[H])c([H])c([H])c2C1([H])[H]

>  <smiles>  (33) 
[H]c1c([H])c([H])c2c(c1[H])C([H])([H])C([H])([H])C([H])([H])C2([H])N([H])C(=O)C1([H])N(C(=O)C([H])(N([H])C(=O)C([H])(N([H])C([H])([H])[H])C([H])([H])[H])C(C([H])([H])[H])(C([H])([H])[H])C([H])([H])[H])C([H])([H])c2c([H])c(OC([H])([H])C3([H])N(c4c([H])c(SC([H])([H])[H])c(C(=O)N([H])C(=O)N5C([H])([H])C([H])([H])C([H])([H])C([H])(n6nc(-c7c([H])c([H])c(Oc8c([H])c([H])c(F)c([H])c8F)c([H])c7[H])c(C(=O)N([H])[H])c6N([H])[H])C5([H])[H])c(C([H])([H])[H])c4[H])C(=O)C([H])([H])C3([H])[H])c([H])c([H])c2C1([H])[H]

$$$$
34:0:0
     RDKit          3D

 94102  0  0  1  0  0  0  0  0999 V2000
  -30.6310  -17.6180   22.6470 C   0  0  0  0  0  3  0  0  0  0  0  0
  -31.4180  -19.4620   20.7230 C   0  0  0  0  0  3  0  0  0  0  0  0
  -30.7330  -17.1660   21.3030 C   0  0  0  0  0  0  0  0  0  0  0  0
  -31.2160  -18.1090   20.3380 C   0  0  0  0  0  0  0  0  0  0  0  0
  -31.1000  -19.9350   22.0170 C   0  0  0  0  0  0  0  0  0  0  0  0
  -30.7990  -18.9710   23.0010 C   0  0  0  0  0  0  0  0  0  0  0  0
  -30.6100  -19.3480   24.2900 F   0  0  0  0  0  0  0  0  0  0  0  0
  -30.0500  -15.8520   21.0180 C   0  0  0  0  0  0  0  0  0  0  0  0
  -28.8130  -15.8600   21.2990 N   0  0  0  0  0  0  0  0  0  0  0  0
  -28.5500  -16.7600   21.6800 H   0  0  0  0  0  0  0  0  0  0  0  0
  -30.8270  -14.6270   20.4170 C   0  0  0  0  0  0  0  0  0  0  0  0
  -30.5440  -12.4700   19.2090 C   0  0  0  0  0  2  0  0  0  0  0  0
  -29.6020  -12.7020   18.0090 C   0  0  0  0  0  2  0  0  0  0  0  0
  -28.1200  -12.5440   18.4190 C   0  0  0  0  0  2  0  0  0  0  0  0
  -27.7870  -13.3210   19.7180 C   0  0  0  0  0  3  0  0  0  0  0  0
  -28.8500  -13.0180   20.7990 C   0  0  0  0  0  2  0  0  0  0  0  0
  -30.1590  -13.4290   20.2630 N   0  0  0  0  0  0  0  0  0  0  0  0
  -31.9700  -14.7850   19.9730 O   0  0  0  0  0  0  0  0  0  0  0  0
  -25.3880  -13.9340   20.4100 C   0  0  0  0  0  0  0  0  0  0  0  0
  -24.3160  -13.1650   20.7730 C   0  0  0  0  0  0  0  0  0  0  0  0
  -24.7790  -11.8110   20.7530 C   0  0  0  0  0  0  0  0  0  0  0  0
  -26.4310  -13.0490   20.1870 N   0  0  0  0  0  0  0  0  0  0  0  0
  -26.0690  -11.7680   20.4480 N   0  0  0  0  0  0  0  0  0  0  0  0
  -24.0540  -10.5520   20.9570 C   0  0  0  0  0  0  0  0  0  0  0  0
  -24.4840   -9.6020   21.9090 C   0  0  0  0  0  3  0  0  0  0  0  0
  -23.7650   -8.4040   22.1000 C   0  0  0  0  0  3  0  0  0  0  0  0
  -22.6020   -8.1470   21.3350 C   0  0  0  0  0  0  0  0  0  0  0  0
  -22.1890   -9.0860   20.3730 C   0  0  0  0  0  3  0  0  0  0  0  0
  -22.9080  -10.2770   20.1830 C   0  0  0  0  0  3  0  0  0  0  0  0
  -21.8550   -6.9970   21.4300 O   0  0  0  0  0  0  0  0  0  0  0  0
  -21.7940   -6.2720   22.5940 C   0  0  0  0  0  0  0  0  0  0  0  0
  -21.3490   -6.8470   23.8050 C   0  0  0  0  0  3  0  0  0  0  0  0
  -21.2360   -6.0500   24.9630 C   0  0  0  0  0  3  0  0  0  0  0  0
  -21.5590   -4.6820   24.9100 C   0  0  0  0  0  0  0  0  0  0  0  0
  -21.9970   -4.1080   23.7050 C   0  0  0  0  0  3  0  0  0  0  0  0
  -22.1120   -4.9010   22.5490 C   0  0  0  0  0  0  0  0  0  0  0  0
  -22.5150   -4.3360   21.3830 F   0  0  0  0  0  0  0  0  0  0  0  0
  -21.4400   -3.9160   26.0200 F   0  0  0  0  0  0  0  0  0  0  0  0
  -22.9190  -13.6410   21.0430 C   0  0  0  0  0  0  0  0  0  0  0  0
  -22.1980  -12.9520   21.9170 N   0  0  0  0  0  0  0  0  0  0  0  0
  -22.4770  -14.6600   20.5140 O   0  0  0  0  0  0  0  0  0  0  0  0
  -22.5720  -12.1240   22.3570 H   0  0  0  0  0  0  0  0  0  0  0  0
  -21.2590  -13.2490   22.1480 H   0  0  0  0  0  0  0  0  0  0  0  0
  -25.5640  -15.3050   20.2440 N   0  0  0  0  0  0  0  0  0  0  0  0
  -24.8550  -15.9650   20.5440 H   0  0  0  0  0  0  0  0  0  0  0  0
  -26.4960  -15.7040   20.2280 H   0  0  0  0  0  0  0  0  0  0  0  0
  -30.8610  -18.6980   17.8470 C   0  0  0  0  0  1  0  0  0  0  0  0
  -31.5160  -17.7610   18.8760 C   0  0  0  0  0  2  0  0  0  0  0  0
  -31.0650  -21.2800   22.3700 O   0  0  0  0  0  0  0  0  0  0  0  0
  -30.9230  -22.2910   21.3510 C   0  0  0  0  0  2  0  0  0  0  0  0
  -29.8700  -23.3580   21.7580 C   0  0  0  0  0  2  0  0  0  0  0  0
  -29.7460  -24.5640   20.7800 C   0  0  0  0  0  2  0  0  0  0  0  0
  -28.6970  -25.6240   21.2120 C   0  0  0  0  0  2  0  0  0  0  0  0
  -28.7240  -26.8130   20.3990 O   0  0  0  0  0  0  0  0  0  0  0  0
  -24.6850  -31.9270   23.3180 C   0  0  0  0  0  0  0  0  0  0  0  0
  -27.5430  -27.5250   20.3720 C   0  0  0  0  0  0  0  0  0  0  0  0
  -23.5630  -30.4650   21.6680 C   0  0  0  0  0  3  0  0  0  0  0  0
  -25.0980  -28.9520   20.3000 C   0  0  0  0  0  0  0  0  0  0  0  0
  -26.0780  -30.9020   21.5230 C   0  0  0  0  0  2  0  0  0  0  0  0
  -26.2240  -29.5230   20.9060 C   0  0  0  0  0  0  0  0  0  0  0  0
  -27.4500  -28.8190   20.9350 C   0  0  0  0  0  3  0  0  0  0  0  0
  -26.4020  -26.9690   19.7520 C   0  0  0  0  0  3  0  0  0  0  0  0
  -25.1820  -27.6740   19.7190 C   0  0  0  0  0  3  0  0  0  0  0  0
  -23.8260  -29.7710   20.3040 C   0  0  0  0  0  2  0  0  0  0  0  0
  -24.7910  -31.1150   22.2270 N   0  0  0  0  0  0  0  0  0  0  0  0
  -23.5840  -32.1740   23.8300 O   0  0  0  0  0  0  0  0  0  0  0  0
  -22.9190  -29.4390   22.6280 C   0  0  0  0  0  0  0  0  0  0  0  0
  -21.6010  -29.2290   22.4840 N   0  0  0  0  0  0  0  0  0  0  0  0
  -23.6030  -28.8330   23.4580 O   0  0  0  0  0  0  0  0  0  0  0  0
  -21.1090  -29.7720   21.7880 H   0  0  0  0  0  0  0  0  0  0  0  0
  -18.2400  -27.9920   22.9560 C   0  0  0  0  0  0  0  0  0  0  0  0
  -20.7920  -28.2810   23.2470 C   0  0  0  0  0  3  0  0  0  0  0  0
  -20.9190  -26.8520   22.6700 C   0  0  0  0  0  2  0  0  0  0  0  0
  -19.8290  -26.5150   21.6490 C   0  0  0  0  0  2  0  0  0  0  0  0
  -18.4390  -26.6450   22.2800 C   0  0  0  0  0  2  0  0  0  0  0  0
  -19.3460  -28.7680   23.3930 C   0  0  0  0  0  0  0  0  0  0  0  0
  -19.1080  -30.0300   23.9810 C   0  0  0  0  0  3  0  0  0  0  0  0
  -17.7970  -30.5160   24.1410 C   0  0  0  0  0  3  0  0  0  0  0  0
  -16.7040  -29.7340   23.7230 C   0  0  0  0  0  3  0  0  0  0  0  0
  -16.9280  -28.4760   23.1350 C   0  0  0  0  0  3  0  0  0  0  0  0
  -25.9390  -32.6060   23.9580 C   0  0  0  0  0  3  0  0  0  0  0  0
  -25.5930  -34.0040   24.2430 N   0  0  0  0  0  0  0  0  0  0  0  0
  -25.9210  -35.0410   23.4610 C   0  0  0  0  0  0  0  0  0  0  0  0
  -26.6210  -34.9230   22.4510 O   0  0  0  0  0  0  0  0  0  0  0  0
  -24.9810  -34.1700   25.0290 H   0  0  0  0  0  0  0  0  0  0  0  0
  -24.1550  -36.7770   23.0190 C   0  0  0  0  0  1  0  0  0  0  0  0
  -25.3910  -36.4300   23.8640 C   0  0  0  0  0  3  0  0  0  0  0  0
  -27.4820  -37.3960   24.7180 C   0  0  0  0  0  1  0  0  0  0  0  0
  -26.4020  -37.5030   23.7390 N   0  0  0  0  0  0  0  0  0  0  0  0
  -25.9720  -38.4170   23.8460 H   0  0  0  0  0  0  0  0  0  0  0  0
  -26.4380  -31.8770   25.2670 C   0  0  1  0  0  0  0  0  0  0  0  0
  -25.3200  -31.6410   26.3100 C   0  0  0  0  0  1  0  0  0  0  0  0
  -27.0620  -30.5050   24.9250 C   0  0  0  0  0  1  0  0  0  0  0  0
  -27.5470  -32.7140   25.9460 C   0  0  0  0  0  1  0  0  0  0  0  0
  1  6  1  0
  2  5  1  0
  3  1  2  0
  4  2  2  0
  4  3  1  0
  5 49  1  0
  5  6  2  0
  6  7  1  0
  8  9  2  0
  8  3  1  0
  9 10  1  0
 11  8  1  0
 12 17  1  0
 13 14  1  0
 13 12  1  0
 15 14  1  0
 15 22  1  0
 15 16  1  0
 17 11  1  0
 17 16  1  0
 18 11  2  0
 19 20  2  0
 20 39  1  0
 21 20  1  0
 21 24  1  0
 22 19  1  0
 22 23  1  0
 23 21  2  0
 24 25  1  0
 25 26  2  0
 27 30  1  0
 27 26  1  0
 28 27  2  0
 29 28  1  0
 29 24  2  0
 30 31  1  0
 31 32  1  0
 32 33  2  0
 34 33  1  0
 34 38  1  0
 35 34  2  0
 36 31  2  0
 36 35  1  0
 37 36  1  0
 39 40  1  0
 40 43  1  0
 40 42  1  0
 41 39  2  0
 44 19  1  0
 44 45  1  0
 46 44  1  0
 47 48  1  0
 48  4  1  0
 50 51  1  0
 50 49  1  0
 52 53  1  0
 52 51  1  0
 54 53  1  0
 55 66  2  0
 56 54  1  0
 56 61  1  0
 57 65  1  0
 57 67  1  0
 58 64  1  0
 58 60  1  0
 59 65  1  0
 60 61  2  0
 60 59  1  0
 62 56  2  0
 63 62  1  0
 63 58  2  0
 64 57  1  0
 65 55  1  0
 67 69  2  0
 68 67  1  0
 70 68  1  0
 71 80  2  0
 71 76  1  0
 72 68  1  0
 72 76  1  0
 73 72  1  0
 74 75  1  0
 74 73  1  0
 75 71  1  0
 76 77  2  0
 77 78  1  0
 79 78  2  0
 80 79  1  0
 81 55  1  0
 81 82  1  0
 81 91  1  0
 82 85  1  0
 83 87  1  0
 83 82  1  0
 84 83  2  0
 87 86  1  0
 89 90  1  0
 89 87  1  0
 89 88  1  0
 91 94  1  1
 91 92  1  0
 93 91  1  0
M  ISO  4   8 100  11 100  53 101  54 101
M  END
>  <TORSDO>  (34) 
F 23

>  <SCORE>  (34) 
-12.661

>  <name>  (34) 
34

>  <ligand_id>  (34) 
34

>  <original_smiles>  (34) 
[H]N=C(C(=O)N1C([H])([H])C([H])([H])C([H])([H])C([H])(n2nc(-c3c([H])c([H])c(Oc4c([H])c([H])c(F)c([H])c4F)c([H])c3[H])c(C(=O)N([H])[H])c2N([H])[H])C1([H])[H])c1c([H])c(F)c(OC([H])([H])C([H])([H])C([H])([H])C([H])([H])Oc2c([H])c([H])c3c(c2[H])C([H])([H])N(C(=O)C([H])(N([H])C(=O)C([H])(N([H])C([H])([H])[H])C([H])([H])[H])C(C([H])([H])[H])(C([H])([H])[H])C([H])([H])[H])C([H])(C(=O)N([H])C2([H])c4c([H])c([H])c([H])c([H])c4C([H])([H])C([H])([H])C2([H])[H])C3([H])[H])c([H])c1C([H])([H])C([H])([H])[H]

>  <smiles>  (34) 
[H]N=C(C(=O)N1C([H])([H])C([H])([H])C([H])([H])C([H])(n2nc(-c3c([H])c([H])c(Oc4c([H])c([H])c(F)c([H])c4F)c([H])c3[H])c(C(=O)N([H])[H])c2N([H])[H])C1([H])[H])c1c([H])c(F)c(OC([H])([H])C([H])([H])C([H])([H])C([H])([H])Oc2c([H])c([H])c3c(c2[H])C([H])([H])N(C(=O)C([H])(N([H])C(=O)C([H])(N([H])C([H])([H])[H])C([H])([H])[H])C(C([H])([H])[H])(C([H])([H])[H])C([H])([H])[H])C([H])(C(=O)N([H])C2([H])c4c([H])c([H])c([H])c([H])c4C([H])([H])C([H])([H])C2([H])[H])C3([H])[H])c([H])c1C([H])([H])C([H])([H])[H]

$$$$
35:0:0
     RDKit          3D

 95103  0  0  1  0  0  0  0  0999 V2000
  -28.8190  -20.3620   21.0030 C   0  0  0  0  0  3  0  0  0  0  0  0
  -29.7790  -20.8960   18.8790 C   0  0  0  0  0  3  0  0  0  0  0  0
  -29.9300  -18.5260   19.7230 C   0  0  0  0  0  0  0  0  0  0  0  0
  -29.0710  -21.3530   20.0170 C   0  0  0  0  0  0  0  0  0  0  0  0
  -29.2380  -18.9990   20.8830 C   0  0  0  0  0  0  0  0  0  0  0  0
  -30.1800  -19.5250   18.7190 C   0  0  0  0  0  0  0  0  0  0  0  0
  -28.9370  -18.1410   21.9480 N   0  0  0  0  0  0  0  0  0  0  0  0
  -28.1910  -18.3890   22.5890 H   0  0  0  0  0  0  0  0  0  0  0  0
  -29.0150  -17.1390   21.7890 H   0  0  0  0  0  0  0  0  0  0  0  0
  -28.8610  -23.8100   19.6900 C   0  0  0  0  0  3  0  0  0  0  0  0
  -28.4610  -22.6520   20.1390 N   0  0  0  0  0  0  0  0  0  0  0  0
  -27.8610  -25.0250   19.5720 C   0  0  0  0  0  2  0  0  0  0  0  0
  -28.2160  -26.4490   19.8400 O   0  0  0  0  0  0  0  0  0  0  0  0
  -24.5610  -31.7440   23.1720 C   0  0  0  0  0  0  0  0  0  0  0  0
  -27.1230  -27.3460   19.8340 C   0  0  0  0  0  0  0  0  0  0  0  0
  -23.3300  -30.4130   21.5010 C   0  0  0  0  0  3  0  0  0  0  0  0
  -24.7550  -28.9600   19.9630 C   0  0  0  0  0  0  0  0  0  0  0  0
  -25.8650  -30.7610   21.2720 C   0  0  0  0  0  2  0  0  0  0  0  0
  -25.9400  -29.4170   20.5550 C   0  0  0  0  0  0  0  0  0  0  0  0
  -27.1280  -28.6220   20.4840 C   0  0  0  0  0  3  0  0  0  0  0  0
  -25.9090  -26.9700   19.2020 C   0  0  0  0  0  3  0  0  0  0  0  0
  -24.7440  -27.7440   19.2750 C   0  0  0  0  0  3  0  0  0  0  0  0
  -23.5130  -29.8170   20.0850 C   0  0  0  0  0  2  0  0  0  0  0  0
  -24.6060  -30.9860   22.0380 N   0  0  0  0  0  0  0  0  0  0  0  0
  -23.4890  -31.9860   23.7440 O   0  0  0  0  0  0  0  0  0  0  0  0
  -22.7030  -29.3410   22.4250 C   0  0  0  0  0  0  0  0  0  0  0  0
  -21.3850  -29.1150   22.2840 N   0  0  0  0  0  0  0  0  0  0  0  0
  -23.4000  -28.7180   23.2290 O   0  0  0  0  0  0  0  0  0  0  0  0
  -20.8780  -29.6730   21.6120 H   0  0  0  0  0  0  0  0  0  0  0  0
  -18.0590  -27.7530   22.7040 C   0  0  0  0  0  0  0  0  0  0  0  0
  -20.5970  -28.1290   23.0260 C   0  0  0  0  0  3  0  0  0  0  0  0
  -20.7780  -26.7120   22.4320 C   0  0  0  0  0  2  0  0  0  0  0  0
  -19.7110  -26.3530   21.3930 C   0  0  0  0  0  2  0  0  0  0  0  0
  -18.3110  -26.4240   22.0120 C   0  0  0  0  0  2  0  0  0  0  0  0
  -19.1320  -28.5610   23.1650 C   0  0  0  0  0  0  0  0  0  0  0  0
  -18.8420  -29.8030   23.7700 C   0  0  0  0  0  3  0  0  0  0  0  0
  -17.5120  -30.2380   23.9200 C   0  0  0  0  0  3  0  0  0  0  0  0
  -16.4530  -29.4280   23.4740 C   0  0  0  0  0  3  0  0  0  0  0  0
  -16.7270  -28.1880   22.8720 C   0  0  0  0  0  3  0  0  0  0  0  0
  -25.8540  -32.3630   23.7870 C   0  0  0  0  0  3  0  0  0  0  0  0
  -25.5470  -33.7520   24.1550 N   0  0  0  0  0  0  0  0  0  0  0  0
  -25.8280  -34.8200   23.3950 C   0  0  0  0  0  0  0  0  0  0  0  0
  -26.4410  -34.7390   22.3280 O   0  0  0  0  0  0  0  0  0  0  0  0
  -24.9960  -33.8880   24.9900 H   0  0  0  0  0  0  0  0  0  0  0  0
  -24.0520  -36.5890   23.1850 C   0  0  0  0  0  1  0  0  0  0  0  0
  -25.3530  -36.1960   23.9010 C   0  0  0  0  0  3  0  0  0  0  0  0
  -27.5210  -37.1140   24.5990 C   0  0  0  0  0  1  0  0  0  0  0  0
  -26.3590  -37.2670   23.7260 N   0  0  0  0  0  0  0  0  0  0  0  0
  -25.9480  -38.1790   23.9050 H   0  0  0  0  0  0  0  0  0  0  0  0
  -26.3880  -31.5610   25.0380 C   0  0  1  0  0  0  0  0  0  0  0  0
  -25.3080  -31.2890   26.1100 C   0  0  0  0  0  1  0  0  0  0  0  0
  -26.9770  -30.1990   24.6050 C   0  0  0  0  0  1  0  0  0  0  0  0
  -27.5400  -32.3470   25.7070 C   0  0  0  0  0  1  0  0  0  0  0  0
  -30.4240  -17.0720   19.4750 C   0  0  0  0  0  3  0  0  0  0  0  0
  -30.1910  -15.9190   20.0620 N   0  0  0  0  0  0  0  0  0  0  0  0
  -30.8860  -14.7750   19.5640 C   0  0  0  0  0  0  0  0  0  0  0  0
  -30.4860  -12.5590   18.5000 C   0  0  0  0  0  2  0  0  0  0  0  0
  -29.4100  -12.7250   17.4060 C   0  0  0  0  0  2  0  0  0  0  0  0
  -28.0030  -12.5500   18.0070 C   0  0  0  0  0  2  0  0  0  0  0  0
  -27.7990  -13.3850   19.2990 C   0  0  0  0  0  3  0  0  0  0  0  0
  -28.9880  -13.2400   20.2720 C   0  0  0  0  0  2  0  0  0  0  0  0
  -30.2180  -13.5740   19.5430 N   0  0  0  0  0  0  0  0  0  0  0  0
  -31.9920  -14.8340   19.0180 O   0  0  0  0  0  0  0  0  0  0  0  0
  -25.5440  -13.9470   20.3880 C   0  0  0  0  0  0  0  0  0  0  0  0
  -24.5200  -13.1590   20.8410 C   0  0  0  0  0  0  0  0  0  0  0  0
  -24.9460  -11.8080   20.6490 C   0  0  0  0  0  0  0  0  0  0  0  0
  -26.5270  -13.0770   19.9460 N   0  0  0  0  0  0  0  0  0  0  0  0
  -26.1820  -11.7800   20.1630 N   0  0  0  0  0  0  0  0  0  0  0  0
  -24.2250  -10.5440   20.8460 C   0  0  0  0  0  0  0  0  0  0  0  0
  -24.6650   -9.5780   21.7780 C   0  0  0  0  0  3  0  0  0  0  0  0
  -23.9430   -8.3790   21.9620 C   0  0  0  0  0  3  0  0  0  0  0  0
  -22.7660   -8.1370   21.2130 C   0  0  0  0  0  0  0  0  0  0  0  0
  -22.3460   -9.0900   20.2710 C   0  0  0  0  0  3  0  0  0  0  0  0
  -23.0680  -10.2810   20.0840 C   0  0  0  0  0  3  0  0  0  0  0  0
  -22.0160   -6.9900   21.3060 O   0  0  0  0  0  0  0  0  0  0  0  0
  -21.8210   -6.3520   22.5050 C   0  0  0  0  0  0  0  0  0  0  0  0
  -21.2020   -6.9960   23.5990 C   0  0  0  0  0  3  0  0  0  0  0  0
  -20.9580   -6.2820   24.7890 C   0  0  0  0  0  3  0  0  0  0  0  0
  -21.3230   -4.9260   24.8860 C   0  0  0  0  0  0  0  0  0  0  0  0
  -21.9350   -4.2810   23.7960 C   0  0  0  0  0  3  0  0  0  0  0  0
  -22.1800   -4.9930   22.6070 C   0  0  0  0  0  0  0  0  0  0  0  0
  -22.7500   -4.3620   21.5520 F   0  0  0  0  0  0  0  0  0  0  0  0
  -21.0830   -4.2380   26.0260 F   0  0  0  0  0  0  0  0  0  0  0  0
  -23.1850  -13.6300   21.3370 C   0  0  0  0  0  0  0  0  0  0  0  0
  -22.5730  -12.8850   22.2520 N   0  0  0  0  0  0  0  0  0  0  0  0
  -22.6970  -14.6910   20.9500 O   0  0  0  0  0  0  0  0  0  0  0  0
  -22.9840  -12.0240   22.5840 H   0  0  0  0  0  0  0  0  0  0  0  0
  -21.6820  -13.1800   22.6270 H   0  0  0  0  0  0  0  0  0  0  0  0
  -25.7140  -15.3250   20.2950 N   0  0  0  0  0  0  0  0  0  0  0  0
  -25.0020  -15.9850   20.5890 H   0  0  0  0  0  0  0  0  0  0  0  0
  -26.5530  -15.7730   19.9470 H   0  0  0  0  0  0  0  0  0  0  0  0
  -30.8160  -19.1140   17.5640 O   0  0  0  0  0  0  0  0  0  0  0  0
  -30.5200  -19.8050   16.3560 C   0  0  0  0  0  2  0  0  0  0  0  0
  -29.8460  -18.4720   14.3170 C   0  0  0  0  0  2  0  0  0  0  0  0
  -30.7880  -18.8980   15.1750 C   0  0  0  0  0  3  0  0  0  0  0  0
  2  4  1  0
  3  5  2  0
  4 11  1  0
  4  1  2  0
  5  1  1  0
  5  7  1  0
  6  2  2  0
  6  3  1  0
  7  8  1  0
  9  7  1  0
 10 11  2  0
 12 10  1  0
 12 13  1  0
 14 25  2  0
 15 13  1  0
 15 20  1  0
 16 24  1  0
 16 26  1  0
 17 23  1  0
 17 19  1  0
 18 24  1  0
 19 18  1  0
 20 19  2  0
 21 22  1  0
 21 15  2  0
 22 17  2  0
 23 16  1  0
 24 14  1  0
 26 28  2  0
 27 26  1  0
 29 27  1  0
 30 39  2  0
 30 35  1  0
 31 27  1  0
 31 35  1  0
 32 31  1  0
 33 34  1  0
 33 32  1  0
 34 30  1  0
 35 36  2  0
 36 37  1  0
 38 37  2  0
 39 38  1  0
 40 14  1  0
 40 41  1  0
 40 50  1  0
 41 44  1  0
 42 46  1  0
 42 41  1  0
 43 42  2  0
 46 45  1  0
 48 46  1  0
 48 49  1  0
 48 47  1  0
 50 53  1  1
 50 51  1  0
 52 50  1  0
 54  3  1  0
 54 55  2  0
 56 55  1  0
 57 62  1  0
 58 59  1  0
 58 57  1  0
 60 59  1  0
 60 67  1  0
 60 61  1  0
 62 56  1  0
 62 61  1  0
 63 56  2  0
 64 65  2  0
 65 84  1  0
 66 65  1  0
 66 69  1  0
 67 68  1  0
 67 64  1  0
 68 66  2  0
 69 70  1  0
 70 71  2  0
 72 75  1  0
 72 71  1  0
 73 72  2  0
 74 73  1  0
 74 69  2  0
 75 76  1  0
 76 81  2  0
 76 77  1  0
 77 78  2  0
 78 79  1  0
 79 83  1  0
 80 79  2  0
 81 80  1  0
 82 81  1  0
 84 85  1  0
 85 87  1  0
 85 88  1  0
 86 84  2  0
 89 64  1  0
 89 90  1  0
 91 89  1  0
 92  6  1  0
 93 92  1  0
 94 95  2  0
 95 93  1  0
M  ISO  4  12 101  13 101  55 100  56 100
M  END
>  <TORSDO>  (35) 
F 23

>  <SCORE>  (35) 
-10.885

>  <name>  (35) 
35

>  <ligand_id>  (35) 
35

>  <original_smiles>  (35) 
[H]C(=NC(=O)N1C([H])([H])C([H])([H])C([H])([H])C([H])(n2nc(-c3c([H])c([H])c(Oc4c([H])c([H])c(F)c([H])c4F)c([H])c3[H])c(C(=O)N([H])[H])c2N([H])[H])C1([H])[H])c1c(OC([H])([H])C([H])=C([H])[H])c([H])c(N=C([H])C([H])([H])Oc2c([H])c([H])c3c(c2[H])C([H])([H])N(C(=O)C([H])(N([H])C(=O)C([H])(N([H])C([H])([H])[H])C([H])([H])[H])C(C([H])([H])[H])(C([H])([H])[H])C([H])([H])[H])C([H])(C(=O)N([H])C2([H])c4c([H])c([H])c([H])c([H])c4C([H])([H])C([H])([H])C2([H])[H])C3([H])[H])c([H])c1N([H])[H]

>  <smiles>  (35) 
[H]C(=NC(=O)N1C([H])([H])C([H])([H])C([H])([H])C([H])(n2nc(-c3c([H])c([H])c(Oc4c([H])c([H])c(F)c([H])c4F)c([H])c3[H])c(C(=O)N([H])[H])c2N([H])[H])C1([H])[H])c1c(OC([H])([H])C([H])=C([H])[H])c([H])c(N=C([H])C([H])([H])Oc2c([H])c([H])c3c(c2[H])C([H])([H])N(C(=O)C([H])(N([H])C(=O)C([H])(N([H])C([H])([H])[H])C([H])([H])[H])C(C([H])([H])[H])(C([H])([H])[H])C([H])([H])[H])C([H])(C(=O)N([H])C2([H])c4c([H])c([H])c([H])c([H])c4C([H])([H])C([H])([H])C2([H])[H])C3([H])[H])c([H])c1N([H])[H]

$$$$
36:0:0
     RDKit          3D

 90 98  0  0  1  0  0  0  0  0999 V2000
  -29.1460  -19.7260   19.9840 C   0  0  0  0  0  3  0  0  0  0  0  0
  -30.0220  -18.7940   20.6890 C   0  0  0  0  0  0  0  0  0  0  0  0
  -29.2090  -21.0140   20.5380 C   0  0  0  0  0  0  0  0  0  0  0  0
  -30.5200  -19.6070   21.6920 C   0  0  0  0  0  0  0  0  0  0  0  0
  -31.5210  -19.3950   22.7850 C   0  0  0  0  0  1  0  0  0  0  0  0
  -30.0520  -20.9100   21.6050 O   0  0  0  0  0  0  0  0  0  0  0  0
  -30.7350  -14.8870   20.2160 C   0  0  0  0  0  0  0  0  0  0  0  0
  -30.4170  -12.6130   19.2090 C   0  0  0  0  0  2  0  0  0  0  0  0
  -29.4600  -12.6700   18.0010 C   0  0  0  0  0  2  0  0  0  0  0  0
  -28.0070  -12.4950   18.4750 C   0  0  0  0  0  2  0  0  0  0  0  0
  -27.6610  -13.4020   19.6860 C   0  0  0  0  0  3  0  0  0  0  0  0
  -28.7480  -13.3590   20.7840 C   0  0  0  0  0  2  0  0  0  0  0  0
  -30.0270  -13.7000   20.1490 N   0  0  0  0  0  0  0  0  0  0  0  0
  -31.9170  -14.8370   19.8670 O   0  0  0  0  0  0  0  0  0  0  0  0
  -30.6700  -17.3970   20.3860 C   0  0  0  0  0  0  0  0  0  0  0  0
  -30.1020  -16.1160   20.4780 N   0  0  0  0  0  0  0  0  0  0  0  0
  -31.8460  -17.5160   20.0300 O   0  0  0  0  0  0  0  0  0  0  0  0
  -29.1320  -16.0820   20.7450 H   0  0  0  0  0  0  0  0  0  0  0  0
  -25.3000  -13.9840   20.4890 C   0  0  0  0  0  0  0  0  0  0  0  0
  -24.2440  -13.2080   20.8790 C   0  0  0  0  0  0  0  0  0  0  0  0
  -24.7020  -11.8550   20.8210 C   0  0  0  0  0  0  0  0  0  0  0  0
  -26.3340  -13.1070   20.2160 N   0  0  0  0  0  0  0  0  0  0  0  0
  -25.9850  -11.8210   20.4800 N   0  0  0  0  0  0  0  0  0  0  0  0
  -23.9770  -10.5920   21.0120 C   0  0  0  0  0  0  0  0  0  0  0  0
  -24.4180   -9.6150   21.9330 C   0  0  0  0  0  3  0  0  0  0  0  0
  -23.6880   -8.4210   22.1140 C   0  0  0  0  0  3  0  0  0  0  0  0
  -22.5040   -8.1930   21.3740 C   0  0  0  0  0  0  0  0  0  0  0  0
  -22.0820   -9.1580   20.4430 C   0  0  0  0  0  3  0  0  0  0  0  0
  -22.8110  -10.3450   20.2600 C   0  0  0  0  0  3  0  0  0  0  0  0
  -21.7470   -7.0500   21.4630 O   0  0  0  0  0  0  0  0  0  0  0  0
  -21.6950   -6.3110   22.6180 C   0  0  0  0  0  0  0  0  0  0  0  0
  -21.2460   -6.8630   23.8370 C   0  0  0  0  0  3  0  0  0  0  0  0
  -21.1450   -6.0500   24.9830 C   0  0  0  0  0  3  0  0  0  0  0  0
  -21.4790   -4.6840   24.9090 C   0  0  0  0  0  0  0  0  0  0  0  0
  -21.9210   -4.1310   23.6940 C   0  0  0  0  0  3  0  0  0  0  0  0
  -22.0240   -4.9420   22.5510 C   0  0  0  0  0  0  0  0  0  0  0  0
  -22.4300   -4.3990   21.3780 F   0  0  0  0  0  0  0  0  0  0  0  0
  -21.3730   -3.9000   26.0090 F   0  0  0  0  0  0  0  0  0  0  0  0
  -22.8540  -13.6860   21.1870 C   0  0  0  0  0  0  0  0  0  0  0  0
  -22.1440  -12.9820   22.0610 N   0  0  0  0  0  0  0  0  0  0  0  0
  -22.4110  -14.7200   20.6890 O   0  0  0  0  0  0  0  0  0  0  0  0
  -22.5160  -12.1430   22.4800 H   0  0  0  0  0  0  0  0  0  0  0  0
  -21.2170  -13.2890   22.3150 H   0  0  0  0  0  0  0  0  0  0  0  0
  -25.4630  -15.3570   20.3210 N   0  0  0  0  0  0  0  0  0  0  0  0
  -24.6990  -16.0080   20.4640 H   0  0  0  0  0  0  0  0  0  0  0  0
  -26.2880  -15.7950   19.9340 H   0  0  0  0  0  0  0  0  0  0  0  0
  -28.6330  -22.3590   20.2000 C   0  0  0  0  0  3  0  0  0  0  0  0
  -28.8140  -23.6930   20.5620 C   0  0  0  0  0  3  0  0  0  0  0  0
  -27.9380  -24.9240   20.0470 C   0  0  0  0  0  2  0  0  0  0  0  0
  -28.2510  -26.3810   20.3260 O   0  0  0  0  0  0  0  0  0  0  0  0
  -24.5720  -31.9390   23.2360 C   0  0  0  0  0  0  0  0  0  0  0  0
  -27.1860  -27.3200   20.2140 C   0  0  0  0  0  0  0  0  0  0  0  0
  -23.3820  -30.5390   21.5930 C   0  0  0  0  0  3  0  0  0  0  0  0
  -24.8410  -28.9920   20.1670 C   0  0  0  0  0  0  0  0  0  0  0  0
  -25.9290  -30.8420   21.4310 C   0  0  0  0  0  2  0  0  0  0  0  0
  -26.0110  -29.4600   20.7810 C   0  0  0  0  0  0  0  0  0  0  0  0
  -27.1870  -28.6360   20.7960 C   0  0  0  0  0  3  0  0  0  0  0  0
  -25.9990  -26.9460   19.5420 C   0  0  0  0  0  3  0  0  0  0  0  0
  -24.8420  -27.7450   19.5320 C   0  0  0  0  0  3  0  0  0  0  0  0
  -23.6070  -29.8710   20.2120 C   0  0  0  0  0  2  0  0  0  0  0  0
  -24.6460  -31.1250   22.1420 N   0  0  0  0  0  0  0  0  0  0  0  0
  -23.4850  -32.2150   23.7620 O   0  0  0  0  0  0  0  0  0  0  0  0
  -22.7160  -29.5190   22.5510 C   0  0  0  0  0  0  0  0  0  0  0  0
  -21.3880  -29.3500   22.4290 N   0  0  0  0  0  0  0  0  0  0  0  0
  -23.3940  -28.8870   23.3670 O   0  0  0  0  0  0  0  0  0  0  0  0
  -20.9000  -29.9100   21.7430 H   0  0  0  0  0  0  0  0  0  0  0  0
  -18.0040  -28.1690   22.9450 C   0  0  0  0  0  0  0  0  0  0  0  0
  -20.5660  -28.4170   23.2020 C   0  0  0  0  0  3  0  0  0  0  0  0
  -20.6590  -26.9860   22.6240 C   0  0  0  0  0  2  0  0  0  0  0  0
  -19.5500  -26.6700   21.6140 C   0  0  0  0  0  2  0  0  0  0  0  0
  -18.1710  -26.8220   22.2630 C   0  0  0  0  0  2  0  0  0  0  0  0
  -19.1290  -28.9250   23.3710 C   0  0  0  0  0  0  0  0  0  0  0  0
  -18.9190  -30.1850   23.9720 C   0  0  0  0  0  3  0  0  0  0  0  0
  -17.6190  -30.6900   24.1490 C   0  0  0  0  0  3  0  0  0  0  0  0
  -16.5070  -29.9340   23.7380 C   0  0  0  0  0  3  0  0  0  0  0  0
  -16.7020  -28.6740   23.1410 C   0  0  0  0  0  3  0  0  0  0  0  0
  -25.8510  -32.5770   23.8640 C   0  0  0  0  0  3  0  0  0  0  0  0
  -25.5350  -33.9750   24.1850 N   0  0  0  0  0  0  0  0  0  0  0  0
  -25.8650  -35.0270   23.4240 C   0  0  0  0  0  0  0  0  0  0  0  0
  -26.5350  -34.9230   22.3940 O   0  0  0  0  0  0  0  0  0  0  0  0
  -24.9310  -34.1300   24.9800 H   0  0  0  0  0  0  0  0  0  0  0  0
  -24.1350  -36.8210   23.0640 C   0  0  0  0  0  1  0  0  0  0  0  0
  -25.3740  -36.4160   23.8790 C   0  0  0  0  0  3  0  0  0  0  0  0
  -27.5000  -37.3070   24.7250 C   0  0  0  0  0  1  0  0  0  0  0  0
  -26.4060  -37.4700   23.7710 N   0  0  0  0  0  0  0  0  0  0  0  0
  -25.9970  -38.3890   23.9100 H   0  0  0  0  0  0  0  0  0  0  0  0
  -26.3620  -31.8120   25.1470 C   0  0  1  0  0  0  0  0  0  0  0  0
  -25.2620  -31.5740   26.2060 C   0  0  0  0  0  1  0  0  0  0  0  0
  -26.9560  -30.4340   24.7680 C   0  0  0  0  0  1  0  0  0  0  0  0
  -27.5060  -32.6140   25.8110 C   0  0  0  0  0  1  0  0  0  0  0  0
  1  3  2  0
  1  2  1  0
  2  4  2  0
  3  6  1  0
  4  5  1  0
  6  4  1  0
  7 16  1  0
  8 13  1  0
  9 10  1  0
  9  8  1  0
 11 10  1  0
 11 22  1  0
 11 12  1  0
 13  7  1  0
 13 12  1  0
 14  7  2  0
 15 16  1  0
 15  2  1  0
 16 18  1  0
 17 15  2  0
 19 20  2  0
 20 39  1  0
 21 20  1  0
 21 24  1  0
 22 23  1  0
 22 19  1  0
 23 21  2  0
 24 25  1  0
 25 26  2  0
 27 30  1  0
 27 26  1  0
 28 27  2  0
 29 28  1  0
 29 24  2  0
 30 31  1  0
 31 32  1  0
 32 33  2  0
 34 33  1  0
 34 38  1  0
 35 34  2  0
 36 31  2  0
 36 35  1  0
 37 36  1  0
 39 40  1  0
 40 43  1  0
 40 42  1  0
 41 39  2  0
 44 45  1  0
 44 19  1  0
 46 44  1  0
 47  3  1  0
 47 48  2  0
 49 50  1  0
 49 48  1  0
 51 62  2  0
 52 50  1  0
 52 57  1  0
 53 61  1  0
 53 63  1  0
 54 60  1  0
 54 56  1  0
 55 61  1  0
 56 57  2  0
 56 55  1  0
 58 52  2  0
 59 58  1  0
 59 54  2  0
 60 53  1  0
 61 51  1  0
 63 65  2  0
 64 63  1  0
 66 64  1  0
 67 76  2  0
 67 72  1  0
 68 64  1  0
 68 72  1  0
 69 68  1  0
 70 71  1  0
 70 69  1  0
 71 67  1  0
 72 73  2  0
 73 74  1  0
 75 74  2  0
 76 75  1  0
 77 51  1  0
 77 78  1  0
 77 87  1  0
 78 81  1  0
 79 83  1  0
 79 78  1  0
 80 79  2  0
 83 82  1  0
 85 83  1  0
 85 86  1  0
 85 84  1  0
 87 90  1  1
 87 88  1  0
 89 87  1  0
M  ISO  4   7 100  16 100  49 101  50 101
M  END
>  <TORSDO>  (36) 
F 18

>  <SCORE>  (36) 
-14.721

>  <name>  (36) 
36

>  <ligand_id>  (36) 
36

>  <original_smiles>  (36) 
[H]C(=C([H])C([H])([H])Oc1c([H])c([H])c2c(c1[H])C([H])([H])N(C(=O)C([H])(N([H])C(=O)C([H])(N([H])C([H])([H])[H])C([H])([H])[H])C(C([H])([H])[H])(C([H])([H])[H])C([H])([H])[H])C([H])(C(=O)N([H])C1([H])c3c([H])c([H])c([H])c([H])c3C([H])([H])C([H])([H])C1([H])[H])C2([H])[H])c1oc(C([H])([H])[H])c(C(=O)N([H])C(=O)N2C([H])([H])C([H])([H])C([H])([H])C([H])(n3nc(-c4c([H])c([H])c(Oc5c([H])c([H])c(F)c([H])c5F)c([H])c4[H])c(C(=O)N([H])[H])c3N([H])[H])C2([H])[H])c1[H]

>  <smiles>  (36) 
[H]C(=C([H])C([H])([H])Oc1c([H])c([H])c2c(c1[H])C([H])([H])N(C(=O)C([H])(N([H])C(=O)C([H])(N([H])C([H])([H])[H])C([H])([H])[H])C(C([H])([H])[H])(C([H])([H])[H])C([H])([H])[H])C([H])(C(=O)N([H])C1([H])c3c([H])c([H])c([H])c([H])c3C([H])([H])C([H])([H])C1([H])[H])C2([H])[H])c1oc(C([H])([H])[H])c(C(=O)N([H])C(=O)N2C([H])([H])C([H])([H])C([H])([H])C([H])(n3nc(-c4c([H])c([H])c(Oc5c([H])c([H])c(F)c([H])c5F)c([H])c4[H])c(C(=O)N([H])[H])c3N([H])[H])C2([H])[H])c1[H]

$$$$
37:0:0
     RDKit          3D

 98106  0  0  1  0  0  0  0  0999 V2000
  -29.0170  -19.5830   20.5070 C   0  0  0  0  0  3  0  0  0  0  0  0
  -31.3570  -18.3020   21.4000 C   0  0  0  0  0  3  0  0  0  0  0  0
  -30.0170  -20.3750   21.1200 C   0  0  0  0  0  0  0  0  0  0  0  0
  -30.2990  -17.5070   20.8970 C   0  0  0  0  0  0  0  0  0  0  0  0
  -29.1510  -18.1700   20.4010 C   0  0  0  0  0  0  0  0  0  0  0  0
  -31.2220  -19.7210   21.5210 C   0  0  0  0  0  0  0  0  0  0  0  0
  -31.0950  -15.0700   20.8130 C   0  0  0  0  0  0  0  0  0  0  0  0
  -31.0350  -12.7260   19.9910 C   0  0  0  0  0  2  0  0  0  0  0  0
  -30.1850  -12.6900   18.7010 C   0  0  0  0  0  2  0  0  0  0  0  0
  -28.6830  -12.5420   19.0230 C   0  0  0  0  0  2  0  0  0  0  0  0
  -28.2060  -13.5230   20.1260 C   0  0  0  0  0  3  0  0  0  0  0  0
  -29.1760  -13.5130   21.3290 C   0  0  0  0  0  2  0  0  0  0  0  0
  -30.5240  -13.8270   20.8240 N   0  0  0  0  0  0  0  0  0  0  0  0
  -32.2590  -15.2650   20.4530 O   0  0  0  0  0  0  0  0  0  0  0  0
  -30.2280  -16.0770   21.0790 N   0  0  0  0  0  0  0  0  0  0  0  0
  -29.2890  -15.7370   21.2160 H   0  0  0  0  0  0  0  0  0  0  0  0
  -25.7760  -14.1410   20.7060 C   0  0  0  0  0  0  0  0  0  0  0  0
  -24.6850  -13.3760   21.0180 C   0  0  0  0  0  0  0  0  0  0  0  0
  -25.1340  -12.0210   21.0000 C   0  0  0  0  0  0  0  0  0  0  0  0
  -26.8270  -13.2530   20.5290 N   0  0  0  0  0  0  0  0  0  0  0  0
  -26.4400  -11.9710   20.7590 N   0  0  0  0  0  0  0  0  0  0  0  0
  -24.3850  -10.7650   21.1380 C   0  0  0  0  0  0  0  0  0  0  0  0
  -24.7380   -9.7990   22.1050 C   0  0  0  0  0  3  0  0  0  0  0  0
  -23.9910   -8.6080   22.2320 C   0  0  0  0  0  3  0  0  0  0  0  0
  -22.8790   -8.3740   21.3890 C   0  0  0  0  0  0  0  0  0  0  0  0
  -22.5460   -9.3300   20.4110 C   0  0  0  0  0  3  0  0  0  0  0  0
  -23.2950  -10.5120   20.2830 C   0  0  0  0  0  3  0  0  0  0  0  0
  -22.1100   -7.2350   21.4260 O   0  0  0  0  0  0  0  0  0  0  0  0
  -21.9400   -6.5190   22.5840 C   0  0  0  0  0  0  0  0  0  0  0  0
  -21.3650   -7.0930   23.7400 C   0  0  0  0  0  3  0  0  0  0  0  0
  -21.1430   -6.3000   24.8840 C   0  0  0  0  0  3  0  0  0  0  0  0
  -21.4870   -4.9340   24.8720 C   0  0  0  0  0  0  0  0  0  0  0  0
  -22.0550   -4.3600   23.7210 C   0  0  0  0  0  3  0  0  0  0  0  0
  -22.2790   -5.1500   22.5800 C   0  0  0  0  0  0  0  0  0  0  0  0
  -22.8060   -4.5870   21.4670 F   0  0  0  0  0  0  0  0  0  0  0  0
  -21.2670   -4.1700   25.9680 F   0  0  0  0  0  0  0  0  0  0  0  0
  -23.2790  -13.8660   21.2200 C   0  0  0  0  0  0  0  0  0  0  0  0
  -22.5020  -13.1760   22.0470 N   0  0  0  0  0  0  0  0  0  0  0  0
  -22.8790  -14.8970   20.6820 O   0  0  0  0  0  0  0  0  0  0  0  0
  -22.8370  -12.3450   22.5100 H   0  0  0  0  0  0  0  0  0  0  0  0
  -21.5580  -13.4850   22.2240 H   0  0  0  0  0  0  0  0  0  0  0  0
  -25.9530  -15.5110   20.5330 N   0  0  0  0  0  0  0  0  0  0  0  0
  -25.1550  -16.1390   20.5500 H   0  0  0  0  0  0  0  0  0  0  0  0
  -26.7930  -15.9520   20.1790 H   0  0  0  0  0  0  0  0  0  0  0  0
  -32.7910  -20.0180   23.3040 C   0  0  0  0  0  1  0  0  0  0  0  0
  -32.2110  -20.4960   22.0950 O   0  0  0  0  0  0  0  0  0  0  0  0
  -29.6760  -21.7640   21.6630 C   0  0  0  0  0  0  0  0  0  0  0  0
  -29.7140  -21.8290   22.8980 O   0  0  0  0  0  0  0  0  0  0  0  0
  -28.3740  -23.5790   21.3460 C   0  0  0  0  0  3  0  0  0  0  0  0
  -29.3460  -22.8800   20.8480 N   0  0  0  0  0  2  0  0  0  0  0  0
  -26.8980  -25.3360   22.0560 C   0  0  0  0  0  2  0  0  0  0  0  0
  -27.9750  -25.0530   21.2770 C   0  0  0  0  0  0  0  0  0  0  0  0
  -26.3210  -26.6840   22.4380 C   0  0  0  0  0  1  0  0  0  0  0  0
  -28.7970  -26.1560   20.5390 C   0  0  0  0  0  2  0  0  0  0  0  0
  -28.2080  -26.8710   19.4010 O   0  0  0  0  0  0  0  0  0  0  0  0
  -24.5870  -31.8300   23.1690 C   0  0  0  0  0  0  0  0  0  0  0  0
  -27.0930  -27.6790   19.5680 C   0  0  0  0  0  0  0  0  0  0  0  0
  -23.3100  -30.5640   21.4730 C   0  0  0  0  0  3  0  0  0  0  0  0
  -24.7010  -29.1940   19.8250 C   0  0  0  0  0  0  0  0  0  0  0  0
  -25.8220  -30.9680   21.1760 C   0  0  0  0  0  2  0  0  0  0  0  0
  -25.8880  -29.6600   20.4070 C   0  0  0  0  0  0  0  0  0  0  0  0
  -27.0930  -28.9140   20.2740 C   0  0  0  0  0  3  0  0  0  0  0  0
  -25.8990  -27.2650   18.9460 C   0  0  0  0  0  3  0  0  0  0  0  0
  -24.7060  -28.0010   19.0820 C   0  0  0  0  0  3  0  0  0  0  0  0
  -23.4510  -30.0250   20.0250 C   0  0  0  0  0  2  0  0  0  0  0  0
  -24.5950  -31.1310   21.9970 N   0  0  0  0  0  0  0  0  0  0  0  0
  -23.5360  -32.0310   23.7910 O   0  0  0  0  0  0  0  0  0  0  0  0
  -22.7230  -29.4480   22.3680 C   0  0  0  0  0  0  0  0  0  0  0  0
  -21.4000  -29.2290   22.2720 N   0  0  0  0  0  0  0  0  0  0  0  0
  -23.4540  -28.7870   23.1110 O   0  0  0  0  0  0  0  0  0  0  0  0
  -20.8670  -29.8180   21.6500 H   0  0  0  0  0  0  0  0  0  0  0  0
  -18.1000  -27.8330   22.7330 C   0  0  0  0  0  0  0  0  0  0  0  0
  -20.6470  -28.2020   22.9900 C   0  0  0  0  0  3  0  0  0  0  0  0
  -20.8120  -26.8190   22.3190 C   0  0  0  0  0  2  0  0  0  0  0  0
  -19.7100  -26.5050   21.3000 C   0  0  0  0  0  2  0  0  0  0  0  0
  -18.3310  -26.5420   21.9640 C   0  0  0  0  0  2  0  0  0  0  0  0
  -19.1850  -28.6200   23.2010 C   0  0  0  0  0  0  0  0  0  0  0  0
  -18.9120  -29.8310   23.8780 C   0  0  0  0  0  3  0  0  0  0  0  0
  -17.5870  -30.2520   24.0950 C   0  0  0  0  0  3  0  0  0  0  0  0
  -16.5170  -29.4600   23.6450 C   0  0  0  0  0  3  0  0  0  0  0  0
  -16.7740  -28.2540   22.9690 C   0  0  0  0  0  3  0  0  0  0  0  0
  -25.8970  -32.4250   23.7720 C   0  0  0  0  0  3  0  0  0  0  0  0
  -25.5900  -33.7800   24.2490 N   0  0  0  0  0  0  0  0  0  0  0  0
  -25.8940  -34.9080   23.5900 C   0  0  0  0  0  0  0  0  0  0  0  0
  -26.5360  -34.9140   22.5360 O   0  0  0  0  0  0  0  0  0  0  0  0
  -25.0220  -33.8470   25.0810 H   0  0  0  0  0  0  0  0  0  0  0  0
  -24.1600  -36.7230   23.4460 C   0  0  0  0  0  1  0  0  0  0  0  0
  -25.4110  -36.2390   24.1970 C   0  0  0  0  0  3  0  0  0  0  0  0
  -27.5530  -37.0390   25.0950 C   0  0  0  0  0  1  0  0  0  0  0  0
  -26.4420  -37.2990   24.1830 N   0  0  0  0  0  0  0  0  0  0  0  0
  -26.0380  -38.2000   24.4250 H   0  0  0  0  0  0  0  0  0  0  0  0
  -26.4990  -31.5480   24.9380 C   0  0  1  0  0  0  0  0  0  0  0  0
  -25.4770  -31.2000   26.0440 C   0  0  0  0  0  1  0  0  0  0  0  0
  -27.0640  -30.2170   24.3880 C   0  0  0  0  0  1  0  0  0  0  0  0
  -27.6830  -32.2920   25.5980 C   0  0  0  0  0  1  0  0  0  0  0  0
  -28.1410  -17.3920   19.8940 O   0  0  0  0  0  0  0  0  0  0  0  0
  -27.0440  -16.5830   17.9420 C   0  0  0  0  0  1  0  0  0  0  0  0
  -27.6310  -17.8130   18.6370 C   0  0  0  0  0  2  0  0  0  0  0  0
  1  3  1  0
  2  6  1  0
  3  6  2  0
  3 47  1  0
  4 15  1  0
  4  2  2  0
  5  1  2  0
  5  4  1  0
  6 46  1  0
  7 13  1  0
  7 15  1  0
  8 13  1  0
  9 10  1  0
  9  8  1  0
 11 10  1  0
 11 20  1  0
 11 12  1  0
 13 12  1  0
 14  7  2  0
 15 16  1  0
 17 18  2  0
 18 37  1  0
 19 18  1  0
 19 22  1  0
 20 17  1  0
 20 21  1  0
 21 19  2  0
 22 23  1  0
 23 24  2  0
 25 28  1  0
 25 24  1  0
 26 25  2  0
 27 26  1  0
 27 22  2  0
 28 29  1  0
 29 30  1  0
 30 31  2  0
 32 31  1  0
 32 36  1  0
 33 32  2  0
 34 29  2  0
 34 33  1  0
 35 34  1  0
 37 38  1  0
 38 41  1  0
 38 40  1  0
 39 37  2  0
 42 43  1  0
 42 17  1  0
 44 42  1  0
 46 45  1  0
 47 48  2  0
 50 49  1  0
 50 47  1  0
 51 53  1  0
 52 49  2  0
 52 51  1  0
 54 52  1  0
 55 57  1  0
 55 54  1  0
 56 67  2  0
 57 62  1  0
 58 66  1  0
 58 68  1  0
 59 65  1  0
 59 61  1  0
 60 66  1  0
 61 60  1  0
 62 61  2  0
 63 64  1  0
 63 57  2  0
 64 59  2  0
 65 58  1  0
 66 56  1  0
 68 70  2  0
 69 68  1  0
 71 69  1  0
 72 81  2  0
 72 77  1  0
 73 69  1  0
 73 77  1  0
 74 73  1  0
 75 76  1  0
 75 74  1  0
 76 72  1  0
 77 78  2  0
 78 79  1  0
 80 79  2  0
 81 80  1  0
 82 56  1  0
 82 83  1  0
 82 92  1  0
 83 86  1  0
 84 88  1  0
 84 83  1  0
 85 84  2  0
 88 87  1  0
 90 88  1  0
 90 91  1  0
 90 89  1  0
 92 95  1  1
 92 93  1  0
 94 92  1  0
 96  5  1  0
 97 98  1  0
 98 96  1  0
M  ISO  4   7 100  15 100  54 101  55 101
M  END
>  <TORSDO>  (37) 
F 23

>  <SCORE>  (37) 
-10.331

>  <name>  (37) 
37

>  <ligand_id>  (37) 
37

>  <original_smiles>  (37) 
[H]C(=NC(=O)c1c([H])c(OC([H])([H])C([H])([H])[H])c(N([H])C(=O)N2C([H])([H])C([H])([H])C([H])([H])C([H])(n3nc(-c4c([H])c([H])c(Oc5c([H])c([H])c(F)c([H])c5F)c([H])c4[H])c(C(=O)N([H])[H])c3N([H])[H])C2([H])[H])c([H])c1OC([H])([H])[H])C(=C([H])C([H])([H])[H])C([H])([H])Oc1c([H])c([H])c2c(c1[H])C([H])([H])N(C(=O)C([H])(N([H])C(=O)C([H])(N([H])C([H])([H])[H])C([H])([H])[H])C(C([H])([H])[H])(C([H])([H])[H])C([H])([H])[H])C([H])(C(=O)N([H])C1([H])c3c([H])c([H])c([H])c([H])c3C([H])([H])C([H])([H])C1([H])[H])C2([H])[H]

>  <smiles>  (37) 
[H]C(=NC(=O)c1c([H])c(OC([H])([H])C([H])([H])[H])c(N([H])C(=O)N2C([H])([H])C([H])([H])C([H])([H])C([H])(n3nc(-c4c([H])c([H])c(Oc5c([H])c([H])c(F)c([H])c5F)c([H])c4[H])c(C(=O)N([H])[H])c3N([H])[H])C2([H])[H])c([H])c1OC([H])([H])[H])C(=C([H])C([H])([H])[H])C([H])([H])Oc1c([H])c([H])c2c(c1[H])C([H])([H])N(C(=O)C([H])(N([H])C(=O)C([H])(N([H])C([H])([H])[H])C([H])([H])[H])C(C([H])([H])[H])(C([H])([H])[H])C([H])([H])[H])C([H])(C(=O)N([H])C1([H])c3c([H])c([H])c([H])c([H])c3C([H])([H])C([H])([H])C1([H])[H])C2([H])[H]

$$$$
38:0:0
     RDKit          3D

103113  0  0  1  0  0  0  0  0999 V2000
  -29.5200  -19.9590   19.1180 C   0  0  0  0  0  3  0  0  0  0  0  0
  -29.5550  -18.8280   21.2510 C   0  0  0  0  0  3  0  0  0  0  0  0
  -29.7270  -18.7320   18.4610 C   0  0  0  0  0  0  0  0  0  0  0  0
  -29.3750  -20.0750   20.5080 C   0  0  0  0  0  0  0  0  0  0  0  0
  -29.8020  -17.5300   20.6240 C   0  0  0  0  0  0  0  0  0  0  0  0
  -29.7960  -17.5110   19.1980 C   0  0  0  0  0  0  0  0  0  0  0  0
  -30.7240  -15.1360   21.1640 C   0  0  0  0  0  0  0  0  0  0  0  0
  -30.7680  -12.7810   20.3240 C   0  0  0  0  0  2  0  0  0  0  0  0
  -30.0040  -12.7480   18.9810 C   0  0  0  0  0  2  0  0  0  0  0  0
  -28.4930  -12.5470   19.2220 C   0  0  0  0  0  2  0  0  0  0  0  0
  -27.9310  -13.4860   20.3240 C   0  0  0  0  0  3  0  0  0  0  0  0
  -28.8300  -13.4900   21.5800 C   0  0  0  0  0  2  0  0  0  0  0  0
  -30.1820  -13.8680   21.1480 N   0  0  0  0  0  0  0  0  0  0  0  0
  -31.9280  -15.2860   20.9300 O   0  0  0  0  0  0  0  0  0  0  0  0
  -29.8780  -16.2260   21.3480 N   0  0  0  0  0  0  0  0  0  0  0  0
  -29.0140  -15.9720   21.8040 H   0  0  0  0  0  0  0  0  0  0  0  0
  -25.4580  -14.0480   20.7250 C   0  0  0  0  0  0  0  0  0  0  0  0
  -24.3660  -13.2620   20.9730 C   0  0  0  0  0  0  0  0  0  0  0  0
  -24.8520  -11.9190   21.0270 C   0  0  0  0  0  0  0  0  0  0  0  0
  -26.5390  -13.1840   20.6390 N   0  0  0  0  0  0  0  0  0  0  0  0
  -26.1720  -11.9000   20.8800 N   0  0  0  0  0  0  0  0  0  0  0  0
  -24.1290  -10.6470   21.1510 C   0  0  0  0  0  0  0  0  0  0  0  0
  -24.4950   -9.6800   22.1150 C   0  0  0  0  0  3  0  0  0  0  0  0
  -23.7740   -8.4720   22.2260 C   0  0  0  0  0  3  0  0  0  0  0  0
  -22.6690   -8.2210   21.3750 C   0  0  0  0  0  0  0  0  0  0  0  0
  -22.3260   -9.1780   20.4030 C   0  0  0  0  0  3  0  0  0  0  0  0
  -23.0480  -10.3770   20.2890 C   0  0  0  0  0  3  0  0  0  0  0  0
  -21.9300   -7.0640   21.3920 O   0  0  0  0  0  0  0  0  0  0  0  0
  -21.7960   -6.3130   22.5320 C   0  0  0  0  0  0  0  0  0  0  0  0
  -21.2500   -6.8500   23.7180 C   0  0  0  0  0  3  0  0  0  0  0  0
  -21.0680   -6.0250   24.8460 C   0  0  0  0  0  3  0  0  0  0  0  0
  -21.4190   -4.6630   24.7860 C   0  0  0  0  0  0  0  0  0  0  0  0
  -21.9570   -4.1250   23.6050 C   0  0  0  0  0  3  0  0  0  0  0  0
  -22.1430   -4.9480   22.4780 C   0  0  0  0  0  0  0  0  0  0  0  0
  -22.6430   -4.4210   21.3350 F   0  0  0  0  0  0  0  0  0  0  0  0
  -21.2370   -3.8680   25.8660 F   0  0  0  0  0  0  0  0  0  0  0  0
  -22.9370  -13.7160   21.0570 C   0  0  0  0  0  0  0  0  0  0  0  0
  -22.1220  -13.0370   21.8580 N   0  0  0  0  0  0  0  0  0  0  0  0
  -22.5460  -14.7100   20.4490 O   0  0  0  0  0  0  0  0  0  0  0  0
  -22.4430  -12.2300   22.3730 H   0  0  0  0  0  0  0  0  0  0  0  0
  -21.1580  -13.3260   21.9540 H   0  0  0  0  0  0  0  0  0  0  0  0
  -25.6220  -15.4180   20.5470 N   0  0  0  0  0  0  0  0  0  0  0  0
  -24.8340  -16.0550   20.5730 H   0  0  0  0  0  0  0  0  0  0  0  0
  -26.5000  -15.8770   20.3400 H   0  0  0  0  0  0  0  0  0  0  0  0
  -28.6710  -23.9030   20.6320 C   0  0  0  0  0  0  0  0  0  0  0  0
  -28.4610  -22.5470   20.3720 C   0  0  0  0  0  0  0  0  0  0  0  0
  -29.7020  -24.2270   21.6480 C   0  0  0  0  0  0  0  0  0  0  0  0
  -30.5550  -23.0730   22.2050 C   0  0  0  0  0  2  0  0  0  0  0  0
  -29.7990  -21.7250   22.2770 C   0  0  0  0  0  2  0  0  0  0  0  0
  -27.3530  -22.1510   19.4020 C   0  0  0  0  0  1  0  0  0  0  0  0
  -29.1180  -21.4230   21.0180 N   0  0  0  0  0  0  0  0  0  0  0  0
  -29.9270  -25.3720   22.0530 O   0  0  0  0  0  0  0  0  0  0  0  0
  -27.8440  -25.1010   19.9560 C   0  0  0  0  0  2  0  0  0  0  0  0
  -28.1810  -26.5750   20.0210 O   0  0  0  0  0  0  0  0  0  0  0  0
  -24.5450  -31.9790   23.2360 C   0  0  0  0  0  0  0  0  0  0  0  0
  -27.0920  -27.4880   19.9820 C   0  0  0  0  0  0  0  0  0  0  0  0
  -23.3030  -30.6080   21.6050 C   0  0  0  0  0  3  0  0  0  0  0  0
  -24.7200  -29.1210   20.0810 C   0  0  0  0  0  0  0  0  0  0  0  0
  -25.8360  -30.9550   21.3400 C   0  0  0  0  0  2  0  0  0  0  0  0
  -25.9100  -29.5930   20.6510 C   0  0  0  0  0  0  0  0  0  0  0  0
  -27.0990  -28.7940   20.5820 C   0  0  0  0  0  3  0  0  0  0  0  0
  -25.8750  -27.0980   19.3710 C   0  0  0  0  0  3  0  0  0  0  0  0
  -24.7090  -27.8830   19.4290 C   0  0  0  0  0  3  0  0  0  0  0  0
  -23.4770  -29.9830   20.1980 C   0  0  0  0  0  2  0  0  0  0  0  0
  -24.5820  -31.1990   22.1150 N   0  0  0  0  0  0  0  0  0  0  0  0
  -23.4760  -32.2270   23.8120 O   0  0  0  0  0  0  0  0  0  0  0  0
  -22.6870  -29.5520   22.5590 C   0  0  0  0  0  0  0  0  0  0  0  0
  -21.3670  -29.3330   22.4460 N   0  0  0  0  0  0  0  0  0  0  0  0
  -23.3980  -28.9400   23.3610 O   0  0  0  0  0  0  0  0  0  0  0  0
  -20.8540  -29.8830   21.7700 H   0  0  0  0  0  0  0  0  0  0  0  0
  -18.0400  -27.9990   22.9550 C   0  0  0  0  0  0  0  0  0  0  0  0
  -20.5870  -28.3590   23.2130 C   0  0  0  0  0  3  0  0  0  0  0  0
  -20.7430  -26.9370   22.6270 C   0  0  0  0  0  2  0  0  0  0  0  0
  -19.6490  -26.5780   21.6170 C   0  0  0  0  0  2  0  0  0  0  0  0
  -18.2660  -26.6630   22.2680 C   0  0  0  0  0  2  0  0  0  0  0  0
  -19.1290  -28.8030   23.3830 C   0  0  0  0  0  0  0  0  0  0  0  0
  -18.8630  -30.0510   23.9880 C   0  0  0  0  0  3  0  0  0  0  0  0
  -17.5390  -30.4960   24.1670 C   0  0  0  0  0  3  0  0  0  0  0  0
  -16.4650  -29.6900   23.7540 C   0  0  0  0  0  3  0  0  0  0  0  0
  -16.7160  -28.4440   23.1530 C   0  0  0  0  0  3  0  0  0  0  0  0
  -25.8380  -32.6130   23.8330 C   0  0  0  0  0  3  0  0  0  0  0  0
  -25.5360  -34.0170   24.1500 N   0  0  0  0  0  0  0  0  0  0  0  0
  -25.8620  -35.0610   23.3760 C   0  0  0  0  0  0  0  0  0  0  0  0
  -26.5190  -34.9430   22.3370 O   0  0  0  0  0  0  0  0  0  0  0  0
  -24.9530  -34.1830   24.9570 H   0  0  0  0  0  0  0  0  0  0  0  0
  -24.1310  -36.8530   23.0300 C   0  0  0  0  0  1  0  0  0  0  0  0
  -25.3870  -36.4550   23.8250 C   0  0  0  0  0  3  0  0  0  0  0  0
  -27.5370  -37.3480   24.6060 C   0  0  0  0  0  1  0  0  0  0  0  0
  -26.4190  -37.5060   23.6790 N   0  0  0  0  0  0  0  0  0  0  0  0
  -26.0150  -38.4290   23.8210 H   0  0  0  0  0  0  0  0  0  0  0  0
  -26.3670  -31.8580   25.1140 C   0  0  1  0  0  0  0  0  0  0  0  0
  -25.2800  -31.6190   26.1880 C   0  0  0  0  0  1  0  0  0  0  0  0
  -26.9630  -30.4830   24.7330 C   0  0  0  0  0  1  0  0  0  0  0  0
  -27.5110  -32.6700   25.7660 C   0  0  0  0  0  1  0  0  0  0  0  0
  -28.6030  -15.8280   18.0130 C   0  0  0  0  0  1  0  0  0  0  0  0
  -29.8380  -16.2890   18.5620 O   0  0  0  0  0  0  0  0  0  0  0  0
  -29.8660  -18.8130   16.9380 C   0  0  0  0  0  2  0  0  0  0  0  0
  -31.4950  -18.2210   15.1510 C   0  0  0  0  0  0  0  0  0  0  0  0
  -32.9940  -18.1320   14.9360 C   0  0  0  0  0  2  0  0  0  0  0  0
  -33.5660  -18.7870   16.1970 C   0  0  0  0  0  2  0  0  0  0  0  0
  -32.4050  -18.8430   17.2000 C   0  0  0  0  0  2  0  0  0  0  0  0
  -31.2110  -18.5690   16.4120 N   0  0  0  0  0  0  0  0  0  0  0  0
  -30.6790  -18.0030   14.2530 O   0  0  0  0  0  0  0  0  0  0  0  0
  1  4  1  0
  3  1  2  0
  3  6  1  0
  4 51  1  0
  4  2  2  0
  5  2  1  0
  5 15  1  0
  6  5  2  0
  7 15  1  0
  8 13  1  0
  9 10  1  0
  9  8  1  0
 11 10  1  0
 11 20  1  0
 11 12  1  0
 13  7  1  0
 13 12  1  0
 14  7  2  0
 15 16  1  0
 17 18  2  0
 18 19  1  0
 18 37  1  0
 19 22  1  0
 20 17  1  0
 20 21  1  0
 21 19  2  0
 22 23  1  0
 23 24  2  0
 25 28  1  0
 25 24  1  0
 26 25  2  0
 27 26  1  0
 27 22  2  0
 28 29  1  0
 29 30  1  0
 30 31  2  0
 32 31  1  0
 32 36  1  0
 33 32  2  0
 34 29  2  0
 34 33  1  0
 35 34  1  0
 37 38  1  0
 38 41  1  0
 38 40  1  0
 39 37  2  0
 42 43  1  0
 42 17  1  0
 44 42  1  0
 45 47  1  0
 46 45  2  0
 46 51  1  0
 47 52  2  0
 47 48  1  0
 48 49  1  0
 50 46  1  0
 51 49  1  0
 53 54  1  0
 53 45  1  0
 55 66  2  0
 56 54  1  0
 56 61  1  0
 57 65  1  0
 57 67  1  0
 58 64  1  0
 58 60  1  0
 59 65  1  0
 60 59  1  0
 61 60  2  0
 62 63  1  0
 62 56  2  0
 63 58  2  0
 64 57  1  0
 65 55  1  0
 67 69  2  0
 68 67  1  0
 70 68  1  0
 71 80  2  0
 71 76  1  0
 72 68  1  0
 72 76  1  0
 73 72  1  0
 74 75  1  0
 74 73  1  0
 75 71  1  0
 76 77  2  0
 77 78  1  0
 79 78  2  0
 80 79  1  0
 81 55  1  0
 81 82  1  0
 81 91  1  0
 82 85  1  0
 83 87  1  0
 83 82  1  0
 84 83  2  0
 87 86  1  0
 89 90  1  0
 89 87  1  0
 89 88  1  0
 91 94  1  1
 91 92  1  0
 93 91  1  0
 95 96  1  0
 96  6  1  0
 97  3  1  0
 98102  1  0
 99 98  1  0
 99100  1  0
100101  1  0
102 97  1  0
102101  1  0
103 98  2  0
M  ISO  4   7 100  15 100  53 101  54 101
M  END
>  <TORSDO>  (38) 
F 21

>  <SCORE>  (38) 
-11.972

>  <name>  (38) 
38

>  <ligand_id>  (38) 
38

>  <original_smiles>  (38) 
[H]c1c([H])c([H])c2c(c1[H])C([H])([H])C([H])([H])C([H])([H])C2([H])N([H])C(=O)C1([H])N(C(=O)C([H])(N([H])C(=O)C([H])(N([H])C([H])([H])[H])C([H])([H])[H])C(C([H])([H])[H])(C([H])([H])[H])C([H])([H])[H])C([H])([H])c2c([H])c(OC([H])([H])C3=C(C([H])([H])[H])N(c4c([H])c(N([H])C(=O)N5C([H])([H])C([H])([H])C([H])([H])C([H])(n6nc(-c7c([H])c([H])c(Oc8c([H])c([H])c(F)c([H])c8F)c([H])c7[H])c(C(=O)N([H])[H])c6N([H])[H])C5([H])[H])c(OC([H])([H])[H])c(C([H])([H])N5C(=O)C([H])([H])C([H])([H])C5([H])[H])c4[H])C([H])([H])C([H])([H])C3=O)c([H])c([H])c2C1([H])[H]

>  <smiles>  (38) 
[H]c1c([H])c([H])c2c(c1[H])C([H])([H])C([H])([H])C([H])([H])C2([H])N([H])C(=O)C1([H])N(C(=O)C([H])(N([H])C(=O)C([H])(N([H])C([H])([H])[H])C([H])([H])[H])C(C([H])([H])[H])(C([H])([H])[H])C([H])([H])[H])C([H])([H])c2c([H])c(OC([H])([H])C3=C(C([H])([H])[H])N(c4c([H])c(N([H])C(=O)N5C([H])([H])C([H])([H])C([H])([H])C([H])(n6nc(-c7c([H])c([H])c(Oc8c([H])c([H])c(F)c([H])c8F)c([H])c7[H])c(C(=O)N([H])[H])c6N([H])[H])C5([H])[H])c(OC([H])([H])[H])c(C([H])([H])N5C(=O)C([H])([H])C([H])([H])C5([H])[H])c4[H])C([H])([H])C([H])([H])C3=O)c([H])c([H])c2C1([H])[H]

$$$$
39:0:0
     RDKit          3D

 98107  0  0  1  0  0  0  0  0999 V2000
  -29.0600  -24.1910   22.4170 C   0  0  0  0  0  3  0  0  0  0  0  0
  -28.3800  -23.9790   21.2570 C   0  0  0  0  0  0  0  0  0  0  0  0
  -29.9990  -23.2760   23.0940 C   0  0  0  0  0  0  0  0  0  0  0  0
  -31.1600  -22.6630   22.3190 C   0  0  0  0  0  2  0  0  0  0  0  0
  -30.8650  -22.3740   20.8390 C   0  0  0  0  0  2  0  0  0  0  0  0
  -28.3810  -22.6370   20.4180 C   0  0  0  0  0  3  0  0  0  0  0  0
  -28.1680  -22.8980   18.8940 C   0  0  0  0  0  1  0  0  0  0  0  0
  -29.5610  -21.7510   20.6160 N   0  0  0  0  0  0  0  0  0  0  0  0
  -29.9400  -23.0670   24.3110 O   0  0  0  0  0  0  0  0  0  0  0  0
  -29.8910  -18.1280   21.6200 C   0  0  0  0  0  3  0  0  0  0  0  0
  -29.8490  -19.5420   21.6850 C   0  0  0  0  0  3  0  0  0  0  0  0
  -29.3300  -19.6030   19.3480 C   0  0  0  0  0  3  0  0  0  0  0  0
  -29.6560  -17.3860   20.4280 C   0  0  0  0  0  0  0  0  0  0  0  0
  -29.3430  -18.1690   19.2670 C   0  0  0  0  0  0  0  0  0  0  0  0
  -29.5510  -20.3220   20.5490 C   0  0  0  0  0  0  0  0  0  0  0  0
  -29.4550  -15.8740   20.5980 C   0  0  0  0  0  0  0  0  0  0  0  0
  -28.5130  -15.6230   21.4090 N   0  0  0  0  0  0  0  0  0  0  0  0
  -28.1110  -16.4900   21.7470 H   0  0  0  0  0  0  0  0  0  0  0  0
  -30.3400  -14.7530   19.8670 C   0  0  0  0  0  0  0  0  0  0  0  0
  -30.1930  -12.5700   18.6640 C   0  0  0  0  0  2  0  0  0  0  0  0
  -29.0790  -12.6290   17.5870 C   0  0  0  0  0  2  0  0  0  0  0  0
  -27.6550  -12.4320   18.1690 C   0  0  0  0  0  2  0  0  0  0  0  0
  -27.4320  -13.2370   19.4760 C   0  0  0  0  0  3  0  0  0  0  0  0
  -28.6130  -12.9370   20.4250 C   0  0  0  0  0  2  0  0  0  0  0  0
  -29.8200  -13.4740   19.7740 N   0  0  0  0  0  0  0  0  0  0  0  0
  -31.4110  -15.0270   19.3080 O   0  0  0  0  0  0  0  0  0  0  0  0
  -25.1280  -13.8190   20.4690 C   0  0  0  0  0  0  0  0  0  0  0  0
  -24.1030  -13.0230   20.9150 C   0  0  0  0  0  0  0  0  0  0  0  0
  -24.5580  -11.6820   20.7710 C   0  0  0  0  0  0  0  0  0  0  0  0
  -26.1390  -12.9490   20.0880 N   0  0  0  0  0  0  0  0  0  0  0  0
  -25.8060  -11.6570   20.3200 N   0  0  0  0  0  0  0  0  0  0  0  0
  -23.8580  -10.4100   20.9910 C   0  0  0  0  0  0  0  0  0  0  0  0
  -24.3400   -9.4540   21.9070 C   0  0  0  0  0  3  0  0  0  0  0  0
  -23.6400   -8.2440   22.1100 C   0  0  0  0  0  3  0  0  0  0  0  0
  -22.4430   -7.9890   21.4010 C   0  0  0  0  0  0  0  0  0  0  0  0
  -21.9830   -8.9340   20.4680 C   0  0  0  0  0  3  0  0  0  0  0  0
  -22.6850  -10.1340   20.2630 C   0  0  0  0  0  3  0  0  0  0  0  0
  -21.7110   -6.8340   21.5230 O   0  0  0  0  0  0  0  0  0  0  0  0
  -21.6520   -6.1370   22.7030 C   0  0  0  0  0  0  0  0  0  0  0  0
  -21.1680   -6.7200   23.8940 C   0  0  0  0  0  3  0  0  0  0  0  0
  -21.0630   -5.9440   25.0660 C   0  0  0  0  0  3  0  0  0  0  0  0
  -21.4260   -4.5820   25.0470 C   0  0  0  0  0  0  0  0  0  0  0  0
  -21.8980   -4.0010   23.8580 C   0  0  0  0  0  3  0  0  0  0  0  0
  -22.0080   -4.7760   22.6920 C   0  0  0  0  0  0  0  0  0  0  0  0
  -22.4480   -4.2000   21.5440 F   0  0  0  0  0  0  0  0  0  0  0  0
  -21.3160   -3.8330   26.1700 F   0  0  0  0  0  0  0  0  0  0  0  0
  -22.7450  -13.4840   21.3620 C   0  0  0  0  0  0  0  0  0  0  0  0
  -22.1390  -12.7680   22.3060 N   0  0  0  0  0  0  0  0  0  0  0  0
  -22.2350  -14.5080   20.9110 O   0  0  0  0  0  0  0  0  0  0  0  0
  -22.5700  -11.9480   22.6980 H   0  0  0  0  0  0  0  0  0  0  0  0
  -21.2250  -13.0480   22.6360 H   0  0  0  0  0  0  0  0  0  0  0  0
  -25.2540  -15.1970   20.3490 N   0  0  0  0  0  0  0  0  0  0  0  0
  -24.5080  -15.8160   20.6490 H   0  0  0  0  0  0  0  0  0  0  0  0
  -26.1260  -15.6790   20.1600 H   0  0  0  0  0  0  0  0  0  0  0  0
  -28.7750  -18.3990   16.7280 C   0  0  0  0  0  1  0  0  0  0  0  0
  -28.9090  -17.4870   17.9640 C   0  0  0  0  0  2  0  0  0  0  0  0
  -27.4240  -25.1190   20.8160 C   0  0  0  0  0  2  0  0  0  0  0  0
  -28.0380  -26.4080   20.3900 O   0  0  0  0  0  0  0  0  0  0  0  0
  -24.6090  -31.9650   23.2710 C   0  0  0  0  0  0  0  0  0  0  0  0
  -27.0690  -27.3820   20.1960 C   0  0  0  0  0  0  0  0  0  0  0  0
  -23.3770  -30.5760   21.6520 C   0  0  0  0  0  3  0  0  0  0  0  0
  -24.7810  -29.0400   20.1850 C   0  0  0  0  0  0  0  0  0  0  0  0
  -25.9100  -30.8840   21.4120 C   0  0  0  0  0  2  0  0  0  0  0  0
  -25.9650  -29.5040   20.7760 C   0  0  0  0  0  0  0  0  0  0  0  0
  -27.1210  -28.6770   20.7860 C   0  0  0  0  0  3  0  0  0  0  0  0
  -25.8970  -27.0090   19.5040 C   0  0  0  0  0  3  0  0  0  0  0  0
  -24.7440  -27.7980   19.5450 C   0  0  0  0  0  3  0  0  0  0  0  0
  -23.5590  -29.9190   20.2620 C   0  0  0  0  0  2  0  0  0  0  0  0
  -24.6570  -31.1580   22.1720 N   0  0  0  0  0  0  0  0  0  0  0  0
  -23.5340  -32.2390   23.8230 O   0  0  0  0  0  0  0  0  0  0  0  0
  -22.7380  -29.5480   22.6170 C   0  0  0  0  0  0  0  0  0  0  0  0
  -21.4160  -29.3370   22.4870 N   0  0  0  0  0  0  0  0  0  0  0  0
  -23.4280  -28.9460   23.4430 O   0  0  0  0  0  0  0  0  0  0  0  0
  -20.9230  -29.8700   21.7850 H   0  0  0  0  0  0  0  0  0  0  0  0
  -18.0680  -28.0610   22.9900 C   0  0  0  0  0  0  0  0  0  0  0  0
  -20.6160  -28.3950   23.2710 C   0  0  0  0  0  3  0  0  0  0  0  0
  -20.7620  -26.9540   22.7300 C   0  0  0  0  0  2  0  0  0  0  0  0
  -19.6760  -26.5790   21.7160 C   0  0  0  0  0  2  0  0  0  0  0  0
  -18.2840  -26.7030   22.3440 C   0  0  0  0  0  2  0  0  0  0  0  0
  -19.1620  -28.8610   23.4130 C   0  0  0  0  0  0  0  0  0  0  0  0
  -18.9050  -30.1270   23.9820 C   0  0  0  0  0  3  0  0  0  0  0  0
  -17.5860  -30.5950   24.1320 C   0  0  0  0  0  3  0  0  0  0  0  0
  -16.5060  -29.7940   23.7220 C   0  0  0  0  0  3  0  0  0  0  0  0
  -16.7470  -28.5290   23.1550 C   0  0  0  0  0  3  0  0  0  0  0  0
  -25.8970  -32.6040   23.8710 C   0  0  0  0  0  3  0  0  0  0  0  0
  -26.4040  -31.8600   25.1660 C   0  0  1  0  0  0  0  0  0  0  0  0
  -25.3100  -31.6480   26.2420 C   0  0  0  0  0  1  0  0  0  0  0  0
  -26.9820  -30.4770   24.7980 C   0  0  0  0  0  1  0  0  0  0  0  0
  -27.5620  -32.6630   25.8080 C   0  0  0  0  0  1  0  0  0  0  0  0
  -25.6030  -34.0140   24.1640 N   0  0  0  0  0  0  0  0  0  0  0  0
  -25.9270  -35.0390   23.3630 C   0  0  0  0  0  0  0  0  0  0  0  0
  -26.5750  -34.8960   22.3230 O   0  0  0  0  0  0  0  0  0  0  0  0
  -25.0280  -34.1960   24.9720 H   0  0  0  0  0  0  0  0  0  0  0  0
  -24.2030  -36.8310   22.9830 C   0  0  0  0  0  1  0  0  0  0  0  0
  -25.4610  -36.4480   23.7810 C   0  0  0  0  0  3  0  0  0  0  0  0
  -27.6180  -37.3470   24.5320 C   0  0  0  0  0  1  0  0  0  0  0  0
  -26.5000  -37.4870   23.6030 N   0  0  0  0  0  0  0  0  0  0  0  0
  -26.1070  -38.4190   23.7200 H   0  0  0  0  0  0  0  0  0  0  0  0
  1  3  1  0
  2  1  2  0
  3  9  2  0
  4  3  1  0
  5  4  1  0
  6  7  1  0
  6  8  1  0
  6  2  1  0
  8  5  1  0
 10 11  1  0
 12 15  1  0
 13 16  1  0
 13 10  2  0
 14 12  2  0
 14 13  1  0
 15  8  1  0
 15 11  2  0
 16 17  2  0
 17 18  1  0
 19 16  1  0
 20 25  1  0
 21 22  1  0
 21 20  1  0
 23 22  1  0
 23 30  1  0
 23 24  1  0
 25 19  1  0
 25 24  1  0
 26 19  2  0
 27 28  2  0
 28 47  1  0
 29 28  1  0
 29 32  1  0
 30 31  1  0
 30 27  1  0
 31 29  2  0
 32 33  1  0
 33 34  2  0
 35 38  1  0
 35 34  1  0
 36 35  2  0
 37 36  1  0
 37 32  2  0
 38 39  1  0
 39 40  1  0
 40 41  2  0
 42 41  1  0
 42 46  1  0
 43 42  2  0
 44 39  2  0
 44 43  1  0
 45 44  1  0
 47 48  1  0
 48 51  1  0
 48 50  1  0
 49 47  2  0
 52 27  1  0
 52 53  1  0
 54 52  1  0
 55 56  1  0
 56 14  1  0
 57  2  1  0
 58 57  1  0
 59 70  2  0
 60 58  1  0
 60 65  1  0
 61 69  1  0
 61 71  1  0
 62 68  1  0
 62 64  1  0
 63 69  1  0
 64 65  2  0
 64 63  1  0
 66 67  1  0
 66 60  2  0
 67 62  2  0
 68 61  1  0
 69 59  1  0
 71 73  2  0
 72 71  1  0
 74 72  1  0
 75 84  2  0
 75 80  1  0
 76 72  1  0
 76 80  1  0
 77 76  1  0
 78 79  1  0
 78 77  1  0
 79 75  1  0
 80 81  2  0
 81 82  1  0
 83 82  2  0
 84 83  1  0
 85 59  1  0
 85 90  1  0
 85 86  1  0
 86 89  1  1
 86 87  1  0
 88 86  1  0
 90 93  1  0
 91 95  1  0
 91 90  1  0
 92 91  2  0
 95 94  1  0
 97 98  1  0
 97 95  1  0
 97 96  1  0
M  ISO  4  16 100  19 100  57 101  58 101
M  END
>  <TORSDO>  (39) 
F 20

>  <SCORE>  (39) 
-12.563

>  <name>  (39) 
39

>  <ligand_id>  (39) 
39

>  <original_smiles>  (39) 
[H]N=C(C(=O)N1C([H])([H])C([H])([H])C([H])([H])C([H])(n2nc(-c3c([H])c([H])c(Oc4c([H])c([H])c(F)c([H])c4F)c([H])c3[H])c(C(=O)N([H])[H])c2N([H])[H])C1([H])[H])c1c([H])c([H])c(N2C([H])([H])C([H])([H])C(=O)C([H])=C(C([H])([H])Oc3c([H])c([H])c4c(c3[H])C([H])([H])N(C(=O)C([H])(N([H])C(=O)C([H])(N([H])C([H])([H])[H])C([H])([H])[H])C(C([H])([H])[H])(C([H])([H])[H])C([H])([H])[H])C([H])(C(=O)N([H])C3([H])c5c([H])c([H])c([H])c([H])c5C([H])([H])C([H])([H])C3([H])[H])C4([H])[H])C2([H])C([H])([H])[H])c([H])c1C([H])([H])C([H])([H])[H]

>  <smiles>  (39) 
[H]N=C(C(=O)N1C([H])([H])C([H])([H])C([H])([H])C([H])(n2nc(-c3c([H])c([H])c(Oc4c([H])c([H])c(F)c([H])c4F)c([H])c3[H])c(C(=O)N([H])[H])c2N([H])[H])C1([H])[H])c1c([H])c([H])c(N2C([H])([H])C([H])([H])C(=O)C([H])=C(C([H])([H])Oc3c([H])c([H])c4c(c3[H])C([H])([H])N(C(=O)C([H])(N([H])C(=O)C([H])(N([H])C([H])([H])[H])C([H])([H])[H])C(C([H])([H])[H])(C([H])([H])[H])C([H])([H])[H])C([H])(C(=O)N([H])C3([H])c5c([H])c([H])c([H])c([H])c5C([H])([H])C([H])([H])C3([H])[H])C4([H])[H])C2([H])C([H])([H])[H])c([H])c1C([H])([H])C([H])([H])[H]

$$$$
40:0:0
     RDKit          3D

 94102  0  0  1  0  0  0  0  0999 V2000
  -29.2960  -19.1470   20.5040 C   0  0  0  0  0  3  0  0  0  0  0  0
  -31.2250  -19.5270   18.6180 C   0  0  0  0  0  3  0  0  0  0  0  0
  -29.4750  -20.5760   20.0310 C   0  0  0  0  0  0  0  0  0  0  0  0
  -30.0440  -17.9050   20.0730 C   0  0  0  0  0  0  0  0  0  0  0  0
  -30.5040  -20.6680   19.0480 C   0  0  0  0  0  0  0  0  0  0  0  0
  -30.9980  -18.1990   19.0650 C   0  0  0  0  0  0  0  0  0  0  0  0
  -30.5840  -15.1630   20.3440 C   0  0  0  0  0  0  0  0  0  0  0  0
  -30.4820  -12.7870   19.4260 C   0  0  0  0  0  2  0  0  0  0  0  0
  -29.5760  -12.7050   18.1760 C   0  0  0  0  0  2  0  0  0  0  0  0
  -28.1130  -12.4690   18.5880 C   0  0  0  0  0  2  0  0  0  0  0  0
  -27.6700  -13.3990   19.7460 C   0  0  0  0  0  3  0  0  0  0  0  0
  -28.7060  -13.4650   20.8890 C   0  0  0  0  0  2  0  0  0  0  0  0
  -29.9750  -13.9000   20.2900 N   0  0  0  0  0  0  0  0  0  0  0  0
  -31.8060  -15.1510   20.1530 O   0  0  0  0  0  0  0  0  0  0  0  0
  -29.8330  -16.3980   20.4710 N   0  0  0  0  0  0  0  0  0  0  0  0
  -28.8960  -16.2170   20.8010 H   0  0  0  0  0  0  0  0  0  0  0  0
  -25.2780  -13.9540   20.4470 C   0  0  0  0  0  0  0  0  0  0  0  0
  -24.2140  -13.1740   20.8050 C   0  0  0  0  0  0  0  0  0  0  0  0
  -24.6910  -11.8270   20.7960 C   0  0  0  0  0  0  0  0  0  0  0  0
  -26.3310  -13.0850   20.2300 N   0  0  0  0  0  0  0  0  0  0  0  0
  -25.9890  -11.8000   20.5100 N   0  0  0  0  0  0  0  0  0  0  0  0
  -23.9720  -10.5600   20.9860 C   0  0  0  0  0  0  0  0  0  0  0  0
  -24.3840   -9.6120   21.9500 C   0  0  0  0  0  3  0  0  0  0  0  0
  -23.6610   -8.4110   22.1260 C   0  0  0  0  0  3  0  0  0  0  0  0
  -22.5140   -8.1500   21.3400 C   0  0  0  0  0  0  0  0  0  0  0  0
  -22.1220   -9.0880   20.3680 C   0  0  0  0  0  3  0  0  0  0  0  0
  -22.8450  -10.2780   20.1890 C   0  0  0  0  0  3  0  0  0  0  0  0
  -21.7680   -6.9980   21.4230 O   0  0  0  0  0  0  0  0  0  0  0  0
  -21.6720   -6.2850   22.5920 C   0  0  0  0  0  0  0  0  0  0  0  0
  -21.1660   -6.8620   23.7770 C   0  0  0  0  0  3  0  0  0  0  0  0
  -21.0190   -6.0740   24.9350 C   0  0  0  0  0  3  0  0  0  0  0  0
  -21.3710   -4.7100   24.9100 C   0  0  0  0  0  0  0  0  0  0  0  0
  -21.8730   -4.1350   23.7300 C   0  0  0  0  0  3  0  0  0  0  0  0
  -22.0210   -4.9200   22.5730 C   0  0  0  0  0  0  0  0  0  0  0  0
  -22.4830   -4.3550   21.4330 F   0  0  0  0  0  0  0  0  0  0  0  0
  -21.2250   -3.9510   26.0220 F   0  0  0  0  0  0  0  0  0  0  0  0
  -22.8070  -13.6430   21.0410 C   0  0  0  0  0  0  0  0  0  0  0  0
  -22.0650  -12.9500   21.8960 N   0  0  0  0  0  0  0  0  0  0  0  0
  -22.3760  -14.6630   20.5040 O   0  0  0  0  0  0  0  0  0  0  0  0
  -22.4240  -12.1280   22.3570 H   0  0  0  0  0  0  0  0  0  0  0  0
  -21.1210  -13.2510   22.0970 H   0  0  0  0  0  0  0  0  0  0  0  0
  -25.4340  -15.3240   20.2570 N   0  0  0  0  0  0  0  0  0  0  0  0
  -24.6570  -15.9710   20.3340 H   0  0  0  0  0  0  0  0  0  0  0  0
  -26.2820  -15.7650   19.9240 H   0  0  0  0  0  0  0  0  0  0  0  0
  -30.8460  -21.8580   18.4030 N   0  0  0  0  0  0  0  0  0  0  0  0
  -31.4910  -21.7820   17.6220 H   0  0  0  0  0  0  0  0  0  0  0  0
  -30.0980  -22.5060   18.1740 H   0  0  0  0  0  0  0  0  0  0  0  0
  -28.6190  -21.9300   20.4840 C   0  0  0  0  0  0  0  0  0  0  0  0
  -27.6270  -21.6890   21.1780 O   0  0  0  0  0  0  0  0  0  0  0  0
  -28.8750  -23.5220   20.1810 C   0  0  0  0  0  3  0  0  0  0  0  0
  -28.0390  -24.6780   20.3770 C   0  0  0  0  0  3  0  0  0  0  0  0
  -28.2570  -26.1440   20.1950 O   0  0  0  0  0  0  0  0  0  0  0  0
  -24.6140  -31.9130   23.2250 C   0  0  0  0  0  0  0  0  0  0  0  0
  -27.2040  -27.1520   20.1960 C   0  0  0  0  0  0  0  0  0  0  0  0
  -23.4180  -30.5060   21.5940 C   0  0  0  0  0  3  0  0  0  0  0  0
  -24.8720  -28.9230   20.1710 C   0  0  0  0  0  0  0  0  0  0  0  0
  -25.9750  -30.7650   21.4270 C   0  0  0  0  0  2  0  0  0  0  0  0
  -26.0520  -29.3650   20.7810 C   0  0  0  0  0  0  0  0  0  0  0  0
  -27.2180  -28.4940   20.7780 C   0  0  0  0  0  3  0  0  0  0  0  0
  -25.9930  -26.8310   19.5420 C   0  0  0  0  0  3  0  0  0  0  0  0
  -24.8570  -27.6710   19.5380 C   0  0  0  0  0  3  0  0  0  0  0  0
  -23.6410  -29.8230   20.2190 C   0  0  0  0  0  2  0  0  0  0  0  0
  -24.6900  -31.0850   22.1370 N   0  0  0  0  0  0  0  0  0  0  0  0
  -23.5290  -32.1950   23.7540 O   0  0  0  0  0  0  0  0  0  0  0  0
  -22.7430  -29.5030   22.5610 C   0  0  0  0  0  0  0  0  0  0  0  0
  -21.4170  -29.3180   22.4320 N   0  0  0  0  0  0  0  0  0  0  0  0
  -23.4160  -28.8900   23.3950 O   0  0  0  0  0  0  0  0  0  0  0  0
  -20.9290  -29.8550   21.7280 H   0  0  0  0  0  0  0  0  0  0  0  0
  -18.0440  -28.0950   22.9470 C   0  0  0  0  0  0  0  0  0  0  0  0
  -20.6030  -28.3770   23.2060 C   0  0  0  0  0  3  0  0  0  0  0  0
  -20.7130  -26.9450   22.6340 C   0  0  0  0  0  2  0  0  0  0  0  0
  -19.6120  -26.6120   21.6230 C   0  0  0  0  0  2  0  0  0  0  0  0
  -18.2300  -26.7470   22.2690 C   0  0  0  0  0  2  0  0  0  0  0  0
  -19.1580  -28.8680   23.3720 C   0  0  0  0  0  0  0  0  0  0  0  0
  -18.9290  -30.1270   23.9680 C   0  0  0  0  0  3  0  0  0  0  0  0
  -17.6190  -30.6160   24.1390 C   0  0  0  0  0  3  0  0  0  0  0  0
  -16.5210  -29.8400   23.7310 C   0  0  0  0  0  3  0  0  0  0  0  0
  -16.7340  -28.5810   23.1410 C   0  0  0  0  0  3  0  0  0  0  0  0
  -25.8900  -32.5590   23.8470 C   0  0  0  0  0  3  0  0  0  0  0  0
  -26.4040  -31.8000   25.1340 C   0  0  1  0  0  0  0  0  0  0  0  0
  -25.3070  -31.5690   26.2000 C   0  0  0  0  0  1  0  0  0  0  0  0
  -26.9940  -30.4200   24.7630 C   0  0  0  0  0  1  0  0  0  0  0  0
  -27.5500  -32.6040   25.7930 C   0  0  0  0  0  1  0  0  0  0  0  0
  -25.5750  -33.9600   24.1750 N   0  0  0  0  0  0  0  0  0  0  0  0
  -25.9000  -35.0140   23.4130 C   0  0  0  0  0  0  0  0  0  0  0  0
  -26.5650  -34.9110   22.3800 O   0  0  0  0  0  0  0  0  0  0  0  0
  -24.9890  -34.1150   24.9820 H   0  0  0  0  0  0  0  0  0  0  0  0
  -24.1770  -36.8130   23.0560 C   0  0  0  0  0  1  0  0  0  0  0  0
  -25.4120  -36.4030   23.8730 C   0  0  0  0  0  3  0  0  0  0  0  0
  -27.5410  -37.2890   24.7200 C   0  0  0  0  0  1  0  0  0  0  0  0
  -26.4480  -37.4550   23.7670 N   0  0  0  0  0  0  0  0  0  0  0  0
  -26.0420  -38.3770   23.9080 H   0  0  0  0  0  0  0  0  0  0  0  0
  -31.7150  -17.1600   17.0570 C   0  0  0  0  0  1  0  0  0  0  0  0
  -31.6950  -17.1730   18.4780 O   0  0  0  0  0  0  0  0  0  0  0  0
  2  5  2  0
  2  6  1  0
  3 48  1  0
  3  1  2  0
  4 15  1  0
  4  1  1  0
  5  3  1  0
  6  4  2  0
  7 15  1  0
  8 13  1  0
  9 10  1  0
  9  8  1  0
 11 10  1  0
 11 20  1  0
 11 12  1  0
 13  7  1  0
 13 12  1  0
 14  7  2  0
 15 16  1  0
 17 18  2  0
 18 37  1  0
 19 18  1  0
 19 22  1  0
 20 17  1  0
 20 21  1  0
 21 19  2  0
 22 23  1  0
 23 24  2  0
 25 28  1  0
 25 24  1  0
 26 25  2  0
 27 26  1  0
 27 22  2  0
 28 29  1  0
 29 30  1  0
 30 31  2  0
 32 31  1  0
 32 36  1  0
 33 32  2  0
 34 29  2  0
 34 33  1  0
 35 34  1  0
 37 38  1  0
 38 41  1  0
 38 40  1  0
 39 37  2  0
 42 43  1  0
 42 17  1  0
 44 42  1  0
 45  5  1  0
 46 45  1  0
 47 45  1  0
 48 49  2  0
 50 51  2  0
 50 48  1  0
 52 54  1  0
 52 51  1  0
 53 64  2  0
 54 59  1  0
 55 63  1  0
 55 65  1  0
 56 62  1  0
 56 58  1  0
 57 63  1  0
 58 57  1  0
 59 58  2  0
 60 54  2  0
 61 60  1  0
 61 56  2  0
 62 55  1  0
 63 53  1  0
 65 67  2  0
 66 65  1  0
 68 66  1  0
 69 78  2  0
 69 74  1  0
 70 66  1  0
 70 74  1  0
 71 70  1  0
 72 73  1  0
 72 71  1  0
 73 69  1  0
 74 75  2  0
 75 76  1  0
 77 76  2  0
 78 77  1  0
 79 53  1  0
 79 84  1  0
 79 80  1  0
 80 83  1  1
 80 81  1  0
 82 80  1  0
 84 87  1  0
 85 89  1  0
 85 84  1  0
 86 85  2  0
 89 88  1  0
 91 89  1  0
 91 92  1  0
 91 90  1  0
 93 94  1  0
 94  6  1  0
M  ISO  4   7 100  15 100  51 101  52 101
M  END
>  <TORSDO>  (40) 
F 20

>  <SCORE>  (40) 
-14.011

>  <name>  (40) 
40

>  <ligand_id>  (40) 
40

>  <original_smiles>  (40) 
[H]C(Oc1c([H])c([H])c2c(c1[H])C([H])([H])N(C(=O)C([H])(N([H])C(=O)C([H])(N([H])C([H])([H])[H])C([H])([H])[H])C(C([H])([H])[H])(C([H])([H])[H])C([H])([H])[H])C([H])(C(=O)N([H])C1([H])c3c([H])c([H])c([H])c([H])c3C([H])([H])C([H])([H])C1([H])[H])C2([H])[H])=C([H])C(=O)c1c([H])c(N([H])C(=O)N2C([H])([H])C([H])([H])C([H])([H])C([H])(n3nc(-c4c([H])c([H])c(Oc5c([H])c([H])c(F)c([H])c5F)c([H])c4[H])c(C(=O)N([H])[H])c3N([H])[H])C2([H])[H])c(OC([H])([H])[H])c([H])c1N([H])[H]

>  <smiles>  (40) 
[H]C(Oc1c([H])c([H])c2c(c1[H])C([H])([H])N(C(=O)C([H])(N([H])C(=O)C([H])(N([H])C([H])([H])[H])C([H])([H])[H])C(C([H])([H])[H])(C([H])([H])[H])C([H])([H])[H])C([H])(C(=O)N([H])C1([H])c3c([H])c([H])c([H])c([H])c3C([H])([H])C([H])([H])C1([H])[H])C2([H])[H])=C([H])C(=O)c1c([H])c(N([H])C(=O)N2C([H])([H])C([H])([H])C([H])([H])C([H])(n3nc(-c4c([H])c([H])c(Oc5c([H])c([H])c(F)c([H])c5F)c([H])c4[H])c(C(=O)N([H])[H])c3N([H])[H])C2([H])[H])c(OC([H])([H])[H])c([H])c1N([H])[H]

$$$$
41:0:0
     RDKit          3D

 96104  0  0  1  0  0  0  0  0999 V2000
  -31.9390  -17.8160   19.1330 C   0  0  0  0  0  3  0  0  0  0  0  0
  -29.5560  -19.1280   19.7600 C   0  0  0  0  0  3  0  0  0  0  0  0
  -30.9340  -17.0170   19.7480 C   0  0  0  0  0  0  0  0  0  0  0  0
  -29.7070  -17.7280   20.0300 C   0  0  0  0  0  0  0  0  0  0  0  0
  -31.7730  -19.2050   18.8620 C   0  0  0  0  0  0  0  0  0  0  0  0
  -30.5850  -19.9130   19.1850 C   0  0  0  0  0  0  0  0  0  0  0  0
  -32.8210  -19.9070   18.2700 N   0  0  0  0  0  0  0  0  0  0  0  0
  -33.4730  -19.3920   17.6850 H   0  0  0  0  0  0  0  0  0  0  0  0
  -32.5900  -20.8190   17.8890 H   0  0  0  0  0  0  0  0  0  0  0  0
  -31.2130  -15.5560   20.1980 C   0  0  0  0  0  0  0  0  0  0  0  0
  -31.2460  -15.2980   21.4400 N   0  0  0  0  0  0  0  0  0  0  0  0
  -31.0470  -16.1300   21.9800 H   0  0  0  0  0  0  0  0  0  0  0  0
  -31.5510  -14.4010   19.1800 C   0  0  0  0  0  0  0  0  0  0  0  0
  -31.0020  -12.1910   18.1610 C   0  0  0  0  0  2  0  0  0  0  0  0
  -29.8690  -12.3480   17.1220 C   0  0  0  0  0  2  0  0  0  0  0  0
  -28.4870  -12.2570   17.7970 C   0  0  0  0  0  2  0  0  0  0  0  0
  -28.3910  -13.1480   19.0620 C   0  0  0  0  0  3  0  0  0  0  0  0
  -29.6090  -12.9330   19.9850 C   0  0  0  0  0  2  0  0  0  0  0  0
  -30.8280  -13.2260   19.2080 N   0  0  0  0  0  0  0  0  0  0  0  0
  -32.5030  -14.5330   18.4020 O   0  0  0  0  0  0  0  0  0  0  0  0
  -26.2570  -13.8820   20.2920 C   0  0  0  0  0  0  0  0  0  0  0  0
  -25.2010  -13.1730   20.7970 C   0  0  0  0  0  0  0  0  0  0  0  0
  -25.4930  -11.7970   20.5500 C   0  0  0  0  0  0  0  0  0  0  0  0
  -27.1310  -12.9400   19.7730 N   0  0  0  0  0  0  0  0  0  0  0  0
  -26.6870  -11.6740   19.9830 N   0  0  0  0  0  0  0  0  0  0  0  0
  -24.6790  -10.5930   20.7660 C   0  0  0  0  0  0  0  0  0  0  0  0
  -25.0580   -9.6030   21.6980 C   0  0  0  0  0  3  0  0  0  0  0  0
  -24.2490   -8.4640   21.9010 C   0  0  0  0  0  3  0  0  0  0  0  0
  -23.0460   -8.3090   21.1720 C   0  0  0  0  0  0  0  0  0  0  0  0
  -22.6850   -9.2870   20.2290 C   0  0  0  0  0  3  0  0  0  0  0  0
  -23.4930  -10.4170   20.0240 C   0  0  0  0  0  3  0  0  0  0  0  0
  -22.2120   -7.2240   21.2840 O   0  0  0  0  0  0  0  0  0  0  0  0
  -21.9540   -6.6350   22.4970 C   0  0  0  0  0  0  0  0  0  0  0  0
  -21.3470   -7.3450   23.5560 C   0  0  0  0  0  3  0  0  0  0  0  0
  -21.0380   -6.6830   24.7610 C   0  0  0  0  0  3  0  0  0  0  0  0
  -21.3260   -5.3120   24.9060 C   0  0  0  0  0  0  0  0  0  0  0  0
  -21.9260   -4.6030   23.8510 C   0  0  0  0  0  3  0  0  0  0  0  0
  -22.2370   -5.2630   22.6490 C   0  0  0  0  0  0  0  0  0  0  0  0
  -22.7950   -4.5700   21.6280 F   0  0  0  0  0  0  0  0  0  0  0  0
  -21.0230   -4.6740   26.0600 F   0  0  0  0  0  0  0  0  0  0  0  0
  -23.9440  -13.7430   21.3910 C   0  0  0  0  0  0  0  0  0  0  0  0
  -23.3440  -13.0410   22.3440 N   0  0  0  0  0  0  0  0  0  0  0  0
  -23.5150  -14.8410   21.0410 O   0  0  0  0  0  0  0  0  0  0  0  0
  -23.7090  -12.1500   22.6440 H   0  0  0  0  0  0  0  0  0  0  0  0
  -22.5090  -13.4020   22.7830 H   0  0  0  0  0  0  0  0  0  0  0  0
  -26.5400  -15.2420   20.2120 N   0  0  0  0  0  0  0  0  0  0  0  0
  -25.8820  -15.9480   20.5230 H   0  0  0  0  0  0  0  0  0  0  0  0
  -27.3500  -15.6300   19.7480 H   0  0  0  0  0  0  0  0  0  0  0  0
  -28.6010  -16.8510   22.1600 C   0  0  0  0  0  1  0  0  0  0  0  0
  -28.4810  -17.0450   20.6390 C   0  0  0  0  0  2  0  0  0  0  0  0
  -30.5200  -21.3010   18.9210 O   0  0  0  0  0  0  0  0  0  0  0  0
  -29.3800  -22.1330   19.3190 C   0  0  0  0  0  2  0  0  0  0  0  0
  -29.6200  -23.6930   19.1580 C   0  0  0  0  0  0  0  0  0  0  0  0
  -30.7360  -24.1290   18.8520 O   0  0  0  0  0  0  0  0  0  0  0  0
  -28.4150  -24.6830   19.3930 C   0  0  0  0  0  2  0  0  0  0  0  0
  -28.6830  -26.1430   19.2800 O   0  0  0  0  0  0  0  0  0  0  0  0
  -24.7950  -31.0810   22.8350 C   0  0  0  0  0  0  0  0  0  0  0  0
  -27.5490  -26.9700   19.3210 C   0  0  0  0  0  0  0  0  0  0  0  0
  -23.6340  -29.8250   21.0550 C   0  0  0  0  0  3  0  0  0  0  0  0
  -25.1310  -28.4880   19.4760 C   0  0  0  0  0  0  0  0  0  0  0  0
  -26.1590  -30.2500   20.9060 C   0  0  0  0  0  2  0  0  0  0  0  0
  -26.2850  -28.9530   20.1190 C   0  0  0  0  0  0  0  0  0  0  0  0
  -27.4990  -28.2060   20.0340 C   0  0  0  0  0  3  0  0  0  0  0  0
  -26.3730  -26.5670   18.6480 C   0  0  0  0  0  3  0  0  0  0  0  0
  -25.1760  -27.3000   18.7320 C   0  0  0  0  0  3  0  0  0  0  0  0
  -23.8640  -29.3090   19.6120 C   0  0  0  0  0  2  0  0  0  0  0  0
  -24.8800  -30.3970   21.6570 N   0  0  0  0  0  0  0  0  0  0  0  0
  -23.7060  -31.2620   23.3970 O   0  0  0  0  0  0  0  0  0  0  0  0
  -23.0090  -28.6890   21.9000 C   0  0  0  0  0  0  0  0  0  0  0  0
  -21.6880  -28.4820   21.7570 N   0  0  0  0  0  0  0  0  0  0  0  0
  -23.7110  -28.0010   22.6440 O   0  0  0  0  0  0  0  0  0  0  0  0
  -21.1790  -29.0960   21.1360 H   0  0  0  0  0  0  0  0  0  0  0  0
  -18.3430  -27.1730   22.1810 C   0  0  0  0  0  0  0  0  0  0  0  0
  -20.9020  -27.4430   22.4240 C   0  0  0  0  0  3  0  0  0  0  0  0
  -21.0110  -26.0940   21.6760 C   0  0  0  0  0  2  0  0  0  0  0  0
  -19.8900  -25.8790   20.6530 C   0  0  0  0  0  2  0  0  0  0  0  0
  -18.5220  -25.9190   21.3400 C   0  0  0  0  0  2  0  0  0  0  0  0
  -19.4600  -27.8970   22.6760 C   0  0  0  0  0  0  0  0  0  0  0  0
  -19.2380  -29.0730   23.4220 C   0  0  0  0  0  3  0  0  0  0  0  0
  -17.9300  -29.5290   23.6760 C   0  0  0  0  0  3  0  0  0  0  0  0
  -16.8280  -28.8000   23.1980 C   0  0  0  0  0  3  0  0  0  0  0  0
  -17.0350  -27.6230   22.4580 C   0  0  0  0  0  3  0  0  0  0  0  0
  -26.0600  -31.6840   23.5210 C   0  0  0  0  0  3  0  0  0  0  0  0
  -25.7160  -33.0430   23.9630 N   0  0  0  0  0  0  0  0  0  0  0  0
  -26.0460  -34.1640   23.3070 C   0  0  0  0  0  0  0  0  0  0  0  0
  -26.7400  -34.1610   22.2860 O   0  0  0  0  0  0  0  0  0  0  0  0
  -25.1040  -33.1180   24.7620 H   0  0  0  0  0  0  0  0  0  0  0  0
  -24.2830  -35.9430   23.0790 C   0  0  0  0  0  1  0  0  0  0  0  0
  -25.5220  -35.4980   23.8710 C   0  0  0  0  0  3  0  0  0  0  0  0
  -27.6170  -36.3650   24.8140 C   0  0  0  0  0  1  0  0  0  0  0  0
  -26.5320  -36.5780   23.8600 N   0  0  0  0  0  0  0  0  0  0  0  0
  -26.1020  -37.4760   24.0640 H   0  0  0  0  0  0  0  0  0  0  0  0
  -26.5830  -30.8190   24.7340 C   0  0  1  0  0  0  0  0  0  0  0  0
  -25.4860  -30.4630   25.7660 C   0  0  0  0  0  1  0  0  0  0  0  0
  -27.2060  -29.4940   24.2350 C   0  0  0  0  0  1  0  0  0  0  0  0
  -27.7110  -31.5790   25.4700 C   0  0  0  0  0  1  0  0  0  0  0  0
  1  3  1  0
  2  4  1  0
  3  4  2  0
  3 10  1  0
  4 50  1  0
  5  1  2  0
  5  6  1  0
  6  2  2  0
  7  5  1  0
  8  7  1  0
  9  7  1  0
 10 11  2  0
 11 12  1  0
 13 19  1  0
 13 10  1  0
 14 19  1  0
 15 16  1  0
 15 14  1  0
 17 16  1  0
 17 24  1  0
 17 18  1  0
 19 18  1  0
 20 13  2  0
 21 22  2  0
 22 41  1  0
 23 26  1  0
 23 22  1  0
 24 25  1  0
 24 21  1  0
 25 23  2  0
 26 27  1  0
 27 28  2  0
 29 32  1  0
 29 28  1  0
 30 29  2  0
 31 30  1  0
 31 26  2  0
 32 33  1  0
 33 38  2  0
 33 34  1  0
 34 35  2  0
 35 36  1  0
 36 40  1  0
 37 36  2  0
 38 37  1  0
 39 38  1  0
 41 42  1  0
 42 44  1  0
 42 45  1  0
 43 41  2  0
 46 21  1  0
 46 47  1  0
 48 46  1  0
 50 49  1  0
 51  6  1  0
 51 52  1  0
 53 52  1  0
 53 55  1  0
 54 53  2  0
 56 58  1  0
 56 55  1  0
 57 68  2  0
 58 63  1  0
 59 67  1  0
 59 69  1  0
 60 66  1  0
 60 62  1  0
 61 67  1  0
 62 61  1  0
 63 62  2  0
 64 65  1  0
 64 58  2  0
 65 60  2  0
 66 59  1  0
 67 57  1  0
 69 71  2  0
 70 69  1  0
 72 70  1  0
 73 82  2  0
 73 78  1  0
 74 70  1  0
 74 78  1  0
 75 74  1  0
 76 77  1  0
 76 75  1  0
 77 73  1  0
 78 79  2  0
 79 80  1  0
 81 80  2  0
 82 81  1  0
 83 57  1  0
 83 84  1  0
 83 93  1  0
 84 87  1  0
 85 89  1  0
 85 84  1  0
 86 85  2  0
 89 88  1  0
 91 89  1  0
 91 92  1  0
 91 90  1  0
 93 96  1  1
 93 94  1  0
 95 93  1  0
M  ISO  4  10 100  13 100  55 101  56 101
M  END
>  <TORSDO>  (41) 
F 23

>  <SCORE>  (41) 
-6.969

>  <name>  (41) 
41

>  <ligand_id>  (41) 
41

>  <original_smiles>  (41) 
[H]N=C(C(=O)N1C([H])([H])C([H])([H])C([H])([H])C([H])(n2nc(-c3c([H])c([H])c(Oc4c([H])c([H])c(F)c([H])c4F)c([H])c3[H])c(C(=O)N([H])[H])c2N([H])[H])C1([H])[H])c1c([H])c(N([H])[H])c(OC([H])([H])C(=O)C([H])([H])Oc2c([H])c([H])c3c(c2[H])C([H])([H])N(C(=O)C([H])(N([H])C(=O)C([H])(N([H])C([H])([H])[H])C([H])([H])[H])C(C([H])([H])[H])(C([H])([H])[H])C([H])([H])[H])C([H])(C(=O)N([H])C2([H])c4c([H])c([H])c([H])c([H])c4C([H])([H])C([H])([H])C2([H])[H])C3([H])[H])c([H])c1C([H])([H])C([H])([H])[H]

>  <smiles>  (41) 
[H]N=C(C(=O)N1C([H])([H])C([H])([H])C([H])([H])C([H])(n2nc(-c3c([H])c([H])c(Oc4c([H])c([H])c(F)c([H])c4F)c([H])c3[H])c(C(=O)N([H])[H])c2N([H])[H])C1([H])[H])c1c([H])c(N([H])[H])c(OC([H])([H])C(=O)C([H])([H])Oc2c([H])c([H])c3c(c2[H])C([H])([H])N(C(=O)C([H])(N([H])C(=O)C([H])(N([H])C([H])([H])[H])C([H])([H])[H])C(C([H])([H])[H])(C([H])([H])[H])C([H])([H])[H])C([H])(C(=O)N([H])C2([H])c4c([H])c([H])c([H])c([H])c4C([H])([H])C([H])([H])C2([H])[H])C3([H])[H])c([H])c1C([H])([H])C([H])([H])[H]

$$$$
42:0:0
     RDKit          3D

 95103  0  0  1  0  0  0  0  0999 V2000
  -29.3940  -18.5390   20.6310 C   0  0  0  0  0  3  0  0  0  0  0  0
  -31.6770  -17.7080   20.7280 C   0  0  0  0  0  3  0  0  0  0  0  0
  -29.8290  -19.9400   20.6190 C   0  0  0  0  0  0  0  0  0  0  0  0
  -30.2990  -17.3840   20.6680 C   0  0  0  0  0  0  0  0  0  0  0  0
  -32.1320  -19.0360   20.7050 C   0  0  0  0  0  0  0  0  0  0  0  0
  -31.2370  -20.1160   20.6320 C   0  0  0  0  0  0  0  0  0  0  0  0
  -30.6130  -14.7750   20.4050 C   0  0  0  0  0  0  0  0  0  0  0  0
  -30.3790  -12.5160   19.3580 C   0  0  0  0  0  2  0  0  0  0  0  0
  -29.4520  -12.6330   18.1290 C   0  0  0  0  0  2  0  0  0  0  0  0
  -27.9800  -12.4570   18.5500 C   0  0  0  0  0  2  0  0  0  0  0  0
  -27.6070  -13.3090   19.7930 C   0  0  0  0  0  3  0  0  0  0  0  0
  -28.6660  -13.2070   20.9140 C   0  0  0  0  0  2  0  0  0  0  0  0
  -29.9620  -13.5630   20.3250 N   0  0  0  0  0  0  0  0  0  0  0  0
  -31.7930  -14.8200   20.0430 O   0  0  0  0  0  0  0  0  0  0  0  0
  -29.8890  -15.9400   20.6870 N   0  0  0  0  0  0  0  0  0  0  0  0
  -28.9160  -15.7700   20.8940 H   0  0  0  0  0  0  0  0  0  0  0  0
  -25.2130  -13.8750   20.5090 C   0  0  0  0  0  0  0  0  0  0  0  0
  -24.1540  -13.0910   20.8800 C   0  0  0  0  0  0  0  0  0  0  0  0
  -24.6290  -11.7450   20.8510 C   0  0  0  0  0  0  0  0  0  0  0  0
  -26.2650  -13.0050   20.2780 N   0  0  0  0  0  0  0  0  0  0  0  0
  -25.9210  -11.7170   20.5470 N   0  0  0  0  0  0  0  0  0  0  0  0
  -23.9130  -10.4770   21.0410 C   0  0  0  0  0  0  0  0  0  0  0  0
  -24.3520   -9.5110   21.9750 C   0  0  0  0  0  3  0  0  0  0  0  0
  -23.6310   -8.3100   22.1530 C   0  0  0  0  0  3  0  0  0  0  0  0
  -22.4580   -8.0650   21.3990 C   0  0  0  0  0  0  0  0  0  0  0  0
  -22.0400   -9.0200   20.4560 C   0  0  0  0  0  3  0  0  0  0  0  0
  -22.7600  -10.2120   20.2750 C   0  0  0  0  0  3  0  0  0  0  0  0
  -21.7100   -6.9160   21.4860 O   0  0  0  0  0  0  0  0  0  0  0  0
  -21.6700   -6.1700   22.6370 C   0  0  0  0  0  0  0  0  0  0  0  0
  -21.2410   -6.7170   23.8650 C   0  0  0  0  0  3  0  0  0  0  0  0
  -21.1480   -5.8970   25.0070 C   0  0  0  0  0  3  0  0  0  0  0  0
  -21.4720   -4.5290   24.9210 C   0  0  0  0  0  0  0  0  0  0  0  0
  -21.8930   -3.9810   23.6970 C   0  0  0  0  0  3  0  0  0  0  0  0
  -21.9870   -4.7980   22.5580 C   0  0  0  0  0  0  0  0  0  0  0  0
  -22.3730   -4.2600   21.3750 F   0  0  0  0  0  0  0  0  0  0  0  0
  -21.3750   -3.7400   26.0170 F   0  0  0  0  0  0  0  0  0  0  0  0
  -22.7530  -13.5570   21.1470 C   0  0  0  0  0  0  0  0  0  0  0  0
  -22.0270  -12.8570   22.0100 N   0  0  0  0  0  0  0  0  0  0  0  0
  -22.3120  -14.5810   20.6270 O   0  0  0  0  0  0  0  0  0  0  0  0
  -22.3960  -12.0280   22.4520 H   0  0  0  0  0  0  0  0  0  0  0  0
  -21.0880  -13.1550   22.2340 H   0  0  0  0  0  0  0  0  0  0  0  0
  -25.3630  -15.2470   20.3260 N   0  0  0  0  0  0  0  0  0  0  0  0
  -24.5780  -15.8850   20.3990 H   0  0  0  0  0  0  0  0  0  0  0  0
  -26.1970  -15.6900   19.9610 H   0  0  0  0  0  0  0  0  0  0  0  0
  -33.5020  -19.3180   20.7900 N   0  0  0  0  0  0  0  0  0  0  0  0
  -33.7570  -19.8880   21.5910 H   0  0  0  0  0  0  0  0  0  0  0  0
  -34.0960  -18.4960   20.7960 H   0  0  0  0  0  0  0  0  0  0  0  0
  -28.9170  -21.2060   20.6470 C   0  0  0  0  0  3  0  0  0  0  0  0
  -29.1630  -22.5190   20.2450 C   0  0  0  0  0  3  0  0  0  0  0  0
  -28.2960  -23.7750   20.4770 C   0  0  0  0  0  0  0  0  0  0  0  0
  -27.3920  -23.7640   21.3190 O   0  0  0  0  0  0  0  0  0  0  0  0
  -28.5120  -25.1270   19.6440 C   0  0  0  0  0  2  0  0  0  0  0  0
  -28.3650  -26.4570   20.3230 O   0  0  0  0  0  0  0  0  0  0  0  0
  -24.6030  -31.8970   23.2310 C   0  0  0  0  0  0  0  0  0  0  0  0
  -27.2400  -27.2980   20.2120 C   0  0  0  0  0  0  0  0  0  0  0  0
  -23.4110  -30.4850   21.5930 C   0  0  0  0  0  3  0  0  0  0  0  0
  -24.8740  -28.9280   20.1730 C   0  0  0  0  0  0  0  0  0  0  0  0
  -25.9510  -30.7970   21.4290 C   0  0  0  0  0  2  0  0  0  0  0  0
  -26.0350  -29.4140   20.7860 C   0  0  0  0  0  0  0  0  0  0  0  0
  -27.2130  -28.6080   20.8010 C   0  0  0  0  0  3  0  0  0  0  0  0
  -26.0590  -26.8740   19.5650 C   0  0  0  0  0  3  0  0  0  0  0  0
  -24.8930  -27.6690   19.5490 C   0  0  0  0  0  3  0  0  0  0  0  0
  -23.6330  -29.7990   20.2170 C   0  0  0  0  0  2  0  0  0  0  0  0
  -24.6730  -31.0790   22.1400 N   0  0  0  0  0  0  0  0  0  0  0  0
  -23.5160  -32.1770   23.7590 O   0  0  0  0  0  0  0  0  0  0  0  0
  -22.7450  -29.4740   22.5570 C   0  0  0  0  0  0  0  0  0  0  0  0
  -21.4180  -29.3010   22.4320 N   0  0  0  0  0  0  0  0  0  0  0  0
  -23.4200  -28.8500   23.3790 O   0  0  0  0  0  0  0  0  0  0  0  0
  -20.9300  -29.8570   21.7420 H   0  0  0  0  0  0  0  0  0  0  0  0
  -18.0350  -28.1340   22.9520 C   0  0  0  0  0  0  0  0  0  0  0  0
  -20.5970  -28.3700   23.2060 C   0  0  0  0  0  3  0  0  0  0  0  0
  -20.6830  -26.9390   22.6270 C   0  0  0  0  0  2  0  0  0  0  0  0
  -19.5750  -26.6290   21.6150 C   0  0  0  0  0  2  0  0  0  0  0  0
  -18.1970  -26.7840   22.2680 C   0  0  0  0  0  2  0  0  0  0  0  0
  -19.1630  -28.8840   23.3760 C   0  0  0  0  0  0  0  0  0  0  0  0
  -18.9610  -30.1460   23.9750 C   0  0  0  0  0  3  0  0  0  0  0  0
  -17.6630  -30.6600   24.1500 C   0  0  0  0  0  3  0  0  0  0  0  0
  -16.5480  -29.9050   23.7440 C   0  0  0  0  0  3  0  0  0  0  0  0
  -16.7350  -28.6430   23.1500 C   0  0  0  0  0  3  0  0  0  0  0  0
  -25.8810  -32.5360   23.8550 C   0  0  0  0  0  3  0  0  0  0  0  0
  -25.5670  -33.9350   24.1800 N   0  0  0  0  0  0  0  0  0  0  0  0
  -25.9060  -34.9890   23.4230 C   0  0  0  0  0  0  0  0  0  0  0  0
  -26.5820  -34.8840   22.3970 O   0  0  0  0  0  0  0  0  0  0  0  0
  -24.9610  -34.0910   24.9730 H   0  0  0  0  0  0  0  0  0  0  0  0
  -24.1790  -36.7820   23.0520 C   0  0  0  0  0  1  0  0  0  0  0  0
  -25.4130  -36.3780   23.8750 C   0  0  0  0  0  3  0  0  0  0  0  0
  -27.5370  -37.2630   24.7290 C   0  0  0  0  0  1  0  0  0  0  0  0
  -26.4460  -37.4310   23.7720 N   0  0  0  0  0  0  0  0  0  0  0  0
  -26.0390  -38.3520   23.9160 H   0  0  0  0  0  0  0  0  0  0  0  0
  -26.3960  -31.7750   25.1390 C   0  0  1  0  0  0  0  0  0  0  0  0
  -25.2980  -31.5390   26.2030 C   0  0  0  0  0  1  0  0  0  0  0  0
  -26.9880  -30.3980   24.7590 C   0  0  0  0  0  1  0  0  0  0  0  0
  -27.5420  -32.5770   25.8030 C   0  0  0  0  0  1  0  0  0  0  0  0
  -31.8470  -21.3320   20.6160 O   0  0  0  0  0  0  0  0  0  0  0  0
  -32.7720  -21.0940   20.5340 H   0  0  0  0  0  0  0  0  0  0  0  0
  1  4  1  0
  3  1  2  0
  3  6  1  0
  3 48  1  0
  4 15  1  0
  4  2  2  0
  5  2  1  0
  5 45  1  0
  6  5  2  0
  7 15  1  0
  8 13  1  0
  9 10  1  0
  9  8  1  0
 11 10  1  0
 11 20  1  0
 11 12  1  0
 13  7  1  0
 13 12  1  0
 14  7  2  0
 15 16  1  0
 17 18  2  0
 18 37  1  0
 19 18  1  0
 19 22  1  0
 20 17  1  0
 20 21  1  0
 21 19  2  0
 22 23  1  0
 23 24  2  0
 25 28  1  0
 25 24  1  0
 26 25  2  0
 27 26  1  0
 27 22  2  0
 28 29  1  0
 29 30  1  0
 30 31  2  0
 32 31  1  0
 32 36  1  0
 33 32  2  0
 34 29  2  0
 34 33  1  0
 35 34  1  0
 37 38  1  0
 38 41  1  0
 38 40  1  0
 39 37  2  0
 42 43  1  0
 42 17  1  0
 44 42  1  0
 45 47  1  0
 45 46  1  0
 49 50  1  0
 49 48  2  0
 50 51  2  0
 52 53  1  0
 52 50  1  0
 54 65  2  0
 55 53  1  0
 55 60  1  0
 56 64  1  0
 56 66  1  0
 57 63  1  0
 57 59  1  0
 58 64  1  0
 59 60  2  0
 59 58  1  0
 61 55  2  0
 62 61  1  0
 62 57  2  0
 63 56  1  0
 64 54  1  0
 66 68  2  0
 67 66  1  0
 69 67  1  0
 70 79  2  0
 70 75  1  0
 71 67  1  0
 71 75  1  0
 72 71  1  0
 73 74  1  0
 73 72  1  0
 74 70  1  0
 75 76  2  0
 76 77  1  0
 78 77  2  0
 79 78  1  0
 80 54  1  0
 80 81  1  0
 80 90  1  0
 81 84  1  0
 82 86  1  0
 82 81  1  0
 83 82  2  0
 86 85  1  0
 88 86  1  0
 88 89  1  0
 88 87  1  0
 90 93  1  1
 90 91  1  0
 92 90  1  0
 94  6  1  0
 95 94  1  0
M  ISO  4   7 100  15 100  52 101  53 101
M  END
>  <TORSDO>  (42) 
F 21

>  <SCORE>  (42) 
-14.200

>  <name>  (42) 
42

>  <ligand_id>  (42) 
42

>  <original_smiles>  (42) 
[H]Oc1c(C([H])=C([H])C(=O)C([H])([H])Oc2c([H])c([H])c3c(c2[H])C([H])([H])N(C(=O)C([H])(N([H])C(=O)C([H])(N([H])C([H])([H])[H])C([H])([H])[H])C(C([H])([H])[H])(C([H])([H])[H])C([H])([H])[H])C([H])(C(=O)N([H])C2([H])c4c([H])c([H])c([H])c([H])c4C([H])([H])C([H])([H])C2([H])[H])C3([H])[H])c([H])c(N([H])C(=O)N2C([H])([H])C([H])([H])C([H])([H])C([H])(n3nc(-c4c([H])c([H])c(Oc5c([H])c([H])c(F)c([H])c5F)c([H])c4[H])c(C(=O)N([H])[H])c3N([H])[H])C2([H])[H])c([H])c1N([H])[H]

>  <smiles>  (42) 
[H]Oc1c(C([H])=C([H])C(=O)C([H])([H])Oc2c([H])c([H])c3c(c2[H])C([H])([H])N(C(=O)C([H])(N([H])C(=O)C([H])(N([H])C([H])([H])[H])C([H])([H])[H])C(C([H])([H])[H])(C([H])([H])[H])C([H])([H])[H])C([H])(C(=O)N([H])C2([H])c4c([H])c([H])c([H])c([H])c4C([H])([H])C([H])([H])C2([H])[H])C3([H])[H])c([H])c(N([H])C(=O)N2C([H])([H])C([H])([H])C([H])([H])C([H])(n3nc(-c4c([H])c([H])c(Oc5c([H])c([H])c(F)c([H])c5F)c([H])c4[H])c(C(=O)N([H])[H])c3N([H])[H])C2([H])[H])c([H])c1N([H])[H]

$$$$
43:0:0
     RDKit          3D

 95104  0  0  1  0  0  0  0  0999 V2000
  -29.2380  -23.7920   20.4940 C   0  0  0  0  0  3  0  0  0  0  0  0
  -29.3060  -24.7670   21.4200 C   0  0  0  0  0  0  0  0  0  0  0  0
  -31.1970  -20.9490   22.2250 C   0  0  0  0  0  0  0  0  0  0  0  0
  -29.7080  -22.3400   20.7240 C   0  0  0  0  0  2  0  0  0  0  0  0
  -29.8590  -24.4340   22.7830 C   0  0  0  0  0  2  0  0  0  0  0  0
  -30.8860  -23.2920   22.7530 C   0  0  0  0  0  2  0  0  0  0  0  0
  -30.5230  -22.1080   21.9400 N   0  0  0  0  0  0  0  0  0  0  0  0
  -32.1210  -20.9350   23.0470 O   0  0  0  0  0  0  0  0  0  0  0  0
  -31.9320  -18.6840   21.4060 C   0  0  0  0  0  3  0  0  0  0  0  0
  -31.6820  -17.3300   21.0930 C   0  0  0  0  0  3  0  0  0  0  0  0
  -29.5530  -19.1540   21.3970 C   0  0  0  0  0  3  0  0  0  0  0  0
  -30.8780  -19.6130   21.5860 C   0  0  0  0  0  0  0  0  0  0  0  0
  -30.3560  -16.8600   20.9500 C   0  0  0  0  0  0  0  0  0  0  0  0
  -29.3010  -17.7950   21.0880 C   0  0  0  0  0  0  0  0  0  0  0  0
  -28.0220  -17.3650   20.9620 F   0  0  0  0  0  0  0  0  0  0  0  0
  -30.6610  -14.4960   20.0970 C   0  0  0  0  0  0  0  0  0  0  0  0
  -30.2590  -12.3820   18.8800 C   0  0  0  0  0  2  0  0  0  0  0  0
  -29.2480  -12.6410   17.7440 C   0  0  0  0  0  2  0  0  0  0  0  0
  -27.8010  -12.5130   18.2600 C   0  0  0  0  0  2  0  0  0  0  0  0
  -27.5560  -13.3070   19.5700 C   0  0  0  0  0  3  0  0  0  0  0  0
  -28.6720  -13.0240   20.6010 C   0  0  0  0  0  2  0  0  0  0  0  0
  -29.9630  -13.3340   19.9640 N   0  0  0  0  0  0  0  0  0  0  0  0
  -31.7520  -14.6710   19.5480 O   0  0  0  0  0  0  0  0  0  0  0  0
  -30.0050  -15.4840   20.7430 N   0  0  0  0  0  0  0  0  0  0  0  0
  -29.0820  -15.2370   21.0640 H   0  0  0  0  0  0  0  0  0  0  0  0
  -25.2110  -13.9300   20.4270 C   0  0  0  0  0  0  0  0  0  0  0  0
  -24.1540  -13.1630   20.8380 C   0  0  0  0  0  0  0  0  0  0  0  0
  -24.5930  -11.8070   20.7510 C   0  0  0  0  0  0  0  0  0  0  0  0
  -26.2280  -13.0400   20.1190 N   0  0  0  0  0  0  0  0  0  0  0  0
  -25.8630  -11.7570   20.3700 N   0  0  0  0  0  0  0  0  0  0  0  0
  -23.8620  -10.5510   20.9570 C   0  0  0  0  0  0  0  0  0  0  0  0
  -24.3170   -9.5700   21.8650 C   0  0  0  0  0  3  0  0  0  0  0  0
  -23.5860   -8.3780   22.0590 C   0  0  0  0  0  3  0  0  0  0  0  0
  -22.3840   -8.1590   21.3460 C   0  0  0  0  0  0  0  0  0  0  0  0
  -21.9460   -9.1290   20.4270 C   0  0  0  0  0  3  0  0  0  0  0  0
  -22.6770  -10.3120   20.2300 C   0  0  0  0  0  3  0  0  0  0  0  0
  -21.6230   -7.0190   21.4490 O   0  0  0  0  0  0  0  0  0  0  0  0
  -21.5850   -6.2810   22.6050 C   0  0  0  0  0  0  0  0  0  0  0  0
  -21.1830   -6.8450   23.8350 C   0  0  0  0  0  3  0  0  0  0  0  0
  -21.0910   -6.0350   24.9850 C   0  0  0  0  0  3  0  0  0  0  0  0
  -21.3910   -4.6630   24.9060 C   0  0  0  0  0  0  0  0  0  0  0  0
  -21.7850   -4.0980   23.6800 C   0  0  0  0  0  3  0  0  0  0  0  0
  -21.8790   -4.9050   22.5320 C   0  0  0  0  0  0  0  0  0  0  0  0
  -22.2400   -4.3520   21.3500 F   0  0  0  0  0  0  0  0  0  0  0  0
  -21.2930   -3.8820   26.0070 F   0  0  0  0  0  0  0  0  0  0  0  0
  -22.7820  -13.6540   21.2010 C   0  0  0  0  0  0  0  0  0  0  0  0
  -22.0990  -12.9570   22.1010 N   0  0  0  0  0  0  0  0  0  0  0  0
  -22.3250  -14.6910   20.7210 O   0  0  0  0  0  0  0  0  0  0  0  0
  -22.4830  -12.1190   22.5140 H   0  0  0  0  0  0  0  0  0  0  0  0
  -21.1810  -13.2660   22.3860 H   0  0  0  0  0  0  0  0  0  0  0  0
  -25.3860  -15.3020   20.2750 N   0  0  0  0  0  0  0  0  0  0  0  0
  -24.6480  -15.9650   20.4830 H   0  0  0  0  0  0  0  0  0  0  0  0
  -26.2470  -15.7490   19.9860 H   0  0  0  0  0  0  0  0  0  0  0  0
  -28.8370  -26.2270   21.2750 C   0  0  0  0  0  2  0  0  0  0  0  0
  -28.3240  -26.5870   19.9880 O   0  0  0  0  0  0  0  0  0  0  0  0
  -24.4790  -31.7450   23.1470 C   0  0  0  0  0  0  0  0  0  0  0  0
  -27.1950  -27.3810   20.0110 C   0  0  0  0  0  0  0  0  0  0  0  0
  -23.3030  -30.3610   21.4690 C   0  0  0  0  0  3  0  0  0  0  0  0
  -24.7890  -28.8670   20.0260 C   0  0  0  0  0  0  0  0  0  0  0  0
  -25.8270  -30.7470   21.3040 C   0  0  0  0  0  2  0  0  0  0  0  0
  -25.9340  -29.3880   20.6430 C   0  0  0  0  0  0  0  0  0  0  0  0
  -27.1420  -28.6490   20.6420 C   0  0  0  0  0  3  0  0  0  0  0  0
  -26.0410  -26.8850   19.3770 C   0  0  0  0  0  3  0  0  0  0  0  0
  -24.8370  -27.6150   19.3910 C   0  0  0  0  0  3  0  0  0  0  0  0
  -23.5340  -29.7110   20.0780 C   0  0  0  0  0  2  0  0  0  0  0  0
  -24.5540  -30.9660   22.0320 N   0  0  0  0  0  0  0  0  0  0  0  0
  -23.3900  -31.9960   23.6830 O   0  0  0  0  0  0  0  0  0  0  0  0
  -22.6550  -29.3150   22.4040 C   0  0  0  0  0  0  0  0  0  0  0  0
  -21.3340  -29.1170   22.2580 N   0  0  0  0  0  0  0  0  0  0  0  0
  -23.3370  -28.6840   23.2160 O   0  0  0  0  0  0  0  0  0  0  0  0
  -20.8440  -29.6810   21.5770 H   0  0  0  0  0  0  0  0  0  0  0  0
  -17.9730  -27.8600   22.6820 C   0  0  0  0  0  0  0  0  0  0  0  0
  -20.5210  -28.1570   23.0020 C   0  0  0  0  0  3  0  0  0  0  0  0
  -20.6570  -26.7360   22.4080 C   0  0  0  0  0  2  0  0  0  0  0  0
  -19.5770  -26.4080   21.3710 C   0  0  0  0  0  2  0  0  0  0  0  0
  -18.1830  -26.5230   21.9930 C   0  0  0  0  0  2  0  0  0  0  0  0
  -19.0710  -28.6350   23.1420 C   0  0  0  0  0  0  0  0  0  0  0  0
  -18.8210  -29.8870   23.7430 C   0  0  0  0  0  3  0  0  0  0  0  0
  -17.5060  -30.3650   23.8920 C   0  0  0  0  0  3  0  0  0  0  0  0
  -16.4220  -29.5870   23.4510 C   0  0  0  0  0  3  0  0  0  0  0  0
  -16.6550  -28.3370   22.8500 C   0  0  0  0  0  3  0  0  0  0  0  0
  -25.7530  -32.3770   23.7890 C   0  0  0  0  0  3  0  0  0  0  0  0
  -25.4250  -33.7630   24.1480 N   0  0  0  0  0  0  0  0  0  0  0  0
  -25.7430  -34.8360   23.4110 C   0  0  0  0  0  0  0  0  0  0  0  0
  -26.4130  -34.7630   22.3760 O   0  0  0  0  0  0  0  0  0  0  0  0
  -24.8260  -33.8940   24.9500 H   0  0  0  0  0  0  0  0  0  0  0  0
  -23.9800  -36.6040   23.1030 C   0  0  0  0  0  1  0  0  0  0  0  0
  -25.2360  -36.2080   23.8960 C   0  0  0  0  0  3  0  0  0  0  0  0
  -27.3630  -37.1140   24.7200 C   0  0  0  0  0  1  0  0  0  0  0  0
  -26.2470  -37.2810   23.7920 N   0  0  0  0  0  0  0  0  0  0  0  0
  -25.8270  -38.1900   23.9620 H   0  0  0  0  0  0  0  0  0  0  0  0
  -26.2760  -31.5830   25.0490 C   0  0  1  0  0  0  0  0  0  0  0  0
  -25.1810  -31.3040   26.1060 C   0  0  0  0  0  1  0  0  0  0  0  0
  -26.8800  -30.2230   24.6250 C   0  0  0  0  0  1  0  0  0  0  0  0
  -27.4130  -32.3760   25.7350 C   0  0  0  0  0  1  0  0  0  0  0  0
  1  4  1  0
  1  2  2  0
  2  5  1  0
  3  8  2  0
  4  7  1  0
  6  5  1  0
  7  3  1  0
  7  6  1  0
  9 12  1  0
 10  9  2  0
 11 12  2  0
 12  3  1  0
 13 14  2  0
 13 10  1  0
 14 11  1  0
 15 14  1  0
 16 24  1  0
 17 22  1  0
 18 19  1  0
 18 17  1  0
 20 19  1  0
 20 29  1  0
 20 21  1  0
 22 16  1  0
 22 21  1  0
 23 16  2  0
 24 13  1  0
 24 25  1  0
 26 27  2  0
 27 46  1  0
 28 27  1  0
 28 31  1  0
 29 30  1  0
 29 26  1  0
 30 28  2  0
 31 32  1  0
 32 33  2  0
 34 37  1  0
 34 33  1  0
 35 34  2  0
 36 35  1  0
 36 31  2  0
 37 38  1  0
 38 39  1  0
 39 40  2  0
 41 40  1  0
 41 45  1  0
 42 41  2  0
 43 38  2  0
 43 42  1  0
 44 43  1  0
 46 47  1  0
 47 50  1  0
 47 49  1  0
 48 46  2  0
 51 26  1  0
 51 52  1  0
 53 51  1  0
 54  2  1  0
 55 57  1  0
 55 54  1  0
 56 67  2  0
 57 62  1  0
 58 66  1  0
 58 68  1  0
 59 65  1  0
 59 61  1  0
 60 66  1  0
 61 60  1  0
 62 61  2  0
 63 64  1  0
 63 57  2  0
 64 59  2  0
 65 58  1  0
 66 56  1  0
 68 70  2  0
 69 68  1  0
 71 69  1  0
 72 81  2  0
 72 77  1  0
 73 69  1  0
 73 77  1  0
 74 73  1  0
 75 76  1  0
 75 74  1  0
 76 72  1  0
 77 78  2  0
 78 79  1  0
 80 79  2  0
 81 80  1  0
 82 56  1  0
 82 83  1  0
 82 92  1  0
 83 86  1  0
 84 88  1  0
 84 83  1  0
 85 84  2  0
 88 87  1  0
 90 88  1  0
 90 91  1  0
 90 89  1  0
 92 95  1  1
 92 93  1  0
 94 92  1  0
M  ISO  4  16 100  24 100  54 101  55 101
M  END
>  <TORSDO>  (43) 
F 18

>  <SCORE>  (43) 
-13.626

>  <name>  (43) 
43

>  <ligand_id>  (43) 
43

>  <original_smiles>  (43) 
[H]C1=C(C([H])([H])Oc2c([H])c([H])c3c(c2[H])C([H])([H])N(C(=O)C([H])(N([H])C(=O)C([H])(N([H])C([H])([H])[H])C([H])([H])[H])C(C([H])([H])[H])(C([H])([H])[H])C([H])([H])[H])C([H])(C(=O)N([H])C2([H])c4c([H])c([H])c([H])c([H])c4C([H])([H])C([H])([H])C2([H])[H])C3([H])[H])C([H])([H])C([H])([H])N(C(=O)c2c([H])c([H])c(N([H])C(=O)N3C([H])([H])C([H])([H])C([H])([H])C([H])(n4nc(-c5c([H])c([H])c(Oc6c([H])c([H])c(F)c([H])c6F)c([H])c5[H])c(C(=O)N([H])[H])c4N([H])[H])C3([H])[H])c(F)c2[H])C1([H])[H]

>  <smiles>  (43) 
[H]C1=C(C([H])([H])Oc2c([H])c([H])c3c(c2[H])C([H])([H])N(C(=O)C([H])(N([H])C(=O)C([H])(N([H])C([H])([H])[H])C([H])([H])[H])C(C([H])([H])[H])(C([H])([H])[H])C([H])([H])[H])C([H])(C(=O)N([H])C2([H])c4c([H])c([H])c([H])c([H])c4C([H])([H])C([H])([H])C2([H])[H])C3([H])[H])C([H])([H])C([H])([H])N(C(=O)c2c([H])c([H])c(N([H])C(=O)N3C([H])([H])C([H])([H])C([H])([H])C([H])(n4nc(-c5c([H])c([H])c(Oc6c([H])c([H])c(F)c([H])c6F)c([H])c5[H])c(C(=O)N([H])[H])c4N([H])[H])C3([H])[H])c(F)c2[H])C1([H])[H]

$$$$
44:0:0
     RDKit          3D

 96104  0  0  1  0  0  0  0  0999 V2000
  -28.9810  -19.5090   19.9520 C   0  0  0  0  0  3  0  0  0  0  0  0
  -30.1580  -20.9150   21.5300 C   0  0  0  0  0  3  0  0  0  0  0  0
  -29.7030  -18.3550   20.3880 C   0  0  0  0  0  0  0  0  0  0  0  0
  -30.7310  -18.5260   21.3640 C   0  0  0  0  0  0  0  0  0  0  0  0
  -30.9160  -19.8060   21.9490 C   0  0  0  0  0  0  0  0  0  0  0  0
  -29.2080  -20.8070   20.4880 C   0  0  0  0  0  0  0  0  0  0  0  0
  -30.2520  -14.7770   19.7710 C   0  0  0  0  0  0  0  0  0  0  0  0
  -29.9070  -12.6460   18.5600 C   0  0  0  0  0  2  0  0  0  0  0  0
  -28.8050  -12.8390   17.4960 C   0  0  0  0  0  2  0  0  0  0  0  0
  -27.4060  -12.5980   18.1010 C   0  0  0  0  0  2  0  0  0  0  0  0
  -27.2010  -13.3470   19.4450 C   0  0  0  0  0  3  0  0  0  0  0  0
  -28.4030  -13.1150   20.3810 C   0  0  0  0  0  2  0  0  0  0  0  0
  -29.6160  -13.5660   19.6790 N   0  0  0  0  0  0  0  0  0  0  0  0
  -31.2980  -14.9770   19.1400 O   0  0  0  0  0  0  0  0  0  0  0  0
  -29.4650  -17.0130   19.6940 C   0  0  0  0  0  0  0  0  0  0  0  0
  -29.3150  -15.7750   21.8180 C   0  0  0  0  0  1  0  0  0  0  0  0
  -29.5980  -15.8250   20.3700 N   0  0  0  0  0  0  0  0  0  0  0  0
  -29.1580  -17.0510   18.4950 O   0  0  0  0  0  0  0  0  0  0  0  0
  -24.9070  -13.7830   20.5220 C   0  0  0  0  0  0  0  0  0  0  0  0
  -23.9360  -12.9360   20.9840 C   0  0  0  0  0  0  0  0  0  0  0  0
  -24.4450  -11.6140   20.7980 C   0  0  0  0  0  0  0  0  0  0  0  0
  -25.9420  -12.9720   20.0850 N   0  0  0  0  0  0  0  0  0  0  0  0
  -25.6780  -11.6590   20.3080 N   0  0  0  0  0  0  0  0  0  0  0  0
  -23.8070  -10.3070   21.0010 C   0  0  0  0  0  0  0  0  0  0  0  0
  -24.3240   -9.3670   21.9200 C   0  0  0  0  0  3  0  0  0  0  0  0
  -23.6820   -8.1240   22.1090 C   0  0  0  0  0  3  0  0  0  0  0  0
  -22.5090   -7.8130   21.3810 C   0  0  0  0  0  0  0  0  0  0  0  0
  -22.0120   -8.7430   20.4510 C   0  0  0  0  0  3  0  0  0  0  0  0
  -22.6560   -9.9770   20.2590 C   0  0  0  0  0  3  0  0  0  0  0  0
  -21.8330   -6.6210   21.4820 O   0  0  0  0  0  0  0  0  0  0  0  0
  -21.7640   -5.9300   22.6640 C   0  0  0  0  0  0  0  0  0  0  0  0
  -21.1890   -6.4920   23.8250 C   0  0  0  0  0  3  0  0  0  0  0  0
  -21.0770   -5.7210   24.9990 C   0  0  0  0  0  3  0  0  0  0  0  0
  -21.5290   -4.3880   25.0130 C   0  0  0  0  0  0  0  0  0  0  0  0
  -22.0980   -3.8250   23.8560 C   0  0  0  0  0  3  0  0  0  0  0  0
  -22.2110   -4.5940   22.6850 C   0  0  0  0  0  0  0  0  0  0  0  0
  -22.7390   -4.0400   21.5660 F   0  0  0  0  0  0  0  0  0  0  0  0
  -21.4160   -3.6430   26.1370 F   0  0  0  0  0  0  0  0  0  0  0  0
  -22.5730  -13.3230   21.4810 C   0  0  0  0  0  0  0  0  0  0  0  0
  -22.0120  -12.5470   22.4020 N   0  0  0  0  0  0  0  0  0  0  0  0
  -22.0180  -14.3480   21.0880 O   0  0  0  0  0  0  0  0  0  0  0  0
  -22.4770  -11.7180   22.7410 H   0  0  0  0  0  0  0  0  0  0  0  0
  -21.1030  -12.7850   22.7740 H   0  0  0  0  0  0  0  0  0  0  0  0
  -24.9860  -15.1690   20.4190 N   0  0  0  0  0  0  0  0  0  0  0  0
  -24.2110  -15.7720   20.6730 H   0  0  0  0  0  0  0  0  0  0  0  0
  -25.7580  -15.6690   19.9970 H   0  0  0  0  0  0  0  0  0  0  0  0
  -31.8930  -20.0130   22.9240 N   0  0  0  0  0  0  0  0  0  0  0  0
  -32.2890  -20.9410   23.0330 H   0  0  0  0  0  0  0  0  0  0  0  0
  -32.5780  -19.2730   23.0420 H   0  0  0  0  0  0  0  0  0  0  0  0
  -31.5690  -16.6700   22.8400 C   0  0  0  0  0  2  0  0  0  0  0  0
  -31.6450  -17.4130   21.7210 C   0  0  0  0  0  3  0  0  0  0  0  0
  -28.5210  -21.9050   19.9610 O   0  0  0  0  0  0  0  0  0  0  0  0
  -28.7930  -23.2260   20.4930 C   0  0  0  0  0  2  0  0  0  0  0  0
  -28.1620  -24.4160   19.7050 C   0  0  0  0  0  2  0  0  0  0  0  0
  -28.3010  -25.7850   20.4450 C   0  0  0  0  0  2  0  0  0  0  0  0
  -28.1960  -26.9680   19.6240 O   0  0  0  0  0  0  0  0  0  0  0  0
  -24.4870  -31.9660   23.1490 C   0  0  0  0  0  0  0  0  0  0  0  0
  -27.0330  -27.7010   19.7450 C   0  0  0  0  0  0  0  0  0  0  0  0
  -23.2280  -30.6430   21.4820 C   0  0  0  0  0  3  0  0  0  0  0  0
  -24.6360  -29.1930   19.9220 C   0  0  0  0  0  0  0  0  0  0  0  0
  -25.7420  -31.0320   21.2040 C   0  0  0  0  0  2  0  0  0  0  0  0
  -25.8130  -29.6950   20.4900 C   0  0  0  0  0  0  0  0  0  0  0  0
  -27.0190  -28.9600   20.3930 C   0  0  0  0  0  3  0  0  0  0  0  0
  -25.8410  -27.2110   19.1780 C   0  0  0  0  0  3  0  0  0  0  0  0
  -24.6440  -27.9500   19.2620 C   0  0  0  0  0  3  0  0  0  0  0  0
  -23.3880  -30.0380   20.0610 C   0  0  0  0  0  2  0  0  0  0  0  0
  -24.5070  -31.2250   22.0040 N   0  0  0  0  0  0  0  0  0  0  0  0
  -23.4260  -32.2000   23.7440 O   0  0  0  0  0  0  0  0  0  0  0  0
  -22.6220  -29.5660   22.4110 C   0  0  0  0  0  0  0  0  0  0  0  0
  -21.3010  -29.3530   22.2990 N   0  0  0  0  0  0  0  0  0  0  0  0
  -23.3370  -28.9280   23.1880 O   0  0  0  0  0  0  0  0  0  0  0  0
  -20.7830  -29.9220   21.6430 H   0  0  0  0  0  0  0  0  0  0  0  0
  -17.9670  -28.0560   22.8130 C   0  0  0  0  0  0  0  0  0  0  0  0
  -20.5240  -28.3620   23.0420 C   0  0  0  0  0  3  0  0  0  0  0  0
  -20.6460  -26.9620   22.3980 C   0  0  0  0  0  2  0  0  0  0  0  0
  -19.5300  -26.6600   21.3940 C   0  0  0  0  0  2  0  0  0  0  0  0
  -18.1590  -26.7440   22.0730 C   0  0  0  0  0  2  0  0  0  0  0  0
  -19.0770  -28.8240   23.2540 C   0  0  0  0  0  0  0  0  0  0  0  0
  -18.8440  -30.0540   23.9060 C   0  0  0  0  0  3  0  0  0  0  0  0
  -17.5330  -30.5180   24.1200 C   0  0  0  0  0  3  0  0  0  0  0  0
  -16.4370  -29.7470   23.6960 C   0  0  0  0  0  3  0  0  0  0  0  0
  -16.6550  -28.5180   23.0490 C   0  0  0  0  0  3  0  0  0  0  0  0
  -25.7930  -32.5740   23.7500 C   0  0  0  0  0  3  0  0  0  0  0  0
  -25.5010  -33.9640   24.1260 N   0  0  0  0  0  0  0  0  0  0  0  0
  -25.8160  -35.0340   23.3840 C   0  0  0  0  0  0  0  0  0  0  0  0
  -26.4550  -34.9540   22.3310 O   0  0  0  0  0  0  0  0  0  0  0  0
  -24.9290  -34.1010   24.9470 H   0  0  0  0  0  0  0  0  0  0  0  0
  -24.0820  -36.8360   23.1300 C   0  0  0  0  0  1  0  0  0  0  0  0
  -25.3480  -36.4120   23.8900 C   0  0  0  0  0  3  0  0  0  0  0  0
  -27.5080  -37.2770   24.6760 C   0  0  0  0  0  1  0  0  0  0  0  0
  -26.3800  -37.4640   23.7670 N   0  0  0  0  0  0  0  0  0  0  0  0
  -25.9800  -38.3820   23.9430 H   0  0  0  0  0  0  0  0  0  0  0  0
  -26.3420  -31.7650   24.9900 C   0  0  1  0  0  0  0  0  0  0  0  0
  -25.2670  -31.4700   26.0630 C   0  0  0  0  0  1  0  0  0  0  0  0
  -26.9400  -30.4140   24.5370 C   0  0  0  0  0  1  0  0  0  0  0  0
  -27.4900  -32.5530   25.6640 C   0  0  0  0  0  1  0  0  0  0  0  0
  1  3  2  0
  1  6  1  0
  2  5  1  0
  3  4  1  0
  4 51  1  0
  4  5  2  0
  5 47  1  0
  6  2  2  0
  7 17  1  0
  8 13  1  0
  9 10  1  0
  9  8  1  0
 11 10  1  0
 11 22  1  0
 11 12  1  0
 13  7  1  0
 13 12  1  0
 14  7  2  0
 15 17  1  0
 15  3  1  0
 17 16  1  0
 18 15  2  0
 19 20  2  0
 20 39  1  0
 21 20  1  0
 21 24  1  0
 22 23  1  0
 22 19  1  0
 23 21  2  0
 24 25  1  0
 25 26  2  0
 27 30  1  0
 27 26  1  0
 28 27  2  0
 29 28  1  0
 29 24  2  0
 30 31  1  0
 31 36  2  0
 31 32  1  0
 32 33  2  0
 33 34  1  0
 34 38  1  0
 35 34  2  0
 36 35  1  0
 37 36  1  0
 39 40  1  0
 40 42  1  0
 40 43  1  0
 41 39  2  0
 44 19  1  0
 44 45  1  0
 46 44  1  0
 47 48  1  0
 47 49  1  0
 51 50  2  0
 52  6  1  0
 52 53  1  0
 54 55  1  0
 54 53  1  0
 56 58  1  0
 56 55  1  0
 57 68  2  0
 58 63  1  0
 59 67  1  0
 59 69  1  0
 60 66  1  0
 60 62  1  0
 61 67  1  0
 62 61  1  0
 63 62  2  0
 64 65  1  0
 64 58  2  0
 65 60  2  0
 66 59  1  0
 67 57  1  0
 69 71  2  0
 70 69  1  0
 72 70  1  0
 73 82  2  0
 73 78  1  0
 74 70  1  0
 74 78  1  0
 75 74  1  0
 76 77  1  0
 76 75  1  0
 77 73  1  0
 78 79  2  0
 79 80  1  0
 81 80  2  0
 82 81  1  0
 83 57  1  0
 83 84  1  0
 83 93  1  0
 84 87  1  0
 85 89  1  0
 85 84  1  0
 86 85  2  0
 89 88  1  0
 91 89  1  0
 91 92  1  0
 91 90  1  0
 93 96  1  1
 93 94  1  0
 95 93  1  0
M  ISO  4   7 100  17 100  55 101  56 101
M  END
>  <TORSDO>  (44) 
F 22

>  <SCORE>  (44) 
-10.865

>  <name>  (44) 
44

>  <ligand_id>  (44) 
44

>  <original_smiles>  (44) 
[H]C([H])=C([H])c1c(C(=O)N(C(=O)N2C([H])([H])C([H])([H])C([H])([H])C([H])(n3nc(-c4c([H])c([H])c(Oc5c([H])c([H])c(F)c([H])c5F)c([H])c4[H])c(C(=O)N([H])[H])c3N([H])[H])C2([H])[H])C([H])([H])[H])c([H])c(OC([H])([H])C([H])([H])C([H])([H])Oc2c([H])c([H])c3c(c2[H])C([H])([H])N(C(=O)C([H])(N([H])C(=O)C([H])(N([H])C([H])([H])[H])C([H])([H])[H])C(C([H])([H])[H])(C([H])([H])[H])C([H])([H])[H])C([H])(C(=O)N([H])C2([H])c4c([H])c([H])c([H])c([H])c4C([H])([H])C([H])([H])C2([H])[H])C3([H])[H])c([H])c1N([H])[H]

>  <smiles>  (44) 
[H]C([H])=C([H])c1c(C(=O)N(C(=O)N2C([H])([H])C([H])([H])C([H])([H])C([H])(n3nc(-c4c([H])c([H])c(Oc5c([H])c([H])c(F)c([H])c5F)c([H])c4[H])c(C(=O)N([H])[H])c3N([H])[H])C2([H])[H])C([H])([H])[H])c([H])c(OC([H])([H])C([H])([H])C([H])([H])Oc2c([H])c([H])c3c(c2[H])C([H])([H])N(C(=O)C([H])(N([H])C(=O)C([H])(N([H])C([H])([H])[H])C([H])([H])[H])C(C([H])([H])[H])(C([H])([H])[H])C([H])([H])[H])C([H])(C(=O)N([H])C2([H])c4c([H])c([H])c([H])c([H])c4C([H])([H])C([H])([H])C2([H])[H])C3([H])[H])c([H])c1N([H])[H]

$$$$
45:0:0
     RDKit          3D

 97106  0  0  1  0  0  0  0  0999 V2000
  -28.7050  -19.5490   20.3200 C   0  0  0  0  0  3  0  0  0  0  0  0
  -30.9430  -19.7790   19.6310 C   0  0  0  0  0  3  0  0  0  0  0  0
  -28.8270  -18.1070   20.3500 C   0  0  0  0  0  0  0  0  0  0  0  0
  -29.7420  -20.4860   20.0030 C   0  0  0  0  0  0  0  0  0  0  0  0
  -30.0410  -17.4040   20.0240 C   0  0  0  0  0  0  0  0  0  0  0  0
  -31.0920  -18.3110   19.6250 C   0  0  0  0  0  0  0  0  0  0  0  0
  -30.8280  -14.7720   19.5850 C   0  0  0  0  0  0  0  0  0  0  0  0
  -30.5800  -12.4530   18.5920 C   0  0  0  0  0  2  0  0  0  0  0  0
  -29.5200  -12.4930   17.4650 C   0  0  0  0  0  2  0  0  0  0  0  0
  -28.0970  -12.3270   18.0350 C   0  0  0  0  0  2  0  0  0  0  0  0
  -27.8500  -13.2150   19.2830 C   0  0  0  0  0  3  0  0  0  0  0  0
  -29.0130  -13.1190   20.2940 C   0  0  0  0  0  2  0  0  0  0  0  0
  -30.2380  -13.5130   19.5800 N   0  0  0  0  0  0  0  0  0  0  0  0
  -31.9750  -14.8760   19.1350 O   0  0  0  0  0  0  0  0  0  0  0  0
  -30.0300  -15.8710   19.9750 N   0  0  0  0  0  0  0  0  0  0  0  0
  -29.1740  -15.5130   20.3690 H   0  0  0  0  0  0  0  0  0  0  0  0
  -25.5940  -13.8520   20.3170 C   0  0  0  0  0  0  0  0  0  0  0  0
  -24.5380  -13.1030   20.7590 C   0  0  0  0  0  0  0  0  0  0  0  0
  -24.9250  -11.7380   20.5930 C   0  0  0  0  0  0  0  0  0  0  0  0
  -26.5580  -12.9460   19.9070 N   0  0  0  0  0  0  0  0  0  0  0  0
  -26.1690  -11.6640   20.1360 N   0  0  0  0  0  0  0  0  0  0  0  0
  -24.1560  -10.5000   20.7870 C   0  0  0  0  0  0  0  0  0  0  0  0
  -24.5310   -9.5420   21.7540 C   0  0  0  0  0  3  0  0  0  0  0  0
  -23.7660   -8.3700   21.9360 C   0  0  0  0  0  3  0  0  0  0  0  0
  -22.6090   -8.1480   21.1500 C   0  0  0  0  0  0  0  0  0  0  0  0
  -22.2510   -9.0950   20.1740 C   0  0  0  0  0  3  0  0  0  0  0  0
  -23.0170  -10.2590   19.9920 C   0  0  0  0  0  3  0  0  0  0  0  0
  -21.8210   -7.0270   21.2390 O   0  0  0  0  0  0  0  0  0  0  0  0
  -21.5450   -6.4330   22.4440 C   0  0  0  0  0  0  0  0  0  0  0  0
  -20.9140   -7.1360   23.4950 C   0  0  0  0  0  3  0  0  0  0  0  0
  -20.5860   -6.4690   24.6910 C   0  0  0  0  0  3  0  0  0  0  0  0
  -20.8810   -5.1010   24.8380 C   0  0  0  0  0  0  0  0  0  0  0  0
  -21.5020   -4.3960   23.7920 C   0  0  0  0  0  3  0  0  0  0  0  0
  -21.8310   -5.0610   22.5980 C   0  0  0  0  0  0  0  0  0  0  0  0
  -22.4120   -4.3740   21.5850 F   0  0  0  0  0  0  0  0  0  0  0  0
  -20.5580   -4.4570   25.9840 F   0  0  0  0  0  0  0  0  0  0  0  0
  -23.2060  -13.6260   21.2140 C   0  0  0  0  0  0  0  0  0  0  0  0
  -22.5640  -12.9390   22.1530 N   0  0  0  0  0  0  0  0  0  0  0  0
  -22.7470  -14.6770   20.7710 O   0  0  0  0  0  0  0  0  0  0  0  0
  -22.9470  -12.0870   22.5360 H   0  0  0  0  0  0  0  0  0  0  0  0
  -21.6750  -13.2730   22.4960 H   0  0  0  0  0  0  0  0  0  0  0  0
  -25.8050  -15.2230   20.2050 N   0  0  0  0  0  0  0  0  0  0  0  0
  -25.0890  -15.8940   20.4590 H   0  0  0  0  0  0  0  0  0  0  0  0
  -26.6290  -15.6570   19.8090 H   0  0  0  0  0  0  0  0  0  0  0  0
  -30.0090  -22.4310   21.4500 C   0  0  0  0  0  0  0  0  0  0  0  0
  -30.7510  -23.7560   21.3550 C   0  0  0  0  0  2  0  0  0  0  0  0
  -30.8310  -23.9720   19.8500 C   0  0  0  0  0  2  0  0  0  0  0  0
  -29.5480  -23.2990   19.3680 C   0  0  0  0  0  3  0  0  0  0  0  0
  -29.5430  -21.9980   20.2530 N   0  0  0  0  0  0  0  0  0  0  0  0
  -29.8910  -21.8570   22.5370 O   0  0  0  0  0  0  0  0  0  0  0  0
  -28.3670  -24.4900   19.5400 C   0  0  0  0  0  2  0  0  0  0  0  0
  -28.5270  -26.0150   19.2880 O   0  0  0  0  0  0  0  0  0  0  0  0
  -24.6690  -31.2240   22.7850 C   0  0  0  0  0  0  0  0  0  0  0  0
  -27.4100  -26.9170   19.3460 C   0  0  0  0  0  0  0  0  0  0  0  0
  -23.5060  -29.9180   21.0490 C   0  0  0  0  0  3  0  0  0  0  0  0
  -25.0000  -28.5320   19.4870 C   0  0  0  0  0  0  0  0  0  0  0  0
  -26.0410  -30.3190   20.8720 C   0  0  0  0  0  2  0  0  0  0  0  0
  -26.1670  -28.9900   20.1120 C   0  0  0  0  0  0  0  0  0  0  0  0
  -27.3740  -28.2010   20.0220 C   0  0  0  0  0  3  0  0  0  0  0  0
  -26.2100  -26.5590   18.6940 C   0  0  0  0  0  3  0  0  0  0  0  0
  -25.0310  -27.3310   18.7640 C   0  0  0  0  0  3  0  0  0  0  0  0
  -23.7340  -29.3630   19.6180 C   0  0  0  0  0  2  0  0  0  0  0  0
  -24.7590  -30.5040   21.6260 N   0  0  0  0  0  0  0  0  0  0  0  0
  -23.5800  -31.4150   23.3480 O   0  0  0  0  0  0  0  0  0  0  0  0
  -22.8860  -28.8060   21.9300 C   0  0  0  0  0  0  0  0  0  0  0  0
  -21.5670  -28.5840   21.7990 N   0  0  0  0  0  0  0  0  0  0  0  0
  -23.5950  -28.1450   22.6940 O   0  0  0  0  0  0  0  0  0  0  0  0
  -21.0480  -29.1730   21.1620 H   0  0  0  0  0  0  0  0  0  0  0  0
  -18.2320  -27.2570   22.2990 C   0  0  0  0  0  0  0  0  0  0  0  0
  -20.7950  -27.5520   22.4970 C   0  0  0  0  0  3  0  0  0  0  0  0
  -20.9030  -26.1900   21.7730 C   0  0  0  0  0  2  0  0  0  0  0  0
  -19.7690  -25.9470   20.7710 C   0  0  0  0  0  2  0  0  0  0  0  0
  -18.4110  -25.9910   21.4770 C   0  0  0  0  0  2  0  0  0  0  0  0
  -19.3520  -27.9980   22.7650 C   0  0  0  0  0  0  0  0  0  0  0  0
  -19.1300  -29.1840   23.4960 C   0  0  0  0  0  3  0  0  0  0  0  0
  -17.8220  -29.6330   23.7630 C   0  0  0  0  0  3  0  0  0  0  0  0
  -16.7190  -28.8870   23.3120 C   0  0  0  0  0  3  0  0  0  0  0  0
  -16.9250  -27.7010   22.5870 C   0  0  0  0  0  3  0  0  0  0  0  0
  -25.9280  -31.8600   23.4500 C   0  0  0  0  0  3  0  0  0  0  0  0
  -25.5490  -33.1940   23.9420 N   0  0  0  0  0  0  0  0  0  0  0  0
  -25.7860  -34.3420   23.2940 C   0  0  0  0  0  0  0  0  0  0  0  0
  -26.4130  -34.3930   22.2330 O   0  0  0  0  0  0  0  0  0  0  0  0
  -24.9770  -33.2220   24.7730 H   0  0  0  0  0  0  0  0  0  0  0  0
  -23.9340  -36.0460   23.2220 C   0  0  0  0  0  1  0  0  0  0  0  0
  -25.2420  -35.6420   23.9220 C   0  0  0  0  0  3  0  0  0  0  0  0
  -27.3530  -36.5840   24.7470 C   0  0  0  0  0  1  0  0  0  0  0  0
  -26.2010  -36.7670   23.8700 N   0  0  0  0  0  0  0  0  0  0  0  0
  -25.7460  -37.6400   24.1240 H   0  0  0  0  0  0  0  0  0  0  0  0
  -26.5140  -30.9860   24.6260 C   0  0  1  0  0  0  0  0  0  0  0  0
  -25.4570  -30.5590   25.6720 C   0  0  0  0  0  1  0  0  0  0  0  0
  -27.1760  -29.7010   24.0760 C   0  0  0  0  0  1  0  0  0  0  0  0
  -27.6240  -31.7730   25.3620 C   0  0  0  0  0  1  0  0  0  0  0  0
  -26.4390  -17.3470   20.0790 C   0  0  0  0  0  2  0  0  0  0  0  0
  -27.6290  -17.3140   20.7060 C   0  0  0  0  0  3  0  0  0  0  0  0
  -32.2510  -17.6960   19.2070 O   0  0  0  0  0  0  0  0  0  0  0  0
  -34.0980  -17.4430   17.7100 C   0  0  0  0  0  1  0  0  0  0  0  0
  -33.1310  -18.4300   18.3660 C   0  0  0  0  0  2  0  0  0  0  0  0
  1  3  1  0
  2  4  1  0
  3 94  1  0
  4 49  1  0
  4  1  2  0
  5  3  2  0
  6  2  2  0
  6  5  1  0
  7 15  1  0
  8 13  1  0
  9 10  1  0
  9  8  1  0
 11 10  1  0
 11 20  1  0
 11 12  1  0
 13  7  1  0
 13 12  1  0
 14  7  2  0
 15  5  1  0
 15 16  1  0
 17 18  2  0
 18 37  1  0
 19 18  1  0
 19 22  1  0
 20 21  1  0
 20 17  1  0
 21 19  2  0
 22 23  1  0
 23 24  2  0
 25 28  1  0
 25 24  1  0
 26 25  2  0
 27 26  1  0
 27 22  2  0
 28 29  1  0
 29 34  2  0
 29 30  1  0
 30 31  2  0
 31 32  1  0
 32 36  1  0
 33 32  2  0
 34 33  1  0
 35 34  1  0
 37 38  1  0
 38 41  1  0
 38 40  1  0
 39 37  2  0
 42 17  1  0
 42 43  1  0
 44 42  1  0
 45 50  2  0
 46 45  1  0
 47 46  1  0
 48 51  1  0
 48 47  1  0
 48 49  1  0
 49 45  1  0
 52 54  1  0
 52 51  1  0
 53 64  2  0
 54 59  1  0
 55 63  1  0
 55 65  1  0
 56 62  1  0
 56 58  1  0
 57 63  1  0
 58 57  1  0
 59 58  2  0
 60 61  1  0
 60 54  2  0
 61 56  2  0
 62 55  1  0
 63 53  1  0
 65 67  2  0
 66 65  1  0
 68 66  1  0
 69 78  2  0
 69 74  1  0
 70 66  1  0
 70 74  1  0
 71 70  1  0
 72 73  1  0
 72 71  1  0
 73 69  1  0
 74 75  2  0
 75 76  1  0
 77 76  2  0
 78 77  1  0
 79 53  1  0
 79 80  1  0
 79 89  1  0
 80 83  1  0
 81 85  1  0
 81 80  1  0
 82 81  2  0
 85 84  1  0
 87 85  1  0
 87 88  1  0
 87 86  1  0
 89 92  1  1
 89 90  1  0
 91 89  1  0
 93 94  2  0
 95  6  1  0
 96 97  1  0
 97 95  1  0
M  ISO  4   7 100  15 100  51 101  52 101
M  END
>  <TORSDO>  (45) 
F 21

>  <SCORE>  (45) 
-11.340

>  <name>  (45) 
45

>  <ligand_id>  (45) 
45

>  <original_smiles>  (45) 
[H]C([H])=C([H])c1c([H])c(N2C(=O)C([H])([H])C([H])([H])C2([H])C([H])([H])Oc2c([H])c([H])c3c(c2[H])C([H])([H])N(C(=O)C([H])(N([H])C(=O)C([H])(N([H])C([H])([H])[H])C([H])([H])[H])C(C([H])([H])[H])(C([H])([H])[H])C([H])([H])[H])C([H])(C(=O)N([H])C2([H])c4c([H])c([H])c([H])c([H])c4C([H])([H])C([H])([H])C2([H])[H])C3([H])[H])c([H])c(OC([H])([H])C([H])([H])[H])c1N([H])C(=O)N1C([H])([H])C([H])([H])C([H])([H])C([H])(n2nc(-c3c([H])c([H])c(Oc4c([H])c([H])c(F)c([H])c4F)c([H])c3[H])c(C(=O)N([H])[H])c2N([H])[H])C1([H])[H]

>  <smiles>  (45) 
[H]C([H])=C([H])c1c([H])c(N2C(=O)C([H])([H])C([H])([H])C2([H])C([H])([H])Oc2c([H])c([H])c3c(c2[H])C([H])([H])N(C(=O)C([H])(N([H])C(=O)C([H])(N([H])C([H])([H])[H])C([H])([H])[H])C(C([H])([H])[H])(C([H])([H])[H])C([H])([H])[H])C([H])(C(=O)N([H])C2([H])c4c([H])c([H])c([H])c([H])c4C([H])([H])C([H])([H])C2([H])[H])C3([H])[H])c([H])c(OC([H])([H])C([H])([H])[H])c1N([H])C(=O)N1C([H])([H])C([H])([H])C([H])([H])C([H])(n2nc(-c3c([H])c([H])c(Oc4c([H])c([H])c(F)c([H])c4F)c([H])c3[H])c(C(=O)N([H])[H])c2N([H])[H])C1([H])[H]

$$$$
46:0:0
     RDKit          3D

 95103  0  0  1  0  0  0  0  0999 V2000
  -31.3190  -18.8250   19.3760 C   0  0  0  0  0  3  0  0  0  0  0  0
  -29.0720  -19.6820   19.4740 C   0  0  0  0  0  3  0  0  0  0  0  0
  -30.8660  -17.4480   19.6550 C   0  0  0  0  0  0  0  0  0  0  0  0
  -29.5280  -17.3700   20.1460 C   0  0  0  0  0  0  0  0  0  0  0  0
  -28.5840  -18.4110   19.8280 C   0  0  0  0  0  0  0  0  0  0  0  0
  -30.4350  -19.9890   19.3650 C   0  0  0  0  0  0  0  0  0  0  0  0
  -27.1980  -18.2800   19.9660 N   0  0  0  0  0  0  0  0  0  0  0  0
  -26.6330  -18.7420   19.2490 H   0  0  0  0  0  0  0  0  0  0  0  0
  -26.8040  -17.3610   20.1430 H   0  0  0  0  0  0  0  0  0  0  0  0
  -31.7820  -16.1690   19.8090 C   0  0  0  0  0  0  0  0  0  0  0  0
  -32.7910  -16.2960   20.5740 N   0  0  0  0  0  0  0  0  0  0  0  0
  -32.8150  -17.2190   20.9770 H   0  0  0  0  0  0  0  0  0  0  0  0
  -31.7060  -14.7780   18.9820 C   0  0  0  0  0  0  0  0  0  0  0  0
  -31.1770  -12.3560   18.5340 C   0  0  0  0  0  2  0  0  0  0  0  0
  -30.1260  -12.2050   17.4070 C   0  0  0  0  0  2  0  0  0  0  0  0
  -28.7320  -12.1170   18.0460 C   0  0  0  0  0  2  0  0  0  0  0  0
  -28.4960  -13.2900   19.0360 C   0  0  0  0  0  3  0  0  0  0  0  0
  -29.6910  -13.5300   20.0230 C   0  0  0  0  0  2  0  0  0  0  0  0
  -30.9460  -13.6490   19.2620 N   0  0  0  0  0  0  0  0  0  0  0  0
  -32.6020  -14.6620   18.1430 O   0  0  0  0  0  0  0  0  0  0  0  0
  -26.3680  -14.1200   20.2160 C   0  0  0  0  0  0  0  0  0  0  0  0
  -25.2650  -13.4730   20.7070 C   0  0  0  0  0  0  0  0  0  0  0  0
  -25.4960  -12.0810   20.4830 C   0  0  0  0  0  0  0  0  0  0  0  0
  -27.2160  -13.1350   19.7370 N   0  0  0  0  0  0  0  0  0  0  0  0
  -26.7060  -11.8960   19.9670 N   0  0  0  0  0  0  0  0  0  0  0  0
  -24.6170  -10.9200   20.7010 C   0  0  0  0  0  0  0  0  0  0  0  0
  -24.9930   -9.8630   21.5590 C   0  0  0  0  0  3  0  0  0  0  0  0
  -24.1270   -8.7690   21.7700 C   0  0  0  0  0  3  0  0  0  0  0  0
  -22.8660   -8.7240   21.1280 C   0  0  0  0  0  0  0  0  0  0  0  0
  -22.5030   -9.7710   20.2600 C   0  0  0  0  0  3  0  0  0  0  0  0
  -23.3700  -10.8580   20.0480 C   0  0  0  0  0  3  0  0  0  0  0  0
  -21.9710   -7.6910   21.2520 O   0  0  0  0  0  0  0  0  0  0  0  0
  -21.8040   -7.0190   22.4360 C   0  0  0  0  0  0  0  0  0  0  0  0
  -21.3820   -7.6800   23.6120 C   0  0  0  0  0  3  0  0  0  0  0  0
  -21.1630   -6.9420   24.7910 C   0  0  0  0  0  3  0  0  0  0  0  0
  -21.3490   -5.5480   24.7950 C   0  0  0  0  0  0  0  0  0  0  0  0
  -21.7590   -4.8890   23.6260 C   0  0  0  0  0  3  0  0  0  0  0  0
  -21.9840   -5.6200   22.4470 C   0  0  0  0  0  0  0  0  0  0  0  0
  -22.3630   -4.9800   21.3150 F   0  0  0  0  0  0  0  0  0  0  0  0
  -21.1240   -4.8360   25.9270 F   0  0  0  0  0  0  0  0  0  0  0  0
  -24.0170  -14.1170   21.2450 C   0  0  0  0  0  0  0  0  0  0  0  0
  -23.3730  -13.4820   22.2160 N   0  0  0  0  0  0  0  0  0  0  0  0
  -23.6450  -15.2180   20.8430 O   0  0  0  0  0  0  0  0  0  0  0  0
  -23.6990  -12.5920   22.5620 H   0  0  0  0  0  0  0  0  0  0  0  0
  -22.5350  -13.8860   22.6150 H   0  0  0  0  0  0  0  0  0  0  0  0
  -26.7060  -15.4650   20.1100 N   0  0  0  0  0  0  0  0  0  0  0  0
  -26.0580  -16.1900   20.4050 H   0  0  0  0  0  0  0  0  0  0  0  0
  -27.5520  -15.8280   19.6860 H   0  0  0  0  0  0  0  0  0  0  0  0
  -29.7970  -16.7440   22.4750 C   0  0  0  0  0  2  0  0  0  0  0  0
  -29.2230  -16.4270   21.2840 C   0  0  0  0  0  3  0  0  0  0  0  0
  -30.8120  -21.3820   19.2880 O   0  0  0  0  0  0  0  0  0  0  0  0
  -29.7770  -22.4810   19.4360 C   0  0  0  0  0  2  0  0  0  0  0  0
  -30.0270  -24.0750   19.5720 C   0  0  0  0  0  3  0  0  0  0  0  0
  -28.7280  -25.0370   19.5490 C   0  0  0  0  0  3  0  0  0  0  0  0
  -28.7500  -26.4700   20.0020 O   0  0  0  0  0  0  0  0  0  0  0  0
  -24.6290  -31.4120   23.3250 C   0  0  0  0  0  0  0  0  0  0  0  0
  -27.5740  -27.2560   19.9690 C   0  0  0  0  0  0  0  0  0  0  0  0
  -23.5500  -30.1380   21.5070 C   0  0  0  0  0  3  0  0  0  0  0  0
  -25.1240  -28.7650   20.0160 C   0  0  0  0  0  0  0  0  0  0  0  0
  -26.0810  -30.5720   21.4500 C   0  0  0  0  0  2  0  0  0  0  0  0
  -26.2470  -29.2500   20.6860 C   0  0  0  0  0  0  0  0  0  0  0  0
  -27.4690  -28.5070   20.6410 C   0  0  0  0  0  3  0  0  0  0  0  0
  -26.4130  -26.8250   19.2700 C   0  0  0  0  0  3  0  0  0  0  0  0
  -25.2030  -27.5510   19.3050 C   0  0  0  0  0  3  0  0  0  0  0  0
  -23.8640  -29.6030   20.0810 C   0  0  0  0  0  2  0  0  0  0  0  0
  -24.7700  -30.7170   22.1590 N   0  0  0  0  0  0  0  0  0  0  0  0
  -23.5180  -31.5900   23.8490 O   0  0  0  0  0  0  0  0  0  0  0  0
  -22.8910  -28.9990   22.3370 C   0  0  0  0  0  0  0  0  0  0  0  0
  -21.5930  -28.7670   22.1040 N   0  0  0  0  0  0  0  0  0  0  0  0
  -23.5550  -28.3460   23.1390 O   0  0  0  0  0  0  0  0  0  0  0  0
  -21.1490  -29.3170   21.3800 H   0  0  0  0  0  0  0  0  0  0  0  0
  -18.2510  -27.3660   22.4150 C   0  0  0  0  0  0  0  0  0  0  0  0
  -20.7790  -27.7430   22.7860 C   0  0  0  0  0  3  0  0  0  0  0  0
  -20.9810  -26.3550   22.1280 C   0  0  0  0  0  2  0  0  0  0  0  0
  -19.9380  -26.0680   21.0510 C   0  0  0  0  0  2  0  0  0  0  0  0
  -18.5300  -26.0760   21.6590 C   0  0  0  0  0  2  0  0  0  0  0  0
  -19.3110  -28.1550   22.9300 C   0  0  0  0  0  0  0  0  0  0  0  0
  -19.0010  -29.3610   23.6050 C   0  0  0  0  0  3  0  0  0  0  0  0
  -17.6590  -29.7640   23.7830 C   0  0  0  0  0  3  0  0  0  0  0  0
  -16.6130  -28.9870   23.2550 C   0  0  0  0  0  3  0  0  0  0  0  0
  -16.9160  -27.7850   22.5870 C   0  0  0  0  0  3  0  0  0  0  0  0
  -25.8540  -32.0490   24.0520 C   0  0  0  0  0  3  0  0  0  0  0  0
  -25.5860  -33.4870   24.2450 N   0  0  0  0  0  0  0  0  0  0  0  0
  -26.1090  -34.4590   23.4930 C   0  0  0  0  0  0  0  0  0  0  0  0
  -26.9330  -34.2440   22.6000 O   0  0  0  0  0  0  0  0  0  0  0  0
  -24.8610  -33.7270   24.9040 H   0  0  0  0  0  0  0  0  0  0  0  0
  -24.6270  -36.3320   22.7050 C   0  0  0  0  0  1  0  0  0  0  0  0
  -25.6440  -35.9040   23.7720 C   0  0  0  0  0  3  0  0  0  0  0  0
  -27.6280  -36.6990   24.9810 C   0  0  0  0  0  1  0  0  0  0  0  0
  -26.7550  -36.8760   23.8250 N   0  0  0  0  0  0  0  0  0  0  0  0
  -26.4020  -37.8290   23.8300 H   0  0  0  0  0  0  0  0  0  0  0  0
  -26.1760  -31.3620   25.4340 C   0  0  1  0  0  0  0  0  0  0  0  0
  -24.9630  -31.2760   26.3890 C   0  0  0  0  0  1  0  0  0  0  0  0
  -26.6880  -29.9190   25.2210 C   0  0  0  0  0  1  0  0  0  0  0  0
  -27.3040  -32.1270   26.1660 C   0  0  0  0  0  1  0  0  0  0  0  0
  1  3  1  0
  2  5  2  0
  3 10  1  0
  3  4  2  0
  4 50  1  0
  5  7  1  0
  5  4  1  0
  6  1  2  0
  6  2  1  0
  7  9  1  0
  8  7  1  0
 10 11  2  0
 11 12  1  0
 13 19  1  0
 13 10  1  0
 14 19  1  0
 15 16  1  0
 15 14  1  0
 17 16  1  0
 17 24  1  0
 17 18  1  0
 19 18  1  0
 20 13  2  0
 21 22  2  0
 22 41  1  0
 23 26  1  0
 23 22  1  0
 24 25  1  0
 24 21  1  0
 25 23  2  0
 26 27  1  0
 27 28  2  0
 29 32  1  0
 29 28  1  0
 30 29  2  0
 31 30  1  0
 31 26  2  0
 32 33  1  0
 33 38  2  0
 33 34  1  0
 34 35  2  0
 35 36  1  0
 36 40  1  0
 37 36  2  0
 38 37  1  0
 39 38  1  0
 41 42  1  0
 42 44  1  0
 42 45  1  0
 43 41  2  0
 46 21  1  0
 46 47  1  0
 48 46  1  0
 50 49  2  0
 51  6  1  0
 51 52  1  0
 52 53  1  0
 54 53  2  0
 54 55  1  0
 56 67  2  0
 57 55  1  0
 57 62  1  0
 58 66  1  0
 58 68  1  0
 59 65  1  0
 59 61  1  0
 60 66  1  0
 61 60  1  0
 62 61  2  0
 63 64  1  0
 63 57  2  0
 64 59  2  0
 65 58  1  0
 66 56  1  0
 68 70  2  0
 69 68  1  0
 71 69  1  0
 72 81  2  0
 72 77  1  0
 73 69  1  0
 73 77  1  0
 74 73  1  0
 75 76  1  0
 75 74  1  0
 76 72  1  0
 77 78  2  0
 78 79  1  0
 80 79  2  0
 81 80  1  0
 82 56  1  0
 82 83  1  0
 82 92  1  0
 83 86  1  0
 84 88  1  0
 84 83  1  0
 85 84  2  0
 88 87  1  0
 88 90  1  0
 90 91  1  0
 90 89  1  0
 92 95  1  1
 92 93  1  0
 94 92  1  0
M  ISO  4  10 100  13 100  54 101  55 101
M  END
>  <TORSDO>  (46) 
F 23

>  <SCORE>  (46) 
-10.162

>  <name>  (46) 
46

>  <ligand_id>  (46) 
46

>  <original_smiles>  (46) 
[H]N=C(C(=O)N1C([H])([H])C([H])([H])C([H])([H])C([H])(n2nc(-c3c([H])c([H])c(Oc4c([H])c([H])c(F)c([H])c4F)c([H])c3[H])c(C(=O)N([H])[H])c2N([H])[H])C1([H])[H])c1c([H])c(OC([H])([H])C([H])([H])C([H])([H])Oc2c([H])c([H])c3c(c2[H])C([H])([H])N(C(=O)C([H])(N([H])C(=O)C([H])(N([H])C([H])([H])[H])C([H])([H])[H])C(C([H])([H])[H])(C([H])([H])[H])C([H])([H])[H])C([H])(C(=O)N([H])C2([H])c4c([H])c([H])c([H])c([H])c4C([H])([H])C([H])([H])C2([H])[H])C3([H])[H])c([H])c(N([H])[H])c1C([H])=C([H])[H]

>  <smiles>  (46) 
[H]N=C(C(=O)N1C([H])([H])C([H])([H])C([H])([H])C([H])(n2nc(-c3c([H])c([H])c(Oc4c([H])c([H])c(F)c([H])c4F)c([H])c3[H])c(C(=O)N([H])[H])c2N([H])[H])C1([H])[H])c1c([H])c(OC([H])([H])C([H])([H])C([H])([H])Oc2c([H])c([H])c3c(c2[H])C([H])([H])N(C(=O)C([H])(N([H])C(=O)C([H])(N([H])C([H])([H])[H])C([H])([H])[H])C(C([H])([H])[H])(C([H])([H])[H])C([H])([H])[H])C([H])(C(=O)N([H])C2([H])c4c([H])c([H])c([H])c([H])c4C([H])([H])C([H])([H])C2([H])[H])C3([H])[H])c([H])c(N([H])[H])c1C([H])=C([H])[H]

$$$$
47:0:0
     RDKit          3D

 96105  0  0  1  0  0  0  0  0999 V2000
  -29.2580  -19.8880   21.5180 C   0  0  0  0  0  3  0  0  0  0  0  0
  -29.4330  -18.4550   21.4650 C   0  0  0  0  0  3  0  0  0  0  0  0
  -30.2240  -20.1040   19.3840 C   0  0  0  0  0  3  0  0  0  0  0  0
  -30.3990  -18.6450   19.3170 C   0  0  0  0  0  0  0  0  0  0  0  0
  -29.6550  -20.8210   20.5000 C   0  0  0  0  0  0  0  0  0  0  0  0
  -30.0320  -17.7390   20.3830 C   0  0  0  0  0  0  0  0  0  0  0  0
  -30.8110  -15.1080   20.0520 C   0  0  0  0  0  0  0  0  0  0  0  0
  -30.6660  -12.7830   19.0590 C   0  0  0  0  0  2  0  0  0  0  0  0
  -29.6740  -12.8140   17.8720 C   0  0  0  0  0  2  0  0  0  0  0  0
  -28.2320  -12.5840   18.3620 C   0  0  0  0  0  2  0  0  0  0  0  0
  -27.8820  -13.4620   19.5910 C   0  0  0  0  0  3  0  0  0  0  0  0
  -28.9900  -13.4170   20.6660 C   0  0  0  0  0  2  0  0  0  0  0  0
  -30.2420  -13.8370   20.0200 N   0  0  0  0  0  0  0  0  0  0  0  0
  -31.9800  -15.2330   19.6710 O   0  0  0  0  0  0  0  0  0  0  0  0
  -29.9800  -16.2090   20.3620 N   0  0  0  0  0  0  0  0  0  0  0  0
  -29.0960  -15.8670   20.7020 H   0  0  0  0  0  0  0  0  0  0  0  0
  -25.5410  -14.0180   20.4710 C   0  0  0  0  0  0  0  0  0  0  0  0
  -24.4940  -13.2310   20.8650 C   0  0  0  0  0  0  0  0  0  0  0  0
  -24.9500  -11.8810   20.7560 C   0  0  0  0  0  0  0  0  0  0  0  0
  -26.5670  -13.1480   20.1420 N   0  0  0  0  0  0  0  0  0  0  0  0
  -26.2240  -11.8540   20.3760 N   0  0  0  0  0  0  0  0  0  0  0  0
  -24.2270  -10.6150   20.9310 C   0  0  0  0  0  0  0  0  0  0  0  0
  -24.6260   -9.6630   21.8970 C   0  0  0  0  0  3  0  0  0  0  0  0
  -23.9010   -8.4620   22.0600 C   0  0  0  0  0  3  0  0  0  0  0  0
  -22.7670   -8.2020   21.2550 C   0  0  0  0  0  0  0  0  0  0  0  0
  -22.3860   -9.1420   20.2800 C   0  0  0  0  0  3  0  0  0  0  0  0
  -23.1110  -10.3340   20.1160 C   0  0  0  0  0  3  0  0  0  0  0  0
  -22.0180   -7.0510   21.3260 O   0  0  0  0  0  0  0  0  0  0  0  0
  -21.8100   -6.3980   22.5130 C   0  0  0  0  0  0  0  0  0  0  0  0
  -21.1900   -7.0310   23.6130 C   0  0  0  0  0  3  0  0  0  0  0  0
  -20.9350   -6.3030   24.7910 C   0  0  0  0  0  3  0  0  0  0  0  0
  -21.2880   -4.9430   24.8700 C   0  0  0  0  0  0  0  0  0  0  0  0
  -21.8970   -4.3070   23.7730 C   0  0  0  0  0  3  0  0  0  0  0  0
  -22.1550   -5.0340   22.5980 C   0  0  0  0  0  0  0  0  0  0  0  0
  -22.7250   -4.4140   21.5360 F   0  0  0  0  0  0  0  0  0  0  0  0
  -21.0330   -4.2390   25.9980 F   0  0  0  0  0  0  0  0  0  0  0  0
  -23.1130  -13.6990   21.2250 C   0  0  0  0  0  0  0  0  0  0  0  0
  -22.4320  -12.9750   22.1060 N   0  0  0  0  0  0  0  0  0  0  0  0
  -22.6510  -14.7390   20.7600 O   0  0  0  0  0  0  0  0  0  0  0  0
  -22.8170  -12.1340   22.5060 H   0  0  0  0  0  0  0  0  0  0  0  0
  -21.5070  -13.2700   22.3880 H   0  0  0  0  0  0  0  0  0  0  0  0
  -25.6990  -15.3950   20.3380 N   0  0  0  0  0  0  0  0  0  0  0  0
  -24.9290  -16.0370   20.4910 H   0  0  0  0  0  0  0  0  0  0  0  0
  -26.5130  -15.8470   19.9420 H   0  0  0  0  0  0  0  0  0  0  0  0
  -30.4580  -22.7890   21.6960 C   0  0  0  0  0  0  0  0  0  0  0  0
  -31.1490  -24.0900   21.3170 C   0  0  0  0  0  2  0  0  0  0  0  0
  -30.7250  -24.2640   19.8650 C   0  0  0  0  0  2  0  0  0  0  0  0
  -29.3360  -23.6240   19.8590 C   0  0  0  0  0  3  0  0  0  0  0  0
  -29.5960  -22.3470   20.7460 N   0  0  0  0  0  0  0  0  0  0  0  0
  -30.7100  -22.2410   22.7740 O   0  0  0  0  0  0  0  0  0  0  0  0
  -28.3150  -24.8730   20.3580 C   0  0  0  0  0  2  0  0  0  0  0  0
  -28.4400  -26.3780   19.9990 O   0  0  0  0  0  0  0  0  0  0  0  0
  -24.5360  -31.7880   23.1300 C   0  0  0  0  0  0  0  0  0  0  0  0
  -27.3190  -27.2770   20.0050 C   0  0  0  0  0  0  0  0  0  0  0  0
  -23.4000  -30.3930   21.4460 C   0  0  0  0  0  3  0  0  0  0  0  0
  -24.9170  -28.9070   19.9990 C   0  0  0  0  0  0  0  0  0  0  0  0
  -25.9410  -30.7630   21.3060 C   0  0  0  0  0  2  0  0  0  0  0  0
  -26.0740  -29.3920   20.6230 C   0  0  0  0  0  0  0  0  0  0  0  0
  -27.2760  -28.5970   20.6040 C   0  0  0  0  0  3  0  0  0  0  0  0
  -26.1330  -26.8810   19.3530 C   0  0  0  0  0  3  0  0  0  0  0  0
  -24.9560  -27.6620   19.3520 C   0  0  0  0  0  3  0  0  0  0  0  0
  -23.6550  -29.7540   20.0540 C   0  0  0  0  0  2  0  0  0  0  0  0
  -24.6450  -31.0020   22.0170 N   0  0  0  0  0  0  0  0  0  0  0  0
  -23.4350  -32.0190   23.6560 O   0  0  0  0  0  0  0  0  0  0  0  0
  -22.7510  -29.3370   22.3740 C   0  0  0  0  0  0  0  0  0  0  0  0
  -21.4330  -29.1170   22.2280 N   0  0  0  0  0  0  0  0  0  0  0  0
  -23.4400  -28.7180   23.1900 O   0  0  0  0  0  0  0  0  0  0  0  0
  -20.9300  -29.6710   21.5480 H   0  0  0  0  0  0  0  0  0  0  0  0
  -18.0880  -27.8130   22.7080 C   0  0  0  0  0  0  0  0  0  0  0  0
  -20.6420  -28.1290   22.9660 C   0  0  0  0  0  3  0  0  0  0  0  0
  -20.7760  -26.7220   22.3350 C   0  0  0  0  0  2  0  0  0  0  0  0
  -19.6730  -26.4130   21.3170 C   0  0  0  0  0  2  0  0  0  0  0  0
  -18.2930  -26.4990   21.9740 C   0  0  0  0  0  2  0  0  0  0  0  0
  -19.1910  -28.5870   23.1580 C   0  0  0  0  0  0  0  0  0  0  0  0
  -18.9440  -29.8190   23.8020 C   0  0  0  0  0  3  0  0  0  0  0  0
  -17.6290  -30.2790   23.9990 C   0  0  0  0  0  3  0  0  0  0  0  0
  -16.5410  -29.5030   23.5640 C   0  0  0  0  0  3  0  0  0  0  0  0
  -16.7710  -28.2720   22.9250 C   0  0  0  0  0  3  0  0  0  0  0  0
  -25.7850  -32.4530   23.7850 C   0  0  0  0  0  3  0  0  0  0  0  0
  -26.2900  -31.6900   25.0720 C   0  0  1  0  0  0  0  0  0  0  0  0
  -25.1730  -31.3830   26.0960 C   0  0  0  0  0  1  0  0  0  0  0  0
  -26.9590  -30.3480   24.6900 C   0  0  0  0  0  1  0  0  0  0  0  0
  -27.3770  -32.5310   25.7840 C   0  0  0  0  0  1  0  0  0  0  0  0
  -25.4300  -33.8420   24.1200 N   0  0  0  0  0  0  0  0  0  0  0  0
  -25.7600  -34.9130   23.3840 C   0  0  0  0  0  0  0  0  0  0  0  0
  -26.4610  -34.8360   22.3720 O   0  0  0  0  0  0  0  0  0  0  0  0
  -24.8090  -33.9760   24.9030 H   0  0  0  0  0  0  0  0  0  0  0  0
  -24.0110  -36.6810   22.9970 C   0  0  0  0  0  1  0  0  0  0  0  0
  -25.2320  -36.2860   23.8440 C   0  0  0  0  0  3  0  0  0  0  0  0
  -27.3150  -37.2060   24.7610 C   0  0  0  0  0  1  0  0  0  0  0  0
  -26.2460  -37.3600   23.7790 N   0  0  0  0  0  0  0  0  0  0  0  0
  -25.8170  -38.2720   23.9190 H   0  0  0  0  0  0  0  0  0  0  0  0
  -30.9480  -18.0510   18.0910 C   0  0  0  0  0  3  0  0  0  0  0  0
  -30.5580  -18.3230   16.8280 C   0  0  0  0  0  0  0  0  0  0  0  0
  -31.2280  -17.6740   15.6350 C   0  0  0  0  0  1  0  0  0  0  0  0
  -29.4290  -19.2740   16.4640 C   0  0  0  0  0  1  0  0  0  0  0  0
  2  1  1  0
  3  5  1  0
  4  3  2  0
  4  6  1  0
  5 49  1  0
  5  1  2  0
  6  2  2  0
  7 15  1  0
  8 13  1  0
  9 10  1  0
  9  8  1  0
 11 10  1  0
 11 20  1  0
 11 12  1  0
 13  7  1  0
 13 12  1  0
 14  7  2  0
 15  6  1  0
 15 16  1  0
 17 18  2  0
 18 37  1  0
 19 18  1  0
 19 22  1  0
 20 21  1  0
 20 17  1  0
 21 19  2  0
 22 23  1  0
 23 24  2  0
 25 28  1  0
 25 24  1  0
 26 25  2  0
 27 26  1  0
 27 22  2  0
 28 29  1  0
 29 34  2  0
 29 30  1  0
 30 31  2  0
 31 32  1  0
 32 36  1  0
 33 32  2  0
 34 33  1  0
 35 34  1  0
 37 38  1  0
 38 41  1  0
 38 40  1  0
 39 37  2  0
 42 17  1  0
 42 43  1  0
 44 42  1  0
 45 50  2  0
 46 45  1  0
 47 46  1  0
 48 47  1  0
 48 51  1  0
 48 49  1  0
 49 45  1  0
 52 54  1  0
 52 51  1  0
 53 64  2  0
 54 59  1  0
 55 63  1  0
 55 65  1  0
 56 62  1  0
 56 58  1  0
 57 63  1  0
 58 57  1  0
 59 58  2  0
 60 54  2  0
 61 60  1  0
 61 56  2  0
 62 55  1  0
 63 53  1  0
 65 67  2  0
 66 65  1  0
 68 66  1  0
 69 78  2  0
 69 74  1  0
 70 66  1  0
 70 74  1  0
 71 70  1  0
 72 73  1  0
 72 71  1  0
 73 69  1  0
 74 75  2  0
 75 76  1  0
 77 76  2  0
 78 77  1  0
 79 53  1  0
 79 84  1  0
 79 80  1  0
 80 83  1  1
 80 81  1  0
 82 80  1  0
 84 87  1  0
 85 89  1  0
 85 84  1  0
 86 85  2  0
 89 88  1  0
 91 89  1  0
 91 92  1  0
 91 90  1  0
 93  4  1  0
 94 93  2  0
 95 94  1  0
 96 94  1  0
M  ISO  4   7 100  15 100  51 101  52 101
M  END
>  <TORSDO>  (47) 
F 19

>  <SCORE>  (47) 
-13.107

>  <name>  (47) 
47

>  <ligand_id>  (47) 
47

>  <original_smiles>  (47) 
[H]C(=C(C([H])([H])[H])C([H])([H])[H])c1c([H])c(N2C(=O)C([H])([H])C([H])([H])C2([H])C([H])([H])Oc2c([H])c([H])c3c(c2[H])C([H])([H])N(C(=O)C([H])(N([H])C(=O)C([H])(N([H])C([H])([H])[H])C([H])([H])[H])C(C([H])([H])[H])(C([H])([H])[H])C([H])([H])[H])C([H])(C(=O)N([H])C2([H])c4c([H])c([H])c([H])c([H])c4C([H])([H])C([H])([H])C2([H])[H])C3([H])[H])c([H])c([H])c1N([H])C(=O)N1C([H])([H])C([H])([H])C([H])([H])C([H])(n2nc(-c3c([H])c([H])c(Oc4c([H])c([H])c(F)c([H])c4F)c([H])c3[H])c(C(=O)N([H])[H])c2N([H])[H])C1([H])[H]

>  <smiles>  (47) 
[H]C(=C(C([H])([H])[H])C([H])([H])[H])c1c([H])c(N2C(=O)C([H])([H])C([H])([H])C2([H])C([H])([H])Oc2c([H])c([H])c3c(c2[H])C([H])([H])N(C(=O)C([H])(N([H])C(=O)C([H])(N([H])C([H])([H])[H])C([H])([H])[H])C(C([H])([H])[H])(C([H])([H])[H])C([H])([H])[H])C([H])(C(=O)N([H])C2([H])c4c([H])c([H])c([H])c([H])c4C([H])([H])C([H])([H])C2([H])[H])C3([H])[H])c([H])c([H])c1N([H])C(=O)N1C([H])([H])C([H])([H])C([H])([H])C([H])(n2nc(-c3c([H])c([H])c(Oc4c([H])c([H])c(F)c([H])c4F)c([H])c3[H])c(C(=O)N([H])[H])c2N([H])[H])C1([H])[H]

$$$$
48:0:0
     RDKit          3D

 88 96  0  0  1  0  0  0  0  0999 V2000
  -28.7890  -19.6000   17.8070 C   0  0  0  0  0  3  0  0  0  0  0  0
  -28.6800  -20.8680   18.4540 C   0  0  0  0  0  3  0  0  0  0  0  0
  -29.2890  -18.3960   18.3900 C   0  0  0  0  0  3  0  0  0  0  0  0
  -29.5960  -19.7450   20.3620 C   0  0  0  0  0  3  0  0  0  0  0  0
  -29.0890  -21.1220   19.7830 C   0  0  0  0  0  0  0  0  0  0  0  0
  -29.7300  -18.3010   19.7290 C   0  0  0  0  0  0  0  0  0  0  0  0
  -30.7330  -15.4650   19.7150 C   0  0  0  0  0  0  0  0  0  0  0  0
  -30.6790  -12.9840   18.8220 C   0  0  0  0  0  2  0  0  0  0  0  0
  -29.6360  -12.6790   17.7120 C   0  0  0  0  0  2  0  0  0  0  0  0
  -28.2740  -12.3380   18.3320 C   0  0  0  0  0  2  0  0  0  0  0  0
  -27.9170  -13.3080   19.4840 C   0  0  0  0  0  3  0  0  0  0  0  0
  -29.0780  -13.5300   20.4800 C   0  0  0  0  0  2  0  0  0  0  0  0
  -30.1970  -14.1200   19.7180 N   0  0  0  0  0  0  0  0  0  0  0  0
  -31.8680  -15.4570   19.2070 O   0  0  0  0  0  0  0  0  0  0  0  0
  -30.1310  -16.7610   20.2590 N   0  0  0  0  0  0  0  0  0  0  0  0
  -25.6960  -13.8160   20.6170 C   0  0  0  0  0  0  0  0  0  0  0  0
  -24.6730  -13.0210   21.0490 C   0  0  0  0  0  0  0  0  0  0  0  0
  -25.0900  -11.6730   20.8180 C   0  0  0  0  0  0  0  0  0  0  0  0
  -26.6670  -12.9540   20.1420 N   0  0  0  0  0  0  0  0  0  0  0  0
  -26.3250  -11.6510   20.3270 N   0  0  0  0  0  0  0  0  0  0  0  0
  -24.3570  -10.4100   20.9820 C   0  0  0  0  0  0  0  0  0  0  0  0
  -24.7800   -9.4200   21.8990 C   0  0  0  0  0  3  0  0  0  0  0  0
  -24.0430   -8.2250   22.0520 C   0  0  0  0  0  3  0  0  0  0  0  0
  -22.8700   -8.0090   21.2910 C   0  0  0  0  0  0  0  0  0  0  0  0
  -22.4660   -8.9870   20.3640 C   0  0  0  0  0  3  0  0  0  0  0  0
  -23.2040  -10.1730   20.2070 C   0  0  0  0  0  3  0  0  0  0  0  0
  -22.1030   -6.8710   21.3590 O   0  0  0  0  0  0  0  0  0  0  0  0
  -21.8920   -6.2130   22.5440 C   0  0  0  0  0  0  0  0  0  0  0  0
  -21.2780   -6.8460   23.6470 C   0  0  0  0  0  3  0  0  0  0  0  0
  -21.0180   -6.1160   24.8230 C   0  0  0  0  0  3  0  0  0  0  0  0
  -21.3610   -4.7510   24.8960 C   0  0  0  0  0  0  0  0  0  0  0  0
  -21.9680   -4.1180   23.7970 C   0  0  0  0  0  3  0  0  0  0  0  0
  -22.2300   -4.8470   22.6230 C   0  0  0  0  0  0  0  0  0  0  0  0
  -22.7960   -4.2280   21.5590 F   0  0  0  0  0  0  0  0  0  0  0  0
  -21.1050   -4.0460   26.0220 F   0  0  0  0  0  0  0  0  0  0  0  0
  -23.3400  -13.4900   21.5560 C   0  0  0  0  0  0  0  0  0  0  0  0
  -22.7290  -12.7360   22.4630 N   0  0  0  0  0  0  0  0  0  0  0  0
  -22.8570  -14.5570   21.1840 O   0  0  0  0  0  0  0  0  0  0  0  0
  -23.1330  -11.8660   22.7800 H   0  0  0  0  0  0  0  0  0  0  0  0
  -21.8400  -13.0280   22.8430 H   0  0  0  0  0  0  0  0  0  0  0  0
  -25.8780  -15.1930   20.5580 N   0  0  0  0  0  0  0  0  0  0  0  0
  -25.1740  -15.8560   20.8590 H   0  0  0  0  0  0  0  0  0  0  0  0
  -26.7210  -15.6400   20.2140 H   0  0  0  0  0  0  0  0  0  0  0  0
  -29.4580  -17.4790   22.5150 C   0  0  0  0  0  2  0  0  0  0  0  0
  -30.1350  -16.6860   21.6650 C   0  0  0  0  0  3  0  0  0  0  0  0
  -28.9380  -22.8060   20.2730 C   0  0  0  0  0  3  0  0  0  0  0  0
  -28.2740  -24.1030   19.8760 C   0  0  0  0  0  3  0  0  0  0  0  0
  -28.3380  -25.6280   20.2640 O   0  0  0  0  0  0  0  0  0  0  0  0
  -24.7530  -31.6840   23.2250 C   0  0  0  0  0  0  0  0  0  0  0  0
  -27.3510  -26.7830   20.1510 C   0  0  0  0  0  0  0  0  0  0  0  0
  -23.5900  -30.3260   21.5330 C   0  0  0  0  0  3  0  0  0  0  0  0
  -25.0640  -28.7360   20.0970 C   0  0  0  0  0  0  0  0  0  0  0  0
  -26.1620  -30.5080   21.4460 C   0  0  0  0  0  2  0  0  0  0  0  0
  -26.2420  -29.1030   20.7590 C   0  0  0  0  0  0  0  0  0  0  0  0
  -27.3710  -28.1480   20.7640 C   0  0  0  0  0  3  0  0  0  0  0  0
  -26.1480  -26.6010   19.4270 C   0  0  0  0  0  3  0  0  0  0  0  0
  -25.0490  -27.5080   19.4120 C   0  0  0  0  0  3  0  0  0  0  0  0
  -23.8480  -29.6680   20.1470 C   0  0  0  0  0  2  0  0  0  0  0  0
  -24.8570  -30.8690   22.1230 N   0  0  0  0  0  0  0  0  0  0  0  0
  -23.6530  -31.9640   23.7310 O   0  0  0  0  0  0  0  0  0  0  0  0
  -22.8710  -29.3170   22.4670 C   0  0  0  0  0  0  0  0  0  0  0  0
  -21.5410  -29.1620   22.3200 N   0  0  0  0  0  0  0  0  0  0  0  0
  -23.5180  -28.6720   23.2960 O   0  0  0  0  0  0  0  0  0  0  0  0
  -21.0680  -29.7370   21.6350 H   0  0  0  0  0  0  0  0  0  0  0  0
  -18.1440  -27.9630   22.7770 C   0  0  0  0  0  0  0  0  0  0  0  0
  -20.7050  -28.2050   23.0550 C   0  0  0  0  0  3  0  0  0  0  0  0
  -20.7960  -26.7910   22.4350 C   0  0  0  0  0  2  0  0  0  0  0  0
  -19.6970  -26.5120   21.4040 C   0  0  0  0  0  2  0  0  0  0  0  0
  -18.3150  -26.6400   22.0490 C   0  0  0  0  0  2  0  0  0  0  0  0
  -19.2650  -28.7060   23.2350 C   0  0  0  0  0  0  0  0  0  0  0  0
  -19.0490  -29.9430   23.8790 C   0  0  0  0  0  3  0  0  0  0  0  0
  -17.7460  -30.4390   24.0670 C   0  0  0  0  0  3  0  0  0  0  0  0
  -16.6380  -29.6960   23.6230 C   0  0  0  0  0  3  0  0  0  0  0  0
  -16.8400  -28.4600   22.9840 C   0  0  0  0  0  3  0  0  0  0  0  0
  -26.0090  -32.3170   23.8980 C   0  0  0  0  0  3  0  0  0  0  0  0
  -25.6970  -33.7220   24.2210 N   0  0  0  0  0  0  0  0  0  0  0  0
  -26.0460  -34.7790   23.4750 C   0  0  0  0  0  0  0  0  0  0  0  0
  -26.7240  -34.6730   22.4500 O   0  0  0  0  0  0  0  0  0  0  0  0
  -25.0940  -33.8770   25.0160 H   0  0  0  0  0  0  0  0  0  0  0  0
  -24.3360  -36.5960   23.1270 C   0  0  0  0  0  1  0  0  0  0  0  0
  -25.5710  -36.1730   23.9370 C   0  0  0  0  0  3  0  0  0  0  0  0
  -27.7090  -37.0450   24.7760 C   0  0  0  0  0  1  0  0  0  0  0  0
  -26.6130  -37.2180   23.8270 N   0  0  0  0  0  0  0  0  0  0  0  0
  -26.2130  -38.1420   23.9700 H   0  0  0  0  0  0  0  0  0  0  0  0
  -26.4610  -31.5540   25.2050 C   0  0  1  0  0  0  0  0  0  0  0  0
  -25.3240  -31.3420   26.2330 C   0  0  0  0  0  1  0  0  0  0  0  0
  -27.0410  -30.1640   24.8610 C   0  0  0  0  0  1  0  0  0  0  0  0
  -27.5940  -32.3400   25.9050 C   0  0  0  0  0  1  0  0  0  0  0  0
  1  3  2  0
  1  2  1  0
  2  5  2  0
  3  6  1  0
  5 46  1  0
  5  4  1  0
  6 15  1  0
  6  4  2  0
  7 13  1  0
  7 15  1  0
  8 13  1  0
  9 10  1  0
  9  8  1  0
 11 10  1  0
 11 19  1  0
 11 12  1  0
 13 12  1  0
 14  7  2  0
 15 45  1  0
 16 17  2  0
 17 36  1  0
 18 21  1  0
 18 17  1  0
 19 20  1  0
 19 16  1  0
 20 18  2  0
 21 22  1  0
 22 23  2  0
 24 27  1  0
 24 23  1  0
 25 24  2  0
 26 25  1  0
 26 21  2  0
 27 28  1  0
 28 33  2  0
 28 29  1  0
 29 30  2  0
 30 31  1  0
 31 35  1  0
 32 31  2  0
 33 32  1  0
 34 33  1  0
 36 37  1  0
 37 39  1  0
 37 40  1  0
 38 36  2  0
 41 16  1  0
 41 42  1  0
 43 41  1  0
 45 44  2  0
 47 48  1  0
 47 46  2  0
 49 60  2  0
 50 48  1  0
 50 55  1  0
 51 59  1  0
 51 61  1  0
 52 58  1  0
 52 54  1  0
 53 59  1  0
 54 55  2  0
 54 53  1  0
 56 50  2  0
 57 56  1  0
 57 52  2  0
 58 51  1  0
 59 49  1  0
 61 63  2  0
 62 61  1  0
 64 62  1  0
 65 74  2  0
 65 70  1  0
 66 62  1  0
 66 70  1  0
 67 66  1  0
 68 69  1  0
 68 67  1  0
 69 65  1  0
 70 71  2  0
 71 72  1  0
 73 72  2  0
 74 73  1  0
 75 49  1  0
 75 76  1  0
 75 85  1  0
 76 79  1  0
 77 81  1  0
 77 76  1  0
 78 77  2  0
 81 80  1  0
 83 81  1  0
 83 84  1  0
 83 82  1  0
 85 88  1  1
 85 86  1  0
 87 85  1  0
M  ISO  4   7 100  15 100  47 101  48 101
M  END
>  <TORSDO>  (48) 
F 18

>  <SCORE>  (48) 
-12.689

>  <name>  (48) 
48

>  <ligand_id>  (48) 
48

>  <original_smiles>  (48) 
[H]C([H])=C([H])N(C(=O)N1C([H])([H])C([H])([H])C([H])([H])C([H])(n2nc(-c3c([H])c([H])c(Oc4c([H])c([H])c(F)c([H])c4F)c([H])c3[H])c(C(=O)N([H])[H])c2N([H])[H])C1([H])[H])c1c([H])c([H])c([H])c(C([H])=C([H])Oc2c([H])c([H])c3c(c2[H])C([H])([H])N(C(=O)C([H])(N([H])C(=O)C([H])(N([H])C([H])([H])[H])C([H])([H])[H])C(C([H])([H])[H])(C([H])([H])[H])C([H])([H])[H])C([H])(C(=O)N([H])C2([H])c4c([H])c([H])c([H])c([H])c4C([H])([H])C([H])([H])C2([H])[H])C3([H])[H])c1[H]

>  <smiles>  (48) 
[H]C([H])=C([H])N(C(=O)N1C([H])([H])C([H])([H])C([H])([H])C([H])(n2nc(-c3c([H])c([H])c(Oc4c([H])c([H])c(F)c([H])c4F)c([H])c3[H])c(C(=O)N([H])[H])c2N([H])[H])C1([H])[H])c1c([H])c([H])c([H])c(C([H])=C([H])Oc2c([H])c([H])c3c(c2[H])C([H])([H])N(C(=O)C([H])(N([H])C(=O)C([H])(N([H])C([H])([H])[H])C([H])([H])[H])C(C([H])([H])[H])(C([H])([H])[H])C([H])([H])[H])C([H])(C(=O)N([H])C2([H])c4c([H])c([H])c([H])c([H])c4C([H])([H])C([H])([H])C2([H])[H])C3([H])[H])c1[H]

$$$$
49:0:0
     RDKit          3D

 95103  0  0  1  0  0  0  0  0999 V2000
  -29.3340  -18.9680   19.9670 C   0  0  0  0  0  3  0  0  0  0  0  0
  -30.6870  -18.6190   20.1750 C   0  0  0  0  0  0  0  0  0  0  0  0
  -31.1230  -21.0870   20.4830 C   0  0  0  0  0  0  0  0  0  0  0  0
  -28.8720  -20.3250   20.0040 C   0  0  0  0  0  0  0  0  0  0  0  0
  -31.5730  -19.7230   20.4020 C   0  0  0  0  0  0  0  0  0  0  0  0
  -29.7470  -21.4230   20.2710 C   0  0  0  0  0  0  0  0  0  0  0  0
  -32.1520  -22.1630   20.8100 C   0  0  0  0  0  1  0  0  0  0  0  0
  -26.8030  -19.9240   18.8300 C   0  0  0  0  0  1  0  0  0  0  0  0
  -27.5490  -20.6590   19.7920 O   0  0  0  0  0  0  0  0  0  0  0  0
  -31.2040  -17.1650   20.1830 C   0  0  0  0  0  3  0  0  0  0  0  0
  -30.6390  -16.0090   20.4360 N   0  0  0  0  0  0  0  0  0  0  0  0
  -31.4540  -14.8400   20.2980 C   0  0  0  0  0  0  0  0  0  0  0  0
  -31.2880  -12.4730   19.5600 C   0  0  0  0  0  2  0  0  0  0  0  0
  -30.3810  -12.4180   18.3130 C   0  0  0  0  0  2  0  0  0  0  0  0
  -28.9070  -12.2540   18.7290 C   0  0  0  0  0  2  0  0  0  0  0  0
  -28.4860  -13.2560   19.8390 C   0  0  0  0  0  3  0  0  0  0  0  0
  -29.5250  -13.3280   20.9780 C   0  0  0  0  0  2  0  0  0  0  0  0
  -30.8370  -13.6150   20.3850 N   0  0  0  0  0  0  0  0  0  0  0  0
  -32.6370  -14.8650   19.9480 O   0  0  0  0  0  0  0  0  0  0  0  0
  -26.1340  -13.8590   20.6680 C   0  0  0  0  0  0  0  0  0  0  0  0
  -25.0550  -13.0890   21.0110 C   0  0  0  0  0  0  0  0  0  0  0  0
  -25.4780  -11.7310   20.8730 C   0  0  0  0  0  0  0  0  0  0  0  0
  -27.1460  -12.9700   20.3430 N   0  0  0  0  0  0  0  0  0  0  0  0
  -26.7590  -11.6800   20.5290 N   0  0  0  0  0  0  0  0  0  0  0  0
  -24.7190  -10.4780   20.9930 C   0  0  0  0  0  0  0  0  0  0  0  0
  -25.0720   -9.4880   21.9360 C   0  0  0  0  0  3  0  0  0  0  0  0
  -24.3150   -8.3010   22.0460 C   0  0  0  0  0  3  0  0  0  0  0  0
  -23.1910   -8.0970   21.2110 C   0  0  0  0  0  0  0  0  0  0  0  0
  -22.8580   -9.0760   20.2580 C   0  0  0  0  0  3  0  0  0  0  0  0
  -23.6140  -10.2540   20.1470 C   0  0  0  0  0  3  0  0  0  0  0  0
  -22.4130   -6.9640   21.2290 O   0  0  0  0  0  0  0  0  0  0  0  0
  -22.1250   -6.3070   22.3980 C   0  0  0  0  0  0  0  0  0  0  0  0
  -21.4370   -6.9360   23.4580 C   0  0  0  0  0  3  0  0  0  0  0  0
  -21.1000   -6.2020   24.6140 C   0  0  0  0  0  3  0  0  0  0  0  0
  -21.4430   -4.8400   24.7080 C   0  0  0  0  0  0  0  0  0  0  0  0
  -22.1240   -4.2110   23.6510 C   0  0  0  0  0  3  0  0  0  0  0  0
  -22.4610   -4.9420   22.4980 C   0  0  0  0  0  0  0  0  0  0  0  0
  -23.0980   -4.3240   21.4750 F   0  0  0  0  0  0  0  0  0  0  0  0
  -21.1140   -4.1340   25.8150 F   0  0  0  0  0  0  0  0  0  0  0  0
  -23.6800  -13.5840   21.3520 C   0  0  0  0  0  0  0  0  0  0  0  0
  -22.9600  -12.8580   22.2010 N   0  0  0  0  0  0  0  0  0  0  0  0
  -23.2530  -14.6470   20.9030 O   0  0  0  0  0  0  0  0  0  0  0  0
  -23.3190  -11.9960   22.5840 H   0  0  0  0  0  0  0  0  0  0  0  0
  -22.0380  -13.1680   22.4720 H   0  0  0  0  0  0  0  0  0  0  0  0
  -26.3340  -15.2330   20.5820 N   0  0  0  0  0  0  0  0  0  0  0  0
  -25.5930  -15.9040   20.7510 H   0  0  0  0  0  0  0  0  0  0  0  0
  -27.2030  -15.6610   20.2860 H   0  0  0  0  0  0  0  0  0  0  0  0
  -32.9150  -19.4740   20.5800 O   0  0  0  0  0  0  0  0  0  0  0  0
  -33.6300  -19.1540   19.3880 C   0  0  0  0  0  2  0  0  0  0  0  0
  -34.4760  -20.9730   17.8510 C   0  0  0  0  0  2  0  0  0  0  0  0
  -34.5640  -20.2770   18.9950 C   0  0  0  0  0  3  0  0  0  0  0  0
  -29.1300  -22.7040   20.2940 O   0  0  0  0  0  0  0  0  0  0  0  0
  -29.7540  -24.0290   20.1420 C   0  0  0  0  0  2  0  0  0  0  0  0
  -28.7560  -25.2230   20.4660 C   0  0  0  0  0  2  0  0  0  0  0  0
  -29.0230  -26.6130   20.0080 O   0  0  0  0  0  0  0  0  0  0  0  0
  -25.0290  -31.4600   23.5660 C   0  0  0  0  0  0  0  0  0  0  0  0
  -27.9270  -27.4870   20.0140 C   0  0  0  0  0  0  0  0  0  0  0  0
  -23.9850  -30.3770   21.6080 C   0  0  0  0  0  3  0  0  0  0  0  0
  -25.5680  -29.0950   20.0650 C   0  0  0  0  0  0  0  0  0  0  0  0
  -26.5270  -30.7080   21.7060 C   0  0  0  0  0  2  0  0  0  0  0  0
  -26.6760  -29.4620   20.8430 C   0  0  0  0  0  0  0  0  0  0  0  0
  -27.8610  -28.6690   20.8110 C   0  0  0  0  0  3  0  0  0  0  0  0
  -26.8110  -27.1930   19.1980 C   0  0  0  0  0  3  0  0  0  0  0  0
  -25.6400  -27.9690   19.2330 C   0  0  0  0  0  3  0  0  0  0  0  0
  -24.3240  -29.9540   20.1560 C   0  0  0  0  0  2  0  0  0  0  0  0
  -25.1950  -30.8540   22.3540 N   0  0  0  0  0  0  0  0  0  0  0  0
  -23.9000  -31.6480   24.0430 O   0  0  0  0  0  0  0  0  0  0  0  0
  -23.2500  -29.2120   22.3140 C   0  0  0  0  0  0  0  0  0  0  0  0
  -21.9360  -29.0860   22.0620 N   0  0  0  0  0  0  0  0  0  0  0  0
  -23.8650  -28.4330   23.0460 O   0  0  0  0  0  0  0  0  0  0  0  0
  -21.5030  -29.7690   21.4560 H   0  0  0  0  0  0  0  0  0  0  0  0
  -18.4950  -27.9880   22.2420 C   0  0  0  0  0  0  0  0  0  0  0  0
  -21.0570  -28.0410   22.5880 C   0  0  0  0  0  3  0  0  0  0  0  0
  -21.0990  -26.7780   21.6960 C   0  0  0  0  0  2  0  0  0  0  0  0
  -20.0040  -26.7590   20.6250 C   0  0  0  0  0  2  0  0  0  0  0  0
  -18.6170  -26.8250   21.2720 C   0  0  0  0  0  2  0  0  0  0  0  0
  -19.6410  -28.5680   22.8470 C   0  0  0  0  0  0  0  0  0  0  0  0
  -19.4730  -29.6690   23.7160 C   0  0  0  0  0  3  0  0  0  0  0  0
  -18.1910  -30.1880   23.9830 C   0  0  0  0  0  3  0  0  0  0  0  0
  -17.0590  -29.5990   23.3930 C   0  0  0  0  0  3  0  0  0  0  0  0
  -17.2110  -28.5000   22.5290 C   0  0  0  0  0  3  0  0  0  0  0  0
  -26.2480  -31.9640   24.3980 C   0  0  0  0  0  3  0  0  0  0  0  0
  -25.9590  -33.3430   24.8180 N   0  0  0  0  0  0  0  0  0  0  0  0
  -26.3900  -34.4390   24.1810 C   0  0  0  0  0  0  0  0  0  0  0  0
  -27.1430  -34.3920   23.2050 O   0  0  0  0  0  0  0  0  0  0  0  0
  -25.3020  -33.4550   25.5770 H   0  0  0  0  0  0  0  0  0  0  0  0
  -24.7450  -36.3130   23.8520 C   0  0  0  0  0  1  0  0  0  0  0  0
  -25.9140  -35.8050   24.7120 C   0  0  0  0  0  3  0  0  0  0  0  0
  -27.9940  -36.5620   25.7720 C   0  0  0  0  0  1  0  0  0  0  0  0
  -26.9820  -36.8270   24.7530 N   0  0  0  0  0  0  0  0  0  0  0  0
  -26.5920  -37.7490   24.9250 H   0  0  0  0  0  0  0  0  0  0  0  0
  -26.5620  -31.0550   25.6500 C   0  0  1  0  0  0  0  0  0  0  0  0
  -25.3310  -30.7840   26.5460 C   0  0  0  0  0  1  0  0  0  0  0  0
  -27.1300  -29.6880   25.2030 C   0  0  0  0  0  1  0  0  0  0  0  0
  -27.6530  -31.7230   26.5200 C   0  0  0  0  0  1  0  0  0  0  0  0
  1  4  2  0
  1  2  1  0
  2 10  1  0
  2  5  2  0
  3  7  1  0
  4  6  1  0
  5  3  1  0
  5 48  1  0
  6 52  1  0
  6  3  2  0
  8  9  1  0
  9  4  1  0
 10 11  2  0
 12 18  1  0
 12 11  1  0
 13 18  1  0
 14 15  1  0
 14 13  1  0
 16 15  1  0
 16 23  1  0
 16 17  1  0
 18 17  1  0
 19 12  2  0
 20 21  2  0
 21 40  1  0
 22 25  1  0
 22 21  1  0
 23 24  1  0
 23 20  1  0
 24 22  2  0
 25 26  1  0
 26 27  2  0
 28 31  1  0
 28 27  1  0
 29 28  2  0
 30 29  1  0
 30 25  2  0
 31 32  1  0
 32 37  2  0
 32 33  1  0
 33 34  2  0
 34 35  1  0
 35 39  1  0
 36 35  2  0
 37 36  1  0
 38 37  1  0
 40 41  1  0
 41 44  1  0
 41 43  1  0
 42 40  2  0
 45 20  1  0
 45 46  1  0
 47 45  1  0
 49 48  1  0
 50 51  2  0
 51 49  1  0
 53 52  1  0
 53 54  1  0
 55 57  1  0
 55 54  1  0
 56 67  2  0
 57 62  1  0
 58 68  1  0
 58 66  1  0
 59 65  1  0
 59 61  1  0
 60 66  1  0
 61 60  1  0
 62 61  2  0
 63 64  1  0
 63 57  2  0
 64 59  2  0
 65 58  1  0
 66 56  1  0
 68 70  2  0
 69 68  1  0
 71 69  1  0
 72 81  2  0
 72 77  1  0
 73 69  1  0
 73 77  1  0
 74 73  1  0
 75 76  1  0
 75 74  1  0
 76 72  1  0
 77 78  2  0
 78 79  1  0
 80 79  2  0
 81 80  1  0
 82 56  1  0
 82 83  1  0
 82 92  1  0
 83 86  1  0
 84 88  1  0
 84 83  1  0
 85 84  2  0
 88 87  1  0
 88 90  1  0
 90 91  1  0
 90 89  1  0
 92 95  1  1
 92 93  1  0
 94 92  1  0
M  ISO  4  11 100  12 100  54 101  55 101
M  END
>  <TORSDO>  (49) 
F 24

>  <SCORE>  (49) 
-10.139

>  <name>  (49) 
49

>  <ligand_id>  (49) 
49

>  <original_smiles>  (49) 
[H]C(=NC(=O)N1C([H])([H])C([H])([H])C([H])([H])C([H])(n2nc(-c3c([H])c([H])c(Oc4c([H])c([H])c(F)c([H])c4F)c([H])c3[H])c(C(=O)N([H])[H])c2N([H])[H])C1([H])[H])c1c([H])c(OC([H])([H])[H])c(OC([H])([H])C([H])([H])Oc2c([H])c([H])c3c(c2[H])C([H])([H])N(C(=O)C([H])(N([H])C(=O)C([H])(N([H])C([H])([H])[H])C([H])([H])[H])C(C([H])([H])[H])(C([H])([H])[H])C([H])([H])[H])C([H])(C(=O)N([H])C2([H])c4c([H])c([H])c([H])c([H])c4C([H])([H])C([H])([H])C2([H])[H])C3([H])[H])c(C([H])([H])[H])c1OC([H])([H])C([H])=C([H])[H]

>  <smiles>  (49) 
[H]C(=NC(=O)N1C([H])([H])C([H])([H])C([H])([H])C([H])(n2nc(-c3c([H])c([H])c(Oc4c([H])c([H])c(F)c([H])c4F)c([H])c3[H])c(C(=O)N([H])[H])c2N([H])[H])C1([H])[H])c1c([H])c(OC([H])([H])[H])c(OC([H])([H])C([H])([H])Oc2c([H])c([H])c3c(c2[H])C([H])([H])N(C(=O)C([H])(N([H])C(=O)C([H])(N([H])C([H])([H])[H])C([H])([H])[H])C(C([H])([H])[H])(C([H])([H])[H])C([H])([H])[H])C([H])(C(=O)N([H])C2([H])c4c([H])c([H])c([H])c([H])c4C([H])([H])C([H])([H])C2([H])[H])C3([H])[H])c(C([H])([H])[H])c1OC([H])([H])C([H])=C([H])[H]

$$$$
50:0:0
     RDKit          3D

 99109  0  0  1  0  0  0  0  0999 V2000
  -31.1580  -19.9230   20.2700 C   0  0  0  0  0  2  0  0  0  0  0  0
  -30.8880  -18.1270   18.7510 C   0  0  0  0  0  2  0  0  0  0  0  0
  -30.2130  -18.7280   22.0070 C   0  0  0  0  0  3  0  0  0  0  0  0
  -30.0880  -19.6890   21.0530 C   0  0  1  0  0  0  0  0  0  0  0  0
  -30.5040  -19.2900   19.2900 C   0  0  2  0  0  0  0  0  0  0  0  0
  -30.7360  -17.4520   21.9950 C   0  0  0  0  0  0  0  0  0  0  0  0
  -31.8420  -17.3660   19.5360 C   0  0  0  0  0  0  0  0  0  0  0  0
  -31.3220  -16.6930   20.8010 C   0  0  0  0  0  0  0  0  0  0  0  0
  -33.1630  -17.5090   19.2620 C   0  0  0  0  0  3  0  0  0  0  0  0
  -34.3590  -17.0160   20.0620 C   0  0  0  0  0  1  0  0  0  0  0  0
  -31.3300  -15.4050   20.9780 N   0  0  0  0  0  0  0  0  0  0  0  0
  -29.3050  -19.4880   19.9060 N   0  0  0  0  0  0  0  0  0  0  0  0
  -31.7350  -14.4930   20.0070 C   0  0  0  0  0  0  0  0  0  0  0  0
  -31.0380  -12.5930   18.5950 C   0  0  0  0  0  2  0  0  0  0  0  0
  -30.0410  -13.0620   17.5200 C   0  0  0  0  0  2  0  0  0  0  0  0
  -28.6000  -12.9880   18.0630 C   0  0  0  0  0  2  0  0  0  0  0  0
  -28.4510  -13.6710   19.4510 C   0  0  0  0  0  3  0  0  0  0  0  0
  -29.5730  -13.2290   20.4200 C   0  0  0  0  0  2  0  0  0  0  0  0
  -30.8730  -13.4670   19.7700 N   0  0  0  0  0  0  0  0  0  0  0  0
  -32.7530  -14.5900   19.3290 O   0  0  0  0  0  0  0  0  0  0  0  0
  -26.1410  -14.3520   20.3660 C   0  0  0  0  0  0  0  0  0  0  0  0
  -25.0600  -13.6140   20.7700 C   0  0  0  0  0  0  0  0  0  0  0  0
  -25.4430  -12.2460   20.6330 C   0  0  0  0  0  0  0  0  0  0  0  0
  -27.1210  -13.4360   20.0150 N   0  0  0  0  0  0  0  0  0  0  0  0
  -26.7060  -12.1590   20.2310 N   0  0  0  0  0  0  0  0  0  0  0  0
  -24.6610  -11.0140   20.8070 C   0  0  0  0  0  0  0  0  0  0  0  0
  -25.0640  -10.0080   21.7130 C   0  0  0  0  0  3  0  0  0  0  0  0
  -24.2880   -8.8400   21.8760 C   0  0  0  0  0  3  0  0  0  0  0  0
  -23.0950   -8.6690   21.1360 C   0  0  0  0  0  0  0  0  0  0  0  0
  -22.7120   -9.6610   20.2160 C   0  0  0  0  0  3  0  0  0  0  0  0
  -23.4880  -10.8220   20.0510 C   0  0  0  0  0  3  0  0  0  0  0  0
  -22.2920   -7.5580   21.2110 O   0  0  0  0  0  0  0  0  0  0  0  0
  -22.1580   -6.8430   22.3750 C   0  0  0  0  0  0  0  0  0  0  0  0
  -21.7270   -7.4460   23.5760 C   0  0  0  0  0  3  0  0  0  0  0  0
  -21.5370   -6.6600   24.7300 C   0  0  0  0  0  3  0  0  0  0  0  0
  -21.7710   -5.2730   24.6840 C   0  0  0  0  0  0  0  0  0  0  0  0
  -22.1970   -4.6700   23.4880 C   0  0  0  0  0  3  0  0  0  0  0  0
  -22.3880   -5.4530   22.3360 C   0  0  0  0  0  0  0  0  0  0  0  0
  -22.7780   -4.8620   21.1810 F   0  0  0  0  0  0  0  0  0  0  0  0
  -21.5810   -4.5160   25.7910 F   0  0  0  0  0  0  0  0  0  0  0  0
  -23.7120  -14.1450   21.1700 C   0  0  0  0  0  0  0  0  0  0  0  0
  -23.0230  -13.4550   22.0720 N   0  0  0  0  0  0  0  0  0  0  0  0
  -23.2840  -15.2060   20.7170 O   0  0  0  0  0  0  0  0  0  0  0  0
  -23.3810  -12.5940   22.4560 H   0  0  0  0  0  0  0  0  0  0  0  0
  -22.1220  -13.7910   22.3840 H   0  0  0  0  0  0  0  0  0  0  0  0
  -26.3700  -15.7200   20.2480 N   0  0  0  0  0  0  0  0  0  0  0  0
  -25.6580  -16.4150   20.4470 H   0  0  0  0  0  0  0  0  0  0  0  0
  -27.2450  -16.1210   19.9320 H   0  0  0  0  0  0  0  0  0  0  0  0
  -30.6480  -17.2760   24.4130 C   0  0  0  0  0  1  0  0  0  0  0  0
  -30.6080  -16.6570   23.1270 O   0  0  0  0  0  0  0  0  0  0  0  0
  -28.2250  -20.3550   19.4190 C   0  0  0  0  0  2  0  0  0  0  0  0
  -28.6460  -21.7780   18.9780 C   0  0  0  0  0  2  0  0  0  0  0  0
  -28.5760  -22.8560   20.0730 C   0  0  0  0  0  0  0  0  0  0  0  0
  -28.2510  -22.5430   21.2230 O   0  0  0  0  0  0  0  0  0  0  0  0
  -28.3260  -25.2760   20.4030 C   0  0  0  0  0  3  0  0  0  0  0  0
  -28.8350  -24.2620   19.6800 C   0  0  0  0  0  0  0  0  0  0  0  0
  -29.5760  -24.4830   18.5830 O   0  0  0  0  0  0  0  0  0  0  0  0
  -29.8980  -23.6400   18.2910 H   0  0  0  0  0  0  0  0  0  0  0  0
  -28.4530  -26.5950   20.0520 O   0  0  0  0  0  0  0  0  0  0  0  0
  -24.7600  -31.7110   23.3370 C   0  0  0  0  0  0  0  0  0  0  0  0
  -27.2980  -27.3400   20.0990 C   0  0  0  0  0  0  0  0  0  0  0  0
  -23.5130  -30.3960   21.6540 C   0  0  0  0  0  3  0  0  0  0  0  0
  -24.9250  -28.8720   20.1760 C   0  0  0  0  0  0  0  0  0  0  0  0
  -26.0430  -30.7050   21.4570 C   0  0  0  0  0  2  0  0  0  0  0  0
  -26.0960  -29.3540   20.7790 C   0  0  0  0  0  0  0  0  0  0  0  0
  -27.2850  -28.5930   20.7430 C   0  0  0  0  0  3  0  0  0  0  0  0
  -26.1120  -26.8680   19.4880 C   0  0  0  0  0  3  0  0  0  0  0  0
  -24.9270  -27.6230   19.5320 C   0  0  0  0  0  3  0  0  0  0  0  0
  -23.7030  -29.7600   20.2510 C   0  0  0  0  0  2  0  0  0  0  0  0
  -24.7910  -30.9500   22.2080 N   0  0  0  0  0  0  0  0  0  0  0  0
  -23.6880  -31.9910   23.8900 O   0  0  0  0  0  0  0  0  0  0  0  0
  -22.8410  -29.3570   22.5810 C   0  0  0  0  0  0  0  0  0  0  0  0
  -21.5240  -29.1660   22.4100 N   0  0  0  0  0  0  0  0  0  0  0  0
  -23.5050  -28.7270   23.4080 O   0  0  0  0  0  0  0  0  0  0  0  0
  -21.0510  -29.7270   21.7170 H   0  0  0  0  0  0  0  0  0  0  0  0
  -18.1570  -27.9080   22.7490 C   0  0  0  0  0  0  0  0  0  0  0  0
  -20.6910  -28.2180   23.1460 C   0  0  0  0  0  3  0  0  0  0  0  0
  -20.8520  -26.7860   22.5850 C   0  0  0  0  0  2  0  0  0  0  0  0
  -19.8070  -26.4360   21.5190 C   0  0  0  0  0  2  0  0  0  0  0  0
  -18.3940  -26.5570   22.0930 C   0  0  0  0  0  2  0  0  0  0  0  0
  -19.2380  -28.6930   23.2300 C   0  0  0  0  0  0  0  0  0  0  0  0
  -18.9680  -29.9550   23.8010 C   0  0  0  0  0  3  0  0  0  0  0  0
  -17.6480  -30.4330   23.8980 C   0  0  0  0  0  3  0  0  0  0  0  0
  -16.5790  -29.6450   23.4340 C   0  0  0  0  0  3  0  0  0  0  0  0
  -16.8350  -28.3850   22.8660 C   0  0  0  0  0  3  0  0  0  0  0  0
  -26.0650  -32.2880   23.9680 C   0  0  0  0  0  3  0  0  0  0  0  0
  -25.7850  -33.6710   24.3740 N   0  0  0  0  0  0  0  0  0  0  0  0
  -26.1310  -34.7550   23.6660 C   0  0  0  0  0  0  0  0  0  0  0  0
  -26.7920  -34.6930   22.6260 O   0  0  0  0  0  0  0  0  0  0  0  0
  -25.2010  -33.7940   25.1870 H   0  0  0  0  0  0  0  0  0  0  0  0
  -24.4240  -36.5850   23.4200 C   0  0  0  0  0  1  0  0  0  0  0  0
  -25.6680  -36.1240   24.1960 C   0  0  0  0  0  3  0  0  0  0  0  0
  -27.8260  -36.9340   25.0420 C   0  0  0  0  0  1  0  0  0  0  0  0
  -26.7140  -37.1680   24.1250 N   0  0  0  0  0  0  0  0  0  0  0  0
  -26.3230  -38.0830   24.3290 H   0  0  0  0  0  0  0  0  0  0  0  0
  -26.5940  -31.4390   25.1900 C   0  0  1  0  0  0  0  0  0  0  0  0
  -25.5100  -31.1420   26.2530 C   0  0  0  0  0  1  0  0  0  0  0  0
  -27.1680  -30.0860   24.7100 C   0  0  0  0  0  1  0  0  0  0  0  0
  -27.7520  -32.1880   25.8900 C   0  0  0  0  0  1  0  0  0  0  0  0
  2  7  1  0
  4  1  1  1
  4  3  1  0
  5  2  1  6
  5 12  1  0
  5  1  1  0
  5  4  1  0
  6  3  2  0
  6 50  1  0
  7  8  1  0
  8 11  2  0
  8  6  1  0
  9  7  2  0
  9 10  1  0
 12  4  1  0
 13 11  1  0
 14 19  1  0
 15 16  1  0
 15 14  1  0
 17 16  1  0
 17 24  1  0
 17 18  1  0
 19 13  1  0
 19 18  1  0
 20 13  2  0
 21 22  2  0
 22 41  1  0
 23 22  1  0
 23 26  1  0
 24 25  1  0
 24 21  1  0
 25 23  2  0
 26 27  1  0
 27 28  2  0
 29 32  1  0
 29 28  1  0
 30 29  2  0
 31 30  1  0
 31 26  2  0
 32 33  1  0
 33 34  1  0
 34 35  2  0
 36 35  1  0
 36 40  1  0
 37 36  2  0
 38 33  2  0
 38 37  1  0
 39 38  1  0
 41 42  1  0
 42 45  1  0
 42 44  1  0
 43 41  2  0
 46 21  1  0
 46 47  1  0
 48 46  1  0
 50 49  1  0
 51 12  1  0
 52 51  1  0
 52 53  1  0
 53 54  2  0
 56 53  1  0
 56 55  2  0
 57 56  1  0
 58 57  1  0
 59 61  1  0
 59 55  1  0
 60 71  2  0
 61 66  1  0
 62 70  1  0
 62 72  1  0
 63 69  1  0
 63 65  1  0
 64 70  1  0
 65 64  1  0
 66 65  2  0
 67 68  1  0
 67 61  2  0
 68 63  2  0
 69 62  1  0
 70 60  1  0
 72 74  2  0
 73 72  1  0
 75 73  1  0
 76 85  2  0
 76 81  1  0
 77 73  1  0
 77 81  1  0
 78 77  1  0
 79 80  1  0
 79 78  1  0
 80 76  1  0
 81 82  2  0
 82 83  1  0
 84 83  2  0
 85 84  1  0
 86 60  1  0
 86 87  1  0
 86 96  1  0
 87 90  1  0
 88 92  1  0
 88 87  1  0
 89 88  2  0
 92 91  1  0
 94 92  1  0
 94 95  1  0
 94 93  1  0
 96 99  1  1
 96 97  1  0
 98 96  1  0
M  ISO  4  11 100  13 100  55 101  59 101
M  END
>  <TORSDO>  (50) 
F 22

>  <SCORE>  (50) 
-9.216

>  <name>  (50) 
50

>  <ligand_id>  (50) 
50

>  <original_smiles>  (50) 
[H]OC(C(=O)C([H])([H])C([H])([H])N1C2=C([H])C(=C([H])C([H])([H])[H])C(=NC(=O)N3C([H])([H])C([H])([H])C([H])([H])C([H])(n4nc(-c5c([H])c([H])c(Oc6c([H])c([H])c(F)c([H])c6F)c([H])c5[H])c(C(=O)N([H])[H])c4N([H])[H])C3([H])[H])C(OC([H])([H])[H])=C([H])C1=C2[H])=C([H])Oc1c([H])c([H])c2c(c1[H])C([H])([H])N(C(=O)C([H])(N([H])C(=O)C([H])(N([H])C([H])([H])[H])C([H])([H])[H])C(C([H])([H])[H])(C([H])([H])[H])C([H])([H])[H])C([H])(C(=O)N([H])C1([H])c3c([H])c([H])c([H])c([H])c3C([H])([H])C([H])([H])C1([H])[H])C2([H])[H]

>  <smiles>  (50) 
[H]OC(C(=O)C([H])([H])C([H])([H])N1C2=C([H])C(=C([H])C([H])([H])[H])C(=NC(=O)N3C([H])([H])C([H])([H])C([H])([H])C([H])(n4nc(-c5c([H])c([H])c(Oc6c([H])c([H])c(F)c([H])c6F)c([H])c5[H])c(C(=O)N([H])[H])c4N([H])[H])C3([H])[H])C(OC([H])([H])[H])=C([H])C1=C2[H])=C([H])Oc1c([H])c([H])c2c(c1[H])C([H])([H])N(C(=O)C([H])(N([H])C(=O)C([H])(N([H])C([H])([H])[H])C([H])([H])[H])C(C([H])([H])[H])(C([H])([H])[H])C([H])([H])[H])C([H])(C(=O)N([H])C1([H])c3c([H])c([H])c([H])c([H])c3C([H])([H])C([H])([H])C1([H])[H])C2([H])[H]

$$$$
51:0:0
     RDKit          3D

 99108  0  0  1  0  0  0  0  0999 V2000
  -30.5210  -24.2250   20.3800 C   0  0  0  0  0  3  0  0  0  0  0  0
  -29.2400  -23.8010   20.2470 C   0  0  0  0  0  0  0  0  0  0  0  0
  -28.8650  -22.3140   20.3780 C   0  0  0  0  0  0  0  0  0  0  0  0
  -31.7100  -23.4000   20.6650 C   0  0  0  0  0  0  0  0  0  0  0  0
  -27.5530  -22.0000   20.2270 C   0  0  0  0  0  3  0  0  0  0  0  0
  -31.7320  -22.4210   21.8450 C   0  0  0  0  0  2  0  0  0  0  0  0
  -30.5300  -21.4600   21.9790 C   0  0  0  0  0  2  0  0  0  0  0  0
  -26.8590  -20.6510   20.4050 C   0  0  0  0  0  1  0  0  0  0  0  0
  -29.7800  -21.2480   20.7360 N   0  0  0  0  0  0  0  0  0  0  0  0
  -32.7450  -23.5270   20.0020 O   0  0  0  0  0  0  0  0  0  0  0  0
  -30.1620  -18.6700   20.7380 C   0  0  0  0  0  3  0  0  0  0  0  0
  -30.1900  -18.6820   17.9500 C   0  0  0  0  0  0  0  0  0  0  0  0
  -30.0940  -19.9200   18.6420 C   0  0  0  0  0  0  0  0  0  0  0  0
  -30.4580  -17.4680   18.6420 C   0  0  0  0  0  0  0  0  0  0  0  0
  -30.0150  -19.9620   20.0670 C   0  0  0  0  0  0  0  0  0  0  0  0
  -30.4260  -17.4020   20.0680 C   0  0  0  0  0  0  0  0  0  0  0  0
  -29.9630  -18.6450   16.4290 C   0  0  0  0  0  1  0  0  0  0  0  0
  -30.1240  -21.2000   17.8030 C   0  0  0  0  0  1  0  0  0  0  0  0
  -30.7760  -16.2180   17.8280 C   0  0  0  0  0  1  0  0  0  0  0  0
  -31.1830  -14.9100   20.5710 C   0  0  0  0  0  0  0  0  0  0  0  0
  -30.9900  -12.5890   19.6640 C   0  0  0  0  0  2  0  0  0  0  0  0
  -30.1330  -12.6490   18.3800 C   0  0  0  0  0  2  0  0  0  0  0  0
  -28.6250  -12.5850   18.7030 C   0  0  0  0  0  2  0  0  0  0  0  0
  -28.2120  -13.4950   19.9010 C   0  0  0  0  0  3  0  0  0  0  0  0
  -29.2020  -13.3760   21.0800 C   0  0  0  0  0  2  0  0  0  0  0  0
  -30.5420  -13.6860   20.5550 N   0  0  0  0  0  0  0  0  0  0  0  0
  -32.3820  -14.9730   20.2890 O   0  0  0  0  0  0  0  0  0  0  0  0
  -30.4160  -16.0610   20.7420 N   0  0  0  0  0  0  0  0  0  0  0  0
  -29.5160  -15.8380   21.1370 H   0  0  0  0  0  0  0  0  0  0  0  0
  -25.8060  -14.1840   20.4620 C   0  0  0  0  0  0  0  0  0  0  0  0
  -24.6870  -13.4480   20.7580 C   0  0  0  0  0  0  0  0  0  0  0  0
  -25.1010  -12.0820   20.7640 C   0  0  0  0  0  0  0  0  0  0  0  0
  -26.8300  -13.2610   20.3080 N   0  0  0  0  0  0  0  0  0  0  0  0
  -26.4090  -11.9930   20.5500 N   0  0  0  0  0  0  0  0  0  0  0  0
  -24.3170  -10.8510   20.9180 C   0  0  0  0  0  0  0  0  0  0  0  0
  -24.6680   -9.8660   21.8670 C   0  0  0  0  0  3  0  0  0  0  0  0
  -23.8900   -8.6980   22.0060 C   0  0  0  0  0  3  0  0  0  0  0  0
  -22.7370   -8.5110   21.2080 C   0  0  0  0  0  0  0  0  0  0  0  0
  -22.4050   -9.4820   20.2440 C   0  0  0  0  0  3  0  0  0  0  0  0
  -23.1900  -10.6400   20.0990 C   0  0  0  0  0  3  0  0  0  0  0  0
  -21.9350   -7.3980   21.2630 O   0  0  0  0  0  0  0  0  0  0  0  0
  -21.8170   -6.6530   22.4100 C   0  0  0  0  0  0  0  0  0  0  0  0
  -21.3610   -7.2110   23.6240 C   0  0  0  0  0  3  0  0  0  0  0  0
  -21.1810   -6.3870   24.7540 C   0  0  0  0  0  3  0  0  0  0  0  0
  -21.4560   -5.0090   24.6750 C   0  0  0  0  0  0  0  0  0  0  0  0
  -21.9060   -4.4520   23.4650 C   0  0  0  0  0  3  0  0  0  0  0  0
  -22.0800   -5.2690   22.3350 C   0  0  0  0  0  0  0  0  0  0  0  0
  -22.4870   -4.7210   21.1630 F   0  0  0  0  0  0  0  0  0  0  0  0
  -21.2790   -4.2190   25.7600 F   0  0  0  0  0  0  0  0  0  0  0  0
  -23.2970  -13.9770   20.9390 C   0  0  0  0  0  0  0  0  0  0  0  0
  -22.5020  -13.3280   21.7810 N   0  0  0  0  0  0  0  0  0  0  0  0
  -22.9280  -15.0010   20.3670 O   0  0  0  0  0  0  0  0  0  0  0  0
  -22.8190  -12.4960   22.2580 H   0  0  0  0  0  0  0  0  0  0  0  0
  -21.5710  -13.6760   21.9690 H   0  0  0  0  0  0  0  0  0  0  0  0
  -26.0310  -15.5490   20.3010 N   0  0  0  0  0  0  0  0  0  0  0  0
  -25.2760  -16.2260   20.3610 H   0  0  0  0  0  0  0  0  0  0  0  0
  -26.9360  -15.9800   20.1590 H   0  0  0  0  0  0  0  0  0  0  0  0
  -28.1730  -24.9300   19.8680 C   0  0  0  0  0  2  0  0  0  0  0  0
  -28.5020  -26.4020   19.7400 O   0  0  0  0  0  0  0  0  0  0  0  0
  -24.6950  -31.6640   23.0150 C   0  0  0  0  0  0  0  0  0  0  0  0
  -27.3940  -27.2900   19.7170 C   0  0  0  0  0  0  0  0  0  0  0  0
  -23.5190  -30.3130   21.3210 C   0  0  0  0  0  3  0  0  0  0  0  0
  -24.9960  -28.8770   19.8060 C   0  0  0  0  0  0  0  0  0  0  0  0
  -26.0550  -30.6920   21.1420 C   0  0  0  0  0  2  0  0  0  0  0  0
  -26.1630  -29.3530   20.4150 C   0  0  0  0  0  0  0  0  0  0  0  0
  -27.3660  -28.5760   20.3560 C   0  0  0  0  0  3  0  0  0  0  0  0
  -26.2020  -26.8960   19.0610 C   0  0  0  0  0  3  0  0  0  0  0  0
  -25.0220  -27.6590   19.1170 C   0  0  0  0  0  3  0  0  0  0  0  0
  -23.7340  -29.7130   19.9080 C   0  0  0  0  0  2  0  0  0  0  0  0
  -24.7750  -30.9050   21.8820 N   0  0  0  0  0  0  0  0  0  0  0  0
  -23.6080  -31.8870   23.5660 O   0  0  0  0  0  0  0  0  0  0  0  0
  -22.8930  -29.2340   22.2390 C   0  0  0  0  0  0  0  0  0  0  0  0
  -21.5690  -29.0330   22.1230 N   0  0  0  0  0  0  0  0  0  0  0  0
  -23.5960  -28.5780   23.0110 O   0  0  0  0  0  0  0  0  0  0  0  0
  -21.0620  -29.6100   21.4670 H   0  0  0  0  0  0  0  0  0  0  0  0
  -18.2220  -27.7550   22.6570 C   0  0  0  0  0  0  0  0  0  0  0  0
  -20.7850  -28.0380   22.8550 C   0  0  0  0  0  3  0  0  0  0  0  0
  -20.8860  -26.6460   22.1900 C   0  0  0  0  0  2  0  0  0  0  0  0
  -19.7540  -26.3690   21.1960 C   0  0  0  0  0  2  0  0  0  0  0  0
  -18.3920  -26.4550   21.8900 C   0  0  0  0  0  2  0  0  0  0  0  0
  -19.3450  -28.5070   23.0950 C   0  0  0  0  0  0  0  0  0  0  0  0
  -19.1280  -29.7270   23.7730 C   0  0  0  0  0  3  0  0  0  0  0  0
  -17.8230  -30.1950   24.0140 C   0  0  0  0  0  3  0  0  0  0  0  0
  -16.7160  -29.4410   23.5890 C   0  0  0  0  0  3  0  0  0  0  0  0
  -16.9170  -28.2210   22.9190 C   0  0  0  0  0  3  0  0  0  0  0  0
  -25.9630  -32.3070   23.6560 C   0  0  0  0  0  3  0  0  0  0  0  0
  -25.6120  -33.6810   24.0430 N   0  0  0  0  0  0  0  0  0  0  0  0
  -25.9500  -34.7790   23.3550 C   0  0  0  0  0  0  0  0  0  0  0  0
  -26.6550  -34.7420   22.3450 O   0  0  0  0  0  0  0  0  0  0  0  0
  -24.9950  -33.7830   24.8360 H   0  0  0  0  0  0  0  0  0  0  0  0
  -24.2070  -36.5620   23.0340 C   0  0  0  0  0  1  0  0  0  0  0  0
  -25.4220  -36.1320   23.8700 C   0  0  0  0  0  3  0  0  0  0  0  0
  -27.5030  -36.9960   24.8420 C   0  0  0  0  0  1  0  0  0  0  0  0
  -26.4400  -37.2050   23.8630 N   0  0  0  0  0  0  0  0  0  0  0  0
  -26.0140  -38.1090   24.0480 H   0  0  0  0  0  0  0  0  0  0  0  0
  -26.5040  -31.5040   24.9020 C   0  0  1  0  0  0  0  0  0  0  0  0
  -25.4230  -31.1910   25.9650 C   0  0  0  0  0  1  0  0  0  0  0  0
  -27.1250  -30.1610   24.4600 C   0  0  0  0  0  1  0  0  0  0  0  0
  -27.6380  -32.3080   25.5830 C   0  0  0  0  0  1  0  0  0  0  0  0
  1  4  1  0
  2  3  1  0
  2  1  2  0
  3  9  1  0
  4  6  1  0
  5  3  2  0
  5  8  1  0
  6  7  1  0
  9  7  1  0
 10  4  2  0
 12 14  1  0
 12 13  2  0
 13 15  1  0
 14 16  2  0
 15  9  1  0
 15 11  2  0
 16 11  1  0
 16 28  1  0
 17 12  1  0
 18 13  1  0
 19 14  1  0
 20 28  1  0
 21 26  1  0
 22 23  1  0
 22 21  1  0
 24 23  1  0
 24 33  1  0
 24 25  1  0
 26 20  1  0
 26 25  1  0
 27 20  2  0
 28 29  1  0
 30 31  2  0
 31 32  1  0
 31 50  1  0
 32 35  1  0
 33 30  1  0
 33 34  1  0
 34 32  2  0
 35 36  1  0
 36 37  2  0
 38 41  1  0
 38 37  1  0
 39 38  2  0
 40 39  1  0
 40 35  2  0
 41 42  1  0
 42 43  1  0
 43 44  2  0
 45 44  1  0
 45 49  1  0
 46 45  2  0
 47 42  2  0
 47 46  1  0
 48 47  1  0
 50 51  1  0
 51 54  1  0
 51 53  1  0
 52 50  2  0
 55 56  1  0
 55 30  1  0
 57 55  1  0
 58  2  1  0
 59 58  1  0
 60 71  2  0
 61 59  1  0
 61 66  1  0
 62 70  1  0
 62 72  1  0
 63 69  1  0
 63 65  1  0
 64 70  1  0
 65 64  1  0
 66 65  2  0
 67 68  1  0
 67 61  2  0
 68 63  2  0
 69 62  1  0
 70 60  1  0
 72 74  2  0
 73 72  1  0
 75 73  1  0
 76 85  2  0
 76 81  1  0
 77 73  1  0
 77 81  1  0
 78 77  1  0
 79 80  1  0
 79 78  1  0
 80 76  1  0
 81 82  2  0
 82 83  1  0
 84 83  2  0
 85 84  1  0
 86 60  1  0
 86 87  1  0
 86 96  1  0
 87 90  1  0
 88 92  1  0
 88 87  1  0
 89 88  2  0
 92 91  1  0
 94 92  1  0
 94 95  1  0
 94 93  1  0
 96 99  1  1
 96 97  1  0
 98 96  1  0
M  ISO  4  20 100  28 100  58 101  59 101
M  END
>  <TORSDO>  (51) 
F 18

>  <SCORE>  (51) 
-11.999

>  <name>  (51) 
51

>  <ligand_id>  (51) 
51

>  <original_smiles>  (51) 
[H]C1=C(C([H])([H])Oc2c([H])c([H])c3c(c2[H])C([H])([H])N(C(=O)C([H])(N([H])C(=O)C([H])(N([H])C([H])([H])[H])C([H])([H])[H])C(C([H])([H])[H])(C([H])([H])[H])C([H])([H])[H])C([H])(C(=O)N([H])C2([H])c4c([H])c([H])c([H])c([H])c4C([H])([H])C([H])([H])C2([H])[H])C3([H])[H])C(=C([H])C([H])([H])[H])N(c2c([H])c(N([H])C(=O)N3C([H])([H])C([H])([H])C([H])([H])C([H])(n4nc(-c5c([H])c([H])c(Oc6c([H])c([H])c(F)c([H])c6F)c([H])c5[H])c(C(=O)N([H])[H])c4N([H])[H])C3([H])[H])c(C([H])([H])[H])c(C([H])([H])[H])c2C([H])([H])[H])C([H])([H])C([H])([H])C1=O

>  <smiles>  (51) 
[H]C1=C(C([H])([H])Oc2c([H])c([H])c3c(c2[H])C([H])([H])N(C(=O)C([H])(N([H])C(=O)C([H])(N([H])C([H])([H])[H])C([H])([H])[H])C(C([H])([H])[H])(C([H])([H])[H])C([H])([H])[H])C([H])(C(=O)N([H])C2([H])c4c([H])c([H])c([H])c([H])c4C([H])([H])C([H])([H])C2([H])[H])C3([H])[H])C(=C([H])C([H])([H])[H])N(c2c([H])c(N([H])C(=O)N3C([H])([H])C([H])([H])C([H])([H])C([H])(n4nc(-c5c([H])c([H])c(Oc6c([H])c([H])c(F)c([H])c6F)c([H])c5[H])c(C(=O)N([H])[H])c4N([H])[H])C3([H])[H])c(C([H])([H])[H])c(C([H])([H])[H])c2C([H])([H])[H])C([H])([H])C([H])([H])C1=O

$$$$
52:0:0
     RDKit          3D

 99108  0  0  1  0  0  0  0  0999 V2000
  -29.2450  -24.1990   20.0440 C   0  0  0  0  0  0  0  0  0  0  0  0
  -29.1300  -22.8600   20.4190 C   0  0  0  0  0  0  0  0  0  0  0  0
  -30.2840  -24.5370   19.0360 C   0  0  0  0  0  0  0  0  0  0  0  0
  -31.3570  -23.4890   18.7550 C   0  0  0  0  0  2  0  0  0  0  0  0
  -30.7600  -22.0780   18.6970 C   0  0  0  0  0  2  0  0  0  0  0  0
  -29.9160  -21.7970   19.8590 N   0  0  0  0  0  0  0  0  0  0  0  0
  -30.3430  -25.6040   18.4170 O   0  0  0  0  0  0  0  0  0  0  0  0
  -30.9300  -18.4060   21.3560 C   0  0  0  0  0  3  0  0  0  0  0  0
  -29.2530  -19.4410   19.3990 C   0  0  0  0  0  3  0  0  0  0  0  0
  -30.8370  -19.8300   21.1850 C   0  0  0  0  0  0  0  0  0  0  0  0
  -29.9700  -20.3860   20.1900 C   0  0  0  0  0  0  0  0  0  0  0  0
  -30.2180  -17.4760   20.5530 C   0  0  0  0  0  0  0  0  0  0  0  0
  -29.3480  -18.0200   19.5730 C   0  0  0  0  0  0  0  0  0  0  0  0
  -30.9940  -15.0270   20.3620 C   0  0  0  0  0  0  0  0  0  0  0  0
  -30.8310  -12.7680   19.3260 C   0  0  0  0  0  2  0  0  0  0  0  0
  -29.8720  -12.8560   18.1170 C   0  0  0  0  0  2  0  0  0  0  0  0
  -28.4090  -12.6690   18.5610 C   0  0  0  0  0  2  0  0  0  0  0  0
  -28.0440  -13.5420   19.7910 C   0  0  0  0  0  3  0  0  0  0  0  0
  -29.1130  -13.4180   20.8990 C   0  0  0  0  0  2  0  0  0  0  0  0
  -30.4100  -13.7850   20.3110 N   0  0  0  0  0  0  0  0  0  0  0  0
  -32.1270  -15.2190   19.9100 O   0  0  0  0  0  0  0  0  0  0  0  0
  -30.2190  -16.0430   20.8520 N   0  0  0  0  0  0  0  0  0  0  0  0
  -29.3550  -15.7080   21.2510 H   0  0  0  0  0  0  0  0  0  0  0  0
  -25.6650  -14.1140   20.5740 C   0  0  0  0  0  0  0  0  0  0  0  0
  -24.6040  -13.3280   20.9380 C   0  0  0  0  0  0  0  0  0  0  0  0
  -25.0650  -11.9790   20.8500 C   0  0  0  0  0  0  0  0  0  0  0  0
  -26.7040  -13.2420   20.2890 N   0  0  0  0  0  0  0  0  0  0  0  0
  -26.3490  -11.9510   20.5130 N   0  0  0  0  0  0  0  0  0  0  0  0
  -24.3410  -10.7110   21.0100 C   0  0  0  0  0  0  0  0  0  0  0  0
  -24.7300   -9.7540   21.9730 C   0  0  0  0  0  3  0  0  0  0  0  0
  -24.0080   -8.5510   22.1200 C   0  0  0  0  0  3  0  0  0  0  0  0
  -22.8820   -8.2940   21.3020 C   0  0  0  0  0  0  0  0  0  0  0  0
  -22.5120   -9.2400   20.3300 C   0  0  0  0  0  3  0  0  0  0  0  0
  -23.2350  -10.4340   20.1800 C   0  0  0  0  0  3  0  0  0  0  0  0
  -22.1360   -7.1410   21.3570 O   0  0  0  0  0  0  0  0  0  0  0  0
  -21.9310   -6.4720   22.5360 C   0  0  0  0  0  0  0  0  0  0  0  0
  -21.2760   -7.0760   23.6320 C   0  0  0  0  0  3  0  0  0  0  0  0
  -21.0240   -6.3280   24.7990 C   0  0  0  0  0  3  0  0  0  0  0  0
  -21.4160   -4.9780   24.8710 C   0  0  0  0  0  0  0  0  0  0  0  0
  -22.0630   -4.3740   23.7800 C   0  0  0  0  0  3  0  0  0  0  0  0
  -22.3170   -5.1180   22.6140 C   0  0  0  0  0  0  0  0  0  0  0  0
  -22.9220   -4.5250   21.5570 F   0  0  0  0  0  0  0  0  0  0  0  0
  -21.1680   -4.2580   25.9900 F   0  0  0  0  0  0  0  0  0  0  0  0
  -23.2130  -13.7960   21.2560 C   0  0  0  0  0  0  0  0  0  0  0  0
  -22.5050  -13.0740   22.1190 N   0  0  0  0  0  0  0  0  0  0  0  0
  -22.7630  -14.8360   20.7770 O   0  0  0  0  0  0  0  0  0  0  0  0
  -22.8820  -12.2330   22.5290 H   0  0  0  0  0  0  0  0  0  0  0  0
  -21.5740  -13.3690   22.3730 H   0  0  0  0  0  0  0  0  0  0  0  0
  -25.8280  -15.4900   20.4430 N   0  0  0  0  0  0  0  0  0  0  0  0
  -25.0640  -16.1410   20.5890 H   0  0  0  0  0  0  0  0  0  0  0  0
  -26.6680  -15.9380   20.1000 H   0  0  0  0  0  0  0  0  0  0  0  0
  -32.4780  -20.3850   23.0330 C   0  0  0  0  0  2  0  0  0  0  0  0
  -31.6560  -20.7320   22.0260 C   0  0  0  0  0  3  0  0  0  0  0  0
  -27.6420  -17.5930   17.9310 C   0  0  0  0  0  1  0  0  0  0  0  0
  -28.6130  -17.1060   18.8460 O   0  0  0  0  0  0  0  0  0  0  0  0
  -28.1920  -22.9140   22.7000 C   0  0  0  0  0  2  0  0  0  0  0  0
  -28.1510  -22.4900   21.4270 C   0  0  0  0  0  3  0  0  0  0  0  0
  -28.3650  -25.4000   20.5970 C   0  0  0  0  0  2  0  0  0  0  0  0
  -28.5360  -26.7960   20.1020 O   0  0  0  0  0  0  0  0  0  0  0  0
  -24.7000  -31.9780   23.3710 C   0  0  0  0  0  0  0  0  0  0  0  0
  -27.4060  -27.6270   20.1140 C   0  0  0  0  0  0  0  0  0  0  0  0
  -23.5260  -30.6360   21.6620 C   0  0  0  0  0  3  0  0  0  0  0  0
  -25.0100  -29.1860   20.1670 C   0  0  0  0  0  0  0  0  0  0  0  0
  -26.0570  -31.0170   21.5000 C   0  0  0  0  0  2  0  0  0  0  0  0
  -26.1680  -29.6720   20.7910 C   0  0  0  0  0  0  0  0  0  0  0  0
  -27.3700  -28.9050   20.7530 C   0  0  0  0  0  3  0  0  0  0  0  0
  -26.2300  -27.1990   19.4600 C   0  0  0  0  0  3  0  0  0  0  0  0
  -25.0440  -27.9550   19.4920 C   0  0  0  0  0  3  0  0  0  0  0  0
  -23.7550  -30.0300   20.2530 C   0  0  0  0  0  2  0  0  0  0  0  0
  -24.7800  -31.2250   22.2350 N   0  0  0  0  0  0  0  0  0  0  0  0
  -23.6110  -32.2080   23.9160 O   0  0  0  0  0  0  0  0  0  0  0  0
  -22.8830  -29.5620   22.5730 C   0  0  0  0  0  0  0  0  0  0  0  0
  -21.5650  -29.3480   22.4170 N   0  0  0  0  0  0  0  0  0  0  0  0
  -23.5690  -28.9250   23.3760 O   0  0  0  0  0  0  0  0  0  0  0  0
  -21.0700  -29.9160   21.7450 H   0  0  0  0  0  0  0  0  0  0  0  0
  -18.2210  -28.0290   22.8110 C   0  0  0  0  0  0  0  0  0  0  0  0
  -20.7640  -28.3570   23.1370 C   0  0  0  0  0  3  0  0  0  0  0  0
  -20.9220  -26.9520   22.5100 C   0  0  0  0  0  2  0  0  0  0  0  0
  -19.8480  -26.6340   21.4650 C   0  0  0  0  0  2  0  0  0  0  0  0
  -18.4510  -26.7120   22.0890 C   0  0  0  0  0  2  0  0  0  0  0  0
  -19.3070  -28.8070   23.2900 C   0  0  0  0  0  0  0  0  0  0  0  0
  -19.0370  -30.0400   23.9250 C   0  0  0  0  0  3  0  0  0  0  0  0
  -17.7150  -30.4930   24.0860 C   0  0  0  0  0  3  0  0  0  0  0  0
  -16.6420  -29.7090   23.6250 C   0  0  0  0  0  3  0  0  0  0  0  0
  -16.8960  -28.4790   22.9930 C   0  0  0  0  0  3  0  0  0  0  0  0
  -25.9700  -32.6040   24.0260 C   0  0  0  0  0  3  0  0  0  0  0  0
  -25.6490  -33.9970   24.3730 N   0  0  0  0  0  0  0  0  0  0  0  0
  -25.9840  -35.0620   23.6330 C   0  0  0  0  0  0  0  0  0  0  0  0
  -26.6650  -34.9770   22.6080 O   0  0  0  0  0  0  0  0  0  0  0  0
  -25.0460  -34.1360   25.1710 H   0  0  0  0  0  0  0  0  0  0  0  0
  -24.2500  -36.8510   23.2910 C   0  0  0  0  0  1  0  0  0  0  0  0
  -25.4860  -36.4410   24.1070 C   0  0  0  0  0  3  0  0  0  0  0  0
  -27.6030  -37.3310   24.9760 C   0  0  0  0  0  1  0  0  0  0  0  0
  -26.5140  -37.5010   24.0180 N   0  0  0  0  0  0  0  0  0  0  0  0
  -26.1010  -38.4180   24.1680 H   0  0  0  0  0  0  0  0  0  0  0  0
  -26.4650  -31.8150   25.3000 C   0  0  1  0  0  0  0  0  0  0  0  0
  -25.3530  -31.5520   26.3410 C   0  0  0  0  0  1  0  0  0  0  0  0
  -27.0650  -30.4470   24.8970 C   0  0  0  0  0  1  0  0  0  0  0  0
  -27.5970  -32.6050   25.9970 C   0  0  0  0  0  1  0  0  0  0  0  0
  1  2  2  0
  1 58  1  0
  2 57  1  0
  3  1  1  0
  4  3  1  0
  5  4  1  0
  5  6  1  0
  6 11  1  0
  6  2  1  0
  7  3  2  0
  9 13  2  0
  9 11  1  0
 10  8  1  0
 10 53  1  0
 11 10  2  0
 12 22  1  0
 12  8  2  0
 13 12  1  0
 14 22  1  0
 15 20  1  0
 16 17  1  0
 16 15  1  0
 18 17  1  0
 18 27  1  0
 18 19  1  0
 20 14  1  0
 20 19  1  0
 21 14  2  0
 22 23  1  0
 24 25  2  0
 25 44  1  0
 26 25  1  0
 26 29  1  0
 27 28  1  0
 27 24  1  0
 28 26  2  0
 29 30  1  0
 30 31  2  0
 32 35  1  0
 32 31  1  0
 33 32  2  0
 34 33  1  0
 34 29  2  0
 35 36  1  0
 36 41  2  0
 36 37  1  0
 37 38  2  0
 38 39  1  0
 39 43  1  0
 40 39  2  0
 41 40  1  0
 42 41  1  0
 44 45  1  0
 45 48  1  0
 45 47  1  0
 46 44  2  0
 49 24  1  0
 49 50  1  0
 51 49  1  0
 53 52  2  0
 54 55  1  0
 55 13  1  0
 57 56  2  0
 59 61  1  0
 59 58  1  0
 60 71  2  0
 61 66  1  0
 62 70  1  0
 62 72  1  0
 63 69  1  0
 63 65  1  0
 64 70  1  0
 65 64  1  0
 66 65  2  0
 67 68  1  0
 67 61  2  0
 68 63  2  0
 69 62  1  0
 70 60  1  0
 72 74  2  0
 73 72  1  0
 75 73  1  0
 76 85  2  0
 76 81  1  0
 77 73  1  0
 77 81  1  0
 78 77  1  0
 79 80  1  0
 79 78  1  0
 80 76  1  0
 81 82  2  0
 82 83  1  0
 84 83  2  0
 85 84  1  0
 86 60  1  0
 86 87  1  0
 86 96  1  0
 87 90  1  0
 88 92  1  0
 88 87  1  0
 89 88  2  0
 92 91  1  0
 94 92  1  0
 94 95  1  0
 94 93  1  0
 96 99  1  1
 96 97  1  0
 98 96  1  0
M  ISO  4  14 100  22 100  58 101  59 101
M  END
>  <TORSDO>  (52) 
F 21

>  <SCORE>  (52) 
-12.706

>  <name>  (52) 
52

>  <ligand_id>  (52) 
52

>  <original_smiles>  (52) 
[H]C([H])=C([H])C1=C(C([H])([H])Oc2c([H])c([H])c3c(c2[H])C([H])([H])N(C(=O)C([H])(N([H])C(=O)C([H])(N([H])C([H])([H])[H])C([H])([H])[H])C(C([H])([H])[H])(C([H])([H])[H])C([H])([H])[H])C([H])(C(=O)N([H])C2([H])c4c([H])c([H])c([H])c([H])c4C([H])([H])C([H])([H])C2([H])[H])C3([H])[H])C(=O)C([H])([H])C([H])([H])N1c1c([H])c(OC([H])([H])[H])c(N([H])C(=O)N2C([H])([H])C([H])([H])C([H])([H])C([H])(n3nc(-c4c([H])c([H])c(Oc5c([H])c([H])c(F)c([H])c5F)c([H])c4[H])c(C(=O)N([H])[H])c3N([H])[H])C2([H])[H])c([H])c1C([H])=C([H])[H]

>  <smiles>  (52) 
[H]C([H])=C([H])C1=C(C([H])([H])Oc2c([H])c([H])c3c(c2[H])C([H])([H])N(C(=O)C([H])(N([H])C(=O)C([H])(N([H])C([H])([H])[H])C([H])([H])[H])C(C([H])([H])[H])(C([H])([H])[H])C([H])([H])[H])C([H])(C(=O)N([H])C2([H])c4c([H])c([H])c([H])c([H])c4C([H])([H])C([H])([H])C2([H])[H])C3([H])[H])C(=O)C([H])([H])C([H])([H])N1c1c([H])c(OC([H])([H])[H])c(N([H])C(=O)N2C([H])([H])C([H])([H])C([H])([H])C([H])(n3nc(-c4c([H])c([H])c(Oc5c([H])c([H])c(F)c([H])c5F)c([H])c4[H])c(C(=O)N([H])[H])c3N([H])[H])C2([H])[H])c([H])c1C([H])=C([H])[H]

$$$$
53:0:0
     RDKit          3D

 93101  0  0  1  0  0  0  0  0999 V2000
  -31.5700  -17.4480   21.1390 C   0  0  0  0  0  3  0  0  0  0  0  0
  -31.0210  -19.7730   20.6360 C   0  0  0  0  0  3  0  0  0  0  0  0
  -29.3800  -18.0080   20.2130 C   0  0  0  0  0  0  0  0  0  0  0  0
  -30.3000  -17.0200   20.6920 C   0  0  0  0  0  0  0  0  0  0  0  0
  -29.7370  -19.3990   20.1820 C   0  0  0  0  0  0  0  0  0  0  0  0
  -31.9290  -18.8060   21.1030 C   0  0  0  0  0  0  0  0  0  0  0  0
  -33.1550  -19.1880   21.5300 F   0  0  0  0  0  0  0  0  0  0  0  0
  -30.6660  -14.5400   20.4500 C   0  0  0  0  0  0  0  0  0  0  0  0
  -30.3590  -12.3630   19.3390 C   0  0  0  0  0  2  0  0  0  0  0  0
  -29.4060  -12.5540   18.1400 C   0  0  0  0  0  2  0  0  0  0  0  0
  -27.9370  -12.4140   18.5830 C   0  0  0  0  0  2  0  0  0  0  0  0
  -27.6040  -13.2570   19.8450 C   0  0  0  0  0  3  0  0  0  0  0  0
  -28.6730  -13.0630   20.9440 C   0  0  0  0  0  2  0  0  0  0  0  0
  -29.9870  -13.3610   20.3540 N   0  0  0  0  0  0  0  0  0  0  0  0
  -31.8270  -14.6580   20.0570 O   0  0  0  0  0  0  0  0  0  0  0  0
  -29.9240  -15.6260   20.7840 N   0  0  0  0  0  0  0  0  0  0  0  0
  -28.9520  -15.4390   20.9690 H   0  0  0  0  0  0  0  0  0  0  0  0
  -25.2100  -13.8580   20.5710 C   0  0  0  0  0  0  0  0  0  0  0  0
  -24.1430  -13.0860   20.9380 C   0  0  0  0  0  0  0  0  0  0  0  0
  -24.6070  -11.7350   20.9070 C   0  0  0  0  0  0  0  0  0  0  0  0
  -26.2570  -12.9800   20.3360 N   0  0  0  0  0  0  0  0  0  0  0  0
  -25.8970  -11.6980   20.5990 N   0  0  0  0  0  0  0  0  0  0  0  0
  -23.8820  -10.4730   21.0970 C   0  0  0  0  0  0  0  0  0  0  0  0
  -24.3340   -9.4920   22.0080 C   0  0  0  0  0  3  0  0  0  0  0  0
  -23.6100   -8.2950   22.1880 C   0  0  0  0  0  3  0  0  0  0  0  0
  -22.4190   -8.0690   21.4580 C   0  0  0  0  0  0  0  0  0  0  0  0
  -21.9860   -9.0370   20.5360 C   0  0  0  0  0  3  0  0  0  0  0  0
  -22.7110  -10.2270   20.3540 C   0  0  0  0  0  3  0  0  0  0  0  0
  -21.6650   -6.9240   21.5470 O   0  0  0  0  0  0  0  0  0  0  0  0
  -21.6570   -6.1560   22.6830 C   0  0  0  0  0  0  0  0  0  0  0  0
  -21.3010   -6.6890   23.9410 C   0  0  0  0  0  3  0  0  0  0  0  0
  -21.2370   -5.8470   25.0690 C   0  0  0  0  0  3  0  0  0  0  0  0
  -21.5240   -4.4750   24.9410 C   0  0  0  0  0  0  0  0  0  0  0  0
  -21.8730   -3.9420   23.6890 C   0  0  0  0  0  3  0  0  0  0  0  0
  -21.9360   -4.7800   22.5630 C   0  0  0  0  0  0  0  0  0  0  0  0
  -22.2530   -4.2590   21.3520 F   0  0  0  0  0  0  0  0  0  0  0  0
  -21.4550   -3.6630   26.0230 F   0  0  0  0  0  0  0  0  0  0  0  0
  -22.7460  -13.5650   21.2130 C   0  0  0  0  0  0  0  0  0  0  0  0
  -22.0220  -12.8720   22.0850 N   0  0  0  0  0  0  0  0  0  0  0  0
  -22.3060  -14.5890   20.6920 O   0  0  0  0  0  0  0  0  0  0  0  0
  -22.3910  -12.0470   22.5320 H   0  0  0  0  0  0  0  0  0  0  0  0
  -21.0830  -13.1730   22.3090 H   0  0  0  0  0  0  0  0  0  0  0  0
  -25.3650  -15.2290   20.3990 N   0  0  0  0  0  0  0  0  0  0  0  0
  -24.5880  -15.8680   20.5240 H   0  0  0  0  0  0  0  0  0  0  0  0
  -26.2230  -15.6970   20.1380 H   0  0  0  0  0  0  0  0  0  0  0  0
  -26.8880  -18.2000   19.9670 C   0  0  0  0  0  2  0  0  0  0  0  0
  -28.0500  -17.5650   19.7490 C   0  0  0  0  0  3  0  0  0  0  0  0
  -28.8210  -20.3390   19.7140 O   0  0  0  0  0  0  0  0  0  0  0  0
  -29.2130  -21.6610   19.2820 C   0  0  0  0  0  2  0  0  0  0  0  0
  -28.8190  -22.7850   20.2840 C   0  0  0  0  0  2  0  0  0  0  0  0
  -28.7740  -24.2290   19.6910 C   0  0  0  0  0  2  0  0  0  0  0  0
  -28.3370  -25.3330   20.7000 C   0  0  0  0  0  2  0  0  0  0  0  0
  -28.4140  -26.6870   20.1920 O   0  0  0  0  0  0  0  0  0  0  0  0
  -24.5930  -31.9090   23.2470 C   0  0  0  0  0  0  0  0  0  0  0  0
  -27.2470  -27.4310   20.2030 C   0  0  0  0  0  0  0  0  0  0  0  0
  -23.3910  -30.4980   21.6090 C   0  0  0  0  0  3  0  0  0  0  0  0
  -24.8510  -28.9470   20.1990 C   0  0  0  0  0  0  0  0  0  0  0  0
  -25.9210  -30.8500   21.4180 C   0  0  0  0  0  2  0  0  0  0  0  0
  -26.0100  -29.4750   20.7830 C   0  0  0  0  0  0  0  0  0  0  0  0
  -27.2130  -28.7280   20.7720 C   0  0  0  0  0  3  0  0  0  0  0  0
  -26.0700  -26.9190   19.6190 C   0  0  0  0  0  3  0  0  0  0  0  0
  -24.8780  -27.6700   19.6120 C   0  0  0  0  0  3  0  0  0  0  0  0
  -23.6060  -29.8050   20.2370 C   0  0  0  0  0  2  0  0  0  0  0  0
  -24.6530  -31.1030   22.1490 N   0  0  0  0  0  0  0  0  0  0  0  0
  -23.5100  -32.1830   23.7840 O   0  0  0  0  0  0  0  0  0  0  0  0
  -22.7350  -29.4840   22.5750 C   0  0  0  0  0  0  0  0  0  0  0  0
  -21.4110  -29.3020   22.4450 N   0  0  0  0  0  0  0  0  0  0  0  0
  -23.4170  -28.8610   23.3940 O   0  0  0  0  0  0  0  0  0  0  0  0
  -20.9200  -29.8500   21.7510 H   0  0  0  0  0  0  0  0  0  0  0  0
  -18.0370  -28.1040   22.9390 C   0  0  0  0  0  0  0  0  0  0  0  0
  -20.5930  -28.3690   23.2190 C   0  0  0  0  0  3  0  0  0  0  0  0
  -20.6990  -26.9320   22.6590 C   0  0  0  0  0  2  0  0  0  0  0  0
  -19.6020  -26.6030   21.6390 C   0  0  0  0  0  2  0  0  0  0  0  0
  -18.2190  -26.7490   22.2790 C   0  0  0  0  0  2  0  0  0  0  0  0
  -19.1520  -28.8710   23.3690 C   0  0  0  0  0  0  0  0  0  0  0  0
  -18.9290  -30.1360   23.9520 C   0  0  0  0  0  3  0  0  0  0  0  0
  -17.6220  -30.6380   24.1080 C   0  0  0  0  0  3  0  0  0  0  0  0
  -16.5210  -29.8710   23.6900 C   0  0  0  0  0  3  0  0  0  0  0  0
  -16.7290  -28.6060   23.1110 C   0  0  0  0  0  3  0  0  0  0  0  0
  -25.8760  -32.5430   23.8690 C   0  0  0  0  0  3  0  0  0  0  0  0
  -25.5630  -33.9400   24.2020 N   0  0  0  0  0  0  0  0  0  0  0  0
  -25.8940  -34.9930   23.4440 C   0  0  0  0  0  0  0  0  0  0  0  0
  -26.5650  -34.8940   22.4130 O   0  0  0  0  0  0  0  0  0  0  0  0
  -24.9670  -34.0910   25.0010 H   0  0  0  0  0  0  0  0  0  0  0  0
  -24.1580  -36.7800   23.0940 C   0  0  0  0  0  1  0  0  0  0  0  0
  -25.4040  -36.3800   23.9020 C   0  0  0  0  0  3  0  0  0  0  0  0
  -27.5390  -37.2700   24.7240 C   0  0  0  0  0  1  0  0  0  0  0  0
  -26.4320  -37.4370   23.7860 N   0  0  0  0  0  0  0  0  0  0  0  0
  -26.0230  -38.3560   23.9350 H   0  0  0  0  0  0  0  0  0  0  0  0
  -26.3980  -31.7710   25.1440 C   0  0  1  0  0  0  0  0  0  0  0  0
  -25.3080  -31.5310   26.2140 C   0  0  0  0  0  1  0  0  0  0  0  0
  -26.9820  -30.3940   24.7480 C   0  0  0  0  0  1  0  0  0  0  0  0
  -27.5480  -32.5680   25.8040 C   0  0  0  0  0  1  0  0  0  0  0  0
  2  6  2  0
  3  4  1  0
  4 16  1  0
  4  1  2  0
  5  3  2  0
  5  2  1  0
  6  1  1  0
  6  7  1  0
  8 16  1  0
  9 14  1  0
 10 11  1  0
 10  9  1  0
 12 11  1  0
 12 21  1  0
 12 13  1  0
 14  8  1  0
 14 13  1  0
 15  8  2  0
 16 17  1  0
 18 19  2  0
 19 38  1  0
 20 19  1  0
 20 23  1  0
 21 18  1  0
 21 22  1  0
 22 20  2  0
 23 24  1  0
 24 25  2  0
 26 29  1  0
 26 25  1  0
 27 26  2  0
 28 27  1  0
 28 23  2  0
 29 30  1  0
 30 31  1  0
 31 32  2  0
 33 32  1  0
 33 37  1  0
 34 33  2  0
 35 30  2  0
 35 34  1  0
 36 35  1  0
 38 39  1  0
 39 42  1  0
 39 41  1  0
 40 38  2  0
 43 44  1  0
 43 18  1  0
 45 43  1  0
 47 46  2  0
 47  3  1  0
 48  5  1  0
 49 48  1  0
 49 50  1  0
 51 50  1  0
 51 52  1  0
 53 55  1  0
 53 52  1  0
 54 65  2  0
 55 60  1  0
 56 64  1  0
 56 66  1  0
 57 63  1  0
 57 59  1  0
 58 64  1  0
 59 58  1  0
 60 59  2  0
 61 55  2  0
 62 61  1  0
 62 57  2  0
 63 56  1  0
 64 54  1  0
 66 68  2  0
 67 66  1  0
 69 67  1  0
 70 79  2  0
 70 75  1  0
 71 67  1  0
 71 75  1  0
 72 71  1  0
 73 74  1  0
 73 72  1  0
 74 70  1  0
 75 76  2  0
 76 77  1  0
 78 77  2  0
 79 78  1  0
 80 54  1  0
 80 81  1  0
 80 90  1  0
 81 84  1  0
 82 86  1  0
 82 81  1  0
 83 82  2  0
 86 85  1  0
 88 86  1  0
 88 89  1  0
 88 87  1  0
 90 93  1  1
 90 91  1  0
 92 90  1  0
M  ISO  4   8 100  16 100  52 101  53 101
M  END
>  <TORSDO>  (53) 
F 22

>  <SCORE>  (53) 
-13.621

>  <name>  (53) 
53

>  <ligand_id>  (53) 
53

>  <original_smiles>  (53) 
[H]C([H])=C([H])c1c(OC([H])([H])C([H])([H])C([H])([H])C([H])([H])Oc2c([H])c([H])c3c(c2[H])C([H])([H])N(C(=O)C([H])(N([H])C(=O)C([H])(N([H])C([H])([H])[H])C([H])([H])[H])C(C([H])([H])[H])(C([H])([H])[H])C([H])([H])[H])C([H])(C(=O)N([H])C2([H])c4c([H])c([H])c([H])c([H])c4C([H])([H])C([H])([H])C2([H])[H])C3([H])[H])c([H])c(F)c([H])c1N([H])C(=O)N1C([H])([H])C([H])([H])C([H])([H])C([H])(n2nc(-c3c([H])c([H])c(Oc4c([H])c([H])c(F)c([H])c4F)c([H])c3[H])c(C(=O)N([H])[H])c2N([H])[H])C1([H])[H]

>  <smiles>  (53) 
[H]C([H])=C([H])c1c(OC([H])([H])C([H])([H])C([H])([H])C([H])([H])Oc2c([H])c([H])c3c(c2[H])C([H])([H])N(C(=O)C([H])(N([H])C(=O)C([H])(N([H])C([H])([H])[H])C([H])([H])[H])C(C([H])([H])[H])(C([H])([H])[H])C([H])([H])[H])C([H])(C(=O)N([H])C2([H])c4c([H])c([H])c([H])c([H])c4C([H])([H])C([H])([H])C2([H])[H])C3([H])[H])c([H])c(F)c([H])c1N([H])C(=O)N1C([H])([H])C([H])([H])C([H])([H])C([H])(n2nc(-c3c([H])c([H])c(Oc4c([H])c([H])c(F)c([H])c4F)c([H])c3[H])c(C(=O)N([H])[H])c2N([H])[H])C1([H])[H]

$$$$
54:0:0
     RDKit          3D

 90 98  0  0  1  0  0  0  0  0999 V2000
  -29.7530  -19.0200   19.6800 C   0  0  0  0  0  3  0  0  0  0  0  0
  -31.1660  -17.9760   21.3260 C   0  0  0  0  0  3  0  0  0  0  0  0
  -29.7830  -20.3410   20.3850 C   0  0  0  0  0  0  0  0  0  0  0  0
  -30.4510  -17.7710   20.1420 C   0  0  0  0  0  0  0  0  0  0  0  0
  -30.4930  -20.2200   21.6070 C   0  0  0  0  0  0  0  0  0  0  0  0
  -31.1710  -19.1280   22.0330 N   0  0  0  0  0  0  0  0  0  0  0  0
  -31.1480  -15.1040   19.8380 C   0  0  0  0  0  0  0  0  0  0  0  0
  -30.9310  -12.7030   19.0040 C   0  0  0  0  0  2  0  0  0  0  0  0
  -29.9460  -12.6000   17.8110 C   0  0  0  0  0  2  0  0  0  0  0  0
  -28.4770  -12.5330   18.2870 C   0  0  0  0  0  2  0  0  0  0  0  0
  -28.1680  -13.5510   19.4190 C   0  0  0  0  0  3  0  0  0  0  0  0
  -29.2520  -13.5340   20.5140 C   0  0  0  0  0  2  0  0  0  0  0  0
  -30.5140  -13.8630   19.8430 N   0  0  0  0  0  0  0  0  0  0  0  0
  -32.3680  -15.1080   19.6380 O   0  0  0  0  0  0  0  0  0  0  0  0
  -30.3530  -16.2920   19.6950 N   0  0  0  0  0  0  0  0  0  0  0  0
  -29.3910  -16.0280   19.5410 H   0  0  0  0  0  0  0  0  0  0  0  0
  -25.8900  -14.3790   20.2380 C   0  0  0  0  0  0  0  0  0  0  0  0
  -24.7630  -13.7210   20.6420 C   0  0  0  0  0  0  0  0  0  0  0  0
  -25.0820  -12.3290   20.5940 C   0  0  0  0  0  0  0  0  0  0  0  0
  -26.8260  -13.3950   19.9630 N   0  0  0  0  0  0  0  0  0  0  0  0
  -26.3480  -12.1550   20.2390 N   0  0  0  0  0  0  0  0  0  0  0  0
  -24.2340  -11.1520   20.7980 C   0  0  0  0  0  0  0  0  0  0  0  0
  -24.6180  -10.1010   21.6600 C   0  0  0  0  0  3  0  0  0  0  0  0
  -23.7730   -8.9880   21.8550 C   0  0  0  0  0  3  0  0  0  0  0  0
  -22.5290   -8.9200   21.1840 C   0  0  0  0  0  0  0  0  0  0  0  0
  -22.1570   -9.9580   20.3110 C   0  0  0  0  0  3  0  0  0  0  0  0
  -23.0050  -11.0620   20.1130 C   0  0  0  0  0  3  0  0  0  0  0  0
  -21.6550   -7.8650   21.2910 O   0  0  0  0  0  0  0  0  0  0  0  0
  -21.6650   -7.0270   22.3750 C   0  0  0  0  0  0  0  0  0  0  0  0
  -21.4840   -7.5080   23.6890 C   0  0  0  0  0  3  0  0  0  0  0  0
  -21.4340   -6.6050   24.7700 C   0  0  0  0  0  3  0  0  0  0  0  0
  -21.5560   -5.2210   24.5360 C   0  0  0  0  0  0  0  0  0  0  0  0
  -21.7370   -4.7400   23.2270 C   0  0  0  0  0  3  0  0  0  0  0  0
  -21.7870   -5.6420   22.1490 C   0  0  0  0  0  0  0  0  0  0  0  0
  -21.9350   -5.1710   20.8870 F   0  0  0  0  0  0  0  0  0  0  0  0
  -21.5020   -4.3520   25.5730 F   0  0  0  0  0  0  0  0  0  0  0  0
  -23.4350  -14.3450   20.9510 C   0  0  0  0  0  0  0  0  0  0  0  0
  -22.6690  -13.7410   21.8510 N   0  0  0  0  0  0  0  0  0  0  0  0
  -23.0920  -15.4070   20.4340 O   0  0  0  0  0  0  0  0  0  0  0  0
  -22.9660  -12.8840   22.2930 H   0  0  0  0  0  0  0  0  0  0  0  0
  -21.7730  -14.1410   22.0930 H   0  0  0  0  0  0  0  0  0  0  0  0
  -26.1840  -15.7280   20.0510 N   0  0  0  0  0  0  0  0  0  0  0  0
  -25.4600  -16.4350   20.1440 H   0  0  0  0  0  0  0  0  0  0  0  0
  -27.0410  -16.0890   19.6580 H   0  0  0  0  0  0  0  0  0  0  0  0
  -29.1900  -21.8290   20.0670 C   0  0  0  0  0  2  0  0  0  0  0  0
  -29.2810  -23.2680   20.1760 C   0  0  0  0  0  3  0  0  0  0  0  0
  -28.1860  -24.5230   20.2110 C   0  0  0  0  0  3  0  0  0  0  0  0
  -28.4890  -26.0780   20.1810 O   0  0  0  0  0  0  0  0  0  0  0  0
  -24.5450  -31.6280   23.1190 C   0  0  0  0  0  0  0  0  0  0  0  0
  -27.4160  -27.0550   20.0910 C   0  0  0  0  0  0  0  0  0  0  0  0
  -23.4460  -30.1660   21.4700 C   0  0  0  0  0  3  0  0  0  0  0  0
  -24.9970  -28.6990   20.0430 C   0  0  0  0  0  0  0  0  0  0  0  0
  -25.9840  -30.5890   21.3190 C   0  0  0  0  0  2  0  0  0  0  0  0
  -26.1520  -29.2020   20.6600 C   0  0  0  0  0  0  0  0  0  0  0  0
  -27.3600  -28.3970   20.6640 C   0  0  0  0  0  3  0  0  0  0  0  0
  -26.2260  -26.6700   19.4290 C   0  0  0  0  0  3  0  0  0  0  0  0
  -25.0520  -27.4470   19.4140 C   0  0  0  0  0  3  0  0  0  0  0  0
  -23.7170  -29.5190   20.0870 C   0  0  0  0  0  2  0  0  0  0  0  0
  -24.6780  -30.8170   22.0220 N   0  0  0  0  0  0  0  0  0  0  0  0
  -23.4420  -31.8330   23.6450 O   0  0  0  0  0  0  0  0  0  0  0  0
  -22.8380  -29.1060   22.4220 C   0  0  0  0  0  0  0  0  0  0  0  0
  -21.5400  -28.7990   22.2500 N   0  0  0  0  0  0  0  0  0  0  0  0
  -23.5390  -28.5630   23.2820 O   0  0  0  0  0  0  0  0  0  0  0  0
  -21.0270  -29.2930   21.5360 H   0  0  0  0  0  0  0  0  0  0  0  0
  -18.3110  -27.1850   22.5950 C   0  0  0  0  0  0  0  0  0  0  0  0
  -20.7910  -27.7870   23.0010 C   0  0  0  0  0  3  0  0  0  0  0  0
  -21.1150  -26.3610   22.4900 C   0  0  0  0  0  2  0  0  0  0  0  0
  -20.1220  -25.8620   21.4350 C   0  0  0  0  0  2  0  0  0  0  0  0
  -18.7050  -25.8400   22.0090 C   0  0  0  0  0  2  0  0  0  0  0  0
  -19.2900  -28.1030   23.0520 C   0  0  0  0  0  0  0  0  0  0  0  0
  -18.8730  -29.3510   23.5670 C   0  0  0  0  0  3  0  0  0  0  0  0
  -17.5080  -29.6820   23.6300 C   0  0  0  0  0  3  0  0  0  0  0  0
  -16.5410  -28.7650   23.1850 C   0  0  0  0  0  3  0  0  0  0  0  0
  -16.9410  -27.5200   22.6730 C   0  0  0  0  0  3  0  0  0  0  0  0
  -25.7710  -32.3520   23.7490 C   0  0  0  0  0  3  0  0  0  0  0  0
  -26.3190  -31.6290   25.0390 C   0  0  1  0  0  0  0  0  0  0  0  0
  -25.2290  -31.3350   26.0970 C   0  0  0  0  0  1  0  0  0  0  0  0
  -26.9920  -30.2850   24.6780 C   0  0  0  0  0  1  0  0  0  0  0  0
  -27.4070  -32.5010   25.7040 C   0  0  0  0  0  1  0  0  0  0  0  0
  -25.3630  -33.7300   24.0690 N   0  0  0  0  0  0  0  0  0  0  0  0
  -25.6670  -34.8100   23.3350 C   0  0  0  0  0  0  0  0  0  0  0  0
  -26.3840  -34.7510   22.3330 O   0  0  0  0  0  0  0  0  0  0  0  0
  -24.7240  -33.8390   24.8420 H   0  0  0  0  0  0  0  0  0  0  0  0
  -23.8550  -36.5080   22.9260 C   0  0  0  0  0  1  0  0  0  0  0  0
  -25.0860  -36.1680   23.7820 C   0  0  0  0  0  3  0  0  0  0  0  0
  -27.1380  -37.1660   24.6920 C   0  0  0  0  0  1  0  0  0  0  0  0
  -26.0640  -37.2760   23.7080 N   0  0  0  0  0  0  0  0  0  0  0  0
  -25.6060  -38.1750   23.8380 H   0  0  0  0  0  0  0  0  0  0  0  0
  -30.0930  -20.9280   23.8410 C   0  0  0  0  0  1  0  0  0  0  0  0
  -30.4710  -21.2680   22.4990 O   0  0  0  0  0  0  0  0  0  0  0  0
  1  4  1  0
  1  3  2  0
  2  6  1  0
  3  5  1  0
  4  2  2  0
  5  6  2  0
  5 90  1  0
  7 13  1  0
  8 13  1  0
  9 10  1  0
  9  8  1  0
 11 10  1  0
 11 20  1  0
 11 12  1  0
 13 12  1  0
 14  7  2  0
 15  7  1  0
 15  4  1  0
 16 15  1  0
 17 18  2  0
 18 37  1  0
 19 18  1  0
 19 22  1  0
 20 17  1  0
 20 21  1  0
 21 19  2  0
 22 23  1  0
 23 24  2  0
 25 28  1  0
 25 24  1  0
 26 25  2  0
 27 26  1  0
 27 22  2  0
 28 29  1  0
 29 30  1  0
 30 31  2  0
 32 31  1  0
 32 36  1  0
 33 32  2  0
 34 29  2  0
 34 33  1  0
 35 34  1  0
 37 38  1  0
 38 41  1  0
 38 40  1  0
 39 37  2  0
 42 43  1  0
 42 17  1  0
 44 42  1  0
 45 46  1  0
 45  3  1  0
 46 47  2  0
 48 47  1  0
 49 60  2  0
 50 48  1  0
 50 55  1  0
 51 59  1  0
 51 61  1  0
 52 58  1  0
 52 54  1  0
 53 59  1  0
 54 55  2  0
 54 53  1  0
 56 50  2  0
 57 56  1  0
 57 52  2  0
 58 51  1  0
 59 49  1  0
 61 63  2  0
 62 61  1  0
 64 62  1  0
 65 74  2  0
 65 70  1  0
 66 62  1  0
 66 70  1  0
 67 66  1  0
 68 69  1  0
 68 67  1  0
 69 65  1  0
 70 71  2  0
 71 72  1  0
 73 72  2  0
 74 73  1  0
 75 49  1  0
 75 80  1  0
 75 76  1  0
 76 79  1  1
 76 77  1  0
 78 76  1  0
 80 83  1  0
 81 85  1  0
 81 80  1  0
 82 81  2  0
 85 84  1  0
 87 85  1  0
 87 88  1  0
 87 86  1  0
 90 89  1  0
M  ISO  4   7 100  15 100  47 101  48 101
M  END
>  <TORSDO>  (54) 
F 19

>  <SCORE>  (54) 
-12.815

>  <name>  (54) 
54

>  <ligand_id>  (54) 
54

>  <original_smiles>  (54) 
[H]C(=C([H])C([H])([H])Oc1c([H])c([H])c2c(c1[H])C([H])([H])N(C(=O)C([H])(N([H])C(=O)C([H])(N([H])C([H])([H])[H])C([H])([H])[H])C(C([H])([H])[H])(C([H])([H])[H])C([H])([H])[H])C([H])(C(=O)N([H])C1([H])c3c([H])c([H])c([H])c([H])c3C([H])([H])C([H])([H])C1([H])[H])C2([H])[H])c1c(OC([H])([H])[H])nc([H])c(N([H])C(=O)N2C([H])([H])C([H])([H])C([H])([H])C([H])(n3nc(-c4c([H])c([H])c(Oc5c([H])c([H])c(F)c([H])c5F)c([H])c4[H])c(C(=O)N([H])[H])c3N([H])[H])C2([H])[H])c1[H]

>  <smiles>  (54) 
[H]C(=C([H])C([H])([H])Oc1c([H])c([H])c2c(c1[H])C([H])([H])N(C(=O)C([H])(N([H])C(=O)C([H])(N([H])C([H])([H])[H])C([H])([H])[H])C(C([H])([H])[H])(C([H])([H])[H])C([H])([H])[H])C([H])(C(=O)N([H])C1([H])c3c([H])c([H])c([H])c([H])c3C([H])([H])C([H])([H])C1([H])[H])C2([H])[H])c1c(OC([H])([H])[H])nc([H])c(N([H])C(=O)N2C([H])([H])C([H])([H])C([H])([H])C([H])(n3nc(-c4c([H])c([H])c(Oc5c([H])c([H])c(F)c([H])c5F)c([H])c4[H])c(C(=O)N([H])[H])c3N([H])[H])C2([H])[H])c1[H]

$$$$
55:0:0
     RDKit          3D

100109  0  0  1  0  0  0  0  0999 V2000
  -32.1670  -18.1570   19.9720 C   0  0  0  0  0  3  0  0  0  0  0  0
  -30.8240  -18.3320   17.9040 C   0  0  0  0  0  2  0  0  0  0  0  0
  -28.7330  -18.1200   19.1610 C   0  0  0  0  0  2  0  0  0  0  0  0
  -31.6390  -16.9050   20.4040 C   0  0  0  0  0  0  0  0  0  0  0  0
  -31.6050  -18.9780   18.9930 C   0  0  0  0  0  3  0  0  0  0  0  0
  -29.6520  -18.9800   18.5510 C   0  0  0  0  0  3  0  0  0  0  0  0
  -30.3290  -16.3090   20.1690 C   0  0  0  0  0  0  0  0  0  0  0  0
  -29.0640  -16.8600   19.7320 C   0  0  0  0  0  0  0  0  0  0  0  0
  -30.4980  -19.7440   19.3660 N   0  0  0  0  0  0  0  0  0  0  0  0
  -30.3380  -14.0770   19.3340 C   0  0  0  0  0  0  0  0  0  0  0  0
  -29.6810  -12.0440   18.1080 C   0  0  0  0  0  2  0  0  0  0  0  0
  -28.5670  -12.3280   17.0850 C   0  0  0  0  0  2  0  0  0  0  0  0
  -27.1850  -12.1800   17.7440 C   0  0  0  0  0  2  0  0  0  0  0  0
  -27.0800  -12.9710   19.0730 C   0  0  0  0  0  3  0  0  0  0  0  0
  -28.2930  -12.7020   19.9850 C   0  0  0  0  0  2  0  0  0  0  0  0
  -29.5380  -12.9740   19.2440 N   0  0  0  0  0  0  0  0  0  0  0  0
  -31.1570  -14.3380   18.4460 O   0  0  0  0  0  0  0  0  0  0  0  0
  -30.3580  -14.4110   21.7970 C   0  0  0  0  0  1  0  0  0  0  0  0
  -30.2260  -14.8950   20.4130 N   0  0  0  0  0  0  0  0  0  0  0  0
  -24.8340  -13.5590   20.1880 C   0  0  0  0  0  0  0  0  0  0  0  0
  -23.8440  -12.7780   20.7230 C   0  0  0  0  0  0  0  0  0  0  0  0
  -24.2910  -11.4280   20.5880 C   0  0  0  0  0  0  0  0  0  0  0  0
  -25.8230  -12.6850   19.7670 N   0  0  0  0  0  0  0  0  0  0  0  0
  -25.5100  -11.3970   20.0640 N   0  0  0  0  0  0  0  0  0  0  0  0
  -23.6050  -10.1630   20.8750 C   0  0  0  0  0  0  0  0  0  0  0  0
  -24.0920   -9.2630   21.8500 C   0  0  0  0  0  3  0  0  0  0  0  0
  -23.4050   -8.0600   22.1210 C   0  0  0  0  0  3  0  0  0  0  0  0
  -22.2160   -7.7480   21.4190 C   0  0  0  0  0  0  0  0  0  0  0  0
  -21.7490   -8.6360   20.4330 C   0  0  0  0  0  3  0  0  0  0  0  0
  -22.4370   -9.8300   20.1610 C   0  0  0  0  0  3  0  0  0  0  0  0
  -21.4970   -6.5920   21.5960 O   0  0  0  0  0  0  0  0  0  0  0  0
  -21.4240   -5.9690   22.8180 C   0  0  0  0  0  0  0  0  0  0  0  0
  -20.9070   -6.6210   23.9580 C   0  0  0  0  0  3  0  0  0  0  0  0
  -20.7860   -5.9200   25.1750 C   0  0  0  0  0  3  0  0  0  0  0  0
  -21.1720   -4.5690   25.2510 C   0  0  0  0  0  0  0  0  0  0  0  0
  -21.6800   -3.9160   24.1150 C   0  0  0  0  0  3  0  0  0  0  0  0
  -21.8030   -4.6130   22.9010 C   0  0  0  0  0  0  0  0  0  0  0  0
  -22.2730   -3.9730   21.8030 F   0  0  0  0  0  0  0  0  0  0  0  0
  -21.0480   -3.8920   26.4170 F   0  0  0  0  0  0  0  0  0  0  0  0
  -22.5160  -13.2500   21.2420 C   0  0  0  0  0  0  0  0  0  0  0  0
  -21.9570  -12.5510   22.2240 N   0  0  0  0  0  0  0  0  0  0  0  0
  -21.9870  -14.2740   20.8120 O   0  0  0  0  0  0  0  0  0  0  0  0
  -22.3950  -11.7210   22.5910 H   0  0  0  0  0  0  0  0  0  0  0  0
  -21.0740  -12.8520   22.6140 H   0  0  0  0  0  0  0  0  0  0  0  0
  -24.9660  -14.9310   20.0100 N   0  0  0  0  0  0  0  0  0  0  0  0
  -24.2390  -15.5850   20.2730 H   0  0  0  0  0  0  0  0  0  0  0  0
  -25.8040  -15.3780   19.6550 H   0  0  0  0  0  0  0  0  0  0  0  0
  -27.0230  -16.4680   20.8260 C   0  0  0  0  0  1  0  0  0  0  0  0
  -27.9770  -16.0250   19.8680 O   0  0  0  0  0  0  0  0  0  0  0  0
  -33.8200  -15.6710   20.6930 C   0  0  0  0  0  2  0  0  0  0  0  0
  -32.6450  -16.1210   21.1680 C   0  0  0  0  0  3  0  0  0  0  0  0
  -30.2110  -20.2290   20.7190 C   0  0  0  0  0  2  0  0  0  0  0  0
  -29.6350  -21.6640   20.6860 C   0  0  0  0  0  2  0  0  0  0  0  0
  -30.6380  -22.7630   20.2730 C   0  0  0  0  0  0  0  0  0  0  0  0
  -31.8500  -22.5220   20.1820 O   0  0  0  0  0  0  0  0  0  0  0  0
  -30.1210  -24.2040   20.0030 C   0  0  0  0  0  0  0  0  0  0  0  0
  -30.8620  -25.0420   19.4710 O   0  0  0  0  0  0  0  0  0  0  0  0
  -28.6950  -24.5840   20.4190 C   0  0  0  0  0  2  0  0  0  0  0  0
  -27.8420  -25.1700   19.2800 C   0  0  0  0  0  2  0  0  0  0  0  0
  -27.9890  -26.5960   19.2040 O   0  0  0  0  0  0  0  0  0  0  0  0
  -24.6780  -31.5190   23.1040 C   0  0  0  0  0  0  0  0  0  0  0  0
  -26.8470  -27.3550   19.3570 C   0  0  0  0  0  0  0  0  0  0  0  0
  -23.2780  -30.3700   21.4180 C   0  0  0  0  0  3  0  0  0  0  0  0
  -24.5380  -28.9450   19.7200 C   0  0  0  0  0  0  0  0  0  0  0  0
  -25.7960  -30.6410   21.0590 C   0  0  0  0  0  2  0  0  0  0  0  0
  -25.7610  -29.3510   20.2690 C   0  0  0  0  0  0  0  0  0  0  0  0
  -26.9180  -28.5620   20.0830 C   0  0  0  0  0  3  0  0  0  0  0  0
  -25.6090  -26.9730   18.7900 C   0  0  0  0  0  3  0  0  0  0  0  0
  -24.4550  -27.7550   18.9780 C   0  0  0  0  0  3  0  0  0  0  0  0
  -23.3460  -29.8440   19.9600 C   0  0  0  0  0  2  0  0  0  0  0  0
  -24.6070  -30.8500   21.9190 N   0  0  0  0  0  0  0  0  0  0  0  0
  -23.6560  -31.7750   23.7580 O   0  0  0  0  0  0  0  0  0  0  0  0
  -22.6480  -29.2750   22.3080 C   0  0  0  0  0  0  0  0  0  0  0  0
  -21.3170  -29.1260   22.2200 N   0  0  0  0  0  0  0  0  0  0  0  0
  -23.3530  -28.5660   23.0330 O   0  0  0  0  0  0  0  0  0  0  0  0
  -20.8110  -29.7510   21.6080 H   0  0  0  0  0  0  0  0  0  0  0  0
  -17.9470  -27.9200   22.7090 C   0  0  0  0  0  0  0  0  0  0  0  0
  -20.5130  -28.1360   22.9350 C   0  0  0  0  0  3  0  0  0  0  0  0
  -20.5880  -26.7550   22.2440 C   0  0  0  0  0  2  0  0  0  0  0  0
  -19.4580  -26.5220   21.2360 C   0  0  0  0  0  2  0  0  0  0  0  0
  -18.0940  -26.6280   21.9240 C   0  0  0  0  0  2  0  0  0  0  0  0
  -19.0840  -28.6360   23.1700 C   0  0  0  0  0  0  0  0  0  0  0  0
  -18.8930  -29.8510   23.8630 C   0  0  0  0  0  3  0  0  0  0  0  0
  -17.5980  -30.3490   24.1010 C   0  0  0  0  0  3  0  0  0  0  0  0
  -16.4760  -29.6270   23.6580 C   0  0  0  0  0  3  0  0  0  0  0  0
  -16.6520  -28.4150   22.9670 C   0  0  0  0  0  3  0  0  0  0  0  0
  -26.0400  -32.0140   23.6840 C   0  0  0  0  0  3  0  0  0  0  0  0
  -25.8280  -33.3680   24.2140 N   0  0  0  0  0  0  0  0  0  0  0  0
  -26.1580  -34.4960   23.5730 C   0  0  0  0  0  0  0  0  0  0  0  0
  -26.7470  -34.5030   22.4880 O   0  0  0  0  0  0  0  0  0  0  0  0
  -25.3030  -33.4390   25.0740 H   0  0  0  0  0  0  0  0  0  0  0  0
  -24.5210  -36.4050   23.5600 C   0  0  0  0  0  1  0  0  0  0  0  0
  -25.7720  -35.8290   24.2410 C   0  0  0  0  0  3  0  0  0  0  0  0
  -27.9860  -36.4870   25.0770 C   0  0  0  0  0  1  0  0  0  0  0  0
  -26.8580  -36.8350   24.2160 N   0  0  0  0  0  0  0  0  0  0  0  0
  -26.5110  -37.7460   24.5030 H   0  0  0  0  0  0  0  0  0  0  0  0
  -26.6260  -31.0610   24.7980 C   0  0  1  0  0  0  0  0  0  0  0  0
  -25.6120  -30.7080   25.9100 C   0  0  0  0  0  1  0  0  0  0  0  0
  -27.1240  -29.7360   24.1740 C   0  0  0  0  0  1  0  0  0  0  0  0
  -27.8540  -31.7260   25.4630 C   0  0  0  0  0  1  0  0  0  0  0  0
  1  4  2  0
  3  8  1  0
  4 51  1  0
  5  2  1  0
  5  9  1  0
  5  1  1  0
  6  2  1  0
  6  3  1  0
  6  9  1  0
  7  4  1  0
  7 19  1  0
  8 49  1  0
  8  7  2  0
  9 52  1  0
 10 19  1  0
 11 16  1  0
 12 13  1  0
 12 11  1  0
 14 13  1  0
 14 23  1  0
 14 15  1  0
 16 10  1  0
 16 15  1  0
 17 10  2  0
 19 18  1  0
 20 21  2  0
 21 40  1  0
 22 21  1  0
 22 25  1  0
 23 24  1  0
 23 20  1  0
 24 22  2  0
 25 26  1  0
 26 27  2  0
 28 31  1  0
 28 27  1  0
 29 28  2  0
 30 29  1  0
 30 25  2  0
 31 32  1  0
 32 37  2  0
 32 33  1  0
 33 34  2  0
 34 35  1  0
 35 39  1  0
 36 35  2  0
 37 36  1  0
 38 37  1  0
 40 41  1  0
 41 43  1  0
 41 44  1  0
 42 40  2  0
 45 20  1  0
 45 46  1  0
 47 45  1  0
 49 48  1  0
 50 51  2  0
 53 52  1  0
 54 53  1  0
 55 54  2  0
 56 54  1  0
 56 58  1  0
 57 56  2  0
 59 58  1  0
 60 59  1  0
 60 62  1  0
 61 72  2  0
 62 67  1  0
 63 71  1  0
 63 73  1  0
 64 70  1  0
 64 66  1  0
 65 71  1  0
 66 65  1  0
 67 66  2  0
 68 69  1  0
 68 62  2  0
 69 64  2  0
 70 63  1  0
 71 61  1  0
 73 75  2  0
 74 73  1  0
 76 74  1  0
 77 86  2  0
 77 82  1  0
 78 74  1  0
 78 82  1  0
 79 78  1  0
 80 81  1  0
 80 79  1  0
 81 77  1  0
 82 83  2  0
 83 84  1  0
 85 84  2  0
 86 85  1  0
 87 61  1  0
 87 88  1  0
 87 97  1  0
 88 91  1  0
 89 88  1  0
 89 93  1  0
 90 89  2  0
 93 92  1  0
 95 93  1  0
 95 96  1  0
 95 94  1  0
 97100  1  1
 97 98  1  0
 99 97  1  0
M  ISO  4  10 100  19 100  59 101  60 101
M  END
>  <TORSDO>  (55) 
F 24

>  <SCORE>  (55) 
-6.840

>  <name>  (55) 
55

>  <ligand_id>  (55) 
55

>  <original_smiles>  (55) 
[H]C([H])=C([H])C1=C(N(C(=O)N2C([H])([H])C([H])([H])C([H])([H])C([H])(n3nc(-c4c([H])c([H])c(Oc5c([H])c([H])c(F)c([H])c5F)c([H])c4[H])c(C(=O)N([H])[H])c3N([H])[H])C2([H])[H])C([H])([H])[H])C(OC([H])([H])[H])=C([H])C2=C([H])C(=C1[H])N2C([H])([H])C([H])([H])C(=O)C(=O)C([H])([H])C([H])([H])Oc1c([H])c([H])c2c(c1[H])C([H])([H])N(C(=O)C([H])(N([H])C(=O)C([H])(N([H])C([H])([H])[H])C([H])([H])[H])C(C([H])([H])[H])(C([H])([H])[H])C([H])([H])[H])C([H])(C(=O)N([H])C1([H])c3c([H])c([H])c([H])c([H])c3C([H])([H])C([H])([H])C1([H])[H])C2([H])[H]

>  <smiles>  (55) 
[H]C([H])=C([H])C1=C(N(C(=O)N2C([H])([H])C([H])([H])C([H])([H])C([H])(n3nc(-c4c([H])c([H])c(Oc5c([H])c([H])c(F)c([H])c5F)c([H])c4[H])c(C(=O)N([H])[H])c3N([H])[H])C2([H])[H])C([H])([H])[H])C(OC([H])([H])[H])=C([H])C2=C([H])C(=C1[H])N2C([H])([H])C([H])([H])C(=O)C(=O)C([H])([H])C([H])([H])Oc1c([H])c([H])c2c(c1[H])C([H])([H])N(C(=O)C([H])(N([H])C(=O)C([H])(N([H])C([H])([H])[H])C([H])([H])[H])C(C([H])([H])[H])(C([H])([H])[H])C([H])([H])[H])C([H])(C(=O)N([H])C1([H])c3c([H])c([H])c([H])c([H])c3C([H])([H])C([H])([H])C1([H])[H])C2([H])[H]

$$$$
56:0:0
     RDKit          3D

 96104  0  0  1  0  0  0  0  0999 V2000
  -30.0830  -17.5230   18.8690 C   0  0  0  0  0  3  0  0  0  0  0  0
  -29.5990  -18.6860   20.9460 C   0  0  0  0  0  3  0  0  0  0  0  0
  -29.8770  -18.7370   18.1760 C   0  0  0  0  0  0  0  0  0  0  0  0
  -29.9290  -17.4180   20.2660 C   0  0  0  0  0  0  0  0  0  0  0  0
  -29.4600  -19.9940   20.2740 C   0  0  0  0  0  0  0  0  0  0  0  0
  -29.5910  -19.9480   18.8600 C   0  0  0  0  0  0  0  0  0  0  0  0
  -29.2790  -21.3720   17.9210 Cl  0  0  0  0  0  0  0  0  0  0  0  0
  -30.6690  -14.8740   20.4300 C   0  0  0  0  0  0  0  0  0  0  0  0
  -30.4500  -12.6230   19.3430 C   0  0  0  0  0  2  0  0  0  0  0  0
  -29.5320  -12.7590   18.1050 C   0  0  0  0  0  2  0  0  0  0  0  0
  -28.0540  -12.5940   18.5060 C   0  0  0  0  0  2  0  0  0  0  0  0
  -27.6830  -13.4280   19.7640 C   0  0  0  0  0  3  0  0  0  0  0  0
  -28.7260  -13.2740   20.8920 C   0  0  0  0  0  2  0  0  0  0  0  0
  -30.0340  -13.6470   20.3380 N   0  0  0  0  0  0  0  0  0  0  0  0
  -31.8380  -14.9620   20.0450 O   0  0  0  0  0  0  0  0  0  0  0  0
  -29.9600  -16.0200   20.8350 N   0  0  0  0  0  0  0  0  0  0  0  0
  -29.1750  -15.8060   21.4330 H   0  0  0  0  0  0  0  0  0  0  0  0
  -25.2810  -14.0240   20.4280 C   0  0  0  0  0  0  0  0  0  0  0  0
  -24.2050  -13.2570   20.7830 C   0  0  0  0  0  0  0  0  0  0  0  0
  -24.6670  -11.9050   20.7810 C   0  0  0  0  0  0  0  0  0  0  0  0
  -26.3290  -13.1410   20.2270 N   0  0  0  0  0  0  0  0  0  0  0  0
  -25.9650  -11.8610   20.5010 N   0  0  0  0  0  0  0  0  0  0  0  0
  -23.9330  -10.6470   20.9750 C   0  0  0  0  0  0  0  0  0  0  0  0
  -24.3180   -9.7090   21.9580 C   0  0  0  0  0  3  0  0  0  0  0  0
  -23.5840   -8.5160   22.1370 C   0  0  0  0  0  3  0  0  0  0  0  0
  -22.4500   -8.2530   21.3320 C   0  0  0  0  0  0  0  0  0  0  0  0
  -22.0850   -9.1780   20.3390 C   0  0  0  0  0  3  0  0  0  0  0  0
  -22.8200  -10.3610   20.1590 C   0  0  0  0  0  3  0  0  0  0  0  0
  -21.6940   -7.1080   21.4160 O   0  0  0  0  0  0  0  0  0  0  0  0
  -21.5620   -6.4170   22.5940 C   0  0  0  0  0  0  0  0  0  0  0  0
  -21.0410   -7.0220   23.7580 C   0  0  0  0  0  3  0  0  0  0  0  0
  -20.8560   -6.2570   24.9260 C   0  0  0  0  0  3  0  0  0  0  0  0
  -21.1840   -4.8880   24.9330 C   0  0  0  0  0  0  0  0  0  0  0  0
  -21.6990   -4.2830   23.7730 C   0  0  0  0  0  3  0  0  0  0  0  0
  -21.8850   -5.0450   22.6070 C   0  0  0  0  0  0  0  0  0  0  0  0
  -22.3600   -4.4530   21.4850 F   0  0  0  0  0  0  0  0  0  0  0  0
  -21.0010   -4.1500   26.0530 F   0  0  0  0  0  0  0  0  0  0  0  0
  -22.8030  -13.7420   21.0160 C   0  0  0  0  0  0  0  0  0  0  0  0
  -22.0530  -13.0650   21.8780 N   0  0  0  0  0  0  0  0  0  0  0  0
  -22.3800  -14.7580   20.4670 O   0  0  0  0  0  0  0  0  0  0  0  0
  -22.4080  -12.2460   22.3490 H   0  0  0  0  0  0  0  0  0  0  0  0
  -21.1110  -13.3720   22.0720 H   0  0  0  0  0  0  0  0  0  0  0  0
  -25.4550  -15.3920   20.2400 N   0  0  0  0  0  0  0  0  0  0  0  0
  -24.6930  -16.0540   20.3450 H   0  0  0  0  0  0  0  0  0  0  0  0
  -26.3280  -15.8300   19.9760 H   0  0  0  0  0  0  0  0  0  0  0  0
  -29.8640  -18.6970   16.6500 C   0  0  0  0  0  2  0  0  0  0  0  0
  -28.5400  -19.1190   14.6150 C   0  0  0  0  0  1  0  0  0  0  0  0
  -27.3720  -18.5790   16.7060 C   0  0  0  0  0  1  0  0  0  0  0  0
  -28.5760  -19.1910   16.0910 N   0  0  1  0  0  4  0  0  0  0  0  0
  -28.5390  -20.1750   16.3160 H   0  0  0  0  0  0  0  0  0  0  0  0
  -29.0710  -21.2640   20.8650 O   0  0  0  0  0  0  0  0  0  0  0  0
  -29.4870  -23.8390   20.5910 C   0  0  0  0  0  3  0  0  0  0  0  0
  -29.8330  -22.4780   20.7580 C   0  0  0  0  0  0  0  0  0  0  0  0
  -31.3190  -22.1580   20.8830 C   0  0  0  0  0  1  0  0  0  0  0  0
  -28.2180  -24.8000   20.4070 C   0  0  0  0  0  2  0  0  0  0  0  0
  -28.4360  -26.3200   20.4010 O   0  0  0  0  0  0  0  0  0  0  0  0
  -24.6930  -31.9710   23.1520 C   0  0  0  0  0  0  0  0  0  0  0  0
  -27.3400  -27.2320   20.3030 C   0  0  0  0  0  0  0  0  0  0  0  0
  -23.5120  -30.5060   21.5580 C   0  0  0  0  0  3  0  0  0  0  0  0
  -24.9830  -28.9040   20.1980 C   0  0  0  0  0  0  0  0  0  0  0  0
  -26.0580  -30.8110   21.3850 C   0  0  0  0  0  2  0  0  0  0  0  0
  -26.1510  -29.4020   20.7900 C   0  0  0  0  0  0  0  0  0  0  0  0
  -27.3320  -28.5810   20.8250 C   0  0  0  0  0  3  0  0  0  0  0  0
  -26.1450  -26.8170   19.6760 C   0  0  0  0  0  3  0  0  0  0  0  0
  -24.9900  -27.6240   19.6260 C   0  0  0  0  0  3  0  0  0  0  0  0
  -23.7450  -29.7840   20.2040 C   0  0  0  0  0  2  0  0  0  0  0  0
  -24.7740  -31.1170   22.0880 N   0  0  0  0  0  0  0  0  0  0  0  0
  -23.6030  -32.2610   23.6680 O   0  0  0  0  0  0  0  0  0  0  0  0
  -22.8450  -29.5230   22.5510 C   0  0  0  0  0  0  0  0  0  0  0  0
  -21.5180  -29.3410   22.4330 N   0  0  0  0  0  0  0  0  0  0  0  0
  -23.5220  -28.9260   23.3910 O   0  0  0  0  0  0  0  0  0  0  0  0
  -21.0280  -29.8720   21.7280 H   0  0  0  0  0  0  0  0  0  0  0  0
  -18.1370  -28.1910   23.0180 C   0  0  0  0  0  0  0  0  0  0  0  0
  -20.7020  -28.4270   23.2360 C   0  0  0  0  0  3  0  0  0  0  0  0
  -20.7780  -26.9840   22.6860 C   0  0  0  0  0  2  0  0  0  0  0  0
  -19.6530  -26.6570   21.6970 C   0  0  0  0  0  2  0  0  0  0  0  0
  -18.2850  -26.8290   22.3620 C   0  0  0  0  0  2  0  0  0  0  0  0
  -19.2710  -28.9490   23.4150 C   0  0  0  0  0  0  0  0  0  0  0  0
  -19.0770  -30.2230   23.9900 C   0  0  0  0  0  3  0  0  0  0  0  0
  -17.7800  -30.7400   24.1730 C   0  0  0  0  0  3  0  0  0  0  0  0
  -16.6610  -29.9810   23.7920 C   0  0  0  0  0  3  0  0  0  0  0  0
  -16.8390  -28.7090   23.2190 C   0  0  0  0  0  3  0  0  0  0  0  0
  -25.9640  -32.6400   23.7570 C   0  0  0  0  0  3  0  0  0  0  0  0
  -25.6130  -34.0210   24.1220 N   0  0  0  0  0  0  0  0  0  0  0  0
  -25.8950  -35.1020   23.3820 C   0  0  0  0  0  0  0  0  0  0  0  0
  -26.5490  -35.0420   22.3370 O   0  0  0  0  0  0  0  0  0  0  0  0
  -25.0290  -34.1380   24.9380 H   0  0  0  0  0  0  0  0  0  0  0  0
  -24.1140  -36.8550   23.0870 C   0  0  0  0  0  1  0  0  0  0  0  0
  -25.3720  -36.4630   23.8790 C   0  0  0  0  0  3  0  0  0  0  0  0
  -27.4860  -37.3900   24.7200 C   0  0  0  0  0  1  0  0  0  0  0  0
  -26.3730  -37.5500   23.7880 N   0  0  0  0  0  0  0  0  0  0  0  0
  -25.9410  -38.4530   23.9600 H   0  0  0  0  0  0  0  0  0  0  0  0
  -26.5320  -31.8670   25.0120 C   0  0  1  0  0  0  0  0  0  0  0  0
  -25.4620  -31.5390   26.0780 C   0  0  0  0  0  1  0  0  0  0  0  0
  -27.1920  -30.5360   24.5830 C   0  0  0  0  0  1  0  0  0  0  0  0
  -27.6370  -32.7100   25.6900 C   0  0  0  0  0  1  0  0  0  0  0  0
  1  4  1  0
  3  6  1  0
  3  1  2  0
  4 16  1  0
  4  2  2  0
  5 51  1  0
  5  2  1  0
  6  5  2  0
  7  6  1  0
  8 16  1  0
  9 14  1  0
 10 11  1  0
 10  9  1  0
 12 11  1  0
 12 21  1  0
 12 13  1  0
 14  8  1  0
 14 13  1  0
 15  8  2  0
 16 17  1  0
 18 19  2  0
 19 38  1  0
 20 19  1  0
 20 23  1  0
 21 18  1  0
 21 22  1  0
 22 20  2  0
 23 24  1  0
 24 25  2  0
 26 29  1  0
 26 25  1  0
 27 26  2  0
 28 27  1  0
 28 23  2  0
 29 30  1  0
 30 35  2  0
 30 31  1  0
 31 32  2  0
 32 33  1  0
 33 37  1  0
 34 33  2  0
 35 34  1  0
 36 35  1  0
 38 39  1  0
 39 42  1  0
 39 41  1  0
 40 38  2  0
 43 44  1  0
 43 18  1  0
 45 43  1  0
 46  3  1  0
 47 49  1  0
 49 50  1  6
 49 46  1  0
 49 48  1  0
 52 53  2  0
 53 51  1  0
 53 54  1  0
 55 52  1  0
 56 55  1  0
 57 68  2  0
 58 56  1  0
 58 63  1  0
 59 67  1  0
 59 69  1  0
 60 66  1  0
 60 62  1  0
 61 67  1  0
 62 63  2  0
 62 61  1  0
 64 58  2  0
 65 64  1  0
 65 60  2  0
 66 59  1  0
 67 57  1  0
 69 71  2  0
 70 69  1  0
 72 70  1  0
 73 82  2  0
 73 78  1  0
 74 70  1  0
 74 78  1  0
 75 74  1  0
 76 77  1  0
 76 75  1  0
 77 73  1  0
 78 79  2  0
 79 80  1  0
 81 80  2  0
 82 81  1  0
 83 57  1  0
 83 84  1  0
 83 93  1  0
 84 87  1  0
 85 89  1  0
 85 84  1  0
 86 85  2  0
 89 88  1  0
 91 89  1  0
 91 92  1  0
 91 90  1  0
 93 96  1  1
 93 94  1  0
 95 93  1  0
M  ISO  4   8 100  16 100  55 101  56 101
M  END
>  <TORSDO>  (56) 
F 21

>  <SCORE>  (56) 
-12.984

>  <name>  (56) 
56

>  <ligand_id>  (56) 
56

>  <original_smiles>  (56) 
[H]C(=C(Oc1c([H])c(N([H])C(=O)N2C([H])([H])C([H])([H])C([H])([H])C([H])(n3nc(-c4c([H])c([H])c(Oc5c([H])c([H])c(F)c([H])c5F)c([H])c4[H])c(C(=O)N([H])[H])c3N([H])[H])C2([H])[H])c([H])c(C([H])([H])[N+]([H])(C([H])([H])[H])C([H])([H])[H])c1Cl)C([H])([H])[H])C([H])([H])Oc1c([H])c([H])c2c(c1[H])C([H])([H])N(C(=O)C([H])(N([H])C(=O)C([H])(N([H])C([H])([H])[H])C([H])([H])[H])C(C([H])([H])[H])(C([H])([H])[H])C([H])([H])[H])C([H])(C(=O)N([H])C1([H])c3c([H])c([H])c([H])c([H])c3C([H])([H])C([H])([H])C1([H])[H])C2([H])[H]

>  <smiles>  (56) 
[H]C(=C(Oc1c([H])c(N([H])C(=O)N2C([H])([H])C([H])([H])C([H])([H])C([H])(n3nc(-c4c([H])c([H])c(Oc5c([H])c([H])c(F)c([H])c5F)c([H])c4[H])c(C(=O)N([H])[H])c3N([H])[H])C2([H])[H])c([H])c(C([H])([H])[N+]([H])(C([H])([H])[H])C([H])([H])[H])c1Cl)C([H])([H])[H])C([H])([H])Oc1c([H])c([H])c2c(c1[H])C([H])([H])N(C(=O)C([H])(N([H])C(=O)C([H])(N([H])C([H])([H])[H])C([H])([H])[H])C(C([H])([H])[H])(C([H])([H])[H])C([H])([H])[H])C([H])(C(=O)N([H])C1([H])c3c([H])c([H])c([H])c([H])c3C([H])([H])C([H])([H])C1([H])[H])C2([H])[H]

$$$$
57:0:0
     RDKit          3D

 94102  0  0  1  0  0  0  0  0999 V2000
  -27.6350  -17.9190   20.9280 C   0  0  0  0  0  3  0  0  0  0  0  0
  -28.2120  -19.1090   20.4600 C   0  0  0  0  0  3  0  0  0  0  0  0
  -30.3060  -17.9150   20.1120 C   0  0  0  0  0  3  0  0  0  0  0  0
  -29.7480  -16.6850   20.6000 C   0  0  0  0  0  0  0  0  0  0  0  0
  -28.3930  -16.7370   21.0400 C   0  0  0  0  0  0  0  0  0  0  0  0
  -29.5650  -19.1450   20.0770 C   0  0  0  0  0  0  0  0  0  0  0  0
  -30.5730  -15.4190   20.8320 C   0  0  0  0  0  0  0  0  0  0  0  0
  -31.0280  -15.1690   21.9910 N   0  0  0  0  0  0  0  0  0  0  0  0
  -30.7610  -15.8960   22.6440 H   0  0  0  0  0  0  0  0  0  0  0  0
  -30.8790  -14.4430   19.6720 C   0  0  0  0  0  0  0  0  0  0  0  0
  -30.4540  -12.2990   18.4860 C   0  0  0  0  0  2  0  0  0  0  0  0
  -29.3970  -12.4930   17.3800 C   0  0  0  0  0  2  0  0  0  0  0  0
  -27.9740  -12.3310   17.9500 C   0  0  0  0  0  2  0  0  0  0  0  0
  -27.7590  -13.1460   19.2540 C   0  0  0  0  0  3  0  0  0  0  0  0
  -28.9210  -12.9050   20.2460 C   0  0  0  0  0  2  0  0  0  0  0  0
  -30.1770  -13.2660   19.5690 N   0  0  0  0  0  0  0  0  0  0  0  0
  -31.8430  -14.6880   18.9380 O   0  0  0  0  0  0  0  0  0  0  0  0
  -25.4160  -13.7280   20.1460 C   0  0  0  0  0  0  0  0  0  0  0  0
  -24.3940  -12.9520   20.6170 C   0  0  0  0  0  0  0  0  0  0  0  0
  -24.8660  -11.6050   20.5590 C   0  0  0  0  0  0  0  0  0  0  0  0
  -26.4550  -12.8590   19.8500 N   0  0  0  0  0  0  0  0  0  0  0  0
  -26.1280  -11.5740   20.1460 N   0  0  0  0  0  0  0  0  0  0  0  0
  -24.1680  -10.3410   20.8220 C   0  0  0  0  0  0  0  0  0  0  0  0
  -24.6360   -9.4260   21.7910 C   0  0  0  0  0  3  0  0  0  0  0  0
  -23.9360   -8.2250   22.0380 C   0  0  0  0  0  3  0  0  0  0  0  0
  -22.7550   -7.9320   21.3170 C   0  0  0  0  0  0  0  0  0  0  0  0
  -22.3060   -8.8350   20.3370 C   0  0  0  0  0  3  0  0  0  0  0  0
  -23.0060  -10.0270   20.0900 C   0  0  0  0  0  3  0  0  0  0  0  0
  -22.0230   -6.7790   21.4710 O   0  0  0  0  0  0  0  0  0  0  0  0
  -21.9360   -6.1390   22.6810 C   0  0  0  0  0  0  0  0  0  0  0  0
  -21.4390   -6.7870   23.8330 C   0  0  0  0  0  3  0  0  0  0  0  0
  -21.3020   -6.0720   25.0390 C   0  0  0  0  0  3  0  0  0  0  0  0
  -21.6520   -4.7090   25.0940 C   0  0  0  0  0  0  0  0  0  0  0  0
  -22.1410   -4.0610   23.9470 C   0  0  0  0  0  3  0  0  0  0  0  0
  -22.2810   -4.7740   22.7440 C   0  0  0  0  0  0  0  0  0  0  0  0
  -22.7340   -4.1390   21.6360 F   0  0  0  0  0  0  0  0  0  0  0  0
  -21.5130   -4.0200   26.2500 F   0  0  0  0  0  0  0  0  0  0  0  0
  -23.0270  -13.4240   21.0190 C   0  0  0  0  0  0  0  0  0  0  0  0
  -22.4000  -12.7470   21.9740 N   0  0  0  0  0  0  0  0  0  0  0  0
  -22.5280  -14.4350   20.5250 O   0  0  0  0  0  0  0  0  0  0  0  0
  -22.8180  -11.9300   22.3950 H   0  0  0  0  0  0  0  0  0  0  0  0
  -21.4890  -13.0490   22.2900 H   0  0  0  0  0  0  0  0  0  0  0  0
  -25.5420  -15.0940   19.9370 N   0  0  0  0  0  0  0  0  0  0  0  0
  -24.7900  -15.6520   20.3240 H   0  0  0  0  0  0  0  0  0  0  0  0
  -26.4480  -15.4420   20.2600 H   0  0  0  0  0  0  0  0  0  0  0  0
  -27.7570  -15.6600   21.6570 N   0  0  0  0  0  0  0  0  0  0  0  0
  -26.9300  -15.8720   22.2030 H   0  0  0  0  0  0  0  0  0  0  0  0
  -28.3550  -15.0060   22.1520 H   0  0  0  0  0  0  0  0  0  0  0  0
  -30.1420  -20.3440   19.6490 O   0  0  0  0  0  0  0  0  0  0  0  0
  -29.7750  -21.6070   20.2890 C   0  0  0  0  0  3  0  0  0  0  0  0
  -29.0970  -22.7030   19.3870 C   0  0  0  0  0  3  0  0  0  0  0  0
  -28.9930  -24.1280   20.0010 C   0  0  0  0  0  3  0  0  0  0  0  0
  -28.5760  -25.2600   19.3650 C   0  0  0  0  0  3  0  0  0  0  0  0
  -28.5410  -26.5330   19.9360 O   0  0  0  0  0  0  0  0  0  0  0  0
  -24.7300  -31.5730   23.3180 C   0  0  0  0  0  0  0  0  0  0  0  0
  -27.3780  -27.3050   19.9340 C   0  0  0  0  0  0  0  0  0  0  0  0
  -23.5280  -30.2860   21.5830 C   0  0  0  0  0  3  0  0  0  0  0  0
  -24.9840  -28.8510   20.0510 C   0  0  0  0  0  0  0  0  0  0  0  0
  -26.0580  -30.6480   21.4120 C   0  0  0  0  0  2  0  0  0  0  0  0
  -26.1460  -29.3200   20.6750 C   0  0  0  0  0  0  0  0  0  0  0  0
  -27.3420  -28.5560   20.6130 C   0  0  0  0  0  3  0  0  0  0  0  0
  -26.1890  -26.8660   19.3060 C   0  0  0  0  0  3  0  0  0  0  0  0
  -25.0040  -27.6260   19.3630 C   0  0  0  0  0  3  0  0  0  0  0  0
  -23.7400  -29.7060   20.1590 C   0  0  0  0  0  2  0  0  0  0  0  0
  -24.7910  -30.8480   22.1630 N   0  0  0  0  0  0  0  0  0  0  0  0
  -23.6470  -31.8060   23.8740 O   0  0  0  0  0  0  0  0  0  0  0  0
  -22.8770  -29.2010   22.4720 C   0  0  0  0  0  0  0  0  0  0  0  0
  -21.5640  -28.9790   22.2870 N   0  0  0  0  0  0  0  0  0  0  0  0
  -23.5510  -28.5610   23.2840 O   0  0  0  0  0  0  0  0  0  0  0  0
  -21.0790  -29.5510   21.6080 H   0  0  0  0  0  0  0  0  0  0  0  0
  -18.2370  -27.5910   22.5390 C   0  0  0  0  0  0  0  0  0  0  0  0
  -20.7550  -27.9790   22.9820 C   0  0  0  0  0  3  0  0  0  0  0  0
  -20.9730  -26.5720   22.3800 C   0  0  0  0  0  2  0  0  0  0  0  0
  -19.9580  -26.2180   21.2890 C   0  0  0  0  0  2  0  0  0  0  0  0
  -18.5310  -26.2700   21.8470 C   0  0  0  0  0  2  0  0  0  0  0  0
  -19.2820  -28.4000   23.0600 C   0  0  0  0  0  0  0  0  0  0  0  0
  -18.9570  -29.6330   23.6640 C   0  0  0  0  0  3  0  0  0  0  0  0
  -17.6180  -30.0590   23.7550 C   0  0  0  0  0  3  0  0  0  0  0  0
  -16.5860  -29.2480   23.2540 C   0  0  0  0  0  3  0  0  0  0  0  0
  -16.8960  -28.0150   22.6520 C   0  0  0  0  0  3  0  0  0  0  0  0
  -26.0130  -32.1650   23.9800 C   0  0  0  0  0  3  0  0  0  0  0  0
  -25.7050  -33.5400   24.3940 N   0  0  0  0  0  0  0  0  0  0  0  0
  -26.0520  -34.6360   23.7070 C   0  0  0  0  0  0  0  0  0  0  0  0
  -26.7340  -34.5940   22.6790 O   0  0  0  0  0  0  0  0  0  0  0  0
  -25.1040  -33.6470   25.1980 H   0  0  0  0  0  0  0  0  0  0  0  0
  -24.3350  -36.4550   23.4410 C   0  0  0  0  0  1  0  0  0  0  0  0
  -25.5630  -35.9950   24.2440 C   0  0  0  0  0  3  0  0  0  0  0  0
  -27.6880  -36.8150   25.1610 C   0  0  0  0  0  1  0  0  0  0  0  0
  -26.6010  -37.0490   24.2130 N   0  0  0  0  0  0  0  0  0  0  0  0
  -26.1970  -37.9600   24.4150 H   0  0  0  0  0  0  0  0  0  0  0  0
  -26.5250  -31.3160   25.2080 C   0  0  1  0  0  0  0  0  0  0  0  0
  -25.4280  -31.0140   26.2560 C   0  0  0  0  0  1  0  0  0  0  0  0
  -27.1070  -29.9650   24.7300 C   0  0  0  0  0  1  0  0  0  0  0  0
  -27.6730  -32.0660   25.9230 C   0  0  0  0  0  1  0  0  0  0  0  0
  1  5  1  0
  2  1  2  0
  3  4  1  0
  4  7  1  0
  4  5  2  0
  5 46  1  0
  6  3  2  0
  6  2  1  0
  7  8  2  0
  8  9  1  0
 10  7  1  0
 11 16  1  0
 12 13  1  0
 12 11  1  0
 14 13  1  0
 14 21  1  0
 14 15  1  0
 16 10  1  0
 16 15  1  0
 17 10  2  0
 18 19  2  0
 19 38  1  0
 20 19  1  0
 20 23  1  0
 21 22  1  0
 21 18  1  0
 22 20  2  0
 23 24  1  0
 24 25  2  0
 26 29  1  0
 26 25  1  0
 27 26  2  0
 28 27  1  0
 28 23  2  0
 29 30  1  0
 30 35  2  0
 30 31  1  0
 31 32  2  0
 32 33  1  0
 33 37  1  0
 34 33  2  0
 35 34  1  0
 36 35  1  0
 38 39  1  0
 39 42  1  0
 39 41  1  0
 40 38  2  0
 43 18  1  0
 43 45  1  0
 43 44  1  0
 46 48  1  0
 46 47  1  0
 49  6  1  0
 49 50  1  0
 51 52  1  0
 51 50  2  0
 53 54  1  0
 53 52  2  0
 55 66  2  0
 56 54  1  0
 56 61  1  0
 57 65  1  0
 57 67  1  0
 58 64  1  0
 58 60  1  0
 59 65  1  0
 60 59  1  0
 61 60  2  0
 62 63  1  0
 62 56  2  0
 63 58  2  0
 64 57  1  0
 65 55  1  0
 67 69  2  0
 68 67  1  0
 70 68  1  0
 71 80  2  0
 71 76  1  0
 72 68  1  0
 72 76  1  0
 73 72  1  0
 74 75  1  0
 74 73  1  0
 75 71  1  0
 76 77  2  0
 77 78  1  0
 79 78  2  0
 80 79  1  0
 81 55  1  0
 81 82  1  0
 81 91  1  0
 82 85  1  0
 83 87  1  0
 83 82  1  0
 84 83  2  0
 87 86  1  0
 89 87  1  0
 89 90  1  0
 89 88  1  0
 91 94  1  1
 91 92  1  0
 93 91  1  0
M  ISO  4   7 100  10 100  53 101  54 101
M  END
>  <TORSDO>  (57) 
F 22

>  <SCORE>  (57) 
-9.590

>  <name>  (57) 
57

>  <ligand_id>  (57) 
57

>  <original_smiles>  (57) 
[H]N=C(C(=O)N1C([H])([H])C([H])([H])C([H])([H])C([H])(n2nc(-c3c([H])c([H])c(Oc4c([H])c([H])c(F)c([H])c4F)c([H])c3[H])c(C(=O)N([H])[H])c2N([H])[H])C1([H])[H])c1c([H])c(OC([H])([H])C([H])([H])C([H])=C([H])Oc2c([H])c([H])c3c(c2[H])C([H])([H])N(C(=O)C([H])(N([H])C(=O)C([H])(N([H])C([H])([H])[H])C([H])([H])[H])C(C([H])([H])[H])(C([H])([H])[H])C([H])([H])[H])C([H])(C(=O)N([H])C2([H])c4c([H])c([H])c([H])c([H])c4C([H])([H])C([H])([H])C2([H])[H])C3([H])[H])c([H])c([H])c1N([H])[H]

>  <smiles>  (57) 
[H]N=C(C(=O)N1C([H])([H])C([H])([H])C([H])([H])C([H])(n2nc(-c3c([H])c([H])c(Oc4c([H])c([H])c(F)c([H])c4F)c([H])c3[H])c(C(=O)N([H])[H])c2N([H])[H])C1([H])[H])c1c([H])c(OC([H])([H])C([H])([H])C([H])=C([H])Oc2c([H])c([H])c3c(c2[H])C([H])([H])N(C(=O)C([H])(N([H])C(=O)C([H])(N([H])C([H])([H])[H])C([H])([H])[H])C(C([H])([H])[H])(C([H])([H])[H])C([H])([H])[H])C([H])(C(=O)N([H])C2([H])c4c([H])c([H])c([H])c([H])c4C([H])([H])C([H])([H])C2([H])[H])C3([H])[H])c([H])c([H])c1N([H])[H]

$$$$
58:0:0
     RDKit          3D

 95104  0  0  1  0  0  0  0  0999 V2000
  -30.1110  -24.0970   20.8240 C   0  0  0  0  0  3  0  0  0  0  0  0
  -28.8840  -23.7550   20.3710 C   0  0  0  0  0  0  0  0  0  0  0  0
  -31.2340  -23.1850   21.1220 C   0  0  0  0  0  0  0  0  0  0  0  0
  -31.0680  -21.9120   21.9690 C   0  0  0  0  0  2  0  0  0  0  0  0
  -29.6650  -21.2950   22.0370 C   0  0  0  0  0  2  0  0  0  0  0  0
  -28.4050  -22.2530   20.0950 C   0  0  0  0  0  3  0  0  0  0  0  0
  -27.9940  -22.0460   18.6240 C   0  0  0  0  0  1  0  0  0  0  0  0
  -29.1170  -21.0570   20.7110 N   0  0  0  0  0  0  0  0  0  0  0  0
  -32.3730  -23.4620   20.7360 O   0  0  0  0  0  0  0  0  0  0  0  0
  -30.8150  -18.7620   18.2550 C   0  0  0  0  0  3  0  0  0  0  0  0
  -30.2980  -19.9090   18.8890 C   0  0  0  0  0  3  0  0  0  0  0  0
  -30.6490  -17.4800   18.8080 C   0  0  0  0  0  3  0  0  0  0  0  0
  -29.4180  -18.4780   20.6470 C   0  0  0  0  0  3  0  0  0  0  0  0
  -29.5660  -19.8210   20.0910 C   0  0  0  0  0  0  0  0  0  0  0  0
  -29.9670  -17.2750   20.0310 C   0  0  0  0  0  0  0  0  0  0  0  0
  -30.5430  -14.7430   20.2270 C   0  0  0  0  0  0  0  0  0  0  0  0
  -30.3040  -12.4740   19.2280 C   0  0  0  0  0  2  0  0  0  0  0  0
  -29.3410  -12.5730   18.0270 C   0  0  0  0  0  2  0  0  0  0  0  0
  -27.8790  -12.4100   18.4870 C   0  0  0  0  0  2  0  0  0  0  0  0
  -27.5400  -13.2760   19.7310 C   0  0  0  0  0  3  0  0  0  0  0  0
  -28.6300  -13.1750   20.8230 C   0  0  0  0  0  2  0  0  0  0  0  0
  -29.9110  -13.5220   20.2000 N   0  0  0  0  0  0  0  0  0  0  0  0
  -31.7120  -14.8260   19.8380 O   0  0  0  0  0  0  0  0  0  0  0  0
  -29.8080  -15.8830   20.5350 N   0  0  0  0  0  0  0  0  0  0  0  0
  -28.9560  -15.7060   21.0470 H   0  0  0  0  0  0  0  0  0  0  0  0
  -25.1790  -13.8540   20.5460 C   0  0  0  0  0  0  0  0  0  0  0  0
  -24.1240  -13.0750   20.9360 C   0  0  0  0  0  0  0  0  0  0  0  0
  -24.5810  -11.7240   20.8620 C   0  0  0  0  0  0  0  0  0  0  0  0
  -26.2110  -12.9780   20.2570 N   0  0  0  0  0  0  0  0  0  0  0  0
  -25.8600  -11.6900   20.5100 N   0  0  0  0  0  0  0  0  0  0  0  0
  -23.8550  -10.4600   21.0470 C   0  0  0  0  0  0  0  0  0  0  0  0
  -24.3060   -9.4790   21.9590 C   0  0  0  0  0  3  0  0  0  0  0  0
  -23.5790   -8.2810   22.1370 C   0  0  0  0  0  3  0  0  0  0  0  0
  -22.3900   -8.0560   21.4030 C   0  0  0  0  0  0  0  0  0  0  0  0
  -21.9590   -9.0250   20.4810 C   0  0  0  0  0  3  0  0  0  0  0  0
  -22.6850  -10.2140   20.3000 C   0  0  0  0  0  3  0  0  0  0  0  0
  -21.6360   -6.9100   21.4890 O   0  0  0  0  0  0  0  0  0  0  0  0
  -21.5990   -6.1560   22.6350 C   0  0  0  0  0  0  0  0  0  0  0  0
  -21.1660   -6.6930   23.8680 C   0  0  0  0  0  3  0  0  0  0  0  0
  -21.0770   -5.8660   25.0050 C   0  0  0  0  0  3  0  0  0  0  0  0
  -21.4120   -4.5010   24.9100 C   0  0  0  0  0  0  0  0  0  0  0  0
  -21.8400   -3.9640   23.6830 C   0  0  0  0  0  3  0  0  0  0  0  0
  -21.9290   -4.7890   22.5480 C   0  0  0  0  0  0  0  0  0  0  0  0
  -22.3190   -4.2610   21.3640 F   0  0  0  0  0  0  0  0  0  0  0  0
  -21.3220   -3.7040   26.0000 F   0  0  0  0  0  0  0  0  0  0  0  0
  -22.7390  -13.5510   21.2630 C   0  0  0  0  0  0  0  0  0  0  0  0
  -22.0360  -12.8380   22.1350 N   0  0  0  0  0  0  0  0  0  0  0  0
  -22.2880  -14.5900   20.7810 O   0  0  0  0  0  0  0  0  0  0  0  0
  -22.4150  -12.0020   22.5550 H   0  0  0  0  0  0  0  0  0  0  0  0
  -21.1030  -13.1340   22.3880 H   0  0  0  0  0  0  0  0  0  0  0  0
  -25.3410  -15.2280   20.3890 N   0  0  0  0  0  0  0  0  0  0  0  0
  -24.5790  -15.8810   20.5430 H   0  0  0  0  0  0  0  0  0  0  0  0
  -26.1700  -15.6720   20.0170 H   0  0  0  0  0  0  0  0  0  0  0  0
  -27.8400  -24.9120   20.0830 C   0  0  0  0  0  2  0  0  0  0  0  0
  -28.1600  -26.3640   20.2880 O   0  0  0  0  0  0  0  0  0  0  0  0
  -24.5350  -31.9080   23.2320 C   0  0  0  0  0  0  0  0  0  0  0  0
  -27.0820  -27.2780   20.2030 C   0  0  0  0  0  0  0  0  0  0  0  0
  -23.3110  -30.5080   21.6120 C   0  0  0  0  0  3  0  0  0  0  0  0
  -24.7420  -28.9450   20.1810 C   0  0  0  0  0  0  0  0  0  0  0  0
  -25.8540  -30.8010   21.4080 C   0  0  0  0  0  2  0  0  0  0  0  0
  -25.9210  -29.4160   20.7710 C   0  0  0  0  0  0  0  0  0  0  0  0
  -27.0960  -28.5950   20.7720 C   0  0  0  0  0  3  0  0  0  0  0  0
  -25.8760  -26.8820   19.5730 C   0  0  0  0  0  3  0  0  0  0  0  0
  -24.7250  -27.6850   19.5700 C   0  0  0  0  0  3  0  0  0  0  0  0
  -23.5120  -29.8290   20.2320 C   0  0  0  0  0  2  0  0  0  0  0  0
  -24.5870  -31.0900   22.1400 N   0  0  0  0  0  0  0  0  0  0  0  0
  -23.4560  -32.1940   23.7720 O   0  0  0  0  0  0  0  0  0  0  0  0
  -22.6490  -29.4980   22.5810 C   0  0  0  0  0  0  0  0  0  0  0  0
  -21.3210  -29.3210   22.4610 N   0  0  0  0  0  0  0  0  0  0  0  0
  -23.3280  -28.8790   23.4030 O   0  0  0  0  0  0  0  0  0  0  0  0
  -20.8310  -29.8760   21.7750 H   0  0  0  0  0  0  0  0  0  0  0  0
  -17.9430  -28.1320   22.9840 C   0  0  0  0  0  0  0  0  0  0  0  0
  -20.5030  -28.3910   23.2430 C   0  0  0  0  0  3  0  0  0  0  0  0
  -20.6000  -26.9520   22.6840 C   0  0  0  0  0  2  0  0  0  0  0  0
  -19.4940  -26.6200   21.6770 C   0  0  0  0  0  2  0  0  0  0  0  0
  -18.1140  -26.7750   22.3220 C   0  0  0  0  0  2  0  0  0  0  0  0
  -19.0640  -28.8980   23.4020 C   0  0  0  0  0  0  0  0  0  0  0  0
  -18.8480  -30.1670   23.9790 C   0  0  0  0  0  3  0  0  0  0  0  0
  -17.5430  -30.6710   24.1450 C   0  0  0  0  0  3  0  0  0  0  0  0
  -16.4380  -29.9030   23.7410 C   0  0  0  0  0  3  0  0  0  0  0  0
  -16.6380  -28.6350   23.1670 C   0  0  0  0  0  3  0  0  0  0  0  0
  -25.8250  -32.5370   23.8400 C   0  0  0  0  0  3  0  0  0  0  0  0
  -25.5230  -33.9380   24.1710 N   0  0  0  0  0  0  0  0  0  0  0  0
  -25.8420  -34.9890   23.4010 C   0  0  0  0  0  0  0  0  0  0  0  0
  -26.4920  -34.8800   22.3580 O   0  0  0  0  0  0  0  0  0  0  0  0
  -24.9490  -34.0960   24.9850 H   0  0  0  0  0  0  0  0  0  0  0  0
  -24.1130  -36.7870   23.0660 C   0  0  0  0  0  1  0  0  0  0  0  0
  -25.3630  -36.3790   23.8620 C   0  0  0  0  0  3  0  0  0  0  0  0
  -27.5080  -37.2650   24.6660 C   0  0  0  0  0  1  0  0  0  0  0  0
  -26.3960  -37.4300   23.7340 N   0  0  0  0  0  0  0  0  0  0  0  0
  -25.9930  -38.3510   23.8810 H   0  0  0  0  0  0  0  0  0  0  0  0
  -26.3480  -31.7680   25.1150 C   0  0  1  0  0  0  0  0  0  0  0  0
  -25.2640  -31.5320   26.1930 C   0  0  0  0  0  1  0  0  0  0  0  0
  -26.9290  -30.3900   24.7220 C   0  0  0  0  0  1  0  0  0  0  0  0
  -27.5010  -32.5640   25.7700 C   0  0  0  0  0  1  0  0  0  0  0  0
  1  3  1  0
  2  1  2  0
  3  4  1  0
  4  5  1  0
  6  7  1  0
  6  2  1  0
  6  8  1  0
  8  5  1  0
  9  3  2  0
 10 12  2  0
 10 11  1  0
 11 14  2  0
 12 15  1  0
 14 13  1  0
 14  8  1  0
 15 24  1  0
 15 13  2  0
 16 24  1  0
 17 22  1  0
 18 19  1  0
 18 17  1  0
 20 19  1  0
 20 29  1  0
 20 21  1  0
 22 16  1  0
 22 21  1  0
 23 16  2  0
 24 25  1  0
 26 27  2  0
 27 46  1  0
 28 27  1  0
 28 31  1  0
 29 30  1  0
 29 26  1  0
 30 28  2  0
 31 32  1  0
 32 33  2  0
 34 37  1  0
 34 33  1  0
 35 34  2  0
 36 35  1  0
 36 31  2  0
 37 38  1  0
 38 39  1  0
 39 40  2  0
 41 40  1  0
 41 45  1  0
 42 41  2  0
 43 38  2  0
 43 42  1  0
 44 43  1  0
 46 47  1  0
 47 50  1  0
 47 49  1  0
 48 46  2  0
 51 52  1  0
 51 26  1  0
 53 51  1  0
 54 55  1  0
 54  2  1  0
 56 67  2  0
 57 55  1  0
 57 62  1  0
 58 66  1  0
 58 68  1  0
 59 65  1  0
 59 61  1  0
 60 66  1  0
 61 62  2  0
 61 60  1  0
 63 57  2  0
 64 63  1  0
 64 59  2  0
 65 58  1  0
 66 56  1  0
 68 70  2  0
 69 68  1  0
 71 69  1  0
 72 81  2  0
 72 77  1  0
 73 69  1  0
 73 77  1  0
 74 73  1  0
 75 76  1  0
 75 74  1  0
 76 72  1  0
 77 78  2  0
 78 79  1  0
 80 79  2  0
 81 80  1  0
 82 56  1  0
 82 83  1  0
 82 92  1  0
 83 86  1  0
 84 88  1  0
 84 83  1  0
 85 84  2  0
 88 87  1  0
 90 88  1  0
 90 91  1  0
 90 89  1  0
 92 95  1  1
 92 93  1  0
 94 92  1  0
M  ISO  4  16 100  24 100  54 101  55 101
M  END
>  <TORSDO>  (58) 
F 18

>  <SCORE>  (58) 
-14.712

>  <name>  (58) 
58

>  <ligand_id>  (58) 
58

>  <original_smiles>  (58) 
[H]C1=C(C([H])([H])Oc2c([H])c([H])c3c(c2[H])C([H])([H])N(C(=O)C([H])(N([H])C(=O)C([H])(N([H])C([H])([H])[H])C([H])([H])[H])C(C([H])([H])[H])(C([H])([H])[H])C([H])([H])[H])C([H])(C(=O)N([H])C2([H])c4c([H])c([H])c([H])c([H])c4C([H])([H])C([H])([H])C2([H])[H])C3([H])[H])C([H])(C([H])([H])[H])N(c2c([H])c([H])c([H])c(N([H])C(=O)N3C([H])([H])C([H])([H])C([H])([H])C([H])(n4nc(-c5c([H])c([H])c(Oc6c([H])c([H])c(F)c([H])c6F)c([H])c5[H])c(C(=O)N([H])[H])c4N([H])[H])C3([H])[H])c2[H])C([H])([H])C([H])([H])C1=O

>  <smiles>  (58) 
[H]C1=C(C([H])([H])Oc2c([H])c([H])c3c(c2[H])C([H])([H])N(C(=O)C([H])(N([H])C(=O)C([H])(N([H])C([H])([H])[H])C([H])([H])[H])C(C([H])([H])[H])(C([H])([H])[H])C([H])([H])[H])C([H])(C(=O)N([H])C2([H])c4c([H])c([H])c([H])c([H])c4C([H])([H])C([H])([H])C2([H])[H])C3([H])[H])C([H])(C([H])([H])[H])N(c2c([H])c([H])c([H])c(N([H])C(=O)N3C([H])([H])C([H])([H])C([H])([H])C([H])(n4nc(-c5c([H])c([H])c(Oc6c([H])c([H])c(F)c([H])c6F)c([H])c5[H])c(C(=O)N([H])[H])c4N([H])[H])C3([H])[H])c2[H])C([H])([H])C([H])([H])C1=O

$$$$
59:0:0
     RDKit          3D

 95104  0  0  1  0  0  0  0  0999 V2000
  -28.7320  -24.3050   20.4710 C   0  0  0  0  0  0  0  0  0  0  0  0
  -28.1100  -23.1100   20.4890 C   0  0  0  0  0  0  0  0  0  0  0  0
  -30.1310  -24.1540   19.9390 C   0  0  0  0  0  3  0  0  0  0  0  0
  -30.2600  -22.6310   19.6400 C   0  0  0  0  0  3  0  0  0  0  0  0
  -26.7210  -22.7280   20.9740 C   0  0  0  0  0  1  0  0  0  0  0  0
  -28.9790  -21.9680   20.0230 N   0  0  1  0  0  4  0  0  0  0  0  0
  -28.5960  -21.5990   19.1670 H   0  0  0  0  0  0  0  0  0  0  0  0
  -29.0750  -20.7900   20.9660 C   0  0  0  0  0  2  0  0  0  0  0  0
  -31.4400  -19.8360   20.8410 C   0  0  0  0  0  3  0  0  0  0  0  0
  -31.9160  -17.4630   20.5370 C   0  0  0  0  0  3  0  0  0  0  0  0
  -29.6140  -18.2650   20.4750 C   0  0  0  0  0  3  0  0  0  0  0  0
  -32.3650  -18.7790   20.7500 C   0  0  0  0  0  0  0  0  0  0  0  0
  -30.0550  -19.6110   20.6870 C   0  0  0  0  0  0  0  0  0  0  0  0
  -30.5370  -17.1710   20.4030 C   0  0  0  0  0  0  0  0  0  0  0  0
  -33.8470  -19.0470   20.9240 C   0  0  0  0  0  1  0  0  0  0  0  0
  -30.7860  -14.7030   19.8890 C   0  0  0  0  0  0  0  0  0  0  0  0
  -30.4760  -12.4260   18.9650 C   0  0  0  0  0  2  0  0  0  0  0  0
  -29.4770  -12.4830   17.7920 C   0  0  0  0  0  2  0  0  0  0  0  0
  -28.0310  -12.3470   18.3070 C   0  0  0  0  0  2  0  0  0  0  0  0
  -27.7290  -13.2940   19.5000 C   0  0  0  0  0  3  0  0  0  0  0  0
  -28.8430  -13.2300   20.5690 C   0  0  0  0  0  2  0  0  0  0  0  0
  -30.1220  -13.5090   19.9000 N   0  0  0  0  0  0  0  0  0  0  0  0
  -31.9030  -14.8090   19.3750 O   0  0  0  0  0  0  0  0  0  0  0  0
  -30.0820  -15.8000   20.2840 N   0  0  0  0  0  0  0  0  0  0  0  0
  -29.1150  -15.6260   20.5090 H   0  0  0  0  0  0  0  0  0  0  0  0
  -25.4100  -13.9290   20.4080 C   0  0  0  0  0  0  0  0  0  0  0  0
  -24.3530  -13.1700   20.8310 C   0  0  0  0  0  0  0  0  0  0  0  0
  -24.7760  -11.8090   20.7230 C   0  0  0  0  0  0  0  0  0  0  0  0
  -26.4110  -13.0330   20.0720 N   0  0  0  0  0  0  0  0  0  0  0  0
  -26.0390  -11.7510   20.3200 N   0  0  0  0  0  0  0  0  0  0  0  0
  -24.0320  -10.5600   20.9260 C   0  0  0  0  0  0  0  0  0  0  0  0
  -24.4630   -9.5860   21.8530 C   0  0  0  0  0  3  0  0  0  0  0  0
  -23.7200   -8.4000   22.0430 C   0  0  0  0  0  3  0  0  0  0  0  0
  -22.5320   -8.1800   21.3060 C   0  0  0  0  0  0  0  0  0  0  0  0
  -22.1210   -9.1420   20.3660 C   0  0  0  0  0  3  0  0  0  0  0  0
  -22.8640  -10.3190   20.1740 C   0  0  0  0  0  3  0  0  0  0  0  0
  -21.7610   -7.0480   21.4060 O   0  0  0  0  0  0  0  0  0  0  0  0
  -21.6670   -6.3420   22.5780 C   0  0  0  0  0  0  0  0  0  0  0  0
  -21.1970   -6.9340   23.7690 C   0  0  0  0  0  3  0  0  0  0  0  0
  -21.0510   -6.1530   24.9340 C   0  0  0  0  0  3  0  0  0  0  0  0
  -21.3670   -4.7820   24.9070 C   0  0  0  0  0  0  0  0  0  0  0  0
  -21.8300   -4.1890   23.7190 C   0  0  0  0  0  3  0  0  0  0  0  0
  -21.9770   -4.9670   22.5570 C   0  0  0  0  0  0  0  0  0  0  0  0
  -22.4050   -4.3860   21.4110 F   0  0  0  0  0  0  0  0  0  0  0  0
  -21.2200   -4.0300   26.0230 F   0  0  0  0  0  0  0  0  0  0  0  0
  -22.9930  -13.6710   21.2200 C   0  0  0  0  0  0  0  0  0  0  0  0
  -22.3100  -12.9610   22.1120 N   0  0  0  0  0  0  0  0  0  0  0  0
  -22.5470  -14.7260   20.7700 O   0  0  0  0  0  0  0  0  0  0  0  0
  -22.6840  -12.1060   22.4960 H   0  0  0  0  0  0  0  0  0  0  0  0
  -21.3990  -13.2780   22.4140 H   0  0  0  0  0  0  0  0  0  0  0  0
  -25.5960  -15.3010   20.2600 N   0  0  0  0  0  0  0  0  0  0  0  0
  -24.8510  -15.9670   20.4320 H   0  0  0  0  0  0  0  0  0  0  0  0
  -26.4200  -15.7270   19.8540 H   0  0  0  0  0  0  0  0  0  0  0  0
  -28.2250  -25.6470   21.0520 C   0  0  0  0  0  2  0  0  0  0  0  0
  -28.4210  -26.8470   20.2570 O   0  0  0  0  0  0  0  0  0  0  0  0
  -24.6170  -32.0490   23.3750 C   0  0  0  0  0  0  0  0  0  0  0  0
  -27.3000  -27.6580   20.2300 C   0  0  0  0  0  0  0  0  0  0  0  0
  -23.4240  -30.6490   21.7240 C   0  0  0  0  0  3  0  0  0  0  0  0
  -24.8940  -29.1560   20.2620 C   0  0  0  0  0  0  0  0  0  0  0  0
  -25.9460  -31.0440   21.5160 C   0  0  0  0  0  2  0  0  0  0  0  0
  -26.0510  -29.6820   20.8530 C   0  0  0  0  0  0  0  0  0  0  0  0
  -27.2610  -28.9420   20.8320 C   0  0  0  0  0  3  0  0  0  0  0  0
  -26.1300  -27.1610   19.6200 C   0  0  0  0  0  3  0  0  0  0  0  0
  -24.9310  -27.8970   19.6370 C   0  0  0  0  0  3  0  0  0  0  0  0
  -23.6350  -29.9930   20.3330 C   0  0  0  0  0  2  0  0  0  0  0  0
  -24.6810  -31.2630   22.2630 N   0  0  0  0  0  0  0  0  0  0  0  0
  -23.5340  -32.2990   23.9240 O   0  0  0  0  0  0  0  0  0  0  0  0
  -22.7920  -29.6060   22.6740 C   0  0  0  0  0  0  0  0  0  0  0  0
  -21.4770  -29.3760   22.5260 N   0  0  0  0  0  0  0  0  0  0  0  0
  -23.4830  -29.0080   23.5030 O   0  0  0  0  0  0  0  0  0  0  0  0
  -20.9780  -29.9150   21.8330 H   0  0  0  0  0  0  0  0  0  0  0  0
  -18.1550  -28.0060   22.9200 C   0  0  0  0  0  0  0  0  0  0  0  0
  -20.6820  -28.4100   23.2840 C   0  0  0  0  0  3  0  0  0  0  0  0
  -20.8850  -26.9770   22.7410 C   0  0  0  0  0  2  0  0  0  0  0  0
  -19.8430  -26.5750   21.6920 C   0  0  0  0  0  2  0  0  0  0  0  0
  -18.4300  -26.6560   22.2800 C   0  0  0  0  0  2  0  0  0  0  0  0
  -19.2130  -28.8370   23.3770 C   0  0  0  0  0  0  0  0  0  0  0  0
  -18.9040  -30.0960   23.9320 C   0  0  0  0  0  3  0  0  0  0  0  0
  -17.5680  -30.5290   24.0390 C   0  0  0  0  0  3  0  0  0  0  0  0
  -16.5240  -29.6960   23.6000 C   0  0  0  0  0  3  0  0  0  0  0  0
  -16.8180  -28.4380   23.0460 C   0  0  0  0  0  3  0  0  0  0  0  0
  -25.8960  -32.6940   23.9950 C   0  0  0  0  0  3  0  0  0  0  0  0
  -26.3990  -31.9510   25.2940 C   0  0  1  0  0  0  0  0  0  0  0  0
  -25.2900  -31.7200   26.3470 C   0  0  0  0  0  1  0  0  0  0  0  0
  -27.0040  -30.5730   24.9350 C   0  0  0  0  0  1  0  0  0  0  0  0
  -27.5300  -32.7700   25.9600 C   0  0  0  0  0  1  0  0  0  0  0  0
  -25.5860  -34.1000   24.2880 N   0  0  0  0  0  0  0  0  0  0  0  0
  -25.9240  -35.1330   23.5050 C   0  0  0  0  0  0  0  0  0  0  0  0
  -26.6010  -35.0030   22.4810 O   0  0  0  0  0  0  0  0  0  0  0  0
  -24.9880  -34.2750   25.0830 H   0  0  0  0  0  0  0  0  0  0  0  0
  -24.1960  -36.9140   23.0970 C   0  0  0  0  0  1  0  0  0  0  0  0
  -25.4340  -36.5320   23.9240 C   0  0  0  0  0  3  0  0  0  0  0  0
  -27.5630  -37.4410   24.7410 C   0  0  0  0  0  1  0  0  0  0  0  0
  -26.4660  -37.5830   23.7880 N   0  0  0  0  0  0  0  0  0  0  0  0
  -26.0590  -38.5060   23.9100 H   0  0  0  0  0  0  0  0  0  0  0  0
  1  2  2  0
  1 54  1  0
  2  5  1  0
  3  1  1  0
  4  3  2  0
  4  6  1  0
  6  2  1  0
  6  8  1  0
  6  7  1  6
 10 12  2  0
 11 13  1  0
 12  9  1  0
 12 15  1  0
 13  9  2  0
 13  8  1  0
 14 11  2  0
 14 10  1  0
 16 22  1  0
 16 24  1  0
 17 22  1  0
 18 19  1  0
 18 17  1  0
 20 19  1  0
 20 29  1  0
 20 21  1  0
 22 21  1  0
 23 16  2  0
 24 14  1  0
 24 25  1  0
 26 27  2  0
 27 46  1  0
 28 27  1  0
 28 31  1  0
 29 30  1  0
 29 26  1  0
 30 28  2  0
 31 32  1  0
 32 33  2  0
 34 37  1  0
 34 33  1  0
 35 34  2  0
 36 35  1  0
 36 31  2  0
 37 38  1  0
 38 39  1  0
 39 40  2  0
 41 40  1  0
 41 45  1  0
 42 41  2  0
 43 38  2  0
 43 42  1  0
 44 43  1  0
 46 47  1  0
 47 50  1  0
 47 49  1  0
 48 46  2  0
 51 26  1  0
 51 52  1  0
 53 51  1  0
 55 54  1  0
 56 67  2  0
 57 55  1  0
 57 62  1  0
 58 66  1  0
 58 68  1  0
 59 65  1  0
 59 61  1  0
 60 66  1  0
 61 60  1  0
 62 61  2  0
 63 64  1  0
 63 57  2  0
 64 59  2  0
 65 58  1  0
 66 56  1  0
 68 70  2  0
 69 68  1  0
 71 69  1  0
 72 81  2  0
 72 77  1  0
 73 69  1  0
 73 77  1  0
 74 73  1  0
 75 76  1  0
 75 74  1  0
 76 72  1  0
 77 78  2  0
 78 79  1  0
 80 79  2  0
 81 80  1  0
 82 56  1  0
 82 87  1  0
 82 83  1  0
 83 86  1  1
 83 84  1  0
 85 83  1  0
 87 90  1  0
 88 92  1  0
 88 87  1  0
 89 88  2  0
 92 91  1  0
 94 95  1  0
 94 92  1  0
 94 93  1  0
M  ISO  4  16 100  24 100  54 101  55 101
M  END
>  <TORSDO>  (59) 
F 19

>  <SCORE>  (59) 
-14.247

>  <name>  (59) 
59

>  <ligand_id>  (59) 
59

>  <original_smiles>  (59) 
[H]c1c([H])c([H])c2c(c1[H])C([H])([H])C([H])([H])C([H])([H])C2([H])N([H])C(=O)C1([H])N(C(=O)C([H])(N([H])C(=O)C([H])(N([H])C([H])([H])[H])C([H])([H])[H])C(C([H])([H])[H])(C([H])([H])[H])C([H])([H])[H])C([H])([H])c2c([H])c(OC([H])([H])C3=C(C([H])([H])[H])[N+]([H])(C([H])([H])c4c([H])c(N([H])C(=O)N5C([H])([H])C([H])([H])C([H])([H])C([H])(n6nc(-c7c([H])c([H])c(Oc8c([H])c([H])c(F)c([H])c8F)c([H])c7[H])c(C(=O)N([H])[H])c6N([H])[H])C5([H])[H])c([H])c(C([H])([H])[H])c4[H])C([H])([H])C3([H])[H])c([H])c([H])c2C1([H])[H]

>  <smiles>  (59) 
[H]c1c([H])c([H])c2c(c1[H])C([H])([H])C([H])([H])C([H])([H])C2([H])N([H])C(=O)C1([H])N(C(=O)C([H])(N([H])C(=O)C([H])(N([H])C([H])([H])[H])C([H])([H])[H])C(C([H])([H])[H])(C([H])([H])[H])C([H])([H])[H])C([H])([H])c2c([H])c(OC([H])([H])C3=C(C([H])([H])[H])[N+]([H])(C([H])([H])c4c([H])c(N([H])C(=O)N5C([H])([H])C([H])([H])C([H])([H])C([H])(n6nc(-c7c([H])c([H])c(Oc8c([H])c([H])c(F)c([H])c8F)c([H])c7[H])c(C(=O)N([H])[H])c6N([H])[H])C5([H])[H])c([H])c(C([H])([H])[H])c4[H])C([H])([H])C3([H])[H])c([H])c([H])c2C1([H])[H]

$$$$
60:0:0
     RDKit          3D

 99108  0  0  1  0  0  0  0  0999 V2000
  -29.0890  -24.1950   20.8810 C   0  0  0  0  0  0  0  0  0  0  0  0
  -29.6280  -22.9930   20.3820 C   0  0  0  0  0  0  0  0  0  0  0  0
  -28.4330  -24.1150   22.2040 C   0  0  0  0  0  0  0  0  0  0  0  0
  -28.9260  -23.0270   23.1390 C   0  0  0  0  0  2  0  0  0  0  0  0
  -28.8880  -21.6900   22.4120 C   0  0  0  0  0  2  0  0  0  0  0  0
  -29.5480  -21.7190   21.0930 N   0  0  0  0  0  0  0  0  0  0  0  0
  -27.5410  -24.8790   22.5890 O   0  0  0  0  0  0  0  0  0  0  0  0
  -31.3050  -18.2150   21.0840 C   0  0  0  0  0  3  0  0  0  0  0  0
  -28.9420  -19.4460   20.3080 C   0  0  0  0  0  3  0  0  0  0  0  0
  -31.1480  -19.6520   21.1950 C   0  0  0  0  0  0  0  0  0  0  0  0
  -29.9430  -20.3350   20.7980 C   0  0  0  0  0  0  0  0  0  0  0  0
  -30.2550  -17.3500   20.6550 C   0  0  0  0  0  0  0  0  0  0  0  0
  -29.0540  -18.0160   20.2960 C   0  0  0  0  0  0  0  0  0  0  0  0
  -31.0080  -14.8350   20.1290 C   0  0  0  0  0  0  0  0  0  0  0  0
  -30.7310  -12.6360   18.9540 C   0  0  0  0  0  2  0  0  0  0  0  0
  -29.7480  -12.8250   17.7750 C   0  0  0  0  0  2  0  0  0  0  0  0
  -28.2840  -12.6840   18.2400 C   0  0  0  0  0  2  0  0  0  0  0  0
  -27.9890  -13.4990   19.5270 C   0  0  0  0  0  3  0  0  0  0  0  0
  -29.0760  -13.2600   20.6000 C   0  0  0  0  0  2  0  0  0  0  0  0
  -30.3740  -13.6180   20.0020 N   0  0  0  0  0  0  0  0  0  0  0  0
  -32.1590  -14.9910   19.7080 O   0  0  0  0  0  0  0  0  0  0  0  0
  -30.2230  -15.8690   20.6010 N   0  0  0  0  0  0  0  0  0  0  0  0
  -29.3240  -15.5190   20.8950 H   0  0  0  0  0  0  0  0  0  0  0  0
  -25.6170  -14.1390   20.2760 C   0  0  0  0  0  0  0  0  0  0  0  0
  -24.5470  -13.3920   20.6820 C   0  0  0  0  0  0  0  0  0  0  0  0
  -24.9830  -12.0330   20.6480 C   0  0  0  0  0  0  0  0  0  0  0  0
  -26.6450  -13.2410   20.0390 N   0  0  0  0  0  0  0  0  0  0  0  0
  -26.2670  -11.9680   20.3160 N   0  0  0  0  0  0  0  0  0  0  0  0
  -24.2310  -10.7890   20.8520 C   0  0  0  0  0  0  0  0  0  0  0  0
  -24.6100   -9.8510   21.8370 C   0  0  0  0  0  3  0  0  0  0  0  0
  -23.8600   -8.6710   22.0260 C   0  0  0  0  0  3  0  0  0  0  0  0
  -22.7180   -8.4210   21.2300 C   0  0  0  0  0  0  0  0  0  0  0  0
  -22.3570   -9.3470   20.2370 C   0  0  0  0  0  3  0  0  0  0  0  0
  -23.1070  -10.5190   20.0450 C   0  0  0  0  0  3  0  0  0  0  0  0
  -21.9440   -7.2900   21.3270 O   0  0  0  0  0  0  0  0  0  0  0  0
  -21.7710   -6.6360   22.5210 C   0  0  0  0  0  0  0  0  0  0  0  0
  -21.2490   -7.2890   23.6590 C   0  0  0  0  0  3  0  0  0  0  0  0
  -21.0220   -6.5620   24.8450 C   0  0  0  0  0  3  0  0  0  0  0  0
  -21.3080   -5.1850   24.8930 C   0  0  0  0  0  0  0  0  0  0  0  0
  -21.8220   -4.5320   23.7590 C   0  0  0  0  0  3  0  0  0  0  0  0
  -22.0500   -5.2550   22.5760 C   0  0  0  0  0  0  0  0  0  0  0  0
  -22.5260   -4.6160   21.4800 F   0  0  0  0  0  0  0  0  0  0  0  0
  -21.0810   -4.4860   26.0300 F   0  0  0  0  0  0  0  0  0  0  0  0
  -23.1680  -13.9040   20.9860 C   0  0  0  0  0  0  0  0  0  0  0  0
  -22.4540  -13.2400   21.8890 N   0  0  0  0  0  0  0  0  0  0  0  0
  -22.7350  -14.9290   20.4610 O   0  0  0  0  0  0  0  0  0  0  0  0
  -22.8160  -12.4120   22.3350 H   0  0  0  0  0  0  0  0  0  0  0  0
  -21.5300  -13.5680   22.1370 H   0  0  0  0  0  0  0  0  0  0  0  0
  -25.7870  -15.5000   20.0660 N   0  0  0  0  0  0  0  0  0  0  0  0
  -25.0210  -16.1540   20.1770 H   0  0  0  0  0  0  0  0  0  0  0  0
  -26.6620  -15.9530   19.8340 H   0  0  0  0  0  0  0  0  0  0  0  0
  -32.1590  -20.4300   23.3820 C   0  0  0  0  0  1  0  0  0  0  0  0
  -32.2910  -20.4030   21.8550 C   0  0  0  0  0  2  0  0  0  0  0  0
  -26.7100  -17.8330   19.8430 C   0  0  0  0  0  1  0  0  0  0  0  0
  -27.9860  -17.2080   19.9770 O   0  0  0  0  0  0  0  0  0  0  0  0
  -31.4060  -23.7480   18.8330 C   0  0  0  0  0  2  0  0  0  0  0  0
  -30.3120  -23.0170   19.1000 C   0  0  0  0  0  3  0  0  0  0  0  0
  -29.2810  -25.7360   20.4650 C   0  0  0  0  0  2  0  0  0  0  0  0
  -28.4620  -26.4280   19.4580 O   0  0  0  0  0  0  0  0  0  0  0  0
  -24.7140  -31.6510   22.9990 C   0  0  0  0  0  0  0  0  0  0  0  0
  -27.3590  -27.2580   19.7130 C   0  0  0  0  0  0  0  0  0  0  0  0
  -23.5030  -30.2890   21.3340 C   0  0  0  0  0  3  0  0  0  0  0  0
  -24.9600  -28.8220   19.8270 C   0  0  0  0  0  0  0  0  0  0  0  0
  -26.0330  -30.6670   21.1080 C   0  0  0  0  0  2  0  0  0  0  0  0
  -26.1330  -29.3080   20.4230 C   0  0  0  0  0  0  0  0  0  0  0  0
  -27.3400  -28.5350   20.3660 C   0  0  0  0  0  3  0  0  0  0  0  0
  -26.1630  -26.8340   19.1040 C   0  0  0  0  0  3  0  0  0  0  0  0
  -24.9740  -27.5860   19.1640 C   0  0  0  0  0  3  0  0  0  0  0  0
  -23.7060  -29.6710   19.9260 C   0  0  0  0  0  2  0  0  0  0  0  0
  -24.7690  -30.8870   21.8700 N   0  0  0  0  0  0  0  0  0  0  0  0
  -23.6380  -31.8810   23.5710 O   0  0  0  0  0  0  0  0  0  0  0  0
  -22.8870  -29.2200   22.2700 C   0  0  0  0  0  0  0  0  0  0  0  0
  -21.5630  -29.0110   22.1640 N   0  0  0  0  0  0  0  0  0  0  0  0
  -23.5990  -28.5840   23.0500 O   0  0  0  0  0  0  0  0  0  0  0  0
  -21.0450  -29.5790   21.5080 H   0  0  0  0  0  0  0  0  0  0  0  0
  -18.2320  -27.7020   22.6940 C   0  0  0  0  0  0  0  0  0  0  0  0
  -20.7870  -28.0240   22.9170 C   0  0  0  0  0  3  0  0  0  0  0  0
  -20.9160  -26.6170   22.2870 C   0  0  0  0  0  2  0  0  0  0  0  0
  -19.8000  -26.3020   21.2850 C   0  0  0  0  0  2  0  0  0  0  0  0
  -18.4300  -26.3840   21.9640 C   0  0  0  0  0  2  0  0  0  0  0  0
  -19.3380  -28.4790   23.1280 C   0  0  0  0  0  0  0  0  0  0  0  0
  -19.0990  -29.7110   23.7740 C   0  0  0  0  0  3  0  0  0  0  0  0
  -17.7840  -30.1680   23.9880 C   0  0  0  0  0  3  0  0  0  0  0  0
  -16.6930  -29.3880   23.5680 C   0  0  0  0  0  3  0  0  0  0  0  0
  -16.9170  -28.1570   22.9280 C   0  0  0  0  0  3  0  0  0  0  0  0
  -25.9970  -32.2900   23.6140 C   0  0  0  0  0  3  0  0  0  0  0  0
  -25.6550  -33.6600   24.0280 N   0  0  0  0  0  0  0  0  0  0  0  0
  -25.9670  -34.7640   23.3380 C   0  0  0  0  0  0  0  0  0  0  0  0
  -26.6410  -34.7400   22.3040 O   0  0  0  0  0  0  0  0  0  0  0  0
  -25.0550  -33.7510   24.8350 H   0  0  0  0  0  0  0  0  0  0  0  0
  -24.2100  -36.5480   23.0840 C   0  0  0  0  0  1  0  0  0  0  0  0
  -25.4510  -36.1110   23.8790 C   0  0  0  0  0  3  0  0  0  0  0  0
  -27.5630  -36.9770   24.7860 C   0  0  0  0  0  1  0  0  0  0  0  0
  -26.4650  -37.1870   23.8460 N   0  0  0  0  0  0  0  0  0  0  0  0
  -26.0410  -38.0880   24.0510 H   0  0  0  0  0  0  0  0  0  0  0  0
  -26.5770  -31.4700   24.8310 C   0  0  1  0  0  0  0  0  0  0  0  0
  -25.5290  -31.1500   25.9210 C   0  0  0  0  0  1  0  0  0  0  0  0
  -27.1810  -30.1300   24.3510 C   0  0  0  0  0  1  0  0  0  0  0  0
  -27.7300  -32.2620   25.4920 C   0  0  0  0  0  1  0  0  0  0  0  0
  1  3  1  0
  2  1  2  0
  2  6  1  0
  3  7  2  0
  3  4  1  0
  5  4  1  0
  6  5  1  0
  8 10  1  0
  9 11  1  0
 10 53  1  0
 11  6  1  0
 11 10  2  0
 12  8  2  0
 13  9  2  0
 13 12  1  0
 14 22  1  0
 15 20  1  0
 16 17  1  0
 16 15  1  0
 18 17  1  0
 18 27  1  0
 18 19  1  0
 20 14  1  0
 20 19  1  0
 21 14  2  0
 22 12  1  0
 22 23  1  0
 24 25  2  0
 25 44  1  0
 26 25  1  0
 26 29  1  0
 27 24  1  0
 27 28  1  0
 28 26  2  0
 29 30  1  0
 30 31  2  0
 32 35  1  0
 32 31  1  0
 33 32  2  0
 34 33  1  0
 34 29  2  0
 35 36  1  0
 36 41  2  0
 36 37  1  0
 37 38  2  0
 38 39  1  0
 39 43  1  0
 40 39  2  0
 41 40  1  0
 42 41  1  0
 44 45  1  0
 45 48  1  0
 45 47  1  0
 46 44  2  0
 49 50  1  0
 49 24  1  0
 51 49  1  0
 53 52  1  0
 54 55  1  0
 55 13  1  0
 56 57  2  0
 57  2  1  0
 58  1  1  0
 59 61  1  0
 59 58  1  0
 60 71  2  0
 61 66  1  0
 62 70  1  0
 62 72  1  0
 63 69  1  0
 63 65  1  0
 64 70  1  0
 65 64  1  0
 66 65  2  0
 67 68  1  0
 67 61  2  0
 68 63  2  0
 69 62  1  0
 70 60  1  0
 72 74  2  0
 73 72  1  0
 75 73  1  0
 76 85  2  0
 76 81  1  0
 77 73  1  0
 77 81  1  0
 78 77  1  0
 79 80  1  0
 79 78  1  0
 80 76  1  0
 81 82  2  0
 82 83  1  0
 84 83  2  0
 85 84  1  0
 86 60  1  0
 86 87  1  0
 86 96  1  0
 87 90  1  0
 88 92  1  0
 88 87  1  0
 89 88  2  0
 92 91  1  0
 94 92  1  0
 94 95  1  0
 94 93  1  0
 96 99  1  1
 96 97  1  0
 98 96  1  0
M  ISO  4  14 100  22 100  58 101  59 101
M  END
>  <TORSDO>  (60) 
F 21

>  <SCORE>  (60) 
-12.836

>  <name>  (60) 
60

>  <ligand_id>  (60) 
60

>  <original_smiles>  (60) 
[H]C([H])=C([H])C1=C(C([H])([H])Oc2c([H])c([H])c3c(c2[H])C([H])([H])N(C(=O)C([H])(N([H])C(=O)C([H])(N([H])C([H])([H])[H])C([H])([H])[H])C(C([H])([H])[H])(C([H])([H])[H])C([H])([H])[H])C([H])(C(=O)N([H])C2([H])c4c([H])c([H])c([H])c([H])c4C([H])([H])C([H])([H])C2([H])[H])C3([H])[H])C(=O)C([H])([H])C([H])([H])N1c1c([H])c(OC([H])([H])[H])c(N([H])C(=O)N2C([H])([H])C([H])([H])C([H])([H])C([H])(n3nc(-c4c([H])c([H])c(Oc5c([H])c([H])c(F)c([H])c5F)c([H])c4[H])c(C(=O)N([H])[H])c3N([H])[H])C2([H])[H])c([H])c1C([H])([H])C([H])([H])[H]

>  <smiles>  (60) 
[H]C([H])=C([H])C1=C(C([H])([H])Oc2c([H])c([H])c3c(c2[H])C([H])([H])N(C(=O)C([H])(N([H])C(=O)C([H])(N([H])C([H])([H])[H])C([H])([H])[H])C(C([H])([H])[H])(C([H])([H])[H])C([H])([H])[H])C([H])(C(=O)N([H])C2([H])c4c([H])c([H])c([H])c([H])c4C([H])([H])C([H])([H])C2([H])[H])C3([H])[H])C(=O)C([H])([H])C([H])([H])N1c1c([H])c(OC([H])([H])[H])c(N([H])C(=O)N2C([H])([H])C([H])([H])C([H])([H])C([H])(n3nc(-c4c([H])c([H])c(Oc5c([H])c([H])c(F)c([H])c5F)c([H])c4[H])c(C(=O)N([H])[H])c3N([H])[H])C2([H])[H])c([H])c1C([H])([H])C([H])([H])[H]

$$$$
61:0:0
     RDKit          3D

102111  0  0  1  0  0  0  0  0999 V2000
  -29.5780  -19.9680   19.0690 C   0  0  0  0  0  3  0  0  0  0  0  0
  -29.7700  -20.5070   21.4220 C   0  0  0  0  0  3  0  0  0  0  0  0
  -30.3650  -18.2400   20.6360 C   0  0  0  0  0  0  0  0  0  0  0  0
  -30.0110  -18.6440   19.3150 C   0  0  0  0  0  0  0  0  0  0  0  0
  -29.4870  -20.9210   20.1040 C   0  0  0  0  0  0  0  0  0  0  0  0
  -30.1850  -19.1690   21.6990 C   0  0  0  0  0  0  0  0  0  0  0  0
  -31.1120  -14.6780   19.9850 C   0  0  0  0  0  0  0  0  0  0  0  0
  -30.6140  -12.6330   18.6920 C   0  0  0  0  0  2  0  0  0  0  0  0
  -29.5890  -12.9490   17.5860 C   0  0  0  0  0  2  0  0  0  0  0  0
  -28.1540  -12.8090   18.1270 C   0  0  0  0  0  2  0  0  0  0  0  0
  -27.9420  -13.5610   19.4700 C   0  0  0  0  0  3  0  0  0  0  0  0
  -29.0790  -13.2610   20.4700 C   0  0  0  0  0  2  0  0  0  0  0  0
  -30.3500  -13.5640   19.8000 N   0  0  0  0  0  0  0  0  0  0  0  0
  -32.2510  -14.7550   19.5180 O   0  0  0  0  0  0  0  0  0  0  0  0
  -31.0750  -16.9160   20.8720 C   0  0  0  0  0  0  0  0  0  0  0  0
  -30.4740  -15.7680   20.4790 N   0  0  0  0  0  0  0  0  0  0  0  0
  -32.2070  -16.9550   21.3670 O   0  0  0  0  0  0  0  0  0  0  0  0
  -29.4700  -15.7650   20.4450 H   0  0  0  0  0  0  0  0  0  0  0  0
  -25.6160  -14.1670   20.3720 C   0  0  0  0  0  0  0  0  0  0  0  0
  -24.5660  -13.3950   20.7920 C   0  0  0  0  0  0  0  0  0  0  0  0
  -25.0060  -12.0400   20.6900 C   0  0  0  0  0  0  0  0  0  0  0  0
  -26.6280  -13.2820   20.0400 N   0  0  0  0  0  0  0  0  0  0  0  0
  -26.2720  -11.9950   20.2900 N   0  0  0  0  0  0  0  0  0  0  0  0
  -24.2780  -10.7810   20.8930 C   0  0  0  0  0  0  0  0  0  0  0  0
  -24.7130   -9.8200   21.8330 C   0  0  0  0  0  3  0  0  0  0  0  0
  -23.9860   -8.6250   22.0240 C   0  0  0  0  0  3  0  0  0  0  0  0
  -22.8100   -8.3840   21.2740 C   0  0  0  0  0  0  0  0  0  0  0  0
  -22.3950   -9.3330   20.3240 C   0  0  0  0  0  3  0  0  0  0  0  0
  -23.1230  -10.5190   20.1310 C   0  0  0  0  0  3  0  0  0  0  0  0
  -22.0530   -7.2410   21.3740 O   0  0  0  0  0  0  0  0  0  0  0  0
  -21.9140   -6.5720   22.5630 C   0  0  0  0  0  0  0  0  0  0  0  0
  -21.4230   -7.2080   23.7240 C   0  0  0  0  0  3  0  0  0  0  0  0
  -21.2310   -6.4660   24.9060 C   0  0  0  0  0  3  0  0  0  0  0  0
  -21.5170   -5.0880   24.9270 C   0  0  0  0  0  0  0  0  0  0  0  0
  -22.0010   -4.4510   23.7700 C   0  0  0  0  0  3  0  0  0  0  0  0
  -22.1960   -5.1910   22.5910 C   0  0  0  0  0  0  0  0  0  0  0  0
  -22.6410   -4.5680   21.4730 F   0  0  0  0  0  0  0  0  0  0  0  0
  -21.3250   -4.3720   26.0600 F   0  0  0  0  0  0  0  0  0  0  0  0
  -23.1980  -13.8810   21.1740 C   0  0  0  0  0  0  0  0  0  0  0  0
  -22.5380  -13.1870   22.0950 N   0  0  0  0  0  0  0  0  0  0  0  0
  -22.7270  -14.9090   20.6910 O   0  0  0  0  0  0  0  0  0  0  0  0
  -22.9350  -12.3540   22.5040 H   0  0  0  0  0  0  0  0  0  0  0  0
  -21.6240  -13.4950   22.3940 H   0  0  0  0  0  0  0  0  0  0  0  0
  -25.7870  -15.5400   20.2220 N   0  0  0  0  0  0  0  0  0  0  0  0
  -25.0330  -16.1950   20.3910 H   0  0  0  0  0  0  0  0  0  0  0  0
  -26.6010  -15.9750   19.8070 H   0  0  0  0  0  0  0  0  0  0  0  0
  -27.9250  -22.4870   19.0180 C   0  0  0  0  0  3  0  0  0  0  0  0
  -28.9710  -24.4750   19.3750 C   0  0  0  0  0  0  0  0  0  0  0  0
  -27.8710  -23.8200   18.7330 C   0  0  0  0  0  0  0  0  0  0  0  0
  -29.6580  -23.4760   20.0460 C   0  0  0  0  0  0  0  0  0  0  0  0
  -30.9150  -23.5450   20.8550 C   0  0  0  0  0  1  0  0  0  0  0  0
  -29.0460  -22.2420   19.7800 N   0  0  0  0  0  0  0  0  0  0  0  0
  -26.9490  -24.4010   17.9150 O   0  0  0  0  0  0  0  0  0  0  0  0
  -26.2960  -23.7880   17.5910 H   0  0  0  0  0  0  0  0  0  0  0  0
  -29.3700  -25.9530   19.1700 C   0  0  0  0  0  2  0  0  0  0  0  0
  -29.0360  -26.9230   20.1870 O   0  0  0  0  0  0  0  0  0  0  0  0
  -24.7830  -31.7920   23.2270 C   0  0  0  0  0  0  0  0  0  0  0  0
  -27.8240  -27.5930   20.1300 C   0  0  0  0  0  0  0  0  0  0  0  0
  -23.7350  -30.3680   21.4990 C   0  0  0  0  0  3  0  0  0  0  0  0
  -25.3370  -28.9670   20.0880 C   0  0  0  0  0  0  0  0  0  0  0  0
  -26.2410  -30.8800   21.4180 C   0  0  0  0  0  2  0  0  0  0  0  0
  -26.4370  -29.5340   20.7460 C   0  0  0  0  0  0  0  0  0  0  0  0
  -27.6770  -28.8490   20.7740 C   0  0  0  0  0  3  0  0  0  0  0  0
  -26.6980  -27.0480   19.4750 C   0  0  0  0  0  3  0  0  0  0  0  0
  -25.4640  -27.7220   19.4540 C   0  0  0  0  0  3  0  0  0  0  0  0
  -24.0410  -29.7470   20.1100 C   0  0  0  0  0  2  0  0  0  0  0  0
  -24.9350  -31.0270   22.1070 N   0  0  0  0  0  0  0  0  0  0  0  0
  -23.6660  -31.9800   23.7290 O   0  0  0  0  0  0  0  0  0  0  0  0
  -23.1120  -29.2790   22.4040 C   0  0  0  0  0  0  0  0  0  0  0  0
  -21.8020  -29.0340   22.2340 N   0  0  0  0  0  0  0  0  0  0  0  0
  -23.8050  -28.6590   23.2140 O   0  0  0  0  0  0  0  0  0  0  0  0
  -21.3010  -29.5920   21.5560 H   0  0  0  0  0  0  0  0  0  0  0  0
  -18.4800  -27.6650   22.6140 C   0  0  0  0  0  0  0  0  0  0  0  0
  -21.0170  -28.0260   22.9470 C   0  0  0  0  0  3  0  0  0  0  0  0
  -21.1960  -26.6280   22.3100 C   0  0  0  0  0  2  0  0  0  0  0  0
  -20.1290  -26.3010   21.2610 C   0  0  0  0  0  2  0  0  0  0  0  0
  -18.7310  -26.3560   21.8830 C   0  0  0  0  0  2  0  0  0  0  0  0
  -19.5540  -28.4560   23.0990 C   0  0  0  0  0  0  0  0  0  0  0  0
  -19.2670  -29.6820   23.7390 C   0  0  0  0  0  3  0  0  0  0  0  0
  -17.9380  -30.1170   23.8980 C   0  0  0  0  0  3  0  0  0  0  0  0
  -16.8780  -29.3220   23.4300 C   0  0  0  0  0  3  0  0  0  0  0  0
  -17.1490  -28.0980   22.7950 C   0  0  0  0  0  3  0  0  0  0  0  0
  -25.9990  -32.4840   23.9150 C   0  0  0  0  0  3  0  0  0  0  0  0
  -25.5990  -33.8600   24.2420 N   0  0  0  0  0  0  0  0  0  0  0  0
  -25.9010  -34.9350   23.5030 C   0  0  0  0  0  0  0  0  0  0  0  0
  -26.6160  -34.8790   22.4990 O   0  0  0  0  0  0  0  0  0  0  0  0
  -24.9640  -33.9740   25.0180 H   0  0  0  0  0  0  0  0  0  0  0  0
  -24.0830  -36.6250   23.0950 C   0  0  0  0  0  1  0  0  0  0  0  0
  -25.3160  -36.2900   23.9480 C   0  0  0  0  0  3  0  0  0  0  0  0
  -27.3670  -37.2900   24.8560 C   0  0  0  0  0  1  0  0  0  0  0  0
  -26.2890  -37.4030   23.8770 N   0  0  0  0  0  0  0  0  0  0  0  0
  -25.8250  -38.2950   24.0170 H   0  0  0  0  0  0  0  0  0  0  0  0
  -26.4970  -31.7260   25.2060 C   0  0  1  0  0  0  0  0  0  0  0  0
  -25.3700  -31.4170   26.2200 C   0  0  0  0  0  1  0  0  0  0  0  0
  -27.1670  -30.3840   24.8270 C   0  0  0  0  0  1  0  0  0  0  0  0
  -27.5750  -32.5690   25.9270 C   0  0  0  0  0  1  0  0  0  0  0  0
  -28.7970  -16.8940   17.9450 C   0  0  0  0  0  1  0  0  0  0  0  0
  -30.0930  -17.6950   18.1210 C   0  0  0  0  0  2  0  0  0  0  0  0
  -30.4350  -18.7330   22.9810 O   0  0  0  0  0  0  0  0  0  0  0  0
  -29.8430  -19.4640   24.0500 C   0  0  0  0  0  2  0  0  0  0  0  0
  -30.0610  -18.6120   26.4260 C   0  0  0  0  0  2  0  0  0  0  0  0
  -29.5330  -18.5230   25.1950 C   0  0  0  0  0  3  0  0  0  0  0  0
  1  4  2  0
  1  5  1  0
  2  6  1  0
  3 15  1  0
  3  6  2  0
  4  3  1  0
  5  2  2  0
  6 99  1  0
  7 16  1  0
  8 13  1  0
  9 10  1  0
  9  8  1  0
 11 10  1  0
 11 22  1  0
 11 12  1  0
 13  7  1  0
 13 12  1  0
 14  7  2  0
 15 17  2  0
 16 15  1  0
 18 16  1  0
 19 20  2  0
 20 39  1  0
 21 20  1  0
 21 24  1  0
 22 23  1  0
 22 19  1  0
 23 21  2  0
 24 25  1  0
 25 26  2  0
 27 30  1  0
 27 26  1  0
 28 27  2  0
 29 28  1  0
 29 24  2  0
 30 31  1  0
 31 36  2  0
 31 32  1  0
 32 33  2  0
 33 34  1  0
 34 38  1  0
 35 34  2  0
 36 35  1  0
 37 36  1  0
 39 40  1  0
 40 43  1  0
 40 42  1  0
 41 39  2  0
 44 19  1  0
 44 45  1  0
 46 44  1  0
 47 52  1  0
 48 50  2  0
 49 47  2  0
 49 48  1  0
 50 51  1  0
 52 50  1  0
 52  5  1  0
 53 49  1  0
 54 53  1  0
 55 48  1  0
 55 56  1  0
 57 68  2  0
 58 56  1  0
 58 63  1  0
 59 67  1  0
 59 69  1  0
 60 66  1  0
 60 62  1  0
 61 67  1  0
 62 63  2  0
 62 61  1  0
 64 58  2  0
 65 64  1  0
 65 60  2  0
 66 59  1  0
 67 57  1  0
 69 71  2  0
 70 69  1  0
 72 70  1  0
 73 82  2  0
 73 78  1  0
 74 70  1  0
 74 78  1  0
 75 74  1  0
 76 77  1  0
 76 75  1  0
 77 73  1  0
 78 79  2  0
 79 80  1  0
 81 80  2  0
 82 81  1  0
 83 57  1  0
 83 84  1  0
 83 93  1  0
 84 87  1  0
 85 89  1  0
 85 84  1  0
 86 85  2  0
 89 88  1  0
 91 89  1  0
 91 92  1  0
 91 90  1  0
 93 96  1  1
 93 94  1  0
 95 93  1  0
 97 98  1  0
 98  4  1  0
 99100  1  0
100102  1  0
102101  2  0
M  ISO  4   7 100  16 100  55 101  56 101
M  END
>  <TORSDO>  (61) 
F 23

>  <SCORE>  (61) 
-4.671

>  <name>  (61) 
61

>  <ligand_id>  (61) 
61

>  <original_smiles>  (61) 
[H]Oc1c(C([H])([H])Oc2c([H])c([H])c3c(c2[H])C([H])([H])N(C(=O)C([H])(N([H])C(=O)C([H])(N([H])C([H])([H])[H])C([H])([H])[H])C(C([H])([H])[H])(C([H])([H])[H])C([H])([H])[H])C([H])(C(=O)N([H])C2([H])c4c([H])c([H])c([H])c([H])c4C([H])([H])C([H])([H])C2([H])[H])C3([H])[H])c(C([H])([H])[H])n(-c2c([H])c(OC([H])([H])C([H])=C([H])[H])c(C(=O)N([H])C(=O)N3C([H])([H])C([H])([H])C([H])([H])C([H])(n4nc(-c5c([H])c([H])c(Oc6c([H])c([H])c(F)c([H])c6F)c([H])c5[H])c(C(=O)N([H])[H])c4N([H])[H])C3([H])[H])c(C([H])([H])C([H])([H])[H])c2[H])c1[H]

>  <smiles>  (61) 
[H]Oc1c(C([H])([H])Oc2c([H])c([H])c3c(c2[H])C([H])([H])N(C(=O)C([H])(N([H])C(=O)C([H])(N([H])C([H])([H])[H])C([H])([H])[H])C(C([H])([H])[H])(C([H])([H])[H])C([H])([H])[H])C([H])(C(=O)N([H])C2([H])c4c([H])c([H])c([H])c([H])c4C([H])([H])C([H])([H])C2([H])[H])C3([H])[H])c(C([H])([H])[H])n(-c2c([H])c(OC([H])([H])C([H])=C([H])[H])c(C(=O)N([H])C(=O)N3C([H])([H])C([H])([H])C([H])([H])C([H])(n4nc(-c5c([H])c([H])c(Oc6c([H])c([H])c(F)c([H])c6F)c([H])c5[H])c(C(=O)N([H])[H])c4N([H])[H])C3([H])[H])c(C([H])([H])C([H])([H])[H])c2[H])c1[H]

$$$$
62:0:0
     RDKit          3D

 92100  0  0  1  0  0  0  0  0999 V2000
  -29.0590  -22.8840   20.0390 C   0  0  0  0  0  0  0  0  0  0  0  0
  -29.3060  -21.6550   20.6690 N   0  0  0  0  0  0  0  0  0  0  0  0
  -29.3540  -23.0930   18.8600 O   0  0  0  0  0  0  0  0  0  0  0  0
  -29.0610  -21.6740   21.6490 H   0  0  0  0  0  0  0  0  0  0  0  0
  -30.5550  -18.8480   18.3850 C   0  0  0  0  0  3  0  0  0  0  0  0
  -30.2680  -20.1330   18.8880 C   0  0  0  0  0  3  0  0  0  0  0  0
  -29.7530  -19.0880   21.0080 C   0  0  0  0  0  3  0  0  0  0  0  0
  -30.4380  -17.6660   19.1570 C   0  0  0  0  0  0  0  0  0  0  0  0
  -30.1140  -17.7430   20.5490 C   0  0  0  0  0  0  0  0  0  0  0  0
  -29.7820  -20.3110   20.2020 C   0  0  0  0  0  0  0  0  0  0  0  0
  -29.2510  -15.8160   17.8740 C   0  0  0  0  0  1  0  0  0  0  0  0
  -30.5970  -16.3620   18.3800 C   0  0  0  0  0  2  0  0  0  0  0  0
  -29.9370  -16.4380   21.4960 C   0  0  0  0  0  2  0  0  0  0  0  0
  -30.8280  -15.0690   21.4780 C   0  0  0  0  0  0  0  0  0  0  0  0
  -30.8370  -12.7230   20.6030 C   0  0  0  0  0  2  0  0  0  0  0  0
  -30.1480  -12.7690   19.2200 C   0  0  0  0  0  2  0  0  0  0  0  0
  -28.6230  -12.6000   19.3780 C   0  0  0  0  0  2  0  0  0  0  0  0
  -28.0300  -13.5250   20.4750 C   0  0  0  0  0  3  0  0  0  0  0  0
  -28.8650  -13.4890   21.7720 C   0  0  0  0  0  2  0  0  0  0  0  0
  -30.2520  -13.8130   21.4160 N   0  0  0  0  0  0  0  0  0  0  0  0
  -32.0570  -15.1500   21.4000 O   0  0  0  0  0  0  0  0  0  0  0  0
  -25.5630  -14.1560   20.7700 C   0  0  0  0  0  0  0  0  0  0  0  0
  -24.4370  -13.4010   20.9600 C   0  0  0  0  0  0  0  0  0  0  0  0
  -24.8800  -12.0470   21.0360 C   0  0  0  0  0  0  0  0  0  0  0  0
  -26.6180  -13.2590   20.7310 N   0  0  0  0  0  0  0  0  0  0  0  0
  -26.2050  -11.9860   20.9590 N   0  0  0  0  0  0  0  0  0  0  0  0
  -24.1160  -10.7970   21.1140 C   0  0  0  0  0  0  0  0  0  0  0  0
  -24.3720   -9.8350   22.1150 C   0  0  0  0  0  3  0  0  0  0  0  0
  -23.6080   -8.6490   22.1820 C   0  0  0  0  0  3  0  0  0  0  0  0
  -22.5740   -8.4190   21.2450 C   0  0  0  0  0  0  0  0  0  0  0  0
  -22.3380   -9.3700   20.2380 C   0  0  0  0  0  3  0  0  0  0  0  0
  -23.1020  -10.5460   20.1680 C   0  0  0  0  0  3  0  0  0  0  0  0
  -21.7960   -7.2860   21.2180 O   0  0  0  0  0  0  0  0  0  0  0  0
  -21.5420   -6.5620   22.3540 C   0  0  0  0  0  0  0  0  0  0  0  0
  -20.9280   -7.1410   23.4870 C   0  0  0  0  0  3  0  0  0  0  0  0
  -20.6200   -6.3410   24.6060 C   0  0  0  0  0  3  0  0  0  0  0  0
  -20.9150   -4.9650   24.5920 C   0  0  0  0  0  0  0  0  0  0  0  0
  -21.5200   -4.3860   23.4620 C   0  0  0  0  0  3  0  0  0  0  0  0
  -21.8290   -5.1820   22.3470 C   0  0  0  0  0  0  0  0  0  0  0  0
  -22.3910   -4.6150   21.2520 F   0  0  0  0  0  0  0  0  0  0  0  0
  -20.6130   -4.1950   25.6630 F   0  0  0  0  0  0  0  0  0  0  0  0
  -23.0210  -13.9020   20.9640 C   0  0  0  0  0  0  0  0  0  0  0  0
  -22.1420  -13.2420   21.7100 N   0  0  0  0  0  0  0  0  0  0  0  0
  -22.6960  -14.9110   20.3410 O   0  0  0  0  0  0  0  0  0  0  0  0
  -22.4080  -12.4200   22.2310 H   0  0  0  0  0  0  0  0  0  0  0  0
  -21.1870  -13.5630   21.7610 H   0  0  0  0  0  0  0  0  0  0  0  0
  -25.7770  -15.5200   20.6010 N   0  0  0  0  0  0  0  0  0  0  0  0
  -25.0120  -16.1870   20.5760 H   0  0  0  0  0  0  0  0  0  0  0  0
  -26.6780  -15.9440   20.4240 H   0  0  0  0  0  0  0  0  0  0  0  0
  -28.3970  -23.9210   20.9090 C   0  0  0  0  0  3  0  0  0  0  0  0
  -27.9790  -25.2580   20.8110 C   0  0  0  0  0  3  0  0  0  0  0  0
  -28.0030  -26.3280   19.8690 O   0  0  0  0  0  0  0  0  0  0  0  0
  -24.4830  -31.8770   23.1340 C   0  0  0  0  0  0  0  0  0  0  0  0
  -26.9460  -27.2730   19.9380 C   0  0  0  0  0  0  0  0  0  0  0  0
  -23.2150  -30.5010   21.5250 C   0  0  0  0  0  3  0  0  0  0  0  0
  -24.6060  -28.9410   20.0450 C   0  0  0  0  0  0  0  0  0  0  0  0
  -25.7570  -30.7830   21.2640 C   0  0  0  0  0  2  0  0  0  0  0  0
  -25.8070  -29.4050   20.5970 C   0  0  0  0  0  0  0  0  0  0  0  0
  -26.9860  -28.5850   20.5280 C   0  0  0  0  0  3  0  0  0  0  0  0
  -25.7140  -26.8700   19.3830 C   0  0  0  0  0  3  0  0  0  0  0  0
  -24.5640  -27.6770   19.4330 C   0  0  0  0  0  3  0  0  0  0  0  0
  -23.3840  -29.8360   20.1350 C   0  0  0  0  0  2  0  0  0  0  0  0
  -24.5060  -31.0730   22.0290 N   0  0  0  0  0  0  0  0  0  0  0  0
  -23.4190  -32.1600   23.7030 O   0  0  0  0  0  0  0  0  0  0  0  0
  -22.5710  -29.4850   22.5000 C   0  0  0  0  0  0  0  0  0  0  0  0
  -21.2430  -29.3010   22.4000 N   0  0  0  0  0  0  0  0  0  0  0  0
  -23.2650  -28.8680   23.3100 O   0  0  0  0  0  0  0  0  0  0  0  0
  -20.7410  -29.8550   21.7190 H   0  0  0  0  0  0  0  0  0  0  0  0
  -17.8810  -28.0700   22.9640 C   0  0  0  0  0  0  0  0  0  0  0  0
  -20.4410  -28.3590   23.1870 C   0  0  0  0  0  3  0  0  0  0  0  0
  -20.5460  -26.9240   22.6190 C   0  0  0  0  0  2  0  0  0  0  0  0
  -19.4300  -26.5850   21.6250 C   0  0  0  0  0  2  0  0  0  0  0  0
  -18.0590  -26.7210   22.2890 C   0  0  0  0  0  2  0  0  0  0  0  0
  -18.9990  -28.8470   23.3700 C   0  0  0  0  0  0  0  0  0  0  0  0
  -18.7790  -30.1110   23.9590 C   0  0  0  0  0  3  0  0  0  0  0  0
  -17.4720  -30.5990   24.1440 C   0  0  0  0  0  3  0  0  0  0  0  0
  -16.3680  -29.8210   23.7530 C   0  0  0  0  0  3  0  0  0  0  0  0
  -16.5740  -28.5570   23.1710 C   0  0  0  0  0  3  0  0  0  0  0  0
  -25.7870  -32.4960   23.7210 C   0  0  0  0  0  3  0  0  0  0  0  0
  -26.3670  -31.6860   24.9460 C   0  0  1  0  0  0  0  0  0  0  0  0
  -25.3310  -31.4110   26.0600 C   0  0  0  0  0  1  0  0  0  0  0  0
  -26.9300  -30.3220   24.4840 C   0  0  0  0  0  1  0  0  0  0  0  0
  -27.5500  -32.4620   25.5730 C   0  0  0  0  0  1  0  0  0  0  0  0
  -25.4870  -33.8820   24.1160 N   0  0  0  0  0  0  0  0  0  0  0  0
  -25.8040  -34.9660   23.3960 C   0  0  0  0  0  0  0  0  0  0  0  0
  -26.4550  -34.9060   22.3470 O   0  0  0  0  0  0  0  0  0  0  0  0
  -24.9150  -34.0040   24.9390 H   0  0  0  0  0  0  0  0  0  0  0  0
  -24.0850  -36.7850   23.1390 C   0  0  0  0  0  1  0  0  0  0  0  0
  -25.3290  -36.3340   23.9230 C   0  0  0  0  0  3  0  0  0  0  0  0
  -27.4760  -37.1620   24.7770 C   0  0  0  0  0  1  0  0  0  0  0  0
  -26.3670  -37.3870   23.8570 N   0  0  0  0  0  0  0  0  0  0  0  0
  -25.9650  -38.2990   24.0600 H   0  0  0  0  0  0  0  0  0  0  0  0
  1  2  1  0
  1 50  1  0
  2  4  1  0
  3  1  2  0
  5  6  2  0
  5  8  1  0
  6 10  1  0
  8  9  2  0
  9  7  1  0
  9 13  1  0
 10  2  1  0
 10  7  2  0
 11 12  1  0
 12  8  1  0
 14 13  1  0
 15 20  1  0
 16 17  1  0
 16 15  1  0
 18 17  1  0
 18 25  1  0
 18 19  1  0
 20 14  1  0
 20 19  1  0
 21 14  2  0
 22 23  2  0
 23 42  1  0
 23 24  1  0
 24 27  1  0
 25 22  1  0
 25 26  1  0
 26 24  2  0
 27 28  1  0
 28 29  2  0
 30 29  1  0
 31 30  2  0
 32 31  1  0
 32 27  2  0
 33 30  1  0
 33 34  1  0
 34 35  1  0
 35 36  2  0
 37 36  1  0
 37 41  1  0
 38 37  2  0
 39 34  2  0
 39 38  1  0
 40 39  1  0
 42 43  1  0
 43 46  1  0
 43 45  1  0
 44 42  2  0
 47 22  1  0
 48 47  1  0
 49 47  1  0
 51 50  2  0
 52 54  1  0
 52 51  1  0
 53 64  2  0
 54 59  1  0
 55 63  1  0
 55 65  1  0
 56 62  1  0
 56 58  1  0
 57 63  1  0
 58 57  1  0
 59 58  2  0
 60 61  1  0
 60 54  2  0
 61 56  2  0
 62 55  1  0
 63 53  1  0
 65 67  2  0
 66 65  1  0
 68 66  1  0
 69 78  2  0
 69 74  1  0
 70 66  1  0
 70 74  1  0
 71 70  1  0
 72 73  1  0
 72 71  1  0
 73 69  1  0
 74 75  2  0
 75 76  1  0
 77 76  2  0
 78 77  1  0
 79 53  1  0
 79 84  1  0
 79 80  1  0
 80 83  1  1
 80 81  1  0
 82 80  1  0
 84 87  1  0
 85 89  1  0
 85 84  1  0
 86 85  2  0
 89 88  1  0
 91 89  1  0
 91 92  1  0
 91 90  1  0
M  ISO  4  13 100  14 100  51 101  52 101
M  END
>  <TORSDO>  (62) 
F 20

>  <SCORE>  (62) 
-10.803

>  <name>  (62) 
62

>  <ligand_id>  (62) 
62

>  <original_smiles>  (62) 
[H]C(Oc1c([H])c([H])c2c(c1[H])C([H])([H])N(C(=O)C([H])(N([H])C(=O)C([H])(N([H])C([H])([H])[H])C([H])([H])[H])C(C([H])([H])[H])(C([H])([H])[H])C([H])([H])[H])C([H])(C(=O)N([H])C1([H])c3c([H])c([H])c([H])c([H])c3C([H])([H])C([H])([H])C1([H])[H])C2([H])[H])=C([H])C(=O)N([H])c1c([H])c([H])c(C([H])([H])C([H])([H])[H])c(C([H])([H])C(=O)N2C([H])([H])C([H])([H])C([H])([H])C([H])(n3nc(-c4c([H])c([H])c(Oc5c([H])c([H])c(F)c([H])c5F)c([H])c4[H])c(C(=O)N([H])[H])c3N([H])[H])C2([H])[H])c1[H]

>  <smiles>  (62) 
[H]C(Oc1c([H])c([H])c2c(c1[H])C([H])([H])N(C(=O)C([H])(N([H])C(=O)C([H])(N([H])C([H])([H])[H])C([H])([H])[H])C(C([H])([H])[H])(C([H])([H])[H])C([H])([H])[H])C([H])(C(=O)N([H])C1([H])c3c([H])c([H])c([H])c([H])c3C([H])([H])C([H])([H])C1([H])[H])C2([H])[H])=C([H])C(=O)N([H])c1c([H])c([H])c(C([H])([H])C([H])([H])[H])c(C([H])([H])C(=O)N2C([H])([H])C([H])([H])C([H])([H])C([H])(n3nc(-c4c([H])c([H])c(Oc5c([H])c([H])c(F)c([H])c5F)c([H])c4[H])c(C(=O)N([H])[H])c3N([H])[H])C2([H])[H])c1[H]

$$$$
63:0:0
     RDKit          3D

 92100  0  0  1  0  0  0  0  0999 V2000
  -31.2300  -17.8690   20.4590 C   0  0  0  0  0  3  0  0  0  0  0  0
  -28.8910  -19.3760   20.6030 C   0  0  0  0  0  2  0  0  0  0  0  0
  -30.0070  -20.1510   20.4810 C   0  0  0  0  0  0  0  0  0  0  0  0
  -30.0470  -17.2310   20.5880 C   0  0  0  0  0  0  0  0  0  0  0  0
  -31.2910  -19.3590   20.4130 C   0  0  0  0  0  0  0  0  0  0  0  0
  -32.7350  -21.2750   20.2700 C   0  0  0  0  0  1  0  0  0  0  0  0
  -32.4710  -19.8510   20.3140 N   0  0  0  0  0  2  0  0  0  0  0  0
  -28.8690  -17.9690   20.6690 O   0  0  0  0  0  0  0  0  0  0  0  0
  -30.5770  -14.7210   20.3860 C   0  0  0  0  0  0  0  0  0  0  0  0
  -30.3540  -12.4830   19.3200 C   0  0  0  0  0  2  0  0  0  0  0  0
  -29.3970  -12.6090   18.1120 C   0  0  0  0  0  2  0  0  0  0  0  0
  -27.9300  -12.4400   18.5560 C   0  0  0  0  0  2  0  0  0  0  0  0
  -27.5800  -13.2950   19.8040 C   0  0  0  0  0  3  0  0  0  0  0  0
  -28.6530  -13.1550   20.9060 C   0  0  0  0  0  2  0  0  0  0  0  0
  -29.9510  -13.5030   20.3090 N   0  0  0  0  0  0  0  0  0  0  0  0
  -31.7520  -14.8440   20.0280 O   0  0  0  0  0  0  0  0  0  0  0  0
  -29.7780  -15.8110   20.6570 N   0  0  0  0  0  0  0  0  0  0  0  0
  -28.8200  -15.5780   20.8700 H   0  0  0  0  0  0  0  0  0  0  0  0
  -25.1970  -13.8780   20.5600 C   0  0  0  0  0  0  0  0  0  0  0  0
  -24.1360  -13.0990   20.9360 C   0  0  0  0  0  0  0  0  0  0  0  0
  -24.6030  -11.7490   20.8890 C   0  0  0  0  0  0  0  0  0  0  0  0
  -26.2400  -13.0030   20.3040 N   0  0  0  0  0  0  0  0  0  0  0  0
  -25.8890  -11.7170   20.5650 N   0  0  0  0  0  0  0  0  0  0  0  0
  -23.8820  -10.4830   21.0760 C   0  0  0  0  0  0  0  0  0  0  0  0
  -24.3300   -9.5070   21.9920 C   0  0  0  0  0  3  0  0  0  0  0  0
  -23.6080   -8.3060   22.1690 C   0  0  0  0  0  3  0  0  0  0  0  0
  -22.4240   -8.0740   21.4300 C   0  0  0  0  0  0  0  0  0  0  0  0
  -21.9940   -9.0410   20.5030 C   0  0  0  0  0  3  0  0  0  0  0  0
  -22.7160  -10.2320   20.3240 C   0  0  0  0  0  3  0  0  0  0  0  0
  -21.6720   -6.9270   21.5170 O   0  0  0  0  0  0  0  0  0  0  0  0
  -21.6420   -6.1720   22.6610 C   0  0  0  0  0  0  0  0  0  0  0  0
  -21.2220   -6.7090   23.8980 C   0  0  0  0  0  3  0  0  0  0  0  0
  -21.1400   -5.8800   25.0350 C   0  0  0  0  0  3  0  0  0  0  0  0
  -21.4670   -4.5140   24.9350 C   0  0  0  0  0  0  0  0  0  0  0  0
  -21.8780   -3.9770   23.7030 C   0  0  0  0  0  3  0  0  0  0  0  0
  -21.9630   -4.8030   22.5690 C   0  0  0  0  0  0  0  0  0  0  0  0
  -22.3390   -4.2750   21.3800 F   0  0  0  0  0  0  0  0  0  0  0  0
  -21.3810   -3.7150   26.0240 F   0  0  0  0  0  0  0  0  0  0  0  0
  -22.7410  -13.5700   21.2250 C   0  0  0  0  0  0  0  0  0  0  0  0
  -22.0250  -12.8710   22.0980 N   0  0  0  0  0  0  0  0  0  0  0  0
  -22.2940  -14.5960   20.7120 O   0  0  0  0  0  0  0  0  0  0  0  0
  -22.4000  -12.0410   22.5370 H   0  0  0  0  0  0  0  0  0  0  0  0
  -21.0890  -13.1670   22.3320 H   0  0  0  0  0  0  0  0  0  0  0  0
  -25.3550  -15.2510   20.3910 N   0  0  0  0  0  0  0  0  0  0  0  0
  -24.5860  -15.9000   20.5190 H   0  0  0  0  0  0  0  0  0  0  0  0
  -26.1910  -15.6970   20.0380 H   0  0  0  0  0  0  0  0  0  0  0  0
  -30.0300  -21.5680   20.4230 O   0  0  0  0  0  0  0  0  0  0  0  0
  -28.8330  -22.4180   20.4480 C   0  0  0  0  0  2  0  0  0  0  0  0
  -29.1620  -23.9760   20.3930 C   0  0  0  0  0  0  0  0  0  0  0  0
  -30.3220  -24.3700   20.5620 O   0  0  0  0  0  0  0  0  0  0  0  0
  -28.0090  -25.0200   20.1040 C   0  0  0  0  0  2  0  0  0  0  0  0
  -28.3090  -26.4750   20.2500 O   0  0  0  0  0  0  0  0  0  0  0  0
  -24.6390  -31.9370   23.2630 C   0  0  0  0  0  0  0  0  0  0  0  0
  -27.2060  -27.3510   20.1980 C   0  0  0  0  0  0  0  0  0  0  0  0
  -23.4200  -30.5440   21.6310 C   0  0  0  0  0  3  0  0  0  0  0  0
  -24.8520  -28.9880   20.1990 C   0  0  0  0  0  0  0  0  0  0  0  0
  -25.9610  -30.8430   21.4380 C   0  0  0  0  0  2  0  0  0  0  0  0
  -26.0300  -29.4650   20.7890 C   0  0  0  0  0  0  0  0  0  0  0  0
  -27.2100  -28.6590   20.7770 C   0  0  0  0  0  3  0  0  0  0  0  0
  -26.0020  -26.9340   19.5800 C   0  0  0  0  0  3  0  0  0  0  0  0
  -24.8420  -27.7290   19.5850 C   0  0  0  0  0  3  0  0  0  0  0  0
  -23.6230  -29.8690   20.2500 C   0  0  0  0  0  2  0  0  0  0  0  0
  -24.6930  -31.1250   22.1670 N   0  0  0  0  0  0  0  0  0  0  0  0
  -23.5590  -32.2230   23.8010 O   0  0  0  0  0  0  0  0  0  0  0  0
  -22.7540  -29.5310   22.5940 C   0  0  0  0  0  0  0  0  0  0  0  0
  -21.4290  -29.3550   22.4650 N   0  0  0  0  0  0  0  0  0  0  0  0
  -23.4300  -28.9080   23.4170 O   0  0  0  0  0  0  0  0  0  0  0  0
  -20.9430  -29.9100   21.7740 H   0  0  0  0  0  0  0  0  0  0  0  0
  -18.0460  -28.1730   22.9690 C   0  0  0  0  0  0  0  0  0  0  0  0
  -20.6060  -28.4240   23.2390 C   0  0  0  0  0  3  0  0  0  0  0  0
  -20.7020  -26.9900   22.6690 C   0  0  0  0  0  2  0  0  0  0  0  0
  -19.5990  -26.6670   21.6550 C   0  0  0  0  0  2  0  0  0  0  0  0
  -18.2170  -26.8210   22.2980 C   0  0  0  0  0  2  0  0  0  0  0  0
  -19.1680  -28.9330   23.3960 C   0  0  0  0  0  0  0  0  0  0  0  0
  -18.9530  -30.1990   23.9830 C   0  0  0  0  0  3  0  0  0  0  0  0
  -17.6500  -30.7050   24.1470 C   0  0  0  0  0  3  0  0  0  0  0  0
  -16.5430  -29.9420   23.7360 C   0  0  0  0  0  3  0  0  0  0  0  0
  -16.7420  -28.6780   23.1530 C   0  0  0  0  0  3  0  0  0  0  0  0
  -25.9280  -32.5600   23.8800 C   0  0  0  0  0  3  0  0  0  0  0  0
  -26.4480  -31.7840   25.1520 C   0  0  1  0  0  0  0  0  0  0  0  0
  -25.3600  -31.5470   26.2240 C   0  0  0  0  0  1  0  0  0  0  0  0
  -27.0220  -30.4040   24.7540 C   0  0  0  0  0  1  0  0  0  0  0  0
  -27.6060  -32.5690   25.8100 C   0  0  0  0  0  1  0  0  0  0  0  0
  -25.6270  -33.9600   24.2170 N   0  0  0  0  0  0  0  0  0  0  0  0
  -25.9340  -35.0130   23.4470 C   0  0  0  0  0  0  0  0  0  0  0  0
  -26.5720  -34.9080   22.3960 O   0  0  0  0  0  0  0  0  0  0  0  0
  -25.0570  -34.1150   25.0360 H   0  0  0  0  0  0  0  0  0  0  0  0
  -24.1820  -36.7940   23.1580 C   0  0  0  0  0  1  0  0  0  0  0  0
  -25.4590  -36.4010   23.9170 C   0  0  0  0  0  3  0  0  0  0  0  0
  -27.6220  -37.3020   24.6540 C   0  0  0  0  0  1  0  0  0  0  0  0
  -26.4810  -37.4590   23.7560 N   0  0  0  0  0  0  0  0  0  0  0  0
  -26.0760  -38.3780   23.9150 H   0  0  0  0  0  0  0  0  0  0  0  0
  1  4  2  0
  2  8  1  0
  3  2  1  0
  4 17  1  0
  4  8  1  0
  5  1  1  0
  5  3  2  0
  6  7  1  0
  7  5  1  0
  9 17  1  0
 10 15  1  0
 11 12  1  0
 11 10  1  0
 13 12  1  0
 13 22  1  0
 13 14  1  0
 15  9  1  0
 15 14  1  0
 16  9  2  0
 17 18  1  0
 19 20  2  0
 20 39  1  0
 21 20  1  0
 21 24  1  0
 22 19  1  0
 22 23  1  0
 23 21  2  0
 24 25  1  0
 25 26  2  0
 27 30  1  0
 27 26  1  0
 28 27  2  0
 29 28  1  0
 29 24  2  0
 30 31  1  0
 31 32  1  0
 32 33  2  0
 34 33  1  0
 34 38  1  0
 35 34  2  0
 36 31  2  0
 36 35  1  0
 37 36  1  0
 39 40  1  0
 40 43  1  0
 40 42  1  0
 41 39  2  0
 44 45  1  0
 44 19  1  0
 46 44  1  0
 47 48  1  0
 47  3  1  0
 49 48  1  0
 49 50  2  0
 51 52  1  0
 51 49  1  0
 53 64  2  0
 54 52  1  0
 54 59  1  0
 55 63  1  0
 55 65  1  0
 56 62  1  0
 56 58  1  0
 57 63  1  0
 58 57  1  0
 59 58  2  0
 60 61  1  0
 60 54  2  0
 61 56  2  0
 62 55  1  0
 63 53  1  0
 65 67  2  0
 66 65  1  0
 68 66  1  0
 69 78  2  0
 69 74  1  0
 70 66  1  0
 70 74  1  0
 71 70  1  0
 72 73  1  0
 72 71  1  0
 73 69  1  0
 74 75  2  0
 75 76  1  0
 77 76  2  0
 78 77  1  0
 79 53  1  0
 79 84  1  0
 79 80  1  0
 80 83  1  1
 80 81  1  0
 82 80  1  0
 84 87  1  0
 85 89  1  0
 85 84  1  0
 86 85  2  0
 89 88  1  0
 91 92  1  0
 91 89  1  0
 91 90  1  0
M  ISO  4   9 100  17 100  51 101  52 101
M  END
>  <TORSDO>  (63) 
F 20

>  <SCORE>  (63) 
-14.060

>  <name>  (63) 
63

>  <ligand_id>  (63) 
63

>  <original_smiles>  (63) 
[H]c1oc(N([H])C(=O)N2C([H])([H])C([H])([H])C([H])([H])C([H])(n3nc(-c4c([H])c([H])c(Oc5c([H])c([H])c(F)c([H])c5F)c([H])c4[H])c(C(=O)N([H])[H])c3N([H])[H])C2([H])[H])c([H])c(=NC([H])([H])[H])c1OC([H])([H])C(=O)C([H])([H])Oc1c([H])c([H])c2c(c1[H])C([H])([H])N(C(=O)C([H])(N([H])C(=O)C([H])(N([H])C([H])([H])[H])C([H])([H])[H])C(C([H])([H])[H])(C([H])([H])[H])C([H])([H])[H])C([H])(C(=O)N([H])C1([H])c3c([H])c([H])c([H])c([H])c3C([H])([H])C([H])([H])C1([H])[H])C2([H])[H]

>  <smiles>  (63) 
[H]c1oc(N([H])C(=O)N2C([H])([H])C([H])([H])C([H])([H])C([H])(n3nc(-c4c([H])c([H])c(Oc5c([H])c([H])c(F)c([H])c5F)c([H])c4[H])c(C(=O)N([H])[H])c3N([H])[H])C2([H])[H])c([H])c(=NC([H])([H])[H])c1OC([H])([H])C(=O)C([H])([H])Oc1c([H])c([H])c2c(c1[H])C([H])([H])N(C(=O)C([H])(N([H])C(=O)C([H])(N([H])C([H])([H])[H])C([H])([H])[H])C(C([H])([H])[H])(C([H])([H])[H])C([H])([H])[H])C([H])(C(=O)N([H])C1([H])c3c([H])c([H])c([H])c([H])c3C([H])([H])C([H])([H])C1([H])[H])C2([H])[H]

$$$$
64:0:0
     RDKit          3D

 94102  0  0  1  0  0  0  0  0999 V2000
  -29.5260  -18.8910   17.0790 C   0  0  0  0  0  3  0  0  0  0  0  0
  -28.9970  -19.4790   18.2320 C   0  0  0  0  0  3  0  0  0  0  0  0
  -30.6120  -17.2650   18.4650 C   0  0  0  0  0  3  0  0  0  0  0  0
  -30.3830  -17.8060   17.1970 C   0  0  0  0  0  0  0  0  0  0  0  0
  -30.0200  -17.7430   19.6740 C   0  0  0  0  0  0  0  0  0  0  0  0
  -29.2600  -19.0490   19.5700 C   0  0  0  0  0  0  0  0  0  0  0  0
  -30.9360  -15.5160   20.7160 C   0  0  0  0  0  0  0  0  0  0  0  0
  -30.8500  -13.2070   19.7320 C   0  0  0  0  0  2  0  0  0  0  0  0
  -29.9880  -13.1970   18.4480 C   0  0  0  0  0  2  0  0  0  0  0  0
  -28.5070  -12.9710   18.7960 C   0  0  0  0  0  2  0  0  0  0  0  0
  -28.0260  -13.8670   19.9670 C   0  0  0  0  0  3  0  0  0  0  0  0
  -29.0160  -13.8670   21.1540 C   0  0  0  0  0  2  0  0  0  0  0  0
  -30.3250  -14.2720   20.6310 N   0  0  0  0  0  0  0  0  0  0  0  0
  -32.1480  -15.5810   20.4920 O   0  0  0  0  0  0  0  0  0  0  0  0
  -30.1880  -16.7150   20.7690 N   0  0  0  0  0  0  0  0  0  0  0  0
  -29.4010  -16.6760   21.3980 H   0  0  0  0  0  0  0  0  0  0  0  0
  -25.5970  -14.3750   20.5980 C   0  0  0  0  0  0  0  0  0  0  0  0
  -24.5300  -13.5650   20.8810 C   0  0  0  0  0  0  0  0  0  0  0  0
  -25.0250  -12.2250   20.8250 C   0  0  0  0  0  0  0  0  0  0  0  0
  -26.6700  -13.5270   20.3820 N   0  0  0  0  0  0  0  0  0  0  0  0
  -26.3310  -12.2270   20.5850 N   0  0  0  0  0  0  0  0  0  0  0  0
  -24.3150  -10.9430   20.9270 C   0  0  0  0  0  0  0  0  0  0  0  0
  -24.6830   -9.9680   21.8800 C   0  0  0  0  0  3  0  0  0  0  0  0
  -23.9730   -8.7520   21.9700 C   0  0  0  0  0  3  0  0  0  0  0  0
  -22.8800   -8.5020   21.1080 C   0  0  0  0  0  0  0  0  0  0  0  0
  -22.5320   -9.4660   20.1440 C   0  0  0  0  0  3  0  0  0  0  0  0
  -23.2450  -10.6730   20.0500 C   0  0  0  0  0  3  0  0  0  0  0  0
  -22.1450   -7.3410   21.1100 O   0  0  0  0  0  0  0  0  0  0  0  0
  -21.9180   -6.6330   22.2630 C   0  0  0  0  0  0  0  0  0  0  0  0
  -21.2370   -7.1990   23.3640 C   0  0  0  0  0  3  0  0  0  0  0  0
  -20.9660   -6.4140   24.5040 C   0  0  0  0  0  3  0  0  0  0  0  0
  -21.3650   -5.0640   24.5410 C   0  0  0  0  0  0  0  0  0  0  0  0
  -22.0370   -4.4980   23.4430 C   0  0  0  0  0  3  0  0  0  0  0  0
  -22.3100   -5.2800   22.3070 C   0  0  0  0  0  0  0  0  0  0  0  0
  -22.9400   -4.7230   21.2450 F   0  0  0  0  0  0  0  0  0  0  0  0
  -21.0960   -4.3070   25.6310 F   0  0  0  0  0  0  0  0  0  0  0  0
  -23.1110  -14.0030   21.0910 C   0  0  0  0  0  0  0  0  0  0  0  0
  -22.3560  -13.2720   21.9040 N   0  0  0  0  0  0  0  0  0  0  0  0
  -22.6770  -15.0310   20.5730 O   0  0  0  0  0  0  0  0  0  0  0  0
  -22.7180  -12.4430   22.3520 H   0  0  0  0  0  0  0  0  0  0  0  0
  -21.4010  -13.5460   22.0830 H   0  0  0  0  0  0  0  0  0  0  0  0
  -25.7410  -15.7550   20.4850 N   0  0  0  0  0  0  0  0  0  0  0  0
  -24.9680  -16.3950   20.6230 H   0  0  0  0  0  0  0  0  0  0  0  0
  -26.5900  -16.2190   20.1920 H   0  0  0  0  0  0  0  0  0  0  0  0
  -30.9680  -17.2400   16.0630 N   0  0  0  0  0  0  0  0  0  0  0  0
  -30.6530  -17.4840   15.1280 H   0  0  0  0  0  0  0  0  0  0  0  0
  -31.4830  -16.3680   16.1140 H   0  0  0  0  0  0  0  0  0  0  0  0
  -28.7710  -19.9880   20.5630 O   0  0  0  0  0  0  0  0  0  0  0  0
  -28.3370  -21.4230   20.1680 C   0  0  0  0  0  2  0  0  0  0  0  0
  -28.6460  -22.7020   21.0780 C   0  0  0  0  0  3  0  0  0  0  0  0
  -28.4860  -24.1090   21.0360 C   0  0  0  0  0  0  0  0  0  0  0  0
  -29.0290  -24.8790   22.2320 C   0  0  0  0  0  1  0  0  0  0  0  0
  -27.8310  -25.1660   20.0070 C   0  0  0  0  0  2  0  0  0  0  0  0
  -28.0840  -26.6740   20.1870 O   0  0  0  0  0  0  0  0  0  0  0  0
  -24.8040  -32.2960   23.5040 C   0  0  0  0  0  0  0  0  0  0  0  0
  -27.0350  -27.6450   20.1880 C   0  0  0  0  0  0  0  0  0  0  0  0
  -23.4550  -30.9860   21.9080 C   0  0  0  0  0  3  0  0  0  0  0  0
  -24.7580  -29.4210   20.3430 C   0  0  0  0  0  0  0  0  0  0  0  0
  -25.9940  -31.1960   21.5760 C   0  0  0  0  0  2  0  0  0  0  0  0
  -25.9820  -29.8250   20.8900 C   0  0  0  0  0  0  0  0  0  0  0  0
  -27.1210  -28.9510   20.7990 C   0  0  0  0  0  3  0  0  0  0  0  0
  -25.7930  -27.3350   19.5900 C   0  0  0  0  0  3  0  0  0  0  0  0
  -24.6730  -28.1910   19.6740 C   0  0  0  0  0  3  0  0  0  0  0  0
  -23.5620  -30.3440   20.4980 C   0  0  0  0  0  2  0  0  0  0  0  0
  -24.7760  -31.5130   22.3850 N   0  0  0  0  0  0  0  0  0  0  0  0
  -23.7660  -32.5980   24.1120 O   0  0  0  0  0  0  0  0  0  0  0  0
  -22.8120  -29.9700   22.8840 C   0  0  0  0  0  0  0  0  0  0  0  0
  -21.5240  -29.6450   22.6690 N   0  0  0  0  0  0  0  0  0  0  0  0
  -23.4750  -29.4730   23.7980 O   0  0  0  0  0  0  0  0  0  0  0  0
  -21.0440  -30.1020   21.9060 H   0  0  0  0  0  0  0  0  0  0  0  0
  -18.3000  -28.0120   22.8940 C   0  0  0  0  0  0  0  0  0  0  0  0
  -20.7400  -28.6750   23.4380 C   0  0  0  0  0  3  0  0  0  0  0  0
  -21.1100  -27.2250   23.0450 C   0  0  0  0  0  2  0  0  0  0  0  0
  -20.2080  -26.6470   21.9490 C   0  0  0  0  0  2  0  0  0  0  0  0
  -18.7460  -26.6460   22.4030 C   0  0  0  0  0  2  0  0  0  0  0  0
  -19.2370  -28.9710   23.3650 C   0  0  0  0  0  0  0  0  0  0  0  0
  -18.7680  -30.2380   23.7770 C   0  0  0  0  0  3  0  0  0  0  0  0
  -17.3960  -30.5490   23.7280 C   0  0  0  0  0  3  0  0  0  0  0  0
  -16.4730  -29.5910   23.2750 C   0  0  0  0  0  3  0  0  0  0  0  0
  -16.9260  -28.3250   22.8640 C   0  0  0  0  0  3  0  0  0  0  0  0
  -26.1410  -32.8720   24.0640 C   0  0  0  0  0  3  0  0  0  0  0  0
  -25.9070  -34.2800   24.4230 N   0  0  0  0  0  0  0  0  0  0  0  0
  -26.2420  -35.3280   23.6570 C   0  0  0  0  0  0  0  0  0  0  0  0
  -26.8470  -35.2080   22.5880 O   0  0  0  0  0  0  0  0  0  0  0  0
  -25.3640  -34.4500   25.2570 H   0  0  0  0  0  0  0  0  0  0  0  0
  -24.5730  -37.1960   23.4290 C   0  0  0  0  0  1  0  0  0  0  0  0
  -25.8440  -36.7300   24.1560 C   0  0  0  0  0  3  0  0  0  0  0  0
  -28.0550  -37.5280   24.8670 C   0  0  0  0  0  1  0  0  0  0  0  0
  -26.9110  -37.7410   23.9850 N   0  0  0  0  0  0  0  0  0  0  0  0
  -26.5520  -38.6770   24.1540 H   0  0  0  0  0  0  0  0  0  0  0  0
  -26.6880  -32.0700   25.3080 C   0  0  1  0  0  0  0  0  0  0  0  0
  -25.6170  -31.7800   26.3860 C   0  0  0  0  0  1  0  0  0  0  0  0
  -27.2850  -30.7150   24.8640 C   0  0  0  0  0  1  0  0  0  0  0  0
  -27.8380  -32.8610   25.9780 C   0  0  0  0  0  1  0  0  0  0  0  0
  1  4  2  0
  1  2  1  0
  2  6  2  0
  3  5  2  0
  4  3  1  0
  5 15  1  0
  6  5  1  0
  6 48  1  0
  7 15  1  0
  8 13  1  0
  9 10  1  0
  9  8  1  0
 11 10  1  0
 11 20  1  0
 11 12  1  0
 13  7  1  0
 13 12  1  0
 14  7  2  0
 15 16  1  0
 17 18  2  0
 18 37  1  0
 19 18  1  0
 19 22  1  0
 20 21  1  0
 20 17  1  0
 21 19  2  0
 22 23  1  0
 23 24  2  0
 25 28  1  0
 25 24  1  0
 26 25  2  0
 27 26  1  0
 27 22  2  0
 28 29  1  0
 29 34  2  0
 29 30  1  0
 30 31  2  0
 31 32  1  0
 32 36  1  0
 33 32  2  0
 34 33  1  0
 35 34  1  0
 37 38  1  0
 38 41  1  0
 38 40  1  0
 39 37  2  0
 42 17  1  0
 42 43  1  0
 44 42  1  0
 45 47  1  0
 45  4  1  0
 46 45  1  0
 49 48  1  0
 49 50  1  0
 51 50  2  0
 51 52  1  0
 53 54  1  0
 53 51  1  0
 54 56  1  0
 55 66  2  0
 56 61  1  0
 57 65  1  0
 57 67  1  0
 58 64  1  0
 58 60  1  0
 59 65  1  0
 60 59  1  0
 61 60  2  0
 62 63  1  0
 62 56  2  0
 63 58  2  0
 64 57  1  0
 65 55  1  0
 67 69  2  0
 68 67  1  0
 70 68  1  0
 71 76  1  0
 72 68  1  0
 73 72  1  0
 74 75  1  0
 74 73  1  0
 75 71  1  0
 76 72  1  0
 76 77  2  0
 78 77  1  0
 79 78  2  0
 80 71  2  0
 80 79  1  0
 81 55  1  0
 81 82  1  0
 81 91  1  0
 82 85  1  0
 83 87  1  0
 83 82  1  0
 84 83  2  0
 87 86  1  0
 89 90  1  0
 89 87  1  0
 89 88  1  0
 91 94  1  1
 91 92  1  0
 93 91  1  0
M  ISO  4   7 100  15 100  53 101  54 101
M  END
>  <TORSDO>  (64) 
F 21

>  <SCORE>  (64) 
-12.431

>  <name>  (64) 
64

>  <ligand_id>  (64) 
64

>  <original_smiles>  (64) 
[H]C(=C(C([H])([H])[H])C([H])([H])Oc1c([H])c([H])c2c(c1[H])C([H])([H])N(C(=O)C([H])(N([H])C(=O)C([H])(N([H])C([H])([H])[H])C([H])([H])[H])C(C([H])([H])[H])(C([H])([H])[H])C([H])([H])[H])C([H])(C(=O)N([H])C1([H])c3c([H])c([H])c([H])c([H])c3C([H])([H])C([H])([H])C1([H])[H])C2([H])[H])C([H])([H])Oc1c([H])c([H])c(N([H])[H])c([H])c1N([H])C(=O)N1C([H])([H])C([H])([H])C([H])([H])C([H])(n2nc(-c3c([H])c([H])c(Oc4c([H])c([H])c(F)c([H])c4F)c([H])c3[H])c(C(=O)N([H])[H])c2N([H])[H])C1([H])[H]

>  <smiles>  (64) 
[H]C(=C(C([H])([H])[H])C([H])([H])Oc1c([H])c([H])c2c(c1[H])C([H])([H])N(C(=O)C([H])(N([H])C(=O)C([H])(N([H])C([H])([H])[H])C([H])([H])[H])C(C([H])([H])[H])(C([H])([H])[H])C([H])([H])[H])C([H])(C(=O)N([H])C1([H])c3c([H])c([H])c([H])c([H])c3C([H])([H])C([H])([H])C1([H])[H])C2([H])[H])C([H])([H])Oc1c([H])c([H])c(N([H])[H])c([H])c1N([H])C(=O)N1C([H])([H])C([H])([H])C([H])([H])C([H])(n2nc(-c3c([H])c([H])c(Oc4c([H])c([H])c(F)c([H])c4F)c([H])c3[H])c(C(=O)N([H])[H])c2N([H])[H])C1([H])[H]

$$$$
65:0:0
     RDKit          3D

100109  0  0  1  0  0  0  0  0999 V2000
  -27.6500  -23.6430   20.7550 C   0  0  0  0  0  0  0  0  0  0  0  0
  -27.2740  -22.6070   21.6080 C   0  0  0  0  0  0  0  0  0  0  0  0
  -27.9670  -23.2680   19.3650 C   0  0  0  0  0  0  0  0  0  0  0  0
  -27.2230  -20.1140   22.2220 C   0  0  0  0  0  0  0  0  0  0  0  0
  -27.4600  -21.8980   18.9210 C   0  0  0  0  0  2  0  0  0  0  0  0
  -27.8150  -20.8020   19.9420 C   0  0  0  0  0  2  0  0  0  0  0  0
  -26.5460  -22.9750   22.9120 C   0  0  0  0  0  1  0  0  0  0  0  0
  -27.3990  -21.1590   21.3050 N   0  0  0  0  0  0  0  0  0  0  0  0
  -28.5520  -23.9800   18.5520 O   0  0  0  0  0  0  0  0  0  0  0  0
  -26.8470  -20.3440   23.3780 O   0  0  0  0  0  0  0  0  0  0  0  0
  -28.5800  -17.9020   21.4800 C   0  0  0  0  0  3  0  0  0  0  0  0
  -26.4350  -17.7710   22.6070 C   0  0  0  0  0  3  0  0  0  0  0  0
  -27.8350  -15.7970   22.4110 C   0  0  0  0  0  3  0  0  0  0  0  0
  -27.4150  -18.5940   22.0040 C   0  0  0  0  0  0  0  0  0  0  0  0
  -28.7860  -16.4740   21.6190 C   0  0  0  0  0  0  0  0  0  0  0  0
  -26.6610  -16.4170   22.8620 C   0  0  0  0  0  0  0  0  0  0  0  0
  -30.6020  -14.6850   20.6610 C   0  0  0  0  0  0  0  0  0  0  0  0
  -30.4670  -12.5040   19.4830 C   0  0  0  0  0  2  0  0  0  0  0  0
  -29.5100  -12.5660   18.2680 C   0  0  0  0  0  2  0  0  0  0  0  0
  -28.0340  -12.4270   18.6740 C   0  0  0  0  0  2  0  0  0  0  0  0
  -27.6730  -13.2420   19.9230 C   0  0  0  0  0  3  0  0  0  0  0  0
  -28.7210  -12.9670   21.0100 C   0  0  0  0  0  2  0  0  0  0  0  0
  -29.9820  -13.4730   20.5010 N   0  0  0  0  0  0  0  0  0  0  0  0
  -31.7410  -14.8020   20.1900 O   0  0  0  0  0  0  0  0  0  0  0  0
  -30.0550  -15.8530   21.1760 N   0  0  0  0  0  0  0  0  0  0  0  0
  -30.7720  -16.5510   21.0690 H   0  0  0  0  0  0  0  0  0  0  0  0
  -25.2690  -13.8250   20.5310 C   0  0  0  0  0  0  0  0  0  0  0  0
  -24.1990  -13.0660   20.9130 C   0  0  0  0  0  0  0  0  0  0  0  0
  -24.6430  -11.7010   20.8640 C   0  0  0  0  0  0  0  0  0  0  0  0
  -26.3220  -12.9450   20.3630 N   0  0  0  0  0  0  0  0  0  0  0  0
  -25.9440  -11.6590   20.5930 N   0  0  0  0  0  0  0  0  0  0  0  0
  -23.9170  -10.4270   20.9980 C   0  0  0  0  0  0  0  0  0  0  0  0
  -24.4080   -9.3850   21.8280 C   0  0  0  0  0  3  0  0  0  0  0  0
  -23.6480   -8.2050   22.0260 C   0  0  0  0  0  3  0  0  0  0  0  0
  -22.4300   -8.0280   21.3400 C   0  0  0  0  0  0  0  0  0  0  0  0
  -21.9620   -9.0410   20.4940 C   0  0  0  0  0  3  0  0  0  0  0  0
  -22.6810  -10.2400   20.3450 C   0  0  0  0  0  3  0  0  0  0  0  0
  -21.6670   -6.8890   21.4030 O   0  0  0  0  0  0  0  0  0  0  0  0
  -21.6860   -6.0880   22.5130 C   0  0  0  0  0  0  0  0  0  0  0  0
  -21.4100   -6.5800   23.8110 C   0  0  0  0  0  3  0  0  0  0  0  0
  -21.3600   -5.6860   24.9040 C   0  0  0  0  0  3  0  0  0  0  0  0
  -21.6050   -4.3160   24.7020 C   0  0  0  0  0  0  0  0  0  0  0  0
  -21.8910   -3.8300   23.4110 C   0  0  0  0  0  3  0  0  0  0  0  0
  -21.9190   -4.7140   22.3220 C   0  0  0  0  0  0  0  0  0  0  0  0
  -22.1760   -4.2440   21.0760 F   0  0  0  0  0  0  0  0  0  0  0  0
  -21.5500   -3.4550   25.7460 F   0  0  0  0  0  0  0  0  0  0  0  0
  -22.8060  -13.5510   21.2060 C   0  0  0  0  0  0  0  0  0  0  0  0
  -22.1070  -12.8620   22.0980 N   0  0  0  0  0  0  0  0  0  0  0  0
  -22.3240  -14.5650   20.7010 O   0  0  0  0  0  0  0  0  0  0  0  0
  -22.5100  -12.1180   22.6540 H   0  0  0  0  0  0  0  0  0  0  0  0
  -21.1440  -13.1100   22.2760 H   0  0  0  0  0  0  0  0  0  0  0  0
  -25.4500  -15.1800   20.2910 N   0  0  0  0  0  0  0  0  0  0  0  0
  -24.7250  -15.8700   20.3770 H   0  0  0  0  0  0  0  0  0  0  0  0
  -26.3310  -15.5930   20.0000 H   0  0  0  0  0  0  0  0  0  0  0  0
  -25.7530  -15.6600   23.5470 O   0  0  0  0  0  0  0  0  0  0  0  0
  -25.7610  -15.8750   24.9420 C   0  0  0  0  0  2  0  0  0  0  0  0
  -23.2880  -15.7040   25.5000 C   0  0  0  0  0  2  0  0  0  0  0  0
  -24.5390  -15.2250   25.5520 C   0  0  0  0  0  3  0  0  0  0  0  0
  -27.6210  -25.1820   21.1350 C   0  0  0  0  0  2  0  0  0  0  0  0
  -28.1120  -26.3070   20.2740 O   0  0  0  0  0  0  0  0  0  0  0  0
  -24.6270  -31.8600   23.2030 C   0  0  0  0  0  0  0  0  0  0  0  0
  -27.1390  -27.2960   20.1270 C   0  0  0  0  0  0  0  0  0  0  0  0
  -23.4180  -30.4930   21.5400 C   0  0  0  0  0  3  0  0  0  0  0  0
  -24.8470  -28.9620   20.0890 C   0  0  0  0  0  0  0  0  0  0  0  0
  -25.9600  -30.7810   21.3800 C   0  0  0  0  0  2  0  0  0  0  0  0
  -26.0220  -29.4190   20.7130 C   0  0  0  0  0  0  0  0  0  0  0  0
  -27.1890  -28.5930   20.7190 C   0  0  0  0  0  3  0  0  0  0  0  0
  -25.9780  -26.9130   19.4350 C   0  0  0  0  0  3  0  0  0  0  0  0
  -24.8330  -27.7220   19.4350 C   0  0  0  0  0  3  0  0  0  0  0  0
  -23.6250  -29.8470   20.1470 C   0  0  0  0  0  2  0  0  0  0  0  0
  -24.6880  -31.0630   22.0930 N   0  0  0  0  0  0  0  0  0  0  0  0
  -23.5460  -32.1410   23.7360 O   0  0  0  0  0  0  0  0  0  0  0  0
  -22.7480  -29.4640   22.4860 C   0  0  0  0  0  0  0  0  0  0  0  0
  -21.4180  -29.3060   22.3640 N   0  0  0  0  0  0  0  0  0  0  0  0
  -23.4230  -28.8190   23.2960 O   0  0  0  0  0  0  0  0  0  0  0  0
  -20.9360  -29.8790   21.6830 H   0  0  0  0  0  0  0  0  0  0  0  0
  -18.0300  -28.1400   22.8460 C   0  0  0  0  0  0  0  0  0  0  0  0
  -20.5890  -28.3710   23.1260 C   0  0  0  0  0  3  0  0  0  0  0  0
  -20.6790  -26.9450   22.5400 C   0  0  0  0  0  2  0  0  0  0  0  0
  -19.5770  -26.6400   21.5190 C   0  0  0  0  0  2  0  0  0  0  0  0
  -18.1940  -26.7940   22.1610 C   0  0  0  0  0  2  0  0  0  0  0  0
  -19.1550  -28.8870   23.2840 C   0  0  0  0  0  0  0  0  0  0  0  0
  -18.9480  -30.1450   23.8890 C   0  0  0  0  0  3  0  0  0  0  0  0
  -17.6480  -30.6590   24.0560 C   0  0  0  0  0  3  0  0  0  0  0  0
  -16.5370  -29.9110   23.6330 C   0  0  0  0  0  3  0  0  0  0  0  0
  -16.7280  -28.6520   23.0350 C   0  0  0  0  0  3  0  0  0  0  0  0
  -25.9150  -32.4750   23.8340 C   0  0  0  0  0  3  0  0  0  0  0  0
  -25.5970  -33.8550   24.2270 N   0  0  0  0  0  0  0  0  0  0  0  0
  -25.9080  -34.9440   23.5100 C   0  0  0  0  0  0  0  0  0  0  0  0
  -26.5640  -34.8920   22.4660 O   0  0  0  0  0  0  0  0  0  0  0  0
  -25.0120  -33.9680   25.0410 H   0  0  0  0  0  0  0  0  0  0  0  0
  -24.1500  -36.7270   23.2640 C   0  0  0  0  0  1  0  0  0  0  0  0
  -25.4130  -36.3060   24.0320 C   0  0  0  0  0  3  0  0  0  0  0  0
  -27.5590  -37.1790   24.8480 C   0  0  0  0  0  1  0  0  0  0  0  0
  -26.4320  -37.3760   23.9410 N   0  0  0  0  0  0  0  0  0  0  0  0
  -26.0190  -38.2850   24.1370 H   0  0  0  0  0  0  0  0  0  0  0  0
  -26.4530  -31.6540   25.0720 C   0  0  1  0  0  0  0  0  0  0  0  0
  -25.3780  -31.3670   26.1450 C   0  0  0  0  0  1  0  0  0  0  0  0
  -27.0350  -30.2950   24.6190 C   0  0  0  0  0  1  0  0  0  0  0  0
  -27.6090  -32.4270   25.7490 C   0  0  0  0  0  1  0  0  0  0  0  0
  1 59  1  0
  1  2  2  0
  2  7  1  0
  3  1  1  0
  4 10  2  0
  5  3  1  0
  5  6  1  0
  6  8  1  0
  8  2  1  0
  8  4  1  0
  9  3  2  0
 11 15  2  0
 11 14  1  0
 12 16  1  0
 13 16  2  0
 14  4  1  0
 14 12  2  0
 15 13  1  0
 16 55  1  0
 17 25  1  0
 18 23  1  0
 19 20  1  0
 19 18  1  0
 21 20  1  0
 21 30  1  0
 21 22  1  0
 23 17  1  0
 23 22  1  0
 24 17  2  0
 25 15  1  0
 26 25  1  0
 27 28  2  0
 28 47  1  0
 29 28  1  0
 29 32  1  0
 30 27  1  0
 30 31  1  0
 31 29  2  0
 32 33  1  0
 33 34  2  0
 35 38  1  0
 35 34  1  0
 36 35  2  0
 37 36  1  0
 37 32  2  0
 38 39  1  0
 39 40  1  0
 40 41  2  0
 42 41  1  0
 42 46  1  0
 43 42  2  0
 44 39  2  0
 44 43  1  0
 45 44  1  0
 47 48  1  0
 48 51  1  0
 48 50  1  0
 49 47  2  0
 52 53  1  0
 52 27  1  0
 54 52  1  0
 55 56  1  0
 56 58  1  0
 57 58  2  0
 60 59  1  0
 61 72  2  0
 62 60  1  0
 62 67  1  0
 63 71  1  0
 63 73  1  0
 64 70  1  0
 64 66  1  0
 65 71  1  0
 66 67  2  0
 66 65  1  0
 68 62  2  0
 69 68  1  0
 69 64  2  0
 70 63  1  0
 71 61  1  0
 73 75  2  0
 74 73  1  0
 76 74  1  0
 77 86  2  0
 77 82  1  0
 78 74  1  0
 78 82  1  0
 79 78  1  0
 80 81  1  0
 80 79  1  0
 81 77  1  0
 82 83  2  0
 83 84  1  0
 85 84  2  0
 86 85  1  0
 87 61  1  0
 87 88  1  0
 87 97  1  0
 88 91  1  0
 89 93  1  0
 89 88  1  0
 90 89  2  0
 93 92  1  0
 95 93  1  0
 95 96  1  0
 95 94  1  0
 97100  1  1
 97 98  1  0
 99 97  1  0
M  ISO  4  17 100  25 100  59 101  60 101
M  END
>  <TORSDO>  (65) 
F 21

>  <SCORE>  (65) 
44.760

>  <name>  (65) 
65

>  <ligand_id>  (65) 
65

>  <original_smiles>  (65) 
[H]C([H])=C([H])C([H])([H])Oc1c([H])c(C(=O)N2C(C([H])([H])[H])=C(C([H])([H])Oc3c([H])c([H])c4c(c3[H])C([H])([H])N(C(=O)C([H])(N([H])C(=O)C([H])(N([H])C([H])([H])[H])C([H])([H])[H])C(C([H])([H])[H])(C([H])([H])[H])C([H])([H])[H])C([H])(C(=O)N([H])C3([H])c5c([H])c([H])c([H])c([H])c5C([H])([H])C([H])([H])C3([H])[H])C4([H])[H])C(=O)C([H])([H])C2([H])[H])c([H])c(N([H])C(=O)N2C([H])([H])C([H])([H])C([H])([H])C([H])(n3nc(-c4c([H])c([H])c(Oc5c([H])c([H])c(F)c([H])c5F)c([H])c4[H])c(C(=O)N([H])[H])c3N([H])[H])C2([H])[H])c1[H]

>  <smiles>  (65) 
[H]C([H])=C([H])C([H])([H])Oc1c([H])c(C(=O)N2C(C([H])([H])[H])=C(C([H])([H])Oc3c([H])c([H])c4c(c3[H])C([H])([H])N(C(=O)C([H])(N([H])C(=O)C([H])(N([H])C([H])([H])[H])C([H])([H])[H])C(C([H])([H])[H])(C([H])([H])[H])C([H])([H])[H])C([H])(C(=O)N([H])C3([H])c5c([H])c([H])c([H])c([H])c5C([H])([H])C([H])([H])C3([H])[H])C4([H])[H])C(=O)C([H])([H])C2([H])[H])c([H])c(N([H])C(=O)N2C([H])([H])C([H])([H])C([H])([H])C([H])(n3nc(-c4c([H])c([H])c(Oc5c([H])c([H])c(F)c([H])c5F)c([H])c4[H])c(C(=O)N([H])[H])c3N([H])[H])C2([H])[H])c1[H]

$$$$
66:0:0
     RDKit          3D

 97106  0  0  1  0  0  0  0  0999 V2000
  -28.8180  -23.6580   20.3480 C   0  0  0  0  0  0  0  0  0  0  0  0
  -28.4860  -22.3050   20.1490 C   0  0  0  0  0  0  0  0  0  0  0  0
  -30.1210  -23.9350   21.0020 C   0  0  0  0  0  0  0  0  0  0  0  0
  -31.0670  -22.7550   21.2560 C   0  0  0  0  0  2  0  0  0  0  0  0
  -30.3320  -21.4350   21.5510 C   0  0  0  0  0  2  0  0  0  0  0  0
  -29.2940  -21.1690   20.5550 N   0  0  0  0  0  0  0  0  0  0  0  0
  -30.4990  -25.0610   21.3320 O   0  0  0  0  0  0  0  0  0  0  0  0
  -29.6690  -18.5790   20.7700 C   0  0  0  0  0  3  0  0  0  0  0  0
  -29.0670  -19.6000   18.6530 C   0  0  0  0  0  3  0  0  0  0  0  0
  -29.5040  -17.1880   18.7810 C   0  0  0  0  0  3  0  0  0  0  0  0
  -29.3290  -19.7970   20.0320 C   0  0  0  0  0  0  0  0  0  0  0  0
  -29.7700  -17.2560   20.1640 C   0  0  0  0  0  0  0  0  0  0  0  0
  -29.1330  -18.3240   18.0340 C   0  0  0  0  0  0  0  0  0  0  0  0
  -30.7140  -14.8590   20.4910 C   0  0  0  0  0  0  0  0  0  0  0  0
  -30.5510  -12.5810   19.4910 C   0  0  0  0  0  2  0  0  0  0  0  0
  -29.6490  -12.6700   18.2390 C   0  0  0  0  0  2  0  0  0  0  0  0
  -28.1670  -12.5010   18.6210 C   0  0  0  0  0  2  0  0  0  0  0  0
  -27.7650  -13.3770   19.8380 C   0  0  0  0  0  3  0  0  0  0  0  0
  -28.7870  -13.2710   20.9910 C   0  0  0  0  0  2  0  0  0  0  0  0
  -30.1070  -13.6240   20.4470 N   0  0  0  0  0  0  0  0  0  0  0  0
  -31.8790  -14.9860   20.0990 O   0  0  0  0  0  0  0  0  0  0  0  0
  -29.9720  -15.9660   20.8740 N   0  0  0  0  0  0  0  0  0  0  0  0
  -29.2030  -15.7220   21.4810 H   0  0  0  0  0  0  0  0  0  0  0  0
  -25.3480  -13.9690   20.4700 C   0  0  0  0  0  0  0  0  0  0  0  0
  -24.2740  -13.1970   20.8200 C   0  0  0  0  0  0  0  0  0  0  0  0
  -24.7440  -11.8470   20.8300 C   0  0  0  0  0  0  0  0  0  0  0  0
  -26.4040  -13.0910   20.2850 N   0  0  0  0  0  0  0  0  0  0  0  0
  -26.0450  -11.8120   20.5630 N   0  0  0  0  0  0  0  0  0  0  0  0
  -24.0190  -10.5850   21.0230 C   0  0  0  0  0  0  0  0  0  0  0  0
  -24.4360   -9.6320   21.9780 C   0  0  0  0  0  3  0  0  0  0  0  0
  -23.7130   -8.4330   22.1580 C   0  0  0  0  0  3  0  0  0  0  0  0
  -22.5530   -8.1810   21.3840 C   0  0  0  0  0  0  0  0  0  0  0  0
  -22.1540   -9.1240   20.4190 C   0  0  0  0  0  3  0  0  0  0  0  0
  -22.8800  -10.3130   20.2390 C   0  0  0  0  0  3  0  0  0  0  0  0
  -21.8030   -7.0330   21.4700 O   0  0  0  0  0  0  0  0  0  0  0  0
  -21.7430   -6.2980   22.6270 C   0  0  0  0  0  0  0  0  0  0  0  0
  -21.3010   -6.8590   23.8450 C   0  0  0  0  0  3  0  0  0  0  0  0
  -21.1880   -6.0490   24.9930 C   0  0  0  0  0  3  0  0  0  0  0  0
  -21.5070   -4.6800   24.9240 C   0  0  0  0  0  0  0  0  0  0  0  0
  -21.9440   -4.1190   23.7100 C   0  0  0  0  0  3  0  0  0  0  0  0
  -22.0570   -4.9250   22.5640 C   0  0  0  0  0  0  0  0  0  0  0  0
  -22.4550   -4.3740   21.3930 F   0  0  0  0  0  0  0  0  0  0  0  0
  -21.3930   -3.9010   26.0250 F   0  0  0  0  0  0  0  0  0  0  0  0
  -22.8660  -13.6710   21.0400 C   0  0  0  0  0  0  0  0  0  0  0  0
  -22.1160  -12.9920   21.8990 N   0  0  0  0  0  0  0  0  0  0  0  0
  -22.4380  -14.6850   20.4880 O   0  0  0  0  0  0  0  0  0  0  0  0
  -22.4700  -12.1730   22.3720 H   0  0  0  0  0  0  0  0  0  0  0  0
  -21.1720  -13.2980   22.0910 H   0  0  0  0  0  0  0  0  0  0  0  0
  -25.5190  -15.3360   20.2730 N   0  0  0  0  0  0  0  0  0  0  0  0
  -24.7650  -16.0060   20.3660 H   0  0  0  0  0  0  0  0  0  0  0  0
  -26.3920  -15.7590   19.9850 H   0  0  0  0  0  0  0  0  0  0  0  0
  -28.0920  -19.0940   16.0150 C   0  0  0  0  0  1  0  0  0  0  0  0
  -28.8470  -18.1040   16.7030 O   0  0  0  0  0  0  0  0  0  0  0  0
  -26.7860  -22.3400   18.3330 C   0  0  0  0  0  2  0  0  0  0  0  0
  -27.1920  -21.9850   19.5620 C   0  0  0  0  0  3  0  0  0  0  0  0
  -27.9200  -24.9350   19.9530 C   0  0  0  0  0  2  0  0  0  0  0  0
  -28.2410  -26.3890   20.2630 O   0  0  0  0  0  0  0  0  0  0  0  0
  -24.5890  -31.9540   23.2480 C   0  0  0  0  0  0  0  0  0  0  0  0
  -27.1790  -27.3310   20.1880 C   0  0  0  0  0  0  0  0  0  0  0  0
  -23.3870  -30.5490   21.6180 C   0  0  0  0  0  3  0  0  0  0  0  0
  -24.8350  -29.0080   20.1800 C   0  0  0  0  0  0  0  0  0  0  0  0
  -25.9330  -30.8530   21.4340 C   0  0  0  0  0  2  0  0  0  0  0  0
  -26.0110  -29.4700   20.7860 C   0  0  0  0  0  0  0  0  0  0  0  0
  -27.1850  -28.6430   20.7860 C   0  0  0  0  0  3  0  0  0  0  0  0
  -25.9830  -26.9650   19.5250 C   0  0  0  0  0  3  0  0  0  0  0  0
  -24.8280  -27.7640   19.5400 C   0  0  0  0  0  3  0  0  0  0  0  0
  -23.6000  -29.8840   20.2350 C   0  0  0  0  0  2  0  0  0  0  0  0
  -24.6560  -31.1380   22.1540 N   0  0  0  0  0  0  0  0  0  0  0  0
  -23.5040  -32.2310   23.7800 O   0  0  0  0  0  0  0  0  0  0  0  0
  -22.7310  -29.5280   22.5780 C   0  0  0  0  0  0  0  0  0  0  0  0
  -21.4040  -29.3460   22.4570 N   0  0  0  0  0  0  0  0  0  0  0  0
  -23.4130  -28.9030   23.3940 O   0  0  0  0  0  0  0  0  0  0  0  0
  -20.9090  -29.9020   21.7740 H   0  0  0  0  0  0  0  0  0  0  0  0
  -18.0330  -28.1290   22.9700 C   0  0  0  0  0  0  0  0  0  0  0  0
  -20.5910  -28.4060   23.2320 C   0  0  0  0  0  3  0  0  0  0  0  0
  -20.6990  -26.9730   22.6620 C   0  0  0  0  0  2  0  0  0  0  0  0
  -19.5960  -26.6390   21.6520 C   0  0  0  0  0  2  0  0  0  0  0  0
  -18.2160  -26.7780   22.2990 C   0  0  0  0  0  2  0  0  0  0  0  0
  -19.1490  -28.9000   23.3930 C   0  0  0  0  0  0  0  0  0  0  0  0
  -18.9220  -30.1630   23.9820 C   0  0  0  0  0  3  0  0  0  0  0  0
  -17.6150  -30.6570   24.1510 C   0  0  0  0  0  3  0  0  0  0  0  0
  -16.5140  -29.8830   23.7440 C   0  0  0  0  0  3  0  0  0  0  0  0
  -16.7250  -28.6210   23.1590 C   0  0  0  0  0  3  0  0  0  0  0  0
  -25.8690  -32.5950   23.8630 C   0  0  0  0  0  3  0  0  0  0  0  0
  -26.3850  -31.8390   25.1490 C   0  0  1  0  0  0  0  0  0  0  0  0
  -25.2900  -31.6130   26.2190 C   0  0  0  0  0  1  0  0  0  0  0  0
  -26.9690  -30.4550   24.7770 C   0  0  0  0  0  1  0  0  0  0  0  0
  -27.5320  -32.6430   25.8050 C   0  0  0  0  0  1  0  0  0  0  0  0
  -25.5550  -33.9970   24.1810 N   0  0  0  0  0  0  0  0  0  0  0  0
  -25.8910  -35.0460   23.4170 C   0  0  0  0  0  0  0  0  0  0  0  0
  -26.5710  -34.9370   22.3930 O   0  0  0  0  0  0  0  0  0  0  0  0
  -24.9600  -34.1570   24.9810 H   0  0  0  0  0  0  0  0  0  0  0  0
  -24.1740  -36.8420   23.0270 C   0  0  0  0  0  1  0  0  0  0  0  0
  -25.3980  -36.4380   23.8620 C   0  0  0  0  0  3  0  0  0  0  0  0
  -27.5190  -37.3200   24.7300 C   0  0  0  0  0  1  0  0  0  0  0  0
  -26.4360  -37.4870   23.7660 N   0  0  0  0  0  0  0  0  0  0  0  0
  -26.0280  -38.4080   23.9030 H   0  0  0  0  0  0  0  0  0  0  0  0
  1  3  1  0
  2  1  2  0
  2  6  1  0
  3  4  1  0
  3  7  2  0
  4  5  1  0
  6  5  1  0
  9 11  1  0
 10 12  2  0
 11  6  1  0
 11  8  2  0
 12  8  1  0
 12 22  1  0
 13  9  2  0
 13 10  1  0
 14 22  1  0
 15 20  1  0
 16 17  1  0
 16 15  1  0
 18 17  1  0
 18 27  1  0
 18 19  1  0
 20 14  1  0
 20 19  1  0
 21 14  2  0
 22 23  1  0
 24 25  2  0
 25 26  1  0
 25 44  1  0
 26 29  1  0
 27 24  1  0
 27 28  1  0
 28 26  2  0
 29 30  1  0
 30 31  2  0
 32 35  1  0
 32 31  1  0
 33 32  2  0
 34 33  1  0
 34 29  2  0
 35 36  1  0
 36 37  1  0
 37 38  2  0
 39 38  1  0
 39 43  1  0
 40 39  2  0
 41 36  2  0
 41 40  1  0
 42 41  1  0
 44 45  1  0
 45 48  1  0
 45 47  1  0
 46 44  2  0
 49 50  1  0
 49 24  1  0
 51 49  1  0
 52 53  1  0
 53 13  1  0
 54 55  2  0
 55  2  1  0
 56 57  1  0
 56  1  1  0
 58 69  2  0
 59 57  1  0
 59 64  1  0
 60 68  1  0
 60 70  1  0
 61 67  1  0
 61 63  1  0
 62 68  1  0
 63 62  1  0
 64 63  2  0
 65 66  1  0
 65 59  2  0
 66 61  2  0
 67 60  1  0
 68 58  1  0
 70 72  2  0
 71 70  1  0
 73 71  1  0
 74 83  2  0
 74 79  1  0
 75 71  1  0
 75 79  1  0
 76 75  1  0
 77 78  1  0
 77 76  1  0
 78 74  1  0
 79 80  2  0
 80 81  1  0
 82 81  2  0
 83 82  1  0
 84 58  1  0
 84 89  1  0
 84 85  1  0
 85 88  1  1
 85 86  1  0
 87 85  1  0
 89 92  1  0
 90 94  1  0
 90 89  1  0
 91 90  2  0
 94 93  1  0
 96 94  1  0
 96 97  1  0
 96 95  1  0
M  ISO  4  14 100  22 100  56 101  57 101
M  END
>  <TORSDO>  (66) 
F 20

>  <SCORE>  (66) 
-14.141

>  <name>  (66) 
66

>  <ligand_id>  (66) 
66

>  <original_smiles>  (66) 
[H]C([H])=C([H])C1=C(C([H])([H])Oc2c([H])c([H])c3c(c2[H])C([H])([H])N(C(=O)C([H])(N([H])C(=O)C([H])(N([H])C([H])([H])[H])C([H])([H])[H])C(C([H])([H])[H])(C([H])([H])[H])C([H])([H])[H])C([H])(C(=O)N([H])C2([H])c4c([H])c([H])c([H])c([H])c4C([H])([H])C([H])([H])C2([H])[H])C3([H])[H])C(=O)C([H])([H])C([H])([H])N1c1c([H])c(OC([H])([H])[H])c([H])c(N([H])C(=O)N2C([H])([H])C([H])([H])C([H])([H])C([H])(n3nc(-c4c([H])c([H])c(Oc5c([H])c([H])c(F)c([H])c5F)c([H])c4[H])c(C(=O)N([H])[H])c3N([H])[H])C2([H])[H])c1[H]

>  <smiles>  (66) 
[H]C([H])=C([H])C1=C(C([H])([H])Oc2c([H])c([H])c3c(c2[H])C([H])([H])N(C(=O)C([H])(N([H])C(=O)C([H])(N([H])C([H])([H])[H])C([H])([H])[H])C(C([H])([H])[H])(C([H])([H])[H])C([H])([H])[H])C([H])(C(=O)N([H])C2([H])c4c([H])c([H])c([H])c([H])c4C([H])([H])C([H])([H])C2([H])[H])C3([H])[H])C(=O)C([H])([H])C([H])([H])N1c1c([H])c(OC([H])([H])[H])c([H])c(N([H])C(=O)N2C([H])([H])C([H])([H])C([H])([H])C([H])(n3nc(-c4c([H])c([H])c(Oc5c([H])c([H])c(F)c([H])c5F)c([H])c4[H])c(C(=O)N([H])[H])c3N([H])[H])C2([H])[H])c1[H]

$$$$
67:0:0
     RDKit          3D

 94103  0  0  1  0  0  0  0  0999 V2000
  -27.4200  -22.3150   19.0120 C   0  0  0  0  0  0  0  0  0  0  0  0
  -26.4390  -22.9950   19.9590 C   0  0  0  0  0  2  0  0  0  0  0  0
  -27.3830  -23.6590   20.9690 C   0  0  0  0  0  2  0  0  0  0  0  0
  -28.6750  -23.8240   20.1550 C   0  0  0  0  0  3  0  0  0  0  0  0
  -28.6970  -22.5060   19.3850 N   0  0  0  0  0  0  0  0  0  0  0  0
  -27.0460  -21.6820   18.0210 O   0  0  0  0  0  0  0  0  0  0  0  0
  -30.0240  -20.9330   20.8370 C   0  0  0  0  0  3  0  0  0  0  0  0
  -30.2690  -19.4990   20.9900 C   0  0  0  0  0  0  0  0  0  0  0  0
  -30.0260  -18.7100   19.8580 C   0  0  0  0  0  0  0  0  0  0  0  0
  -29.3900  -21.3150   19.6760 C   0  0  0  0  0  0  0  0  0  0  0  0
  -29.4020  -19.8550   18.6370 S   0  0  0  0  0  0  0  0  0  0  0  0
  -30.6290  -19.0090   22.3120 C   0  0  0  0  0  3  0  0  0  0  0  0
  -30.3100  -17.9240   22.8040 O   0  0  0  0  0  0  0  0  0  0  0  0
  -30.0240  -17.1440   19.4980 C   0  0  0  0  0  2  0  0  0  0  0  0
  -31.1630  -14.8060   19.6510 C   0  0  0  0  0  0  0  0  0  0  0  0
  -30.7660  -12.5310   18.6850 C   0  0  0  0  0  2  0  0  0  0  0  0
  -29.7290  -12.5700   17.5420 C   0  0  0  0  0  2  0  0  0  0  0  0
  -28.3030  -12.4560   18.1030 C   0  0  0  0  0  2  0  0  0  0  0  0
  -28.0530  -13.4110   19.2990 C   0  0  0  0  0  3  0  0  0  0  0  0
  -29.1920  -13.3290   20.3410 C   0  0  0  0  0  2  0  0  0  0  0  0
  -30.4510  -13.6250   19.6440 N   0  0  0  0  0  0  0  0  0  0  0  0
  -32.2630  -14.8320   19.0910 O   0  0  0  0  0  0  0  0  0  0  0  0
  -31.5270  -16.4200   21.3730 C   0  0  0  0  0  1  0  0  0  0  0  0
  -30.6820  -15.9730   20.2600 N   0  0  0  0  0  0  0  0  0  0  0  0
  -25.7750  -14.1200   20.2420 C   0  0  0  0  0  0  0  0  0  0  0  0
  -24.6970  -13.3980   20.6730 C   0  0  0  0  0  0  0  0  0  0  0  0
  -25.0710  -12.0220   20.5650 C   0  0  0  0  0  0  0  0  0  0  0  0
  -26.7400  -13.1900   19.8960 N   0  0  0  0  0  0  0  0  0  0  0  0
  -26.3280  -11.9190   20.1530 N   0  0  0  0  0  0  0  0  0  0  0  0
  -24.2850  -10.7980   20.7740 C   0  0  0  0  0  0  0  0  0  0  0  0
  -24.6990   -9.8010   21.6840 C   0  0  0  0  0  3  0  0  0  0  0  0
  -23.9170   -8.6430   21.8800 C   0  0  0  0  0  3  0  0  0  0  0  0
  -22.7050   -8.4740   21.1680 C   0  0  0  0  0  0  0  0  0  0  0  0
  -22.3100   -9.4610   20.2470 C   0  0  0  0  0  3  0  0  0  0  0  0
  -23.0920  -10.6100   20.0490 C   0  0  0  0  0  3  0  0  0  0  0  0
  -21.8940   -7.3690   21.2740 O   0  0  0  0  0  0  0  0  0  0  0  0
  -21.7990   -6.6580   22.4430 C   0  0  0  0  0  0  0  0  0  0  0  0
  -21.4090   -7.2650   23.6580 C   0  0  0  0  0  3  0  0  0  0  0  0
  -21.2570   -6.4810   24.8190 C   0  0  0  0  0  3  0  0  0  0  0  0
  -21.4840   -5.0930   24.7680 C   0  0  0  0  0  0  0  0  0  0  0  0
  -21.8640   -4.4860   23.5580 C   0  0  0  0  0  3  0  0  0  0  0  0
  -22.0160   -5.2650   22.3990 C   0  0  0  0  0  0  0  0  0  0  0  0
  -22.3620   -4.6710   21.2310 F   0  0  0  0  0  0  0  0  0  0  0  0
  -21.3310   -4.3410   25.8820 F   0  0  0  0  0  0  0  0  0  0  0  0
  -23.3580  -13.9440   21.0780 C   0  0  0  0  0  0  0  0  0  0  0  0
  -22.6760  -13.2790   22.0020 N   0  0  0  0  0  0  0  0  0  0  0  0
  -22.9310  -14.9980   20.6060 O   0  0  0  0  0  0  0  0  0  0  0  0
  -23.0370  -12.4260   22.4030 H   0  0  0  0  0  0  0  0  0  0  0  0
  -21.7810  -13.6260   22.3150 H   0  0  0  0  0  0  0  0  0  0  0  0
  -26.0100  -15.4850   20.0920 N   0  0  0  0  0  0  0  0  0  0  0  0
  -25.3030  -16.1850   20.2910 H   0  0  0  0  0  0  0  0  0  0  0  0
  -26.8730  -15.8870   19.7530 H   0  0  0  0  0  0  0  0  0  0  0  0
  -28.5360  -25.1650   19.2500 C   0  0  0  0  0  2  0  0  0  0  0  0
  -28.4170  -26.5330   19.8260 O   0  0  0  0  0  0  0  0  0  0  0  0
  -24.5460  -31.6820   23.0400 C   0  0  0  0  0  0  0  0  0  0  0  0
  -27.2510  -27.3170   19.7870 C   0  0  0  0  0  0  0  0  0  0  0  0
  -23.3590  -30.2960   21.3790 C   0  0  0  0  0  3  0  0  0  0  0  0
  -24.8290  -28.8460   19.8700 C   0  0  0  0  0  0  0  0  0  0  0  0
  -25.8770  -30.7210   21.1440 C   0  0  0  0  0  2  0  0  0  0  0  0
  -25.9910  -29.3600   20.4590 C   0  0  0  0  0  0  0  0  0  0  0  0
  -27.2000  -28.6060   20.4100 C   0  0  0  0  0  3  0  0  0  0  0  0
  -26.0670  -26.8680   19.1600 C   0  0  0  0  0  3  0  0  0  0  0  0
  -24.8720  -27.6060   19.2120 C   0  0  0  0  0  3  0  0  0  0  0  0
  -23.5590  -29.6650   19.9750 C   0  0  0  0  0  2  0  0  0  0  0  0
  -24.6180  -30.9110   21.9150 N   0  0  0  0  0  0  0  0  0  0  0  0
  -23.4650  -31.9130   23.6000 O   0  0  0  0  0  0  0  0  0  0  0  0
  -22.7440  -29.2320   22.3190 C   0  0  0  0  0  0  0  0  0  0  0  0
  -21.4220  -29.0200   22.2010 N   0  0  0  0  0  0  0  0  0  0  0  0
  -23.4540  -28.6010   23.1060 O   0  0  0  0  0  0  0  0  0  0  0  0
  -20.9190  -29.5730   21.5210 H   0  0  0  0  0  0  0  0  0  0  0  0
  -18.0820  -27.7090   22.7260 C   0  0  0  0  0  0  0  0  0  0  0  0
  -20.6350  -28.0380   22.9490 C   0  0  0  0  0  3  0  0  0  0  0  0
  -20.7720  -26.6230   22.3430 C   0  0  0  0  0  2  0  0  0  0  0  0
  -19.6520  -26.2620   21.3580 C   0  0  0  0  0  2  0  0  0  0  0  0
  -18.2860  -26.3670   22.0390 C   0  0  0  0  0  2  0  0  0  0  0  0
  -19.1860  -28.4960   23.1450 C   0  0  0  0  0  0  0  0  0  0  0  0
  -18.9430  -29.7390   23.7700 C   0  0  0  0  0  3  0  0  0  0  0  0
  -17.6290  -30.1950   23.9790 C   0  0  0  0  0  3  0  0  0  0  0  0
  -16.5400  -29.4080   23.5700 C   0  0  0  0  0  3  0  0  0  0  0  0
  -16.7640  -28.1660   22.9470 C   0  0  0  0  0  3  0  0  0  0  0  0
  -25.8190  -32.3330   23.6630 C   0  0  0  0  0  3  0  0  0  0  0  0
  -26.3920  -31.5230   24.8890 C   0  0  1  0  0  0  0  0  0  0  0  0
  -25.3390  -31.2060   25.9770 C   0  0  0  0  0  1  0  0  0  0  0  0
  -26.9970  -30.1810   24.4110 C   0  0  0  0  0  1  0  0  0  0  0  0
  -27.5390  -32.3240   25.5490 C   0  0  0  0  0  1  0  0  0  0  0  0
  -25.4700  -33.7050   24.0620 N   0  0  0  0  0  0  0  0  0  0  0  0
  -25.7620  -34.8010   23.3510 C   0  0  0  0  0  0  0  0  0  0  0  0
  -26.4200  -34.7680   22.3070 O   0  0  0  0  0  0  0  0  0  0  0  0
  -24.8760  -33.8040   24.8720 H   0  0  0  0  0  0  0  0  0  0  0  0
  -23.9700  -36.5500   23.1150 C   0  0  0  0  0  1  0  0  0  0  0  0
  -25.2410  -36.1530   23.8820 C   0  0  0  0  0  3  0  0  0  0  0  0
  -27.3670  -37.0610   24.7100 C   0  0  0  0  0  1  0  0  0  0  0  0
  -26.2400  -37.2410   23.7970 N   0  0  0  0  0  0  0  0  0  0  0  0
  -25.8140  -38.1420   23.9960 H   0  0  0  0  0  0  0  0  0  0  0  0
  1  5  1  0
  1  2  1  0
  2  3  1  0
  4 53  1  0
  4  3  1  0
  5 10  1  0
  5  4  1  0
  6  1  2  0
  7  8  1  0
  8 12  1  0
  9  8  2  0
 10  7  2  0
 11 10  1  0
 11  9  1  0
 12 13  2  0
 14  9  1  0
 14 24  1  0
 15 24  1  0
 16 21  1  0
 17 18  1  0
 17 16  1  0
 19 18  1  0
 19 28  1  0
 19 20  1  0
 21 15  1  0
 21 20  1  0
 22 15  2  0
 24 23  1  0
 25 26  2  0
 26 45  1  0
 27 26  1  0
 27 30  1  0
 28 29  1  0
 28 25  1  0
 29 27  2  0
 30 31  1  0
 31 32  2  0
 33 36  1  0
 33 32  1  0
 34 33  2  0
 35 34  1  0
 35 30  2  0
 36 37  1  0
 37 38  1  0
 38 39  2  0
 40 39  1  0
 40 44  1  0
 41 40  2  0
 42 37  2  0
 42 41  1  0
 43 42  1  0
 45 46  1  0
 46 49  1  0
 46 48  1  0
 47 45  2  0
 50 25  1  0
 50 51  1  0
 52 50  1  0
 53 54  1  0
 55 66  2  0
 56 54  1  0
 56 61  1  0
 57 65  1  0
 57 67  1  0
 58 64  1  0
 58 60  1  0
 59 65  1  0
 60 59  1  0
 61 60  2  0
 62 63  1  0
 62 56  2  0
 63 58  2  0
 64 57  1  0
 65 55  1  0
 67 69  2  0
 68 67  1  0
 70 68  1  0
 71 80  2  0
 71 76  1  0
 72 68  1  0
 72 76  1  0
 73 72  1  0
 74 75  1  0
 74 73  1  0
 75 71  1  0
 76 77  2  0
 77 78  1  0
 79 78  2  0
 80 79  1  0
 81 55  1  0
 81 86  1  0
 81 82  1  0
 82 85  1  1
 82 83  1  0
 84 82  1  0
 86 89  1  0
 87 91  1  0
 87 86  1  0
 88 87  2  0
 91 90  1  0
 93 91  1  0
 93 94  1  0
 93 92  1  0
M  ISO  4  15 100  24 100  53 101  54 101
M  END
>  <TORSDO>  (67) 
F 20

>  <SCORE>  (67) 
-12.809

>  <name>  (67) 
67

>  <ligand_id>  (67) 
67

>  <original_smiles>  (67) 
[H]C(=O)c1c(C([H])([H])N(C(=O)N2C([H])([H])C([H])([H])C([H])([H])C([H])(n3nc(-c4c([H])c([H])c(Oc5c([H])c([H])c(F)c([H])c5F)c([H])c4[H])c(C(=O)N([H])[H])c3N([H])[H])C2([H])[H])C([H])([H])[H])sc(N2C(=O)C([H])([H])C([H])([H])C2([H])C([H])([H])Oc2c([H])c([H])c3c(c2[H])C([H])([H])N(C(=O)C([H])(N([H])C(=O)C([H])(N([H])C([H])([H])[H])C([H])([H])[H])C(C([H])([H])[H])(C([H])([H])[H])C([H])([H])[H])C([H])(C(=O)N([H])C2([H])c4c([H])c([H])c([H])c([H])c4C([H])([H])C([H])([H])C2([H])[H])C3([H])[H])c1[H]

>  <smiles>  (67) 
[H]C(=O)c1c(C([H])([H])N(C(=O)N2C([H])([H])C([H])([H])C([H])([H])C([H])(n3nc(-c4c([H])c([H])c(Oc5c([H])c([H])c(F)c([H])c5F)c([H])c4[H])c(C(=O)N([H])[H])c3N([H])[H])C2([H])[H])C([H])([H])[H])sc(N2C(=O)C([H])([H])C([H])([H])C2([H])C([H])([H])Oc2c([H])c([H])c3c(c2[H])C([H])([H])N(C(=O)C([H])(N([H])C(=O)C([H])(N([H])C([H])([H])[H])C([H])([H])[H])C(C([H])([H])[H])(C([H])([H])[H])C([H])([H])[H])C([H])(C(=O)N([H])C2([H])c4c([H])c([H])c([H])c([H])c4C([H])([H])C([H])([H])C2([H])[H])C3([H])[H])c1[H]

$$$$
68:0:0
     RDKit          3D

 92100  0  0  1  0  0  0  0  0999 V2000
  -30.7080  -19.0700   18.0440 C   0  0  0  0  0  3  0  0  0  0  0  0
  -30.2560  -20.1960   18.7550 C   0  0  0  0  0  3  0  0  0  0  0  0
  -30.6300  -17.7490   18.5500 C   0  0  0  0  0  0  0  0  0  0  0  0
  -30.1610  -17.5080   19.8790 C   0  0  0  0  0  0  0  0  0  0  0  0
  -29.6880  -20.0760   20.0350 C   0  0  0  0  0  0  0  0  0  0  0  0
  -29.6660  -18.7060   20.5810 C   0  0  0  0  0  0  0  0  0  0  0  0
  -29.1390  -18.5310   21.8170 F   0  0  0  0  0  0  0  0  0  0  0  0
  -30.8460  -14.9440   20.2110 C   0  0  0  0  0  0  0  0  0  0  0  0
  -30.6520  -12.6420   19.2380 C   0  0  0  0  0  2  0  0  0  0  0  0
  -29.6840  -12.6790   18.0340 C   0  0  0  0  0  2  0  0  0  0  0  0
  -28.2290  -12.4980   18.5010 C   0  0  0  0  0  2  0  0  0  0  0  0
  -27.8760  -13.3920   19.7190 C   0  0  0  0  0  3  0  0  0  0  0  0
  -28.9610  -13.3300   20.8160 C   0  0  0  0  0  2  0  0  0  0  0  0
  -30.2340  -13.7030   20.1900 N   0  0  0  0  0  0  0  0  0  0  0  0
  -32.0350  -15.0190   19.8900 O   0  0  0  0  0  0  0  0  0  0  0  0
  -30.0700  -16.0960   20.4210 N   0  0  0  0  0  0  0  0  0  0  0  0
  -29.2140  -15.9160   20.9240 H   0  0  0  0  0  0  0  0  0  0  0  0
  -25.5220  -13.9730   20.5460 C   0  0  0  0  0  0  0  0  0  0  0  0
  -24.4630  -13.1960   20.9280 C   0  0  0  0  0  0  0  0  0  0  0  0
  -24.9140  -11.8430   20.8410 C   0  0  0  0  0  0  0  0  0  0  0  0
  -26.5490  -13.0950   20.2480 N   0  0  0  0  0  0  0  0  0  0  0  0
  -26.1940  -11.8060   20.4890 N   0  0  0  0  0  0  0  0  0  0  0  0
  -24.1850  -10.5800   21.0150 C   0  0  0  0  0  0  0  0  0  0  0  0
  -24.6070   -9.6060   21.9460 C   0  0  0  0  0  3  0  0  0  0  0  0
  -23.8780   -8.4070   22.1080 C   0  0  0  0  0  3  0  0  0  0  0  0
  -22.7120   -8.1760   21.3410 C   0  0  0  0  0  0  0  0  0  0  0  0
  -22.3090   -9.1410   20.4000 C   0  0  0  0  0  3  0  0  0  0  0  0
  -23.0390  -10.3290   20.2340 C   0  0  0  0  0  3  0  0  0  0  0  0
  -21.9530   -7.0330   21.4140 O   0  0  0  0  0  0  0  0  0  0  0  0
  -21.8460   -6.3140   22.5780 C   0  0  0  0  0  0  0  0  0  0  0  0
  -21.2660   -6.8620   23.7430 C   0  0  0  0  0  3  0  0  0  0  0  0
  -21.1120   -6.0660   24.8950 C   0  0  0  0  0  3  0  0  0  0  0  0
  -21.5280   -4.7200   24.8820 C   0  0  0  0  0  0  0  0  0  0  0  0
  -22.1000   -4.1710   23.7210 C   0  0  0  0  0  3  0  0  0  0  0  0
  -22.2560   -4.9660   22.5720 C   0  0  0  0  0  0  0  0  0  0  0  0
  -22.7880   -4.4240   21.4500 F   0  0  0  0  0  0  0  0  0  0  0  0
  -21.3740   -3.9520   25.9860 F   0  0  0  0  0  0  0  0  0  0  0  0
  -23.0780  -13.6730   21.2550 C   0  0  0  0  0  0  0  0  0  0  0  0
  -22.3670  -12.9540   22.1150 N   0  0  0  0  0  0  0  0  0  0  0  0
  -22.6370  -14.7200   20.7810 O   0  0  0  0  0  0  0  0  0  0  0  0
  -22.7360  -12.1070   22.5210 H   0  0  0  0  0  0  0  0  0  0  0  0
  -21.4370  -13.2550   22.3720 H   0  0  0  0  0  0  0  0  0  0  0  0
  -25.6910  -15.3480   20.4040 N   0  0  0  0  0  0  0  0  0  0  0  0
  -24.9300  -16.0010   20.5570 H   0  0  0  0  0  0  0  0  0  0  0  0
  -26.5270  -15.7900   20.0430 H   0  0  0  0  0  0  0  0  0  0  0  0
  -32.0400  -16.7000   16.7560 C   0  0  0  0  0  2  0  0  0  0  0  0
  -31.0170  -16.6660   17.6280 C   0  0  0  0  0  3  0  0  0  0  0  0
  -29.1790  -21.2560   20.6910 O   0  0  0  0  0  0  0  0  0  0  0  0
  -29.2000  -22.6610   20.1100 C   0  0  0  0  0  2  0  0  0  0  0  0
  -28.4220  -23.7770   20.9480 C   0  0  0  0  0  3  0  0  0  0  0  0
  -28.1420  -25.1550   20.9890 C   0  0  0  0  0  3  0  0  0  0  0  0
  -28.4370  -26.3550   20.2670 O   0  0  0  0  0  0  0  0  0  0  0  0
  -24.5920  -31.8530   23.1850 C   0  0  0  0  0  0  0  0  0  0  0  0
  -27.3880  -27.3120   20.1920 C   0  0  0  0  0  0  0  0  0  0  0  0
  -23.4770  -30.4450   21.4960 C   0  0  0  0  0  3  0  0  0  0  0  0
  -25.0100  -28.9340   20.1030 C   0  0  0  0  0  0  0  0  0  0  0  0
  -26.0210  -30.7990   21.4070 C   0  0  0  0  0  2  0  0  0  0  0  0
  -26.1540  -29.4230   20.7490 C   0  0  0  0  0  0  0  0  0  0  0  0
  -27.3500  -28.6250   20.7840 C   0  0  0  0  0  3  0  0  0  0  0  0
  -26.2240  -26.9010   19.5120 C   0  0  0  0  0  3  0  0  0  0  0  0
  -25.0520  -27.6830   19.4690 C   0  0  0  0  0  3  0  0  0  0  0  0
  -23.7550  -29.7880   20.1180 C   0  0  0  0  0  2  0  0  0  0  0  0
  -24.7140  -31.0510   22.0860 N   0  0  0  0  0  0  0  0  0  0  0  0
  -23.4840  -32.1040   23.6830 O   0  0  0  0  0  0  0  0  0  0  0  0
  -22.7980  -29.4100   22.4260 C   0  0  0  0  0  0  0  0  0  0  0  0
  -21.4740  -29.2290   22.2750 N   0  0  0  0  0  0  0  0  0  0  0  0
  -23.4650  -28.7710   23.2440 O   0  0  0  0  0  0  0  0  0  0  0  0
  -20.9930  -29.7950   21.5890 H   0  0  0  0  0  0  0  0  0  0  0  0
  -18.0820  -28.0650   22.7690 C   0  0  0  0  0  0  0  0  0  0  0  0
  -20.6480  -28.2730   23.0160 C   0  0  0  0  0  3  0  0  0  0  0  0
  -20.7200  -26.8660   22.3780 C   0  0  0  0  0  2  0  0  0  0  0  0
  -19.6010  -26.6060   21.3650 C   0  0  0  0  0  2  0  0  0  0  0  0
  -18.2290  -26.7440   22.0320 C   0  0  0  0  0  2  0  0  0  0  0  0
  -19.2180  -28.7900   23.2170 C   0  0  0  0  0  0  0  0  0  0  0  0
  -19.0270  -30.0280   23.8680 C   0  0  0  0  0  3  0  0  0  0  0  0
  -17.7310  -30.5410   24.0740 C   0  0  0  0  0  3  0  0  0  0  0  0
  -16.6110  -29.8130   23.6410 C   0  0  0  0  0  3  0  0  0  0  0  0
  -16.7860  -28.5750   22.9950 C   0  0  0  0  0  3  0  0  0  0  0  0
  -25.8370  -32.5110   23.8560 C   0  0  0  0  0  3  0  0  0  0  0  0
  -26.3140  -31.7520   25.1550 C   0  0  1  0  0  0  0  0  0  0  0  0
  -25.1800  -31.4930   26.1750 C   0  0  0  0  0  1  0  0  0  0  0  0
  -26.9410  -30.3850   24.7950 C   0  0  0  0  0  1  0  0  0  0  0  0
  -27.4170  -32.5710   25.8660 C   0  0  0  0  0  1  0  0  0  0  0  0
  -25.4880  -33.9050   24.1720 N   0  0  0  0  0  0  0  0  0  0  0  0
  -25.8220  -34.9630   23.4220 C   0  0  0  0  0  0  0  0  0  0  0  0
  -26.5230  -34.8710   22.4110 O   0  0  0  0  0  0  0  0  0  0  0  0
  -24.8660  -34.0490   24.9540 H   0  0  0  0  0  0  0  0  0  0  0  0
  -24.0850  -36.7350   23.0040 C   0  0  0  0  0  1  0  0  0  0  0  0
  -25.2980  -36.3440   23.8640 C   0  0  0  0  0  3  0  0  0  0  0  0
  -27.3720  -37.2690   24.7990 C   0  0  0  0  0  1  0  0  0  0  0  0
  -26.3190  -37.4120   23.7950 N   0  0  0  0  0  0  0  0  0  0  0  0
  -25.8930  -38.3260   23.9140 H   0  0  0  0  0  0  0  0  0  0  0  0
  1  3  2  0
  1  2  1  0
  2  5  2  0
  3  4  1  0
  4 16  1  0
  4  6  2  0
  5  6  1  0
  5 48  1  0
  6  7  1  0
  8 16  1  0
  9 14  1  0
 10 11  1  0
 10  9  1  0
 12 11  1  0
 12 21  1  0
 12 13  1  0
 14  8  1  0
 14 13  1  0
 15  8  2  0
 16 17  1  0
 18 19  2  0
 19 38  1  0
 20 19  1  0
 20 23  1  0
 21 22  1  0
 21 18  1  0
 22 20  2  0
 23 24  1  0
 24 25  2  0
 26 29  1  0
 26 25  1  0
 27 26  2  0
 28 27  1  0
 28 23  2  0
 29 30  1  0
 30 31  1  0
 31 32  2  0
 33 32  1  0
 33 37  1  0
 34 33  2  0
 35 30  2  0
 35 34  1  0
 36 35  1  0
 38 39  1  0
 39 42  1  0
 39 41  1  0
 40 38  2  0
 43 18  1  0
 43 44  1  0
 45 43  1  0
 46 47  2  0
 47  3  1  0
 49 48  1  0
 49 50  1  0
 50 51  2  0
 52 51  1  0
 53 64  2  0
 54 52  1  0
 54 59  1  0
 55 63  1  0
 55 65  1  0
 56 62  1  0
 56 58  1  0
 57 63  1  0
 58 59  2  0
 58 57  1  0
 60 54  2  0
 61 60  1  0
 61 56  2  0
 62 55  1  0
 63 53  1  0
 65 67  2  0
 66 65  1  0
 68 66  1  0
 69 78  2  0
 69 74  1  0
 70 66  1  0
 70 74  1  0
 71 70  1  0
 72 73  1  0
 72 71  1  0
 73 69  1  0
 74 75  2  0
 75 76  1  0
 77 76  2  0
 78 77  1  0
 79 53  1  0
 79 84  1  0
 79 80  1  0
 80 83  1  1
 80 81  1  0
 82 80  1  0
 84 87  1  0
 85 89  1  0
 85 84  1  0
 86 85  2  0
 89 88  1  0
 91 89  1  0
 91 92  1  0
 91 90  1  0
M  ISO  4   8 100  16 100  51 101  52 101
M  END
>  <TORSDO>  (68) 
F 20

>  <SCORE>  (68) 
-12.972

>  <name>  (68) 
68

>  <ligand_id>  (68) 
68

>  <original_smiles>  (68) 
[H]C([H])=C([H])c1c([H])c([H])c(OC([H])([H])C([H])=C([H])Oc2c([H])c([H])c3c(c2[H])C([H])([H])N(C(=O)C([H])(N([H])C(=O)C([H])(N([H])C([H])([H])[H])C([H])([H])[H])C(C([H])([H])[H])(C([H])([H])[H])C([H])([H])[H])C([H])(C(=O)N([H])C2([H])c4c([H])c([H])c([H])c([H])c4C([H])([H])C([H])([H])C2([H])[H])C3([H])[H])c(F)c1N([H])C(=O)N1C([H])([H])C([H])([H])C([H])([H])C([H])(n2nc(-c3c([H])c([H])c(Oc4c([H])c([H])c(F)c([H])c4F)c([H])c3[H])c(C(=O)N([H])[H])c2N([H])[H])C1([H])[H]

>  <smiles>  (68) 
[H]C([H])=C([H])c1c([H])c([H])c(OC([H])([H])C([H])=C([H])Oc2c([H])c([H])c3c(c2[H])C([H])([H])N(C(=O)C([H])(N([H])C(=O)C([H])(N([H])C([H])([H])[H])C([H])([H])[H])C(C([H])([H])[H])(C([H])([H])[H])C([H])([H])[H])C([H])(C(=O)N([H])C2([H])c4c([H])c([H])c([H])c([H])c4C([H])([H])C([H])([H])C2([H])[H])C3([H])[H])c(F)c1N([H])C(=O)N1C([H])([H])C([H])([H])C([H])([H])C([H])(n2nc(-c3c([H])c([H])c(Oc4c([H])c([H])c(F)c([H])c4F)c([H])c3[H])c(C(=O)N([H])[H])c2N([H])[H])C1([H])[H]

$$$$
69:0:0
     RDKit          3D

 92100  0  0  1  0  0  0  0  0999 V2000
  -28.9720  -16.7460   20.2040 C   0  0  0  0  0  3  0  0  0  0  0  0
  -29.0140  -19.0800   19.4250 C   0  0  0  0  0  3  0  0  0  0  0  0
  -28.3440  -18.0060   20.0610 C   0  0  0  0  0  0  0  0  0  0  0  0
  -30.2720  -16.5150   19.7150 C   0  0  0  0  0  0  0  0  0  0  0  0
  -30.3280  -18.9580   18.9130 C   0  0  0  0  0  0  0  0  0  0  0  0
  -30.9330  -17.6400   19.0710 C   0  0  0  0  0  0  0  0  0  0  0  0
  -32.1740  -17.4400   18.5680 F   0  0  0  0  0  0  0  0  0  0  0  0
  -31.4250  -14.3550   20.6760 C   0  0  0  0  0  0  0  0  0  0  0  0
  -31.3750  -11.8620   20.7820 C   0  0  0  0  0  2  0  0  0  0  0  0
  -30.6810  -11.3070   19.5200 C   0  0  0  0  0  2  0  0  0  0  0  0
  -29.1530  -11.2450   19.7210 C   0  0  0  0  0  2  0  0  0  0  0  0
  -28.5710  -12.5530   20.3250 C   0  0  0  0  0  3  0  0  0  0  0  0
  -29.4070  -13.0550   21.5180 C   0  0  0  0  0  2  0  0  0  0  0  0
  -30.7860  -13.1930   21.0410 N   0  0  0  0  0  0  0  0  0  0  0  0
  -32.6560  -14.4000   20.7080 O   0  0  0  0  0  0  0  0  0  0  0  0
  -30.8130  -15.1400   19.7160 N   0  0  0  0  0  0  0  0  0  0  0  0
  -31.3440  -15.0180   18.8670 H   0  0  0  0  0  0  0  0  0  0  0  0
  -26.1940  -13.4020   20.7610 C   0  0  0  0  0  0  0  0  0  0  0  0
  -25.0170  -12.7500   21.0090 C   0  0  0  0  0  0  0  0  0  0  0  0
  -25.3380  -11.3590   21.0570 C   0  0  0  0  0  0  0  0  0  0  0  0
  -27.1600  -12.4140   20.6630 N   0  0  0  0  0  0  0  0  0  0  0  0
  -26.6440  -11.1810   20.9070 N   0  0  0  0  0  0  0  0  0  0  0  0
  -24.4660  -10.1810   21.1760 C   0  0  0  0  0  0  0  0  0  0  0  0
  -24.5560   -9.3040   22.2790 C   0  0  0  0  0  3  0  0  0  0  0  0
  -23.6950   -8.1900   22.3800 C   0  0  0  0  0  3  0  0  0  0  0  0
  -22.7240   -7.9500   21.3770 C   0  0  0  0  0  0  0  0  0  0  0  0
  -22.6540   -8.8140   20.2710 C   0  0  0  0  0  3  0  0  0  0  0  0
  -23.5160   -9.9180   20.1690 C   0  0  0  0  0  3  0  0  0  0  0  0
  -21.8600   -6.8800   21.3820 O   0  0  0  0  0  0  0  0  0  0  0  0
  -21.2250   -6.4730   22.5280 C   0  0  0  0  0  0  0  0  0  0  0  0
  -20.3980   -7.3400   23.2740 C   0  0  0  0  0  3  0  0  0  0  0  0
  -19.7100   -6.8590   24.4050 C   0  0  0  0  0  3  0  0  0  0  0  0
  -19.8410   -5.5100   24.7870 C   0  0  0  0  0  0  0  0  0  0  0  0
  -20.6600   -4.6430   24.0430 C   0  0  0  0  0  3  0  0  0  0  0  0
  -21.3480   -5.1230   22.9150 C   0  0  0  0  0  0  0  0  0  0  0  0
  -22.1190   -4.2780   22.1900 F   0  0  0  0  0  0  0  0  0  0  0  0
  -19.1730   -5.0440   25.8690 F   0  0  0  0  0  0  0  0  0  0  0  0
  -23.6550  -13.3740   21.1000 C   0  0  0  0  0  0  0  0  0  0  0  0
  -22.7670  -12.7940   21.9020 N   0  0  0  0  0  0  0  0  0  0  0  0
  -23.3840  -14.4100   20.4940 O   0  0  0  0  0  0  0  0  0  0  0  0
  -22.9970  -11.9560   22.4150 H   0  0  0  0  0  0  0  0  0  0  0  0
  -21.8460  -13.1940   22.0060 H   0  0  0  0  0  0  0  0  0  0  0  0
  -26.5210  -14.7430   20.5880 N   0  0  0  0  0  0  0  0  0  0  0  0
  -25.8240  -15.4790   20.6300 H   0  0  0  0  0  0  0  0  0  0  0  0
  -27.4510  -15.0890   20.3960 H   0  0  0  0  0  0  0  0  0  0  0  0
  -25.9300  -17.3600   20.3120 C   0  0  0  0  0  2  0  0  0  0  0  0
  -26.9510  -18.2140   20.4980 C   0  0  0  0  0  3  0  0  0  0  0  0
  -31.0040  -20.0700   18.3070 O   0  0  0  0  0  0  0  0  0  0  0  0
  -30.3220  -21.3370   17.8870 C   0  0  0  0  0  3  0  0  0  0  0  0
  -31.1150  -22.7550   17.8310 C   0  0  0  0  0  3  0  0  0  0  0  0
  -30.2660  -24.1170   17.6290 C   0  0  0  0  0  2  0  0  0  0  0  0
  -30.5950  -25.4540   18.2480 O   0  0  0  0  0  0  0  0  0  0  0  0
  -26.0480  -28.5310   23.0210 C   0  0  0  0  0  0  0  0  0  0  0  0
  -29.5230  -26.3480   18.5040 C   0  0  0  0  0  0  0  0  0  0  0  0
  -25.3660  -28.5440   20.6510 C   0  0  0  0  0  3  0  0  0  0  0  0
  -27.1960  -27.9780   18.9560 C   0  0  0  0  0  0  0  0  0  0  0  0
  -27.8570  -28.5680   21.2830 C   0  0  0  0  0  2  0  0  0  0  0  0
  -28.1560  -27.8470   19.9680 C   0  0  0  0  0  0  0  0  0  0  0  0
  -29.3280  -27.0530   19.7410 C   0  0  0  0  0  3  0  0  0  0  0  0
  -28.5430  -26.5620   17.5060 C   0  0  0  0  0  3  0  0  0  0  0  0
  -27.3990  -27.3490   17.7230 C   0  0  0  0  0  3  0  0  0  0  0  0
  -25.9580  -28.8020   19.2420 C   0  0  0  0  0  2  0  0  0  0  0  0
  -26.4270  -28.5270   21.7090 N   0  0  0  0  0  0  0  0  0  0  0  0
  -24.8530  -28.5730   23.3480 O   0  0  0  0  0  0  0  0  0  0  0  0
  -24.5170  -27.2500   20.6140 C   0  0  0  0  0  0  0  0  0  0  0  0
  -23.2600  -27.3600   20.1530 N   0  0  0  0  0  0  0  0  0  0  0  0
  -24.9990  -26.1710   20.9730 O   0  0  0  0  0  0  0  0  0  0  0  0
  -22.9340  -28.2790   19.8860 H   0  0  0  0  0  0  0  0  0  0  0  0
  -19.8270  -26.5800   19.3080 C   0  0  0  0  0  0  0  0  0  0  0  0
  -22.3010  -26.2650   19.9950 C   0  0  0  0  0  3  0  0  0  0  0  0
  -22.4820  -25.5600   18.6310 C   0  0  0  0  0  2  0  0  0  0  0  0
  -21.5740  -26.1240   17.5340 C   0  0  0  0  0  2  0  0  0  0  0  0
  -20.1020  -25.9920   17.9340 C   0  0  0  0  0  2  0  0  0  0  0  0
  -20.8630  -26.7230   20.2690 C   0  0  0  0  0  0  0  0  0  0  0  0
  -20.5610  -27.3060   21.5190 C   0  0  0  0  0  3  0  0  0  0  0  0
  -19.2550  -27.7400   21.8140 C   0  0  0  0  0  3  0  0  0  0  0  0
  -18.2310  -27.5830   20.8650 C   0  0  0  0  0  3  0  0  0  0  0  0
  -18.5170  -27.0000   19.6170 C   0  0  0  0  0  3  0  0  0  0  0  0
  -27.0980  -28.5040   24.1730 C   0  0  0  0  0  3  0  0  0  0  0  0
  -26.6980  -29.5140   25.1620 N   0  0  0  0  0  0  0  0  0  0  0  0
  -27.2290  -30.7420   25.2580 C   0  0  0  0  0  0  0  0  0  0  0  0
  -28.1690  -31.1190   24.5530 O   0  0  0  0  0  0  0  0  0  0  0  0
  -25.8970  -29.2940   25.7360 H   0  0  0  0  0  0  0  0  0  0  0  0
  -25.6630  -32.6780   25.6080 C   0  0  0  0  0  1  0  0  0  0  0  0
  -26.6240  -31.6990   26.3020 C   0  0  0  0  0  3  0  0  0  0  0  0
  -28.4090  -31.6260   27.9860 C   0  0  0  0  0  1  0  0  0  0  0  0
  -27.6400  -32.4580   27.0650 N   0  0  0  0  0  0  0  0  0  0  0  0
  -27.2060  -33.2060   27.5990 H   0  0  0  0  0  0  0  0  0  0  0  0
  -27.2360  -27.0870   24.8540 C   0  0  1  0  0  0  0  0  0  0  0  0
  -25.8860  -26.4710   25.2860 C   0  0  0  0  0  1  0  0  0  0  0  0
  -27.9260  -26.0850   23.8990 C   0  0  0  0  0  1  0  0  0  0  0  0
  -28.1360  -27.1950   26.1070 C   0  0  0  0  0  1  0  0  0  0  0  0
  2  3  2  0
  3  1  1  0
  3 47  1  0
  4 16  1  0
  4  1  2  0
  5  6  2  0
  5  2  1  0
  6  4  1  0
  7  6  1  0
  8 15  2  0
  8 14  1  0
  9 14  1  0
 10 11  1  0
 10  9  1  0
 12 11  1  0
 12 21  1  0
 12 13  1  0
 14 13  1  0
 16  8  1  0
 17 16  1  0
 18 19  2  0
 19 20  1  0
 19 38  1  0
 20 23  1  0
 21 18  1  0
 21 22  1  0
 22 20  2  0
 23 24  1  0
 24 25  2  0
 26 29  1  0
 26 25  1  0
 27 26  2  0
 28 27  1  0
 28 23  2  0
 29 30  1  0
 30 35  2  0
 30 31  1  0
 31 32  2  0
 32 33  1  0
 33 37  1  0
 34 33  2  0
 35 34  1  0
 36 35  1  0
 38 39  1  0
 39 42  1  0
 39 41  1  0
 40 38  2  0
 43 44  1  0
 43 18  1  0
 45 43  1  0
 46 47  2  0
 48  5  1  0
 49 48  1  0
 50 49  2  0
 51 50  1  0
 51 52  1  0
 52 54  1  0
 53 64  2  0
 54 59  1  0
 55 65  1  0
 55 63  1  0
 56 62  1  0
 56 58  1  0
 57 63  1  0
 58 57  1  0
 59 58  2  0
 60 61  1  0
 60 54  2  0
 61 56  2  0
 62 55  1  0
 63 53  1  0
 65 67  2  0
 66 65  1  0
 68 66  1  0
 69 78  2  0
 69 74  1  0
 70 66  1  0
 70 74  1  0
 71 70  1  0
 72 73  1  0
 72 71  1  0
 73 69  1  0
 74 75  2  0
 75 76  1  0
 77 76  2  0
 78 77  1  0
 79 53  1  0
 79 89  1  0
 79 80  1  0
 80 81  1  0
 80 83  1  0
 81 85  1  0
 82 81  2  0
 85 84  1  0
 85 87  1  0
 87 88  1  0
 87 86  1  0
 89 90  1  1
 89 92  1  0
 91 89  1  0
M  ISO  4   8 100  16 100  51 101  52 101
M  END
>  <TORSDO>  (69) 
F 21

>  <SCORE>  (69) 
-7.849

>  <name>  (69) 
69

>  <ligand_id>  (69) 
69

>  <original_smiles>  (69) 
[H]C([H])=C([H])c1c([H])c(OC([H])([H])C([H])([H])C([H])([H])Oc2c([H])c([H])c3c(c2[H])C([H])([H])N(C(=O)C([H])(N([H])C(=O)C([H])(N([H])C([H])([H])[H])C([H])([H])[H])C(C([H])([H])[H])(C([H])([H])[H])C([H])([H])[H])C([H])(C(=O)N([H])C2([H])c4c([H])c([H])c([H])c([H])c4C([H])([H])C([H])([H])C2([H])[H])C3([H])[H])c(F)c(N([H])C(=O)N2C([H])([H])C([H])([H])C([H])([H])C([H])(n3nc(-c4c([H])c([H])c(Oc5c([H])c([H])c(F)c([H])c5F)c([H])c4[H])c(C(=O)N([H])[H])c3N([H])[H])C2([H])[H])c1[H]

>  <smiles>  (69) 
[H]C([H])=C([H])c1c([H])c(OC([H])([H])C([H])([H])C([H])([H])Oc2c([H])c([H])c3c(c2[H])C([H])([H])N(C(=O)C([H])(N([H])C(=O)C([H])(N([H])C([H])([H])[H])C([H])([H])[H])C(C([H])([H])[H])(C([H])([H])[H])C([H])([H])[H])C([H])(C(=O)N([H])C2([H])c4c([H])c([H])c([H])c([H])c4C([H])([H])C([H])([H])C2([H])[H])C3([H])[H])c(F)c(N([H])C(=O)N2C([H])([H])C([H])([H])C([H])([H])C([H])(n3nc(-c4c([H])c([H])c(Oc5c([H])c([H])c(F)c([H])c5F)c([H])c4[H])c(C(=O)N([H])[H])c3N([H])[H])C2([H])[H])c1[H]

$$$$
70:0:0
     RDKit          3D

 92100  0  0  1  0  0  0  0  0999 V2000
  -30.2600  -20.2770   20.4930 C   0  0  0  0  0  3  0  0  0  0  0  0
  -27.9630  -19.7980   20.4740 C   0  0  0  0  0  3  0  0  0  0  0  0
  -29.5470  -17.8020   20.3220 C   0  0  0  0  0  0  0  0  0  0  0  0
  -30.5550  -18.8430   20.3990 C   0  0  0  0  0  0  0  0  0  0  0  0
  -28.9370  -20.8330   20.5280 C   0  0  0  0  0  0  0  0  0  0  0  0
  -28.2240  -18.3810   20.3430 C   0  0  0  0  0  0  0  0  0  0  0  0
  -32.0150  -18.4380   20.3070 C   0  0  0  0  0  1  0  0  0  0  0  0
  -29.7140  -16.2420   19.9150 C   0  0  0  0  0  0  0  0  0  0  0  0
  -29.1610  -15.9570   18.8090 N   0  0  0  0  0  0  0  0  0  0  0  0
  -28.6860  -16.7660   18.4310 H   0  0  0  0  0  0  0  0  0  0  0  0
  -30.5430  -14.9870   20.5940 C   0  0  0  0  0  0  0  0  0  0  0  0
  -30.4790  -12.6330   19.6890 C   0  0  0  0  0  2  0  0  0  0  0  0
  -29.5780  -12.5660   18.4340 C   0  0  0  0  0  2  0  0  0  0  0  0
  -28.0990  -12.3590   18.8190 C   0  0  0  0  0  2  0  0  0  0  0  0
  -27.6390  -13.2830   19.9780 C   0  0  0  0  0  3  0  0  0  0  0  0
  -28.6680  -13.3280   21.1260 C   0  0  0  0  0  2  0  0  0  0  0  0
  -29.9620  -13.7220   20.5520 N   0  0  0  0  0  0  0  0  0  0  0  0
  -31.7770  -15.0550   20.5900 O   0  0  0  0  0  0  0  0  0  0  0  0
  -25.2310  -13.8340   20.6480 C   0  0  0  0  0  0  0  0  0  0  0  0
  -24.1650  -13.0450   20.9720 C   0  0  0  0  0  0  0  0  0  0  0  0
  -24.6530  -11.7030   20.9640 C   0  0  0  0  0  0  0  0  0  0  0  0
  -26.2960  -12.9710   20.4430 N   0  0  0  0  0  0  0  0  0  0  0  0
  -25.9540  -11.6840   20.7070 N   0  0  0  0  0  0  0  0  0  0  0  0
  -23.9410  -10.4310   21.1300 C   0  0  0  0  0  0  0  0  0  0  0  0
  -24.3490   -9.4760   22.0870 C   0  0  0  0  0  3  0  0  0  0  0  0
  -23.6360   -8.2680   22.2390 C   0  0  0  0  0  3  0  0  0  0  0  0
  -22.5010   -8.0090   21.4350 C   0  0  0  0  0  0  0  0  0  0  0  0
  -22.1130   -8.9510   20.4680 C   0  0  0  0  0  3  0  0  0  0  0  0
  -22.8270  -10.1520   20.3130 C   0  0  0  0  0  3  0  0  0  0  0  0
  -21.7630   -6.8510   21.4960 O   0  0  0  0  0  0  0  0  0  0  0  0
  -21.6720   -6.1170   22.6510 C   0  0  0  0  0  0  0  0  0  0  0  0
  -21.1520   -6.6660   23.8430 C   0  0  0  0  0  3  0  0  0  0  0  0
  -21.0120   -5.8570   24.9880 C   0  0  0  0  0  3  0  0  0  0  0  0
  -21.3800   -4.4990   24.9410 C   0  0  0  0  0  0  0  0  0  0  0  0
  -21.8930   -3.9500   23.7530 C   0  0  0  0  0  3  0  0  0  0  0  0
  -22.0360   -4.7560   22.6100 C   0  0  0  0  0  0  0  0  0  0  0  0
  -22.5110   -4.2160   21.4620 F   0  0  0  0  0  0  0  0  0  0  0  0
  -21.2370   -3.7200   26.0380 F   0  0  0  0  0  0  0  0  0  0  0  0
  -22.7510  -13.5030   21.1810 C   0  0  0  0  0  0  0  0  0  0  0  0
  -21.9980  -12.8010   22.0200 N   0  0  0  0  0  0  0  0  0  0  0  0
  -22.3210  -14.5200   20.6380 O   0  0  0  0  0  0  0  0  0  0  0  0
  -22.3580  -11.9780   22.4820 H   0  0  0  0  0  0  0  0  0  0  0  0
  -21.0480  -13.0900   22.2060 H   0  0  0  0  0  0  0  0  0  0  0  0
  -25.3750  -15.2050   20.4850 N   0  0  0  0  0  0  0  0  0  0  0  0
  -24.5920  -15.8380   20.5980 H   0  0  0  0  0  0  0  0  0  0  0  0
  -26.2270  -15.6840   20.2100 H   0  0  0  0  0  0  0  0  0  0  0  0
  -28.8780  -23.4710   20.4480 C   0  0  0  0  0  3  0  0  0  0  0  0
  -28.4410  -22.2280   20.6840 N   0  0  0  0  0  0  0  0  0  0  0  0
  -27.9910  -24.8300   20.7580 C   0  0  0  0  0  2  0  0  0  0  0  0
  -28.3400  -26.2890   20.3910 O   0  0  0  0  0  0  0  0  0  0  0  0
  -24.6330  -31.9540   23.2800 C   0  0  0  0  0  0  0  0  0  0  0  0
  -27.2790  -27.2550   20.3290 C   0  0  0  0  0  0  0  0  0  0  0  0
  -23.4580  -30.5290   21.6490 C   0  0  0  0  0  3  0  0  0  0  0  0
  -24.9330  -28.9550   20.2590 C   0  0  0  0  0  0  0  0  0  0  0  0
  -26.0100  -30.8200   21.5040 C   0  0  0  0  0  2  0  0  0  0  0  0
  -26.1020  -29.4240   20.8740 C   0  0  0  0  0  0  0  0  0  0  0  0
  -27.2780  -28.5880   20.8940 C   0  0  0  0  0  3  0  0  0  0  0  0
  -26.0890  -26.8900   19.6610 C   0  0  0  0  0  3  0  0  0  0  0  0
  -24.9360  -27.7000   19.6390 C   0  0  0  0  0  3  0  0  0  0  0  0
  -23.6980  -29.8390   20.2810 C   0  0  0  0  0  2  0  0  0  0  0  0
  -24.7190  -31.1220   22.1990 N   0  0  0  0  0  0  0  0  0  0  0  0
  -23.5390  -32.2360   23.7930 O   0  0  0  0  0  0  0  0  0  0  0  0
  -22.7800  -29.5250   22.6150 C   0  0  0  0  0  0  0  0  0  0  0  0
  -21.4570  -29.3320   22.4660 N   0  0  0  0  0  0  0  0  0  0  0  0
  -23.4460  -28.9230   23.4610 O   0  0  0  0  0  0  0  0  0  0  0  0
  -20.9780  -29.8700   21.7590 H   0  0  0  0  0  0  0  0  0  0  0  0
  -18.0840  -28.0940   22.9260 C   0  0  0  0  0  0  0  0  0  0  0  0
  -20.6330  -28.4000   23.2400 C   0  0  0  0  0  3  0  0  0  0  0  0
  -20.7670  -26.9570   22.6990 C   0  0  0  0  0  2  0  0  0  0  0  0
  -19.6920  -26.5970   21.6700 C   0  0  0  0  0  2  0  0  0  0  0  0
  -18.2940  -26.7340   22.2820 C   0  0  0  0  0  2  0  0  0  0  0  0
  -19.1830  -28.8820   23.3610 C   0  0  0  0  0  0  0  0  0  0  0  0
  -18.9320  -30.1530   23.9240 C   0  0  0  0  0  3  0  0  0  0  0  0
  -17.6150  -30.6360   24.0540 C   0  0  0  0  0  3  0  0  0  0  0  0
  -16.5310  -29.8450   23.6340 C   0  0  0  0  0  3  0  0  0  0  0  0
  -16.7670  -28.5760   23.0770 C   0  0  0  0  0  3  0  0  0  0  0  0
  -25.9000  -32.6060   23.9120 C   0  0  0  0  0  3  0  0  0  0  0  0
  -26.3990  -31.8620   25.2110 C   0  0  1  0  0  0  0  0  0  0  0  0
  -25.2890  -31.6360   26.2650 C   0  0  0  0  0  1  0  0  0  0  0  0
  -26.9980  -30.4820   24.8580 C   0  0  0  0  0  1  0  0  0  0  0  0
  -27.5340  -32.6760   25.8760 C   0  0  0  0  0  1  0  0  0  0  0  0
  -25.5770  -34.0080   24.2160 N   0  0  0  0  0  0  0  0  0  0  0  0
  -25.9060  -35.0530   23.4440 C   0  0  0  0  0  0  0  0  0  0  0  0
  -26.5830  -34.9390   22.4180 O   0  0  0  0  0  0  0  0  0  0  0  0
  -24.9780  -34.1710   25.0120 H   0  0  0  0  0  0  0  0  0  0  0  0
  -24.1690  -36.8320   23.0560 C   0  0  0  0  0  1  0  0  0  0  0  0
  -25.4080  -36.4460   23.8800 C   0  0  0  0  0  3  0  0  0  0  0  0
  -27.5310  -37.3560   24.7130 C   0  0  0  0  0  1  0  0  0  0  0  0
  -26.4350  -37.5040   23.7590 N   0  0  0  0  0  0  0  0  0  0  0  0
  -26.0210  -38.4230   23.8920 H   0  0  0  0  0  0  0  0  0  0  0  0
  -25.9850  -18.0210   19.5490 C   0  0  0  0  0  1  0  0  0  0  0  0
  -27.1570  -17.5170   20.1920 O   0  0  0  0  0  0  0  0  0  0  0  0
  1  5  1  0
  2  5  2  0
  3  6  2  0
  3  4  1  0
  4  1  2  0
  5 48  1  0
  6  2  1  0
  7  4  1  0
  8  3  1  0
  8 11  1  0
  9  8  2  0
 10  9  1  0
 12 17  1  0
 13 14  1  0
 13 12  1  0
 15 14  1  0
 15 22  1  0
 15 16  1  0
 17 11  1  0
 17 16  1  0
 18 11  2  0
 19 20  2  0
 20 39  1  0
 21 20  1  0
 21 24  1  0
 22 19  1  0
 22 23  1  0
 23 21  2  0
 24 25  1  0
 25 26  2  0
 27 30  1  0
 27 26  1  0
 28 27  2  0
 29 28  1  0
 29 24  2  0
 30 31  1  0
 31 32  1  0
 32 33  2  0
 34 33  1  0
 34 38  1  0
 35 34  2  0
 36 31  2  0
 36 35  1  0
 37 36  1  0
 39 40  1  0
 40 43  1  0
 40 42  1  0
 41 39  2  0
 44 45  1  0
 44 19  1  0
 46 44  1  0
 47 48  2  0
 47 49  1  0
 50 49  1  0
 51 62  2  0
 52 50  1  0
 52 57  1  0
 53 61  1  0
 53 63  1  0
 54 60  1  0
 54 56  1  0
 55 61  1  0
 56 57  2  0
 56 55  1  0
 58 52  2  0
 59 58  1  0
 59 54  2  0
 60 53  1  0
 61 51  1  0
 63 65  2  0
 64 63  1  0
 66 64  1  0
 67 76  2  0
 67 72  1  0
 68 64  1  0
 68 72  1  0
 69 68  1  0
 70 71  1  0
 70 69  1  0
 71 67  1  0
 72 73  2  0
 73 74  1  0
 75 74  2  0
 76 75  1  0
 77 51  1  0
 77 82  1  0
 77 78  1  0
 78 81  1  1
 78 79  1  0
 80 78  1  0
 82 85  1  0
 83 87  1  0
 83 82  1  0
 84 83  2  0
 87 86  1  0
 89 87  1  0
 89 90  1  0
 89 88  1  0
 91 92  1  0
 92  6  1  0
M  ISO  4   8 100  11 100  49 101  50 101
M  END
>  <TORSDO>  (70) 
F 20

>  <SCORE>  (70) 
-13.866

>  <name>  (70) 
70

>  <ligand_id>  (70) 
70

>  <original_smiles>  (70) 
[H]N=C(C(=O)N1C([H])([H])C([H])([H])C([H])([H])C([H])(n2nc(-c3c([H])c([H])c(Oc4c([H])c([H])c(F)c([H])c4F)c([H])c3[H])c(C(=O)N([H])[H])c2N([H])[H])C1([H])[H])c1c(OC([H])([H])[H])c([H])c(N=C([H])C([H])([H])Oc2c([H])c([H])c3c(c2[H])C([H])([H])N(C(=O)C([H])(N([H])C(=O)C([H])(N([H])C([H])([H])[H])C([H])([H])[H])C(C([H])([H])[H])(C([H])([H])[H])C([H])([H])[H])C([H])(C(=O)N([H])C2([H])c4c([H])c([H])c([H])c([H])c4C([H])([H])C([H])([H])C2([H])[H])C3([H])[H])c([H])c1C([H])([H])[H]

>  <smiles>  (70) 
[H]N=C(C(=O)N1C([H])([H])C([H])([H])C([H])([H])C([H])(n2nc(-c3c([H])c([H])c(Oc4c([H])c([H])c(F)c([H])c4F)c([H])c3[H])c(C(=O)N([H])[H])c2N([H])[H])C1([H])[H])c1c(OC([H])([H])[H])c([H])c(N=C([H])C([H])([H])Oc2c([H])c([H])c3c(c2[H])C([H])([H])N(C(=O)C([H])(N([H])C(=O)C([H])(N([H])C([H])([H])[H])C([H])([H])[H])C(C([H])([H])[H])(C([H])([H])[H])C([H])([H])[H])C([H])(C(=O)N([H])C2([H])c4c([H])c([H])c([H])c([H])c4C([H])([H])C([H])([H])C2([H])[H])C3([H])[H])c([H])c1C([H])([H])[H]

$$$$
71:0:0
     RDKit          3D

 94 92  0  0  1  0  0  0  0  0999 V2000
  -26.1220  -13.7260   18.5640 C   0  0  0  0  0 15  0  0  0  0  0  0
  -26.4190  -12.0360   22.0210 C   0  0  0  0  0 15  0  0  0  0  0  0
  -26.8010  -11.4690   19.9150 C   0  0  0  0  0  1  0  0  0  0  0  0
  -25.4960  -15.3870   19.9780 C   0  0  0  0  0 15  0  0  0  0  0  0
  -25.4530  -14.3100   22.2610 N   0  0  0  0  0  1  0  0  0  0  0  0
  -30.4640  -12.0730   19.6720 C   0  0  0  0  0  3  0  0  0  0  0  0
  -31.0450  -10.7260   18.7390 C   0  0  0  0  0  2  0  0  0  0  0  0
  -29.8460  -11.2180   17.5160 C   0  0  0  0  0  2  0  0  0  0  0  0
  -28.5750  -12.3050   17.8870 C   0  0  0  0  0  2  0  0  0  0  0  0
  -28.5450  -13.3340   19.3440 C   0  0  0  0  0  3  0  0  0  0  0  0
  -29.7480  -12.9610   20.6450 C   0  0  0  0  0  2  0  0  0  0  0  0
  -30.8130  -11.4840   20.3500 N   0  0  0  0  0  0  0  0  0  0  0  0
  -31.6820  -12.7230   19.5580 O   0  0  0  0  0  1  0  0  0  0  0  0
  -28.0110  -10.4740   19.8850 C   0  0  0  0  0  0  0  0  0  0  0  0
  -29.3540  -10.8590   20.1400 N   0  0  0  0  0  0  0  0  0  0  0  0
  -27.7900   -9.2820   19.6410 O   0  0  0  0  0  0  0  0  0  0  0  0
  -29.9070  -10.0130   20.1920 H   0  0  0  0  0  0  0  0  0  0  0  0
  -26.8170  -13.8480   20.6350 C   0  0  0  0  0  0  0  0  0  0  0  0
  -24.8210  -13.1260   20.4960 C   0  0  0  0  0  3  0  0  0  0  0  0
  -24.4790  -11.7910   20.1050 C   0  0  0  0  0  1  0  0  0  0  0  0
  -27.4150  -13.4500   20.3230 N   0  0  0  0  0  2  0  0  0  0  0  0
  -25.3170  -12.9690   20.3780 N   0  0  0  0  0  2  0  0  0  0  0  0
  -23.9990  -10.3360   20.7100 C   0  0  0  0  0  3  0  0  0  0  0  0
  -24.5080   -9.2810   21.5910 C   0  0  0  0  0  3  0  0  0  0  0  0
  -23.7920   -8.0430   21.8850 C   0  0  0  0  0  3  0  0  0  0  0  0
  -22.5160   -7.7690   21.3130 C   0  0  0  0  0  0  0  0  0  0  0  0
  -22.0430   -8.7460   20.4250 C   0  0  0  0  0  3  0  0  0  0  0  0
  -22.7590   -9.9420   20.1440 C   0  0  0  0  0  3  0  0  0  0  0  0
  -21.7310   -6.6210   21.4370 O   0  0  0  0  0  0  0  0  0  0  0  0
  -21.5540   -5.8830   22.5930 C   0  0  0  0  0  0  0  0  0  0  0  0
  -21.1610   -6.4720   23.8160 C   0  0  0  0  0  3  0  0  0  0  0  0
  -20.9520   -5.6710   24.9580 C   0  0  0  0  0  3  0  0  0  0  0  0
  -21.1240   -4.2740   24.8890 C   0  0  0  0  0  0  0  0  0  0  0  0
  -21.4770   -3.6750   23.6670 C   0  0  0  0  0  3  0  0  0  0  0  0
  -21.6740   -4.4720   22.5220 C   0  0  0  0  0  0  0  0  0  0  0  0
  -21.9720   -3.8680   21.3450 F   0  0  0  0  0  0  0  0  0  0  0  0
  -20.9540   -3.5080   25.9930 F   0  0  0  0  0  0  0  0  0  0  0  0
  -23.1900  -13.5440   21.0280 C   0  0  0  0  0  0  0  0  0  0  0  0
  -22.6090  -12.8000   21.9910 N   0  0  0  0  0  0  0  0  0  0  0  0
  -22.5690  -14.4090   20.4440 O   0  0  0  0  0  0  0  0  0  0  0  0
  -23.1230  -12.0520   22.4360 H   0  0  0  0  0  0  0  0  0  0  0  0
  -21.6680  -12.9930   22.3030 H   0  0  0  0  0  0  0  0  0  0  0  0
  -27.6150  -14.9840   21.0490 N   0  0  0  0  0  4  0  0  0  0  0  0
  -27.0640  -15.5650   21.6680 H   0  0  0  0  0  0  0  0  0  0  0  0
  -28.5140  -14.7620   21.4460 H   0  0  0  0  0  0  0  0  0  0  0  0
  -25.8710  -17.5830   19.8610 C   0  0  0  0  0  2  0  0  0  0  0  0
  -24.8320  -17.9610   19.3190 O   0  0  0  0  0  0  0  0  0  0  0  0
  -27.1170  -21.3400   20.0190 C   0  0  0  0  0  1  0  0  0  0  0  0
  -27.0020  -19.5390   20.0960 C   0  0  0  0  0  2  0  0  0  0  0  0
  -28.2240  -19.1430   20.4790 O   0  0  0  0  0  0  0  0  0  0  0  0
  -28.2400  -18.1930   20.5120 H   0  0  0  0  0  0  0  0  0  0  0  0
  -28.0680  -23.0300   20.1370 O   0  0  0  0  0  1  0  0  0  0  0  0
  -26.6160  -30.6320   23.4800 C   0  0  0  0  0  0  0  0  0  0  0  0
  -27.9420  -24.7940   20.2120 C   0  0  0  0  0  0  0  0  0  0  0  0
  -25.4110  -29.5280   21.6740 C   0  0  0  0  0  3  0  0  0  0  0  0
  -26.6420  -27.7360   20.1660 C   0  0  0  0  0  0  0  0  0  0  0  0
  -27.9330  -29.0180   21.8070 C   0  0  0  0  0  2  0  0  0  0  0  0
  -27.7290  -27.5870   21.0150 C   0  0  0  0  0  0  0  0  0  0  0  0
  -28.3720  -26.1550   21.0110 C   0  0  0  0  0  3  0  0  0  0  0  0
  -27.1160  -25.4130   19.2420 C   0  0  0  0  0  3  0  0  0  0  0  0
  -26.4660  -26.6950   19.2420 C   0  0  0  0  0  3  0  0  0  0  0  0
  -25.6740  -28.9470   20.2470 C   0  0  0  0  0  2  0  0  0  0  0  0
  -26.7050  -29.7840   22.3730 N   0  0  0  0  0  0  0  0  0  0  0  0
  -25.5250  -31.0440   23.9150 O   0  0  0  0  0  0  0  0  0  0  0  0
  -24.5130  -28.5800   22.5080 C   0  0  0  0  0  0  0  0  0  0  0  0
  -23.1840  -28.5800   22.2890 N   0  0  0  0  0  0  0  0  0  0  0  0
  -25.0310  -27.8400   23.3500 O   0  0  0  0  0  0  0  0  0  0  0  0
  -22.8080  -29.2320   21.6130 H   0  0  0  0  0  0  0  0  0  0  0  0
  -19.6800  -27.6560   22.5150 C   0  0  0  0  0  0  0  0  0  0  0  0
  -22.2300  -27.6650   22.9310 C   0  0  0  0  0  3  0  0  0  0  0  0
  -22.2370  -26.2820   22.2340 C   0  0  0  0  0  2  0  0  0  0  0  0
  -21.1760  -26.1590   21.1360 C   0  0  0  0  0  2  0  0  0  0  0  0
  -19.7790  -26.3650   21.7220 C   0  0  0  0  0  2  0  0  0  0  0  0
  -20.8310  -28.2730   23.0710 C   0  0  0  0  0  0  0  0  0  0  0  0
  -20.6820  -29.4870   23.7750 C   0  0  0  0  0  3  0  0  0  0  0  0
  -19.4140  -30.0800   23.9240 C   0  0  0  0  0  3  0  0  0  0  0  0
  -18.2780  -29.4600   23.3740 C   0  0  0  0  0  3  0  0  0  0  0  0
  -18.4120  -28.2470   22.6770 C   0  0  0  0  0  3  0  0  0  0  0  0
  -27.8630  -31.1480   24.2670 C   0  0  0  0  0  3  0  0  0  0  0  0
  -28.2680  -30.2000   25.4630 C   0  0  1  0  0  0  0  0  0  0  0  0
  -27.1090  -29.8720   26.4360 C   0  0  0  0  0  1  0  0  0  0  0  0
  -28.8250  -28.8620   24.9400 C   0  0  0  0  0  1  0  0  0  0  0  0
  -29.4040  -30.8460   26.2940 C   0  0  0  0  0  1  0  0  0  0  0  0
  -27.5680  -32.4990   24.8110 N   0  0  0  0  0  0  0  0  0  0  0  0
  -27.9360  -33.6720   24.2730 C   0  0  0  0  0  0  0  0  0  0  0  0
  -28.6100  -33.7380   23.2420 O   0  0  0  0  0  0  0  0  0  0  0  0
  -26.9740  -32.5190   25.6270 H   0  0  0  0  0  0  0  0  0  0  0  0
  -26.2500  -35.5550   24.2980 C   0  0  0  0  0  1  0  0  0  0  0  0
  -27.5010  -34.9780   24.9820 C   0  0  0  0  0  3  0  0  0  0  0  0
  -29.6700  -35.6980   25.8920 C   0  0  0  0  0  1  0  0  0  0  0  0
  -28.5510  -36.0220   25.0120 N   0  0  0  0  0  0  0  0  0  0  0  0
  -28.1630  -36.9130   25.3120 H   0  0  0  0  0  0  0  0  0  0  0  0
  -24.2320  -16.1690   23.2220 C   0  0  0  0  0  1  0  0  0  0  0  0
  -25.1450  -14.9770   23.4930 C   0  0  0  0  0  2  0  0  0  0  0  0
  5 94  1  0
  6 13  1  0
  6 12  1  0
  6 11  1  0
  7 12  1  0
  8  9  1  0
  8  7  1  0
  9 10  1  0
 10 21  1  0
 10 11  1  0
 14  3  1  0
 14 15  1  0
 15 17  1  0
 15 12  1  0
 16 14  2  0
 18 43  2  0
 19 20  1  0
 19 38  1  0
 21 18  1  0
 22 19  1  0
 22 18  1  0
 23 24  1  0
 24 25  2  0
 26 29  1  0
 26 25  1  0
 27 26  2  0
 28 27  1  0
 28 23  2  0
 29 30  1  0
 30 31  1  0
 31 32  2  0
 33 32  1  0
 33 37  1  0
 34 33  2  0
 35 30  2  0
 35 34  1  0
 36 35  1  0
 38 39  1  0
 39 42  1  0
 39 41  1  0
 40 38  2  0
 43 45  1  0
 43 44  1  0
 47 46  2  0
 48 49  1  0
 49 50  1  0
 50 51  1  0
 52 54  1  0
 53 64  2  0
 54 59  1  0
 55 63  1  0
 55 65  1  0
 56 62  1  0
 56 58  1  0
 57 63  1  0
 58 57  1  0
 59 58  2  0
 60 54  2  0
 61 60  1  0
 61 56  2  0
 62 55  1  0
 63 53  1  0
 65 67  2  0
 66 65  1  0
 68 66  1  0
 69 78  2  0
 69 74  1  0
 70 66  1  0
 70 74  1  0
 71 70  1  0
 72 73  1  0
 72 71  1  0
 73 69  1  0
 74 75  2  0
 75 76  1  0
 77 76  2  0
 78 77  1  0
 79 53  1  0
 79 84  1  0
 79 80  1  0
 80 83  1  1
 80 81  1  0
 82 80  1  0
 84 87  1  0
 85 84  1  0
 85 89  1  0
 86 85  2  0
 89 88  1  0
 89 91  1  0
 91 92  1  0
 91 90  1  0
 93 94  1  0
M  ISO  4   6 100  15 100  48 101  52 101
M  END
>  <TORSDO>  (71) 
F 20

>  <SCORE>  (71) 
0.103

>  <name>  (71) 
71

>  <ligand_id>  (71) 
71

>  <original_smiles>  (71) 
[H]OC(C(=O)c1c([H])c(C(=O)N([H])C(=O)N2C([H])([H])C([H])([H])C([H])([H])C([H])(n3nc(-c4c([H])c([H])c(Oc5c([H])c([H])c(F)c([H])c5F)c([H])c4[H])c(C(=O)N([H])[H])c3N([H])[H])C2([H])[H])c([H])n1C([H])([H])C([H])([H])[H])=C([H])Oc1c([H])c([H])c2c(c1[H])C([H])([H])N(C(=O)C([H])(N([H])C(=O)C([H])(N([H])C([H])([H])[H])C([H])([H])[H])C(C([H])([H])[H])(C([H])([H])[H])C([H])([H])[H])C([H])(C(=O)N([H])C1([H])c3c([H])c([H])c([H])c([H])c3C([H])([H])C([H])([H])C1([H])[H])C2([H])[H]

>  <smiles>  (71) 
[H]OC(C(=O)c1c([H])c(C(=O)N([H])C(=O)N2C([H])([H])C([H])([H])C([H])([H])C([H])(n3nc(-c4c([H])c([H])c(Oc5c([H])c([H])c(F)c([H])c5F)c([H])c4[H])c(C(=O)N([H])[H])c3N([H])[H])C2([H])[H])c([H])n1C([H])([H])C([H])([H])[H])=C([H])Oc1c([H])c([H])c2c(c1[H])C([H])([H])N(C(=O)C([H])(N([H])C(=O)C([H])(N([H])C([H])([H])[H])C([H])([H])[H])C(C([H])([H])[H])(C([H])([H])[H])C([H])([H])[H])C([H])(C(=O)N([H])C1([H])c3c([H])c([H])c([H])c([H])c3C([H])([H])C([H])([H])C1([H])[H])C2([H])[H]

$$$$
72:0:0
     RDKit          3D

 95104  0  0  1  0  0  0  0  0999 V2000
  -28.5990  -24.3720   20.8350 C   0  0  0  0  0  0  0  0  0  0  0  0
  -28.4790  -25.7290   20.9780 C   0  0  0  0  0  2  0  0  0  0  0  0
  -29.0010  -20.9630   19.2330 C   0  0  0  0  0  0  0  0  0  0  0  0
  -28.8730  -23.4680   22.0120 C   0  0  0  0  0  3  0  0  0  0  0  0
  -28.5010  -23.4580   19.6050 C   0  0  0  0  0  3  0  0  0  0  0  0
  -29.2050  -22.0740   21.4550 C   0  0  0  0  0  3  0  0  0  0  0  0
  -28.9750  -22.0970   20.0070 N   0  0  0  0  0  0  0  0  0  0  0  0
  -28.3810  -20.8850   18.1680 O   0  0  0  0  0  0  0  0  0  0  0  0
  -29.5080  -18.4220   19.7360 C   0  0  0  0  0  3  0  0  0  0  0  0
  -31.2750  -20.0990   19.8600 C   0  0  0  0  0  3  0  0  0  0  0  0
  -31.7490  -17.7850   20.4410 C   0  0  0  0  0  3  0  0  0  0  0  0
  -29.9140  -19.8010   19.6470 C   0  0  0  0  0  0  0  0  0  0  0  0
  -30.4280  -17.3820   20.1280 C   0  0  0  0  0  0  0  0  0  0  0  0
  -32.1770  -19.1180   20.2920 C   0  0  0  0  0  0  0  0  0  0  0  0
  -30.8420  -14.8480   20.2490 C   0  0  0  0  0  0  0  0  0  0  0  0
  -30.6340  -12.5620   19.3490 C   0  0  0  0  0  2  0  0  0  0  0  0
  -29.7070  -12.6260   18.1160 C   0  0  0  0  0  2  0  0  0  0  0  0
  -28.2320  -12.4900   18.5360 C   0  0  0  0  0  2  0  0  0  0  0  0
  -27.8500  -13.4130   19.7260 C   0  0  0  0  0  3  0  0  0  0  0  0
  -28.9000  -13.3430   20.8580 C   0  0  0  0  0  2  0  0  0  0  0  0
  -30.2060  -13.6400   20.2580 N   0  0  0  0  0  0  0  0  0  0  0  0
  -32.0460  -14.9140   19.9890 O   0  0  0  0  0  0  0  0  0  0  0  0
  -30.0470  -15.9700   20.2360 N   0  0  0  0  0  0  0  0  0  0  0  0
  -29.0590  -15.7720   20.2360 H   0  0  0  0  0  0  0  0  0  0  0  0
  -25.4530  -14.0160   20.4240 C   0  0  0  0  0  0  0  0  0  0  0  0
  -24.3840  -13.2430   20.7890 C   0  0  0  0  0  0  0  0  0  0  0  0
  -24.8500  -11.8920   20.7780 C   0  0  0  0  0  0  0  0  0  0  0  0
  -26.5010  -13.1350   20.2080 N   0  0  0  0  0  0  0  0  0  0  0  0
  -26.1440  -11.8550   20.4850 N   0  0  0  0  0  0  0  0  0  0  0  0
  -24.1250  -10.6300   20.9660 C   0  0  0  0  0  0  0  0  0  0  0  0
  -24.5300   -9.6810   21.9330 C   0  0  0  0  0  3  0  0  0  0  0  0
  -23.8010   -8.4850   22.1090 C   0  0  0  0  0  3  0  0  0  0  0  0
  -22.6560   -8.2270   21.3180 C   0  0  0  0  0  0  0  0  0  0  0  0
  -22.2750   -9.1630   20.3400 C   0  0  0  0  0  3  0  0  0  0  0  0
  -23.0030  -10.3510   20.1610 C   0  0  0  0  0  3  0  0  0  0  0  0
  -21.9020   -7.0820   21.4020 O   0  0  0  0  0  0  0  0  0  0  0  0
  -21.7910   -6.3780   22.5760 C   0  0  0  0  0  0  0  0  0  0  0  0
  -21.2710   -6.9680   23.7490 C   0  0  0  0  0  3  0  0  0  0  0  0
  -21.1060   -6.1910   24.9140 C   0  0  0  0  0  3  0  0  0  0  0  0
  -21.4540   -4.8270   24.9060 C   0  0  0  0  0  0  0  0  0  0  0  0
  -21.9680   -4.2380   23.7380 C   0  0  0  0  0  3  0  0  0  0  0  0
  -22.1330   -5.0110   22.5760 C   0  0  0  0  0  0  0  0  0  0  0  0
  -22.6080   -4.4340   21.4460 F   0  0  0  0  0  0  0  0  0  0  0  0
  -21.2890   -4.0780   26.0220 F   0  0  0  0  0  0  0  0  0  0  0  0
  -22.9820  -13.7190   21.0400 C   0  0  0  0  0  0  0  0  0  0  0  0
  -22.2450  -13.0260   21.9000 N   0  0  0  0  0  0  0  0  0  0  0  0
  -22.5470  -14.7390   20.5060 O   0  0  0  0  0  0  0  0  0  0  0  0
  -22.6070  -12.2000   22.3550 H   0  0  0  0  0  0  0  0  0  0  0  0
  -21.3050  -13.3270   22.1140 H   0  0  0  0  0  0  0  0  0  0  0  0
  -25.6120  -15.3860   20.2330 N   0  0  0  0  0  0  0  0  0  0  0  0
  -24.8490  -16.0430   20.3610 H   0  0  0  0  0  0  0  0  0  0  0  0
  -26.4440  -15.8210   19.8590 H   0  0  0  0  0  0  0  0  0  0  0  0
  -33.9280  -19.2660   21.8660 C   0  0  0  0  0  1  0  0  0  0  0  0
  -33.4690  -19.5050   20.5420 O   0  0  0  0  0  0  0  0  0  0  0  0
  -28.2910  -26.7090   20.0160 O   0  0  0  0  0  0  0  0  0  0  0  0
  -24.5400  -31.9740   23.2660 C   0  0  0  0  0  0  0  0  0  0  0  0
  -27.1640  -27.5150   20.1220 C   0  0  0  0  0  0  0  0  0  0  0  0
  -23.3230  -30.5830   21.6250 C   0  0  0  0  0  3  0  0  0  0  0  0
  -24.7740  -29.0500   20.1770 C   0  0  0  0  0  0  0  0  0  0  0  0
  -25.8490  -30.9340   21.4090 C   0  0  0  0  0  2  0  0  0  0  0  0
  -25.9400  -29.5590   20.7630 C   0  0  0  0  0  0  0  0  0  0  0  0
  -27.1430  -28.7970   20.7380 C   0  0  0  0  0  3  0  0  0  0  0  0
  -25.9810  -27.0370   19.5300 C   0  0  0  0  0  3  0  0  0  0  0  0
  -24.7920  -27.7890   19.5550 C   0  0  0  0  0  3  0  0  0  0  0  0
  -23.5320  -29.9160   20.2360 C   0  0  0  0  0  2  0  0  0  0  0  0
  -24.5880  -31.1800   22.1580 N   0  0  0  0  0  0  0  0  0  0  0  0
  -23.4650  -32.2370   23.8220 O   0  0  0  0  0  0  0  0  0  0  0  0
  -22.6870  -29.5490   22.5840 C   0  0  0  0  0  0  0  0  0  0  0  0
  -21.3660  -29.3440   22.4580 N   0  0  0  0  0  0  0  0  0  0  0  0
  -23.3790  -28.9350   23.4000 O   0  0  0  0  0  0  0  0  0  0  0  0
  -20.8700  -29.8980   21.7720 H   0  0  0  0  0  0  0  0  0  0  0  0
  -18.0220  -28.0500   22.9350 C   0  0  0  0  0  0  0  0  0  0  0  0
  -20.5680  -28.3930   23.2310 C   0  0  0  0  0  3  0  0  0  0  0  0
  -20.7190  -26.9600   22.6720 C   0  0  0  0  0  2  0  0  0  0  0  0
  -19.6400  -26.5920   21.6480 C   0  0  0  0  0  2  0  0  0  0  0  0
  -18.2490  -26.7010   22.2740 C   0  0  0  0  0  2  0  0  0  0  0  0
  -19.1120  -28.8520   23.3680 C   0  0  0  0  0  0  0  0  0  0  0  0
  -18.8490  -30.1110   23.9490 C   0  0  0  0  0  3  0  0  0  0  0  0
  -17.5280  -30.5770   24.0920 C   0  0  0  0  0  3  0  0  0  0  0  0
  -16.4530  -29.7780   23.6680 C   0  0  0  0  0  3  0  0  0  0  0  0
  -16.7010  -28.5140   23.1010 C   0  0  0  0  0  3  0  0  0  0  0  0
  -25.8300  -32.6080   23.8750 C   0  0  0  0  0  3  0  0  0  0  0  0
  -25.5260  -34.0070   24.1990 N   0  0  0  0  0  0  0  0  0  0  0  0
  -25.8550  -35.0550   23.4330 C   0  0  0  0  0  0  0  0  0  0  0  0
  -26.5210  -34.9450   22.3980 O   0  0  0  0  0  0  0  0  0  0  0  0
  -24.9310  -34.1660   25.0010 H   0  0  0  0  0  0  0  0  0  0  0  0
  -24.1330  -36.8530   23.0590 C   0  0  0  0  0  1  0  0  0  0  0  0
  -25.3690  -36.4470   23.8820 C   0  0  0  0  0  3  0  0  0  0  0  0
  -27.4990  -37.3250   24.7310 C   0  0  0  0  0  1  0  0  0  0  0  0
  -26.4070  -37.4960   23.7730 N   0  0  0  0  0  0  0  0  0  0  0  0
  -26.0040  -38.4170   23.9170 H   0  0  0  0  0  0  0  0  0  0  0  0
  -26.3570  -31.8440   25.1490 C   0  0  1  0  0  0  0  0  0  0  0  0
  -25.2700  -31.6080   26.2250 C   0  0  0  0  0  1  0  0  0  0  0  0
  -26.9400  -30.4660   24.7580 C   0  0  0  0  0  1  0  0  0  0  0  0
  -27.5080  -32.6430   25.8050 C   0  0  0  0  0  1  0  0  0  0  0  0
  1  2  1  0
  1  4  1  0
  3 12  1  0
  3  7  1  0
  5  7  1  0
  5  1  2  0
  6  4  2  0
  7  6  1  0
  8  3  2  0
  9 13  1  0
 10 14  2  0
 12  9  2  0
 12 10  1  0
 13 23  1  0
 13 11  2  0
 14 11  1  0
 14 54  1  0
 15 21  1  0
 16 21  1  0
 17 18  1  0
 17 16  1  0
 19 18  1  0
 19 28  1  0
 19 20  1  0
 21 20  1  0
 22 15  2  0
 23 24  1  0
 23 15  1  0
 25 26  2  0
 26 45  1  0
 27 26  1  0
 27 30  1  0
 28 25  1  0
 28 29  1  0
 29 27  2  0
 30 31  1  0
 31 32  2  0
 33 36  1  0
 33 32  1  0
 34 33  2  0
 35 34  1  0
 35 30  2  0
 36 37  1  0
 37 38  1  0
 38 39  2  0
 40 39  1  0
 40 44  1  0
 41 40  2  0
 42 37  2  0
 42 41  1  0
 43 42  1  0
 45 46  1  0
 46 49  1  0
 46 48  1  0
 47 45  2  0
 50 51  1  0
 50 25  1  0
 52 50  1  0
 54 53  1  0
 55 57  1  0
 55  2  1  0
 56 67  2  0
 57 62  1  0
 58 66  1  0
 58 68  1  0
 59 65  1  0
 59 61  1  0
 60 66  1  0
 61 60  1  0
 62 61  2  0
 63 64  1  0
 63 57  2  0
 64 59  2  0
 65 58  1  0
 66 56  1  0
 68 70  2  0
 69 68  1  0
 71 69  1  0
 72 81  2  0
 72 77  1  0
 73 69  1  0
 73 77  1  0
 74 73  1  0
 75 76  1  0
 75 74  1  0
 76 72  1  0
 77 78  2  0
 78 79  1  0
 80 79  2  0
 81 80  1  0
 82 56  1  0
 82 83  1  0
 82 92  1  0
 83 86  1  0
 84 88  1  0
 84 83  1  0
 85 84  2  0
 88 87  1  0
 90 88  1  0
 90 91  1  0
 90 89  1  0
 92 95  1  1
 92 93  1  0
 94 92  1  0
M  ISO  4   2 101  15 100  23 100  55 101
M  END
>  <TORSDO>  (72) 
F 18

>  <SCORE>  (72) 
-14.610

>  <name>  (72) 
72

>  <ligand_id>  (72) 
72

>  <original_smiles>  (72) 
[H]C(Oc1c([H])c([H])c2c(c1[H])C([H])([H])N(C(=O)C([H])(N([H])C(=O)C([H])(N([H])C([H])([H])[H])C([H])([H])[H])C(C([H])([H])[H])(C([H])([H])[H])C([H])([H])[H])C([H])(C(=O)N([H])C1([H])c3c([H])c([H])c([H])c([H])c3C([H])([H])C([H])([H])C1([H])[H])C2([H])[H])=C1C([H])([H])N(C(=O)c2c([H])c(OC([H])([H])[H])c([H])c(N([H])C(=O)N3C([H])([H])C([H])([H])C([H])([H])C([H])(n4nc(-c5c([H])c([H])c(Oc6c([H])c([H])c(F)c([H])c6F)c([H])c5[H])c(C(=O)N([H])[H])c4N([H])[H])C3([H])[H])c2[H])C([H])([H])C1([H])[H]

>  <smiles>  (72) 
[H]C(Oc1c([H])c([H])c2c(c1[H])C([H])([H])N(C(=O)C([H])(N([H])C(=O)C([H])(N([H])C([H])([H])[H])C([H])([H])[H])C(C([H])([H])[H])(C([H])([H])[H])C([H])([H])[H])C([H])(C(=O)N([H])C1([H])c3c([H])c([H])c([H])c([H])c3C([H])([H])C([H])([H])C1([H])[H])C2([H])[H])=C1C([H])([H])N(C(=O)c2c([H])c(OC([H])([H])[H])c([H])c(N([H])C(=O)N3C([H])([H])C([H])([H])C([H])([H])C([H])(n4nc(-c5c([H])c([H])c(Oc6c([H])c([H])c(F)c([H])c6F)c([H])c5[H])c(C(=O)N([H])[H])c4N([H])[H])C3([H])[H])c2[H])C([H])([H])C1([H])[H]

$$$$
73:0:0
     RDKit          3D

 94102  0  0  1  0  0  0  0  0999 V2000
  -30.9720  -18.0320   20.9260 C   0  0  0  0  0  3  0  0  0  0  0  0
  -28.6200  -19.3900   20.2500 C   0  0  0  0  0  3  0  0  0  0  0  0
  -30.9310  -19.4670   20.9020 C   0  0  0  0  0  0  0  0  0  0  0  0
  -29.8360  -17.2380   20.6170 C   0  0  0  0  0  0  0  0  0  0  0  0
  -29.7410  -20.1950   20.5860 C   0  0  0  0  0  0  0  0  0  0  0  0
  -28.6600  -17.9520   20.2470 C   0  0  0  0  0  0  0  0  0  0  0  0
  -32.2000  -20.2280   21.2450 C   0  0  0  0  0  1  0  0  0  0  0  0
  -30.6170  -14.7260   20.5040 C   0  0  0  0  0  0  0  0  0  0  0  0
  -30.4480  -12.4790   19.4390 C   0  0  0  0  0  2  0  0  0  0  0  0
  -29.4990  -12.5970   18.2250 C   0  0  0  0  0  2  0  0  0  0  0  0
  -28.0270  -12.4200   18.6540 C   0  0  0  0  0  2  0  0  0  0  0  0
  -27.6590  -13.2730   19.8970 C   0  0  0  0  0  3  0  0  0  0  0  0
  -28.7230  -13.1250   21.0090 C   0  0  0  0  0  2  0  0  0  0  0  0
  -30.0250  -13.4890   20.4290 N   0  0  0  0  0  0  0  0  0  0  0  0
  -31.7970  -14.8920   20.1840 O   0  0  0  0  0  0  0  0  0  0  0  0
  -29.7550  -15.7720   20.7340 N   0  0  0  0  0  0  0  0  0  0  0  0
  -28.8070  -15.4470   20.8470 H   0  0  0  0  0  0  0  0  0  0  0  0
  -25.2700  -13.8540   20.6410 C   0  0  0  0  0  0  0  0  0  0  0  0
  -24.2020  -13.0740   20.9890 C   0  0  0  0  0  0  0  0  0  0  0  0
  -24.6640  -11.7240   20.9290 C   0  0  0  0  0  0  0  0  0  0  0  0
  -26.3130  -12.9800   20.3810 N   0  0  0  0  0  0  0  0  0  0  0  0
  -25.9550  -11.6920   20.6180 N   0  0  0  0  0  0  0  0  0  0  0  0
  -23.9370  -10.4610   21.0940 C   0  0  0  0  0  0  0  0  0  0  0  0
  -24.3450   -9.4920   22.0370 C   0  0  0  0  0  3  0  0  0  0  0  0
  -23.6170   -8.2920   22.1900 C   0  0  0  0  0  3  0  0  0  0  0  0
  -22.4700   -8.0520   21.3980 C   0  0  0  0  0  0  0  0  0  0  0  0
  -22.0810   -9.0100   20.4440 C   0  0  0  0  0  3  0  0  0  0  0  0
  -22.8090  -10.2020   20.2900 C   0  0  0  0  0  3  0  0  0  0  0  0
  -21.7170   -6.9040   21.4600 O   0  0  0  0  0  0  0  0  0  0  0  0
  -21.6000   -6.1820   22.6200 C   0  0  0  0  0  0  0  0  0  0  0  0
  -21.0260   -6.7340   23.7860 C   0  0  0  0  0  3  0  0  0  0  0  0
  -20.8620   -5.9350   24.9350 C   0  0  0  0  0  3  0  0  0  0  0  0
  -21.2610   -4.5850   24.9190 C   0  0  0  0  0  0  0  0  0  0  0  0
  -21.8270   -4.0320   23.7560 C   0  0  0  0  0  3  0  0  0  0  0  0
  -21.9930   -4.8290   22.6090 C   0  0  0  0  0  0  0  0  0  0  0  0
  -22.5200   -4.2860   21.4850 F   0  0  0  0  0  0  0  0  0  0  0  0
  -21.0950   -3.8150   26.0190 F   0  0  0  0  0  0  0  0  0  0  0  0
  -22.8050  -13.5490   21.2700 C   0  0  0  0  0  0  0  0  0  0  0  0
  -22.0730  -12.8320   22.1160 N   0  0  0  0  0  0  0  0  0  0  0  0
  -22.3710  -14.5880   20.7750 O   0  0  0  0  0  0  0  0  0  0  0  0
  -22.4370  -11.9910   22.5380 H   0  0  0  0  0  0  0  0  0  0  0  0
  -21.1370  -13.1310   22.3450 H   0  0  0  0  0  0  0  0  0  0  0  0
  -25.4300  -15.2280   20.5080 N   0  0  0  0  0  0  0  0  0  0  0  0
  -24.6590  -15.8670   20.6610 H   0  0  0  0  0  0  0  0  0  0  0  0
  -26.2800  -15.6990   20.2190 H   0  0  0  0  0  0  0  0  0  0  0  0
  -28.7190  -22.5970   20.6920 C   0  0  0  0  0  0  0  0  0  0  0  0
  -29.7350  -21.6770   20.5530 N   0  0  0  0  0  0  0  0  0  0  0  0
  -27.5680  -22.2320   20.9420 O   0  0  0  0  0  0  0  0  0  0  0  0
  -30.6470  -22.0980   20.4470 H   0  0  0  0  0  0  0  0  0  0  0  0
  -29.0850  -24.0430   20.5300 C   0  0  0  0  0  3  0  0  0  0  0  0
  -28.1800  -25.0750   20.6760 C   0  0  0  0  0  3  0  0  0  0  0  0
  -28.3980  -26.4690   20.5090 O   0  0  0  0  0  0  0  0  0  0  0  0
  -24.6290  -31.9910   23.3110 C   0  0  0  0  0  0  0  0  0  0  0  0
  -27.2910  -27.3370   20.4360 C   0  0  0  0  0  0  0  0  0  0  0  0
  -23.4530  -30.5490   21.6860 C   0  0  0  0  0  3  0  0  0  0  0  0
  -24.9300  -28.9570   20.3320 C   0  0  0  0  0  0  0  0  0  0  0  0
  -25.9970  -30.8550   21.5480 C   0  0  0  0  0  2  0  0  0  0  0  0
  -26.0870  -29.4560   20.9440 C   0  0  0  0  0  0  0  0  0  0  0  0
  -27.2700  -28.6560   20.9910 C   0  0  0  0  0  3  0  0  0  0  0  0
  -26.1170  -26.9010   19.7820 C   0  0  0  0  0  3  0  0  0  0  0  0
  -24.9470  -27.6830   19.7420 C   0  0  0  0  0  3  0  0  0  0  0  0
  -23.6940  -29.8350   20.3300 C   0  0  0  0  0  2  0  0  0  0  0  0
  -24.7110  -31.1510   22.2380 N   0  0  0  0  0  0  0  0  0  0  0  0
  -23.5350  -32.2860   23.8160 O   0  0  0  0  0  0  0  0  0  0  0  0
  -22.7680  -29.5620   22.6620 C   0  0  0  0  0  0  0  0  0  0  0  0
  -21.4490  -29.3690   22.5000 N   0  0  0  0  0  0  0  0  0  0  0  0
  -23.4260  -28.9720   23.5230 O   0  0  0  0  0  0  0  0  0  0  0  0
  -20.9780  -29.8970   21.7780 H   0  0  0  0  0  0  0  0  0  0  0  0
  -18.0570  -28.2040   22.9760 C   0  0  0  0  0  0  0  0  0  0  0  0
  -20.6130  -28.4530   23.2780 C   0  0  0  0  0  3  0  0  0  0  0  0
  -20.7140  -27.0090   22.7350 C   0  0  0  0  0  2  0  0  0  0  0  0
  -19.6240  -26.6710   21.7110 C   0  0  0  0  0  2  0  0  0  0  0  0
  -18.2340  -26.8390   22.3320 C   0  0  0  0  0  2  0  0  0  0  0  0
  -19.1740  -28.9690   23.4060 C   0  0  0  0  0  0  0  0  0  0  0  0
  -18.9540  -30.2450   23.9670 C   0  0  0  0  0  3  0  0  0  0  0  0
  -17.6500  -30.7570   24.1040 C   0  0  0  0  0  3  0  0  0  0  0  0
  -16.5470  -29.9900   23.6900 C   0  0  0  0  0  3  0  0  0  0  0  0
  -16.7510  -28.7150   23.1320 C   0  0  0  0  0  3  0  0  0  0  0  0
  -25.9010  -32.6380   23.9400 C   0  0  0  0  0  3  0  0  0  0  0  0
  -26.4010  -31.8890   25.2360 C   0  0  1  0  0  0  0  0  0  0  0  0
  -25.2840  -31.6250   26.2720 C   0  0  0  0  0  1  0  0  0  0  0  0
  -27.0360  -30.5270   24.8720 C   0  0  0  0  0  1  0  0  0  0  0  0
  -27.5070  -32.7200   25.9270 C   0  0  0  0  0  1  0  0  0  0  0  0
  -25.5820  -34.0400   24.2430 N   0  0  0  0  0  0  0  0  0  0  0  0
  -25.9110  -35.0820   23.4680 C   0  0  0  0  0  0  0  0  0  0  0  0
  -26.5840  -34.9640   22.4400 O   0  0  0  0  0  0  0  0  0  0  0  0
  -24.9830  -34.2050   25.0390 H   0  0  0  0  0  0  0  0  0  0  0  0
  -24.1740  -36.8600   23.0790 C   0  0  0  0  0  1  0  0  0  0  0  0
  -25.4160  -36.4760   23.9000 C   0  0  0  0  0  3  0  0  0  0  0  0
  -27.5370  -37.3950   24.7280 C   0  0  0  0  0  1  0  0  0  0  0  0
  -26.4430  -37.5320   23.7710 N   0  0  0  0  0  0  0  0  0  0  0  0
  -26.0300  -38.4530   23.8910 H   0  0  0  0  0  0  0  0  0  0  0  0
  -26.5330  -17.8300   19.1490 C   0  0  0  0  0  1  0  0  0  0  0  0
  -27.5740  -17.1840   19.8790 O   0  0  0  0  0  0  0  0  0  0  0  0
  2  5  1  0
  3  1  1  0
  3  7  1  0
  4 16  1  0
  4  1  2  0
  5  3  2  0
  6  2  2  0
  6  4  1  0
  8 16  1  0
  9 14  1  0
 10 11  1  0
 10  9  1  0
 12 11  1  0
 12 21  1  0
 12 13  1  0
 14  8  1  0
 14 13  1  0
 15  8  2  0
 16 17  1  0
 18 19  2  0
 19 38  1  0
 20 19  1  0
 20 23  1  0
 21 22  1  0
 21 18  1  0
 22 20  2  0
 23 24  1  0
 24 25  2  0
 26 29  1  0
 26 25  1  0
 27 26  2  0
 28 27  1  0
 28 23  2  0
 29 30  1  0
 30 31  1  0
 31 32  2  0
 33 32  1  0
 33 37  1  0
 34 33  2  0
 35 30  2  0
 35 34  1  0
 36 35  1  0
 38 39  1  0
 39 42  1  0
 39 41  1  0
 40 38  2  0
 43 18  1  0
 43 44  1  0
 45 43  1  0
 46 48  2  0
 47  5  1  0
 47 46  1  0
 49 47  1  0
 50 51  2  0
 50 46  1  0
 52 51  1  0
 53 64  2  0
 54 52  1  0
 54 59  1  0
 55 63  1  0
 55 65  1  0
 56 58  1  0
 57 63  1  0
 58 59  2  0
 58 57  1  0
 60 54  2  0
 61 60  1  0
 61 56  2  0
 62 56  1  0
 62 55  1  0
 63 53  1  0
 65 67  2  0
 66 65  1  0
 68 66  1  0
 69 78  2  0
 69 74  1  0
 70 66  1  0
 70 74  1  0
 71 70  1  0
 72 73  1  0
 72 71  1  0
 73 69  1  0
 74 75  2  0
 75 76  1  0
 77 76  2  0
 78 77  1  0
 79 53  1  0
 79 84  1  0
 79 80  1  0
 80 83  1  1
 80 81  1  0
 82 80  1  0
 84 87  1  0
 85 89  1  0
 85 84  1  0
 86 85  2  0
 89 88  1  0
 91 92  1  0
 91 89  1  0
 91 90  1  0
 93 94  1  0
 94  6  1  0
M  ISO  4   8 100  16 100  51 101  52 101
M  END
>  <TORSDO>  (73) 
F 19

>  <SCORE>  (73) 
-14.453

>  <name>  (73) 
73

>  <ligand_id>  (73) 
73

>  <original_smiles>  (73) 
[H]C(Oc1c([H])c([H])c2c(c1[H])C([H])([H])N(C(=O)C([H])(N([H])C(=O)C([H])(N([H])C([H])([H])[H])C([H])([H])[H])C(C([H])([H])[H])(C([H])([H])[H])C([H])([H])[H])C([H])(C(=O)N([H])C1([H])c3c([H])c([H])c([H])c([H])c3C([H])([H])C([H])([H])C1([H])[H])C2([H])[H])=C([H])C(=O)N([H])c1c([H])c(OC([H])([H])[H])c(N([H])C(=O)N2C([H])([H])C([H])([H])C([H])([H])C([H])(n3nc(-c4c([H])c([H])c(Oc5c([H])c([H])c(F)c([H])c5F)c([H])c4[H])c(C(=O)N([H])[H])c3N([H])[H])C2([H])[H])c([H])c1C([H])([H])[H]

>  <smiles>  (73) 
[H]C(Oc1c([H])c([H])c2c(c1[H])C([H])([H])N(C(=O)C([H])(N([H])C(=O)C([H])(N([H])C([H])([H])[H])C([H])([H])[H])C(C([H])([H])[H])(C([H])([H])[H])C([H])([H])[H])C([H])(C(=O)N([H])C1([H])c3c([H])c([H])c([H])c([H])c3C([H])([H])C([H])([H])C1([H])[H])C2([H])[H])=C([H])C(=O)N([H])c1c([H])c(OC([H])([H])[H])c(N([H])C(=O)N2C([H])([H])C([H])([H])C([H])([H])C([H])(n3nc(-c4c([H])c([H])c(Oc5c([H])c([H])c(F)c([H])c5F)c([H])c4[H])c(C(=O)N([H])[H])c3N([H])[H])C2([H])[H])c([H])c1C([H])([H])[H]

$$$$
74:0:0
     RDKit          3D

 95103  0  0  1  0  0  0  0  0999 V2000
  -30.5300  -17.7450   18.7880 C   0  0  0  0  0  3  0  0  0  0  0  0
  -30.1500  -20.1780   18.6690 C   0  0  0  0  0  3  0  0  0  0  0  0
  -30.4780  -17.7140   20.2020 C   0  0  0  0  0  0  0  0  0  0  0  0
  -30.2510  -19.0400   20.8270 C   0  0  0  0  0  0  0  0  0  0  0  0
  -30.3780  -18.9350   18.0420 C   0  0  0  0  0  0  0  0  0  0  0  0
  -30.0700  -20.2840   20.0720 C   0  0  0  0  0  0  0  0  0  0  0  0
  -30.5630  -16.2910   20.9080 C   0  0  0  0  0  0  0  0  0  0  0  0
  -30.0210  -16.1690   22.0420 N   0  0  0  0  0  0  0  0  0  0  0  0
  -29.6020  -17.0410   22.3350 H   0  0  0  0  0  0  0  0  0  0  0  0
  -31.3090  -14.9940   20.2670 C   0  0  0  0  0  0  0  0  0  0  0  0
  -31.0470  -12.7740   19.1230 C   0  0  0  0  0  2  0  0  0  0  0  0
  -30.0680  -12.9340   17.9350 C   0  0  0  0  0  2  0  0  0  0  0  0
  -28.6020  -12.7780   18.3910 C   0  0  0  0  0  2  0  0  0  0  0  0
  -28.2950  -13.5860   19.6790 C   0  0  0  0  0  3  0  0  0  0  0  0
  -29.3800  -13.3330   20.7440 C   0  0  0  0  0  2  0  0  0  0  0  0
  -30.6690  -13.7600   20.1710 N   0  0  0  0  0  0  0  0  0  0  0  0
  -32.4460  -15.1080   19.7930 O   0  0  0  0  0  0  0  0  0  0  0  0
  -25.9570  -14.2180   20.5270 C   0  0  0  0  0  0  0  0  0  0  0  0
  -24.8710  -13.4610   20.8760 C   0  0  0  0  0  0  0  0  0  0  0  0
  -25.2750  -12.0990   20.7260 C   0  0  0  0  0  0  0  0  0  0  0  0
  -26.9540  -13.3170   20.1890 N   0  0  0  0  0  0  0  0  0  0  0  0
  -26.5520  -12.0330   20.3660 N   0  0  0  0  0  0  0  0  0  0  0  0
  -24.5050  -10.8560   20.8490 C   0  0  0  0  0  0  0  0  0  0  0  0
  -24.8880   -9.8330   21.7450 C   0  0  0  0  0  3  0  0  0  0  0  0
  -24.1180   -8.6540   21.8570 C   0  0  0  0  0  3  0  0  0  0  0  0
  -22.9510   -8.4910   21.0740 C   0  0  0  0  0  0  0  0  0  0  0  0
  -22.5870   -9.5020   20.1680 C   0  0  0  0  0  3  0  0  0  0  0  0
  -23.3570  -10.6720   20.0530 C   0  0  0  0  0  3  0  0  0  0  0  0
  -22.1570   -7.3710   21.0980 O   0  0  0  0  0  0  0  0  0  0  0  0
  -21.9650   -6.6490   22.2490 C   0  0  0  0  0  0  0  0  0  0  0  0
  -21.4100   -7.2310   23.4100 C   0  0  0  0  0  3  0  0  0  0  0  0
  -21.1650   -6.4370   24.5480 C   0  0  0  0  0  3  0  0  0  0  0  0
  -21.4640   -5.0620   24.5250 C   0  0  0  0  0  0  0  0  0  0  0  0
  -22.0120   -4.4790   23.3680 C   0  0  0  0  0  3  0  0  0  0  0  0
  -22.2580   -5.2700   22.2330 C   0  0  0  0  0  0  0  0  0  0  0  0
  -22.7660   -4.7000   21.1130 F   0  0  0  0  0  0  0  0  0  0  0  0
  -21.2220   -4.2960   25.6140 F   0  0  0  0  0  0  0  0  0  0  0  0
  -23.5060  -13.9700   21.2360 C   0  0  0  0  0  0  0  0  0  0  0  0
  -22.7950  -13.2580   22.1040 N   0  0  0  0  0  0  0  0  0  0  0  0
  -23.0810  -15.0330   20.7850 O   0  0  0  0  0  0  0  0  0  0  0  0
  -23.1520  -12.3970   22.4900 H   0  0  0  0  0  0  0  0  0  0  0  0
  -21.8790  -13.5800   22.3850 H   0  0  0  0  0  0  0  0  0  0  0  0
  -26.1740  -15.5900   20.4510 N   0  0  0  0  0  0  0  0  0  0  0  0
  -25.4530  -16.2690   20.6700 H   0  0  0  0  0  0  0  0  0  0  0  0
  -27.0600  -16.0140   20.2090 H   0  0  0  0  0  0  0  0  0  0  0  0
  -30.4470  -18.8750   16.6500 N   0  0  0  0  0  0  0  0  0  0  0  0
  -30.3540  -17.9770   16.1850 H   0  0  0  0  0  0  0  0  0  0  0  0
  -30.0900  -19.6490   16.0990 H   0  0  0  0  0  0  0  0  0  0  0  0
  -31.6010  -19.2460   22.9810 C   0  0  0  0  0  1  0  0  0  0  0  0
  -30.2040  -19.2020   22.3490 C   0  0  0  0  0  2  0  0  0  0  0  0
  -29.8230  -21.5510   20.6950 O   0  0  0  0  0  0  0  0  0  0  0  0
  -29.5960  -22.8640   19.9980 C   0  0  0  0  0  2  0  0  0  0  0  0
  -28.8430  -23.9320   20.8950 C   0  0  0  0  0  3  0  0  0  0  0  0
  -28.5110  -25.2880   20.9450 C   0  0  0  0  0  3  0  0  0  0  0  0
  -28.7090  -26.4610   20.1660 O   0  0  0  0  0  0  0  0  0  0  0  0
  -24.6650  -31.6890   23.2370 C   0  0  0  0  0  0  0  0  0  0  0  0
  -27.6080  -27.3490   20.1210 C   0  0  0  0  0  0  0  0  0  0  0  0
  -23.5850  -30.2690   21.5310 C   0  0  0  0  0  3  0  0  0  0  0  0
  -25.1600  -28.8480   20.0940 C   0  0  0  0  0  0  0  0  0  0  0  0
  -26.1080  -30.7340   21.4190 C   0  0  0  0  0  2  0  0  0  0  0  0
  -26.2880  -29.3790   20.7340 C   0  0  0  0  0  0  0  0  0  0  0  0
  -27.5180  -28.6410   20.7410 C   0  0  0  0  0  3  0  0  0  0  0  0
  -26.4570  -26.8850   19.4530 C   0  0  0  0  0  3  0  0  0  0  0  0
  -25.2490  -27.6080   19.4410 C   0  0  0  0  0  3  0  0  0  0  0  0
  -23.8710  -29.6490   20.1380 C   0  0  0  0  0  2  0  0  0  0  0  0
  -24.8030  -30.9150   22.1200 N   0  0  0  0  0  0  0  0  0  0  0  0
  -23.5550  -31.8870   23.7520 O   0  0  0  0  0  0  0  0  0  0  0  0
  -22.9600  -29.1890   22.4480 C   0  0  0  0  0  0  0  0  0  0  0  0
  -21.6480  -28.9430   22.2900 N   0  0  0  0  0  0  0  0  0  0  0  0
  -23.6560  -28.5780   23.2630 O   0  0  0  0  0  0  0  0  0  0  0  0
  -21.1420  -29.4910   21.6090 H   0  0  0  0  0  0  0  0  0  0  0  0
  -18.3400  -27.5240   22.6710 C   0  0  0  0  0  0  0  0  0  0  0  0
  -20.8690  -27.9380   23.0170 C   0  0  0  0  0  3  0  0  0  0  0  0
  -21.0760  -26.5290   22.4140 C   0  0  0  0  0  2  0  0  0  0  0  0
  -20.0250  -26.1620   21.3620 C   0  0  0  0  0  2  0  0  0  0  0  0
  -18.6200  -26.2050   21.9710 C   0  0  0  0  0  2  0  0  0  0  0  0
  -19.3960  -28.3440   23.1490 C   0  0  0  0  0  0  0  0  0  0  0  0
  -19.0810  -29.5760   23.7630 C   0  0  0  0  0  3  0  0  0  0  0  0
  -17.7430  -29.9880   23.9060 C   0  0  0  0  0  3  0  0  0  0  0  0
  -16.7010  -29.1650   23.4430 C   0  0  0  0  0  3  0  0  0  0  0  0
  -17.0010  -27.9350   22.8320 C   0  0  0  0  0  3  0  0  0  0  0  0
  -25.8930  -32.3800   23.9060 C   0  0  0  0  0  3  0  0  0  0  0  0
  -25.5170  -33.7700   24.1980 N   0  0  0  0  0  0  0  0  0  0  0  0
  -25.8470  -34.8240   23.4380 C   0  0  0  0  0  0  0  0  0  0  0  0
  -26.5670  -34.7290   22.4410 O   0  0  0  0  0  0  0  0  0  0  0  0
  -24.8820  -33.9150   24.9690 H   0  0  0  0  0  0  0  0  0  0  0  0
  -24.0740  -36.5480   22.9790 C   0  0  0  0  0  1  0  0  0  0  0  0
  -25.2920  -36.2000   23.8500 C   0  0  0  0  0  3  0  0  0  0  0  0
  -27.3500  -37.1800   24.7650 C   0  0  0  0  0  1  0  0  0  0  0  0
  -26.2900  -37.2880   23.7650 N   0  0  0  0  0  0  0  0  0  0  0  0
  -25.8450  -38.1950   23.8730 H   0  0  0  0  0  0  0  0  0  0  0  0
  -26.3740  -31.6490   25.2200 C   0  0  1  0  0  0  0  0  0  0  0  0
  -25.2430  -31.4060   26.2470 C   0  0  0  0  0  1  0  0  0  0  0  0
  -27.0090  -30.2800   24.8870 C   0  0  0  0  0  1  0  0  0  0  0  0
  -27.4740  -32.4880   25.9120 C   0  0  0  0  0  1  0  0  0  0  0  0
  1  3  1  0
  2  6  2  0
  3  4  2  0
  3  7  1  0
  4 50  1  0
  5  2  1  0
  5  1  2  0
  6 51  1  0
  6  4  1  0
  7  8  2  0
  8  9  1  0
 10  7  1  0
 11 16  1  0
 12 13  1  0
 12 11  1  0
 14 13  1  0
 14 21  1  0
 14 15  1  0
 16 10  1  0
 16 15  1  0
 17 10  2  0
 18 19  2  0
 19 38  1  0
 20 23  1  0
 20 19  1  0
 21 22  1  0
 21 18  1  0
 22 20  2  0
 23 24  1  0
 24 25  2  0
 26 29  1  0
 26 25  1  0
 27 26  2  0
 28 27  1  0
 28 23  2  0
 29 30  1  0
 30 31  1  0
 31 32  2  0
 33 32  1  0
 33 37  1  0
 34 33  2  0
 35 30  2  0
 35 34  1  0
 36 35  1  0
 38 39  1  0
 39 42  1  0
 39 41  1  0
 40 38  2  0
 43 18  1  0
 43 44  1  0
 45 43  1  0
 46  5  1  0
 47 46  1  0
 48 46  1  0
 50 49  1  0
 52 51  1  0
 52 53  1  0
 53 54  2  0
 55 54  1  0
 56 67  2  0
 57 55  1  0
 57 62  1  0
 58 66  1  0
 58 68  1  0
 59 65  1  0
 59 61  1  0
 60 66  1  0
 61 62  2  0
 61 60  1  0
 63 57  2  0
 64 63  1  0
 64 59  2  0
 65 58  1  0
 66 56  1  0
 68 70  2  0
 69 68  1  0
 71 69  1  0
 72 81  2  0
 72 77  1  0
 73 69  1  0
 73 77  1  0
 74 73  1  0
 75 76  1  0
 75 74  1  0
 76 72  1  0
 77 78  2  0
 78 79  1  0
 80 79  2  0
 81 80  1  0
 82 56  1  0
 82 83  1  0
 82 92  1  0
 83 86  1  0
 84 88  1  0
 84 83  1  0
 85 84  2  0
 88 87  1  0
 90 88  1  0
 90 91  1  0
 90 89  1  0
 92 95  1  1
 92 93  1  0
 94 92  1  0
M  ISO  4   7 100  10 100  54 101  55 101
M  END
>  <TORSDO>  (74) 
F 22

>  <SCORE>  (74) 
-11.855

>  <name>  (74) 
74

>  <ligand_id>  (74) 
74

>  <original_smiles>  (74) 
[H]N=C(C(=O)N1C([H])([H])C([H])([H])C([H])([H])C([H])(n2nc(-c3c([H])c([H])c(Oc4c([H])c([H])c(F)c([H])c4F)c([H])c3[H])c(C(=O)N([H])[H])c2N([H])[H])C1([H])[H])c1c([H])c(N([H])[H])c([H])c(OC([H])([H])C([H])=C([H])Oc2c([H])c([H])c3c(c2[H])C([H])([H])N(C(=O)C([H])(N([H])C(=O)C([H])(N([H])C([H])([H])[H])C([H])([H])[H])C(C([H])([H])[H])(C([H])([H])[H])C([H])([H])[H])C([H])(C(=O)N([H])C2([H])c4c([H])c([H])c([H])c([H])c4C([H])([H])C([H])([H])C2([H])[H])C3([H])[H])c1C([H])([H])C([H])([H])[H]

>  <smiles>  (74) 
[H]N=C(C(=O)N1C([H])([H])C([H])([H])C([H])([H])C([H])(n2nc(-c3c([H])c([H])c(Oc4c([H])c([H])c(F)c([H])c4F)c([H])c3[H])c(C(=O)N([H])[H])c2N([H])[H])C1([H])[H])c1c([H])c(N([H])[H])c([H])c(OC([H])([H])C([H])=C([H])Oc2c([H])c([H])c3c(c2[H])C([H])([H])N(C(=O)C([H])(N([H])C(=O)C([H])(N([H])C([H])([H])[H])C([H])([H])[H])C(C([H])([H])[H])(C([H])([H])[H])C([H])([H])[H])C([H])(C(=O)N([H])C2([H])c4c([H])c([H])c([H])c([H])c4C([H])([H])C([H])([H])C2([H])[H])C3([H])[H])c1C([H])([H])C([H])([H])[H]

$$$$
75:0:0
     RDKit          3D

 91 99  0  0  1  0  0  0  0  0999 V2000
  -29.7320  -20.7000   19.4840 C   0  0  0  0  0  3  0  0  0  0  0  0
  -30.0890  -19.5430   18.7500 C   0  0  0  0  0  3  0  0  0  0  0  0
  -29.7460  -19.3380   21.4780 C   0  0  0  0  0  3  0  0  0  0  0  0
  -30.0980  -18.1460   20.7690 C   0  0  0  0  0  0  0  0  0  0  0  0
  -29.5450  -20.6150   20.8760 C   0  0  0  0  0  0  0  0  0  0  0  0
  -30.2670  -18.2660   19.3660 C   0  0  0  0  0  0  0  0  0  0  0  0
  -30.2140  -16.8770   21.5920 C   0  0  0  0  0  3  0  0  0  0  0  0
  -30.5500  -15.5470   21.4950 C   0  0  0  0  0  3  0  0  0  0  0  0
  -31.0770  -14.6870   20.4160 C   0  0  0  0  0  0  0  0  0  0  0  0
  -30.7430  -12.5750   19.1240 C   0  0  0  0  0  2  0  0  0  0  0  0
  -29.7870  -12.8100   17.9360 C   0  0  0  0  0  2  0  0  0  0  0  0
  -28.3150  -12.6760   18.3730 C   0  0  0  0  0  2  0  0  0  0  0  0
  -28.0060  -13.4770   19.6640 C   0  0  0  0  0  3  0  0  0  0  0  0
  -29.0590  -13.1810   20.7510 C   0  0  0  0  0  2  0  0  0  0  0  0
  -30.3860  -13.5210   20.2010 N   0  0  0  0  0  0  0  0  0  0  0  0
  -32.1320  -14.9210   19.8170 O   0  0  0  0  0  0  0  0  0  0  0  0
  -25.6220  -14.1290   20.3790 C   0  0  0  0  0  0  0  0  0  0  0  0
  -24.5390  -13.3790   20.7520 C   0  0  0  0  0  0  0  0  0  0  0  0
  -24.9740  -12.0190   20.7220 C   0  0  0  0  0  0  0  0  0  0  0  0
  -26.6490  -13.2270   20.1440 N   0  0  0  0  0  0  0  0  0  0  0  0
  -26.2620  -11.9520   20.4080 N   0  0  0  0  0  0  0  0  0  0  0  0
  -24.2220  -10.7710   20.9160 C   0  0  0  0  0  0  0  0  0  0  0  0
  -24.6080   -9.8200   21.8860 C   0  0  0  0  0  3  0  0  0  0  0  0
  -23.8600   -8.6370   22.0660 C   0  0  0  0  0  3  0  0  0  0  0  0
  -22.7100   -8.3970   21.2760 C   0  0  0  0  0  0  0  0  0  0  0  0
  -22.3430   -9.3360   20.2960 C   0  0  0  0  0  3  0  0  0  0  0  0
  -23.0930  -10.5120   20.1140 C   0  0  0  0  0  3  0  0  0  0  0  0
  -21.9370   -7.2650   21.3630 O   0  0  0  0  0  0  0  0  0  0  0  0
  -21.7880   -6.5850   22.5460 C   0  0  0  0  0  0  0  0  0  0  0  0
  -21.2650   -7.2030   23.7020 C   0  0  0  0  0  3  0  0  0  0  0  0
  -21.0640   -6.4500   24.8750 C   0  0  0  0  0  3  0  0  0  0  0  0
  -21.3750   -5.0760   24.8920 C   0  0  0  0  0  0  0  0  0  0  0  0
  -21.8890   -4.4560   23.7400 C   0  0  0  0  0  3  0  0  0  0  0  0
  -22.0920   -5.2080   22.5700 C   0  0  0  0  0  0  0  0  0  0  0  0
  -22.5690   -4.6010   21.4560 F   0  0  0  0  0  0  0  0  0  0  0  0
  -21.1750   -4.3490   26.0160 F   0  0  0  0  0  0  0  0  0  0  0  0
  -23.1530  -13.8850   21.0270 C   0  0  0  0  0  0  0  0  0  0  0  0
  -22.4160  -13.2100   21.9040 N   0  0  0  0  0  0  0  0  0  0  0  0
  -22.7290  -14.9120   20.4990 O   0  0  0  0  0  0  0  0  0  0  0  0
  -22.7670  -12.3780   22.3540 H   0  0  0  0  0  0  0  0  0  0  0  0
  -21.4850  -13.5310   22.1280 H   0  0  0  0  0  0  0  0  0  0  0  0
  -25.8200  -15.4960   20.1990 N   0  0  0  0  0  0  0  0  0  0  0  0
  -25.0780  -16.1770   20.3180 H   0  0  0  0  0  0  0  0  0  0  0  0
  -26.6920  -15.9090   19.8950 H   0  0  0  0  0  0  0  0  0  0  0  0
  -28.9150  -22.9450   21.6050 C   0  0  0  0  0  3  0  0  0  0  0  0
  -29.1810  -21.6820   21.7430 N   0  0  0  0  0  0  0  0  0  0  0  0
  -28.8500  -23.9910   20.4540 C   0  0  0  0  0  2  0  0  0  0  0  0
  -28.2430  -25.3680   20.9660 C   0  0  0  0  0  2  0  0  0  0  0  0
  -28.3300  -26.5830   20.1540 O   0  0  0  0  0  0  0  0  0  0  0  0
  -24.5510  -31.9020   23.1960 C   0  0  0  0  0  0  0  0  0  0  0  0
  -27.1970  -27.3900   20.1590 C   0  0  0  0  0  0  0  0  0  0  0  0
  -23.3480  -30.4780   21.5740 C   0  0  0  0  0  3  0  0  0  0  0  0
  -24.8050  -28.9290   20.1560 C   0  0  0  0  0  0  0  0  0  0  0  0
  -25.8750  -30.8350   21.3640 C   0  0  0  0  0  2  0  0  0  0  0  0
  -25.9680  -29.4530   20.7360 C   0  0  0  0  0  0  0  0  0  0  0  0
  -27.1700  -28.6930   20.7300 C   0  0  0  0  0  3  0  0  0  0  0  0
  -26.0170  -26.8990   19.5650 C   0  0  0  0  0  3  0  0  0  0  0  0
  -24.8270  -27.6540   19.5650 C   0  0  0  0  0  3  0  0  0  0  0  0
  -23.5580  -29.7860   20.2010 C   0  0  0  0  0  2  0  0  0  0  0  0
  -24.6100  -31.0880   22.1030 N   0  0  0  0  0  0  0  0  0  0  0  0
  -23.4700  -32.1730   23.7380 O   0  0  0  0  0  0  0  0  0  0  0  0
  -22.7020  -29.4640   22.5480 C   0  0  0  0  0  0  0  0  0  0  0  0
  -21.3780  -29.2710   22.4260 N   0  0  0  0  0  0  0  0  0  0  0  0
  -23.3900  -28.8540   23.3700 O   0  0  0  0  0  0  0  0  0  0  0  0
  -20.8820  -29.8150   21.7340 H   0  0  0  0  0  0  0  0  0  0  0  0
  -18.0160  -28.0500   22.9440 C   0  0  0  0  0  0  0  0  0  0  0  0
  -20.5710  -28.3350   23.2090 C   0  0  0  0  0  3  0  0  0  0  0  0
  -20.6870  -26.8990   22.6490 C   0  0  0  0  0  2  0  0  0  0  0  0
  -19.5870  -26.5550   21.6400 C   0  0  0  0  0  2  0  0  0  0  0  0
  -18.2030  -26.6940   22.2840 C   0  0  0  0  0  2  0  0  0  0  0  0
  -19.1270  -28.8270   23.3640 C   0  0  0  0  0  0  0  0  0  0  0  0
  -18.8970  -30.0950   23.9410 C   0  0  0  0  0  3  0  0  0  0  0  0
  -17.5870  -30.5850   24.1040 C   0  0  0  0  0  3  0  0  0  0  0  0
  -16.4900  -29.8050   23.6990 C   0  0  0  0  0  3  0  0  0  0  0  0
  -16.7040  -28.5400   23.1240 C   0  0  0  0  0  3  0  0  0  0  0  0
  -25.8340  -32.5470   23.8060 C   0  0  0  0  0  3  0  0  0  0  0  0
  -25.5110  -33.9380   24.1520 N   0  0  0  0  0  0  0  0  0  0  0  0
  -25.8230  -35.0030   23.4000 C   0  0  0  0  0  0  0  0  0  0  0  0
  -26.4850  -34.9170   22.3620 O   0  0  0  0  0  0  0  0  0  0  0  0
  -24.9210  -34.0780   24.9600 H   0  0  0  0  0  0  0  0  0  0  0  0
  -24.0740  -36.7810   23.0710 C   0  0  0  0  0  1  0  0  0  0  0  0
  -25.3220  -36.3810   23.8750 C   0  0  0  0  0  3  0  0  0  0  0  0
  -27.4480  -37.2810   24.7110 C   0  0  0  0  0  1  0  0  0  0  0  0
  -26.3440  -37.4450   23.7690 N   0  0  0  0  0  0  0  0  0  0  0  0
  -25.9280  -38.3600   23.9240 H   0  0  0  0  0  0  0  0  0  0  0  0
  -26.3810  -31.7730   25.0670 C   0  0  1  0  0  0  0  0  0  0  0  0
  -25.3070  -31.5070   26.1470 C   0  0  0  0  0  1  0  0  0  0  0  0
  -26.9830  -30.4110   24.6530 C   0  0  0  0  0  1  0  0  0  0  0  0
  -27.5270  -32.5810   25.7230 C   0  0  0  0  0  1  0  0  0  0  0  0
  -30.8650  -17.2420   17.2730 C   0  0  0  0  0  1  0  0  0  0  0  0
  -30.5620  -17.1240   18.6570 O   0  0  0  0  0  0  0  0  0  0  0  0
  1  5  1  0
  2  6  1  0
  2  1  2  0
  4  3  1  0
  4  7  1  0
  5  3  2  0
  5 46  1  0
  6  4  2  0
  8  7  2  0
  9  8  1  0
 10 15  1  0
 11 12  1  0
 11 10  1  0
 13 12  1  0
 13 20  1  0
 13 14  1  0
 15  9  1  0
 15 14  1  0
 16  9  2  0
 17 18  2  0
 18 37  1  0
 19 18  1  0
 19 22  1  0
 20 17  1  0
 20 21  1  0
 21 19  2  0
 22 23  1  0
 23 24  2  0
 25 28  1  0
 25 24  1  0
 26 25  2  0
 27 26  1  0
 27 22  2  0
 28 29  1  0
 29 34  2  0
 29 30  1  0
 30 31  2  0
 31 32  1  0
 32 36  1  0
 33 32  2  0
 34 33  1  0
 35 34  1  0
 37 38  1  0
 38 41  1  0
 38 40  1  0
 39 37  2  0
 42 43  1  0
 42 17  1  0
 44 42  1  0
 45 46  2  0
 47 48  1  0
 47 45  1  0
 49 51  1  0
 49 48  1  0
 50 61  2  0
 51 56  1  0
 52 60  1  0
 52 62  1  0
 53 59  1  0
 53 55  1  0
 54 60  1  0
 55 54  1  0
 56 55  2  0
 57 51  2  0
 58 57  1  0
 58 53  2  0
 59 52  1  0
 60 50  1  0
 62 64  2  0
 63 62  1  0
 65 63  1  0
 66 75  2  0
 66 71  1  0
 67 63  1  0
 67 71  1  0
 68 67  1  0
 69 70  1  0
 69 68  1  0
 70 66  1  0
 71 72  2  0
 72 73  1  0
 74 73  2  0
 75 74  1  0
 76 50  1  0
 76 77  1  0
 76 86  1  0
 77 80  1  0
 78 82  1  0
 78 77  1  0
 79 78  2  0
 82 81  1  0
 84 82  1  0
 84 85  1  0
 84 83  1  0
 86 89  1  1
 86 87  1  0
 88 86  1  0
 90 91  1  0
 91  6  1  0
M  ISO  4   8 100   9 100  48 101  49 101
M  END
>  <TORSDO>  (75) 
F 21

>  <SCORE>  (75) 
-13.095

>  <name>  (75) 
75

>  <ligand_id>  (75) 
75

>  <original_smiles>  (75) 
[H]C(=Nc1c([H])c([H])c(OC([H])([H])[H])c(C([H])=C([H])C(=O)N2C([H])([H])C([H])([H])C([H])([H])C([H])(n3nc(-c4c([H])c([H])c(Oc5c([H])c([H])c(F)c([H])c5F)c([H])c4[H])c(C(=O)N([H])[H])c3N([H])[H])C2([H])[H])c1[H])C([H])([H])C([H])([H])Oc1c([H])c([H])c2c(c1[H])C([H])([H])N(C(=O)C([H])(N([H])C(=O)C([H])(N([H])C([H])([H])[H])C([H])([H])[H])C(C([H])([H])[H])(C([H])([H])[H])C([H])([H])[H])C([H])(C(=O)N([H])C1([H])c3c([H])c([H])c([H])c([H])c3C([H])([H])C([H])([H])C1([H])[H])C2([H])[H]

>  <smiles>  (75) 
[H]C(=Nc1c([H])c([H])c(OC([H])([H])[H])c(C([H])=C([H])C(=O)N2C([H])([H])C([H])([H])C([H])([H])C([H])(n3nc(-c4c([H])c([H])c(Oc5c([H])c([H])c(F)c([H])c5F)c([H])c4[H])c(C(=O)N([H])[H])c3N([H])[H])C2([H])[H])c1[H])C([H])([H])C([H])([H])Oc1c([H])c([H])c2c(c1[H])C([H])([H])N(C(=O)C([H])(N([H])C(=O)C([H])(N([H])C([H])([H])[H])C([H])([H])[H])C(C([H])([H])[H])(C([H])([H])[H])C([H])([H])[H])C([H])(C(=O)N([H])C1([H])c3c([H])c([H])c([H])c([H])c3C([H])([H])C([H])([H])C1([H])[H])C2([H])[H]

$$$$
76:0:0
     RDKit          3D

 99108  0  0  1  0  0  0  0  0999 V2000
  -29.2260  -24.2900   19.7010 C   0  0  0  0  0  3  0  0  0  0  0  0
  -29.2790  -23.1690   20.4910 C   0  0  0  0  0  3  0  0  0  0  0  0
  -30.0910  -24.3900   18.5080 C   0  0  0  0  0  0  0  0  0  0  0  0
  -29.6180  -20.7250   20.4530 C   0  0  0  0  0  0  0  0  0  0  0  0
  -30.8510  -23.1390   18.0850 C   0  0  0  0  0  2  0  0  0  0  0  0
  -31.2240  -22.2460   19.2820 C   0  0  0  0  0  2  0  0  0  0  0  0
  -28.5250  -23.1360   21.8250 C   0  0  0  0  0  1  0  0  0  0  0  0
  -30.0820  -22.0070   20.1920 N   0  0  0  0  0  0  0  0  0  0  0  0
  -30.2240  -25.4240   17.8450 O   0  0  0  0  0  0  0  0  0  0  0  0
  -28.4250  -20.5110   20.6960 O   0  0  0  0  0  0  0  0  0  0  0  0
  -31.9250  -19.6090   20.6280 C   0  0  0  0  0  3  0  0  0  0  0  0
  -32.1690  -17.1870   20.7080 C   0  0  0  0  0  3  0  0  0  0  0  0
  -29.9660  -18.1700   20.4350 C   0  0  0  0  0  3  0  0  0  0  0  0
  -32.7510  -18.4670   20.6930 C   0  0  0  0  0  0  0  0  0  0  0  0
  -30.5250  -19.4920   20.4680 C   0  0  0  0  0  0  0  0  0  0  0  0
  -30.7750  -17.0010   20.5530 C   0  0  0  0  0  0  0  0  0  0  0  0
  -30.8180  -14.5410   20.0770 C   0  0  0  0  0  0  0  0  0  0  0  0
  -30.4250  -12.3140   19.0800 C   0  0  0  0  0  2  0  0  0  0  0  0
  -29.4480  -12.4430   17.8950 C   0  0  0  0  0  2  0  0  0  0  0  0
  -27.9920  -12.3290   18.3850 C   0  0  0  0  0  2  0  0  0  0  0  0
  -27.6940  -13.2380   19.6100 C   0  0  0  0  0  3  0  0  0  0  0  0
  -28.7960  -13.1280   20.6880 C   0  0  0  0  0  2  0  0  0  0  0  0
  -30.0930  -13.3820   20.0440 N   0  0  0  0  0  0  0  0  0  0  0  0
  -31.9350  -14.6020   19.5610 O   0  0  0  0  0  0  0  0  0  0  0  0
  -30.2050  -15.6660   20.5260 N   0  0  0  0  0  0  0  0  0  0  0  0
  -29.2330  -15.5670   20.7720 H   0  0  0  0  0  0  0  0  0  0  0  0
  -25.3490  -13.8570   20.4650 C   0  0  0  0  0  0  0  0  0  0  0  0
  -24.2890  -13.0910   20.8720 C   0  0  0  0  0  0  0  0  0  0  0  0
  -24.7260  -11.7330   20.7830 C   0  0  0  0  0  0  0  0  0  0  0  0
  -26.3660  -12.9680   20.1580 N   0  0  0  0  0  0  0  0  0  0  0  0
  -25.9990  -11.6840   20.4080 N   0  0  0  0  0  0  0  0  0  0  0  0
  -23.9860  -10.4780   20.9760 C   0  0  0  0  0  0  0  0  0  0  0  0
  -24.4150   -9.5010   21.9010 C   0  0  0  0  0  3  0  0  0  0  0  0
  -23.6730   -8.3140   22.0820 C   0  0  0  0  0  3  0  0  0  0  0  0
  -22.4900   -8.0940   21.3380 C   0  0  0  0  0  0  0  0  0  0  0  0
  -22.0810   -9.0570   20.4020 C   0  0  0  0  0  3  0  0  0  0  0  0
  -22.8240  -10.2370   20.2170 C   0  0  0  0  0  3  0  0  0  0  0  0
  -21.7190   -6.9590   21.4310 O   0  0  0  0  0  0  0  0  0  0  0  0
  -21.6290   -6.2430   22.5970 C   0  0  0  0  0  0  0  0  0  0  0  0
  -21.1760   -6.8300   23.7990 C   0  0  0  0  0  3  0  0  0  0  0  0
  -21.0350   -6.0390   24.9570 C   0  0  0  0  0  3  0  0  0  0  0  0
  -21.3350   -4.6640   24.9130 C   0  0  0  0  0  0  0  0  0  0  0  0
  -21.7820   -4.0770   23.7150 C   0  0  0  0  0  3  0  0  0  0  0  0
  -21.9270   -4.8660   22.5610 C   0  0  0  0  0  0  0  0  0  0  0  0
  -22.3350   -4.2920   21.4030 F   0  0  0  0  0  0  0  0  0  0  0  0
  -21.1930   -3.9030   26.0230 F   0  0  0  0  0  0  0  0  0  0  0  0
  -22.9170  -13.5870   21.2300 C   0  0  0  0  0  0  0  0  0  0  0  0
  -22.2190  -12.8810   22.1150 N   0  0  0  0  0  0  0  0  0  0  0  0
  -22.4760  -14.6350   20.7620 O   0  0  0  0  0  0  0  0  0  0  0  0
  -22.5830  -12.0250   22.5090 H   0  0  0  0  0  0  0  0  0  0  0  0
  -21.3060  -13.2030   22.4030 H   0  0  0  0  0  0  0  0  0  0  0  0
  -25.5290  -15.2280   20.3060 N   0  0  0  0  0  0  0  0  0  0  0  0
  -24.7780  -15.8900   20.4590 H   0  0  0  0  0  0  0  0  0  0  0  0
  -26.3580  -15.6560   19.9160 H   0  0  0  0  0  0  0  0  0  0  0  0
  -34.2160  -18.5570   20.6020 C   0  0  0  0  0  3  0  0  0  0  0  0
  -34.8890  -19.5830   20.0530 C   0  0  0  0  0  3  0  0  0  0  0  0
  -36.3960  -19.6520   19.9150 C   0  0  0  0  0  1  0  0  0  0  0  0
  -28.0600  -25.3050   19.7510 C   0  0  0  0  0  2  0  0  0  0  0  0
  -28.2790  -26.6850   20.1530 O   0  0  0  0  0  0  0  0  0  0  0  0
  -24.5840  -31.9750   23.2990 C   0  0  0  0  0  0  0  0  0  0  0  0
  -27.1250  -27.4820   20.1590 C   0  0  0  0  0  0  0  0  0  0  0  0
  -23.3420  -30.6090   21.6610 C   0  0  0  0  0  3  0  0  0  0  0  0
  -24.7550  -29.0670   20.2180 C   0  0  0  0  0  0  0  0  0  0  0  0
  -25.8790  -30.9200   21.4440 C   0  0  0  0  0  2  0  0  0  0  0  0
  -25.9370  -29.5520   20.7910 C   0  0  0  0  0  0  0  0  0  0  0  0
  -27.1230  -28.7680   20.7600 C   0  0  0  0  0  3  0  0  0  0  0  0
  -25.9040  -27.0320   19.5880 C   0  0  0  0  0  3  0  0  0  0  0  0
  -24.7330  -27.8020   19.6240 C   0  0  0  0  0  3  0  0  0  0  0  0
  -23.5310  -29.9480   20.2730 C   0  0  0  0  0  2  0  0  0  0  0  0
  -24.6220  -31.1830   22.1910 N   0  0  0  0  0  0  0  0  0  0  0  0
  -23.5090  -32.2540   23.8530 O   0  0  0  0  0  0  0  0  0  0  0  0
  -22.6870  -29.5830   22.6170 C   0  0  0  0  0  0  0  0  0  0  0  0
  -21.3620  -29.3950   22.4880 N   0  0  0  0  0  0  0  0  0  0  0  0
  -23.3680  -28.9560   23.4320 O   0  0  0  0  0  0  0  0  0  0  0  0
  -20.8630  -29.9610   21.8160 H   0  0  0  0  0  0  0  0  0  0  0  0
  -17.9980  -28.1750   22.9620 C   0  0  0  0  0  0  0  0  0  0  0  0
  -20.5520  -28.4550   23.2590 C   0  0  0  0  0  3  0  0  0  0  0  0
  -20.6710  -27.0190   22.6990 C   0  0  0  0  0  2  0  0  0  0  0  0
  -19.5840  -26.6800   21.6730 C   0  0  0  0  0  2  0  0  0  0  0  0
  -18.1930  -26.8220   22.2980 C   0  0  0  0  0  2  0  0  0  0  0  0
  -19.1070  -28.9470   23.3990 C   0  0  0  0  0  0  0  0  0  0  0  0
  -18.8720  -30.2130   23.9790 C   0  0  0  0  0  3  0  0  0  0  0  0
  -17.5630  -30.7090   24.1230 C   0  0  0  0  0  3  0  0  0  0  0  0
  -16.4690  -29.9350   23.7020 C   0  0  0  0  0  3  0  0  0  0  0  0
  -16.6870  -28.6690   23.1300 C   0  0  0  0  0  3  0  0  0  0  0  0
  -25.8820  -32.5850   23.9070 C   0  0  0  0  0  3  0  0  0  0  0  0
  -26.4000  -31.8050   25.1760 C   0  0  1  0  0  0  0  0  0  0  0  0
  -25.3080  -31.5770   26.2480 C   0  0  0  0  0  1  0  0  0  0  0  0
  -26.9690  -30.4220   24.7790 C   0  0  0  0  0  1  0  0  0  0  0  0
  -27.5580  -32.5900   25.8330 C   0  0  0  0  0  1  0  0  0  0  0  0
  -25.5950  -33.9860   24.2410 N   0  0  0  0  0  0  0  0  0  0  0  0
  -25.9200  -35.0340   23.4710 C   0  0  0  0  0  0  0  0  0  0  0  0
  -26.5610  -34.9220   22.4220 O   0  0  0  0  0  0  0  0  0  0  0  0
  -25.0160  -34.1510   25.0500 H   0  0  0  0  0  0  0  0  0  0  0  0
  -24.1850  -36.8310   23.1810 C   0  0  0  0  0  1  0  0  0  0  0  0
  -25.4600  -36.4280   23.9370 C   0  0  0  0  0  3  0  0  0  0  0  0
  -27.6310  -37.3160   24.6610 C   0  0  0  0  0  1  0  0  0  0  0  0
  -26.4870  -37.4790   23.7670 N   0  0  0  0  0  0  0  0  0  0  0  0
  -26.0910  -38.3980   23.9350 H   0  0  0  0  0  0  0  0  0  0  0  0
  1 58  1  0
  1  2  1  0
  2  7  1  0
  3  1  1  0
  4 15  1  0
  4 10  2  0
  5  3  1  0
  5  6  1  0
  6  8  1  0
  8  4  1  0
  8  2  1  0
  9  3  2  0
 11 14  1  0
 13 15  1  0
 13 16  2  0
 14 12  2  0
 15 11  2  0
 16 12  1  0
 17 25  1  0
 18 23  1  0
 19 20  1  0
 19 18  1  0
 21 20  1  0
 21 30  1  0
 21 22  1  0
 23 17  1  0
 23 22  1  0
 24 17  2  0
 25 16  1  0
 25 26  1  0
 27 28  2  0
 28 47  1  0
 29 28  1  0
 29 32  1  0
 30 31  1  0
 30 27  1  0
 31 29  2  0
 32 33  1  0
 33 34  2  0
 35 38  1  0
 35 34  1  0
 36 35  2  0
 37 36  1  0
 37 32  2  0
 38 39  1  0
 39 40  1  0
 40 41  2  0
 42 41  1  0
 42 46  1  0
 43 42  2  0
 44 39  2  0
 44 43  1  0
 45 44  1  0
 47 48  1  0
 48 51  1  0
 48 50  1  0
 49 47  2  0
 52 53  1  0
 52 27  1  0
 54 52  1  0
 55 14  1  0
 56 55  2  0
 57 56  1  0
 58 59  1  0
 59 61  1  0
 60 71  2  0
 61 66  1  0
 62 70  1  0
 62 72  1  0
 63 69  1  0
 63 65  1  0
 64 70  1  0
 65 64  1  0
 66 65  2  0
 67 68  1  0
 67 61  2  0
 68 63  2  0
 69 62  1  0
 70 60  1  0
 72 74  2  0
 73 72  1  0
 75 73  1  0
 76 85  2  0
 76 81  1  0
 77 73  1  0
 77 81  1  0
 78 77  1  0
 79 80  1  0
 79 78  1  0
 80 76  1  0
 81 82  2  0
 82 83  1  0
 84 83  2  0
 85 84  1  0
 86 60  1  0
 86 91  1  0
 86 87  1  0
 87 90  1  1
 87 88  1  0
 89 87  1  0
 91 94  1  0
 92 96  1  0
 92 91  1  0
 93 92  2  0
 96 95  1  0
 98 99  1  0
 98 96  1  0
 98 97  1  0
M  ISO  4  17 100  25 100  58 101  59 101
M  END
>  <TORSDO>  (76) 
F 19

>  <SCORE>  (76) 
-14.368

>  <name>  (76) 
76

>  <ligand_id>  (76) 
76

>  <original_smiles>  (76) 
[H]C(=C([H])C([H])([H])[H])c1c([H])c(C(=O)N2C(C([H])([H])[H])=C(C([H])([H])Oc3c([H])c([H])c4c(c3[H])C([H])([H])N(C(=O)C([H])(N([H])C(=O)C([H])(N([H])C([H])([H])[H])C([H])([H])[H])C(C([H])([H])[H])(C([H])([H])[H])C([H])([H])[H])C([H])(C(=O)N([H])C3([H])c5c([H])c([H])c([H])c([H])c5C([H])([H])C([H])([H])C3([H])[H])C4([H])[H])C(=O)C([H])([H])C2([H])[H])c([H])c(N([H])C(=O)N2C([H])([H])C([H])([H])C([H])([H])C([H])(n3nc(-c4c([H])c([H])c(Oc5c([H])c([H])c(F)c([H])c5F)c([H])c4[H])c(C(=O)N([H])[H])c3N([H])[H])C2([H])[H])c1[H]

>  <smiles>  (76) 
[H]C(=C([H])C([H])([H])[H])c1c([H])c(C(=O)N2C(C([H])([H])[H])=C(C([H])([H])Oc3c([H])c([H])c4c(c3[H])C([H])([H])N(C(=O)C([H])(N([H])C(=O)C([H])(N([H])C([H])([H])[H])C([H])([H])[H])C(C([H])([H])[H])(C([H])([H])[H])C([H])([H])[H])C([H])(C(=O)N([H])C3([H])c5c([H])c([H])c([H])c([H])c5C([H])([H])C([H])([H])C3([H])[H])C4([H])[H])C(=O)C([H])([H])C2([H])[H])c([H])c(N([H])C(=O)N2C([H])([H])C([H])([H])C([H])([H])C([H])(n3nc(-c4c([H])c([H])c(Oc5c([H])c([H])c(F)c([H])c5F)c([H])c4[H])c(C(=O)N([H])[H])c3N([H])[H])C2([H])[H])c1[H]

$$$$
77:0:0
     RDKit          3D

 92101  0  0  1  0  0  0  0  0999 V2000
  -27.9910  -21.8780   21.1310 C   0  0  0  0  0  0  0  0  0  0  0  0
  -28.0650  -23.0680   22.0770 C   0  0  0  0  0  2  0  0  0  0  0  0
  -29.3000  -23.8190   21.5820 C   0  0  0  0  0  2  0  0  0  0  0  0
  -29.2940  -23.5270   20.0800 C   0  0  0  0  0  3  0  0  0  0  0  0
  -28.8890  -21.9650   20.1300 N   0  0  0  0  0  0  0  0  0  0  0  0
  -27.1720  -20.9720   21.3060 O   0  0  0  0  0  0  0  0  0  0  0  0
  -30.8380  -15.3310   19.8220 C   0  0  0  0  0  0  0  0  0  0  0  0
  -30.6920  -12.9330   18.9670 C   0  0  0  0  0  2  0  0  0  0  0  0
  -29.7040  -12.8270   17.7810 C   0  0  0  0  0  2  0  0  0  0  0  0
  -28.2650  -12.6220   18.2850 C   0  0  0  0  0  2  0  0  0  0  0  0
  -27.9080  -13.5790   19.4530 C   0  0  0  0  0  3  0  0  0  0  0  0
  -29.0150  -13.6380   20.5280 C   0  0  0  0  0  2  0  0  0  0  0  0
  -30.2480  -14.0570   19.8490 N   0  0  0  0  0  0  0  0  0  0  0  0
  -32.0250  -15.3480   19.4660 O   0  0  0  0  0  0  0  0  0  0  0  0
  -30.8210  -20.8030   18.9690 C   0  0  0  0  0  3  0  0  0  0  0  0
  -29.4330  -19.2120   20.1100 C   0  0  0  0  0  3  0  0  0  0  0  0
  -31.6060  -19.6840   18.6160 C   0  0  0  0  0  3  0  0  0  0  0  0
  -29.6670  -20.6600   19.7580 C   0  0  0  0  0  0  0  0  0  0  0  0
  -30.2930  -18.0460   19.7230 C   0  0  0  0  0  0  0  0  0  0  0  0
  -31.3620  -18.3940   18.9700 N   0  0  0  0  0  0  0  0  0  0  0  0
  -30.0820  -16.5380   20.0430 N   0  0  0  0  0  0  0  0  0  0  0  0
  -29.1740  -16.3440   20.4350 H   0  0  0  0  0  0  0  0  0  0  0  0
  -25.6000  -14.1830   20.3660 C   0  0  0  0  0  0  0  0  0  0  0  0
  -24.5420  -13.4210   20.7780 C   0  0  0  0  0  0  0  0  0  0  0  0
  -24.9660  -12.0620   20.6640 C   0  0  0  0  0  0  0  0  0  0  0  0
  -26.5990  -13.2890   20.0240 N   0  0  0  0  0  0  0  0  0  0  0  0
  -26.2330  -12.0050   20.2680 N   0  0  0  0  0  0  0  0  0  0  0  0
  -24.2180  -10.8100   20.8500 C   0  0  0  0  0  0  0  0  0  0  0  0
  -24.6360   -9.8310   21.7780 C   0  0  0  0  0  3  0  0  0  0  0  0
  -23.8870   -8.6470   21.9510 C   0  0  0  0  0  3  0  0  0  0  0  0
  -22.7070   -8.4340   21.2000 C   0  0  0  0  0  0  0  0  0  0  0  0
  -22.3090   -9.4040   20.2620 C   0  0  0  0  0  3  0  0  0  0  0  0
  -23.0570  -10.5790   20.0860 C   0  0  0  0  0  3  0  0  0  0  0  0
  -21.9320   -7.3030   21.2850 O   0  0  0  0  0  0  0  0  0  0  0  0
  -21.8120   -6.5990   22.4560 C   0  0  0  0  0  0  0  0  0  0  0  0
  -21.2800   -7.1830   23.6260 C   0  0  0  0  0  3  0  0  0  0  0  0
  -21.1110   -6.4040   24.7880 C   0  0  0  0  0  3  0  0  0  0  0  0
  -21.4610   -5.0400   24.7800 C   0  0  0  0  0  0  0  0  0  0  0  0
  -21.9860   -4.4560   23.6140 C   0  0  0  0  0  3  0  0  0  0  0  0
  -22.1570   -5.2330   22.4550 C   0  0  0  0  0  0  0  0  0  0  0  0
  -22.6410   -4.6590   21.3270 F   0  0  0  0  0  0  0  0  0  0  0  0
  -21.2910   -4.2890   25.8920 F   0  0  0  0  0  0  0  0  0  0  0  0
  -23.1790  -13.9210   21.1540 C   0  0  0  0  0  0  0  0  0  0  0  0
  -22.4920  -13.2200   22.0490 N   0  0  0  0  0  0  0  0  0  0  0  0
  -22.7330  -14.9710   20.6890 O   0  0  0  0  0  0  0  0  0  0  0  0
  -22.8660  -12.3720   22.4490 H   0  0  0  0  0  0  0  0  0  0  0  0
  -21.5780  -13.5370   22.3390 H   0  0  0  0  0  0  0  0  0  0  0  0
  -25.7880  -15.5560   20.2290 N   0  0  0  0  0  0  0  0  0  0  0  0
  -25.0410  -16.2200   20.4060 H   0  0  0  0  0  0  0  0  0  0  0  0
  -26.5970  -15.9860   19.8010 H   0  0  0  0  0  0  0  0  0  0  0  0
  -28.3610  -24.8350   19.4710 C   0  0  0  0  0  2  0  0  0  0  0  0
  -28.5180  -26.3800   19.7820 O   0  0  0  0  0  0  0  0  0  0  0  0
  -24.6540  -31.7560   23.0870 C   0  0  0  0  0  0  0  0  0  0  0  0
  -27.4300  -27.3410   19.7580 C   0  0  0  0  0  0  0  0  0  0  0  0
  -23.5120  -30.4080   21.3680 C   0  0  0  0  0  3  0  0  0  0  0  0
  -25.0260  -28.9970   19.8350 C   0  0  0  0  0  0  0  0  0  0  0  0
  -26.0500  -30.8010   21.2110 C   0  0  0  0  0  2  0  0  0  0  0  0
  -26.1870  -29.4550   20.4710 C   0  0  0  0  0  0  0  0  0  0  0  0
  -27.3880  -28.6430   20.4160 C   0  0  0  0  0  3  0  0  0  0  0  0
  -26.2410  -27.0030   19.0770 C   0  0  0  0  0  3  0  0  0  0  0  0
  -25.0680  -27.7910   19.1200 C   0  0  0  0  0  3  0  0  0  0  0  0
  -23.7560  -29.8290   19.9470 C   0  0  0  0  0  2  0  0  0  0  0  0
  -24.7570  -31.0090   21.9440 N   0  0  0  0  0  0  0  0  0  0  0  0
  -23.5580  -31.9510   23.6360 O   0  0  0  0  0  0  0  0  0  0  0  0
  -22.8910  -29.3100   22.2690 C   0  0  0  0  0  0  0  0  0  0  0  0
  -21.5710  -29.0860   22.1450 N   0  0  0  0  0  0  0  0  0  0  0  0
  -23.6000  -28.6640   23.0440 O   0  0  0  0  0  0  0  0  0  0  0  0
  -21.0500  -29.6620   21.4980 H   0  0  0  0  0  0  0  0  0  0  0  0
  -18.2500  -27.7100   22.6210 C   0  0  0  0  0  0  0  0  0  0  0  0
  -20.8020  -28.0630   22.8620 C   0  0  0  0  0  3  0  0  0  0  0  0
  -20.9500  -26.6800   22.1860 C   0  0  0  0  0  2  0  0  0  0  0  0
  -19.8430  -26.3820   21.1710 C   0  0  0  0  0  2  0  0  0  0  0  0
  -18.4700  -26.4220   21.8470 C   0  0  0  0  0  2  0  0  0  0  0  0
  -19.3450  -28.4890   23.0850 C   0  0  0  0  0  0  0  0  0  0  0  0
  -19.0840  -29.6940   23.7730 C   0  0  0  0  0  3  0  0  0  0  0  0
  -17.7630  -30.1230   23.9990 C   0  0  0  0  0  3  0  0  0  0  0  0
  -16.6840  -29.3410   23.5500 C   0  0  0  0  0  3  0  0  0  0  0  0
  -16.9290  -28.1360   22.8680 C   0  0  0  0  0  3  0  0  0  0  0  0
  -25.9000  -32.4180   23.7460 C   0  0  0  0  0  3  0  0  0  0  0  0
  -25.5380  -33.7960   24.1140 N   0  0  0  0  0  0  0  0  0  0  0  0
  -25.8140  -34.8830   23.3800 C   0  0  0  0  0  0  0  0  0  0  0  0
  -26.4680  -34.8320   22.3360 O   0  0  0  0  0  0  0  0  0  0  0  0
  -24.9500  -33.9050   24.9290 H   0  0  0  0  0  0  0  0  0  0  0  0
  -24.0000  -36.6090   23.1210 C   0  0  0  0  0  1  0  0  0  0  0  0
  -25.2830  -36.2400   23.8840 C   0  0  0  0  0  3  0  0  0  0  0  0
  -27.3960  -37.2110   24.6770 C   0  0  0  0  0  1  0  0  0  0  0  0
  -26.2660  -37.3390   23.7610 N   0  0  0  0  0  0  0  0  0  0  0  0
  -25.8220  -38.2390   23.9270 H   0  0  0  0  0  0  0  0  0  0  0  0
  -26.4220  -31.6320   25.0140 C   0  0  1  0  0  0  0  0  0  0  0  0
  -25.3200  -31.3340   26.0580 C   0  0  0  0  0  1  0  0  0  0  0  0
  -27.0560  -30.2830   24.6040 C   0  0  0  0  0  1  0  0  0  0  0  0
  -27.5380  -32.4450   25.7120 C   0  0  0  0  0  1  0  0  0  0  0  0
  1  6  2  0
  1  2  1  0
  3  2  1  0
  4 51  1  0
  4  5  1  0
  4  3  1  0
  5  1  1  0
  7 13  1  0
  7 21  1  0
  8 13  1  0
  9 10  1  0
  9  8  1  0
 11 10  1  0
 11 26  1  0
 11 12  1  0
 13 12  1  0
 14  7  2  0
 15 18  1  0
 17 15  2  0
 17 20  1  0
 18 16  2  0
 18  5  1  0
 19 21  1  0
 19 16  1  0
 20 19  2  0
 21 22  1  0
 23 24  2  0
 24 43  1  0
 25 24  1  0
 25 28  1  0
 26 27  1  0
 26 23  1  0
 27 25  2  0
 28 29  1  0
 29 30  2  0
 31 34  1  0
 31 30  1  0
 32 31  2  0
 33 32  1  0
 33 28  2  0
 34 35  1  0
 35 36  1  0
 36 37  2  0
 38 37  1  0
 38 42  1  0
 39 38  2  0
 40 35  2  0
 40 39  1  0
 41 40  1  0
 43 44  1  0
 44 47  1  0
 44 46  1  0
 45 43  2  0
 48 23  1  0
 48 49  1  0
 50 48  1  0
 51 52  1  0
 53 64  2  0
 54 52  1  0
 54 59  1  0
 55 63  1  0
 55 65  1  0
 56 62  1  0
 56 58  1  0
 57 63  1  0
 58 57  1  0
 59 58  2  0
 60 61  1  0
 60 54  2  0
 61 56  2  0
 62 55  1  0
 63 53  1  0
 65 67  2  0
 66 65  1  0
 68 66  1  0
 69 78  2  0
 69 74  1  0
 70 66  1  0
 70 74  1  0
 71 70  1  0
 72 73  1  0
 72 71  1  0
 73 69  1  0
 74 75  2  0
 75 76  1  0
 77 76  2  0
 78 77  1  0
 79 53  1  0
 79 80  1  0
 79 89  1  0
 80 83  1  0
 81 85  1  0
 81 80  1  0
 82 81  2  0
 85 84  1  0
 87 85  1  0
 87 88  1  0
 87 86  1  0
 89 92  1  1
 89 90  1  0
 91 89  1  0
M  ISO  4   7 100  21 100  51 101  52 101
M  END
>  <TORSDO>  (77) 
F 17

>  <SCORE>  (77) 
-13.997

>  <name>  (77) 
77

>  <ligand_id>  (77) 
77

>  <original_smiles>  (77) 
[H]c1nc(N([H])C(=O)N2C([H])([H])C([H])([H])C([H])([H])C([H])(n3nc(-c4c([H])c([H])c(Oc5c([H])c([H])c(F)c([H])c5F)c([H])c4[H])c(C(=O)N([H])[H])c3N([H])[H])C2([H])[H])c([H])c(N2C(=O)C([H])([H])C([H])([H])C2([H])C([H])([H])Oc2c([H])c([H])c3c(c2[H])C([H])([H])N(C(=O)C([H])(N([H])C(=O)C([H])(N([H])C([H])([H])[H])C([H])([H])[H])C(C([H])([H])[H])(C([H])([H])[H])C([H])([H])[H])C([H])(C(=O)N([H])C2([H])c4c([H])c([H])c([H])c([H])c4C([H])([H])C([H])([H])C2([H])[H])C3([H])[H])c1[H]

>  <smiles>  (77) 
[H]c1nc(N([H])C(=O)N2C([H])([H])C([H])([H])C([H])([H])C([H])(n3nc(-c4c([H])c([H])c(Oc5c([H])c([H])c(F)c([H])c5F)c([H])c4[H])c(C(=O)N([H])[H])c3N([H])[H])C2([H])[H])c([H])c(N2C(=O)C([H])([H])C([H])([H])C2([H])C([H])([H])Oc2c([H])c([H])c3c(c2[H])C([H])([H])N(C(=O)C([H])(N([H])C(=O)C([H])(N([H])C([H])([H])[H])C([H])([H])[H])C(C([H])([H])[H])(C([H])([H])[H])C([H])([H])[H])C([H])(C(=O)N([H])C2([H])c4c([H])c([H])c([H])c([H])c4C([H])([H])C([H])([H])C2([H])[H])C3([H])[H])c1[H]

$$$$
78:0:0
     RDKit          3D

 98107  0  0  1  0  0  0  0  0999 V2000
  -30.7390  -17.8890   19.7050 C   0  0  0  0  0  3  0  0  0  0  0  0
  -28.4440  -17.6110   20.3450 C   0  0  0  0  0  3  0  0  0  0  0  0
  -30.4870  -19.2750   19.3990 C   0  0  0  0  0  0  0  0  0  0  0  0
  -29.1780  -19.8510   19.5520 C   0  0  0  0  0  0  0  0  0  0  0  0
  -29.7170  -17.0200   20.1730 C   0  0  0  0  0  0  0  0  0  0  0  0
  -28.1710  -18.9730   20.0460 C   0  0  0  0  0  0  0  0  0  0  0  0
  -30.6350  -14.5680   20.1030 C   0  0  0  0  0  0  0  0  0  0  0  0
  -30.4030  -12.2890   19.1420 C   0  0  0  0  0  2  0  0  0  0  0  0
  -29.4360  -12.3950   17.9420 C   0  0  0  0  0  2  0  0  0  0  0  0
  -27.9680  -12.2810   18.4000 C   0  0  0  0  0  2  0  0  0  0  0  0
  -27.6500  -13.1890   19.6170 C   0  0  0  0  0  3  0  0  0  0  0  0
  -28.7230  -13.0320   20.7160 C   0  0  0  0  0  2  0  0  0  0  0  0
  -30.0320  -13.3380   20.1100 N   0  0  0  0  0  0  0  0  0  0  0  0
  -31.7820  -14.7300   19.6730 O   0  0  0  0  0  0  0  0  0  0  0  0
  -29.8200  -15.5950   20.4860 N   0  0  0  0  0  0  0  0  0  0  0  0
  -28.9900  -15.2330   20.9290 H   0  0  0  0  0  0  0  0  0  0  0  0
  -25.2880  -13.8630   20.3760 C   0  0  0  0  0  0  0  0  0  0  0  0
  -24.2090  -13.1240   20.7790 C   0  0  0  0  0  0  0  0  0  0  0  0
  -24.6340  -11.7610   20.7550 C   0  0  0  0  0  0  0  0  0  0  0  0
  -26.3030  -12.9510   20.1310 N   0  0  0  0  0  0  0  0  0  0  0  0
  -25.9150  -11.6830   20.4190 N   0  0  0  0  0  0  0  0  0  0  0  0
  -23.8800  -10.5190   20.9760 C   0  0  0  0  0  0  0  0  0  0  0  0
  -24.3220   -9.5400   21.8920 C   0  0  0  0  0  3  0  0  0  0  0  0
  -23.5710   -8.3630   22.0990 C   0  0  0  0  0  3  0  0  0  0  0  0
  -22.3620   -8.1580   21.3920 C   0  0  0  0  0  0  0  0  0  0  0  0
  -21.9390   -9.1250   20.4620 C   0  0  0  0  0  3  0  0  0  0  0  0
  -22.6910  -10.2940   20.2540 C   0  0  0  0  0  3  0  0  0  0  0  0
  -21.5780   -7.0360   21.5110 O   0  0  0  0  0  0  0  0  0  0  0  0
  -21.5750   -6.2800   22.6550 C   0  0  0  0  0  0  0  0  0  0  0  0
  -21.2450   -6.8310   23.9130 C   0  0  0  0  0  3  0  0  0  0  0  0
  -21.1880   -6.0010   25.0510 C   0  0  0  0  0  3  0  0  0  0  0  0
  -21.4480   -4.6240   24.9320 C   0  0  0  0  0  0  0  0  0  0  0  0
  -21.7720   -4.0730   23.6810 C   0  0  0  0  0  3  0  0  0  0  0  0
  -21.8340   -4.8990   22.5450 C   0  0  0  0  0  0  0  0  0  0  0  0
  -22.1240   -4.3600   21.3370 F   0  0  0  0  0  0  0  0  0  0  0  0
  -21.3860   -3.8250   26.0250 F   0  0  0  0  0  0  0  0  0  0  0  0
  -22.8300  -13.6400   21.0730 C   0  0  0  0  0  0  0  0  0  0  0  0
  -22.1070  -12.9800   21.9710 N   0  0  0  0  0  0  0  0  0  0  0  0
  -22.4040  -14.6630   20.5410 O   0  0  0  0  0  0  0  0  0  0  0  0
  -22.4650  -12.1510   22.4230 H   0  0  0  0  0  0  0  0  0  0  0  0
  -21.1830  -13.3070   22.2110 H   0  0  0  0  0  0  0  0  0  0  0  0
  -25.4870  -15.2250   20.1760 N   0  0  0  0  0  0  0  0  0  0  0  0
  -24.7370  -15.8980   20.2820 H   0  0  0  0  0  0  0  0  0  0  0  0
  -26.3220  -15.6250   19.7660 H   0  0  0  0  0  0  0  0  0  0  0  0
  -26.8620  -19.4120   20.2470 N   0  0  0  0  0  0  0  0  0  0  0  0
  -26.1080  -18.7380   20.3340 H   0  0  0  0  0  0  0  0  0  0  0  0
  -26.5640  -20.3260   19.9320 H   0  0  0  0  0  0  0  0  0  0  0  0
  -32.9120  -19.8950   19.1670 C   0  0  0  0  0  2  0  0  0  0  0  0
  -31.6060  -20.1340   18.9610 C   0  0  0  0  0  3  0  0  0  0  0  0
  -28.8090  -21.3390   19.1160 C   0  0  0  0  0  2  0  0  0  0  0  0
  -29.8410  -22.4860   21.1060 C   0  0  0  0  0  0  0  0  0  0  0  0
  -30.6290  -23.7490   21.3860 C   0  0  0  0  0  2  0  0  0  0  0  0
  -30.5730  -24.4900   20.0470 C   0  0  0  0  0  2  0  0  0  0  0  0
  -29.3070  -23.9560   19.3610 C   0  0  0  0  0  3  0  0  0  0  0  0
  -29.2320  -22.5480   19.9100 N   0  0  0  0  0  0  0  0  0  0  0  0
  -29.8480  -21.5330   21.8880 O   0  0  0  0  0  0  0  0  0  0  0  0
  -28.0910  -24.9350   19.6970 C   0  0  0  0  0  2  0  0  0  0  0  0
  -28.2860  -26.3940   19.4900 O   0  0  0  0  0  0  0  0  0  0  0  0
  -24.6680  -31.5180   23.0880 C   0  0  0  0  0  0  0  0  0  0  0  0
  -27.1700  -27.2370   19.5810 C   0  0  0  0  0  0  0  0  0  0  0  0
  -23.4190  -30.2900   21.3460 C   0  0  0  0  0  3  0  0  0  0  0  0
  -24.8260  -28.8650   19.7600 C   0  0  0  0  0  0  0  0  0  0  0  0
  -25.9590  -30.5980   21.1490 C   0  0  0  0  0  2  0  0  0  0  0  0
  -26.0100  -29.2840   20.3800 C   0  0  0  0  0  0  0  0  0  0  0  0
  -27.1850  -28.4830   20.2830 C   0  0  0  0  0  3  0  0  0  0  0  0
  -25.9660  -26.8790   18.9370 C   0  0  0  0  0  3  0  0  0  0  0  0
  -24.8050  -27.6660   19.0310 C   0  0  0  0  0  3  0  0  0  0  0  0
  -23.6010  -29.7470   19.9040 C   0  0  0  0  0  2  0  0  0  0  0  0
  -24.7020  -30.8130   21.9190 N   0  0  0  0  0  0  0  0  0  0  0  0
  -23.5970  -31.7520   23.6650 O   0  0  0  0  0  0  0  0  0  0  0  0
  -22.7640  -29.1930   22.2200 C   0  0  0  0  0  0  0  0  0  0  0  0
  -21.4320  -29.0520   22.1100 N   0  0  0  0  0  0  0  0  0  0  0  0
  -23.4520  -28.4790   22.9540 O   0  0  0  0  0  0  0  0  0  0  0  0
  -20.9370  -29.6770   21.4890 H   0  0  0  0  0  0  0  0  0  0  0  0
  -18.0440  -27.8800   22.5820 C   0  0  0  0  0  0  0  0  0  0  0  0
  -20.6140  -28.0590   22.8090 C   0  0  0  0  0  3  0  0  0  0  0  0
  -20.6720  -26.6900   22.0940 C   0  0  0  0  0  2  0  0  0  0  0  0
  -19.5370  -26.4890   21.0850 C   0  0  0  0  0  2  0  0  0  0  0  0
  -18.1750  -26.6010   21.7750 C   0  0  0  0  0  2  0  0  0  0  0  0
  -19.1900  -28.5730   23.0560 C   0  0  0  0  0  0  0  0  0  0  0  0
  -19.0140  -29.7780   23.7710 C   0  0  0  0  0  3  0  0  0  0  0  0
  -17.7250  -30.2870   24.0190 C   0  0  0  0  0  3  0  0  0  0  0  0
  -16.5930  -29.5880   23.5620 C   0  0  0  0  0  3  0  0  0  0  0  0
  -16.7550  -28.3850   22.8490 C   0  0  0  0  0  3  0  0  0  0  0  0
  -25.9680  -32.0770   23.7380 C   0  0  0  0  0  3  0  0  0  0  0  0
  -25.6810  -33.4440   24.1940 N   0  0  0  0  0  0  0  0  0  0  0  0
  -26.0470  -34.5560   23.5410 C   0  0  0  0  0  0  0  0  0  0  0  0
  -26.7300  -34.5370   22.5150 O   0  0  0  0  0  0  0  0  0  0  0  0
  -25.0790  -33.5360   25.0000 H   0  0  0  0  0  0  0  0  0  0  0  0
  -24.3620  -36.4100   23.3360 C   0  0  0  0  0  1  0  0  0  0  0  0
  -25.5820  -35.9060   24.1220 C   0  0  0  0  0  3  0  0  0  0  0  0
  -27.7210  -36.6590   25.0630 C   0  0  0  0  0  1  0  0  0  0  0  0
  -26.6380  -36.9410   24.1230 N   0  0  0  0  0  0  0  0  0  0  0  0
  -26.2480  -37.8520   24.3530 H   0  0  0  0  0  0  0  0  0  0  0  0
  -26.4900  -31.1920   24.9360 C   0  0  1  0  0  0  0  0  0  0  0  0
  -25.4110  -30.8880   26.0000 C   0  0  0  0  0  1  0  0  0  0  0  0
  -27.0390  -29.8420   24.4190 C   0  0  0  0  0  1  0  0  0  0  0  0
  -27.6640  -31.9070   25.6430 C   0  0  0  0  0  1  0  0  0  0  0  0
  1  5  1  0
  3  4  1  0
  3  1  2  0
  4  6  2  0
  5  2  2  0
  5 15  1  0
  6 45  1  0
  6  2  1  0
  7 13  1  0
  7 15  1  0
  8 13  1  0
  9 10  1  0
  9  8  1  0
 11 10  1  0
 11 20  1  0
 11 12  1  0
 13 12  1  0
 14  7  2  0
 15 16  1  0
 17 18  2  0
 18 37  1  0
 19 18  1  0
 19 22  1  0
 20 17  1  0
 20 21  1  0
 21 19  2  0
 22 23  1  0
 23 24  2  0
 25 28  1  0
 25 24  1  0
 26 25  2  0
 27 26  1  0
 27 22  2  0
 28 29  1  0
 29 30  1  0
 30 31  2  0
 32 31  1  0
 32 36  1  0
 33 32  2  0
 34 29  2  0
 34 33  1  0
 35 34  1  0
 37 38  1  0
 38 41  1  0
 38 40  1  0
 39 37  2  0
 42 43  1  0
 42 17  1  0
 44 42  1  0
 45 46  1  0
 47 45  1  0
 49 48  2  0
 49  3  1  0
 50  4  1  0
 50 55  1  0
 51 52  1  0
 51 56  2  0
 53 52  1  0
 54 57  1  0
 54 55  1  0
 54 53  1  0
 55 51  1  0
 58 60  1  0
 58 57  1  0
 59 70  2  0
 60 65  1  0
 61 69  1  0
 61 71  1  0
 62 68  1  0
 62 64  1  0
 63 69  1  0
 64 63  1  0
 65 64  2  0
 66 67  1  0
 66 60  2  0
 67 62  2  0
 68 61  1  0
 69 59  1  0
 71 73  2  0
 72 71  1  0
 74 72  1  0
 75 84  2  0
 75 80  1  0
 76 72  1  0
 76 80  1  0
 77 76  1  0
 78 79  1  0
 78 77  1  0
 79 75  1  0
 80 81  2  0
 81 82  1  0
 83 82  2  0
 84 83  1  0
 85 59  1  0
 85 86  1  0
 85 95  1  0
 86 89  1  0
 87 91  1  0
 87 86  1  0
 88 87  2  0
 91 90  1  0
 91 93  1  0
 93 94  1  0
 93 92  1  0
 95 98  1  1
 95 96  1  0
 97 95  1  0
M  ISO  4   7 100  15 100  57 101  58 101
M  END
>  <TORSDO>  (78) 
F 21

>  <SCORE>  (78) 
-13.085

>  <name>  (78) 
78

>  <ligand_id>  (78) 
78

>  <original_smiles>  (78) 
[H]C([H])=C([H])c1c([H])c(N([H])C(=O)N2C([H])([H])C([H])([H])C([H])([H])C([H])(n3nc(-c4c([H])c([H])c(Oc5c([H])c([H])c(F)c([H])c5F)c([H])c4[H])c(C(=O)N([H])[H])c3N([H])[H])C2([H])[H])c([H])c(N([H])[H])c1C([H])([H])N1C(=O)C([H])([H])C([H])([H])C1([H])C([H])([H])Oc1c([H])c([H])c2c(c1[H])C([H])([H])N(C(=O)C([H])(N([H])C(=O)C([H])(N([H])C([H])([H])[H])C([H])([H])[H])C(C([H])([H])[H])(C([H])([H])[H])C([H])([H])[H])C([H])(C(=O)N([H])C1([H])c3c([H])c([H])c([H])c([H])c3C([H])([H])C([H])([H])C1([H])[H])C2([H])[H]

>  <smiles>  (78) 
[H]C([H])=C([H])c1c([H])c(N([H])C(=O)N2C([H])([H])C([H])([H])C([H])([H])C([H])(n3nc(-c4c([H])c([H])c(Oc5c([H])c([H])c(F)c([H])c5F)c([H])c4[H])c(C(=O)N([H])[H])c3N([H])[H])C2([H])[H])c([H])c(N([H])[H])c1C([H])([H])N1C(=O)C([H])([H])C([H])([H])C1([H])C([H])([H])Oc1c([H])c([H])c2c(c1[H])C([H])([H])N(C(=O)C([H])(N([H])C(=O)C([H])(N([H])C([H])([H])[H])C([H])([H])[H])C(C([H])([H])[H])(C([H])([H])[H])C([H])([H])[H])C([H])(C(=O)N([H])C1([H])c3c([H])c([H])c([H])c([H])c3C([H])([H])C([H])([H])C1([H])[H])C2([H])[H]

$$$$
79:0:0
     RDKit          3D

100109  0  0  1  0  0  0  0  0999 V2000
  -30.9410  -17.9360   20.0330 C   0  0  0  0  0  3  0  0  0  0  0  0
  -28.4920  -19.2550   19.9820 C   0  0  0  0  0  3  0  0  0  0  0  0
  -30.8980  -19.3820   20.0160 C   0  0  0  0  0  0  0  0  0  0  0  0
  -29.6380  -20.1020   19.9840 C   0  0  0  0  0  0  0  0  0  0  0  0
  -29.7850  -17.1100   20.0690 C   0  0  0  0  0  0  0  0  0  0  0  0
  -28.5490  -17.8160   20.0510 C   0  0  0  0  0  0  0  0  0  0  0  0
  -30.5040  -14.5730   19.6550 C   0  0  0  0  0  0  0  0  0  0  0  0
  -30.2060  -12.3250   18.5930 C   0  0  0  0  0  2  0  0  0  0  0  0
  -29.1300  -12.4440   17.4880 C   0  0  0  0  0  2  0  0  0  0  0  0
  -27.7150  -12.2650   18.0740 C   0  0  0  0  0  2  0  0  0  0  0  0
  -27.4910  -13.1130   19.3530 C   0  0  0  0  0  3  0  0  0  0  0  0
  -28.6660  -12.9610   20.3440 C   0  0  0  0  0  2  0  0  0  0  0  0
  -29.8980  -13.3350   19.6310 N   0  0  0  0  0  0  0  0  0  0  0  0
  -31.6180  -14.7290   19.1470 O   0  0  0  0  0  0  0  0  0  0  0  0
  -29.7390  -15.6250   20.1280 N   0  0  0  0  0  0  0  0  0  0  0  0
  -28.8930  -15.2960   20.5700 H   0  0  0  0  0  0  0  0  0  0  0  0
  -25.2020  -13.7060   20.3530 C   0  0  0  0  0  0  0  0  0  0  0  0
  -24.1740  -12.9330   20.8180 C   0  0  0  0  0  0  0  0  0  0  0  0
  -24.6120  -11.5790   20.6910 C   0  0  0  0  0  0  0  0  0  0  0  0
  -26.2030  -12.8240   19.9790 N   0  0  0  0  0  0  0  0  0  0  0  0
  -25.8600  -11.5370   20.2410 N   0  0  0  0  0  0  0  0  0  0  0  0
  -23.8910  -10.3190   20.9200 C   0  0  0  0  0  0  0  0  0  0  0  0
  -24.3490   -9.3660   21.8570 C   0  0  0  0  0  3  0  0  0  0  0  0
  -23.6300   -8.1710   22.0720 C   0  0  0  0  0  3  0  0  0  0  0  0
  -22.4380   -7.9200   21.3520 C   0  0  0  0  0  0  0  0  0  0  0  0
  -21.9980   -8.8610   20.4050 C   0  0  0  0  0  3  0  0  0  0  0  0
  -22.7170  -10.0480   20.1870 C   0  0  0  0  0  3  0  0  0  0  0  0
  -21.6880   -6.7750   21.4770 O   0  0  0  0  0  0  0  0  0  0  0  0
  -21.6000   -6.0980   22.6670 C   0  0  0  0  0  0  0  0  0  0  0  0
  -21.1130   -6.7140   23.8400 C   0  0  0  0  0  3  0  0  0  0  0  0
  -20.9750   -5.9620   25.0240 C   0  0  0  0  0  3  0  0  0  0  0  0
  -21.3120   -4.5950   25.0340 C   0  0  0  0  0  0  0  0  0  0  0  0
  -21.7910   -3.9800   23.8640 C   0  0  0  0  0  3  0  0  0  0  0  0
  -21.9310   -4.7280   22.6830 C   0  0  0  0  0  0  0  0  0  0  0  0
  -22.3740   -4.1250   21.5540 F   0  0  0  0  0  0  0  0  0  0  0  0
  -21.1710   -3.8710   26.1690 F   0  0  0  0  0  0  0  0  0  0  0  0
  -22.8240  -13.4170   21.2630 C   0  0  0  0  0  0  0  0  0  0  0  0
  -22.1940  -12.7060   22.1910 N   0  0  0  0  0  0  0  0  0  0  0  0
  -22.3400  -14.4590   20.8220 O   0  0  0  0  0  0  0  0  0  0  0  0
  -22.6010  -11.8630   22.5680 H   0  0  0  0  0  0  0  0  0  0  0  0
  -21.2920  -13.0100   22.5300 H   0  0  0  0  0  0  0  0  0  0  0  0
  -25.3590  -15.0780   20.1930 N   0  0  0  0  0  2  0  0  0  0  0  0
  -24.6190  -15.7320   20.4190 H   0  0  0  0  0  0  0  0  0  0  0  0
  -26.1920  -15.5330   19.8410 H   0  0  0  0  0  0  0  0  0  0  0  0
  -28.2990  -23.7410   20.4800 C   0  0  0  0  0  0  0  0  0  0  0  0
  -27.9660  -25.0950   20.4300 C   0  0  0  0  0  3  0  0  0  0  0  0
  -28.5620  -23.0850   21.8150 C   0  0  0  0  0  2  0  0  0  0  0  0
  -29.5950  -21.9700   21.5610 C   0  0  0  0  0  2  0  0  0  0  0  0
  -28.5720  -22.5550   19.4890 C   0  0  0  0  0  3  0  0  0  0  0  0
  -29.0660  -23.0150   18.1140 C   0  0  0  0  0  1  0  0  0  0  0  0
  -29.4820  -21.5500   20.1620 N   0  0  0  0  0  0  0  0  0  0  0  0
  -27.7730  -26.0490   19.4090 O   0  0  0  0  0  0  0  0  0  0  0  0
  -24.5730  -31.5370   23.0020 C   0  0  0  0  0  0  0  0  0  0  0  0
  -26.7500  -27.0030   19.5630 C   0  0  0  0  0  0  0  0  0  0  0  0
  -23.2010  -30.2840   21.3780 C   0  0  0  0  0  3  0  0  0  0  0  0
  -24.4810  -28.7380   19.7870 C   0  0  0  0  0  0  0  0  0  0  0  0
  -25.7390  -30.4850   21.0460 C   0  0  0  0  0  2  0  0  0  0  0  0
  -25.7110  -29.1350   20.3320 C   0  0  0  0  0  0  0  0  0  0  0  0
  -26.8520  -28.2780   20.2120 C   0  0  0  0  0  3  0  0  0  0  0  0
  -25.5020  -26.6670   19.0050 C   0  0  0  0  0  3  0  0  0  0  0  0
  -24.3790  -27.5100   19.1150 C   0  0  0  0  0  3  0  0  0  0  0  0
  -23.2950  -29.6690   19.9560 C   0  0  0  0  0  2  0  0  0  0  0  0
  -24.5280  -30.7830   21.8640 N   0  0  0  0  0  0  0  0  0  0  0  0
  -23.5410  -31.8390   23.6190 O   0  0  0  0  0  0  0  0  0  0  0  0
  -22.5480  -29.2530   22.3300 C   0  0  0  0  0  0  0  0  0  0  0  0
  -21.2120  -29.1210   22.2570 N   0  0  0  0  0  0  0  0  0  0  0  0
  -23.2410  -28.5760   23.0930 O   0  0  0  0  0  0  0  0  0  0  0  0
  -20.7110  -29.7190   21.6160 H   0  0  0  0  0  0  0  0  0  0  0  0
  -17.8270  -27.9850   22.8420 C   0  0  0  0  0  0  0  0  0  0  0  0
  -20.3980  -28.1790   23.0290 C   0  0  0  0  0  3  0  0  0  0  0  0
  -20.4460  -26.7640   22.4080 C   0  0  0  0  0  2  0  0  0  0  0  0
  -19.3030  -26.4970   21.4250 C   0  0  0  0  0  2  0  0  0  0  0  0
  -17.9470  -26.6530   22.1210 C   0  0  0  0  0  2  0  0  0  0  0  0
  -18.9770  -28.7090   23.2550 C   0  0  0  0  0  0  0  0  0  0  0  0
  -18.8080  -29.9570   23.8920 C   0  0  0  0  0  3  0  0  0  0  0  0
  -17.5220  -30.4820   24.1200 C   0  0  0  0  0  3  0  0  0  0  0  0
  -16.3870  -29.7540   23.7260 C   0  0  0  0  0  3  0  0  0  0  0  0
  -16.5390  -28.5070   23.0920 C   0  0  0  0  0  3  0  0  0  0  0  0
  -25.9230  -32.0780   23.5680 C   0  0  0  0  0  3  0  0  0  0  0  0
  -26.5150  -31.1770   24.7210 C   0  0  1  0  0  0  0  0  0  0  0  0
  -25.5100  -30.8830   25.8600 C   0  0  0  0  0  1  0  0  0  0  0  0
  -27.0020  -29.8200   24.1620 C   0  0  0  0  0  1  0  0  0  0  0  0
  -27.7520  -31.8670   25.3420 C   0  0  0  0  0  1  0  0  0  0  0  0
  -25.6870  -33.4460   24.0530 N   0  0  0  0  0  0  0  0  0  0  0  0
  -26.0230  -34.5580   23.3860 C   0  0  0  0  0  0  0  0  0  0  0  0
  -26.6310  -34.5370   22.3120 O   0  0  0  0  0  0  0  0  0  0  0  0
  -25.1440  -33.5390   24.8980 H   0  0  0  0  0  0  0  0  0  0  0  0
  -24.3530  -36.4380   23.3120 C   0  0  0  0  0  1  0  0  0  0  0  0
  -25.6170  -35.9090   24.0070 C   0  0  0  0  0  3  0  0  0  0  0  0
  -27.8270  -36.6310   24.8000 C   0  0  0  0  0  1  0  0  0  0  0  0
  -26.6850  -36.9320   23.9420 N   0  0  0  0  0  0  0  0  0  0  0  0
  -26.3240  -37.8460   24.2040 H   0  0  0  0  0  0  0  0  0  0  0  0
  -32.2450  -20.0770   20.0960 C   0  0  0  0  0  0  0  0  0  0  0  0
  -32.3060  -21.3500   19.7460 N   0  0  0  0  0  0  0  0  0  0  0  0
  -33.2660  -19.4740   20.4290 O   0  0  0  0  0  0  0  0  0  0  0  0
  -31.4170  -21.8130   19.5740 H   0  0  0  0  0  0  0  0  0  0  0  0
  -33.1730  -21.8650   19.7600 H   0  0  0  0  0  0  0  0  0  0  0  0
  -27.4200  -17.0270   20.1320 O   0  0  0  0  0  0  0  0  0  0  0  0
  -25.0630  -16.6330   20.3930 C   0  0  0  0  0  2  0  0  0  0  0  0
  -26.1570  -17.6800   20.1680 C   0  0  0  0  0  2  0  0  0  0  0  0
  1  5  1  0
  2  4  2  0
  2  6  1  0
  3  1  2  0
  3 93  1  0
  4  3  1  0
  4 51  1  0
  5 15  1  0
  6  5  2  0
  6 98  1  0
  7 15  1  0
  8 13  1  0
  9 10  1  0
  9  8  1  0
 11 10  1  0
 11 20  1  0
 11 12  1  0
 13  7  1  0
 13 12  1  0
 14  7  2  0
 15 16  1  0
 17 18  2  0
 18 37  1  0
 19 18  1  0
 19 22  1  0
 20 21  1  0
 20 17  1  0
 21 19  2  0
 22 23  1  0
 23 24  2  0
 25 28  1  0
 25 24  1  0
 26 25  2  0
 27 26  1  0
 27 22  2  0
 28 29  1  0
 29 34  2  0
 29 30  1  0
 30 31  2  0
 31 32  1  0
 32 36  1  0
 33 32  2  0
 34 33  1  0
 35 34  1  0
 37 38  1  0
 38 41  1  0
 38 40  1  0
 39 37  2  0
 42 17  1  0
 44 42  1  0
 45 47  1  0
 46 45  2  0
 48 47  1  0
 49 50  1  0
 49 51  1  0
 49 45  1  0
 51 48  1  0
 52 54  1  0
 52 46  1  0
 53 64  2  0
 54 59  1  0
 55 63  1  0
 55 65  1  0
 56 62  1  0
 56 58  1  0
 57 63  1  0
 58 57  1  0
 59 58  2  0
 60 61  1  0
 60 54  2  0
 61 56  2  0
 62 55  1  0
 63 53  1  0
 65 67  2  0
 66 65  1  0
 68 66  1  0
 69 78  2  0
 69 74  1  0
 70 66  1  0
 70 74  1  0
 71 70  1  0
 72 73  1  0
 72 71  1  0
 73 69  1  0
 74 75  2  0
 75 76  1  0
 77 76  2  0
 78 77  1  0
 79 53  1  0
 79 84  1  0
 79 80  1  0
 80 83  1  1
 80 81  1  0
 82 80  1  0
 84 87  1  0
 85 89  1  0
 85 84  1  0
 86 85  2  0
 89 88  1  0
 91 89  1  0
 91 92  1  0
 91 90  1  0
 93 95  2  0
 94 97  1  0
 94 93  1  0
 96 94  1  0
 98100  1  0
 99 43  1  0
100 99  1  0
M  ISO  4   7 100  15 100  46 101  52 101
M  END
>  <TORSDO>  (79) 
F 20

>  <SCORE>  (79) 
-12.884

>  <name>  (79) 
79

>  <ligand_id>  (79) 
79

>  <original_smiles>  (79) 
[H]C(Oc1c([H])c([H])c2c(c1[H])C([H])([H])N(C(=O)C([H])(N([H])C(=O)C([H])(N([H])C([H])([H])[H])C([H])([H])[H])C(C([H])([H])[H])(C([H])([H])[H])C([H])([H])[H])C([H])(C(=O)N([H])C1([H])c3c([H])c([H])c([H])c([H])c3C([H])([H])C([H])([H])C1([H])[H])C2([H])[H])=C1C([H])([H])C([H])([H])N(c2c([H])c(OC([H])([H])C([H])([H])[H])c(N([H])C(=O)N3C([H])([H])C([H])([H])C([H])([H])C([H])(n4nc(-c5c([H])c([H])c(Oc6c([H])c([H])c(F)c([H])c6F)c([H])c5[H])c(C(=O)N([H])[H])c4N([H])[H])C3([H])[H])c([H])c2C(=O)N([H])[H])C1([H])C([H])([H])[H]

>  <smiles>  (79) 
[H]C(Oc1c([H])c([H])c2c(c1[H])C([H])([H])N(C(=O)C([H])(N([H])C(=O)C([H])(N([H])C([H])([H])[H])C([H])([H])[H])C(C([H])([H])[H])(C([H])([H])[H])C([H])([H])[H])C([H])(C(=O)N([H])C1([H])c3c([H])c([H])c([H])c([H])c3C([H])([H])C([H])([H])C1([H])[H])C2([H])[H])=C1C([H])([H])C([H])([H])N(c2c([H])c(OC([H])([H])C([H])([H])[H])c(N([H])C(=O)N3C([H])([H])C([H])([H])C([H])([H])C([H])(n4nc(-c5c([H])c([H])c(Oc6c([H])c([H])c(F)c([H])c6F)c([H])c5[H])c(C(=O)N([H])[H])c4N([H])[H])C3([H])[H])c([H])c2C(=O)N([H])[H])C1([H])C([H])([H])[H]

$$$$
80:0:0
     RDKit          3D

 89 98  0  0  1  0  0  0  0  0999 V2000
  -30.6010  -15.0820   20.3570 C   0  0  0  0  0  0  0  0  0  0  0  0
  -30.4770  -12.6970   19.5050 C   0  0  0  0  0  2  0  0  0  0  0  0
  -29.5590  -12.5730   18.2660 C   0  0  0  0  0  2  0  0  0  0  0  0
  -28.0920  -12.3840   18.6950 C   0  0  0  0  0  2  0  0  0  0  0  0
  -27.6580  -13.3720   19.8090 C   0  0  0  0  0  3  0  0  0  0  0  0
  -28.6990  -13.4690   20.9430 C   0  0  0  0  0  2  0  0  0  0  0  0
  -29.9750  -13.8370   20.3190 N   0  0  0  0  0  0  0  0  0  0  0  0
  -31.8370  -15.0800   20.2940 O   0  0  0  0  0  0  0  0  0  0  0  0
  -29.2740  -19.9420   21.3170 C   0  0  0  0  0  3  0  0  0  0  0  0
  -29.5820  -18.5040   21.3520 C   0  0  0  0  0  3  0  0  0  0  0  0
  -29.3400  -19.9170   18.9570 C   0  0  0  0  0  3  0  0  0  0  0  0
  -29.6310  -18.5020   19.0040 C   0  0  0  0  0  0  0  0  0  0  0  0
  -29.1210  -20.7360   20.1150 C   0  0  0  0  0  0  0  0  0  0  0  0
  -29.7580  -17.7090   20.1660 C   0  0  0  0  0  0  0  0  0  0  0  0
  -29.7850  -17.6280   17.7970 C   0  0  0  0  0  3  0  0  0  0  0  0
  -29.8420  -16.1840   18.3570 C   0  0  0  0  0  3  0  0  0  0  0  0
  -29.9030  -16.2200   19.8410 N   0  0  0  0  0  0  0  0  0  0  0  0
  -25.2820  -13.9760   20.5470 C   0  0  0  0  0  0  0  0  0  0  0  0
  -24.2050  -13.2110   20.8970 C   0  0  0  0  0  0  0  0  0  0  0  0
  -24.6540  -11.8550   20.8640 C   0  0  0  0  0  0  0  0  0  0  0  0
  -26.3160  -13.0870   20.3060 N   0  0  0  0  0  0  0  0  0  0  0  0
  -25.9480  -11.8060   20.5680 N   0  0  0  0  0  0  0  0  0  0  0  0
  -23.9120  -10.5990   21.0360 C   0  0  0  0  0  0  0  0  0  0  0  0
  -24.3220   -9.6210   21.9690 C   0  0  0  0  0  3  0  0  0  0  0  0
  -23.5810   -8.4310   22.1320 C   0  0  0  0  0  3  0  0  0  0  0  0
  -22.4160   -8.2090   21.3590 C   0  0  0  0  0  0  0  0  0  0  0  0
  -22.0270   -9.1750   20.4140 C   0  0  0  0  0  3  0  0  0  0  0  0
  -22.7670  -10.3570   20.2510 C   0  0  0  0  0  3  0  0  0  0  0  0
  -21.6480   -7.0720   21.4290 O   0  0  0  0  0  0  0  0  0  0  0  0
  -21.5670   -6.3290   22.5790 C   0  0  0  0  0  0  0  0  0  0  0  0
  -21.1130   -6.8830   23.7950 C   0  0  0  0  0  3  0  0  0  0  0  0
  -20.9800   -6.0660   24.9360 C   0  0  0  0  0  3  0  0  0  0  0  0
  -21.2900   -4.6940   24.8620 C   0  0  0  0  0  0  0  0  0  0  0  0
  -21.7370   -4.1390   23.6490 C   0  0  0  0  0  3  0  0  0  0  0  0
  -21.8710   -4.9530   22.5110 C   0  0  0  0  0  0  0  0  0  0  0  0
  -22.2820   -4.4090   21.3410 F   0  0  0  0  0  0  0  0  0  0  0  0
  -21.1550   -3.9080   25.9550 F   0  0  0  0  0  0  0  0  0  0  0  0
  -22.8090  -13.7000   21.1530 C   0  0  0  0  0  0  0  0  0  0  0  0
  -22.0670  -13.0140   22.0150 N   0  0  0  0  0  0  0  0  0  0  0  0
  -22.3850  -14.7250   20.6210 O   0  0  0  0  0  0  0  0  0  0  0  0
  -22.4190  -12.1830   22.4660 H   0  0  0  0  0  0  0  0  0  0  0  0
  -21.1330  -13.3320   22.2340 H   0  0  0  0  0  0  0  0  0  0  0  0
  -25.4680  -15.3480   20.3900 N   0  0  0  0  0  0  0  0  0  0  0  0
  -24.7230  -16.0200   20.5310 H   0  0  0  0  0  0  0  0  0  0  0  0
  -26.3450  -15.7800   20.1250 H   0  0  0  0  0  0  0  0  0  0  0  0
  -28.8630  -23.3770   20.2970 C   0  0  0  0  0  3  0  0  0  0  0  0
  -28.5370  -22.1100   19.9580 N   0  0  0  0  0  0  0  0  0  0  0  0
  -27.9730  -24.7450   19.9300 C   0  0  0  0  0  2  0  0  0  0  0  0
  -28.3160  -26.2400   20.2170 O   0  0  0  0  0  0  0  0  0  0  0  0
  -24.6570  -31.8840   23.2520 C   0  0  0  0  0  0  0  0  0  0  0  0
  -27.2770  -27.2420   20.1450 C   0  0  0  0  0  0  0  0  0  0  0  0
  -23.4780  -30.5160   21.5770 C   0  0  0  0  0  3  0  0  0  0  0  0
  -24.9460  -28.9870   20.1270 C   0  0  0  0  0  0  0  0  0  0  0  0
  -26.0340  -30.7940   21.4420 C   0  0  0  0  0  2  0  0  0  0  0  0
  -26.1180  -29.4180   20.7620 C   0  0  0  0  0  0  0  0  0  0  0  0
  -27.2830  -28.5610   20.7590 C   0  0  0  0  0  3  0  0  0  0  0  0
  -26.0790  -26.9260   19.4600 C   0  0  0  0  0  3  0  0  0  0  0  0
  -24.9410  -27.7550   19.4610 C   0  0  0  0  0  3  0  0  0  0  0  0
  -23.7140  -29.8740   20.1840 C   0  0  0  0  0  2  0  0  0  0  0  0
  -24.7430  -31.0860   22.1450 N   0  0  0  0  0  0  0  0  0  0  0  0
  -23.5660  -32.1520   23.7770 O   0  0  0  0  0  0  0  0  0  0  0  0
  -22.8010  -29.4820   22.5110 C   0  0  0  0  0  0  0  0  0  0  0  0
  -21.4730  -29.3140   22.3790 N   0  0  0  0  0  0  0  0  0  0  0  0
  -23.4700  -28.8370   23.3210 O   0  0  0  0  0  0  0  0  0  0  0  0
  -20.9880  -29.8840   21.7010 H   0  0  0  0  0  0  0  0  0  0  0  0
  -18.0870  -28.1220   22.8710 C   0  0  0  0  0  0  0  0  0  0  0  0
  -20.6500  -28.3610   23.1300 C   0  0  0  0  0  3  0  0  0  0  0  0
  -20.7380  -26.9440   22.5170 C   0  0  0  0  0  2  0  0  0  0  0  0
  -19.6290  -26.6580   21.5000 C   0  0  0  0  0  2  0  0  0  0  0  0
  -18.2510  -26.7930   22.1530 C   0  0  0  0  0  2  0  0  0  0  0  0
  -19.2130  -28.8660   23.3150 C   0  0  0  0  0  0  0  0  0  0  0  0
  -19.0030  -30.1100   23.9480 C   0  0  0  0  0  3  0  0  0  0  0  0
  -17.7020  -30.6110   24.1390 C   0  0  0  0  0  3  0  0  0  0  0  0
  -16.5920  -29.8650   23.7090 C   0  0  0  0  0  3  0  0  0  0  0  0
  -16.7850  -28.6220   23.0800 C   0  0  0  0  0  3  0  0  0  0  0  0
  -25.9270  -32.5120   23.9010 C   0  0  0  0  0  3  0  0  0  0  0  0
  -25.6160  -33.9140   24.2280 N   0  0  0  0  0  0  0  0  0  0  0  0
  -25.9400  -34.9670   23.4660 C   0  0  0  0  0  0  0  0  0  0  0  0
  -26.5980  -34.8620   22.4280 O   0  0  0  0  0  0  0  0  0  0  0  0
  -25.0270  -34.0700   25.0320 H   0  0  0  0  0  0  0  0  0  0  0  0
  -24.1890  -36.7480   23.1500 C   0  0  0  0  0  1  0  0  0  0  0  0
  -25.4560  -36.3560   23.9270 C   0  0  0  0  0  3  0  0  0  0  0  0
  -27.6060  -37.2650   24.6940 C   0  0  0  0  0  1  0  0  0  0  0  0
  -26.4780  -37.4160   23.7770 N   0  0  0  0  0  0  0  0  0  0  0  0
  -26.0690  -38.3340   23.9280 H   0  0  0  0  0  0  0  0  0  0  0  0
  -26.4110  -31.7420   25.1900 C   0  0  1  0  0  0  0  0  0  0  0  0
  -25.2920  -31.5230   26.2370 C   0  0  0  0  0  1  0  0  0  0  0  0
  -26.9860  -30.3540   24.8240 C   0  0  0  0  0  1  0  0  0  0  0  0
  -27.5560  -32.5260   25.8710 C   0  0  0  0  0  1  0  0  0  0  0  0
  2  7  1  0
  3  4  1  0
  3  2  1  0
  5  4  1  0
  5 21  1  0
  5  6  1  0
  7  1  1  0
  7  6  1  0
  8  1  2  0
  9 10  1  0
 11 12  2  0
 11 13  1  0
 12 14  1  0
 13  9  2  0
 14 10  2  0
 15 16  2  0
 15 12  1  0
 16 17  1  0
 17 14  1  0
 17  1  1  0
 18 19  2  0
 19 38  1  0
 20 19  1  0
 20 23  1  0
 21 18  1  0
 21 22  1  0
 22 20  2  0
 23 24  1  0
 24 25  2  0
 26 29  1  0
 26 25  1  0
 27 26  2  0
 28 27  1  0
 28 23  2  0
 29 30  1  0
 30 31  1  0
 31 32  2  0
 33 32  1  0
 33 37  1  0
 34 33  2  0
 35 30  2  0
 35 34  1  0
 36 35  1  0
 38 39  1  0
 39 42  1  0
 39 41  1  0
 40 38  2  0
 43 44  1  0
 43 18  1  0
 45 43  1  0
 47 13  1  0
 47 46  2  0
 48 49  1  0
 48 46  1  0
 50 61  2  0
 51 49  1  0
 51 56  1  0
 52 60  1  0
 52 62  1  0
 53 59  1  0
 53 55  1  0
 54 60  1  0
 55 54  1  0
 56 55  2  0
 57 58  1  0
 57 51  2  0
 58 53  2  0
 59 52  1  0
 60 50  1  0
 62 64  2  0
 63 62  1  0
 65 63  1  0
 66 75  2  0
 66 71  1  0
 67 63  1  0
 67 71  1  0
 68 67  1  0
 69 70  1  0
 69 68  1  0
 70 66  1  0
 71 72  2  0
 72 73  1  0
 74 73  2  0
 75 74  1  0
 76 50  1  0
 76 77  1  0
 76 86  1  0
 77 80  1  0
 78 82  1  0
 78 77  1  0
 79 78  2  0
 82 81  1  0
 84 82  1  0
 84 85  1  0
 84 83  1  0
 86 89  1  1
 86 87  1  0
 88 86  1  0
M  ISO  4   1 100  17 100  48 101  49 101
M  END
>  <TORSDO>  (80) 
F 17

>  <SCORE>  (80) 
-13.711

>  <name>  (80) 
80

>  <ligand_id>  (80) 
80

>  <original_smiles>  (80) 
[H]C(=Nc1c([H])c([H])c2c(c1[H])C([H])([H])C([H])([H])N2C(=O)N1C([H])([H])C([H])([H])C([H])([H])C([H])(n2nc(-c3c([H])c([H])c(Oc4c([H])c([H])c(F)c([H])c4F)c([H])c3[H])c(C(=O)N([H])[H])c2N([H])[H])C1([H])[H])C([H])([H])Oc1c([H])c([H])c2c(c1[H])C([H])([H])N(C(=O)C([H])(N([H])C(=O)C([H])(N([H])C([H])([H])[H])C([H])([H])[H])C(C([H])([H])[H])(C([H])([H])[H])C([H])([H])[H])C([H])(C(=O)N([H])C1([H])c3c([H])c([H])c([H])c([H])c3C([H])([H])C([H])([H])C1([H])[H])C2([H])[H]

>  <smiles>  (80) 
[H]C(=Nc1c([H])c([H])c2c(c1[H])C([H])([H])C([H])([H])N2C(=O)N1C([H])([H])C([H])([H])C([H])([H])C([H])(n2nc(-c3c([H])c([H])c(Oc4c([H])c([H])c(F)c([H])c4F)c([H])c3[H])c(C(=O)N([H])[H])c2N([H])[H])C1([H])[H])C([H])([H])Oc1c([H])c([H])c2c(c1[H])C([H])([H])N(C(=O)C([H])(N([H])C(=O)C([H])(N([H])C([H])([H])[H])C([H])([H])[H])C(C([H])([H])[H])(C([H])([H])[H])C([H])([H])[H])C([H])(C(=O)N([H])C1([H])c3c([H])c([H])c([H])c([H])c3C([H])([H])C([H])([H])C1([H])[H])C2([H])[H]

$$$$
81:0:0
     RDKit          3D

 94102  0  0  1  0  0  0  0  0999 V2000
  -29.1710  -21.8970   19.7180 C   0  0  0  0  0  0  0  0  0  0  0  0
  -30.1750  -21.0880   20.1060 N   0  0  0  0  0  0  0  0  0  0  0  0
  -27.9950  -21.5320   19.6470 O   0  0  0  0  0  0  0  0  0  0  0  0
  -31.0610  -21.5250   20.3230 H   0  0  0  0  0  0  0  0  0  0  0  0
  -29.3290  -18.8620   19.4490 C   0  0  0  0  0  3  0  0  0  0  0  0
  -30.8520  -17.6770   21.4890 C   0  0  0  0  0  3  0  0  0  0  0  0
  -29.2840  -17.4660   19.6300 C   0  0  0  0  0  0  0  0  0  0  0  0
  -30.1160  -19.6790   20.2870 C   0  0  0  0  0  0  0  0  0  0  0  0
  -30.0300  -16.8640   20.6770 C   0  0  0  0  0  0  0  0  0  0  0  0
  -30.9100  -19.0730   21.2850 C   0  0  0  0  0  0  0  0  0  0  0  0
  -28.4320  -16.6590   18.6690 C   0  0  0  0  0  1  0  0  0  0  0  0
  -31.7100  -19.8400   22.0660 F   0  0  0  0  0  0  0  0  0  0  0  0
  -30.6290  -14.4820   20.4930 C   0  0  0  0  0  0  0  0  0  0  0  0
  -30.3490  -12.3260   19.3420 C   0  0  0  0  0  2  0  0  0  0  0  0
  -29.4080  -12.5430   18.1390 C   0  0  0  0  0  2  0  0  0  0  0  0
  -27.9280  -12.4160   18.5610 C   0  0  0  0  0  2  0  0  0  0  0  0
  -27.5910  -13.2330   19.8370 C   0  0  0  0  0  3  0  0  0  0  0  0
  -28.6450  -12.9910   20.9410 C   0  0  0  0  0  2  0  0  0  0  0  0
  -29.9730  -13.2970   20.3790 N   0  0  0  0  0  0  0  0  0  0  0  0
  -31.7670  -14.6770   20.0530 O   0  0  0  0  0  0  0  0  0  0  0  0
  -29.8770  -15.4830   20.9800 N   0  0  0  0  0  0  0  0  0  0  0  0
  -28.9600  -15.1960   21.2830 H   0  0  0  0  0  0  0  0  0  0  0  0
  -25.1890  -13.8610   20.5220 C   0  0  0  0  0  0  0  0  0  0  0  0
  -24.1140  -13.0950   20.8830 C   0  0  0  0  0  0  0  0  0  0  0  0
  -24.5720  -11.7430   20.8630 C   0  0  0  0  0  0  0  0  0  0  0  0
  -26.2330  -12.9740   20.3050 N   0  0  0  0  0  0  0  0  0  0  0  0
  -25.8640  -11.6960   20.5670 N   0  0  0  0  0  0  0  0  0  0  0  0
  -23.8420  -10.4840   21.0520 C   0  0  0  0  0  0  0  0  0  0  0  0
  -24.2660   -9.5210   21.9940 C   0  0  0  0  0  3  0  0  0  0  0  0
  -23.5390   -8.3260   22.1710 C   0  0  0  0  0  3  0  0  0  0  0  0
  -22.3740   -8.0840   21.4050 C   0  0  0  0  0  0  0  0  0  0  0  0
  -21.9710   -9.0350   20.4510 C   0  0  0  0  0  3  0  0  0  0  0  0
  -22.6980  -10.2220   20.2730 C   0  0  0  0  0  3  0  0  0  0  0  0
  -21.6180   -6.9400   21.4910 O   0  0  0  0  0  0  0  0  0  0  0  0
  -21.5560   -6.2050   22.6470 C   0  0  0  0  0  0  0  0  0  0  0  0
  -21.1050   -6.7650   23.8630 C   0  0  0  0  0  3  0  0  0  0  0  0
  -20.9910   -5.9550   25.0110 C   0  0  0  0  0  3  0  0  0  0  0  0
  -21.3170   -4.5880   24.9440 C   0  0  0  0  0  0  0  0  0  0  0  0
  -21.7610   -4.0280   23.7320 C   0  0  0  0  0  3  0  0  0  0  0  0
  -21.8780   -4.8340   22.5880 C   0  0  0  0  0  0  0  0  0  0  0  0
  -22.2850   -4.2860   21.4170 F   0  0  0  0  0  0  0  0  0  0  0  0
  -21.2000   -3.8070   26.0440 F   0  0  0  0  0  0  0  0  0  0  0  0
  -22.7160  -13.5780   21.1420 C   0  0  0  0  0  0  0  0  0  0  0  0
  -21.9790  -12.8850   22.0040 N   0  0  0  0  0  0  0  0  0  0  0  0
  -22.2860  -14.6040   20.6190 O   0  0  0  0  0  0  0  0  0  0  0  0
  -22.3370  -12.0550   22.4520 H   0  0  0  0  0  0  0  0  0  0  0  0
  -21.0400  -13.1900   22.2190 H   0  0  0  0  0  0  0  0  0  0  0  0
  -25.3560  -15.2320   20.3450 N   0  0  0  0  0  0  0  0  0  0  0  0
  -24.5890  -15.8850   20.4550 H   0  0  0  0  0  0  0  0  0  0  0  0
  -26.2150  -15.6780   20.0580 H   0  0  0  0  0  0  0  0  0  0  0  0
  -29.5320  -23.3380   19.3480 C   0  0  0  0  0  2  0  0  0  0  0  0
  -28.6600  -24.4120   20.0370 C   0  0  0  0  0  2  0  0  0  0  0  0
  -28.7500  -25.7680   19.3140 C   0  0  0  0  0  2  0  0  0  0  0  0
  -28.4640  -26.8500   20.1970 O   0  0  0  0  0  0  0  0  0  0  0  0
  -24.5530  -31.9010   23.2500 C   0  0  0  0  0  0  0  0  0  0  0  0
  -27.2440  -27.4920   20.1710 C   0  0  0  0  0  0  0  0  0  0  0  0
  -23.3590  -30.4960   21.5990 C   0  0  0  0  0  3  0  0  0  0  0  0
  -24.8260  -28.9600   20.1820 C   0  0  0  0  0  0  0  0  0  0  0  0
  -25.8800  -30.8680   21.4140 C   0  0  0  0  0  2  0  0  0  0  0  0
  -25.9730  -29.4970   20.7780 C   0  0  0  0  0  0  0  0  0  0  0  0
  -27.1760  -28.7640   20.7770 C   0  0  0  0  0  3  0  0  0  0  0  0
  -26.0740  -26.9520   19.5870 C   0  0  0  0  0  3  0  0  0  0  0  0
  -24.8690  -27.6840   19.5900 C   0  0  0  0  0  3  0  0  0  0  0  0
  -23.5770  -29.8110   20.2200 C   0  0  0  0  0  2  0  0  0  0  0  0
  -24.6150  -31.1040   22.1470 N   0  0  0  0  0  0  0  0  0  0  0  0
  -23.4690  -32.1690   23.7870 O   0  0  0  0  0  0  0  0  0  0  0  0
  -22.7070  -29.4730   22.5560 C   0  0  0  0  0  0  0  0  0  0  0  0
  -21.3840  -29.2880   22.4210 N   0  0  0  0  0  0  0  0  0  0  0  0
  -23.3870  -28.8500   23.3740 O   0  0  0  0  0  0  0  0  0  0  0  0
  -20.8970  -29.8420   21.7310 H   0  0  0  0  0  0  0  0  0  0  0  0
  -18.0100  -28.0920   22.9000 C   0  0  0  0  0  0  0  0  0  0  0  0
  -20.5660  -28.3480   23.1850 C   0  0  0  0  0  3  0  0  0  0  0  0
  -20.6720  -26.9190   22.6040 C   0  0  0  0  0  2  0  0  0  0  0  0
  -19.5760  -26.6000   21.5840 C   0  0  0  0  0  2  0  0  0  0  0  0
  -18.1900  -26.7440   22.2220 C   0  0  0  0  0  2  0  0  0  0  0  0
  -19.1260  -28.8520   23.3380 C   0  0  0  0  0  0  0  0  0  0  0  0
  -18.9060  -30.1140   23.9310 C   0  0  0  0  0  3  0  0  0  0  0  0
  -17.6020  -30.6170   24.0890 C   0  0  0  0  0  3  0  0  0  0  0  0
  -16.4990  -29.8520   23.6680 C   0  0  0  0  0  3  0  0  0  0  0  0
  -16.7040  -28.5920   23.0800 C   0  0  0  0  0  3  0  0  0  0  0  0
  -25.8360  -32.5340   23.8760 C   0  0  0  0  0  3  0  0  0  0  0  0
  -26.3420  -31.7720   25.1630 C   0  0  1  0  0  0  0  0  0  0  0  0
  -25.2410  -31.5460   26.2230 C   0  0  0  0  0  1  0  0  0  0  0  0
  -26.9270  -30.3910   24.7850 C   0  0  0  0  0  1  0  0  0  0  0  0
  -27.4890  -32.5710   25.8280 C   0  0  0  0  0  1  0  0  0  0  0  0
  -25.5290  -33.9360   24.1900 N   0  0  0  0  0  0  0  0  0  0  0  0
  -25.8760  -34.9800   23.4240 C   0  0  0  0  0  0  0  0  0  0  0  0
  -26.5600  -34.8640   22.4030 O   0  0  0  0  0  0  0  0  0  0  0  0
  -24.9270  -34.1010   24.9820 H   0  0  0  0  0  0  0  0  0  0  0  0
  -24.1660  -36.7760   23.0210 C   0  0  0  0  0  1  0  0  0  0  0  0
  -25.3870  -36.3740   23.8620 C   0  0  0  0  0  3  0  0  0  0  0  0
  -27.5070  -37.2540   24.7320 C   0  0  0  0  0  1  0  0  0  0  0  0
  -26.4280  -37.4200   23.7620 N   0  0  0  0  0  0  0  0  0  0  0  0
  -26.0240  -38.3430   23.8930 H   0  0  0  0  0  0  0  0  0  0  0  0
  1  2  1  0
  2  8  1  0
  2  4  1  0
  3  1  2  0
  5  7  2  0
  5  8  1  0
  7  9  1  0
  8 10  2  0
  9 21  1  0
  9  6  2  0
 10  6  1  0
 10 12  1  0
 11  7  1  0
 13 21  1  0
 14 19  1  0
 15 16  1  0
 15 14  1  0
 17 16  1  0
 17 26  1  0
 17 18  1  0
 19 13  1  0
 19 18  1  0
 20 13  2  0
 21 22  1  0
 23 24  2  0
 24 43  1  0
 25 24  1  0
 25 28  1  0
 26 23  1  0
 26 27  1  0
 27 25  2  0
 28 29  1  0
 29 30  2  0
 31 34  1  0
 31 30  1  0
 32 31  2  0
 33 32  1  0
 33 28  2  0
 34 35  1  0
 35 36  1  0
 36 37  2  0
 38 37  1  0
 38 42  1  0
 39 38  2  0
 40 35  2  0
 40 39  1  0
 41 40  1  0
 43 44  1  0
 44 47  1  0
 44 46  1  0
 45 43  2  0
 48 49  1  0
 48 23  1  0
 50 48  1  0
 51  1  1  0
 51 52  1  0
 53 52  1  0
 53 54  1  0
 55 66  2  0
 56 54  1  0
 56 61  1  0
 57 65  1  0
 57 67  1  0
 58 64  1  0
 58 60  1  0
 59 65  1  0
 60 59  1  0
 61 60  2  0
 62 63  1  0
 62 56  2  0
 63 58  2  0
 64 57  1  0
 65 55  1  0
 67 69  2  0
 68 67  1  0
 70 68  1  0
 71 80  2  0
 71 76  1  0
 72 68  1  0
 72 76  1  0
 73 72  1  0
 74 75  1  0
 74 73  1  0
 75 71  1  0
 76 77  2  0
 77 78  1  0
 79 78  2  0
 80 79  1  0
 81 55  1  0
 81 86  1  0
 81 82  1  0
 82 85  1  1
 82 83  1  0
 84 82  1  0
 86 89  1  0
 87 91  1  0
 87 86  1  0
 88 87  2  0
 91 90  1  0
 93 91  1  0
 93 94  1  0
 93 92  1  0
M  ISO  4  13 100  21 100  53 101  54 101
M  END
>  <TORSDO>  (81) 
F 20

>  <SCORE>  (81) 
-14.127

>  <name>  (81) 
81

>  <ligand_id>  (81) 
81

>  <original_smiles>  (81) 
[H]c1c([H])c([H])c2c(c1[H])C([H])([H])C([H])([H])C([H])([H])C2([H])N([H])C(=O)C1([H])N(C(=O)C([H])(N([H])C(=O)C([H])(N([H])C([H])([H])[H])C([H])([H])[H])C(C([H])([H])[H])(C([H])([H])[H])C([H])([H])[H])C([H])([H])c2c([H])c(OC([H])([H])C([H])([H])C([H])([H])C(=O)N([H])c3c([H])c(C([H])([H])[H])c(N([H])C(=O)N4C([H])([H])C([H])([H])C([H])([H])C([H])(n5nc(-c6c([H])c([H])c(Oc7c([H])c([H])c(F)c([H])c7F)c([H])c6[H])c(C(=O)N([H])[H])c5N([H])[H])C4([H])[H])c([H])c3F)c([H])c([H])c2C1([H])[H]

>  <smiles>  (81) 
[H]c1c([H])c([H])c2c(c1[H])C([H])([H])C([H])([H])C([H])([H])C2([H])N([H])C(=O)C1([H])N(C(=O)C([H])(N([H])C(=O)C([H])(N([H])C([H])([H])[H])C([H])([H])[H])C(C([H])([H])[H])(C([H])([H])[H])C([H])([H])[H])C([H])([H])c2c([H])c(OC([H])([H])C([H])([H])C([H])([H])C(=O)N([H])c3c([H])c(C([H])([H])[H])c(N([H])C(=O)N4C([H])([H])C([H])([H])C([H])([H])C([H])(n5nc(-c6c([H])c([H])c(Oc7c([H])c([H])c(F)c([H])c7F)c([H])c6[H])c(C(=O)N([H])[H])c5N([H])[H])C4([H])[H])c([H])c3F)c([H])c([H])c2C1([H])[H]

$$$$
82:0:0
     RDKit          3D

 97106  0  0  1  0  0  0  0  0999 V2000
  -28.6970  -24.6250   20.4780 C   0  0  0  0  0  0  0  0  0  0  0  0
  -28.3020  -25.9260   20.6300 C   0  0  0  0  0  3  0  0  0  0  0  0
  -29.8970  -21.3830   18.9450 C   0  0  0  0  0  0  0  0  0  0  0  0
  -28.7200  -23.6630   21.6400 C   0  0  0  0  0  2  0  0  0  0  0  0
  -29.1370  -23.8180   19.2490 C   0  0  0  0  0  2  0  0  0  0  0  0
  -29.5610  -22.4560   21.1910 C   0  0  0  0  0  2  0  0  0  0  0  0
  -29.6180  -22.4820   19.7260 N   0  0  0  0  0  0  0  0  0  0  0  0
  -29.5610  -21.3300   17.7600 O   0  0  0  0  0  0  0  0  0  0  0  0
  -30.2490  -18.8530   19.5360 C   0  0  0  0  0  3  0  0  0  0  0  0
  -32.0330  -20.4540   19.9470 C   0  0  0  0  0  3  0  0  0  0  0  0
  -32.3690  -18.1060   20.4900 C   0  0  0  0  0  3  0  0  0  0  0  0
  -30.7100  -20.2140   19.5220 C   0  0  0  0  0  0  0  0  0  0  0  0
  -31.0860  -17.7760   19.9940 C   0  0  0  0  0  0  0  0  0  0  0  0
  -32.8420  -19.4370   20.4810 C   0  0  0  0  0  0  0  0  0  0  0  0
  -31.4340  -15.2630   20.0570 C   0  0  0  0  0  0  0  0  0  0  0  0
  -31.2040  -12.9040   19.3660 C   0  0  0  0  0  2  0  0  0  0  0  0
  -30.3140  -12.8720   18.1060 C   0  0  0  0  0  2  0  0  0  0  0  0
  -28.8220  -12.8050   18.4900 C   0  0  0  0  0  2  0  0  0  0  0  0
  -28.4300  -13.8410   19.5800 C   0  0  0  0  0  3  0  0  0  0  0  0
  -29.4510  -13.8500   20.7410 C   0  0  0  0  0  2  0  0  0  0  0  0
  -30.7770  -14.0700   20.1540 N   0  0  0  0  0  0  0  0  0  0  0  0
  -32.6310  -15.3140   19.7730 O   0  0  0  0  0  0  0  0  0  0  0  0
  -30.6550  -16.3880   20.0100 N   0  0  0  0  0  0  0  0  0  0  0  0
  -29.6640  -16.2260   19.9680 H   0  0  0  0  0  0  0  0  0  0  0  0
  -26.0860  -14.5920   20.3180 C   0  0  0  0  0  0  0  0  0  0  0  0
  -24.9650  -13.8860   20.6680 C   0  0  0  0  0  0  0  0  0  0  0  0
  -25.3300  -12.5080   20.6010 C   0  0  0  0  0  0  0  0  0  0  0  0
  -27.0640  -13.6460   20.0580 N   0  0  0  0  0  0  0  0  0  0  0  0
  -26.6150  -12.3860   20.2870 N   0  0  0  0  0  0  0  0  0  0  0  0
  -24.5140  -11.2970   20.7550 C   0  0  0  0  0  0  0  0  0  0  0  0
  -24.9010  -10.2510   21.6220 C   0  0  0  0  0  3  0  0  0  0  0  0
  -24.0900   -9.1040   21.7660 C   0  0  0  0  0  3  0  0  0  0  0  0
  -22.8800   -8.9950   21.0410 C   0  0  0  0  0  0  0  0  0  0  0  0
  -22.5100  -10.0280   20.1630 C   0  0  0  0  0  3  0  0  0  0  0  0
  -23.3210  -11.1660   20.0160 C   0  0  0  0  0  3  0  0  0  0  0  0
  -22.0430   -7.9050   21.0970 O   0  0  0  0  0  0  0  0  0  0  0  0
  -21.9230   -7.1500   22.2350 C   0  0  0  0  0  0  0  0  0  0  0  0
  -21.5530   -7.7200   23.4740 C   0  0  0  0  0  3  0  0  0  0  0  0
  -21.3730   -6.8960   24.6030 C   0  0  0  0  0  3  0  0  0  0  0  0
  -21.5510   -5.5030   24.4960 C   0  0  0  0  0  0  0  0  0  0  0  0
  -21.9150   -4.9330   23.2630 C   0  0  0  0  0  3  0  0  0  0  0  0
  -22.0970   -5.7540   22.1360 C   0  0  0  0  0  0  0  0  0  0  0  0
  -22.4250   -5.1970   20.9450 F   0  0  0  0  0  0  0  0  0  0  0  0
  -21.3720   -4.7110   25.5790 F   0  0  0  0  0  0  0  0  0  0  0  0
  -23.6040  -14.4550   20.9520 C   0  0  0  0  0  0  0  0  0  0  0  0
  -22.8400  -13.8090   21.8220 N   0  0  0  0  0  0  0  0  0  0  0  0
  -23.2290  -15.5070   20.4330 O   0  0  0  0  0  0  0  0  0  0  0  0
  -23.1570  -12.9610   22.2690 H   0  0  0  0  0  0  0  0  0  0  0  0
  -21.9230  -14.1670   22.0510 H   0  0  0  0  0  0  0  0  0  0  0  0
  -26.3420  -15.9530   20.1810 N   0  0  0  0  0  0  0  0  0  0  0  0
  -25.6160  -16.6490   20.3120 H   0  0  0  0  0  0  0  0  0  0  0  0
  -27.2060  -16.3500   19.8330 H   0  0  0  0  0  0  0  0  0  0  0  0
  -34.0820  -19.8140   20.9460 O   0  0  0  0  0  0  0  0  0  0  0  0
  -34.8420  -18.8720   21.7020 C   0  0  0  0  0  2  0  0  0  0  0  0
  -37.3700  -18.9890   21.6920 C   0  0  0  0  0  2  0  0  0  0  0  0
  -36.2130  -18.6620   21.0900 C   0  0  0  0  0  3  0  0  0  0  0  0
  -28.1920  -26.9500   19.6970 O   0  0  0  0  0  0  0  0  0  0  0  0
  -24.6570  -31.9570   23.4550 C   0  0  0  0  0  0  0  0  0  0  0  0
  -27.0790  -27.7650   19.8470 C   0  0  0  0  0  0  0  0  0  0  0  0
  -23.3380  -30.6700   21.8060 C   0  0  0  0  0  3  0  0  0  0  0  0
  -24.6910  -29.2720   20.1440 C   0  0  0  0  0  0  0  0  0  0  0  0
  -25.8370  -31.0740   21.4400 C   0  0  0  0  0  2  0  0  0  0  0  0
  -25.8900  -29.7520   20.6920 C   0  0  0  0  0  0  0  0  0  0  0  0
  -27.0890  -29.0050   20.5430 C   0  0  0  0  0  3  0  0  0  0  0  0
  -25.8640  -27.3160   19.2920 C   0  0  0  0  0  3  0  0  0  0  0  0
  -24.6750  -28.0590   19.4360 C   0  0  0  0  0  3  0  0  0  0  0  0
  -23.4460  -30.1100   20.3590 C   0  0  0  0  0  2  0  0  0  0  0  0
  -24.6350  -31.2440   22.2940 N   0  0  0  0  0  0  0  0  0  0  0  0
  -23.6200  -32.1740   24.0990 O   0  0  0  0  0  0  0  0  0  0  0  0
  -22.7740  -29.5690   22.7330 C   0  0  0  0  0  0  0  0  0  0  0  0
  -21.4760  -29.2610   22.5770 N   0  0  0  0  0  0  0  0  0  0  0  0
  -23.5020  -28.9990   23.5500 O   0  0  0  0  0  0  0  0  0  0  0  0
  -20.9510  -29.7690   21.8780 H   0  0  0  0  0  0  0  0  0  0  0  0
  -18.3060  -27.5370   22.8040 C   0  0  0  0  0  0  0  0  0  0  0  0
  -20.7450  -28.2310   23.3150 C   0  0  0  0  0  3  0  0  0  0  0  0
  -21.1410  -26.8200   22.8220 C   0  0  0  0  0  2  0  0  0  0  0  0
  -20.2170  -26.2800   21.7240 C   0  0  0  0  0  2  0  0  0  0  0  0
  -18.7700  -26.2150   22.2180 C   0  0  0  0  0  2  0  0  0  0  0  0
  -19.2350  -28.4910   23.3030 C   0  0  0  0  0  0  0  0  0  0  0  0
  -18.7520  -29.7190   23.8060 C   0  0  0  0  0  3  0  0  0  0  0  0
  -17.3750  -30.0030   23.8120 C   0  0  0  0  0  3  0  0  0  0  0  0
  -16.4610  -29.0520   23.3280 C   0  0  0  0  0  3  0  0  0  0  0  0
  -16.9240  -27.8200   22.8330 C   0  0  0  0  0  3  0  0  0  0  0  0
  -25.9820  -32.5590   24.0170 C   0  0  0  0  0  3  0  0  0  0  0  0
  -26.5460  -31.7550   25.2510 C   0  0  1  0  0  0  0  0  0  0  0  0
  -25.4920  -31.4940   26.3510 C   0  0  0  0  0  1  0  0  0  0  0  0
  -27.1080  -30.3880   24.7950 C   0  0  0  0  0  1  0  0  0  0  0  0
  -27.7220  -32.5320   25.8870 C   0  0  0  0  0  1  0  0  0  0  0  0
  -25.7150  -33.9550   24.3870 N   0  0  0  0  0  0  0  0  0  0  0  0
  -26.0420  -35.0140   23.6370 C   0  0  0  0  0  0  0  0  0  0  0  0
  -26.6740  -34.9200   22.5800 O   0  0  0  0  0  0  0  0  0  0  0  0
  -25.1380  -34.1020   25.2010 H   0  0  0  0  0  0  0  0  0  0  0  0
  -24.3200  -36.8280   23.3920 C   0  0  0  0  0  1  0  0  0  0  0  0
  -25.5960  -36.4020   24.1360 C   0  0  0  0  0  3  0  0  0  0  0  0
  -27.7830  -37.2370   24.8700 C   0  0  0  0  0  1  0  0  0  0  0  0
  -26.6370  -37.4430   23.9880 N   0  0  0  0  0  0  0  0  0  0  0  0
  -26.2530  -38.3650   24.1740 H   0  0  0  0  0  0  0  0  0  0  0  0
  1  2  2  0
  1  4  1  0
  3 12  1  0
  3  7  1  0
  5  7  1  0
  5  1  1  0
  6  4  1  0
  7  6  1  0
  8  3  2  0
  9 13  1  0
 10 14  2  0
 12  9  2  0
 12 10  1  0
 13 23  1  0
 13 11  2  0
 14 11  1  0
 14 53  1  0
 15 21  1  0
 16 21  1  0
 17 18  1  0
 17 16  1  0
 19 18  1  0
 19 28  1  0
 19 20  1  0
 21 20  1  0
 22 15  2  0
 23 15  1  0
 24 23  1  0
 25 26  2  0
 26 45  1  0
 27 26  1  0
 27 30  1  0
 28 29  1  0
 28 25  1  0
 29 27  2  0
 30 31  1  0
 31 32  2  0
 33 36  1  0
 33 32  1  0
 34 33  2  0
 35 34  1  0
 35 30  2  0
 36 37  1  0
 37 38  1  0
 38 39  2  0
 40 39  1  0
 40 44  1  0
 41 40  2  0
 42 37  2  0
 42 41  1  0
 43 42  1  0
 45 46  1  0
 46 49  1  0
 46 48  1  0
 47 45  2  0
 50 51  1  0
 50 25  1  0
 52 50  1  0
 53 54  1  0
 56 55  2  0
 56 54  1  0
 57 59  1  0
 57  2  1  0
 58 69  2  0
 59 64  1  0
 60 68  1  0
 60 70  1  0
 61 67  1  0
 61 63  1  0
 62 68  1  0
 63 62  1  0
 64 63  2  0
 65 66  1  0
 65 59  2  0
 66 61  2  0
 67 60  1  0
 68 58  1  0
 70 72  2  0
 71 70  1  0
 73 71  1  0
 74 83  2  0
 74 79  1  0
 75 71  1  0
 76 75  1  0
 77 78  1  0
 77 76  1  0
 78 74  1  0
 79 75  1  0
 79 80  2  0
 80 81  1  0
 82 81  2  0
 83 82  1  0
 84 58  1  0
 84 89  1  0
 84 85  1  0
 85 88  1  1
 85 86  1  0
 87 85  1  0
 89 92  1  0
 90 94  1  0
 90 89  1  0
 91 90  2  0
 94 93  1  0
 96 94  1  0
 96 97  1  0
 96 95  1  0
M  ISO  4   2 101  15 100  23 100  57 101
M  END
>  <TORSDO>  (82) 
F 20

>  <SCORE>  (82) 
-11.803

>  <name>  (82) 
82

>  <ligand_id>  (82) 
82

>  <original_smiles>  (82) 
[H]C([H])=C([H])C([H])([H])Oc1c([H])c(C(=O)N2C([H])([H])C(=C([H])Oc3c([H])c([H])c4c(c3[H])C([H])([H])N(C(=O)C([H])(N([H])C(=O)C([H])(N([H])C([H])([H])[H])C([H])([H])[H])C(C([H])([H])[H])(C([H])([H])[H])C([H])([H])[H])C([H])(C(=O)N([H])C3([H])c5c([H])c([H])c([H])c([H])c5C([H])([H])C([H])([H])C3([H])[H])C4([H])[H])C([H])([H])C2([H])[H])c([H])c(N([H])C(=O)N2C([H])([H])C([H])([H])C([H])([H])C([H])(n3nc(-c4c([H])c([H])c(Oc5c([H])c([H])c(F)c([H])c5F)c([H])c4[H])c(C(=O)N([H])[H])c3N([H])[H])C2([H])[H])c1[H]

>  <smiles>  (82) 
[H]C([H])=C([H])C([H])([H])Oc1c([H])c(C(=O)N2C([H])([H])C(=C([H])Oc3c([H])c([H])c4c(c3[H])C([H])([H])N(C(=O)C([H])(N([H])C(=O)C([H])(N([H])C([H])([H])[H])C([H])([H])[H])C(C([H])([H])[H])(C([H])([H])[H])C([H])([H])[H])C([H])(C(=O)N([H])C3([H])c5c([H])c([H])c([H])c([H])c5C([H])([H])C([H])([H])C3([H])[H])C4([H])[H])C([H])([H])C2([H])[H])c([H])c(N([H])C(=O)N2C([H])([H])C([H])([H])C([H])([H])C([H])(n3nc(-c4c([H])c([H])c(Oc5c([H])c([H])c(F)c([H])c5F)c([H])c4[H])c(C(=O)N([H])[H])c3N([H])[H])C2([H])[H])c1[H]

$$$$
83:0:0
     RDKit          3D

 97106  0  0  1  0  0  0  0  0999 V2000
  -30.0190  -17.8420   20.2400 C   0  0  0  0  0  3  0  0  0  0  0  0
  -27.2450  -17.6190   20.2880 C   0  0  0  0  0  3  0  0  0  0  0  0
  -29.4460  -16.5630   20.5670 C   0  0  0  0  0  0  0  0  0  0  0  0
  -28.0240  -16.5120   20.6970 C   0  0  0  0  0  0  0  0  0  0  0  0
  -29.2250  -19.0150   19.9940 C   0  0  0  0  0  0  0  0  0  0  0  0
  -27.8200  -18.8540   19.9020 C   0  0  0  0  0  0  0  0  0  0  0  0
  -29.4730  -21.5390   20.3010 C   0  0  0  0  0  0  0  0  0  0  0  0
  -29.8280  -20.3230   19.7760 N   0  0  0  0  0  0  0  0  0  0  0  0
  -28.6230  -21.6630   21.1850 O   0  0  0  0  0  0  0  0  0  0  0  0
  -30.6390  -20.3390   19.1720 H   0  0  0  0  0  0  0  0  0  0  0  0
  -30.2180  -22.8180   19.8030 C   0  0  0  0  0  2  0  0  0  0  0  0
  -29.9460  -24.2140   20.5080 C   0  0  0  0  0  2  0  0  0  0  0  0
  -28.7720  -25.1040   19.9710 C   0  0  0  0  0  2  0  0  0  0  0  0
  -28.8360  -26.5260   20.3180 O   0  0  0  0  0  0  0  0  0  0  0  0
  -24.8450  -31.7450   23.1970 C   0  0  0  0  0  0  0  0  0  0  0  0
  -27.6680  -27.2870   20.2310 C   0  0  0  0  0  0  0  0  0  0  0  0
  -23.7200  -30.3090   21.5300 C   0  0  0  0  0  3  0  0  0  0  0  0
  -25.2470  -28.7950   20.1530 C   0  0  0  0  0  0  0  0  0  0  0  0
  -26.2490  -30.7080   21.4050 C   0  0  0  0  0  2  0  0  0  0  0  0
  -26.3840  -29.3330   20.7710 C   0  0  0  0  0  0  0  0  0  0  0  0
  -27.5960  -28.5910   20.7980 C   0  0  0  0  0  3  0  0  0  0  0  0
  -26.5060  -26.7860   19.5990 C   0  0  0  0  0  3  0  0  0  0  0  0
  -25.3090  -27.5250   19.5590 C   0  0  0  0  0  3  0  0  0  0  0  0
  -23.9860  -29.6300   20.1600 C   0  0  0  0  0  2  0  0  0  0  0  0
  -24.9550  -30.9370   22.1020 N   0  0  0  0  0  0  0  0  0  0  0  0
  -23.7410  -31.9940   23.7020 O   0  0  0  0  0  0  0  0  0  0  0  0
  -23.0620  -29.2780   22.4760 C   0  0  0  0  0  0  0  0  0  0  0  0
  -21.7330  -29.1150   22.3610 N   0  0  0  0  0  0  0  0  0  0  0  0
  -23.7440  -28.6270   23.2710 O   0  0  0  0  0  0  0  0  0  0  0  0
  -21.2410  -29.6930   21.6940 H   0  0  0  0  0  0  0  0  0  0  0  0
  -18.3400  -28.0120   22.9450 C   0  0  0  0  0  0  0  0  0  0  0  0
  -20.9140  -28.1720   23.1240 C   0  0  0  0  0  3  0  0  0  0  0  0
  -20.9430  -26.7650   22.4830 C   0  0  0  0  0  2  0  0  0  0  0  0
  -19.7910  -26.5240   21.5020 C   0  0  0  0  0  2  0  0  0  0  0  0
  -18.4420  -26.6890   22.2050 C   0  0  0  0  0  2  0  0  0  0  0  0
  -19.5010  -28.7150   23.3630 C   0  0  0  0  0  0  0  0  0  0  0  0
  -19.3510  -29.9580   24.0170 C   0  0  0  0  0  3  0  0  0  0  0  0
  -18.0710  -30.4960   24.2560 C   0  0  0  0  0  3  0  0  0  0  0  0
  -16.9250  -29.7880   23.8540 C   0  0  0  0  0  3  0  0  0  0  0  0
  -17.0610  -28.5480   23.2040 C   0  0  0  0  0  3  0  0  0  0  0  0
  -26.0960  -32.4100   23.8480 C   0  0  0  0  0  3  0  0  0  0  0  0
  -25.7340  -33.7940   24.1860 N   0  0  0  0  0  0  0  0  0  0  0  0
  -26.0200  -34.8620   23.4290 C   0  0  0  0  0  0  0  0  0  0  0  0
  -26.6870  -34.7910   22.3930 O   0  0  0  0  0  0  0  0  0  0  0  0
  -25.1400  -33.9220   24.9910 H   0  0  0  0  0  0  0  0  0  0  0  0
  -24.2070  -36.5770   23.1120 C   0  0  0  0  0  1  0  0  0  0  0  0
  -25.4820  -36.2280   23.8960 C   0  0  0  0  0  3  0  0  0  0  0  0
  -27.5900  -37.2120   24.6860 C   0  0  0  0  0  1  0  0  0  0  0  0
  -26.4640  -37.3260   23.7610 N   0  0  0  0  0  0  0  0  0  0  0  0
  -26.0190  -38.2280   23.9150 H   0  0  0  0  0  0  0  0  0  0  0  0
  -26.6140  -31.6440   25.1260 C   0  0  1  0  0  0  0  0  0  0  0  0
  -25.5070  -31.3570   26.1690 C   0  0  0  0  0  1  0  0  0  0  0  0
  -27.2520  -30.2920   24.7330 C   0  0  0  0  0  1  0  0  0  0  0  0
  -27.7220  -32.4730   25.8190 C   0  0  0  0  0  1  0  0  0  0  0  0
  -30.2930  -15.3550   20.9680 C   0  0  0  0  0  0  0  0  0  0  0  0
  -30.7240  -15.2580   22.1580 N   0  0  0  0  0  0  0  0  0  0  0  0
  -30.4060  -16.0350   22.7260 H   0  0  0  0  0  0  0  0  0  0  0  0
  -30.6960  -14.2680   19.9400 C   0  0  0  0  0  0  0  0  0  0  0  0
  -30.4610  -11.9900   18.9760 C   0  0  0  0  0  2  0  0  0  0  0  0
  -29.4970  -11.9720   17.7710 C   0  0  0  0  0  2  0  0  0  0  0  0
  -28.0310  -11.8330   18.2280 C   0  0  0  0  0  2  0  0  0  0  0  0
  -27.6710  -12.7920   19.3940 C   0  0  0  0  0  3  0  0  0  0  0  0
  -28.7450  -12.7080   20.5040 C   0  0  0  0  0  2  0  0  0  0  0  0
  -30.0390  -13.0610   19.9040 N   0  0  0  0  0  0  0  0  0  0  0  0
  -31.7170  -14.4640   19.2710 O   0  0  0  0  0  0  0  0  0  0  0  0
  -25.2580  -13.4120   20.0370 C   0  0  0  0  0  0  0  0  0  0  0  0
  -24.2020  -12.6580   20.4780 C   0  0  0  0  0  0  0  0  0  0  0  0
  -24.6770  -11.3130   20.5330 C   0  0  0  0  0  0  0  0  0  0  0  0
  -26.3200  -12.5330   19.8910 N   0  0  0  0  0  0  0  0  0  0  0  0
  -25.9690  -11.2660   20.2300 N   0  0  0  0  0  0  0  0  0  0  0  0
  -23.9590  -10.0590   20.7990 C   0  0  0  0  0  0  0  0  0  0  0  0
  -24.4520   -9.1060   21.7180 C   0  0  0  0  0  3  0  0  0  0  0  0
  -23.7370   -7.9150   21.9690 C   0  0  0  0  0  3  0  0  0  0  0  0
  -22.5130   -7.6680   21.3040 C   0  0  0  0  0  0  0  0  0  0  0  0
  -22.0370   -8.6080   20.3720 C   0  0  0  0  0  3  0  0  0  0  0  0
  -22.7540   -9.7900   20.1190 C   0  0  0  0  0  3  0  0  0  0  0  0
  -21.7640   -6.5280   21.4670 O   0  0  0  0  0  0  0  0  0  0  0  0
  -21.7980   -5.8050   22.6330 C   0  0  0  0  0  0  0  0  0  0  0  0
  -21.4280   -6.3720   23.8720 C   0  0  0  0  0  3  0  0  0  0  0  0
  -21.4110   -5.5740   25.0340 C   0  0  0  0  0  3  0  0  0  0  0  0
  -21.7520   -4.2100   24.9570 C   0  0  0  0  0  0  0  0  0  0  0  0
  -22.1150   -3.6440   23.7230 C   0  0  0  0  0  3  0  0  0  0  0  0
  -22.1350   -4.4390   22.5640 C   0  0  0  0  0  0  0  0  0  0  0  0
  -22.4630   -3.8810   21.3740 F   0  0  0  0  0  0  0  0  0  0  0  0
  -21.7290   -3.4430   26.0710 F   0  0  0  0  0  0  0  0  0  0  0  0
  -22.8040  -13.1430   20.7340 C   0  0  0  0  0  0  0  0  0  0  0  0
  -22.1070  -12.5210   21.6790 N   0  0  0  0  0  0  0  0  0  0  0  0
  -22.3380  -14.1090   20.1320 O   0  0  0  0  0  0  0  0  0  0  0  0
  -22.4960  -11.7410   22.1870 H   0  0  0  0  0  0  0  0  0  0  0  0
  -21.1710  -12.8320   21.8960 H   0  0  0  0  0  0  0  0  0  0  0  0
  -25.3890  -14.7600   19.7210 N   0  0  0  0  0  4  0  0  0  0  0  0
  -24.5980  -15.3930   19.7290 H   0  0  0  0  0  0  0  0  0  0  0  0
  -26.2420  -15.1930   19.3910 H   0  0  0  0  0  0  0  0  0  0  0  0
  -25.6970  -19.7070   19.1150 C   0  0  0  0  0  1  0  0  0  0  0  0
  -27.0690  -19.9110   19.4270 O   0  0  0  0  0  0  0  0  0  0  0  0
  -26.0010  -15.0830   21.2520 C   0  0  0  0  0  2  0  0  0  0  0  0
  -27.3210  -15.3310   21.2560 C   0  0  0  0  0  2  0  0  0  0  0  0
  1  3  1  0
  2  4  1  0
  3  4  2  0
  3 55  1  0
  4 97  1  0
  5  1  2  0
  6  5  1  0
  6  2  2  0
  7  9  2  0
  8  5  1  0
  8  7  1  0
 10  8  1  0
 11  7  1  0
 11 12  1  0
 13 14  1  0
 13 12  1  0
 15 26  2  0
 16 14  1  0
 16 21  1  0
 17 25  1  0
 17 27  1  0
 18 24  1  0
 18 20  1  0
 19 25  1  0
 20 21  2  0
 20 19  1  0
 22 16  2  0
 23 22  1  0
 23 18  2  0
 24 17  1  0
 25 15  1  0
 27 29  2  0
 28 27  1  0
 30 28  1  0
 31 40  2  0
 31 36  1  0
 32 28  1  0
 32 36  1  0
 33 32  1  0
 34 35  1  0
 34 33  1  0
 35 31  1  0
 36 37  2  0
 37 38  1  0
 39 38  2  0
 40 39  1  0
 41 15  1  0
 41 42  1  0
 41 51  1  0
 42 45  1  0
 43 47  1  0
 43 42  1  0
 44 43  2  0
 47 46  1  0
 49 47  1  0
 49 50  1  0
 49 48  1  0
 51 54  1  1
 51 52  1  0
 53 51  1  0
 55 56  2  0
 56 57  1  0
 58 55  1  0
 59 64  1  0
 60 61  1  0
 60 59  1  0
 62 61  1  0
 62 69  1  0
 62 63  1  0
 64 58  1  0
 64 63  1  0
 65 58  2  0
 66 67  2  0
 67 68  1  0
 67 86  1  0
 68 71  1  0
 69 66  1  0
 69 70  1  0
 70 68  2  0
 71 72  1  0
 72 73  2  0
 74 77  1  0
 74 73  1  0
 75 74  2  0
 76 75  1  0
 76 71  2  0
 77 78  1  0
 78 79  1  0
 79 80  2  0
 81 80  1  0
 81 85  1  0
 82 81  2  0
 83 78  2  0
 83 82  1  0
 84 83  1  0
 86 87  1  0
 87 90  1  0
 87 89  1  0
 88 86  2  0
 91 92  1  0
 91 66  1  0
 91 96  1  0
 93 91  1  0
 94 95  1  0
 95  6  1  0
 96 97  1  0
M  ISO  4  13 101  14 101  55 100  58 100
M  END
>  <TORSDO>  (83) 
F 23

>  <SCORE>  (83) 
-9.846

>  <name>  (83) 
83

>  <ligand_id>  (83) 
83

>  <original_smiles>  (83) 
[H]N=C(C(=O)N1C([H])([H])C([H])([H])C([H])([H])C([H])(n2nc(-c3c([H])c([H])c(Oc4c([H])c([H])c(F)c([H])c4F)c([H])c3[H])c(C(=O)N([H])[H])c2N([H])[H])C1([H])[H])c1c([H])c(N([H])C(=O)C([H])([H])C([H])([H])C([H])([H])Oc2c([H])c([H])c3c(c2[H])C([H])([H])N(C(=O)C([H])(N([H])C(=O)C([H])(N([H])C([H])([H])[H])C([H])([H])[H])C(C([H])([H])[H])(C([H])([H])[H])C([H])([H])[H])C([H])(C(=O)N([H])C2([H])c4c([H])c([H])c([H])c([H])c4C([H])([H])C([H])([H])C2([H])[H])C3([H])[H])c(OC([H])([H])[H])c([H])c1C([H])=C([H])[H]

>  <smiles>  (83) 
[H]N=C(C(=O)N1C([H])([H])C([H])([H])C([H])([H])C([H])(n2nc(-c3c([H])c([H])c(Oc4c([H])c([H])c(F)c([H])c4F)c([H])c3[H])c(C(=O)N([H])[H])c2N([H])[H])C1([H])[H])c1c([H])c(N([H])C(=O)C([H])([H])C([H])([H])C([H])([H])Oc2c([H])c([H])c3c(c2[H])C([H])([H])N(C(=O)C([H])(N([H])C(=O)C([H])(N([H])C([H])([H])[H])C([H])([H])[H])C(C([H])([H])[H])(C([H])([H])[H])C([H])([H])[H])C([H])(C(=O)N([H])C2([H])c4c([H])c([H])c([H])c([H])c4C([H])([H])C([H])([H])C2([H])[H])C3([H])[H])c(OC([H])([H])[H])c([H])c1C([H])=C([H])[H]

$$$$
84:0:0
     RDKit          3D

 91 99  0  0  1  0  0  0  0  0999 V2000
  -29.6860  -22.2550   20.7090 C   0  0  0  0  0  3  0  0  0  0  0  0
  -29.5110  -19.6710   20.1970 C   0  0  0  0  0  0  0  0  0  0  0  0
  -30.1360  -20.7760   20.7870 C   0  0  0  0  0  0  0  0  0  0  0  0
  -28.5950  -22.7550   20.0310 C   0  0  0  0  0  0  0  0  0  0  0  0
  -28.3310  -20.1860   19.3990 C   0  0  0  0  0  0  0  0  0  0  0  0
  -31.3920  -20.5100   21.5990 C   0  0  0  0  0  1  0  0  0  0  0  0
  -27.9210  -21.5810   19.3920 N   0  0  0  0  0  0  0  0  0  0  0  0
  -27.7260  -19.3470   18.7210 O   0  0  0  0  0  0  0  0  0  0  0  0
  -25.4500  -21.0420   18.8880 C   0  0  0  0  0  1  0  0  0  0  0  0
  -27.0200  -22.0260   17.0910 C   0  0  0  0  0  1  0  0  0  0  0  0
  -26.6980  -21.9070   18.5920 C   0  0  0  0  0  3  0  0  0  0  0  0
  -30.1000  -18.1240   20.2170 C   0  0  0  0  0  3  0  0  0  0  0  0
  -29.6980  -16.7120   20.1630 C   0  0  0  0  0  3  0  0  0  0  0  0
  -30.5410  -15.3260   20.1340 C   0  0  0  0  0  0  0  0  0  0  0  0
  -30.5220  -12.8460   19.3840 C   0  0  0  0  0  2  0  0  0  0  0  0
  -29.6130  -12.6200   18.1490 C   0  0  0  0  0  2  0  0  0  0  0  0
  -28.1580  -12.3590   18.5840 C   0  0  0  0  0  2  0  0  0  0  0  0
  -27.6970  -13.3610   19.6710 C   0  0  0  0  0  3  0  0  0  0  0  0
  -28.7340  -13.5540   20.7950 C   0  0  0  0  0  2  0  0  0  0  0  0
  -29.9820  -14.0170   20.1670 N   0  0  0  0  0  0  0  0  0  0  0  0
  -31.7600  -15.3020   19.9160 O   0  0  0  0  0  0  0  0  0  0  0  0
  -25.3470  -13.9370   20.4730 C   0  0  0  0  0  0  0  0  0  0  0  0
  -24.2790  -13.1660   20.8370 C   0  0  0  0  0  0  0  0  0  0  0  0
  -24.7240  -11.8110   20.7660 C   0  0  0  0  0  0  0  0  0  0  0  0
  -26.3710  -13.0520   20.1890 N   0  0  0  0  0  0  0  0  0  0  0  0
  -26.0100  -11.7660   20.4370 N   0  0  0  0  0  0  0  0  0  0  0  0
  -23.9790  -10.5540   20.9330 C   0  0  0  0  0  0  0  0  0  0  0  0
  -24.3990   -9.5600   21.8440 C   0  0  0  0  0  3  0  0  0  0  0  0
  -23.6510   -8.3730   22.0010 C   0  0  0  0  0  3  0  0  0  0  0  0
  -22.4700   -8.1720   21.2480 C   0  0  0  0  0  0  0  0  0  0  0  0
  -22.0700   -9.1550   20.3260 C   0  0  0  0  0  3  0  0  0  0  0  0
  -22.8180  -10.3340   20.1670 C   0  0  0  0  0  3  0  0  0  0  0  0
  -21.6950   -7.0400   21.3160 O   0  0  0  0  0  0  0  0  0  0  0  0
  -21.6340   -6.2760   22.4540 C   0  0  0  0  0  0  0  0  0  0  0  0
  -21.2090   -6.8120   23.6900 C   0  0  0  0  0  3  0  0  0  0  0  0
  -21.0950   -5.9750   24.8190 C   0  0  0  0  0  3  0  0  0  0  0  0
  -21.3950   -4.6030   24.7120 C   0  0  0  0  0  0  0  0  0  0  0  0
  -21.8110   -4.0670   23.4820 C   0  0  0  0  0  3  0  0  0  0  0  0
  -21.9270   -4.9000   22.3550 C   0  0  0  0  0  0  0  0  0  0  0  0
  -22.3080   -4.3740   21.1660 F   0  0  0  0  0  0  0  0  0  0  0  0
  -21.2780   -3.7980   25.7940 F   0  0  0  0  0  0  0  0  0  0  0  0
  -22.8910  -13.6590   21.1310 C   0  0  0  0  0  0  0  0  0  0  0  0
  -22.1610  -12.9580   21.9910 N   0  0  0  0  0  0  0  0  0  0  0  0
  -22.4640  -14.7010   20.6350 O   0  0  0  0  0  0  0  0  0  0  0  0
  -22.5180  -12.1160   22.4180 H   0  0  0  0  0  0  0  0  0  0  0  0
  -21.2320  -13.2700   22.2320 H   0  0  0  0  0  0  0  0  0  0  0  0
  -25.5290  -15.3100   20.3310 N   0  0  0  0  0  0  0  0  0  0  0  0
  -24.7780  -15.9750   20.4810 H   0  0  0  0  0  0  0  0  0  0  0  0
  -26.3820  -15.7440   20.0000 H   0  0  0  0  0  0  0  0  0  0  0  0
  -27.9440  -24.3830   19.8290 C   0  0  0  0  0  2  0  0  0  0  0  0
  -28.3210  -25.9340   20.1840 O   0  0  0  0  0  0  0  0  0  0  0  0
  -24.7020  -31.8300   23.2030 C   0  0  0  0  0  0  0  0  0  0  0  0
  -27.3310  -27.0490   20.1160 C   0  0  0  0  0  0  0  0  0  0  0  0
  -23.5440  -30.4750   21.5070 C   0  0  0  0  0  3  0  0  0  0  0  0
  -25.0250  -28.9190   20.0680 C   0  0  0  0  0  0  0  0  0  0  0  0
  -26.1130  -30.6990   21.4170 C   0  0  0  0  0  2  0  0  0  0  0  0
  -26.2010  -29.3110   20.7230 C   0  0  0  0  0  0  0  0  0  0  0  0
  -27.3480  -28.3970   20.7230 C   0  0  0  0  0  3  0  0  0  0  0  0
  -26.1270  -26.8160   19.4100 C   0  0  0  0  0  3  0  0  0  0  0  0
  -25.0150  -27.6930   19.3900 C   0  0  0  0  0  3  0  0  0  0  0  0
  -23.8010  -29.8320   20.1180 C   0  0  0  0  0  2  0  0  0  0  0  0
  -24.8060  -31.0270   22.0960 N   0  0  0  0  0  0  0  0  0  0  0  0
  -23.6020  -32.1050   23.7100 O   0  0  0  0  0  0  0  0  0  0  0  0
  -22.8350  -29.4520   22.4320 C   0  0  0  0  0  0  0  0  0  0  0  0
  -21.5010  -29.3140   22.3020 N   0  0  0  0  0  0  0  0  0  0  0  0
  -23.4890  -28.7830   23.2350 O   0  0  0  0  0  0  0  0  0  0  0  0
  -21.0270  -29.9030   21.6330 H   0  0  0  0  0  0  0  0  0  0  0  0
  -18.0910  -28.1830   22.8100 C   0  0  0  0  0  0  0  0  0  0  0  0
  -20.6630  -28.3610   23.0370 C   0  0  0  0  0  3  0  0  0  0  0  0
  -20.7110  -26.9590   22.3860 C   0  0  0  0  0  2  0  0  0  0  0  0
  -19.5820  -26.7240   21.3780 C   0  0  0  0  0  2  0  0  0  0  0  0
  -18.2160  -26.8720   22.0530 C   0  0  0  0  0  2  0  0  0  0  0  0
  -19.2390  -28.8910   23.2570 C   0  0  0  0  0  0  0  0  0  0  0  0
  -19.0650  -30.1190   23.9290 C   0  0  0  0  0  3  0  0  0  0  0  0
  -17.7770  -30.6430   24.1540 C   0  0  0  0  0  3  0  0  0  0  0  0
  -16.6440  -29.9310   23.7220 C   0  0  0  0  0  3  0  0  0  0  0  0
  -16.8040  -28.7030   23.0560 C   0  0  0  0  0  3  0  0  0  0  0  0
  -25.9600  -32.4590   23.8770 C   0  0  0  0  0  3  0  0  0  0  0  0
  -26.4240  -31.6810   25.1700 C   0  0  1  0  0  0  0  0  0  0  0  0
  -25.2930  -31.4520   26.1990 C   0  0  0  0  0  1  0  0  0  0  0  0
  -27.0090  -30.2980   24.8040 C   0  0  0  0  0  1  0  0  0  0  0  0
  -27.5590  -32.4640   25.8720 C   0  0  0  0  0  1  0  0  0  0  0  0
  -25.6430  -33.8580   24.2160 N   0  0  0  0  0  0  0  0  0  0  0  0
  -25.9750  -34.9230   23.4740 C   0  0  0  0  0  0  0  0  0  0  0  0
  -26.6470  -34.8320   22.4430 O   0  0  0  0  0  0  0  0  0  0  0  0
  -25.0520  -34.0040   25.0210 H   0  0  0  0  0  0  0  0  0  0  0  0
  -24.2290  -36.7100   23.1650 C   0  0  0  0  0  1  0  0  0  0  0  0
  -25.4890  -36.3070   23.9490 C   0  0  0  0  0  3  0  0  0  0  0  0
  -27.6310  -37.2050   24.7460 C   0  0  0  0  0  1  0  0  0  0  0  0
  -26.5120  -37.3680   23.8220 N   0  0  0  0  0  0  0  0  0  0  0  0
  -26.1010  -38.2840   23.9830 H   0  0  0  0  0  0  0  0  0  0  0  0
  1  3  1  0
  2 12  1  0
  2  3  2  0
  3  6  1  0
  4  1  2  0
  5  2  1  0
  7  5  1  0
  7  4  1  0
  8  5  2  0
 10 11  1  0
 11  9  1  0
 11  7  1  0
 13 12  2  0
 14 13  1  0
 14 20  1  0
 15 20  1  0
 16 17  1  0
 16 15  1  0
 18 17  1  0
 18 25  1  0
 18 19  1  0
 20 19  1  0
 21 14  2  0
 22 23  2  0
 23 42  1  0
 24 23  1  0
 24 27  1  0
 25 26  1  0
 25 22  1  0
 26 24  2  0
 27 28  1  0
 28 29  2  0
 30 33  1  0
 30 29  1  0
 31 30  2  0
 32 31  1  0
 32 27  2  0
 33 34  1  0
 34 35  1  0
 35 36  2  0
 37 36  1  0
 37 41  1  0
 38 37  2  0
 39 34  2  0
 39 38  1  0
 40 39  1  0
 42 43  1  0
 43 46  1  0
 43 45  1  0
 44 42  2  0
 47 22  1  0
 47 48  1  0
 49 47  1  0
 50  4  1  0
 50 51  1  0
 52 63  2  0
 53 51  1  0
 53 58  1  0
 54 62  1  0
 54 64  1  0
 55 61  1  0
 55 57  1  0
 56 62  1  0
 57 58  2  0
 57 56  1  0
 59 53  2  0
 60 59  1  0
 60 55  2  0
 61 54  1  0
 62 52  1  0
 64 66  2  0
 65 64  1  0
 67 65  1  0
 68 77  2  0
 68 73  1  0
 69 65  1  0
 69 73  1  0
 70 69  1  0
 71 72  1  0
 71 70  1  0
 72 68  1  0
 73 74  2  0
 74 75  1  0
 76 75  2  0
 77 76  1  0
 78 52  1  0
 78 83  1  0
 78 79  1  0
 79 82  1  1
 79 80  1  0
 81 79  1  0
 83 86  1  0
 84 88  1  0
 84 83  1  0
 85 84  2  0
 88 87  1  0
 90 88  1  0
 90 91  1  0
 90 89  1  0
M  ISO  4  13 100  14 100  50 101  51 101
M  END
>  <TORSDO>  (84) 
F 19

>  <SCORE>  (84) 
-14.079

>  <name>  (84) 
84

>  <ligand_id>  (84) 
84

>  <original_smiles>  (84) 
[H]C(C(=O)N1C([H])([H])C([H])([H])C([H])([H])C([H])(n2nc(-c3c([H])c([H])c(Oc4c([H])c([H])c(F)c([H])c4F)c([H])c3[H])c(C(=O)N([H])[H])c2N([H])[H])C1([H])[H])=C([H])c1c(C([H])([H])[H])c([H])c(C([H])([H])Oc2c([H])c([H])c3c(c2[H])C([H])([H])N(C(=O)C([H])(N([H])C(=O)C([H])(N([H])C([H])([H])[H])C([H])([H])[H])C(C([H])([H])[H])(C([H])([H])[H])C([H])([H])[H])C([H])(C(=O)N([H])C2([H])c4c([H])c([H])c([H])c([H])c4C([H])([H])C([H])([H])C2([H])[H])C3([H])[H])n(C([H])(C([H])([H])[H])C([H])([H])[H])c1=O

>  <smiles>  (84) 
[H]C(C(=O)N1C([H])([H])C([H])([H])C([H])([H])C([H])(n2nc(-c3c([H])c([H])c(Oc4c([H])c([H])c(F)c([H])c4F)c([H])c3[H])c(C(=O)N([H])[H])c2N([H])[H])C1([H])[H])=C([H])c1c(C([H])([H])[H])c([H])c(C([H])([H])Oc2c([H])c([H])c3c(c2[H])C([H])([H])N(C(=O)C([H])(N([H])C(=O)C([H])(N([H])C([H])([H])[H])C([H])([H])[H])C(C([H])([H])[H])(C([H])([H])[H])C([H])([H])[H])C([H])(C(=O)N([H])C2([H])c4c([H])c([H])c([H])c([H])c4C([H])([H])C([H])([H])C2([H])[H])C3([H])[H])n(C([H])(C([H])([H])[H])C([H])([H])[H])c1=O

$$$$
85:0:0
     RDKit          3D

 94102  0  0  1  0  0  0  0  0999 V2000
  -29.6150  -19.9930   20.4740 C   0  0  0  0  0  3  0  0  0  0  0  0
  -27.4970  -19.3570   18.8330 C   0  0  0  0  0  3  0  0  0  0  0  0
  -29.5040  -18.5930   20.0370 C   0  0  0  0  0  0  0  0  0  0  0  0
  -27.6050  -20.6830   19.3090 C   0  0  0  0  0  0  0  0  0  0  0  0
  -28.7130  -21.0900   20.1080 C   0  0  0  0  0  0  0  0  0  0  0  0
  -28.4270  -18.3420   19.1380 C   0  0  0  0  0  0  0  0  0  0  0  0
  -26.4490  -21.6200   18.9730 C   0  0  0  0  0  1  0  0  0  0  0  0
  -30.9580  -14.9630   20.6660 C   0  0  0  0  0  0  0  0  0  0  0  0
  -30.8620  -12.5750   19.9000 C   0  0  0  0  0  2  0  0  0  0  0  0
  -30.0530  -12.4770   18.5880 C   0  0  0  0  0  2  0  0  0  0  0  0
  -28.5500  -12.3140   18.8900 C   0  0  0  0  0  2  0  0  0  0  0  0
  -28.0440  -13.3340   19.9440 C   0  0  0  0  0  3  0  0  0  0  0  0
  -28.9840  -13.4310   21.1630 C   0  0  0  0  0  2  0  0  0  0  0  0
  -30.3300  -13.7320   20.6610 N   0  0  0  0  0  0  0  0  0  0  0  0
  -32.1840  -14.9860   20.5240 O   0  0  0  0  0  0  0  0  0  0  0  0
  -30.5380  -17.4680   20.4360 C   0  0  0  0  0  0  0  0  0  0  0  0
  -30.1770  -16.1230   20.5850 N   0  0  0  0  0  0  0  0  0  0  0  0
  -31.7030  -17.8450   20.6150 O   0  0  0  0  0  0  0  0  0  0  0  0
  -29.1800  -15.9830   20.5170 H   0  0  0  0  0  0  0  0  0  0  0  0
  -25.6180  -13.9720   20.4610 C   0  0  0  0  0  0  0  0  0  0  0  0
  -24.5150  -13.2260   20.7700 C   0  0  0  0  0  0  0  0  0  0  0  0
  -24.9630  -11.8710   20.8380 C   0  0  0  0  0  0  0  0  0  0  0  0
  -26.6640  -13.0760   20.3400 N   0  0  0  0  0  0  0  0  0  0  0  0
  -26.2750  -11.8090   20.6390 N   0  0  0  0  0  0  0  0  0  0  0  0
  -24.2050  -10.6270   21.0220 C   0  0  0  0  0  0  0  0  0  0  0  0
  -24.5550   -9.6880   22.0170 C   0  0  0  0  0  3  0  0  0  0  0  0
  -23.8010   -8.5080   22.1890 C   0  0  0  0  0  3  0  0  0  0  0  0
  -22.6800   -8.2590   21.3610 C   0  0  0  0  0  0  0  0  0  0  0  0
  -22.3480   -9.1830   20.3550 C   0  0  0  0  0  3  0  0  0  0  0  0
  -23.1040  -10.3550   20.1840 C   0  0  0  0  0  3  0  0  0  0  0  0
  -21.9010   -7.1280   21.4370 O   0  0  0  0  0  0  0  0  0  0  0  0
  -21.7880   -6.4100   22.5990 C   0  0  0  0  0  0  0  0  0  0  0  0
  -21.2910   -6.9880   23.7870 C   0  0  0  0  0  3  0  0  0  0  0  0
  -21.1250   -6.1950   24.9410 C   0  0  0  0  0  3  0  0  0  0  0  0
  -21.4450   -4.8240   24.9050 C   0  0  0  0  0  0  0  0  0  0  0  0
  -21.9340   -4.2450   23.7210 C   0  0  0  0  0  3  0  0  0  0  0  0
  -22.1030   -5.0360   22.5710 C   0  0  0  0  0  0  0  0  0  0  0  0
  -22.5550   -4.4700   21.4270 F   0  0  0  0  0  0  0  0  0  0  0  0
  -21.2780   -4.0590   26.0090 F   0  0  0  0  0  0  0  0  0  0  0  0
  -23.1070  -13.7270   20.8960 C   0  0  0  0  0  0  0  0  0  0  0  0
  -22.3030  -13.0950   21.7450 N   0  0  0  0  0  0  0  0  0  0  0  0
  -22.7230  -14.7200   20.2760 O   0  0  0  0  0  0  0  0  0  0  0  0
  -22.6250  -12.2930   22.2660 H   0  0  0  0  0  0  0  0  0  0  0  0
  -21.3520  -13.4130   21.8660 H   0  0  0  0  0  0  0  0  0  0  0  0
  -25.8030  -15.3330   20.2470 N   0  0  0  0  0  0  0  0  0  0  0  0
  -25.0220  -15.9750   20.2830 H   0  0  0  0  0  0  0  0  0  0  0  0
  -26.6660  -15.7860   19.9450 H   0  0  0  0  0  0  0  0  0  0  0  0
  -28.2330  -17.1150   18.4930 N   0  0  0  0  0  0  0  0  0  0  0  0
  -27.5410  -17.1430   17.7490 H   0  0  0  0  0  0  0  0  0  0  0  0
  -29.0810  -16.6960   18.1270 H   0  0  0  0  0  0  0  0  0  0  0  0
  -28.5060  -23.6190   20.0530 C   0  0  0  0  0  2  0  0  0  0  0  0
  -28.7960  -22.4600   20.6480 N   0  0  0  0  0  2  0  0  0  0  0  0
  -28.1640  -25.0350   20.7700 C   0  0  0  0  0  2  0  0  0  0  0  0
  -28.2730  -26.3880   20.0980 O   0  0  0  0  0  0  0  0  0  0  0  0
  -24.5530  -31.8640   23.1900 C   0  0  0  0  0  0  0  0  0  0  0  0
  -27.1750  -27.2810   20.1220 C   0  0  0  0  0  0  0  0  0  0  0  0
  -23.3630  -30.4770   21.5310 C   0  0  0  0  0  3  0  0  0  0  0  0
  -24.8220  -28.9320   20.0990 C   0  0  0  0  0  0  0  0  0  0  0  0
  -25.9060  -30.7900   21.3620 C   0  0  0  0  0  2  0  0  0  0  0  0
  -25.9910  -29.4090   20.7070 C   0  0  0  0  0  0  0  0  0  0  0  0
  -27.1730  -28.5970   20.7040 C   0  0  0  0  0  3  0  0  0  0  0  0
  -25.9850  -26.8680   19.4960 C   0  0  0  0  0  3  0  0  0  0  0  0
  -24.8250  -27.6690   19.4830 C   0  0  0  0  0  3  0  0  0  0  0  0
  -23.5860  -29.8100   20.1470 C   0  0  0  0  0  2  0  0  0  0  0  0
  -24.6260  -31.0630   22.0850 N   0  0  0  0  0  0  0  0  0  0  0  0
  -23.4650  -32.1310   23.7230 O   0  0  0  0  0  0  0  0  0  0  0  0
  -22.6910  -29.4540   22.4820 C   0  0  0  0  0  0  0  0  0  0  0  0
  -21.3620  -29.2890   22.3600 N   0  0  0  0  0  0  0  0  0  0  0  0
  -23.3680  -28.8090   23.2880 O   0  0  0  0  0  0  0  0  0  0  0  0
  -20.8740  -29.8580   21.6850 H   0  0  0  0  0  0  0  0  0  0  0  0
  -17.9800  -28.1130   22.8910 C   0  0  0  0  0  0  0  0  0  0  0  0
  -20.5450  -28.3420   23.1220 C   0  0  0  0  0  3  0  0  0  0  0  0
  -20.6220  -26.9220   22.5110 C   0  0  0  0  0  2  0  0  0  0  0  0
  -19.5000  -26.6360   21.5080 C   0  0  0  0  0  2  0  0  0  0  0  0
  -18.1300  -26.7810   22.1770 C   0  0  0  0  0  2  0  0  0  0  0  0
  -19.1140  -28.8540   23.3210 C   0  0  0  0  0  0  0  0  0  0  0  0
  -18.9170  -30.1020   23.9500 C   0  0  0  0  0  3  0  0  0  0  0  0
  -17.6200  -30.6110   24.1510 C   0  0  0  0  0  3  0  0  0  0  0  0
  -16.5030  -29.8690   23.7360 C   0  0  0  0  0  3  0  0  0  0  0  0
  -16.6840  -28.6220   23.1120 C   0  0  0  0  0  3  0  0  0  0  0  0
  -25.8270  -32.4980   23.8260 C   0  0  0  0  0  3  0  0  0  0  0  0
  -26.3290  -31.7300   25.1110 C   0  0  1  0  0  0  0  0  0  0  0  0
  -25.2240  -31.4960   26.1690 C   0  0  0  0  0  1  0  0  0  0  0  0
  -26.9130  -30.3500   24.7290 C   0  0  0  0  0  1  0  0  0  0  0  0
  -27.4750  -32.5240   25.7820 C   0  0  0  0  0  1  0  0  0  0  0  0
  -25.5170  -33.8980   24.1530 N   0  0  0  0  0  0  0  0  0  0  0  0
  -25.8790  -34.9540   23.4100 C   0  0  0  0  0  0  0  0  0  0  0  0
  -26.5760  -34.8490   22.3970 O   0  0  0  0  0  0  0  0  0  0  0  0
  -24.9030  -34.0530   24.9390 H   0  0  0  0  0  0  0  0  0  0  0  0
  -24.1900  -36.7730   23.0020 C   0  0  0  0  0  1  0  0  0  0  0  0
  -25.3910  -36.3440   23.8600 C   0  0  0  0  0  3  0  0  0  0  0  0
  -27.4970  -37.1970   24.7920 C   0  0  0  0  0  1  0  0  0  0  0  0
  -26.4420  -37.3840   23.8000 N   0  0  0  0  0  0  0  0  0  0  0  0
  -26.0420  -38.3090   23.9320 H   0  0  0  0  0  0  0  0  0  0  0  0
  2  6  2  0
  2  4  1  0
  3 16  1  0
  3  1  2  0
  4  5  2  0
  5  1  1  0
  5 52  1  0
  6  3  1  0
  7  4  1  0
  9 14  1  0
 10 11  1  0
 10  9  1  0
 12 11  1  0
 12 23  1  0
 12 13  1  0
 14  8  1  0
 14 13  1  0
 15  8  2  0
 16 17  1  0
 16 18  2  0
 17  8  1  0
 19 17  1  0
 20 21  2  0
 21 22  1  0
 21 40  1  0
 22 25  1  0
 23 20  1  0
 23 24  1  0
 24 22  2  0
 25 26  1  0
 26 27  2  0
 28 31  1  0
 28 27  1  0
 29 28  2  0
 30 29  1  0
 30 25  2  0
 31 32  1  0
 32 33  1  0
 33 34  2  0
 35 34  1  0
 35 39  1  0
 36 35  2  0
 37 32  2  0
 37 36  1  0
 38 37  1  0
 40 41  1  0
 41 44  1  0
 41 43  1  0
 42 40  2  0
 45 46  1  0
 45 20  1  0
 47 45  1  0
 48  6  1  0
 49 48  1  0
 50 48  1  0
 51 52  1  0
 51 53  1  0
 54 56  1  0
 54 53  1  0
 55 66  2  0
 56 61  1  0
 57 65  1  0
 57 67  1  0
 58 64  1  0
 58 60  1  0
 59 65  1  0
 60 59  1  0
 61 60  2  0
 62 56  2  0
 63 62  1  0
 63 58  2  0
 64 57  1  0
 65 55  1  0
 67 69  2  0
 68 67  1  0
 70 68  1  0
 71 80  2  0
 71 76  1  0
 72 68  1  0
 72 76  1  0
 73 72  1  0
 74 75  1  0
 74 73  1  0
 75 71  1  0
 76 77  2  0
 77 78  1  0
 79 78  2  0
 80 79  1  0
 81 55  1  0
 81 86  1  0
 81 82  1  0
 82 85  1  1
 82 83  1  0
 84 82  1  0
 86 89  1  0
 87 91  1  0
 87 86  1  0
 88 87  2  0
 91 90  1  0
 93 91  1  0
 93 94  1  0
 93 92  1  0
M  ISO  4   8 100  17 100  53 101  54 101
M  END
>  <TORSDO>  (85) 
F 19

>  <SCORE>  (85) 
-14.421

>  <name>  (85) 
85

>  <ligand_id>  (85) 
85

>  <original_smiles>  (85) 
[H]C(=Nc1c([H])c(C(=O)N([H])C(=O)N2C([H])([H])C([H])([H])C([H])([H])C([H])(n3nc(-c4c([H])c([H])c(Oc5c([H])c([H])c(F)c([H])c5F)c([H])c4[H])c(C(=O)N([H])[H])c3N([H])[H])C2([H])[H])c(N([H])[H])c([H])c1C([H])([H])[H])C([H])([H])Oc1c([H])c([H])c2c(c1[H])C([H])([H])N(C(=O)C([H])(N([H])C(=O)C([H])(N([H])C([H])([H])[H])C([H])([H])[H])C(C([H])([H])[H])(C([H])([H])[H])C([H])([H])[H])C([H])(C(=O)N([H])C1([H])c3c([H])c([H])c([H])c([H])c3C([H])([H])C([H])([H])C1([H])[H])C2([H])[H]

>  <smiles>  (85) 
[H]C(=Nc1c([H])c(C(=O)N([H])C(=O)N2C([H])([H])C([H])([H])C([H])([H])C([H])(n3nc(-c4c([H])c([H])c(Oc5c([H])c([H])c(F)c([H])c5F)c([H])c4[H])c(C(=O)N([H])[H])c3N([H])[H])C2([H])[H])c(N([H])[H])c([H])c1C([H])([H])[H])C([H])([H])Oc1c([H])c([H])c2c(c1[H])C([H])([H])N(C(=O)C([H])(N([H])C(=O)C([H])(N([H])C([H])([H])[H])C([H])([H])[H])C(C([H])([H])[H])(C([H])([H])[H])C([H])([H])[H])C([H])(C(=O)N([H])C1([H])c3c([H])c([H])c([H])c([H])c3C([H])([H])C([H])([H])C1([H])[H])C2([H])[H]

$$$$
86:0:0
     RDKit          3D

 87 95  0  0  1  0  0  0  0  0999 V2000
  -28.3230  -22.3920   20.5620 C   0  0  0  0  0  3  0  0  0  0  0  0
  -28.8750  -23.6600   20.4000 C   0  0  0  0  0  3  0  0  0  0  0  0
  -27.6250  -19.9440   20.5180 C   0  0  0  0  0  3  0  0  0  0  0  0
  -28.6360  -20.8690   20.3980 C   0  0  0  0  0  0  0  0  0  0  0  0
  -29.4340  -18.7410   20.1670 C   0  0  0  0  0  0  0  0  0  0  0  0
  -29.8070  -20.0760   20.1550 N   0  0  0  0  0  0  0  0  0  0  0  0
  -28.0940  -18.6500   20.3860 O   0  0  0  0  0  0  0  0  0  0  0  0
  -30.2150  -17.4290   19.9770 C   0  0  0  0  0  3  0  0  0  0  0  0
  -29.8120  -16.1080   20.1720 C   0  0  0  0  0  3  0  0  0  0  0  0
  -30.6530  -14.8690   19.9110 C   0  0  0  0  0  0  0  0  0  0  0  0
  -30.4540  -12.5410   19.0080 C   0  0  0  0  0  2  0  0  0  0  0  0
  -29.4490  -12.5530   17.8320 C   0  0  0  0  0  2  0  0  0  0  0  0
  -28.0060  -12.3680   18.3430 C   0  0  0  0  0  2  0  0  0  0  0  0
  -27.6820  -13.2870   19.5510 C   0  0  0  0  0  3  0  0  0  0  0  0
  -28.8010  -13.2500   20.6130 C   0  0  0  0  0  2  0  0  0  0  0  0
  -30.0580  -13.6200   19.9480 N   0  0  0  0  0  0  0  0  0  0  0  0
  -31.8180  -14.9480   19.5080 O   0  0  0  0  0  0  0  0  0  0  0  0
  -25.3610  -13.8710   20.4710 C   0  0  0  0  0  0  0  0  0  0  0  0
  -24.3140  -13.0940   20.8850 C   0  0  0  0  0  0  0  0  0  0  0  0
  -24.7570  -11.7410   20.7710 C   0  0  0  0  0  0  0  0  0  0  0  0
  -26.3740  -12.9910   20.1250 N   0  0  0  0  0  0  0  0  0  0  0  0
  -26.0230  -11.7020   20.3690 N   0  0  0  0  0  0  0  0  0  0  0  0
  -24.0290  -10.4800   20.9630 C   0  0  0  0  0  0  0  0  0  0  0  0
  -24.4800   -9.4970   21.8720 C   0  0  0  0  0  3  0  0  0  0  0  0
  -23.7520   -8.3020   22.0540 C   0  0  0  0  0  3  0  0  0  0  0  0
  -22.5580   -8.0810   21.3290 C   0  0  0  0  0  0  0  0  0  0  0  0
  -22.1240   -9.0520   20.4090 C   0  0  0  0  0  3  0  0  0  0  0  0
  -22.8540  -10.2380   20.2240 C   0  0  0  0  0  3  0  0  0  0  0  0
  -21.7980   -6.9390   21.4210 O   0  0  0  0  0  0  0  0  0  0  0  0
  -21.7290   -6.2130   22.5830 C   0  0  0  0  0  0  0  0  0  0  0  0
  -21.2530   -6.7760   23.7870 C   0  0  0  0  0  3  0  0  0  0  0  0
  -21.1330   -5.9740   24.9400 C   0  0  0  0  0  3  0  0  0  0  0  0
  -21.4810   -4.6120   24.8900 C   0  0  0  0  0  0  0  0  0  0  0  0
  -21.9520   -4.0480   23.6910 C   0  0  0  0  0  3  0  0  0  0  0  0
  -22.0730   -4.8460   22.5400 C   0  0  0  0  0  0  0  0  0  0  0  0
  -22.5070   -4.2930   21.3820 F   0  0  0  0  0  0  0  0  0  0  0  0
  -21.3600   -3.8400   25.9960 F   0  0  0  0  0  0  0  0  0  0  0  0
  -22.9460  -13.5750   21.2710 C   0  0  0  0  0  0  0  0  0  0  0  0
  -22.2710  -12.8540   22.1590 N   0  0  0  0  0  0  0  0  0  0  0  0
  -22.4870  -14.6260   20.8240 O   0  0  0  0  0  0  0  0  0  0  0  0
  -22.6570  -12.0040   22.5430 H   0  0  0  0  0  0  0  0  0  0  0  0
  -21.3550  -13.1570   22.4610 H   0  0  0  0  0  0  0  0  0  0  0  0
  -25.5310  -15.2470   20.3360 N   0  0  0  0  0  0  0  0  0  0  0  0
  -24.7840  -15.9040   20.5310 H   0  0  0  0  0  0  0  0  0  0  0  0
  -26.3620  -15.6920   19.9670 H   0  0  0  0  0  0  0  0  0  0  0  0
  -28.1090  -25.0090   20.8220 C   0  0  0  0  0  2  0  0  0  0  0  0
  -28.4440  -26.4000   20.3280 O   0  0  0  0  0  0  0  0  0  0  0  0
  -24.7110  -31.9340   23.2770 C   0  0  0  0  0  0  0  0  0  0  0  0
  -27.3710  -27.3270   20.2760 C   0  0  0  0  0  0  0  0  0  0  0  0
  -23.5350  -30.5200   21.6330 C   0  0  0  0  0  3  0  0  0  0  0  0
  -25.0110  -28.9720   20.2230 C   0  0  0  0  0  0  0  0  0  0  0  0
  -26.0790  -30.8420   21.4760 C   0  0  0  0  0  2  0  0  0  0  0  0
  -26.1760  -29.4560   20.8340 C   0  0  0  0  0  0  0  0  0  0  0  0
  -27.3620  -28.6470   20.8480 C   0  0  0  0  0  3  0  0  0  0  0  0
  -26.1900  -26.9230   19.6200 C   0  0  0  0  0  3  0  0  0  0  0  0
  -25.0250  -27.7130   19.6020 C   0  0  0  0  0  3  0  0  0  0  0  0
  -23.7700  -29.8430   20.2570 C   0  0  0  0  0  2  0  0  0  0  0  0
  -24.7940  -31.1180   22.1840 N   0  0  0  0  0  0  0  0  0  0  0  0
  -23.6200  -32.2060   23.7990 O   0  0  0  0  0  0  0  0  0  0  0  0
  -22.8680  -29.5040   22.5920 C   0  0  0  0  0  0  0  0  0  0  0  0
  -21.5420  -29.3210   22.4580 N   0  0  0  0  0  0  0  0  0  0  0  0
  -23.5430  -28.8840   23.4180 O   0  0  0  0  0  0  0  0  0  0  0  0
  -21.0560  -29.8730   21.7660 H   0  0  0  0  0  0  0  0  0  0  0  0
  -18.1660  -28.1120   22.9520 C   0  0  0  0  0  0  0  0  0  0  0  0
  -20.7230  -28.3800   23.2270 C   0  0  0  0  0  3  0  0  0  0  0  0
  -20.8310  -26.9490   22.6520 C   0  0  0  0  0  2  0  0  0  0  0  0
  -19.7320  -26.6230   21.6350 C   0  0  0  0  0  2  0  0  0  0  0  0
  -18.3490  -26.7640   22.2760 C   0  0  0  0  0  2  0  0  0  0  0  0
  -19.2820  -28.8780   23.3840 C   0  0  0  0  0  0  0  0  0  0  0  0
  -19.0570  -30.1390   23.9780 C   0  0  0  0  0  3  0  0  0  0  0  0
  -17.7500  -30.6350   24.1420 C   0  0  0  0  0  3  0  0  0  0  0  0
  -16.6490  -29.8670   23.7250 C   0  0  0  0  0  3  0  0  0  0  0  0
  -16.8580  -28.6070   23.1360 C   0  0  0  0  0  3  0  0  0  0  0  0
  -25.9810  -32.5810   23.9080 C   0  0  0  0  0  3  0  0  0  0  0  0
  -26.4810  -31.8320   25.2040 C   0  0  1  0  0  0  0  0  0  0  0  0
  -25.3710  -31.6000   26.2570 C   0  0  0  0  0  1  0  0  0  0  0  0
  -27.0810  -30.4530   24.8430 C   0  0  0  0  0  1  0  0  0  0  0  0
  -27.6150  -32.6420   25.8750 C   0  0  0  0  0  1  0  0  0  0  0  0
  -25.6620  -33.9840   24.2160 N   0  0  0  0  0  0  0  0  0  0  0  0
  -25.9950  -35.0280   23.4470 C   0  0  0  0  0  0  0  0  0  0  0  0
  -26.6740  -34.9140   22.4230 O   0  0  0  0  0  0  0  0  0  0  0  0
  -25.0600  -34.1450   25.0100 H   0  0  0  0  0  0  0  0  0  0  0  0
  -24.2640  -36.8120   23.0560 C   0  0  0  0  0  1  0  0  0  0  0  0
  -25.4990  -36.4210   23.8830 C   0  0  0  0  0  3  0  0  0  0  0  0
  -27.6200  -37.3280   24.7270 C   0  0  0  0  0  1  0  0  0  0  0  0
  -26.5290  -37.4760   23.7670 N   0  0  0  0  0  0  0  0  0  0  0  0
  -26.1180  -38.3980   23.8940 H   0  0  0  0  0  0  0  0  0  0  0  0
  2  1  2  0
  2 46  1  0
  4  3  2  0
  4  1  1  0
  5  7  1  0
  6  5  2  0
  6  4  1  0
  7  3  1  0
  8  5  1  0
  8  9  2  0
 10 16  1  0
 10  9  1  0
 11 16  1  0
 12 13  1  0
 12 11  1  0
 14 13  1  0
 14 21  1  0
 14 15  1  0
 16 15  1  0
 17 10  2  0
 18 19  2  0
 19 38  1  0
 20 19  1  0
 20 23  1  0
 21 22  1  0
 21 18  1  0
 22 20  2  0
 23 24  1  0
 24 25  2  0
 26 29  1  0
 26 25  1  0
 27 26  2  0
 28 27  1  0
 28 23  2  0
 29 30  1  0
 30 31  1  0
 31 32  2  0
 33 32  1  0
 33 37  1  0
 34 33  2  0
 35 30  2  0
 35 34  1  0
 36 35  1  0
 38 39  1  0
 39 42  1  0
 39 41  1  0
 40 38  2  0
 43 18  1  0
 43 44  1  0
 45 43  1  0
 47 46  1  0
 48 59  2  0
 49 47  1  0
 49 54  1  0
 50 58  1  0
 50 60  1  0
 51 57  1  0
 51 53  1  0
 52 58  1  0
 53 54  2  0
 53 52  1  0
 55 49  2  0
 56 55  1  0
 56 51  2  0
 57 50  1  0
 58 48  1  0
 60 62  2  0
 61 60  1  0
 63 61  1  0
 64 73  2  0
 64 69  1  0
 65 61  1  0
 65 69  1  0
 66 65  1  0
 67 68  1  0
 67 66  1  0
 68 64  1  0
 69 70  2  0
 70 71  1  0
 72 71  2  0
 73 72  1  0
 74 48  1  0
 74 79  1  0
 74 75  1  0
 75 78  1  1
 75 76  1  0
 77 75  1  0
 79 82  1  0
 80 84  1  0
 80 79  1  0
 81 80  2  0
 84 83  1  0
 86 84  1  0
 86 87  1  0
 86 85  1  0
M  ISO  4   9 100  10 100  46 101  47 101
M  END
>  <TORSDO>  (86) 
F 19

>  <SCORE>  (86) 
-13.777

>  <name>  (86) 
86

>  <ligand_id>  (86) 
86

>  <original_smiles>  (86) 
[H]C(C(=O)N1C([H])([H])C([H])([H])C([H])([H])C([H])(n2nc(-c3c([H])c([H])c(Oc4c([H])c([H])c(F)c([H])c4F)c([H])c3[H])c(C(=O)N([H])[H])c2N([H])[H])C1([H])[H])=C([H])c1nc(C([H])=C([H])C([H])([H])Oc2c([H])c([H])c3c(c2[H])C([H])([H])N(C(=O)C([H])(N([H])C(=O)C([H])(N([H])C([H])([H])[H])C([H])([H])[H])C(C([H])([H])[H])(C([H])([H])[H])C([H])([H])[H])C([H])(C(=O)N([H])C2([H])c4c([H])c([H])c([H])c([H])c4C([H])([H])C([H])([H])C2([H])[H])C3([H])[H])c([H])o1

>  <smiles>  (86) 
[H]C(C(=O)N1C([H])([H])C([H])([H])C([H])([H])C([H])(n2nc(-c3c([H])c([H])c(Oc4c([H])c([H])c(F)c([H])c4F)c([H])c3[H])c(C(=O)N([H])[H])c2N([H])[H])C1([H])[H])=C([H])c1nc(C([H])=C([H])C([H])([H])Oc2c([H])c([H])c3c(c2[H])C([H])([H])N(C(=O)C([H])(N([H])C(=O)C([H])(N([H])C([H])([H])[H])C([H])([H])[H])C(C([H])([H])[H])(C([H])([H])[H])C([H])([H])[H])C([H])(C(=O)N([H])C2([H])c4c([H])c([H])c([H])c([H])c4C([H])([H])C([H])([H])C2([H])[H])C3([H])[H])c([H])o1

$$$$
87:0:0
     RDKit          3D

 95104  0  0  1  0  0  0  0  0999 V2000
  -28.9290  -24.4730   21.1920 C   0  0  0  0  0  0  0  0  0  0  0  0
  -28.8920  -25.8380   21.0760 C   0  0  0  0  0  3  0  0  0  0  0  0
  -28.5990  -20.8080   20.3820 C   0  0  0  0  0  0  0  0  0  0  0  0
  -29.7680  -23.7700   22.2270 C   0  0  0  0  0  2  0  0  0  0  0  0
  -28.2950  -23.3530   20.3570 C   0  0  0  0  0  2  0  0  0  0  0  0
  -30.0990  -22.3950   21.6180 C   0  0  0  0  0  2  0  0  0  0  0  0
  -29.0170  -22.0840   20.6790 N   0  0  0  0  0  0  0  0  0  0  0  0
  -27.4100  -20.5550   20.1640 O   0  0  0  0  0  0  0  0  0  0  0  0
  -30.8120  -19.9890   19.4940 C   0  0  0  0  0  3  0  0  0  0  0  0
  -31.4390  -17.6350   19.4070 C   0  0  0  0  0  3  0  0  0  0  0  0
  -29.3740  -18.3010   20.4980 C   0  0  0  0  0  3  0  0  0  0  0  0
  -31.7230  -18.9880   19.1050 C   0  0  0  0  0  0  0  0  0  0  0  0
  -29.6250  -19.6820   20.1830 C   0  0  0  0  0  0  0  0  0  0  0  0
  -30.2820  -17.2440   20.1370 C   0  0  0  0  0  0  0  0  0  0  0  0
  -30.7320  -14.6970   20.2430 C   0  0  0  0  0  0  0  0  0  0  0  0
  -30.4620  -12.4650   19.2080 C   0  0  0  0  0  2  0  0  0  0  0  0
  -29.5140  -12.6090   17.9990 C   0  0  0  0  0  2  0  0  0  0  0  0
  -28.0400  -12.4750   18.4280 C   0  0  0  0  0  2  0  0  0  0  0  0
  -27.6950  -13.3140   19.6870 C   0  0  0  0  0  3  0  0  0  0  0  0
  -28.7670  -13.1780   20.7920 C   0  0  0  0  0  2  0  0  0  0  0  0
  -30.0690  -13.4990   20.1920 N   0  0  0  0  0  0  0  0  0  0  0  0
  -31.9190  -14.7550   19.9260 O   0  0  0  0  0  0  0  0  0  0  0  0
  -29.9880  -15.8350   20.4540 N   0  0  0  0  0  0  0  0  0  0  0  0
  -29.0520  -15.6580   20.7810 H   0  0  0  0  0  0  0  0  0  0  0  0
  -25.3000  -13.8890   20.4160 C   0  0  0  0  0  0  0  0  0  0  0  0
  -24.2400  -13.1120   20.7960 C   0  0  0  0  0  0  0  0  0  0  0  0
  -24.7110  -11.7630   20.7730 C   0  0  0  0  0  0  0  0  0  0  0  0
  -26.3500  -13.0150   20.1820 N   0  0  0  0  0  0  0  0  0  0  0  0
  -26.0020  -11.7320   20.4570 N   0  0  0  0  0  0  0  0  0  0  0  0
  -23.9920  -10.4970   20.9730 C   0  0  0  0  0  0  0  0  0  0  0  0
  -24.4270   -9.5430   21.9180 C   0  0  0  0  0  3  0  0  0  0  0  0
  -23.7100   -8.3410   22.1030 C   0  0  0  0  0  3  0  0  0  0  0  0
  -22.5420   -8.0870   21.3440 C   0  0  0  0  0  0  0  0  0  0  0  0
  -22.1280   -9.0290   20.3880 C   0  0  0  0  0  3  0  0  0  0  0  0
  -22.8450  -10.2230   20.1990 C   0  0  0  0  0  3  0  0  0  0  0  0
  -21.7900   -6.9400   21.4440 O   0  0  0  0  0  0  0  0  0  0  0  0
  -21.7310   -6.2160   22.6070 C   0  0  0  0  0  0  0  0  0  0  0  0
  -21.2750   -6.7820   23.8170 C   0  0  0  0  0  3  0  0  0  0  0  0
  -21.1640   -5.9830   24.9730 C   0  0  0  0  0  3  0  0  0  0  0  0
  -21.4980   -4.6160   24.9170 C   0  0  0  0  0  0  0  0  0  0  0  0
  -21.9470   -4.0480   23.7110 C   0  0  0  0  0  3  0  0  0  0  0  0
  -22.0610   -4.8450   22.5600 C   0  0  0  0  0  0  0  0  0  0  0  0
  -22.4740   -4.2890   21.3950 F   0  0  0  0  0  0  0  0  0  0  0  0
  -21.3860   -3.8440   26.0240 F   0  0  0  0  0  0  0  0  0  0  0  0
  -22.8410  -13.5830   21.0680 C   0  0  0  0  0  0  0  0  0  0  0  0
  -22.1120  -12.8880   21.9360 N   0  0  0  0  0  0  0  0  0  0  0  0
  -22.3980  -14.6020   20.5400 O   0  0  0  0  0  0  0  0  0  0  0  0
  -22.4790  -12.0650   22.3910 H   0  0  0  0  0  0  0  0  0  0  0  0
  -21.1700  -13.1840   22.1450 H   0  0  0  0  0  0  0  0  0  0  0  0
  -25.4570  -15.2590   20.2290 N   0  0  0  0  0  0  0  0  0  0  0  0
  -24.6910  -15.9110   20.3380 H   0  0  0  0  0  0  0  0  0  0  0  0
  -26.2940  -15.6940   19.8600 H   0  0  0  0  0  0  0  0  0  0  0  0
  -33.2520  -20.5320   17.8210 C   0  0  0  0  0  2  0  0  0  0  0  0
  -32.9430  -19.3310   18.3470 C   0  0  0  0  0  3  0  0  0  0  0  0
  -28.4030  -26.5940   20.0290 O   0  0  0  0  0  0  0  0  0  0  0  0
  -24.6180  -31.8940   23.2220 C   0  0  0  0  0  0  0  0  0  0  0  0
  -27.2880  -27.4060   20.1660 C   0  0  0  0  0  0  0  0  0  0  0  0
  -23.4350  -30.4970   21.5630 C   0  0  0  0  0  3  0  0  0  0  0  0
  -24.9080  -28.9580   20.1570 C   0  0  0  0  0  0  0  0  0  0  0  0
  -25.9700  -30.8370   21.4070 C   0  0  0  0  0  2  0  0  0  0  0  0
  -26.0670  -29.4610   20.7690 C   0  0  0  0  0  0  0  0  0  0  0  0
  -27.2630  -28.6910   20.7760 C   0  0  0  0  0  3  0  0  0  0  0  0
  -26.1150  -26.9370   19.5460 C   0  0  0  0  0  3  0  0  0  0  0  0
  -24.9280  -27.6940   19.5450 C   0  0  0  0  0  3  0  0  0  0  0  0
  -23.6660  -29.8230   20.1860 C   0  0  0  0  0  2  0  0  0  0  0  0
  -24.6920  -31.0940   22.1200 N   0  0  0  0  0  0  0  0  0  0  0  0
  -23.5280  -32.1650   23.7480 O   0  0  0  0  0  0  0  0  0  0  0  0
  -22.7730  -29.4700   22.5120 C   0  0  0  0  0  0  0  0  0  0  0  0
  -21.4460  -29.2930   22.3820 N   0  0  0  0  0  0  0  0  0  0  0  0
  -23.4510  -28.8360   23.3250 O   0  0  0  0  0  0  0  0  0  0  0  0
  -20.9580  -29.8550   21.6980 H   0  0  0  0  0  0  0  0  0  0  0  0
  -18.0670  -28.1080   22.8720 C   0  0  0  0  0  0  0  0  0  0  0  0
  -20.6260  -28.3490   23.1420 C   0  0  0  0  0  3  0  0  0  0  0  0
  -20.7200  -26.9250   22.5470 C   0  0  0  0  0  2  0  0  0  0  0  0
  -19.6140  -26.6210   21.5310 C   0  0  0  0  0  2  0  0  0  0  0  0
  -18.2340  -26.7680   22.1790 C   0  0  0  0  0  2  0  0  0  0  0  0
  -19.1910  -28.8590   23.3100 C   0  0  0  0  0  0  0  0  0  0  0  0
  -18.9790  -30.1160   23.9160 C   0  0  0  0  0  3  0  0  0  0  0  0
  -17.6780  -30.6220   24.0910 C   0  0  0  0  0  3  0  0  0  0  0  0
  -16.5680  -29.8680   23.6700 C   0  0  0  0  0  3  0  0  0  0  0  0
  -16.7650  -28.6130   23.0660 C   0  0  0  0  0  3  0  0  0  0  0  0
  -25.8940  -32.5300   23.8560 C   0  0  0  0  0  3  0  0  0  0  0  0
  -25.5790  -33.9270   24.1820 N   0  0  0  0  0  0  0  0  0  0  0  0
  -25.9110  -34.9790   23.4240 C   0  0  0  0  0  0  0  0  0  0  0  0
  -26.5870  -34.8760   22.3960 O   0  0  0  0  0  0  0  0  0  0  0  0
  -24.9800  -34.0790   24.9810 H   0  0  0  0  0  0  0  0  0  0  0  0
  -24.1800  -36.7640   23.0490 C   0  0  0  0  0  1  0  0  0  0  0  0
  -25.4130  -36.3660   23.8750 C   0  0  0  0  0  3  0  0  0  0  0  0
  -27.5380  -37.2560   24.7240 C   0  0  0  0  0  1  0  0  0  0  0  0
  -26.4430  -37.4240   23.7740 N   0  0  0  0  0  0  0  0  0  0  0  0
  -26.0320  -38.3410   23.9200 H   0  0  0  0  0  0  0  0  0  0  0  0
  -26.3960  -31.7600   25.1390 C   0  0  1  0  0  0  0  0  0  0  0  0
  -25.2920  -31.5210   26.1930 C   0  0  0  0  0  1  0  0  0  0  0  0
  -26.9910  -30.3830   24.7590 C   0  0  0  0  0  1  0  0  0  0  0  0
  -27.5370  -32.5570   25.8170 C   0  0  0  0  0  1  0  0  0  0  0  0
  1  4  1  0
  2  1  2  0
  3  7  1  0
  5  7  1  0
  5  1  1  0
  6  4  1  0
  7  6  1  0
  8  3  2  0
  9 13  1  0
 10 14  2  0
 12 10  1  0
 12  9  2  0
 13  3  1  0
 13 11  2  0
 14 23  1  0
 14 11  1  0
 15 23  1  0
 16 21  1  0
 17 18  1  0
 17 16  1  0
 19 18  1  0
 19 28  1  0
 19 20  1  0
 21 15  1  0
 21 20  1  0
 22 15  2  0
 23 24  1  0
 25 26  2  0
 26 45  1  0
 27 26  1  0
 27 30  1  0
 28 25  1  0
 28 29  1  0
 29 27  2  0
 30 31  1  0
 31 32  2  0
 33 36  1  0
 33 32  1  0
 34 33  2  0
 35 34  1  0
 35 30  2  0
 36 37  1  0
 37 38  1  0
 38 39  2  0
 40 39  1  0
 40 44  1  0
 41 40  2  0
 42 37  2  0
 42 41  1  0
 43 42  1  0
 45 46  1  0
 46 49  1  0
 46 48  1  0
 47 45  2  0
 50 51  1  0
 50 25  1  0
 52 50  1  0
 53 54  2  0
 54 12  1  0
 55 57  1  0
 55  2  1  0
 56 67  2  0
 57 62  1  0
 58 66  1  0
 58 68  1  0
 59 65  1  0
 59 61  1  0
 60 66  1  0
 61 62  2  0
 61 60  1  0
 63 57  2  0
 64 63  1  0
 64 59  2  0
 65 58  1  0
 66 56  1  0
 68 70  2  0
 69 68  1  0
 71 69  1  0
 72 81  2  0
 72 77  1  0
 73 69  1  0
 73 77  1  0
 74 73  1  0
 75 76  1  0
 75 74  1  0
 76 72  1  0
 77 78  2  0
 78 79  1  0
 80 79  2  0
 81 80  1  0
 82 56  1  0
 82 83  1  0
 82 92  1  0
 83 86  1  0
 84 88  1  0
 84 83  1  0
 85 84  2  0
 88 87  1  0
 90 88  1  0
 90 91  1  0
 90 89  1  0
 92 95  1  1
 92 93  1  0
 94 92  1  0
M  ISO  4   2 101  15 100  23 100  55 101
M  END
>  <TORSDO>  (87) 
F 18

>  <SCORE>  (87) 
-14.851

>  <name>  (87) 
87

>  <ligand_id>  (87) 
87

>  <original_smiles>  (87) 
[H]C([H])=C([H])c1c([H])c(C(=O)N2C([H])([H])C(=C([H])Oc3c([H])c([H])c4c(c3[H])C([H])([H])N(C(=O)C([H])(N([H])C(=O)C([H])(N([H])C([H])([H])[H])C([H])([H])[H])C(C([H])([H])[H])(C([H])([H])[H])C([H])([H])[H])C([H])(C(=O)N([H])C3([H])c5c([H])c([H])c([H])c([H])c5C([H])([H])C([H])([H])C3([H])[H])C4([H])[H])C([H])([H])C2([H])[H])c([H])c(N([H])C(=O)N2C([H])([H])C([H])([H])C([H])([H])C([H])(n3nc(-c4c([H])c([H])c(Oc5c([H])c([H])c(F)c([H])c5F)c([H])c4[H])c(C(=O)N([H])[H])c3N([H])[H])C2([H])[H])c1[H]

>  <smiles>  (87) 
[H]C([H])=C([H])c1c([H])c(C(=O)N2C([H])([H])C(=C([H])Oc3c([H])c([H])c4c(c3[H])C([H])([H])N(C(=O)C([H])(N([H])C(=O)C([H])(N([H])C([H])([H])[H])C([H])([H])[H])C(C([H])([H])[H])(C([H])([H])[H])C([H])([H])[H])C([H])(C(=O)N([H])C3([H])c5c([H])c([H])c([H])c([H])c5C([H])([H])C([H])([H])C3([H])[H])C4([H])[H])C([H])([H])C2([H])[H])c([H])c(N([H])C(=O)N2C([H])([H])C([H])([H])C([H])([H])C([H])(n3nc(-c4c([H])c([H])c(Oc5c([H])c([H])c(F)c([H])c5F)c([H])c4[H])c(C(=O)N([H])[H])c3N([H])[H])C2([H])[H])c1[H]

$$$$
88:0:0
     RDKit          3D

 93101  0  0  1  0  0  0  0  0999 V2000
  -30.5180  -17.5270   21.9230 C   0  0  0  0  0  3  0  0  0  0  0  0
  -30.3410  -19.9730   22.0990 C   0  0  0  0  0  3  0  0  0  0  0  0
  -30.1220  -17.5360   20.5680 C   0  0  0  0  0  0  0  0  0  0  0  0
  -29.8910  -18.8640   19.9840 C   0  0  0  0  0  0  0  0  0  0  0  0
  -29.9680  -20.0980   20.7420 C   0  0  0  0  0  0  0  0  0  0  0  0
  -30.6280  -18.7160   22.6690 C   0  0  0  0  0  0  0  0  0  0  0  0
  -29.5450  -19.0130   18.5060 C   0  0  0  0  0  1  0  0  0  0  0  0
  -30.9930  -18.6480   23.9710 F   0  0  0  0  0  0  0  0  0  0  0  0
  -29.8050  -16.1700   19.8890 C   0  0  0  0  0  0  0  0  0  0  0  0
  -28.8450  -16.1670   19.0680 N   0  0  0  0  0  0  0  0  0  0  0  0
  -28.4250  -17.0860   19.0140 H   0  0  0  0  0  0  0  0  0  0  0  0
  -30.6540  -14.8220   20.0900 C   0  0  0  0  0  0  0  0  0  0  0  0
  -30.3470  -12.6090   18.9780 C   0  0  0  0  0  2  0  0  0  0  0  0
  -29.3280  -12.7510   17.8270 C   0  0  0  0  0  2  0  0  0  0  0  0
  -27.8910  -12.5260   18.3420 C   0  0  0  0  0  2  0  0  0  0  0  0
  -27.5850  -13.3460   19.6200 C   0  0  0  0  0  3  0  0  0  0  0  0
  -28.7240  -13.2540   20.6600 C   0  0  0  0  0  2  0  0  0  0  0  0
  -29.9890  -13.6150   20.0000 N   0  0  0  0  0  0  0  0  0  0  0  0
  -31.8700  -14.8760   19.8890 O   0  0  0  0  0  0  0  0  0  0  0  0
  -25.2530  -13.9220   20.5040 C   0  0  0  0  0  0  0  0  0  0  0  0
  -24.2110  -13.1350   20.9070 C   0  0  0  0  0  0  0  0  0  0  0  0
  -24.6790  -11.7880   20.8210 C   0  0  0  0  0  0  0  0  0  0  0  0
  -26.2830  -13.0480   20.1910 N   0  0  0  0  0  0  0  0  0  0  0  0
  -25.9520  -11.7610   20.4480 N   0  0  0  0  0  0  0  0  0  0  0  0
  -23.9760  -10.5180   21.0120 C   0  0  0  0  0  0  0  0  0  0  0  0
  -24.4340   -9.5550   21.9360 C   0  0  0  0  0  3  0  0  0  0  0  0
  -23.7300   -8.3450   22.1150 C   0  0  0  0  0  3  0  0  0  0  0  0
  -22.5550   -8.0920   21.3690 C   0  0  0  0  0  0  0  0  0  0  0  0
  -22.1160   -9.0450   20.4310 C   0  0  0  0  0  3  0  0  0  0  0  0
  -22.8220  -10.2460   20.2510 C   0  0  0  0  0  3  0  0  0  0  0  0
  -21.8200   -6.9350   21.4590 O   0  0  0  0  0  0  0  0  0  0  0  0
  -21.7680   -6.2060   22.6190 C   0  0  0  0  0  0  0  0  0  0  0  0
  -21.2840   -6.7590   23.8260 C   0  0  0  0  0  3  0  0  0  0  0  0
  -21.1840   -5.9530   24.9780 C   0  0  0  0  0  3  0  0  0  0  0  0
  -21.5550   -4.5970   24.9230 C   0  0  0  0  0  0  0  0  0  0  0  0
  -22.0330   -4.0440   23.7230 C   0  0  0  0  0  3  0  0  0  0  0  0
  -22.1370   -4.8460   22.5730 C   0  0  0  0  0  0  0  0  0  0  0  0
  -22.5770   -4.3040   21.4120 F   0  0  0  0  0  0  0  0  0  0  0  0
  -21.4500   -3.8200   26.0280 F   0  0  0  0  0  0  0  0  0  0  0  0
  -22.8250  -13.5950   21.2560 C   0  0  0  0  0  0  0  0  0  0  0  0
  -22.1410  -12.8670   22.1300 N   0  0  0  0  0  0  0  0  0  0  0  0
  -22.3590  -14.6350   20.7890 O   0  0  0  0  0  0  0  0  0  0  0  0
  -22.5310  -12.0250   22.5260 H   0  0  0  0  0  0  0  0  0  0  0  0
  -21.2130  -13.1560   22.4070 H   0  0  0  0  0  0  0  0  0  0  0  0
  -25.4060  -15.2990   20.3520 N   0  0  0  0  0  0  0  0  0  0  0  0
  -24.6500  -15.9560   20.5050 H   0  0  0  0  0  0  0  0  0  0  0  0
  -26.2430  -15.7300   19.9760 H   0  0  0  0  0  0  0  0  0  0  0  0
  -29.6950  -21.3710   20.1630 O   0  0  0  0  0  0  0  0  0  0  0  0
  -29.4290  -22.5720   20.9960 C   0  0  0  0  0  2  0  0  0  0  0  0
  -29.2940  -23.9660   20.2340 C   0  0  0  0  0  0  0  0  0  0  0  0
  -29.7900  -24.1130   19.1110 O   0  0  0  0  0  0  0  0  0  0  0  0
  -28.5220  -25.1710   20.9280 C   0  0  0  0  0  2  0  0  0  0  0  0
  -28.7260  -26.5510   20.3980 O   0  0  0  0  0  0  0  0  0  0  0  0
  -24.6950  -31.8420   23.2650 C   0  0  0  0  0  0  0  0  0  0  0  0
  -27.5910  -27.3740   20.3330 C   0  0  0  0  0  0  0  0  0  0  0  0
  -23.6130  -30.4100   21.5680 C   0  0  0  0  0  3  0  0  0  0  0  0
  -25.1770  -28.9070   20.2100 C   0  0  0  0  0  0  0  0  0  0  0  0
  -26.1450  -30.8120   21.5000 C   0  0  0  0  0  2  0  0  0  0  0  0
  -26.3020  -29.4360   20.8580 C   0  0  0  0  0  0  0  0  0  0  0  0
  -27.5160  -28.6840   20.9050 C   0  0  0  0  0  3  0  0  0  0  0  0
  -26.4470  -26.8990   19.6600 C   0  0  0  0  0  3  0  0  0  0  0  0
  -25.2530  -27.6440   19.6010 C   0  0  0  0  0  3  0  0  0  0  0  0
  -23.9120  -29.7410   20.2000 C   0  0  0  0  0  2  0  0  0  0  0  0
  -24.8330  -31.0390   22.1690 N   0  0  0  0  0  0  0  0  0  0  0  0
  -23.5800  -32.0830   23.7490 O   0  0  0  0  0  0  0  0  0  0  0  0
  -22.9380  -29.3710   22.4960 C   0  0  0  0  0  0  0  0  0  0  0  0
  -21.6230  -29.1630   22.3170 N   0  0  0  0  0  0  0  0  0  0  0  0
  -23.6000  -28.7570   23.3380 O   0  0  0  0  0  0  0  0  0  0  0  0
  -21.1470  -29.7120   21.6150 H   0  0  0  0  0  0  0  0  0  0  0  0
  -18.2560  -27.8920   22.6930 C   0  0  0  0  0  0  0  0  0  0  0  0
  -20.7980  -28.2010   23.0510 C   0  0  0  0  0  3  0  0  0  0  0  0
  -20.9490  -26.7780   22.4660 C   0  0  0  0  0  2  0  0  0  0  0  0
  -19.8890  -26.4440   21.4100 C   0  0  0  0  0  2  0  0  0  0  0  0
  -18.4830  -26.5550   22.0090 C   0  0  0  0  0  2  0  0  0  0  0  0
  -19.3440  -28.6720   23.1680 C   0  0  0  0  0  0  0  0  0  0  0  0
  -19.0790  -29.9230   23.7660 C   0  0  0  0  0  3  0  0  0  0  0  0
  -17.7590  -30.3950   23.8930 C   0  0  0  0  0  3  0  0  0  0  0  0
  -16.6860  -29.6130   23.4340 C   0  0  0  0  0  3  0  0  0  0  0  0
  -16.9350  -28.3630   22.8410 C   0  0  0  0  0  3  0  0  0  0  0  0
  -25.9270  -32.5130   23.9450 C   0  0  0  0  0  3  0  0  0  0  0  0
  -25.5680  -33.9090   24.2370 N   0  0  0  0  0  0  0  0  0  0  0  0
  -25.9200  -34.9590   23.4840 C   0  0  0  0  0  0  0  0  0  0  0  0
  -26.6490  -34.8590   22.4930 O   0  0  0  0  0  0  0  0  0  0  0  0
  -24.9250  -34.0590   25.0010 H   0  0  0  0  0  0  0  0  0  0  0  0
  -24.1780  -36.7110   23.0050 C   0  0  0  0  0  1  0  0  0  0  0  0
  -25.3770  -36.3420   23.8940 C   0  0  0  0  0  3  0  0  0  0  0  0
  -27.4370  -37.2860   24.8430 C   0  0  0  0  0  1  0  0  0  0  0  0
  -26.3920  -37.4160   23.8300 N   0  0  0  0  0  0  0  0  0  0  0  0
  -25.9580  -38.3290   23.9400 H   0  0  0  0  0  0  0  0  0  0  0  0
  -26.3910  -31.7740   25.2600 C   0  0  1  0  0  0  0  0  0  0  0  0
  -25.2450  -31.5220   26.2680 C   0  0  0  0  0  1  0  0  0  0  0  0
  -27.0310  -30.4060   24.9250 C   0  0  0  0  0  1  0  0  0  0  0  0
  -27.4810  -32.6080   25.9730 C   0  0  0  0  0  1  0  0  0  0  0  0
  1  6  1  0
  2  6  2  0
  3  1  2  0
  4  3  1  0
  4  5  2  0
  5  2  1  0
  6  8  1  0
  7  4  1  0
  9 12  1  0
  9  3  1  0
 10  9  2  0
 11 10  1  0
 13 18  1  0
 14 15  1  0
 14 13  1  0
 16 15  1  0
 16 23  1  0
 16 17  1  0
 18 12  1  0
 18 17  1  0
 19 12  2  0
 20 21  2  0
 21 40  1  0
 22 21  1  0
 22 25  1  0
 23 24  1  0
 23 20  1  0
 24 22  2  0
 25 26  1  0
 26 27  2  0
 28 31  1  0
 28 27  1  0
 29 28  2  0
 30 29  1  0
 30 25  2  0
 31 32  1  0
 32 33  1  0
 33 34  2  0
 35 34  1  0
 35 39  1  0
 36 35  2  0
 37 32  2  0
 37 36  1  0
 38 37  1  0
 40 41  1  0
 41 44  1  0
 41 43  1  0
 42 40  2  0
 45 20  1  0
 45 46  1  0
 47 45  1  0
 48  5  1  0
 48 49  1  0
 50 52  1  0
 50 49  1  0
 51 50  2  0
 53 52  1  0
 54 65  2  0
 55 53  1  0
 55 60  1  0
 56 64  1  0
 56 66  1  0
 57 59  1  0
 58 64  1  0
 59 60  2  0
 59 58  1  0
 61 55  2  0
 62 61  1  0
 62 57  2  0
 63 57  1  0
 63 56  1  0
 64 54  1  0
 66 68  2  0
 67 66  1  0
 69 67  1  0
 70 79  2  0
 70 75  1  0
 71 67  1  0
 71 75  1  0
 72 71  1  0
 73 74  1  0
 73 72  1  0
 74 70  1  0
 75 76  2  0
 76 77  1  0
 78 77  2  0
 79 78  1  0
 80 54  1  0
 80 81  1  0
 80 90  1  0
 81 84  1  0
 82 86  1  0
 82 81  1  0
 83 82  2  0
 86 85  1  0
 88 86  1  0
 88 89  1  0
 88 87  1  0
 90 93  1  1
 90 91  1  0
 92 90  1  0
M  ISO  4   9 100  12 100  52 101  53 101
M  END
>  <TORSDO>  (88) 
F 21

>  <SCORE>  (88) 
-13.259

>  <name>  (88) 
88

>  <ligand_id>  (88) 
88

>  <original_smiles>  (88) 
[H]N=C(C(=O)N1C([H])([H])C([H])([H])C([H])([H])C([H])(n2nc(-c3c([H])c([H])c(Oc4c([H])c([H])c(F)c([H])c4F)c([H])c3[H])c(C(=O)N([H])[H])c2N([H])[H])C1([H])[H])c1c([H])c(F)c([H])c(OC([H])([H])C(=O)C([H])([H])Oc2c([H])c([H])c3c(c2[H])C([H])([H])N(C(=O)C([H])(N([H])C(=O)C([H])(N([H])C([H])([H])[H])C([H])([H])[H])C(C([H])([H])[H])(C([H])([H])[H])C([H])([H])[H])C([H])(C(=O)N([H])C2([H])c4c([H])c([H])c([H])c([H])c4C([H])([H])C([H])([H])C2([H])[H])C3([H])[H])c1C([H])([H])[H]

>  <smiles>  (88) 
[H]N=C(C(=O)N1C([H])([H])C([H])([H])C([H])([H])C([H])(n2nc(-c3c([H])c([H])c(Oc4c([H])c([H])c(F)c([H])c4F)c([H])c3[H])c(C(=O)N([H])[H])c2N([H])[H])C1([H])[H])c1c([H])c(F)c([H])c(OC([H])([H])C(=O)C([H])([H])Oc2c([H])c([H])c3c(c2[H])C([H])([H])N(C(=O)C([H])(N([H])C(=O)C([H])(N([H])C([H])([H])[H])C([H])([H])[H])C(C([H])([H])[H])(C([H])([H])[H])C([H])([H])[H])C([H])(C(=O)N([H])C2([H])c4c([H])c([H])c([H])c([H])c4C([H])([H])C([H])([H])C2([H])[H])C3([H])[H])c1C([H])([H])[H]

$$$$
89:0:0
     RDKit          3D

 95105  0  0  1  0  0  0  0  0999 V2000
  -30.7190  -19.2940   19.8350 C   0  0  0  0  0  3  0  0  0  0  0  0
  -30.8360  -17.8760   19.9940 C   0  0  0  0  0  3  0  0  0  0  0  0
  -28.3460  -19.1460   20.0910 C   0  0  0  0  0  3  0  0  0  0  0  0
  -29.4710  -19.9840   19.8670 C   0  0  0  0  0  0  0  0  0  0  0  0
  -29.7000  -17.0460   20.1920 C   0  0  0  0  0  0  0  0  0  0  0  0
  -28.4420  -17.7170   20.2400 C   0  0  0  0  0  0  0  0  0  0  0  0
  -30.5160  -14.5600   19.8730 C   0  0  0  0  0  0  0  0  0  0  0  0
  -30.3220  -12.3100   18.8090 C   0  0  0  0  0  2  0  0  0  0  0  0
  -29.2970  -12.4150   17.6580 C   0  0  0  0  0  2  0  0  0  0  0  0
  -27.8600  -12.2120   18.1780 C   0  0  0  0  0  2  0  0  0  0  0  0
  -27.5600  -13.0530   19.4470 C   0  0  0  0  0  3  0  0  0  0  0  0
  -28.6910  -12.9150   20.4910 C   0  0  0  0  0  2  0  0  0  0  0  0
  -29.9470  -13.3090   19.8350 N   0  0  0  0  0  0  0  0  0  0  0  0
  -31.6400  -14.7560   19.4000 O   0  0  0  0  0  0  0  0  0  0  0  0
  -29.7060  -15.5770   20.3240 N   0  0  0  0  0  0  0  0  0  0  0  0
  -28.8650  -15.2320   20.7620 H   0  0  0  0  0  0  0  0  0  0  0  0
  -25.1950  -13.5860   20.2930 C   0  0  0  0  0  0  0  0  0  0  0  0
  -24.1760  -12.7890   20.7360 C   0  0  0  0  0  0  0  0  0  0  0  0
  -24.6760  -11.4510   20.6930 C   0  0  0  0  0  0  0  0  0  0  0  0
  -26.2520  -12.7350   20.0120 N   0  0  0  0  0  0  0  0  0  0  0  0
  -25.9470  -11.4460   20.3110 N   0  0  0  0  0  0  0  0  0  0  0  0
  -23.9970  -10.1730   20.9390 C   0  0  0  0  0  0  0  0  0  0  0  0
  -24.4560   -9.2730   21.9260 C   0  0  0  0  0  3  0  0  0  0  0  0
  -23.7780   -8.0560   22.1560 C   0  0  0  0  0  3  0  0  0  0  0  0
  -22.6270   -7.7310   21.3980 C   0  0  0  0  0  0  0  0  0  0  0  0
  -22.1890   -8.6200   20.4010 C   0  0  0  0  0  3  0  0  0  0  0  0
  -22.8690   -9.8290   20.1690 C   0  0  0  0  0  3  0  0  0  0  0  0
  -21.9190   -6.5620   21.5340 O   0  0  0  0  0  0  0  0  0  0  0  0
  -21.8060   -5.9270   22.7450 C   0  0  0  0  0  0  0  0  0  0  0  0
  -21.2460   -6.5660   23.8730 C   0  0  0  0  0  3  0  0  0  0  0  0
  -21.0840   -5.8540   25.0780 C   0  0  0  0  0  3  0  0  0  0  0  0
  -21.4720   -4.5030   25.1550 C   0  0  0  0  0  0  0  0  0  0  0  0
  -22.0240   -3.8630   24.0320 C   0  0  0  0  0  3  0  0  0  0  0  0
  -22.1880   -4.5730   22.8300 C   0  0  0  0  0  0  0  0  0  0  0  0
  -22.7010   -3.9460   21.7430 F   0  0  0  0  0  0  0  0  0  0  0  0
  -21.3090   -3.8150   26.3100 F   0  0  0  0  0  0  0  0  0  0  0  0
  -22.7840  -13.2320   21.0880 C   0  0  0  0  0  0  0  0  0  0  0  0
  -22.1300  -12.5290   22.0060 N   0  0  0  0  0  0  0  0  0  0  0  0
  -22.2860  -14.2350   20.5820 O   0  0  0  0  0  0  0  0  0  0  0  0
  -22.5460  -11.7180   22.4390 H   0  0  0  0  0  0  0  0  0  0  0  0
  -21.2010  -12.8100   22.2830 H   0  0  0  0  0  0  0  0  0  0  0  0
  -25.3070  -14.9540   20.0830 N   0  0  0  0  0  4  0  0  0  0  0  0
  -24.5260  -15.5820   20.2340 H   0  0  0  0  0  0  0  0  0  0  0  0
  -26.1430  -15.4300   19.7690 H   0  0  0  0  0  0  0  0  0  0  0  0
  -28.5540  -23.7630   19.5910 C   0  0  0  0  0  0  0  0  0  0  0  0
  -27.7780  -24.8880   19.7790 C   0  0  0  0  0  2  0  0  0  0  0  0
  -29.8960  -23.6840   18.8970 C   0  0  0  0  0  3  0  0  0  0  0  0
  -28.2230  -22.3100   20.0320 C   0  0  0  0  0  3  0  0  0  0  0  0
  -30.4140  -22.2250   19.0600 C   0  0  0  0  0  3  0  0  0  0  0  0
  -29.3590  -21.4190   19.6800 N   0  0  0  0  0  0  0  0  0  0  0  0
  -28.0220  -26.2300   19.3990 O   0  0  0  0  0  0  0  0  0  0  0  0
  -24.6970  -31.5780   22.9840 C   0  0  0  0  0  0  0  0  0  0  0  0
  -26.9590  -27.1440   19.4970 C   0  0  0  0  0  0  0  0  0  0  0  0
  -23.3510  -30.3380   21.3260 C   0  0  0  0  0  3  0  0  0  0  0  0
  -24.6610  -28.8350   19.7210 C   0  0  0  0  0  0  0  0  0  0  0  0
  -25.8870  -30.5770   21.0190 C   0  0  0  0  0  2  0  0  0  0  0  0
  -25.8790  -29.2410   20.2830 C   0  0  0  0  0  0  0  0  0  0  0  0
  -27.0330  -28.4070   20.1630 C   0  0  0  0  0  3  0  0  0  0  0  0
  -25.7220  -26.7960   18.9110 C   0  0  0  0  0  3  0  0  0  0  0  0
  -24.5840  -27.6180   19.0260 C   0  0  0  0  0  3  0  0  0  0  0  0
  -23.4640  -29.7470   19.8950 C   0  0  0  0  0  2  0  0  0  0  0  0
  -24.6680  -30.8440   21.8330 N   0  0  0  0  0  0  0  0  0  0  0  0
  -23.6560  -31.8580   23.5960 O   0  0  0  0  0  0  0  0  0  0  0  0
  -22.7010  -29.2860   22.2540 C   0  0  0  0  0  0  0  0  0  0  0  0
  -21.3640  -29.1630   22.1860 N   0  0  0  0  0  0  0  0  0  0  0  0
  -23.3950  -28.5860   22.9950 O   0  0  0  0  0  0  0  0  0  0  0  0
  -20.8630  -29.7790   21.5610 H   0  0  0  0  0  0  0  0  0  0  0  0
  -17.9730  -28.0510   22.7830 C   0  0  0  0  0  0  0  0  0  0  0  0
  -20.5490  -28.2060   22.9380 C   0  0  0  0  0  3  0  0  0  0  0  0
  -20.5710  -26.8110   22.2700 C   0  0  0  0  0  2  0  0  0  0  0  0
  -19.4090  -26.5910   21.2960 C   0  0  0  0  0  2  0  0  0  0  0  0
  -18.0670  -26.7420   22.0170 C   0  0  0  0  0  2  0  0  0  0  0  0
  -19.1380  -28.7460   23.2010 C   0  0  0  0  0  0  0  0  0  0  0  0
  -18.9950  -29.9760   23.8810 C   0  0  0  0  0  3  0  0  0  0  0  0
  -17.7190  -30.5090   24.1430 C   0  0  0  0  0  3  0  0  0  0  0  0
  -16.5680  -29.8090   23.7390 C   0  0  0  0  0  3  0  0  0  0  0  0
  -16.6970  -28.5810   23.0660 C   0  0  0  0  0  3  0  0  0  0  0  0
  -26.0360  -32.1180   23.5740 C   0  0  0  0  0  3  0  0  0  0  0  0
  -26.6140  -31.2150   24.7310 C   0  0  1  0  0  0  0  0  0  0  0  0
  -25.5930  -30.9110   25.8530 C   0  0  0  0  0  1  0  0  0  0  0  0
  -27.1120  -29.8620   24.1720 C   0  0  0  0  0  1  0  0  0  0  0  0
  -27.8410  -31.9050   25.3720 C   0  0  0  0  0  1  0  0  0  0  0  0
  -25.7880  -33.4830   24.0580 N   0  0  0  0  0  0  0  0  0  0  0  0
  -26.0750  -34.5990   23.3730 C   0  0  0  0  0  0  0  0  0  0  0  0
  -26.6460  -34.5840   22.2790 O   0  0  0  0  0  0  0  0  0  0  0  0
  -25.2710  -33.5700   24.9200 H   0  0  0  0  0  0  0  0  0  0  0  0
  -24.3500  -36.4310   23.3680 C   0  0  0  0  0  1  0  0  0  0  0  0
  -25.6650  -35.9450   24.0010 C   0  0  0  0  0  3  0  0  0  0  0  0
  -27.8900  -36.7360   24.6710 C   0  0  0  0  0  1  0  0  0  0  0  0
  -26.6970  -36.9960   23.8700 N   0  0  0  0  0  0  0  0  0  0  0  0
  -26.3250  -37.9020   24.1400 H   0  0  0  0  0  0  0  0  0  0  0  0
  -27.3400  -16.9020   20.4220 O   0  0  0  0  0  0  0  0  0  0  0  0
  -25.5240  -17.7890   19.0330 C   0  0  0  0  0  1  0  0  0  0  0  0
  -25.1320  -16.4400   21.1400 C   0  0  0  0  0  2  0  0  0  0  0  0
  -26.0320  -17.4710   20.4510 C   0  0  0  0  0  3  0  0  0  0  0  0
  1  4  2  0
  1  2  1  0
  2  5  2  0
  3  6  2  0
  4  3  1  0
  5  6  1  0
  5 15  1  0
  6 92  1  0
  7 15  1  0
  8 13  1  0
  9 10  1  0
  9  8  1  0
 11 10  1  0
 11 20  1  0
 11 12  1  0
 13  7  1  0
 13 12  1  0
 14  7  2  0
 15 16  1  0
 17 18  2  0
 18 37  1  0
 19 18  1  0
 19 22  1  0
 20 17  1  0
 20 21  1  0
 21 19  2  0
 22 23  1  0
 23 24  2  0
 25 28  1  0
 25 24  1  0
 26 25  2  0
 27 26  1  0
 27 22  2  0
 28 29  1  0
 29 34  2  0
 29 30  1  0
 30 31  2  0
 31 32  1  0
 32 36  1  0
 33 32  2  0
 34 33  1  0
 35 34  1  0
 37 38  1  0
 38 41  1  0
 38 40  1  0
 39 37  2  0
 42 43  1  0
 42 17  1  0
 42 94  1  0
 44 42  1  0
 45 46  1  0
 45 48  2  0
 47 49  2  0
 47 45  1  0
 49 50  1  0
 50  4  1  0
 50 48  1  0
 51 53  1  0
 51 46  1  0
 52 63  2  0
 53 58  1  0
 54 62  1  0
 54 64  1  0
 55 61  1  0
 55 57  1  0
 56 62  1  0
 57 56  1  0
 58 57  2  0
 59 60  1  0
 59 53  2  0
 60 55  2  0
 61 54  1  0
 62 52  1  0
 64 66  2  0
 65 64  1  0
 67 65  1  0
 68 77  2  0
 68 73  1  0
 69 65  1  0
 69 73  1  0
 70 69  1  0
 71 72  1  0
 71 70  1  0
 72 68  1  0
 73 74  2  0
 74 75  1  0
 76 75  2  0
 77 76  1  0
 78 52  1  0
 78 83  1  0
 78 79  1  0
 79 82  1  1
 79 80  1  0
 81 79  1  0
 83 86  1  0
 84 88  1  0
 84 83  1  0
 85 84  2  0
 88 87  1  0
 90 88  1  0
 90 91  1  0
 90 89  1  0
 92 95  1  0
 95 93  1  0
 95 94  1  0
M  ISO  4   7 100  15 100  46 101  51 101
M  END
>  <TORSDO>  (89) 
F 19

>  <SCORE>  (89) 
-10.879

>  <name>  (89) 
89

>  <ligand_id>  (89) 
89

>  <original_smiles>  (89) 
[H]C(Oc1c([H])c([H])c2c(c1[H])C([H])([H])N(C(=O)C([H])(N([H])C(=O)C([H])(N([H])C([H])([H])[H])C([H])([H])[H])C(C([H])([H])[H])(C([H])([H])[H])C([H])([H])[H])C([H])(C(=O)N([H])C1([H])c3c([H])c([H])c([H])c([H])c3C([H])([H])C([H])([H])C1([H])[H])C2([H])[H])=C1C([H])([H])N(c2c([H])c([H])c(N([H])C(=O)N3C([H])([H])C([H])([H])C([H])([H])C([H])(n4nc(-c5c([H])c([H])c(Oc6c([H])c([H])c(F)c([H])c6F)c([H])c5[H])c(C(=O)N([H])[H])c4N([H])[H])C3([H])[H])c(OC([H])(C([H])([H])[H])C([H])([H])[H])c2[H])C([H])([H])C1([H])[H]

>  <smiles>  (89) 
[H]C(Oc1c([H])c([H])c2c(c1[H])C([H])([H])N(C(=O)C([H])(N([H])C(=O)C([H])(N([H])C([H])([H])[H])C([H])([H])[H])C(C([H])([H])[H])(C([H])([H])[H])C([H])([H])[H])C([H])(C(=O)N([H])C1([H])c3c([H])c([H])c([H])c([H])c3C([H])([H])C([H])([H])C1([H])[H])C2([H])[H])=C1C([H])([H])N(c2c([H])c([H])c(N([H])C(=O)N3C([H])([H])C([H])([H])C([H])([H])C([H])(n4nc(-c5c([H])c([H])c(Oc6c([H])c([H])c(F)c([H])c6F)c([H])c5[H])c(C(=O)N([H])[H])c4N([H])[H])C3([H])[H])c(OC([H])(C([H])([H])[H])C([H])([H])[H])c2[H])C([H])([H])C1([H])[H]

$$$$
90:0:0
     RDKit          3D

 93101  0  0  1  0  0  0  0  0999 V2000
  -30.8130  -17.3570   19.8680 C   0  0  0  0  0  3  0  0  0  0  0  0
  -32.7130  -17.2560   18.3610 C   0  0  0  0  0  3  0  0  0  0  0  0
  -30.7090  -18.7550   19.6830 C   0  0  0  0  0  0  0  0  0  0  0  0
  -31.8040  -16.5940   19.2190 C   0  0  0  0  0  0  0  0  0  0  0  0
  -31.6310  -19.4210   18.8340 C   0  0  0  0  0  0  0  0  0  0  0  0
  -32.6310  -18.6550   18.1710 C   0  0  0  0  0  0  0  0  0  0  0  0
  -33.5470  -19.2470   17.3680 F   0  0  0  0  0  0  0  0  0  0  0  0
  -32.2620  -14.1390   18.8050 C   0  0  0  0  0  0  0  0  0  0  0  0
  -31.6640  -11.8290   18.1560 C   0  0  0  0  0  2  0  0  0  0  0  0
  -30.5230  -11.8660   17.1160 C   0  0  0  0  0  2  0  0  0  0  0  0
  -29.1410  -11.9730   17.7970 C   0  0  0  0  0  2  0  0  0  0  0  0
  -29.0960  -13.0830   18.8820 C   0  0  0  0  0  3  0  0  0  0  0  0
  -30.3030  -12.9320   19.8320 C   0  0  0  0  0  2  0  0  0  0  0  0
  -31.5350  -13.0090   19.0200 N   0  0  0  0  0  0  0  0  0  0  0  0
  -33.2330  -14.1890   18.0420 O   0  0  0  0  0  0  0  0  0  0  0  0
  -31.7960  -15.1960   19.4960 N   0  0  0  0  0  0  0  0  0  0  0  0
  -31.0970  -14.9120   20.1670 H   0  0  0  0  0  0  0  0  0  0  0  0
  -27.1100  -14.1310   20.1470 C   0  0  0  0  0  0  0  0  0  0  0  0
  -25.9670  -13.5830   20.6660 C   0  0  0  0  0  0  0  0  0  0  0  0
  -26.0530  -12.1800   20.4130 C   0  0  0  0  0  0  0  0  0  0  0  0
  -27.8300  -13.0720   19.6130 N   0  0  0  0  0  0  0  0  0  0  0  0
  -27.2050  -11.8860   19.8250 N   0  0  0  0  0  0  0  0  0  0  0  0
  -25.0780  -11.1050   20.6420 C   0  0  0  0  0  0  0  0  0  0  0  0
  -25.3410  -10.0500   21.5420 C   0  0  0  0  0  3  0  0  0  0  0  0
  -24.3820   -9.0370   21.7580 C   0  0  0  0  0  3  0  0  0  0  0  0
  -23.1440   -9.0750   21.0740 C   0  0  0  0  0  0  0  0  0  0  0  0
  -22.8970  -10.1160   20.1620 C   0  0  0  0  0  3  0  0  0  0  0  0
  -23.8560  -11.1190   19.9430 C   0  0  0  0  0  3  0  0  0  0  0  0
  -22.1650   -8.1190   21.2000 O   0  0  0  0  0  0  0  0  0  0  0  0
  -21.9120   -7.5010   22.3990 C   0  0  0  0  0  0  0  0  0  0  0  0
  -21.4280   -8.2140   23.5170 C   0  0  0  0  0  3  0  0  0  0  0  0
  -21.1140   -7.5300   24.7070 C   0  0  0  0  0  3  0  0  0  0  0  0
  -21.2750   -6.1330   24.7800 C   0  0  0  0  0  0  0  0  0  0  0  0
  -21.7520   -5.4200   23.6660 C   0  0  0  0  0  3  0  0  0  0  0  0
  -22.0670   -6.1020   22.4770 C   0  0  0  0  0  0  0  0  0  0  0  0
  -22.5050   -5.4070   21.4010 F   0  0  0  0  0  0  0  0  0  0  0  0
  -20.9660   -5.4720   25.9210 F   0  0  0  0  0  0  0  0  0  0  0  0
  -24.8160  -14.3270   21.2810 C   0  0  0  0  0  0  0  0  0  0  0  0
  -24.1110  -13.7020   22.2180 N   0  0  0  0  0  0  0  0  0  0  0  0
  -24.5630  -15.4890   20.9670 O   0  0  0  0  0  0  0  0  0  0  0  0
  -24.3290  -12.7550   22.4920 H   0  0  0  0  0  0  0  0  0  0  0  0
  -23.3430  -14.1790   22.6690 H   0  0  0  0  0  0  0  0  0  0  0  0
  -27.5850  -15.4360   20.0630 N   0  0  0  0  0  0  0  0  0  0  0  0
  -27.0510  -16.2290   20.4010 H   0  0  0  0  0  0  0  0  0  0  0  0
  -28.4490  -15.7050   19.6100 H   0  0  0  0  0  0  0  0  0  0  0  0
  -28.9240  -19.1190   21.4320 C   0  0  0  0  0  2  0  0  0  0  0  0
  -29.6620  -19.5310   20.3860 C   0  0  0  0  0  3  0  0  0  0  0  0
  -31.5170  -20.8000   18.7550 O   0  0  0  0  0  0  0  0  0  0  0  0
  -31.1980  -21.4450   17.5230 C   0  0  0  0  0  2  0  0  0  0  0  0
  -30.8950  -22.9150   17.8820 C   0  0  0  0  0  2  0  0  0  0  0  0
  -30.2980  -23.7900   16.7530 C   0  0  0  0  0  2  0  0  0  0  0  0
  -29.7390  -25.1180   17.3110 C   0  0  0  0  0  2  0  0  0  0  0  0
  -29.0870  -25.9150   16.3160 O   0  0  0  0  0  0  0  0  0  0  0  0
  -24.7970  -28.4700   21.3970 C   0  0  0  0  0  0  0  0  0  0  0  0
  -27.8210  -26.3150   16.6730 C   0  0  0  0  0  0  0  0  0  0  0  0
  -23.6780  -27.6010   19.3700 C   0  0  0  0  0  3  0  0  0  0  0  0
  -25.2060  -27.1060   17.3890 C   0  0  0  0  0  0  0  0  0  0  0  0
  -26.0460  -28.5580   19.2430 C   0  0  0  0  0  2  0  0  0  0  0  0
  -26.3070  -27.6040   18.0980 C   0  0  0  0  0  0  0  0  0  0  0  0
  -27.6180  -27.2160   17.7410 C   0  0  0  0  0  3  0  0  0  0  0  0
  -26.7060  -25.8210   15.9650 C   0  0  0  0  0  3  0  0  0  0  0  0
  -25.3990  -26.2120   16.3200 C   0  0  0  0  0  3  0  0  0  0  0  0
  -23.8380  -27.5810   17.8270 C   0  0  0  0  0  2  0  0  0  0  0  0
  -24.8630  -28.2040   20.0620 N   0  0  0  0  0  0  0  0  0  0  0  0
  -23.7580  -28.2650   22.0390 O   0  0  0  0  0  0  0  0  0  0  0  0
  -23.3500  -26.1690   19.8520 C   0  0  0  0  0  0  0  0  0  0  0  0
  -22.0850  -25.7540   19.6750 N   0  0  0  0  0  0  0  0  0  0  0  0
  -24.2250  -25.4510   20.3430 O   0  0  0  0  0  0  0  0  0  0  0  0
  -21.4270  -26.4020   19.2680 H   0  0  0  0  0  0  0  0  0  0  0  0
  -19.0770  -23.7580   19.7870 C   0  0  0  0  0  0  0  0  0  0  0  0
  -21.5610  -24.4320   20.0180 C   0  0  0  0  0  3  0  0  0  0  0  0
  -21.8370  -23.4140   18.8880 C   0  0  0  0  0  2  0  0  0  0  0  0
  -20.6820  -23.2990   17.8870 C   0  0  0  0  0  2  0  0  0  0  0  0
  -19.3960  -22.8680   18.5980 C   0  0  0  0  0  2  0  0  0  0  0  0
  -20.0910  -24.5050   20.4430 C   0  0  0  0  0  0  0  0  0  0  0  0
  -19.7330  -25.3440   21.5220 C   0  0  0  0  0  3  0  0  0  0  0  0
  -18.3940  -25.4400   21.9450 C   0  0  0  0  0  3  0  0  0  0  0  0
  -17.3970  -24.6890   21.3000 C   0  0  0  0  0  3  0  0  0  0  0  0
  -17.7390  -23.8480   20.2260 C   0  0  0  0  0  3  0  0  0  0  0  0
  -26.0120  -29.0680   22.1720 C   0  0  0  0  0  3  0  0  0  0  0  0
  -25.5030  -30.1590   23.0150 N   0  0  0  0  0  0  0  0  0  0  0  0
  -25.6630  -31.4620   22.7480 C   0  0  0  0  0  0  0  0  0  0  0  0
  -26.3280  -31.8730   21.7910 O   0  0  0  0  0  0  0  0  0  0  0  0
  -24.8990  -29.8940   23.7780 H   0  0  0  0  0  0  0  0  0  0  0  0
  -23.6910  -32.9940   23.0410 C   0  0  0  0  0  1  0  0  0  0  0  0
  -24.9810  -32.4700   23.6930 C   0  0  0  0  0  3  0  0  0  0  0  0
  -26.9490  -33.2310   24.9490 C   0  0  0  0  0  1  0  0  0  0  0  0
  -25.8500  -33.6080   24.0640 N   0  0  0  0  0  0  0  0  0  0  0  0
  -25.3120  -34.3410   24.5180 H   0  0  0  0  0  0  0  0  0  0  0  0
  -26.7820  -28.0010   23.0440 C   0  0  1  0  0  0  0  0  0  0  0  0
  -25.8630  -27.1850   23.9840 C   0  0  0  0  0  1  0  0  0  0  0  0
  -27.5410  -27.0020   22.1370 C   0  0  0  0  0  1  0  0  0  0  0  0
  -27.8520  -28.7070   23.9090 C   0  0  0  0  0  1  0  0  0  0  0  0
  2  4  1  0
  3  1  1  0
  3 47  1  0
  4 16  1  0
  4  1  2  0
  5  3  2  0
  6  2  2  0
  6  5  1  0
  7  6  1  0
  8 14  1  0
  8 16  1  0
  9 14  1  0
 10 11  1  0
 10  9  1  0
 12 11  1  0
 12 21  1  0
 12 13  1  0
 14 13  1  0
 15  8  2  0
 16 17  1  0
 18 19  2  0
 19 38  1  0
 20 23  1  0
 20 19  1  0
 21 22  1  0
 21 18  1  0
 22 20  2  0
 23 24  1  0
 24 25  2  0
 26 29  1  0
 26 25  1  0
 27 26  2  0
 28 27  1  0
 28 23  2  0
 29 30  1  0
 30 35  2  0
 30 31  1  0
 31 32  2  0
 32 33  1  0
 33 37  1  0
 34 33  2  0
 35 34  1  0
 36 35  1  0
 38 39  1  0
 39 41  1  0
 39 42  1  0
 40 38  2  0
 43 18  1  0
 43 44  1  0
 45 43  1  0
 47 46  2  0
 48  5  1  0
 49 50  1  0
 49 48  1  0
 51 52  1  0
 51 50  1  0
 53 55  1  0
 53 52  1  0
 54 65  2  0
 55 60  1  0
 56 66  1  0
 56 64  1  0
 57 63  1  0
 57 59  1  0
 58 64  1  0
 59 58  1  0
 60 59  2  0
 61 62  1  0
 61 55  2  0
 62 57  2  0
 63 56  1  0
 64 54  1  0
 66 68  2  0
 67 66  1  0
 69 67  1  0
 70 79  2  0
 70 75  1  0
 71 67  1  0
 71 75  1  0
 72 71  1  0
 73 74  1  0
 73 72  1  0
 74 70  1  0
 75 76  2  0
 76 77  1  0
 78 77  2  0
 79 78  1  0
 80 54  1  0
 80 81  1  0
 80 90  1  0
 81 84  1  0
 82 81  1  0
 82 86  1  0
 83 82  2  0
 86 85  1  0
 86 88  1  0
 88 89  1  0
 88 87  1  0
 90 93  1  1
 90 91  1  0
 92 90  1  0
M  ISO  4   8 100  16 100  52 101  53 101
M  END
>  <TORSDO>  (90) 
F 22

>  <SCORE>  (90) 
-5.735

>  <name>  (90) 
90

>  <ligand_id>  (90) 
90

>  <original_smiles>  (90) 
[H]C([H])=C([H])c1c([H])c(N([H])C(=O)N2C([H])([H])C([H])([H])C([H])([H])C([H])(n3nc(-c4c([H])c([H])c(Oc5c([H])c([H])c(F)c([H])c5F)c([H])c4[H])c(C(=O)N([H])[H])c3N([H])[H])C2([H])[H])c([H])c(F)c1OC([H])([H])C([H])([H])C([H])([H])C([H])([H])Oc1c([H])c([H])c2c(c1[H])C([H])([H])N(C(=O)C([H])(N([H])C(=O)C([H])(N([H])C([H])([H])[H])C([H])([H])[H])C(C([H])([H])[H])(C([H])([H])[H])C([H])([H])[H])C([H])(C(=O)N([H])C1([H])c3c([H])c([H])c([H])c([H])c3C([H])([H])C([H])([H])C1([H])[H])C2([H])[H]

>  <smiles>  (90) 
[H]C([H])=C([H])c1c([H])c(N([H])C(=O)N2C([H])([H])C([H])([H])C([H])([H])C([H])(n3nc(-c4c([H])c([H])c(Oc5c([H])c([H])c(F)c([H])c5F)c([H])c4[H])c(C(=O)N([H])[H])c3N([H])[H])C2([H])[H])c([H])c(F)c1OC([H])([H])C([H])([H])C([H])([H])C([H])([H])Oc1c([H])c([H])c2c(c1[H])C([H])([H])N(C(=O)C([H])(N([H])C(=O)C([H])(N([H])C([H])([H])[H])C([H])([H])[H])C(C([H])([H])[H])(C([H])([H])[H])C([H])([H])[H])C([H])(C(=O)N([H])C1([H])c3c([H])c([H])c([H])c([H])c3C([H])([H])C([H])([H])C1([H])[H])C2([H])[H]

$$$$
91:0:0
     RDKit          3D

 97106  0  0  1  0  0  0  0  0999 V2000
  -28.8680  -23.6720   19.4650 C   0  0  0  0  0  0  0  0  0  0  0  0
  -28.7230  -24.2360   20.7010 C   0  0  0  0  0  0  0  0  0  0  0  0
  -29.2280  -22.1690   19.3140 C   0  0  0  0  0  2  0  0  0  0  0  0
  -28.9030  -23.3630   21.9440 C   0  0  0  0  0  2  0  0  0  0  0  0
  -28.7470  -21.8500   21.6980 C   0  0  0  0  0  2  0  0  0  0  0  0
  -29.5230  -21.4110   20.5430 N   0  0  0  0  0  0  0  0  0  0  0  0
  -30.7000  -17.9050   21.3990 C   0  0  0  0  0  3  0  0  0  0  0  0
  -29.0210  -19.1820   19.5700 C   0  0  0  0  0  3  0  0  0  0  0  0
  -30.6350  -19.3300   21.3830 C   0  0  0  0  0  0  0  0  0  0  0  0
  -29.1070  -17.7690   19.5800 C   0  0  0  0  0  0  0  0  0  0  0  0
  -29.7360  -19.9960   20.4880 C   0  0  0  0  0  0  0  0  0  0  0  0
  -29.9320  -17.1060   20.5240 C   0  0  0  0  0  0  0  0  0  0  0  0
  -28.2670  -16.9900   18.5830 C   0  0  0  0  0  1  0  0  0  0  0  0
  -30.6280  -14.6910   20.2320 C   0  0  0  0  0  0  0  0  0  0  0  0
  -30.3830  -12.5010   19.1070 C   0  0  0  0  0  2  0  0  0  0  0  0
  -29.4020  -12.6780   17.9280 C   0  0  0  0  0  2  0  0  0  0  0  0
  -27.9410  -12.5150   18.3930 C   0  0  0  0  0  2  0  0  0  0  0  0
  -27.6220  -13.3410   19.6660 C   0  0  0  0  0  3  0  0  0  0  0  0
  -28.7090  -13.1330   20.7440 C   0  0  0  0  0  2  0  0  0  0  0  0
  -30.0120  -13.4770   20.1440 N   0  0  0  0  0  0  0  0  0  0  0  0
  -31.7560  -14.9010   19.7750 O   0  0  0  0  0  0  0  0  0  0  0  0
  -29.8460  -15.6830   20.7210 N   0  0  0  0  0  0  0  0  0  0  0  0
  -28.9500  -15.3510   21.0460 H   0  0  0  0  0  0  0  0  0  0  0  0
  -25.2380  -13.9320   20.4400 C   0  0  0  0  0  0  0  0  0  0  0  0
  -24.1830  -13.1500   20.8250 C   0  0  0  0  0  0  0  0  0  0  0  0
  -24.6520  -11.8020   20.7730 C   0  0  0  0  0  0  0  0  0  0  0  0
  -26.2830  -13.0570   20.1760 N   0  0  0  0  0  0  0  0  0  0  0  0
  -25.9340  -11.7720   20.4350 N   0  0  0  0  0  0  0  0  0  0  0  0
  -23.9390  -10.5340   20.9710 C   0  0  0  0  0  0  0  0  0  0  0  0
  -24.3860   -9.5760   21.9070 C   0  0  0  0  0  3  0  0  0  0  0  0
  -23.6720   -8.3720   22.0930 C   0  0  0  0  0  3  0  0  0  0  0  0
  -22.4990   -8.1190   21.3430 C   0  0  0  0  0  0  0  0  0  0  0  0
  -22.0730   -9.0670   20.3960 C   0  0  0  0  0  3  0  0  0  0  0  0
  -22.7860  -10.2620   20.2090 C   0  0  0  0  0  3  0  0  0  0  0  0
  -21.7570   -6.9670   21.4380 O   0  0  0  0  0  0  0  0  0  0  0  0
  -21.7050   -6.2390   22.6000 C   0  0  0  0  0  0  0  0  0  0  0  0
  -21.2240   -6.7960   23.8060 C   0  0  0  0  0  3  0  0  0  0  0  0
  -21.1210   -5.9920   24.9590 C   0  0  0  0  0  3  0  0  0  0  0  0
  -21.4860   -4.6340   24.9070 C   0  0  0  0  0  0  0  0  0  0  0  0
  -21.9590   -4.0780   23.7050 C   0  0  0  0  0  3  0  0  0  0  0  0
  -22.0650   -4.8780   22.5550 C   0  0  0  0  0  0  0  0  0  0  0  0
  -22.5020   -4.3320   21.3950 F   0  0  0  0  0  0  0  0  0  0  0  0
  -21.3800   -3.8600   26.0120 F   0  0  0  0  0  0  0  0  0  0  0  0
  -22.7890  -13.6170   21.1340 C   0  0  0  0  0  0  0  0  0  0  0  0
  -22.0840  -12.9040   22.0060 N   0  0  0  0  0  0  0  0  0  0  0  0
  -22.3360  -14.6480   20.6390 O   0  0  0  0  0  0  0  0  0  0  0  0
  -22.4640  -12.0700   22.4270 H   0  0  0  0  0  0  0  0  0  0  0  0
  -21.1500  -13.1980   22.2560 H   0  0  0  0  0  0  0  0  0  0  0  0
  -25.3890  -15.3050   20.2800 N   0  0  0  0  0  0  0  0  0  0  0  0
  -24.6240  -15.9520   20.4370 H   0  0  0  0  0  0  0  0  0  0  0  0
  -26.2410  -15.7650   19.9910 H   0  0  0  0  0  0  0  0  0  0  0  0
  -32.1380  -19.6510   23.3970 C   0  0  0  0  0  2  0  0  0  0  0  0
  -31.4780  -20.1110   22.3200 C   0  0  0  0  0  3  0  0  0  0  0  0
  -28.7940  -23.9620   16.9950 C   0  0  0  0  0  2  0  0  0  0  0  0
  -28.6560  -24.4440   18.2430 C   0  0  0  0  0  3  0  0  0  0  0  0
  -28.3510  -25.6940   21.1080 C   0  0  0  0  0  2  0  0  0  0  0  0
  -28.3860  -26.7720   20.1450 O   0  0  0  0  0  0  0  0  0  0  0  0
  -24.5500  -31.9450   23.2780 C   0  0  0  0  0  0  0  0  0  0  0  0
  -27.2470  -27.5560   20.1460 C   0  0  0  0  0  0  0  0  0  0  0  0
  -23.3650  -30.5610   21.6060 C   0  0  0  0  0  3  0  0  0  0  0  0
  -24.8420  -29.0550   20.1640 C   0  0  0  0  0  0  0  0  0  0  0  0
  -25.8910  -30.9390   21.4290 C   0  0  0  0  0  2  0  0  0  0  0  0
  -25.9950  -29.5760   20.7670 C   0  0  0  0  0  0  0  0  0  0  0  0
  -27.2040  -28.8350   20.7540 C   0  0  0  0  0  3  0  0  0  0  0  0
  -26.0800  -27.0550   19.5350 C   0  0  0  0  0  3  0  0  0  0  0  0
  -24.8800  -27.7930   19.5440 C   0  0  0  0  0  3  0  0  0  0  0  0
  -23.5900  -29.9040   20.2180 C   0  0  0  0  0  2  0  0  0  0  0  0
  -24.6200  -31.1630   22.1640 N   0  0  0  0  0  0  0  0  0  0  0  0
  -23.4630  -32.2010   23.8170 O   0  0  0  0  0  0  0  0  0  0  0  0
  -22.7150  -29.5210   22.5470 C   0  0  0  0  0  0  0  0  0  0  0  0
  -21.3910  -29.3320   22.4100 N   0  0  0  0  0  0  0  0  0  0  0  0
  -23.3970  -28.8870   23.3570 O   0  0  0  0  0  0  0  0  0  0  0  0
  -20.9020  -29.8980   21.7300 H   0  0  0  0  0  0  0  0  0  0  0  0
  -18.0230  -28.1040   22.8670 C   0  0  0  0  0  0  0  0  0  0  0  0
  -20.5780  -28.3750   23.1590 C   0  0  0  0  0  3  0  0  0  0  0  0
  -20.6930  -26.9560   22.5580 C   0  0  0  0  0  2  0  0  0  0  0  0
  -19.6000  -26.6430   21.5310 C   0  0  0  0  0  2  0  0  0  0  0  0
  -18.2130  -26.7680   22.1690 C   0  0  0  0  0  2  0  0  0  0  0  0
  -19.1330  -28.8660   23.3180 C   0  0  0  0  0  0  0  0  0  0  0  0
  -18.9030  -30.1180   23.9290 C   0  0  0  0  0  3  0  0  0  0  0  0
  -17.5950  -30.6080   24.0940 C   0  0  0  0  0  3  0  0  0  0  0  0
  -16.4980  -29.8440   23.6610 C   0  0  0  0  0  3  0  0  0  0  0  0
  -16.7120  -28.5930   23.0540 C   0  0  0  0  0  3  0  0  0  0  0  0
  -25.8280  -32.5760   23.9160 C   0  0  0  0  0  3  0  0  0  0  0  0
  -26.3250  -31.8070   25.2010 C   0  0  1  0  0  0  0  0  0  0  0  0
  -25.2160  -31.5710   26.2530 C   0  0  0  0  0  1  0  0  0  0  0  0
  -26.9120  -30.4280   24.8190 C   0  0  0  0  0  1  0  0  0  0  0  0
  -27.4660  -32.6000   25.8800 C   0  0  0  0  0  1  0  0  0  0  0  0
  -25.5200  -33.9760   24.2360 N   0  0  0  0  0  0  0  0  0  0  0  0
  -25.8740  -35.0240   23.4800 C   0  0  0  0  0  0  0  0  0  0  0  0
  -26.5660  -34.9140   22.4640 O   0  0  0  0  0  0  0  0  0  0  0  0
  -24.9090  -34.1340   25.0230 H   0  0  0  0  0  0  0  0  0  0  0  0
  -24.1730  -36.8310   23.0690 C   0  0  0  0  0  1  0  0  0  0  0  0
  -25.3820  -36.4160   23.9220 C   0  0  0  0  0  3  0  0  0  0  0  0
  -27.4940  -37.2840   24.8280 C   0  0  0  0  0  1  0  0  0  0  0  0
  -26.4260  -37.4620   23.8460 N   0  0  0  0  0  0  0  0  0  0  0  0
  -26.0220  -38.3830   23.9800 H   0  0  0  0  0  0  0  0  0  0  0  0
  1  2  2  0
  2 56  1  0
  2  4  1  0
  3  1  1  0
  3  6  1  0
  5  4  1  0
  6  5  1  0
  8 10  2  0
  8 11  1  0
  9  7  1  0
  9 53  1  0
 10 12  1  0
 11  6  1  0
 11  9  2  0
 12 22  1  0
 12  7  2  0
 13 10  1  0
 14 22  1  0
 15 20  1  0
 16 17  1  0
 16 15  1  0
 18 17  1  0
 18 27  1  0
 18 19  1  0
 20 14  1  0
 20 19  1  0
 21 14  2  0
 22 23  1  0
 24 25  2  0
 25 44  1  0
 26 25  1  0
 26 29  1  0
 27 28  1  0
 27 24  1  0
 28 26  2  0
 29 30  1  0
 30 31  2  0
 32 35  1  0
 32 31  1  0
 33 32  2  0
 34 33  1  0
 34 29  2  0
 35 36  1  0
 36 37  1  0
 37 38  2  0
 39 38  1  0
 39 43  1  0
 40 39  2  0
 41 36  2  0
 41 40  1  0
 42 41  1  0
 44 45  1  0
 45 48  1  0
 45 47  1  0
 46 44  2  0
 49 50  1  0
 49 24  1  0
 51 49  1  0
 53 52  2  0
 54 55  2  0
 55  1  1  0
 57 59  1  0
 57 56  1  0
 58 69  2  0
 59 64  1  0
 60 68  1  0
 60 70  1  0
 61 67  1  0
 61 63  1  0
 62 68  1  0
 63 62  1  0
 64 63  2  0
 65 66  1  0
 65 59  2  0
 66 61  2  0
 67 60  1  0
 68 58  1  0
 70 72  2  0
 71 70  1  0
 73 71  1  0
 74 83  2  0
 74 79  1  0
 75 71  1  0
 75 79  1  0
 76 75  1  0
 77 78  1  0
 77 76  1  0
 78 74  1  0
 79 80  2  0
 80 81  1  0
 82 81  2  0
 83 82  1  0
 84 58  1  0
 84 89  1  0
 84 85  1  0
 85 88  1  1
 85 86  1  0
 87 85  1  0
 89 92  1  0
 90 94  1  0
 90 89  1  0
 91 90  2  0
 94 93  1  0
 96 94  1  0
 96 97  1  0
 96 95  1  0
M  ISO  4  14 100  22 100  56 101  57 101
M  END
>  <TORSDO>  (91) 
F 20

>  <SCORE>  (91) 
-14.313

>  <name>  (91) 
91

>  <ligand_id>  (91) 
91

>  <original_smiles>  (91) 
[H]C([H])=C([H])C1=C(C([H])([H])Oc2c([H])c([H])c3c(c2[H])C([H])([H])N(C(=O)C([H])(N([H])C(=O)C([H])(N([H])C([H])([H])[H])C([H])([H])[H])C(C([H])([H])[H])(C([H])([H])[H])C([H])([H])[H])C([H])(C(=O)N([H])C2([H])c4c([H])c([H])c([H])c([H])c4C([H])([H])C([H])([H])C2([H])[H])C3([H])[H])C([H])([H])C([H])([H])N(c2c([H])c(C([H])([H])[H])c(N([H])C(=O)N3C([H])([H])C([H])([H])C([H])([H])C([H])(n4nc(-c5c([H])c([H])c(Oc6c([H])c([H])c(F)c([H])c6F)c([H])c5[H])c(C(=O)N([H])[H])c4N([H])[H])C3([H])[H])c([H])c2C([H])=C([H])[H])C1([H])[H]

>  <smiles>  (91) 
[H]C([H])=C([H])C1=C(C([H])([H])Oc2c([H])c([H])c3c(c2[H])C([H])([H])N(C(=O)C([H])(N([H])C(=O)C([H])(N([H])C([H])([H])[H])C([H])([H])[H])C(C([H])([H])[H])(C([H])([H])[H])C([H])([H])[H])C([H])(C(=O)N([H])C2([H])c4c([H])c([H])c([H])c([H])c4C([H])([H])C([H])([H])C2([H])[H])C3([H])[H])C([H])([H])C([H])([H])N(c2c([H])c(C([H])([H])[H])c(N([H])C(=O)N3C([H])([H])C([H])([H])C([H])([H])C([H])(n4nc(-c5c([H])c([H])c(Oc6c([H])c([H])c(F)c([H])c6F)c([H])c5[H])c(C(=O)N([H])[H])c4N([H])[H])C3([H])[H])c([H])c2C([H])=C([H])[H])C1([H])[H]

$$$$
92:0:0
     RDKit          3D

105114  0  0  1  0  0  0  0  0999 V2000
  -31.5780  -18.5040   20.2590 C   0  0  0  0  0  3  0  0  0  0  0  0
  -28.9480  -19.4290   19.9610 C   0  0  0  0  0  3  0  0  0  0  0  0
  -30.5130  -17.6820   20.6800 C   0  0  0  0  0  0  0  0  0  0  0  0
  -31.3500  -19.7900   19.7230 C   0  0  0  0  0  0  0  0  0  0  0  0
  -30.0160  -20.2680   19.5560 C   0  0  0  0  0  0  0  0  0  0  0  0
  -29.1850  -18.1450   20.5350 C   0  0  0  0  0  0  0  0  0  0  0  0
  -28.7800  -23.8360   19.0650 C   0  0  0  0  0  0  0  0  0  0  0  0
  -29.3510  -22.7230   19.6410 C   0  0  0  0  0  0  0  0  0  0  0  0
  -28.3780  -23.8340   17.6370 C   0  0  0  0  0  0  0  0  0  0  0  0
  -27.7030  -22.5720   17.1050 C   0  0  0  0  0  2  0  0  0  0  0  0
  -28.7140  -21.4890   16.6920 C   0  0  0  0  0  2  0  0  0  0  0  0
  -30.0080  -21.4900   17.5190 C   0  0  0  0  0  2  0  0  0  0  0  0
  -29.6490  -22.7210   21.1420 C   0  0  0  0  0  1  0  0  0  0  0  0
  -29.7470  -21.5340   18.9650 N   0  0  0  0  0  0  0  0  0  0  0  0
  -28.5830  -24.7670   16.8550 O   0  0  0  0  0  0  0  0  0  0  0  0
  -28.3390  -25.0940   19.8620 C   0  0  0  0  0  2  0  0  0  0  0  0
  -28.3730  -26.3680   19.1740 O   0  0  0  0  0  0  0  0  0  0  0  0
  -24.8220  -31.4050   22.7950 C   0  0  0  0  0  0  0  0  0  0  0  0
  -27.2320  -27.1390   19.2920 C   0  0  0  0  0  0  0  0  0  0  0  0
  -23.5170  -30.1430   21.1160 C   0  0  0  0  0  3  0  0  0  0  0  0
  -24.8740  -28.6900   19.5200 C   0  0  0  0  0  0  0  0  0  0  0  0
  -26.0390  -30.4750   20.8240 C   0  0  0  0  0  2  0  0  0  0  0  0
  -26.0700  -29.1510   20.0850 C   0  0  0  0  0  0  0  0  0  0  0  0
  -27.2560  -28.3870   19.9620 C   0  0  0  0  0  3  0  0  0  0  0  0
  -26.0160  -26.6970   18.7290 C   0  0  0  0  0  3  0  0  0  0  0  0
  -24.8430  -27.4640   18.8380 C   0  0  0  0  0  3  0  0  0  0  0  0
  -23.6510  -29.5640   19.6840 C   0  0  0  0  0  2  0  0  0  0  0  0
  -24.8150  -30.6850   21.6370 N   0  0  0  0  0  0  0  0  0  0  0  0
  -23.7710  -31.6530   23.4030 O   0  0  0  0  0  0  0  0  0  0  0  0
  -22.8920  -29.0640   22.0300 C   0  0  0  0  0  0  0  0  0  0  0  0
  -21.5550  -28.9370   21.9800 N   0  0  0  0  0  0  0  0  0  0  0  0
  -23.6030  -28.3490   22.7410 O   0  0  0  0  0  0  0  0  0  0  0  0
  -21.0440  -29.5650   21.3770 H   0  0  0  0  0  0  0  0  0  0  0  0
  -18.1750  -27.8410   22.6360 C   0  0  0  0  0  0  0  0  0  0  0  0
  -20.7550  -27.9640   22.7240 C   0  0  0  0  0  3  0  0  0  0  0  0
  -20.7440  -26.5920   22.0120 C   0  0  0  0  0  2  0  0  0  0  0  0
  -19.5540  -26.4140   21.0650 C   0  0  0  0  0  2  0  0  0  0  0  0
  -18.2330  -26.5560   21.8280 C   0  0  0  0  0  2  0  0  0  0  0  0
  -19.3590  -28.5110   23.0430 C   0  0  0  0  0  0  0  0  0  0  0  0
  -19.2470  -29.7210   23.7610 C   0  0  0  0  0  3  0  0  0  0  0  0
  -17.9850  -30.2580   24.0770 C   0  0  0  0  0  3  0  0  0  0  0  0
  -16.8170  -29.5820   23.6850 C   0  0  0  0  0  3  0  0  0  0  0  0
  -16.9130  -28.3750   22.9690 C   0  0  0  0  0  3  0  0  0  0  0  0
  -26.1470  -31.9700   23.3960 C   0  0  0  0  0  3  0  0  0  0  0  0
  -25.8610  -33.3170   23.9080 N   0  0  0  0  0  0  0  0  0  0  0  0
  -26.1350  -34.4540   23.2530 C   0  0  0  0  0  0  0  0  0  0  0  0
  -26.7290  -34.4760   22.1720 O   0  0  0  0  0  0  0  0  0  0  0  0
  -25.3290  -33.3730   24.7630 H   0  0  0  0  0  0  0  0  0  0  0  0
  -24.3700  -36.2450   23.2410 C   0  0  0  0  0  1  0  0  0  0  0  0
  -25.6770  -35.7740   23.9000 C   0  0  0  0  0  3  0  0  0  0  0  0
  -27.8660  -36.5980   24.6480 C   0  0  0  0  0  1  0  0  0  0  0  0
  -26.6890  -36.8500   23.8220 N   0  0  0  0  0  0  0  0  0  0  0  0
  -26.2890  -37.7410   24.1030 H   0  0  0  0  0  0  0  0  0  0  0  0
  -26.7520  -31.0580   24.5320 C   0  0  1  0  0  0  0  0  0  0  0  0
  -25.7420  -30.6960   25.6440 C   0  0  0  0  0  1  0  0  0  0  0  0
  -27.2950  -29.7360   23.9380 C   0  0  0  0  0  1  0  0  0  0  0  0
  -27.9550  -31.7720   25.1930 C   0  0  0  0  0  1  0  0  0  0  0  0
  -32.7660  -21.5190   20.1710 C   0  0  0  0  0  3  0  0  0  0  0  0
  -32.4700  -20.5580   19.3860 N   0  0  0  0  0  0  0  0  0  0  0  0
  -33.9070  -22.4880   20.0080 C   0  0  0  0  0  0  0  0  0  0  0  0
  -34.0400  -23.5590   21.0820 C   0  0  0  0  0  1  0  0  0  0  0  0
  -34.7120  -22.4420   19.0710 O   0  0  0  0  0  0  0  0  0  0  0  0
  -30.8360  -16.3600   21.3920 C   0  0  0  0  0  2  0  0  0  0  0  0
  -30.7070  -14.2600   20.0270 C   0  0  0  0  0  0  0  0  0  0  0  0
  -30.3360  -12.1630   18.7690 C   0  0  0  0  0  2  0  0  0  0  0  0
  -29.3220  -12.3850   17.6300 C   0  0  0  0  0  2  0  0  0  0  0  0
  -27.8790  -12.2070   18.1410 C   0  0  0  0  0  2  0  0  0  0  0  0
  -27.6030  -13.0020   19.4450 C   0  0  0  0  0  3  0  0  0  0  0  0
  -28.7210  -12.7610   20.4830 C   0  0  0  0  0  2  0  0  0  0  0  0
  -30.0090  -13.1040   19.8540 N   0  0  0  0  0  0  0  0  0  0  0  0
  -31.7540  -14.5050   19.4230 O   0  0  0  0  0  0  0  0  0  0  0  0
  -30.1760  -15.1490   20.8830 N   0  0  0  0  0  0  0  0  0  0  0  0
  -29.2990  -14.9000   21.3170 H   0  0  0  0  0  0  0  0  0  0  0  0
  -25.2130  -13.5450   20.2260 C   0  0  0  0  0  0  0  0  0  0  0  0
  -24.1920  -12.7500   20.6720 C   0  0  0  0  0  0  0  0  0  0  0  0
  -24.7030  -11.4160   20.6720 C   0  0  0  0  0  0  0  0  0  0  0  0
  -26.2820  -12.6960   19.9880 N   0  0  0  0  0  0  0  0  0  0  0  0
  -25.9800  -11.4120   20.3110 N   0  0  0  0  0  0  0  0  0  0  0  0
  -24.0330  -10.1350   20.9370 C   0  0  0  0  0  0  0  0  0  0  0  0
  -24.4960   -9.2520   21.9360 C   0  0  0  0  0  3  0  0  0  0  0  0
  -23.8260   -8.0340   22.1830 C   0  0  0  0  0  3  0  0  0  0  0  0
  -22.6770   -7.6920   21.4320 C   0  0  0  0  0  0  0  0  0  0  0  0
  -22.2330   -8.5640   20.4210 C   0  0  0  0  0  3  0  0  0  0  0  0
  -22.9050   -9.7720   20.1730 C   0  0  0  0  0  3  0  0  0  0  0  0
  -21.9740   -6.5210   21.5850 O   0  0  0  0  0  0  0  0  0  0  0  0
  -21.8810   -5.8930   22.8010 C   0  0  0  0  0  0  0  0  0  0  0  0
  -21.3260   -6.5330   23.9310 C   0  0  0  0  0  3  0  0  0  0  0  0
  -21.1860   -5.8270   25.1420 C   0  0  0  0  0  3  0  0  0  0  0  0
  -21.5900   -4.4820   25.2250 C   0  0  0  0  0  0  0  0  0  0  0  0
  -22.1390   -3.8410   24.1000 C   0  0  0  0  0  3  0  0  0  0  0  0
  -22.2810   -4.5440   22.8900 C   0  0  0  0  0  0  0  0  0  0  0  0
  -22.7900   -3.9140   21.8040 F   0  0  0  0  0  0  0  0  0  0  0  0
  -21.4480   -3.7990   26.3850 F   0  0  0  0  0  0  0  0  0  0  0  0
  -22.7890  -13.1870   20.9870 C   0  0  0  0  0  0  0  0  0  0  0  0
  -22.1340  -12.5160   21.9290 N   0  0  0  0  0  0  0  0  0  0  0  0
  -22.2820  -14.1610   20.4320 O   0  0  0  0  0  0  0  0  0  0  0  0
  -22.5560  -11.7280   22.4000 H   0  0  0  0  0  0  0  0  0  0  0  0
  -21.1960  -12.7920   22.1800 H   0  0  0  0  0  0  0  0  0  0  0  0
  -25.3140  -14.9110   19.9810 N   0  0  0  0  0  0  0  0  0  0  0  0
  -24.5250  -15.5360   20.0910 H   0  0  0  0  0  0  0  0  0  0  0  0
  -26.1320  -15.3640   19.5970 H   0  0  0  0  0  0  0  0  0  0  0  0
  -28.1900  -17.3100   20.9950 O   0  0  0  0  0  0  0  0  0  0  0  0
  -26.8440  -17.5580   20.6180 C   0  0  0  0  0  2  0  0  0  0  0  0
  -24.5340  -16.4610   20.7200 C   0  0  0  0  0  1  0  0  0  0  0  0
  -26.0020  -16.3960   21.1590 C   0  0  0  0  0  2  0  0  0  0  0  0
  1  3  1  0
  2  6  1  0
  3 63  1  0
  4  1  2  0
  5  4  1  0
  5  2  2  0
  6  3  2  0
  6102  1  0
  7  8  2  0
  7 16  1  0
  8 13  1  0
  9  7  1  0
 10  9  1  0
 11 10  1  0
 11 12  1  0
 12 14  1  0
 14  5  1  0
 14  8  1  0
 15  9  2  0
 17 19  1  0
 17 16  1  0
 18 29  2  0
 19 24  1  0
 20 28  1  0
 20 30  1  0
 21 27  1  0
 21 23  1  0
 22 28  1  0
 23 22  1  0
 24 23  2  0
 25 26  1  0
 25 19  2  0
 26 21  2  0
 27 20  1  0
 28 18  1  0
 30 32  2  0
 31 30  1  0
 33 31  1  0
 34 43  2  0
 34 39  1  0
 35 31  1  0
 35 39  1  0
 36 35  1  0
 37 38  1  0
 37 36  1  0
 38 34  1  0
 39 40  2  0
 40 41  1  0
 42 41  2  0
 43 42  1  0
 44 18  1  0
 44 45  1  0
 44 54  1  0
 45 48  1  0
 46 50  1  0
 46 45  1  0
 47 46  2  0
 50 49  1  0
 52 50  1  0
 52 53  1  0
 52 51  1  0
 54 57  1  1
 54 55  1  0
 56 54  1  0
 59  4  1  0
 59 58  2  0
 60 58  1  0
 60 61  1  0
 62 60  2  0
 64 72  1  0
 65 70  1  0
 66 67  1  0
 66 65  1  0
 68 67  1  0
 68 77  1  0
 68 69  1  0
 70 64  1  0
 70 69  1  0
 71 64  2  0
 72 73  1  0
 72 63  1  0
 74 75  2  0
 75 76  1  0
 75 94  1  0
 76 79  1  0
 77 74  1  0
 77 78  1  0
 78 76  2  0
 79 80  1  0
 80 81  2  0
 82 85  1  0
 82 81  1  0
 83 82  2  0
 84 83  1  0
 84 79  2  0
 85 86  1  0
 86 91  2  0
 86 87  1  0
 87 88  2  0
 88 89  1  0
 89 93  1  0
 90 89  2  0
 91 90  1  0
 92 91  1  0
 94 95  1  0
 95 98  1  0
 95 97  1  0
 96 94  2  0
 99100  1  0
 99 74  1  0
101 99  1  0
103102  1  0
103105  1  0
104105  1  0
M  ISO  4  16 101  17 101  64 100  72 100
M  END
>  <TORSDO>  (92) 
F 24

>  <SCORE>  (92) 
-7.376

>  <name>  (92) 
92

>  <ligand_id>  (92) 
92

>  <original_smiles>  (92) 
[H]C(=Nc1c([H])c(C([H])([H])N([H])C(=O)N2C([H])([H])C([H])([H])C([H])([H])C([H])(n3nc(-c4c([H])c([H])c(Oc5c([H])c([H])c(F)c([H])c5F)c([H])c4[H])c(C(=O)N([H])[H])c3N([H])[H])C2([H])[H])c(OC([H])([H])C([H])([H])C([H])([H])[H])c([H])c1N1C(C([H])([H])[H])=C(C([H])([H])Oc2c([H])c([H])c3c(c2[H])C([H])([H])N(C(=O)C([H])(N([H])C(=O)C([H])(N([H])C([H])([H])[H])C([H])([H])[H])C(C([H])([H])[H])(C([H])([H])[H])C([H])([H])[H])C([H])(C(=O)N([H])C2([H])c4c([H])c([H])c([H])c([H])c4C([H])([H])C([H])([H])C2([H])[H])C3([H])[H])C(=O)C([H])([H])C([H])([H])C1([H])[H])C(=O)C([H])([H])[H]

>  <smiles>  (92) 
[H]C(=Nc1c([H])c(C([H])([H])N([H])C(=O)N2C([H])([H])C([H])([H])C([H])([H])C([H])(n3nc(-c4c([H])c([H])c(Oc5c([H])c([H])c(F)c([H])c5F)c([H])c4[H])c(C(=O)N([H])[H])c3N([H])[H])C2([H])[H])c(OC([H])([H])C([H])([H])C([H])([H])[H])c([H])c1N1C(C([H])([H])[H])=C(C([H])([H])Oc2c([H])c([H])c3c(c2[H])C([H])([H])N(C(=O)C([H])(N([H])C(=O)C([H])(N([H])C([H])([H])[H])C([H])([H])[H])C(C([H])([H])[H])(C([H])([H])[H])C([H])([H])[H])C([H])(C(=O)N([H])C2([H])c4c([H])c([H])c([H])c([H])c4C([H])([H])C([H])([H])C2([H])[H])C3([H])[H])C(=O)C([H])([H])C([H])([H])C1([H])[H])C(=O)C([H])([H])[H]

$$$$
93:0:0
     RDKit          3D

 97105  0  0  1  0  0  0  0  0999 V2000
  -28.4700  -16.2510   20.8190 C   0  0  0  0  0  3  0  0  0  0  0  0
  -27.9870  -18.5870   20.2900 C   0  0  0  0  0  3  0  0  0  0  0  0
  -30.2930  -17.8320   20.5000 C   0  0  0  0  0  3  0  0  0  0  0  0
  -27.5340  -17.2830   20.5880 C   0  0  0  0  0  0  0  0  0  0  0  0
  -29.8580  -16.4900   20.7930 C   0  0  0  0  0  0  0  0  0  0  0  0
  -29.3690  -18.9000   20.2260 C   0  0  0  0  0  0  0  0  0  0  0  0
  -31.1800  -14.2960   20.8170 C   0  0  0  0  0  0  0  0  0  0  0  0
  -30.9450  -11.8670   20.3430 C   0  0  0  0  0  2  0  0  0  0  0  0
  -30.1610  -11.6340   19.0360 C   0  0  0  0  0  2  0  0  0  0  0  0
  -28.6510  -11.5850   19.3230 C   0  0  0  0  0  2  0  0  0  0  0  0
  -28.1780  -12.7670   20.2100 C   0  0  0  0  0  3  0  0  0  0  0  0
  -29.0950  -12.9640   21.4390 C   0  0  0  0  0  2  0  0  0  0  0  0
  -30.4680  -13.1300   20.9490 N   0  0  0  0  0  0  0  0  0  0  0  0
  -32.3140  -14.2960   20.3310 O   0  0  0  0  0  0  0  0  0  0  0  0
  -30.7210  -15.4630   21.3450 N   0  0  0  0  0  0  0  0  0  0  0  0
  -31.5610  -15.9110   21.6780 H   0  0  0  0  0  0  0  0  0  0  0  0
  -25.8260  -13.5990   20.8140 C   0  0  0  0  0  0  0  0  0  0  0  0
  -24.6560  -12.9390   21.0690 C   0  0  0  0  0  0  0  0  0  0  0  0
  -24.9590  -11.5460   20.9770 C   0  0  0  0  0  0  0  0  0  0  0  0
  -26.7750  -12.6170   20.5930 N   0  0  0  0  0  0  0  0  0  0  0  0
  -26.2540  -11.3720   20.7440 N   0  0  0  0  0  0  0  0  0  0  0  0
  -24.0780  -10.3720   21.0390 C   0  0  0  0  0  0  0  0  0  0  0  0
  -24.3680   -9.2750   21.8770 C   0  0  0  0  0  3  0  0  0  0  0  0
  -23.4960   -8.1660   21.9340 C   0  0  0  0  0  3  0  0  0  0  0  0
  -22.3180   -8.1480   21.1510 C   0  0  0  0  0  0  0  0  0  0  0  0
  -22.0450   -9.2330   20.3000 C   0  0  0  0  0  3  0  0  0  0  0  0
  -22.9170  -10.3330   20.2410 C   0  0  0  0  0  3  0  0  0  0  0  0
  -21.4260   -7.1030   21.1220 O   0  0  0  0  0  0  0  0  0  0  0  0
  -21.2170   -6.3050   22.2180 C   0  0  0  0  0  0  0  0  0  0  0  0
  -20.8500   -6.8450   23.4710 C   0  0  0  0  0  3  0  0  0  0  0  0
  -20.5760   -5.9840   24.5540 C   0  0  0  0  0  3  0  0  0  0  0  0
  -20.6620   -4.5890   24.3840 C   0  0  0  0  0  0  0  0  0  0  0  0
  -21.0220   -4.0520   23.1370 C   0  0  0  0  0  3  0  0  0  0  0  0
  -21.2960   -4.9080   22.0570 C   0  0  0  0  0  0  0  0  0  0  0  0
  -21.6230   -4.3840   20.8490 F   0  0  0  0  0  0  0  0  0  0  0  0
  -20.3910   -3.7630   25.4220 F   0  0  0  0  0  0  0  0  0  0  0  0
  -23.3100  -13.5660   21.2890 C   0  0  0  0  0  0  0  0  0  0  0  0
  -22.4690  -12.9370   22.1030 N   0  0  0  0  0  0  0  0  0  0  0  0
  -23.0150  -14.6450   20.7760 O   0  0  0  0  0  0  0  0  0  0  0  0
  -22.7200  -12.0600   22.5350 H   0  0  0  0  0  0  0  0  0  0  0  0
  -21.5620  -13.3360   22.2920 H   0  0  0  0  0  0  0  0  0  0  0  0
  -26.1630  -14.9450   20.7260 N   0  0  0  0  0  0  0  0  0  0  0  0
  -25.4470  -15.6610   20.7350 H   0  0  0  0  0  0  0  0  0  0  0  0
  -27.0620  -15.2820   20.4090 H   0  0  0  0  0  0  0  0  0  0  0  0
  -26.0410  -16.9780   20.7540 C   0  0  0  0  0  3  0  0  0  0  0  0
  -25.5990  -17.4110   22.0900 N   0  0  0  0  0  4  0  0  0  0  0  0
  -25.6180  -18.4110   22.1590 H   0  0  0  0  0  0  0  0  0  0  0  0
  -26.2080  -17.0400   22.7970 H   0  0  0  0  0  0  0  0  0  0  0  0
  -24.6690  -17.0830   22.2790 H   0  0  0  0  0  0  0  0  0  0  0  0
  -24.2900  -16.5040   18.9180 C   0  0  0  0  0  1  0  0  0  0  0  0
  -25.1210  -17.5700   19.6490 C   0  0  0  0  0  2  0  0  0  0  0  0
  -29.8130  -20.2050   19.9360 O   0  0  0  0  0  0  0  0  0  0  0  0
  -28.8600  -21.3150   19.9940 C   0  0  0  0  0  2  0  0  0  0  0  0
  -28.6500  -23.8710   19.6170 C   0  0  0  0  0  3  0  0  0  0  0  0
  -29.3760  -22.7120   19.5660 C   0  0  0  0  0  3  0  0  0  0  0  0
  -29.0790  -25.2770   19.1180 C   0  0  0  0  0  2  0  0  0  0  0  0
  -28.7930  -26.4260   19.9760 O   0  0  0  0  0  0  0  0  0  0  0  0
  -24.6470  -31.3560   23.1300 C   0  0  0  0  0  0  0  0  0  0  0  0
  -27.5850  -27.1290   19.9270 C   0  0  0  0  0  0  0  0  0  0  0  0
  -23.5590  -29.9880   21.3820 C   0  0  0  0  0  3  0  0  0  0  0  0
  -25.1250  -28.5780   19.9310 C   0  0  0  0  0  0  0  0  0  0  0  0
  -26.0750  -30.4480   21.2920 C   0  0  0  0  0  2  0  0  0  0  0  0
  -26.2430  -29.1080   20.5860 C   0  0  0  0  0  0  0  0  0  0  0  0
  -27.4680  -28.3880   20.5840 C   0  0  0  0  0  3  0  0  0  0  0  0
  -26.4370  -26.6270   19.2730 C   0  0  0  0  0  3  0  0  0  0  0  0
  -25.2200  -27.3380   19.2740 C   0  0  0  0  0  3  0  0  0  0  0  0
  -23.8440  -29.3880   19.9800 C   0  0  0  0  0  2  0  0  0  0  0  0
  -24.7760  -30.6140   21.9920 N   0  0  0  0  0  0  0  0  0  0  0  0
  -23.5370  -31.5560   23.6430 O   0  0  0  0  0  0  0  0  0  0  0  0
  -22.9210  -28.8940   22.2710 C   0  0  0  0  0  0  0  0  0  0  0  0
  -21.6050  -28.6850   22.1080 N   0  0  0  0  0  0  0  0  0  0  0  0
  -23.6100  -28.2400   23.0600 O   0  0  0  0  0  0  0  0  0  0  0  0
  -21.1110  -29.2740   21.4500 H   0  0  0  0  0  0  0  0  0  0  0  0
  -18.2590  -27.3690   22.4970 C   0  0  0  0  0  0  0  0  0  0  0  0
  -20.8040  -27.6810   22.8080 C   0  0  0  0  0  3  0  0  0  0  0  0
  -20.9550  -26.2920   22.1460 C   0  0  0  0  0  2  0  0  0  0  0  0
  -19.8700  -25.9930   21.1100 C   0  0  0  0  0  2  0  0  0  0  0  0
  -18.4810  -26.0680   21.7480 C   0  0  0  0  0  2  0  0  0  0  0  0
  -19.3490  -28.1350   22.9810 C   0  0  0  0  0  0  0  0  0  0  0  0
  -19.0890  -29.3530   23.6440 C   0  0  0  0  0  3  0  0  0  0  0  0
  -17.7690  -29.8010   23.8340 C   0  0  0  0  0  3  0  0  0  0  0  0
  -16.6920  -29.0310   23.3640 C   0  0  0  0  0  3  0  0  0  0  0  0
  -16.9380  -27.8150   22.7010 C   0  0  0  0  0  3  0  0  0  0  0  0
  -25.8790  -32.0120   23.8240 C   0  0  0  0  0  3  0  0  0  0  0  0
  -25.5260  -33.4040   24.1410 N   0  0  0  0  0  0  0  0  0  0  0  0
  -25.8940  -34.4660   23.4120 C   0  0  0  0  0  0  0  0  0  0  0  0
  -26.6350  -34.3800   22.4300 O   0  0  0  0  0  0  0  0  0  0  0  0
  -24.8770  -33.5440   24.9010 H   0  0  0  0  0  0  0  0  0  0  0  0
  -24.1750  -36.2410   22.9400 C   0  0  0  0  0  1  0  0  0  0  0  0
  -25.3520  -35.8430   23.8440 C   0  0  0  0  0  3  0  0  0  0  0  0
  -27.4020  -36.7460   24.8490 C   0  0  0  0  0  1  0  0  0  0  0  0
  -26.3760  -36.9110   23.8230 N   0  0  0  0  0  0  0  0  0  0  0  0
  -25.9450  -37.8240   23.9490 H   0  0  0  0  0  0  0  0  0  0  0  0
  -26.3450  -31.2490   25.1260 C   0  0  1  0  0  0  0  0  0  0  0  0
  -25.2040  -30.9940   26.1370 C   0  0  0  0  0  1  0  0  0  0  0  0
  -26.9680  -29.8810   24.7640 C   0  0  0  0  0  1  0  0  0  0  0  0
  -27.4480  -32.0600   25.8470 C   0  0  0  0  0  1  0  0  0  0  0  0
  2  4  1  0
  3  5  2  0
  4 45  1  0
  4  1  2  0
  5  1  1  0
  5 15  1  0
  6  2  2  0
  6  3  1  0
  7 13  1  0
  7 15  1  0
  8 13  1  0
  9 10  1  0
  9  8  1  0
 11 10  1  0
 11 20  1  0
 11 12  1  0
 13 12  1  0
 14  7  2  0
 15 16  1  0
 17 18  2  0
 18 37  1  0
 19 22  1  0
 19 18  1  0
 20 21  1  0
 20 17  1  0
 21 19  2  0
 22 23  1  0
 23 24  2  0
 25 24  1  0
 26 25  2  0
 27 26  1  0
 27 22  2  0
 28 25  1  0
 28 29  1  0
 29 30  1  0
 30 31  2  0
 32 31  1  0
 32 36  1  0
 33 32  2  0
 34 29  2  0
 34 33  1  0
 35 34  1  0
 37 38  1  0
 38 41  1  0
 38 40  1  0
 39 37  2  0
 42 43  1  0
 42 17  1  0
 44 42  1  0
 45 51  1  0
 45 46  1  0
 46 47  1  0
 46 49  1  0
 46 48  1  0
 50 51  1  0
 52 53  1  0
 52  6  1  0
 55 54  2  0
 55 53  1  0
 56 54  1  0
 56 57  1  0
 58 69  2  0
 59 57  1  0
 59 64  1  0
 60 68  1  0
 60 70  1  0
 61 67  1  0
 61 63  1  0
 62 68  1  0
 63 62  1  0
 64 63  2  0
 65 66  1  0
 65 59  2  0
 66 61  2  0
 67 60  1  0
 68 58  1  0
 70 72  2  0
 71 70  1  0
 73 71  1  0
 74 83  2  0
 74 79  1  0
 75 71  1  0
 75 79  1  0
 76 75  1  0
 77 78  1  0
 77 76  1  0
 78 74  1  0
 79 80  2  0
 80 81  1  0
 82 81  2  0
 83 82  1  0
 84 58  1  0
 84 85  1  0
 84 94  1  0
 85 88  1  0
 86 90  1  0
 86 85  1  0
 87 86  2  0
 90 89  1  0
 92 90  1  0
 92 93  1  0
 92 91  1  0
 94 97  1  1
 94 95  1  0
 96 94  1  0
M  ISO  4   7 100  15 100  56 101  57 101
M  END
>  <TORSDO>  (93) 
F 23

>  <SCORE>  (93) 
-4.616

>  <name>  (93) 
93

>  <ligand_id>  (93) 
93

>  <original_smiles>  (93) 
[H]C(=C([H])C([H])([H])Oc1c([H])c(N([H])C(=O)N2C([H])([H])C([H])([H])C([H])([H])C([H])(n3nc(-c4c([H])c([H])c(Oc5c([H])c([H])c(F)c([H])c5F)c([H])c4[H])c(C(=O)N([H])[H])c3N([H])[H])C2([H])[H])c([H])c(C([H])(C([H])([H])C([H])([H])[H])[N+]([H])([H])[H])c1[H])C([H])([H])Oc1c([H])c([H])c2c(c1[H])C([H])([H])N(C(=O)C([H])(N([H])C(=O)C([H])(N([H])C([H])([H])[H])C([H])([H])[H])C(C([H])([H])[H])(C([H])([H])[H])C([H])([H])[H])C([H])(C(=O)N([H])C1([H])c3c([H])c([H])c([H])c([H])c3C([H])([H])C([H])([H])C1([H])[H])C2([H])[H]

>  <smiles>  (93) 
[H]C(=C([H])C([H])([H])Oc1c([H])c(N([H])C(=O)N2C([H])([H])C([H])([H])C([H])([H])C([H])(n3nc(-c4c([H])c([H])c(Oc5c([H])c([H])c(F)c([H])c5F)c([H])c4[H])c(C(=O)N([H])[H])c3N([H])[H])C2([H])[H])c([H])c(C([H])(C([H])([H])C([H])([H])[H])[N+]([H])([H])[H])c1[H])C([H])([H])Oc1c([H])c([H])c2c(c1[H])C([H])([H])N(C(=O)C([H])(N([H])C(=O)C([H])(N([H])C([H])([H])[H])C([H])([H])[H])C(C([H])([H])[H])(C([H])([H])[H])C([H])([H])[H])C([H])(C(=O)N([H])C1([H])c3c([H])c([H])c([H])c([H])c3C([H])([H])C([H])([H])C1([H])[H])C2([H])[H]

$$$$
94:0:0
     RDKit          3D

 97105  0  0  1  0  0  0  0  0999 V2000
  -29.9490  -18.2640   20.0480 C   0  0  0  0  0  3  0  0  0  0  0  0
  -27.7060  -19.1030   19.7310 C   0  0  0  0  0  3  0  0  0  0  0  0
  -29.4780  -16.9650   20.5430 C   0  0  0  0  0  0  0  0  0  0  0  0
  -28.0530  -16.8510   20.7080 C   0  0  0  0  0  0  0  0  0  0  0  0
  -27.2000  -17.8960   20.2430 C   0  0  0  0  0  0  0  0  0  0  0  0
  -29.0850  -19.3840   19.6730 C   0  0  0  0  0  0  0  0  0  0  0  0
  -25.8110  -17.8310   20.3710 N   0  0  0  0  0  0  0  0  0  0  0  0
  -25.2750  -18.6910   20.3640 H   0  0  0  0  0  0  0  0  0  0  0  0
  -25.4450  -17.1430   21.0190 H   0  0  0  0  0  0  0  0  0  0  0  0
  -30.3880  -15.8700   21.2210 C   0  0  0  0  0  0  0  0  0  0  0  0
  -30.7770  -16.1350   22.4020 N   0  0  0  0  0  0  0  0  0  0  0  0
  -30.4020  -17.0190   22.7190 H   0  0  0  0  0  0  0  0  0  0  0  0
  -30.9700  -14.5150   20.5970 C   0  0  0  0  0  0  0  0  0  0  0  0
  -30.9910  -12.0540   20.1020 C   0  0  0  0  0  2  0  0  0  0  0  0
  -30.3220  -11.7570   18.7420 C   0  0  0  0  0  2  0  0  0  0  0  0
  -28.8050  -11.5720   18.9200 C   0  0  0  0  0  2  0  0  0  0  0  0
  -28.1750  -12.6860   19.7970 C   0  0  0  0  0  3  0  0  0  0  0  0
  -28.9900  -12.9370   21.0880 C   0  0  0  0  0  2  0  0  0  0  0  0
  -30.3620  -13.2700   20.6900 N   0  0  0  0  0  0  0  0  0  0  0  0
  -32.1280  -14.5730   20.1700 O   0  0  0  0  0  0  0  0  0  0  0  0
  -25.6760  -13.2490   19.9200 C   0  0  0  0  0  0  0  0  0  0  0  0
  -24.5800  -12.5050   20.2580 C   0  0  0  0  0  0  0  0  0  0  0  0
  -25.0690  -11.1980   20.5640 C   0  0  0  0  0  0  0  0  0  0  0  0
  -26.7680  -12.4120   20.0750 N   0  0  0  0  0  0  0  0  0  0  0  0
  -26.3970  -11.1780   20.5070 N   0  0  0  0  0  0  0  0  0  0  0  0
  -24.3450   -9.9510   20.8460 C   0  0  0  0  0  0  0  0  0  0  0  0
  -24.7090   -9.1100   21.9200 C   0  0  0  0  0  3  0  0  0  0  0  0
  -23.9840   -7.9280   22.1810 C   0  0  0  0  0  3  0  0  0  0  0  0
  -22.8800   -7.5770   21.3680 C   0  0  0  0  0  0  0  0  0  0  0  0
  -22.5360   -8.4050   20.2850 C   0  0  0  0  0  3  0  0  0  0  0  0
  -23.2610   -9.5790   20.0240 C   0  0  0  0  0  3  0  0  0  0  0  0
  -22.1340   -6.4340   21.5310 O   0  0  0  0  0  0  0  0  0  0  0  0
  -21.9730   -5.8500   22.7610 C   0  0  0  0  0  0  0  0  0  0  0  0
  -21.3980   -6.5470   23.8480 C   0  0  0  0  0  3  0  0  0  0  0  0
  -21.1880   -5.8870   25.0750 C   0  0  0  0  0  3  0  0  0  0  0  0
  -21.5400   -4.5320   25.2160 C   0  0  0  0  0  0  0  0  0  0  0  0
  -22.1070   -3.8350   24.1340 C   0  0  0  0  0  3  0  0  0  0  0  0
  -22.3190   -4.4920   22.9100 C   0  0  0  0  0  0  0  0  0  0  0  0
  -22.8450   -3.8100   21.8650 F   0  0  0  0  0  0  0  0  0  0  0  0
  -21.3300   -3.8950   26.3920 F   0  0  0  0  0  0  0  0  0  0  0  0
  -23.1480  -12.9510   20.1970 C   0  0  0  0  0  0  0  0  0  0  0  0
  -22.3040  -12.4210   21.0760 N   0  0  0  0  0  0  0  0  0  0  0  0
  -22.7790  -13.8130   19.4010 O   0  0  0  0  0  0  0  0  0  0  0  0
  -22.6100  -11.7280   21.7420 H   0  0  0  0  0  0  0  0  0  0  0  0
  -21.3370  -12.7120   21.0820 H   0  0  0  0  0  0  0  0  0  0  0  0
  -25.8360  -14.5540   19.4680 N   0  0  0  0  0  0  0  0  0  0  0  0
  -25.0530  -15.1850   19.3450 H   0  0  0  0  0  0  0  0  0  0  0  0
  -26.7280  -14.9960   19.2910 H   0  0  0  0  0  0  0  0  0  0  0  0
  -27.4700  -15.6870   21.4490 C   0  0  0  0  0  3  0  0  0  0  0  0
  -26.1850  -15.3000   21.5660 C   0  0  0  0  0  3  0  0  0  0  0  0
  -25.7200  -14.0960   22.3550 C   0  0  0  0  0  1  0  0  0  0  0  0
  -29.5160  -20.7070   19.3020 O   0  0  0  0  0  0  0  0  0  0  0  0
  -28.5530  -21.8720   19.3470 C   0  0  0  0  0  2  0  0  0  0  0  0
  -29.0690  -23.3870   19.1400 C   0  0  0  0  0  0  0  0  0  0  0  0
  -30.2200  -23.6110   18.7500 O   0  0  0  0  0  0  0  0  0  0  0  0
  -28.0590  -24.6060   19.4380 C   0  0  0  0  0  2  0  0  0  0  0  0
  -28.4680  -26.0560   19.2450 O   0  0  0  0  0  0  0  0  0  0  0  0
  -25.0060  -31.2540   23.0070 C   0  0  0  0  0  0  0  0  0  0  0  0
  -27.4300  -27.0210   19.3300 C   0  0  0  0  0  0  0  0  0  0  0  0
  -23.7480  -30.1330   21.2060 C   0  0  0  0  0  3  0  0  0  0  0  0
  -25.1390  -28.7470   19.5620 C   0  0  0  0  0  0  0  0  0  0  0  0
  -26.3010  -30.3760   21.0430 C   0  0  0  0  0  2  0  0  0  0  0  0
  -26.3310  -29.0940   20.2100 C   0  0  0  0  0  0  0  0  0  0  0  0
  -27.4830  -28.2450   20.0840 C   0  0  0  0  0  3  0  0  0  0  0  0
  -26.2220  -26.7680   18.6430 C   0  0  0  0  0  3  0  0  0  0  0  0
  -25.0890  -27.5950   18.7670 C   0  0  0  0  0  3  0  0  0  0  0  0
  -23.9330  -29.6510   19.7430 C   0  0  0  0  0  2  0  0  0  0  0  0
  -25.0390  -30.5970   21.8100 N   0  0  0  0  0  0  0  0  0  0  0  0
  -23.9350  -31.4890   23.5850 O   0  0  0  0  0  0  0  0  0  0  0  0
  -23.0560  -29.0150   22.0250 C   0  0  0  0  0  0  0  0  0  0  0  0
  -21.7170  -28.9360   21.9360 N   0  0  0  0  0  0  0  0  0  0  0  0
  -23.7240  -28.2300   22.7030 O   0  0  0  0  0  0  0  0  0  0  0  0
  -21.2370  -29.6210   21.3690 H   0  0  0  0  0  0  0  0  0  0  0  0
  -18.2870  -27.9170   22.4820 C   0  0  0  0  0  0  0  0  0  0  0  0
  -20.8710  -27.9350   22.5890 C   0  0  0  0  0  3  0  0  0  0  0  0
  -20.8090  -26.6290   21.7620 C   0  0  0  0  0  2  0  0  0  0  0  0
  -19.6220  -26.5810   20.7970 C   0  0  0  0  0  2  0  0  0  0  0  0
  -18.3020  -26.7060   21.5630 C   0  0  0  0  0  2  0  0  0  0  0  0
  -19.4930  -28.5020   22.9510 C   0  0  0  0  0  0  0  0  0  0  0  0
  -19.4220  -29.6460   23.7760 C   0  0  0  0  0  3  0  0  0  0  0  0
  -18.1790  -30.2010   24.1330 C   0  0  0  0  0  3  0  0  0  0  0  0
  -16.9880  -29.6080   23.6790 C   0  0  0  0  0  3  0  0  0  0  0  0
  -17.0440  -28.4670   22.8580 C   0  0  0  0  0  3  0  0  0  0  0  0
  -26.3110  -31.7580   23.6960 C   0  0  0  0  0  3  0  0  0  0  0  0
  -26.0280  -33.0810   24.2700 N   0  0  0  0  0  0  0  0  0  0  0  0
  -26.3400  -34.2480   23.6910 C   0  0  0  0  0  0  0  0  0  0  0  0
  -26.9650  -34.3200   22.6300 O   0  0  0  0  0  0  0  0  0  0  0  0
  -25.4720  -33.0980   25.1120 H   0  0  0  0  0  0  0  0  0  0  0  0
  -24.6080  -36.0720   23.7350 C   0  0  0  0  0  1  0  0  0  0  0  0
  -25.8870  -35.5390   24.4010 C   0  0  0  0  0  3  0  0  0  0  0  0
  -28.0650  -36.2790   25.2590 C   0  0  0  0  0  1  0  0  0  0  0  0
  -26.9190  -36.5980   24.4120 N   0  0  0  0  0  0  0  0  0  0  0  0
  -26.5260  -37.4800   24.7310 H   0  0  0  0  0  0  0  0  0  0  0  0
  -26.8450  -30.7740   24.8080 C   0  0  1  0  0  0  0  0  0  0  0  0
  -25.7740  -30.3710   25.8500 C   0  0  0  0  0  1  0  0  0  0  0  0
  -27.3960  -29.4760   24.1740 C   0  0  0  0  0  1  0  0  0  0  0  0
  -28.0240  -31.4290   25.5640 C   0  0  0  0  0  1  0  0  0  0  0  0
  1  3  1  0
  2  5  2  0
  3  4  2  0
  3 10  1  0
  4 49  1  0
  5  7  1  0
  5  4  1  0
  6  2  1  0
  6  1  2  0
  7  9  1  0
  8  7  1  0
 10 11  2  0
 11 12  1  0
 13 19  1  0
 13 10  1  0
 14 19  1  0
 15 16  1  0
 15 14  1  0
 17 16  1  0
 17 24  1  0
 17 18  1  0
 19 18  1  0
 20 13  2  0
 21 24  1  0
 21 22  2  0
 22 23  1  0
 23 26  1  0
 24 25  1  0
 25 23  2  0
 26 27  1  0
 27 28  2  0
 29 32  1  0
 29 28  1  0
 30 29  2  0
 31 30  1  0
 31 26  2  0
 32 33  1  0
 33 38  2  0
 33 34  1  0
 34 35  2  0
 35 36  1  0
 36 40  1  0
 37 36  2  0
 38 37  1  0
 39 38  1  0
 41 22  1  0
 41 42  1  0
 42 45  1  0
 42 44  1  0
 43 41  2  0
 46 21  1  0
 47 46  1  0
 48 46  1  0
 49 50  2  0
 50 51  1  0
 52 53  1  0
 52  6  1  0
 54 53  1  0
 54 56  1  0
 55 54  2  0
 57 59  1  0
 57 56  1  0
 58 69  2  0
 59 64  1  0
 60 68  1  0
 60 70  1  0
 61 67  1  0
 61 63  1  0
 62 68  1  0
 63 62  1  0
 64 63  2  0
 65 66  1  0
 65 59  2  0
 66 61  2  0
 67 60  1  0
 68 58  1  0
 70 72  2  0
 71 70  1  0
 73 71  1  0
 74 83  2  0
 74 79  1  0
 75 71  1  0
 75 79  1  0
 76 75  1  0
 77 78  1  0
 77 76  1  0
 78 74  1  0
 79 80  2  0
 80 81  1  0
 82 81  2  0
 83 82  1  0
 84 58  1  0
 84 85  1  0
 84 94  1  0
 85 88  1  0
 86 85  1  0
 86 90  1  0
 87 86  2  0
 90 89  1  0
 90 92  1  0
 92 93  1  0
 92 91  1  0
 94 97  1  1
 94 95  1  0
 96 94  1  0
M  ISO  4  10 100  13 100  56 101  57 101
M  END
>  <TORSDO>  (94) 
F 23

>  <SCORE>  (94) 
-7.236

>  <name>  (94) 
94

>  <ligand_id>  (94) 
94

>  <original_smiles>  (94) 
[H]N=C(C(=O)N1C([H])([H])C([H])([H])C([H])([H])C([H])(n2nc(-c3c([H])c([H])c(Oc4c([H])c([H])c(F)c([H])c4F)c([H])c3[H])c(C(=O)N([H])[H])c2N([H])[H])C1([H])[H])c1c([H])c(OC([H])([H])C(=O)C([H])([H])Oc2c([H])c([H])c3c(c2[H])C([H])([H])N(C(=O)C([H])(N([H])C(=O)C([H])(N([H])C([H])([H])[H])C([H])([H])[H])C(C([H])([H])[H])(C([H])([H])[H])C([H])([H])[H])C([H])(C(=O)N([H])C2([H])c4c([H])c([H])c([H])c([H])c4C([H])([H])C([H])([H])C2([H])[H])C3([H])[H])c([H])c(N([H])[H])c1C([H])=C([H])C([H])([H])[H]

>  <smiles>  (94) 
[H]N=C(C(=O)N1C([H])([H])C([H])([H])C([H])([H])C([H])(n2nc(-c3c([H])c([H])c(Oc4c([H])c([H])c(F)c([H])c4F)c([H])c3[H])c(C(=O)N([H])[H])c2N([H])[H])C1([H])[H])c1c([H])c(OC([H])([H])C(=O)C([H])([H])Oc2c([H])c([H])c3c(c2[H])C([H])([H])N(C(=O)C([H])(N([H])C(=O)C([H])(N([H])C([H])([H])[H])C([H])([H])[H])C(C([H])([H])[H])(C([H])([H])[H])C([H])([H])[H])C([H])(C(=O)N([H])C2([H])c4c([H])c([H])c([H])c([H])c4C([H])([H])C([H])([H])C2([H])[H])C3([H])[H])c([H])c(N([H])[H])c1C([H])=C([H])C([H])([H])[H]

$$$$
95:0:0
     RDKit          3D

 95103  0  0  1  0  0  0  0  0999 V2000
  -28.5370  -19.6380   19.9170 C   0  0  0  0  0  3  0  0  0  0  0  0
  -30.6860  -18.3020   21.0550 C   0  0  0  0  0  3  0  0  0  0  0  0
  -28.6940  -18.2340   19.7100 C   0  0  0  0  0  0  0  0  0  0  0  0
  -29.8260  -17.5080   20.2450 C   0  0  0  0  0  0  0  0  0  0  0  0
  -29.4120  -20.4230   20.6950 C   0  0  0  0  0  0  0  0  0  0  0  0
  -30.4920  -19.7010   21.3100 C   0  0  0  0  0  0  0  0  0  0  0  0
  -30.1560  -16.0450   19.8100 C   0  0  0  0  0  0  0  0  0  0  0  0
  -29.9550  -15.7520   18.5930 N   0  0  0  0  0  0  0  0  0  0  0  0
  -29.5560  -16.5410   18.0960 H   0  0  0  0  0  0  0  0  0  0  0  0
  -30.8610  -14.9210   20.6840 C   0  0  0  0  0  0  0  0  0  0  0  0
  -30.7380  -12.5850   19.8370 C   0  0  0  0  0  2  0  0  0  0  0  0
  -29.8760  -12.5250   18.5560 C   0  0  0  0  0  2  0  0  0  0  0  0
  -28.3690  -12.4420   18.8860 C   0  0  0  0  0  2  0  0  0  0  0  0
  -27.9150  -13.4010   20.0200 C   0  0  0  0  0  3  0  0  0  0  0  0
  -28.9040  -13.3990   21.2020 C   0  0  0  0  0  2  0  0  0  0  0  0
  -30.2400  -13.6940   20.6730 N   0  0  0  0  0  0  0  0  0  0  0  0
  -32.0910  -14.9980   20.7380 O   0  0  0  0  0  0  0  0  0  0  0  0
  -25.4950  -14.0230   20.6120 C   0  0  0  0  0  0  0  0  0  0  0  0
  -24.4030  -13.2590   20.9180 C   0  0  0  0  0  0  0  0  0  0  0  0
  -24.8600  -11.9060   20.9360 C   0  0  0  0  0  0  0  0  0  0  0  0
  -26.5450  -13.1330   20.4480 N   0  0  0  0  0  0  0  0  0  0  0  0
  -26.1670  -11.8570   20.7130 N   0  0  0  0  0  0  0  0  0  0  0  0
  -24.1170  -10.6490   21.0920 C   0  0  0  0  0  0  0  0  0  0  0  0
  -24.4920   -9.6860   22.0540 C   0  0  0  0  0  3  0  0  0  0  0  0
  -23.7510   -8.4930   22.1970 C   0  0  0  0  0  3  0  0  0  0  0  0
  -22.6230   -8.2550   21.3760 C   0  0  0  0  0  0  0  0  0  0  0  0
  -22.2700   -9.2070   20.4030 C   0  0  0  0  0  3  0  0  0  0  0  0
  -23.0110  -10.3920   20.2590 C   0  0  0  0  0  3  0  0  0  0  0  0
  -21.8590   -7.1140   21.4270 O   0  0  0  0  0  0  0  0  0  0  0  0
  -21.7350   -6.3840   22.5820 C   0  0  0  0  0  0  0  0  0  0  0  0
  -21.2240   -6.9510   23.7700 C   0  0  0  0  0  3  0  0  0  0  0  0
  -21.0470   -6.1460   24.9140 C   0  0  0  0  0  3  0  0  0  0  0  0
  -21.3690   -4.7760   24.8690 C   0  0  0  0  0  0  0  0  0  0  0  0
  -21.8730   -4.2100   23.6840 C   0  0  0  0  0  3  0  0  0  0  0  0
  -22.0520   -5.0120   22.5430 C   0  0  0  0  0  0  0  0  0  0  0  0
  -22.5180   -4.4560   21.3980 F   0  0  0  0  0  0  0  0  0  0  0  0
  -21.1920   -4.0010   25.9640 F   0  0  0  0  0  0  0  0  0  0  0  0
  -22.9930  -13.7450   21.0910 C   0  0  0  0  0  0  0  0  0  0  0  0
  -22.2090  -13.0670   21.9200 N   0  0  0  0  0  0  0  0  0  0  0  0
  -22.5940  -14.7620   20.5250 O   0  0  0  0  0  0  0  0  0  0  0  0
  -22.5430  -12.2450   22.4000 H   0  0  0  0  0  0  0  0  0  0  0  0
  -21.2590  -13.3750   22.0780 H   0  0  0  0  0  0  0  0  0  0  0  0
  -25.6790  -15.3910   20.4390 N   0  0  0  0  0  0  0  0  0  0  0  0
  -24.9120  -16.0510   20.5070 H   0  0  0  0  0  0  0  0  0  0  0  0
  -26.5600  -15.8310   20.2210 H   0  0  0  0  0  0  0  0  0  0  0  0
  -26.9610  -18.1730   17.8760 C   0  0  0  0  0  2  0  0  0  0  0  0
  -27.6520  -17.5910   18.8720 C   0  0  0  0  0  3  0  0  0  0  0  0
  -31.4410  -20.2500   22.1510 O   0  0  0  0  0  0  0  0  0  0  0  0
  -30.2310  -21.4310   23.9290 C   0  0  0  0  0  1  0  0  0  0  0  0
  -31.2380  -21.5160   22.7720 C   0  0  0  0  0  2  0  0  0  0  0  0
  -29.1050  -21.7870   20.9090 O   0  0  0  0  0  0  0  0  0  0  0  0
  -29.2530  -22.7590   19.8230 C   0  0  0  0  0  2  0  0  0  0  0  0
  -28.3080  -24.0520   19.7090 C   0  0  0  0  0  2  0  0  0  0  0  0
  -28.5200  -25.3520   20.5990 C   0  0  0  0  0  2  0  0  0  0  0  0
  -28.4800  -26.6980   19.9870 O   0  0  0  0  0  0  0  0  0  0  0  0
  -24.6230  -31.9170   23.1460 C   0  0  0  0  0  0  0  0  0  0  0  0
  -27.3170  -27.4710   20.0280 C   0  0  0  0  0  0  0  0  0  0  0  0
  -23.4460  -30.5390   21.4670 C   0  0  0  0  0  3  0  0  0  0  0  0
  -24.9240  -29.0250   20.0280 C   0  0  0  0  0  0  0  0  0  0  0  0
  -25.9770  -30.9000   21.3000 C   0  0  0  0  0  2  0  0  0  0  0  0
  -26.0800  -29.5340   20.6340 C   0  0  0  0  0  0  0  0  0  0  0  0
  -27.2810  -28.7700   20.6160 C   0  0  0  0  0  3  0  0  0  0  0  0
  -26.1410  -26.9970   19.4140 C   0  0  0  0  0  3  0  0  0  0  0  0
  -24.9550  -27.7630   19.4090 C   0  0  0  0  0  3  0  0  0  0  0  0
  -23.6750  -29.8850   20.0770 C   0  0  0  0  0  2  0  0  0  0  0  0
  -24.7010  -31.1350   22.0290 N   0  0  0  0  0  0  0  0  0  0  0  0
  -23.5350  -32.1700   23.6820 O   0  0  0  0  0  0  0  0  0  0  0  0
  -22.7890  -29.4970   22.4050 C   0  0  0  0  0  0  0  0  0  0  0  0
  -21.4650  -29.3150   22.2710 N   0  0  0  0  0  0  0  0  0  0  0  0
  -23.4710  -28.8570   23.2080 O   0  0  0  0  0  0  0  0  0  0  0  0
  -20.9750  -29.8850   21.5960 H   0  0  0  0  0  0  0  0  0  0  0  0
  -18.0940  -28.0880   22.7330 C   0  0  0  0  0  0  0  0  0  0  0  0
  -20.6500  -28.3550   23.0170 C   0  0  0  0  0  3  0  0  0  0  0  0
  -20.7620  -26.9380   22.4080 C   0  0  0  0  0  2  0  0  0  0  0  0
  -19.6650  -26.6340   21.3820 C   0  0  0  0  0  2  0  0  0  0  0  0
  -18.2810  -26.7570   22.0250 C   0  0  0  0  0  2  0  0  0  0  0  0
  -19.2080  -28.8460   23.1840 C   0  0  0  0  0  0  0  0  0  0  0  0
  -18.9810  -30.0930   23.8050 C   0  0  0  0  0  3  0  0  0  0  0  0
  -17.6730  -30.5820   23.9800 C   0  0  0  0  0  3  0  0  0  0  0  0
  -16.5740  -29.8220   23.5450 C   0  0  0  0  0  3  0  0  0  0  0  0
  -16.7850  -28.5760   22.9270 C   0  0  0  0  0  3  0  0  0  0  0  0
  -25.8960  -32.5490   23.7900 C   0  0  0  0  0  3  0  0  0  0  0  0
  -25.5750  -33.9420   24.1340 N   0  0  0  0  0  0  0  0  0  0  0  0
  -25.9150  -35.0070   23.3960 C   0  0  0  0  0  0  0  0  0  0  0  0
  -26.6010  -34.9200   22.3730 O   0  0  0  0  0  0  0  0  0  0  0  0
  -24.9680  -34.0820   24.9280 H   0  0  0  0  0  0  0  0  0  0  0  0
  -24.1860  -36.7990   23.0390 C   0  0  0  0  0  1  0  0  0  0  0  0
  -25.4150  -36.3880   23.8640 C   0  0  0  0  0  3  0  0  0  0  0  0
  -27.5320  -37.2690   24.7440 C   0  0  0  0  0  1  0  0  0  0  0  0
  -26.4450  -37.4450   23.7830 N   0  0  0  0  0  0  0  0  0  0  0  0
  -26.0340  -38.3630   23.9340 H   0  0  0  0  0  0  0  0  0  0  0  0
  -26.4040  -31.7660   25.0630 C   0  0  1  0  0  0  0  0  0  0  0  0
  -25.3010  -31.5130   26.1180 C   0  0  0  0  0  1  0  0  0  0  0  0
  -26.9940  -30.3940   24.6610 C   0  0  0  0  0  1  0  0  0  0  0  0
  -27.5450  -32.5560   25.7450 C   0  0  0  0  0  1  0  0  0  0  0  0
  1  5  1  0
  2  6  1  0
  3  1  2  0
  3  4  1  0
  4  2  2  0
  5 51  1  0
  5  6  2  0
  6 48  1  0
  7  4  1  0
  7 10  1  0
  8  7  2  0
  9  8  1  0
 10 17  2  0
 11 16  1  0
 12 13  1  0
 12 11  1  0
 14 13  1  0
 14 21  1  0
 14 15  1  0
 16 10  1  0
 16 15  1  0
 18 19  2  0
 19 20  1  0
 19 38  1  0
 20 23  1  0
 21 18  1  0
 21 22  1  0
 22 20  2  0
 23 24  1  0
 24 25  2  0
 26 29  1  0
 26 25  1  0
 27 26  2  0
 28 27  1  0
 28 23  2  0
 29 30  1  0
 30 31  1  0
 31 32  2  0
 33 32  1  0
 33 37  1  0
 34 33  2  0
 35 30  2  0
 35 34  1  0
 36 35  1  0
 38 39  1  0
 39 42  1  0
 39 41  1  0
 40 38  2  0
 43 44  1  0
 43 18  1  0
 45 43  1  0
 46 47  2  0
 47  3  1  0
 48 50  1  0
 50 49  1  0
 52 51  1  0
 53 52  1  0
 53 54  1  0
 55 57  1  0
 55 54  1  0
 56 67  2  0
 57 62  1  0
 58 66  1  0
 58 68  1  0
 59 65  1  0
 59 61  1  0
 60 66  1  0
 61 60  1  0
 62 61  2  0
 63 57  2  0
 64 63  1  0
 64 59  2  0
 65 58  1  0
 66 56  1  0
 68 70  2  0
 69 68  1  0
 71 69  1  0
 72 81  2  0
 72 77  1  0
 73 69  1  0
 73 77  1  0
 74 73  1  0
 75 76  1  0
 75 74  1  0
 76 72  1  0
 77 78  2  0
 78 79  1  0
 80 79  2  0
 81 80  1  0
 82 56  1  0
 82 83  1  0
 82 92  1  0
 83 86  1  0
 84 88  1  0
 84 83  1  0
 85 84  2  0
 88 87  1  0
 90 88  1  0
 90 91  1  0
 90 89  1  0
 92 95  1  1
 92 93  1  0
 94 92  1  0
M  ISO  4   7 100  10 100  54 101  55 101
M  END
>  <TORSDO>  (95) 
F 24

>  <SCORE>  (95) 
-12.391

>  <name>  (95) 
95

>  <ligand_id>  (95) 
95

>  <original_smiles>  (95) 
[H]N=C(C(=O)N1C([H])([H])C([H])([H])C([H])([H])C([H])(n2nc(-c3c([H])c([H])c(Oc4c([H])c([H])c(F)c([H])c4F)c([H])c3[H])c(C(=O)N([H])[H])c2N([H])[H])C1([H])[H])c1c([H])c(OC([H])([H])C([H])([H])[H])c(OC([H])([H])C([H])([H])C([H])([H])Oc2c([H])c([H])c3c(c2[H])C([H])([H])N(C(=O)C([H])(N([H])C(=O)C([H])(N([H])C([H])([H])[H])C([H])([H])[H])C(C([H])([H])[H])(C([H])([H])[H])C([H])([H])[H])C([H])(C(=O)N([H])C2([H])c4c([H])c([H])c([H])c([H])c4C([H])([H])C([H])([H])C2([H])[H])C3([H])[H])c([H])c1C([H])=C([H])[H]

>  <smiles>  (95) 
[H]N=C(C(=O)N1C([H])([H])C([H])([H])C([H])([H])C([H])(n2nc(-c3c([H])c([H])c(Oc4c([H])c([H])c(F)c([H])c4F)c([H])c3[H])c(C(=O)N([H])[H])c2N([H])[H])C1([H])[H])c1c([H])c(OC([H])([H])C([H])([H])[H])c(OC([H])([H])C([H])([H])C([H])([H])Oc2c([H])c([H])c3c(c2[H])C([H])([H])N(C(=O)C([H])(N([H])C(=O)C([H])(N([H])C([H])([H])[H])C([H])([H])[H])C(C([H])([H])[H])(C([H])([H])[H])C([H])([H])[H])C([H])(C(=O)N([H])C2([H])c4c([H])c([H])c([H])c([H])c4C([H])([H])C([H])([H])C2([H])[H])C3([H])[H])c([H])c1C([H])=C([H])[H]

$$$$
96:0:0
     RDKit          3D

 92100  0  0  1  0  0  0  0  0999 V2000
  -31.2990  -19.6260   19.9040 C   0  0  0  0  0  3  0  0  0  0  0  0
  -30.9600  -21.0170   20.0000 C   0  0  0  0  0  0  0  0  0  0  0  0
  -30.2370  -18.8030   20.1690 C   0  0  0  0  0  0  0  0  0  0  0  0
  -29.6080  -21.0780   20.2850 C   0  0  0  0  0  0  0  0  0  0  0  0
  -29.1510  -19.7050   20.4280 O   0  0  0  0  0  0  0  0  0  0  0  0
  -28.9590  -23.6180   20.0870 C   0  0  0  0  0  0  0  0  0  0  0  0
  -28.8470  -22.2710   20.5110 N   0  0  0  0  0  0  0  0  0  0  0  0
  -29.7620  -23.9350   19.2080 O   0  0  0  0  0  0  0  0  0  0  0  0
  -28.0530  -22.1280   21.1200 H   0  0  0  0  0  0  0  0  0  0  0  0
  -28.0180  -24.8300   20.6440 C   0  0  0  0  0  2  0  0  0  0  0  0
  -28.2980  -26.2950   20.2640 O   0  0  0  0  0  0  0  0  0  0  0  0
  -24.5970  -31.8940   23.2340 C   0  0  0  0  0  0  0  0  0  0  0  0
  -27.2220  -27.2340   20.2290 C   0  0  0  0  0  0  0  0  0  0  0  0
  -23.4110  -30.4820   21.5970 C   0  0  0  0  0  3  0  0  0  0  0  0
  -24.8750  -28.9200   20.1860 C   0  0  0  0  0  0  0  0  0  0  0  0
  -25.9600  -30.7810   21.4330 C   0  0  0  0  0  2  0  0  0  0  0  0
  -26.0470  -29.3900   20.7920 C   0  0  0  0  0  0  0  0  0  0  0  0
  -27.2250  -28.5620   20.7980 C   0  0  0  0  0  3  0  0  0  0  0  0
  -26.0300  -26.8550   19.5780 C   0  0  0  0  0  3  0  0  0  0  0  0
  -24.8750  -27.6640   19.5620 C   0  0  0  0  0  3  0  0  0  0  0  0
  -23.6380  -29.8020   20.2230 C   0  0  0  0  0  2  0  0  0  0  0  0
  -24.6750  -31.0720   22.1440 N   0  0  0  0  0  0  0  0  0  0  0  0
  -23.5080  -32.1710   23.7600 O   0  0  0  0  0  0  0  0  0  0  0  0
  -22.7410  -29.4710   22.5610 C   0  0  0  0  0  0  0  0  0  0  0  0
  -21.4160  -29.2820   22.4250 N   0  0  0  0  0  0  0  0  0  0  0  0
  -23.4140  -28.8570   23.3930 O   0  0  0  0  0  0  0  0  0  0  0  0
  -20.9290  -29.8310   21.7300 H   0  0  0  0  0  0  0  0  0  0  0  0
  -18.0430  -28.0570   22.9120 C   0  0  0  0  0  0  0  0  0  0  0  0
  -20.5970  -28.3420   23.1960 C   0  0  0  0  0  3  0  0  0  0  0  0
  -20.7150  -26.9060   22.6320 C   0  0  0  0  0  2  0  0  0  0  0  0
  -19.6240  -26.5670   21.6120 C   0  0  0  0  0  2  0  0  0  0  0  0
  -18.2360  -26.7040   22.2460 C   0  0  0  0  0  2  0  0  0  0  0  0
  -19.1510  -28.8320   23.3430 C   0  0  0  0  0  0  0  0  0  0  0  0
  -18.9170  -30.0960   23.9260 C   0  0  0  0  0  3  0  0  0  0  0  0
  -17.6050  -30.5860   24.0800 C   0  0  0  0  0  3  0  0  0  0  0  0
  -16.5110  -29.8070   23.6640 C   0  0  0  0  0  3  0  0  0  0  0  0
  -16.7310  -28.5450   23.0870 C   0  0  0  0  0  3  0  0  0  0  0  0
  -25.8700  -32.5400   23.8620 C   0  0  0  0  0  3  0  0  0  0  0  0
  -25.5490  -33.9400   24.1800 N   0  0  0  0  0  0  0  0  0  0  0  0
  -25.8900  -34.9930   23.4240 C   0  0  0  0  0  0  0  0  0  0  0  0
  -26.5740  -34.8880   22.4030 O   0  0  0  0  0  0  0  0  0  0  0  0
  -24.9420  -34.0950   24.9710 H   0  0  0  0  0  0  0  0  0  0  0  0
  -24.1740  -36.7930   23.0320 C   0  0  0  0  0  1  0  0  0  0  0  0
  -25.3940  -36.3830   23.8720 C   0  0  0  0  0  3  0  0  0  0  0  0
  -27.5090  -37.2650   24.7570 C   0  0  0  0  0  1  0  0  0  0  0  0
  -26.4320  -37.4330   23.7860 N   0  0  0  0  0  0  0  0  0  0  0  0
  -26.0230  -38.3550   23.9230 H   0  0  0  0  0  0  0  0  0  0  0  0
  -26.3790  -31.7840   25.1500 C   0  0  1  0  0  0  0  0  0  0  0  0
  -25.2770  -31.5490   26.2100 C   0  0  0  0  0  1  0  0  0  0  0  0
  -26.9740  -30.4050   24.7780 C   0  0  0  0  0  1  0  0  0  0  0  0
  -27.5200  -32.5910   25.8130 C   0  0  0  0  0  1  0  0  0  0  0  0
  -30.2940  -17.2450   20.0490 C   0  0  0  0  0  3  0  0  0  0  0  0
  -29.8540  -16.1280   20.6380 N   0  0  0  0  0  0  0  0  0  0  0  0
  -30.5670  -14.8800   20.3410 C   0  0  0  0  0  0  0  0  0  0  0  0
  -30.3390  -12.5720   19.3660 C   0  0  0  0  0  2  0  0  0  0  0  0
  -29.4170  -12.6250   18.1280 C   0  0  0  0  0  2  0  0  0  0  0  0
  -27.9480  -12.4410   18.5500 C   0  0  0  0  0  2  0  0  0  0  0  0
  -27.5640  -13.3360   19.7580 C   0  0  0  0  0  3  0  0  0  0  0  0
  -28.6190  -13.3030   20.8830 C   0  0  0  0  0  2  0  0  0  0  0  0
  -29.9130  -13.6570   20.2920 N   0  0  0  0  0  0  0  0  0  0  0  0
  -31.7520  -14.8640   19.9940 O   0  0  0  0  0  0  0  0  0  0  0  0
  -25.1820  -13.9090   20.4960 C   0  0  0  0  0  0  0  0  0  0  0  0
  -24.1180  -13.1320   20.8610 C   0  0  0  0  0  0  0  0  0  0  0  0
  -24.5850  -11.7820   20.8310 C   0  0  0  0  0  0  0  0  0  0  0  0
  -26.2260  -13.0340   20.2550 N   0  0  0  0  0  0  0  0  0  0  0  0
  -25.8760  -11.7480   20.5240 N   0  0  0  0  0  0  0  0  0  0  0  0
  -23.8590  -10.5180   21.0190 C   0  0  0  0  0  0  0  0  0  0  0  0
  -24.2810   -9.5570   21.9640 C   0  0  0  0  0  3  0  0  0  0  0  0
  -23.5550   -8.3590   22.1410 C   0  0  0  0  0  3  0  0  0  0  0  0
  -22.3920   -8.1150   21.3720 C   0  0  0  0  0  0  0  0  0  0  0  0
  -21.9890   -9.0630   20.4170 C   0  0  0  0  0  3  0  0  0  0  0  0
  -22.7160  -10.2520   20.2380 C   0  0  0  0  0  3  0  0  0  0  0  0
  -21.6390   -6.9680   21.4560 O   0  0  0  0  0  0  0  0  0  0  0  0
  -21.5680   -6.2360   22.6140 C   0  0  0  0  0  0  0  0  0  0  0  0
  -21.0980   -6.7950   23.8220 C   0  0  0  0  0  3  0  0  0  0  0  0
  -20.9780   -5.9890   24.9710 C   0  0  0  0  0  3  0  0  0  0  0  0
  -21.3180   -4.6240   24.9130 C   0  0  0  0  0  0  0  0  0  0  0  0
  -21.7790   -4.0640   23.7100 C   0  0  0  0  0  3  0  0  0  0  0  0
  -21.9020   -4.8670   22.5620 C   0  0  0  0  0  0  0  0  0  0  0  0
  -22.3280   -4.3180   21.3990 F   0  0  0  0  0  0  0  0  0  0  0  0
  -21.1940   -3.8470   26.0140 F   0  0  0  0  0  0  0  0  0  0  0  0
  -22.7200  -13.6070   21.1290 C   0  0  0  0  0  0  0  0  0  0  0  0
  -21.9900  -12.9060   21.9890 N   0  0  0  0  0  0  0  0  0  0  0  0
  -22.2830  -14.6340   20.6120 O   0  0  0  0  0  0  0  0  0  0  0  0
  -22.3600  -12.0740   22.4270 H   0  0  0  0  0  0  0  0  0  0  0  0
  -21.0520  -13.2050   22.2150 H   0  0  0  0  0  0  0  0  0  0  0  0
  -25.3490  -15.2790   20.3230 N   0  0  0  0  0  0  0  0  0  0  0  0
  -24.5930  -15.9450   20.4430 H   0  0  0  0  0  0  0  0  0  0  0  0
  -26.2230  -15.7150   20.0500 H   0  0  0  0  0  0  0  0  0  0  0  0
  -31.9900  -22.1070   19.8070 C   0  0  0  0  0  2  0  0  0  0  0  0
  -34.3090  -22.5680   19.6670 C   0  0  0  0  0  1  0  0  0  0  0  0
  -33.3100  -21.5810   19.8770 O   0  0  0  0  0  0  0  0  0  0  0  0
  1  2  1  0
  1  3  2  0
  2  4  2  0
  3  5  1  0
  4  5  1  0
  4  7  1  0
  6  7  1  0
  6 10  1  0
  7  9  1  0
  8  6  2  0
 11 10  1  0
 12 23  2  0
 13 11  1  0
 13 18  1  0
 14 22  1  0
 14 24  1  0
 15 21  1  0
 15 17  1  0
 16 22  1  0
 17 18  2  0
 17 16  1  0
 19 13  2  0
 20 19  1  0
 20 15  2  0
 21 14  1  0
 22 12  1  0
 24 26  2  0
 25 24  1  0
 27 25  1  0
 28 37  2  0
 28 33  1  0
 29 25  1  0
 29 33  1  0
 30 29  1  0
 31 32  1  0
 31 30  1  0
 32 28  1  0
 33 34  2  0
 34 35  1  0
 36 35  2  0
 37 36  1  0
 38 12  1  0
 38 39  1  0
 38 48  1  0
 39 42  1  0
 40 44  1  0
 40 39  1  0
 41 40  2  0
 44 43  1  0
 46 44  1  0
 46 47  1  0
 46 45  1  0
 48 51  1  1
 48 49  1  0
 50 48  1  0
 52  3  1  0
 52 53  2  0
 54 53  1  0
 55 60  1  0
 56 57  1  0
 56 55  1  0
 58 57  1  0
 58 65  1  0
 58 59  1  0
 60 54  1  0
 60 59  1  0
 61 54  2  0
 62 63  2  0
 63 82  1  0
 64 63  1  0
 64 67  1  0
 65 62  1  0
 65 66  1  0
 66 64  2  0
 67 68  1  0
 68 69  2  0
 70 73  1  0
 70 69  1  0
 71 70  2  0
 72 71  1  0
 72 67  2  0
 73 74  1  0
 74 75  1  0
 75 76  2  0
 77 76  1  0
 77 81  1  0
 78 77  2  0
 79 74  2  0
 79 78  1  0
 80 79  1  0
 82 83  1  0
 83 86  1  0
 83 85  1  0
 84 82  2  0
 87 88  1  0
 87 62  1  0
 89 87  1  0
 90 92  1  0
 90  2  1  0
 91 92  1  0
M  ISO  4  10 101  11 101  53 100  54 100
M  END
>  <TORSDO>  (96) 
F 21

>  <SCORE>  (96) 
-13.543

>  <name>  (96) 
96

>  <ligand_id>  (96) 
96

>  <original_smiles>  (96) 
[H]C(=NC(=O)N1C([H])([H])C([H])([H])C([H])([H])C([H])(n2nc(-c3c([H])c([H])c(Oc4c([H])c([H])c(F)c([H])c4F)c([H])c3[H])c(C(=O)N([H])[H])c2N([H])[H])C1([H])[H])c1oc(N([H])C(=O)C([H])([H])Oc2c([H])c([H])c3c(c2[H])C([H])([H])N(C(=O)C([H])(N([H])C(=O)C([H])(N([H])C([H])([H])[H])C([H])([H])[H])C(C([H])([H])[H])(C([H])([H])[H])C([H])([H])[H])C([H])(C(=O)N([H])C2([H])c4c([H])c([H])c([H])c([H])c4C([H])([H])C([H])([H])C2([H])[H])C3([H])[H])c(C([H])([H])OC([H])([H])[H])c1[H]

>  <smiles>  (96) 
[H]C(=NC(=O)N1C([H])([H])C([H])([H])C([H])([H])C([H])(n2nc(-c3c([H])c([H])c(Oc4c([H])c([H])c(F)c([H])c4F)c([H])c3[H])c(C(=O)N([H])[H])c2N([H])[H])C1([H])[H])c1oc(N([H])C(=O)C([H])([H])Oc2c([H])c([H])c3c(c2[H])C([H])([H])N(C(=O)C([H])(N([H])C(=O)C([H])(N([H])C([H])([H])[H])C([H])([H])[H])C(C([H])([H])[H])(C([H])([H])[H])C([H])([H])[H])C([H])(C(=O)N([H])C2([H])c4c([H])c([H])c([H])c([H])c4C([H])([H])C([H])([H])C2([H])[H])C3([H])[H])c(C([H])([H])OC([H])([H])[H])c1[H]

$$$$
