0:0:0
     RDKit          3D

 95103  0  0  1  0  0  0  0  0999 V2000
  -29.5940  -18.1490   21.3880 C   0  0  0  0  0  3  0  0  0  0  0  0
  -30.1070  -19.6640   19.1210 C   0  0  0  0  0  3  0  0  0  0  0  0
  -30.2680  -17.4540   20.3420 C   0  0  0  0  0  0  0  0  0  0  0  0
  -29.4820  -20.3370   20.2180 C   0  0  0  0  0  0  0  0  0  0  0  0
  -30.4930  -18.2700   19.1730 C   0  0  0  0  0  0  0  0  0  0  0  0
  -29.2280  -19.5140   21.3380 C   0  0  0  0  0  0  0  0  0  0  0  0
  -28.6270  -20.0540   22.4280 F   0  0  0  0  0  0  0  0  0  0  0  0
  -30.6940  -15.9830   20.6780 C   0  0  0  0  0  0  0  0  0  0  0  0
  -30.7690  -15.6370   21.9000 N   0  0  0  0  0  0  0  0  0  0  0  0
  -30.5310  -16.4020   22.5180 H   0  0  0  0  0  0  0  0  0  0  0  0
  -31.1070  -14.8980   19.6170 C   0  0  0  0  0  0  0  0  0  0  0  0
  -30.7180  -12.6760   18.5400 C   0  0  0  0  0  2  0  0  0  0  0  0
  -29.6560  -12.8040   17.4250 C   0  0  0  0  0  2  0  0  0  0  0  0
  -28.2320  -12.6580   17.9960 C   0  0  0  0  0  2  0  0  0  0  0  0
  -28.0150  -13.5250   19.2610 C   0  0  0  0  0  3  0  0  0  0  0  0
  -29.1740  -13.3460   20.2640 C   0  0  0  0  0  2  0  0  0  0  0  0
  -30.4310  -13.6940   19.5770 N   0  0  0  0  0  0  0  0  0  0  0  0
  -32.1020  -15.0880   18.9070 O   0  0  0  0  0  0  0  0  0  0  0  0
  -25.7510  -14.1650   20.2950 C   0  0  0  0  0  0  0  0  0  0  0  0
  -24.6990  -13.4110   20.7410 C   0  0  0  0  0  0  0  0  0  0  0  0
  -25.0910  -12.0490   20.5700 C   0  0  0  0  0  0  0  0  0  0  0  0
  -26.7180  -13.2640   19.8820 N   0  0  0  0  0  0  0  0  0  0  0  0
  -26.3320  -11.9800   20.1060 N   0  0  0  0  0  0  0  0  0  0  0  0
  -24.3320  -10.8060   20.7670 C   0  0  0  0  0  0  0  0  0  0  0  0
  -24.7580   -9.8190   21.6830 C   0  0  0  0  0  3  0  0  0  0  0  0
  -24.0030   -8.6420   21.8690 C   0  0  0  0  0  3  0  0  0  0  0  0
  -22.8080   -8.4420   21.1380 C   0  0  0  0  0  0  0  0  0  0  0  0
  -22.4010   -9.4170   20.2100 C   0  0  0  0  0  3  0  0  0  0  0  0
  -23.1560  -10.5860   20.0230 C   0  0  0  0  0  3  0  0  0  0  0  0
  -22.0240   -7.3170   21.2340 O   0  0  0  0  0  0  0  0  0  0  0  0
  -21.8750   -6.6420   22.4190 C   0  0  0  0  0  0  0  0  0  0  0  0
  -21.3500   -7.2650   23.5710 C   0  0  0  0  0  3  0  0  0  0  0  0
  -21.1480   -6.5170   24.7470 C   0  0  0  0  0  3  0  0  0  0  0  0
  -21.4620   -5.1440   24.7720 C   0  0  0  0  0  0  0  0  0  0  0  0
  -21.9800   -4.5200   23.6240 C   0  0  0  0  0  3  0  0  0  0  0  0
  -22.1830   -5.2670   22.4490 C   0  0  0  0  0  0  0  0  0  0  0  0
  -22.6620   -4.6550   21.3390 F   0  0  0  0  0  0  0  0  0  0  0  0
  -21.2620   -4.4220   25.8990 F   0  0  0  0  0  0  0  0  0  0  0  0
  -23.3670  -13.9240   21.2090 C   0  0  0  0  0  0  0  0  0  0  0  0
  -22.7240  -13.2110   22.1270 N   0  0  0  0  0  0  0  0  0  0  0  0
  -22.9100  -14.9880   20.7960 O   0  0  0  0  0  0  0  0  0  0  0  0
  -23.1080  -12.3490   22.4830 H   0  0  0  0  0  0  0  0  0  0  0  0
  -21.8340  -13.5330   22.4800 H   0  0  0  0  0  0  0  0  0  0  0  0
  -25.9580  -15.5370   20.1860 N   0  0  0  0  0  0  0  0  0  0  0  0
  -25.2410  -16.2140   20.4280 H   0  0  0  0  0  0  0  0  0  0  0  0
  -26.7880  -15.9620   19.7930 H   0  0  0  0  0  0  0  0  0  0  0  0
  -31.1150  -17.7470   18.0350 N   0  0  0  0  0  0  0  0  0  0  0  0
  -31.4920  -18.3650   17.3230 H   0  0  0  0  0  0  0  0  0  0  0  0
  -31.5780  -16.8380   18.0750 H   0  0  0  0  0  0  0  0  0  0  0  0
  -28.9610  -22.6840   19.4980 C   0  0  0  0  0  3  0  0  0  0  0  0
  -29.1200  -21.7290   20.3620 N   0  0  0  0  0  0  0  0  0  0  0  0
  -27.1390  -24.0920   20.6250 C   0  0  0  0  0  1  0  0  0  0  0  0
  -28.5160  -24.1490   19.9330 C   0  0  0  0  0  3  0  0  0  0  0  0
  -28.5240  -25.3070   18.8360 C   0  0  0  0  0  2  0  0  0  0  0  0
  -28.4610  -26.7240   19.2710 O   0  0  0  0  0  0  0  0  0  0  0  0
  -24.6370  -31.5810   22.9530 C   0  0  0  0  0  0  0  0  0  0  0  0
  -27.2780  -27.4750   19.3380 C   0  0  0  0  0  0  0  0  0  0  0  0
  -23.4140  -30.3160   21.2180 C   0  0  0  0  0  3  0  0  0  0  0  0
  -24.8560  -28.9770   19.5840 C   0  0  0  0  0  0  0  0  0  0  0  0
  -25.9280  -30.7520   20.9710 C   0  0  0  0  0  2  0  0  0  0  0  0
  -26.0270  -29.4510   20.1850 C   0  0  0  0  0  0  0  0  0  0  0  0
  -27.2370  -28.7100   20.0550 C   0  0  0  0  0  3  0  0  0  0  0  0
  -26.0790  -27.0470   18.7270 C   0  0  0  0  0  3  0  0  0  0  0  0
  -24.8830  -27.7820   18.8460 C   0  0  0  0  0  3  0  0  0  0  0  0
  -23.5920  -29.7920   19.7680 C   0  0  0  0  0  2  0  0  0  0  0  0
  -24.6810  -30.8960   21.7710 N   0  0  0  0  0  0  0  0  0  0  0  0
  -23.5670  -31.7600   23.5540 O   0  0  0  0  0  0  0  0  0  0  0  0
  -22.8260  -29.1810   22.0900 C   0  0  0  0  0  0  0  0  0  0  0  0
  -21.4980  -28.9850   22.0130 N   0  0  0  0  0  0  0  0  0  0  0  0
  -23.5590  -28.4830   22.7930 O   0  0  0  0  0  0  0  0  0  0  0  0
  -20.9630  -29.6060   21.4230 H   0  0  0  0  0  0  0  0  0  0  0  0
  -18.1780  -27.6580   22.5430 C   0  0  0  0  0  0  0  0  0  0  0  0
  -20.7400  -27.9460   22.7110 C   0  0  0  0  0  3  0  0  0  0  0  0
  -20.8380  -26.5920   21.9720 C   0  0  0  0  0  2  0  0  0  0  0  0
  -19.6900  -26.3590   20.9840 C   0  0  0  0  0  2  0  0  0  0  0  0
  -18.3420  -26.3980   21.7100 C   0  0  0  0  0  2  0  0  0  0  0  0
  -19.3030  -28.3930   23.0000 C   0  0  0  0  0  0  0  0  0  0  0  0
  -19.0920  -29.5770   23.7420 C   0  0  0  0  0  3  0  0  0  0  0  0
  -17.7890  -30.0230   24.0310 C   0  0  0  0  0  3  0  0  0  0  0  0
  -16.6780  -29.2810   23.5880 C   0  0  0  0  0  3  0  0  0  0  0  0
  -16.8740  -28.1000   22.8500 C   0  0  0  0  0  3  0  0  0  0  0  0
  -25.9220  -32.1910   23.5920 C   0  0  0  0  0  3  0  0  0  0  0  0
  -25.5920  -33.5520   24.0400 N   0  0  0  0  0  0  0  0  0  0  0  0
  -25.8740  -34.6680   23.3570 C   0  0  0  0  0  0  0  0  0  0  0  0
  -26.5110  -34.6630   22.3000 O   0  0  0  0  0  0  0  0  0  0  0  0
  -25.0230  -33.6290   24.8720 H   0  0  0  0  0  0  0  0  0  0  0  0
  -24.0780  -36.4260   23.2190 C   0  0  0  0  0  1  0  0  0  0  0  0
  -25.3690  -36.0050   23.9370 C   0  0  0  0  0  3  0  0  0  0  0  0
  -27.5130  -36.9020   24.7350 C   0  0  0  0  0  1  0  0  0  0  0  0
  -26.3650  -37.0950   23.8500 N   0  0  0  0  0  0  0  0  0  0  0  0
  -25.9390  -37.9910   24.0770 H   0  0  0  0  0  0  0  0  0  0  0  0
  -26.4870  -31.3340   24.7920 C   0  0  1  0  0  0  0  0  0  0  0  0
  -25.4280  -31.0010   25.8690 C   0  0  0  0  0  1  0  0  0  0  0  0
  -27.0740  -29.9990   24.2790 C   0  0  0  0  0  1  0  0  0  0  0  0
  -27.6470  -32.0940   25.4780 C   0  0  0  0  0  1  0  0  0  0  0  0
  2  5  2  0
  2  4  1  0
  3  8  1  0
  3  1  2  0
  4 51  1  0
  4  6  2  0
  5  3  1  0
  6  1  1  0
  6  7  1  0
  8  9  2  0
  9 10  1  0
 11  8  1  0
 12 17  1  0
 13 14  1  0
 13 12  1  0
 15 14  1  0
 15 22  1  0
 15 16  1  0
 17 11  1  0
 17 16  1  0
 18 11  2  0
 19 20  2  0
 20 39  1  0
 21 20  1  0
 21 24  1  0
 22 23  1  0
 22 19  1  0
 23 21  2  0
 24 25  1  0
 25 26  2  0
 27 30  1  0
 27 26  1  0
 28 27  2  0
 29 28  1  0
 29 24  2  0
 30 31  1  0
 31 36  2  0
 31 32  1  0
 32 33  2  0
 33 34  1  0
 34 38  1  0
 35 34  2  0
 36 35  1  0
 37 36  1  0
 39 40  1  0
 40 43  1  0
 40 42  1  0
 41 39  2  0
 44 19  1  0
 44 45  1  0
 46 44  1  0
 47 49  1  0
 47  5  1  0
 48 47  1  0
 50 53  1  0
 50 51  2  0
 53 52  1  0
 54 55  1  0
 54 53  1  0
 55 57  1  0
 56 67  2  0
 57 62  1  0
 58 66  1  0
 58 68  1  0
 59 65  1  0
 59 61  1  0
 60 66  1  0
 61 60  1  0
 62 61  2  0
 63 64  1  0
 63 57  2  0
 64 59  2  0
 65 58  1  0
 66 56  1  0
 68 70  2  0
 69 68  1  0
 71 69  1  0
 72 81  2  0
 72 77  1  0
 73 69  1  0
 73 77  1  0
 74 73  1  0
 75 76  1  0
 75 74  1  0
 76 72  1  0
 77 78  2  0
 78 79  1  0
 80 79  2  0
 81 80  1  0
 82 56  1  0
 82 83  1  0
 82 92  1  0
 83 86  1  0
 84 88  1  0
 84 83  1  0
 85 84  2  0
 88 87  1  0
 90 88  1  0
 90 91  1  0
 90 89  1  0
 92 95  1  1
 92 93  1  0
 94 92  1  0
M  ISO  4   8 100  11 100  54 101  55 101
M  END
>  <TORSDO>  (1) 
F 21

>  <SCORE>  (1) 
-10.167

>  <name>  (1) 
0

>  <ligand_id>  (1) 
0

>  <original_smiles>  (1) 
[H]N=C(C(=O)N1C([H])([H])C([H])([H])C([H])([H])C([H])(n2nc(-c3c([H])c([H])c(Oc4c([H])c([H])c(F)c([H])c4F)c([H])c3[H])c(C(=O)N([H])[H])c2N([H])[H])C1([H])[H])c1c([H])c(F)c(N=C([H])C([H])(C([H])([H])[H])C([H])([H])Oc2c([H])c([H])c3c(c2[H])C([H])([H])N(C(=O)C([H])(N([H])C(=O)C([H])(N([H])C([H])([H])[H])C([H])([H])[H])C(C([H])([H])[H])(C([H])([H])[H])C([H])([H])[H])C([H])(C(=O)N([H])C2([H])c4c([H])c([H])c([H])c([H])c4C([H])([H])C([H])([H])C2([H])[H])C3([H])[H])c([H])c1N([H])[H]

>  <smiles>  (1) 
[H]N=C(C(=O)N1C([H])([H])C([H])([H])C([H])([H])C([H])(n2nc(-c3c([H])c([H])c(Oc4c([H])c([H])c(F)c([H])c4F)c([H])c3[H])c(C(=O)N([H])[H])c2N([H])[H])C1([H])[H])c1c([H])c(F)c(N=C([H])C([H])(C([H])([H])[H])C([H])([H])Oc2c([H])c([H])c3c(c2[H])C([H])([H])N(C(=O)C([H])(N([H])C(=O)C([H])(N([H])C([H])([H])[H])C([H])([H])[H])C(C([H])([H])[H])(C([H])([H])[H])C([H])([H])[H])C([H])(C(=O)N([H])C2([H])c4c([H])c([H])c([H])c([H])c4C([H])([H])C([H])([H])C2([H])[H])C3([H])[H])c([H])c1N([H])[H]

$$$$
1:0:0
     RDKit          3D

 97105  0  0  1  0  0  0  0  0999 V2000
  -28.4160  -16.1750   21.2420 C   0  0  0  0  0  3  0  0  0  0  0  0
  -30.4350  -17.3690   20.6000 C   0  0  0  0  0  3  0  0  0  0  0  0
  -27.6190  -17.0790   20.5110 C   0  0  0  0  0  0  0  0  0  0  0  0
  -28.2490  -18.1090   19.7600 C   0  0  0  0  0  0  0  0  0  0  0  0
  -29.8220  -16.2750   21.2620 C   0  0  0  0  0  0  0  0  0  0  0  0
  -29.6500  -18.3100   19.8800 C   0  0  0  0  0  0  0  0  0  0  0  0
  -27.4540  -18.9490   18.7630 C   0  0  0  0  0  1  0  0  0  0  0  0
  -31.2950  -14.2890   21.4890 C   0  0  0  0  0  0  0  0  0  0  0  0
  -31.4560  -11.8510   21.0860 C   0  0  0  0  0  2  0  0  0  0  0  0
  -30.9030  -11.5100   19.6850 C   0  0  0  0  0  2  0  0  0  0  0  0
  -29.3730  -11.3320   19.7180 C   0  0  0  0  0  2  0  0  0  0  0  0
  -28.6580  -12.4990   20.4480 C   0  0  0  0  0  3  0  0  0  0  0  0
  -29.3270  -12.7560   21.8150 C   0  0  0  0  0  2  0  0  0  0  0  0
  -30.7580  -13.0430   21.5890 N   0  0  0  0  0  0  0  0  0  0  0  0
  -32.4360  -14.5120   21.0670 O   0  0  0  0  0  0  0  0  0  0  0  0
  -30.5110  -15.2600   21.9920 N   0  0  0  0  0  0  0  0  0  0  0  0
  -29.9210  -14.8650   22.7080 H   0  0  0  0  0  0  0  0  0  0  0  0
  -26.1540  -13.1040   20.3750 C   0  0  0  0  0  0  0  0  0  0  0  0
  -25.0260  -12.3590   20.5980 C   0  0  0  0  0  0  0  0  0  0  0  0
  -25.4820  -11.0480   20.9360 C   0  0  0  0  0  0  0  0  0  0  0  0
  -27.2240  -12.2490   20.5950 N   0  0  0  0  0  0  0  0  0  0  0  0
  -26.8080  -11.0170   20.9820 N   0  0  0  0  0  0  0  0  0  0  0  0
  -24.7330   -9.8040   21.1620 C   0  0  0  0  0  0  0  0  0  0  0  0
  -24.9610   -9.0030   22.3020 C   0  0  0  0  0  3  0  0  0  0  0  0
  -24.2190   -7.8200   22.5070 C   0  0  0  0  0  3  0  0  0  0  0  0
  -23.2350   -7.4290   21.5680 C   0  0  0  0  0  0  0  0  0  0  0  0
  -23.0280   -8.2170   20.4220 C   0  0  0  0  0  3  0  0  0  0  0  0
  -23.7720   -9.3910   20.2170 C   0  0  0  0  0  3  0  0  0  0  0  0
  -22.4830   -6.2830   21.6690 O   0  0  0  0  0  0  0  0  0  0  0  0
  -22.1860   -5.7220   22.8850 C   0  0  0  0  0  0  0  0  0  0  0  0
  -21.5200   -6.4490   23.8980 C   0  0  0  0  0  3  0  0  0  0  0  0
  -21.1730   -5.8130   25.1070 C   0  0  0  0  0  3  0  0  0  0  0  0
  -21.4800   -4.4530   25.3020 C   0  0  0  0  0  0  0  0  0  0  0  0
  -22.1370   -3.7280   24.2920 C   0  0  0  0  0  3  0  0  0  0  0  0
  -22.4860   -4.3600   23.0870 C   0  0  0  0  0  0  0  0  0  0  0  0
  -23.1010   -3.6510   22.1090 F   0  0  0  0  0  0  0  0  0  0  0  0
  -21.1390   -3.8390   26.4590 F   0  0  0  0  0  0  0  0  0  0  0  0
  -23.6050  -12.8070   20.4130 C   0  0  0  0  0  0  0  0  0  0  0  0
  -22.6800  -12.2530   21.1910 N   0  0  0  0  0  0  0  0  0  0  0  0
  -23.3100  -13.6870   19.6050 O   0  0  0  0  0  0  0  0  0  0  0  0
  -22.9200  -11.5460   21.8690 H   0  0  0  0  0  0  0  0  0  0  0  0
  -21.7150  -12.5430   21.1080 H   0  0  0  0  0  0  0  0  0  0  0  0
  -26.3600  -14.4220   19.9830 N   0  0  0  0  0  2  0  0  0  0  0  0
  -25.5940  -15.0670   19.8290 H   0  0  0  0  0  0  0  0  0  0  0  0
  -27.2700  -14.8540   19.8860 H   0  0  0  0  0  0  0  0  0  0  0  0
  -26.1250  -16.8840   20.5460 C   0  0  0  0  0  3  0  0  0  0  0  0
  -25.3980  -17.9620   20.8100 N   0  0  0  0  0  0  0  0  0  0  0  0
  -25.6120  -15.7760   20.4160 O   0  0  0  0  0  0  0  0  0  0  0  0
  -25.8540  -18.8470   20.9660 H   0  0  0  0  0  0  0  0  0  0  0  0
  -24.3920  -17.9030   20.8660 H   0  0  0  0  0  0  0  0  0  0  0  0
  -30.2710  -19.3750   19.2530 O   0  0  0  0  0  0  0  0  0  0  0  0
  -30.1670  -20.6520   19.9060 C   0  0  0  0  0  2  0  0  0  0  0  0
  -29.6440  -21.7680   18.9550 C   0  0  0  0  0  2  0  0  0  0  0  0
  -28.4310  -22.5320   19.4880 C   0  0  0  0  0  3  0  0  0  0  0  0
  -28.0780  -23.8190   19.2730 C   0  0  0  0  0  3  0  0  0  0  0  0
  -28.7960  -24.8770   18.4380 C   0  0  0  0  0  2  0  0  0  0  0  0
  -28.8200  -26.1670   19.0770 O   0  0  0  0  0  0  0  0  0  0  0  0
  -25.1770  -30.7480   23.1310 C   0  0  0  0  0  0  0  0  0  0  0  0
  -27.6570  -26.9090   19.2030 C   0  0  0  0  0  0  0  0  0  0  0  0
  -23.9260  -29.7670   21.2380 C   0  0  0  0  0  3  0  0  0  0  0  0
  -25.3250  -28.4910   19.5290 C   0  0  0  0  0  0  0  0  0  0  0  0
  -26.4670  -30.0410   21.1190 C   0  0  0  0  0  2  0  0  0  0  0  0
  -26.4980  -28.8270   20.2130 C   0  0  0  0  0  0  0  0  0  0  0  0
  -27.6630  -28.0420   20.0510 C   0  0  0  0  0  3  0  0  0  0  0  0
  -26.4570  -26.5890   18.5230 C   0  0  0  0  0  3  0  0  0  0  0  0
  -25.3000  -27.3720   18.6820 C   0  0  0  0  0  3  0  0  0  0  0  0
  -24.1210  -29.3780   19.7470 C   0  0  0  0  0  2  0  0  0  0  0  0
  -25.2090  -30.1880   21.8890 N   0  0  0  0  0  0  0  0  0  0  0  0
  -24.1030  -30.9480   23.7170 O   0  0  0  0  0  0  0  0  0  0  0  0
  -23.2240  -28.5980   21.9660 C   0  0  0  0  0  0  0  0  0  0  0  0
  -21.9090  -28.4520   21.7350 N   0  0  0  0  0  0  0  0  0  0  0  0
  -23.8620  -27.8360   22.6960 O   0  0  0  0  0  0  0  0  0  0  0  0
  -21.4550  -29.1250   21.1330 H   0  0  0  0  0  0  0  0  0  0  0  0
  -18.5300  -27.1730   21.7670 C   0  0  0  0  0  0  0  0  0  0  0  0
  -21.0520  -27.4020   22.2860 C   0  0  0  0  0  3  0  0  0  0  0  0
  -21.2270  -26.0760   21.5110 C   0  0  0  0  0  2  0  0  0  0  0  0
  -20.2180  -25.9040   20.3720 C   0  0  0  0  0  2  0  0  0  0  0  0
  -18.7850  -25.9420   20.9140 C   0  0  0  0  0  2  0  0  0  0  0  0
  -19.5960  -27.8660   22.3990 C   0  0  0  0  0  0  0  0  0  0  0  0
  -19.3070  -29.0240   23.1550 C   0  0  0  0  0  3  0  0  0  0  0  0
  -17.9850  -29.4900   23.2830 C   0  0  0  0  0  3  0  0  0  0  0  0
  -16.9320  -28.7910   22.6680 C   0  0  0  0  0  3  0  0  0  0  0  0
  -17.2040  -27.6320   21.9170 C   0  0  0  0  0  3  0  0  0  0  0  0
  -26.4830  -31.1830   23.8650 C   0  0  0  0  0  3  0  0  0  0  0  0
  -26.2590  -32.5310   24.4040 N   0  0  0  0  0  0  0  0  0  0  0  0
  -26.7510  -33.6550   23.8660 C   0  0  0  0  0  0  0  0  0  0  0  0
  -27.5090  -33.6570   22.8930 O   0  0  0  0  0  0  0  0  0  0  0  0
  -25.6080  -32.6090   25.1720 H   0  0  0  0  0  0  0  0  0  0  0  0
  -25.2490  -35.6590   23.6510 C   0  0  0  0  0  1  0  0  0  0  0  0
  -26.3350  -34.9920   24.5100 C   0  0  0  0  0  3  0  0  0  0  0  0
  -28.4180  -35.4790   25.7150 C   0  0  0  0  0  1  0  0  0  0  0  0
  -27.4630  -35.9280   24.7050 N   0  0  0  0  0  0  0  0  0  0  0  0
  -27.1250  -36.8480   24.9740 H   0  0  0  0  0  0  0  0  0  0  0  0
  -26.9100  -30.1900   25.0150 C   0  0  1  0  0  0  0  0  0  0  0  0
  -25.7750  -29.8770   26.0170 C   0  0  0  0  0  1  0  0  0  0  0  0
  -27.4020  -28.8500   24.4210 C   0  0  0  0  0  1  0  0  0  0  0  0
  -28.0970  -30.7850   25.8100 C   0  0  0  0  0  1  0  0  0  0  0  0
  1  5  1  0
  2  5  2  0
  3 46  1  0
  3  1  2  0
  4  6  2  0
  4  3  1  0
  5 16  1  0
  6  2  1  0
  7  4  1  0
  8 14  1  0
  8 16  1  0
  9 14  1  0
 10 11  1  0
 10  9  1  0
 12 11  1  0
 12 21  1  0
 12 13  1  0
 14 13  1  0
 15  8  2  0
 16 17  1  0
 18 21  1  0
 18 19  2  0
 19 20  1  0
 20 22  2  0
 20 23  1  0
 21 22  1  0
 23 24  1  0
 24 25  2  0
 26 29  1  0
 26 25  1  0
 27 26  2  0
 28 27  1  0
 28 23  2  0
 29 30  1  0
 30 35  2  0
 30 31  1  0
 31 32  2  0
 32 33  1  0
 33 37  1  0
 34 33  2  0
 35 34  1  0
 36 35  1  0
 38 19  1  0
 38 39  1  0
 39 41  1  0
 40 38  2  0
 42 39  1  0
 43 18  1  0
 44 48  1  0
 45 43  1  0
 46 48  1  0
 46 47  1  0
 47 50  1  0
 47 49  1  0
 51  6  1  0
 51 52  1  0
 53 54  1  0
 53 52  1  0
 55 54  2  0
 56 57  1  0
 56 55  1  0
 57 59  1  0
 58 69  2  0
 59 64  1  0
 60 68  1  0
 60 70  1  0
 61 67  1  0
 61 63  1  0
 62 68  1  0
 63 62  1  0
 64 63  2  0
 65 66  1  0
 65 59  2  0
 66 61  2  0
 67 60  1  0
 68 58  1  0
 70 72  2  0
 71 70  1  0
 73 71  1  0
 74 83  2  0
 74 79  1  0
 75 71  1  0
 75 79  1  0
 76 75  1  0
 77 78  1  0
 77 76  1  0
 78 74  1  0
 79 80  2  0
 80 81  1  0
 82 81  2  0
 83 82  1  0
 84 58  1  0
 84 85  1  0
 84 94  1  0
 85 88  1  0
 86 85  1  0
 86 90  1  0
 87 86  2  0
 90 89  1  0
 90 92  1  0
 92 93  1  0
 92 91  1  0
 94 97  1  1
 94 95  1  0
 96 94  1  0
M  ISO  4   8 100  16 100  56 101  57 101
M  END
>  <TORSDO>  (2) 
F 22

>  <SCORE>  (2) 
-7.192

>  <name>  (2) 
1

>  <ligand_id>  (2) 
1

>  <original_smiles>  (2) 
[H]C(=C([H])C([H])([H])C([H])([H])Oc1c([H])c(N([H])C(=O)N2C([H])([H])C([H])([H])C([H])([H])C([H])(n3nc(-c4c([H])c([H])c(Oc5c([H])c([H])c(F)c([H])c5F)c([H])c4[H])c(C(=O)N([H])[H])c3N([H])[H])C2([H])[H])c([H])c(C(=O)N([H])[H])c1C([H])([H])[H])C([H])([H])Oc1c([H])c([H])c2c(c1[H])C([H])([H])N(C(=O)C([H])(N([H])C(=O)C([H])(N([H])C([H])([H])[H])C([H])([H])[H])C(C([H])([H])[H])(C([H])([H])[H])C([H])([H])[H])C([H])(C(=O)N([H])C1([H])c3c([H])c([H])c([H])c([H])c3C([H])([H])C([H])([H])C1([H])[H])C2([H])[H]

>  <smiles>  (2) 
[H]C(=C([H])C([H])([H])C([H])([H])Oc1c([H])c(N([H])C(=O)N2C([H])([H])C([H])([H])C([H])([H])C([H])(n3nc(-c4c([H])c([H])c(Oc5c([H])c([H])c(F)c([H])c5F)c([H])c4[H])c(C(=O)N([H])[H])c3N([H])[H])C2([H])[H])c([H])c(C(=O)N([H])[H])c1C([H])([H])[H])C([H])([H])Oc1c([H])c([H])c2c(c1[H])C([H])([H])N(C(=O)C([H])(N([H])C(=O)C([H])(N([H])C([H])([H])[H])C([H])([H])[H])C(C([H])([H])[H])(C([H])([H])[H])C([H])([H])[H])C([H])(C(=O)N([H])C1([H])c3c([H])c([H])c([H])c([H])c3C([H])([H])C([H])([H])C1([H])[H])C2([H])[H]

$$$$
2:0:0
     RDKit          3D

 96104  0  0  1  0  0  0  0  0999 V2000
  -29.4720  -18.7480   20.8260 C   0  0  0  0  0  3  0  0  0  0  0  0
  -30.1450  -20.3960   19.1920 C   0  0  0  0  0  3  0  0  0  0  0  0
  -30.0340  -17.6170   20.1030 C   0  0  0  0  0  0  0  0  0  0  0  0
  -30.6750  -17.9850   18.8740 C   0  0  0  0  0  0  0  0  0  0  0  0
  -29.4820  -20.1290   20.3970 C   0  0  0  0  0  0  0  0  0  0  0  0
  -30.7580  -19.3490   18.4520 C   0  0  0  0  0  0  0  0  0  0  0  0
  -31.2580  -16.9420   17.9250 C   0  0  0  0  0  1  0  0  0  0  0  0
  -29.7630  -16.1420   20.6080 C   0  0  0  0  0  0  0  0  0  0  0  0
  -28.7220  -16.0200   21.3200 N   0  0  0  0  0  0  0  0  0  0  0  0
  -28.2420  -16.9060   21.4230 H   0  0  0  0  0  0  0  0  0  0  0  0
  -30.6780  -14.8390   20.2810 C   0  0  0  0  0  0  0  0  0  0  0  0
  -30.5620  -12.5590   19.2570 C   0  0  0  0  0  2  0  0  0  0  0  0
  -29.6030  -12.6190   18.0400 C   0  0  0  0  0  2  0  0  0  0  0  0
  -28.1360  -12.4130   18.4710 C   0  0  0  0  0  2  0  0  0  0  0  0
  -27.7600  -13.2760   19.7050 C   0  0  0  0  0  3  0  0  0  0  0  0
  -28.8270  -13.1160   20.8070 C   0  0  0  0  0  2  0  0  0  0  0  0
  -30.1080  -13.5740   20.2410 N   0  0  0  0  0  0  0  0  0  0  0  0
  -31.8600  -14.9680   19.9410 O   0  0  0  0  0  0  0  0  0  0  0  0
  -25.3660  -13.8510   20.4310 C   0  0  0  0  0  0  0  0  0  0  0  0
  -24.3090  -13.0690   20.8050 C   0  0  0  0  0  0  0  0  0  0  0  0
  -24.7840  -11.7230   20.7690 C   0  0  0  0  0  0  0  0  0  0  0  0
  -26.4180  -12.9810   20.1940 N   0  0  0  0  0  0  0  0  0  0  0  0
  -26.0720  -11.6940   20.4520 N   0  0  0  0  0  0  0  0  0  0  0  0
  -24.0720  -10.4550   20.9630 C   0  0  0  0  0  0  0  0  0  0  0  0
  -24.5000   -9.5070   21.9190 C   0  0  0  0  0  3  0  0  0  0  0  0
  -23.7920   -8.2990   22.0950 C   0  0  0  0  0  3  0  0  0  0  0  0
  -22.6410   -8.0320   21.3170 C   0  0  0  0  0  0  0  0  0  0  0  0
  -22.2320   -8.9700   20.3520 C   0  0  0  0  0  3  0  0  0  0  0  0
  -22.9410  -10.1680   20.1730 C   0  0  0  0  0  3  0  0  0  0  0  0
  -21.9030   -6.8750   21.4010 O   0  0  0  0  0  0  0  0  0  0  0  0
  -21.8110   -6.1670   22.5730 C   0  0  0  0  0  0  0  0  0  0  0  0
  -21.2790   -6.7390   23.7490 C   0  0  0  0  0  3  0  0  0  0  0  0
  -21.1370   -5.9550   24.9110 C   0  0  0  0  0  3  0  0  0  0  0  0
  -21.5160   -4.5990   24.8960 C   0  0  0  0  0  0  0  0  0  0  0  0
  -22.0380   -4.0270   23.7240 C   0  0  0  0  0  3  0  0  0  0  0  0
  -22.1830   -4.8080   22.5640 C   0  0  0  0  0  0  0  0  0  0  0  0
  -22.6680   -4.2460   21.4310 F   0  0  0  0  0  0  0  0  0  0  0  0
  -21.3730   -3.8430   26.0100 F   0  0  0  0  0  0  0  0  0  0  0  0
  -22.9090  -13.5330   21.0900 C   0  0  0  0  0  0  0  0  0  0  0  0
  -22.1930  -12.8240   21.9550 N   0  0  0  0  0  0  0  0  0  0  0  0
  -22.4590  -14.5590   20.5810 O   0  0  0  0  0  0  0  0  0  0  0  0
  -22.5730  -11.9960   22.3880 H   0  0  0  0  0  0  0  0  0  0  0  0
  -21.2530  -13.1130   22.1850 H   0  0  0  0  0  0  0  0  0  0  0  0
  -25.5190  -15.2230   20.2580 N   0  0  0  0  0  0  0  0  0  0  0  0
  -24.7590  -15.8790   20.4040 H   0  0  0  0  0  0  0  0  0  0  0  0
  -26.4120  -15.6680   20.0830 H   0  0  0  0  0  0  0  0  0  0  0  0
  -28.5810  -22.4390   21.1390 C   0  0  0  0  0  3  0  0  0  0  0  0
  -28.8080  -21.1360   21.1810 N   0  0  0  0  0  0  0  0  0  0  0  0
  -28.9090  -23.7260   20.2600 C   0  0  0  0  0  2  0  0  0  0  0  0
  -28.1530  -25.0830   20.7580 C   0  0  0  0  0  2  0  0  0  0  0  0
  -28.3750  -26.4750   20.2310 O   0  0  0  0  0  0  0  0  0  0  0  0
  -24.6170  -31.9530   23.2120 C   0  0  0  0  0  0  0  0  0  0  0  0
  -27.2710  -27.3550   20.2080 C   0  0  0  0  0  0  0  0  0  0  0  0
  -23.4290  -30.5230   21.5900 C   0  0  0  0  0  3  0  0  0  0  0  0
  -24.8960  -28.9690   20.1780 C   0  0  0  0  0  0  0  0  0  0  0  0
  -25.9670  -30.8580   21.4050 C   0  0  0  0  0  2  0  0  0  0  0  0
  -26.0640  -29.4690   20.7700 C   0  0  0  0  0  0  0  0  0  0  0  0
  -27.2560  -28.6760   20.7700 C   0  0  0  0  0  3  0  0  0  0  0  0
  -26.0810  -26.9220   19.5820 C   0  0  0  0  0  3  0  0  0  0  0  0
  -24.9090  -27.7020   19.5710 C   0  0  0  0  0  3  0  0  0  0  0  0
  -23.6510  -29.8350   20.2170 C   0  0  0  0  0  2  0  0  0  0  0  0
  -24.6900  -31.1300   22.1250 N   0  0  0  0  0  0  0  0  0  0  0  0
  -23.5310  -32.2260   23.7430 O   0  0  0  0  0  0  0  0  0  0  0  0
  -22.7750  -29.5120   22.5640 C   0  0  0  0  0  0  0  0  0  0  0  0
  -21.4500  -29.3210   22.4400 N   0  0  0  0  0  0  0  0  0  0  0  0
  -23.4590  -28.9030   23.3920 O   0  0  0  0  0  0  0  0  0  0  0  0
  -20.9590  -29.8630   21.7430 H   0  0  0  0  0  0  0  0  0  0  0  0
  -18.0790  -28.1130   22.9730 C   0  0  0  0  0  0  0  0  0  0  0  0
  -20.6400  -28.3850   23.2220 C   0  0  0  0  0  3  0  0  0  0  0  0
  -20.7430  -26.9510   22.6540 C   0  0  0  0  0  2  0  0  0  0  0  0
  -19.6340  -26.6170   21.6510 C   0  0  0  0  0  2  0  0  0  0  0  0
  -18.2560  -26.7610   22.3040 C   0  0  0  0  0  2  0  0  0  0  0  0
  -19.1990  -28.8830   23.3880 C   0  0  0  0  0  0  0  0  0  0  0  0
  -18.9800  -30.1470   23.9760 C   0  0  0  0  0  3  0  0  0  0  0  0
  -17.6740  -30.6440   24.1510 C   0  0  0  0  0  3  0  0  0  0  0  0
  -16.5690  -29.8720   23.7510 C   0  0  0  0  0  3  0  0  0  0  0  0
  -16.7730  -28.6080   23.1690 C   0  0  0  0  0  3  0  0  0  0  0  0
  -25.8920  -32.6080   23.8260 C   0  0  0  0  0  3  0  0  0  0  0  0
  -25.5630  -34.0020   24.1510 N   0  0  0  0  0  0  0  0  0  0  0  0
  -25.8860  -35.0590   23.3940 C   0  0  0  0  0  0  0  0  0  0  0  0
  -26.5630  -34.9650   22.3660 O   0  0  0  0  0  0  0  0  0  0  0  0
  -24.9630  -34.1490   24.9510 H   0  0  0  0  0  0  0  0  0  0  0  0
  -24.1530  -36.8430   23.0210 C   0  0  0  0  0  1  0  0  0  0  0  0
  -25.3830  -36.4410   23.8510 C   0  0  0  0  0  3  0  0  0  0  0  0
  -27.4930  -37.3390   24.7310 C   0  0  0  0  0  1  0  0  0  0  0  0
  -26.4100  -37.5030   23.7630 N   0  0  0  0  0  0  0  0  0  0  0  0
  -25.9960  -38.4200   23.9050 H   0  0  0  0  0  0  0  0  0  0  0  0
  -26.4270  -31.8500   25.1030 C   0  0  1  0  0  0  0  0  0  0  0  0
  -25.3400  -31.5920   26.1730 C   0  0  0  0  0  1  0  0  0  0  0  0
  -27.0380  -30.4830   24.7160 C   0  0  0  0  0  1  0  0  0  0  0  0
  -27.5630  -32.6700   25.7600 C   0  0  0  0  0  1  0  0  0  0  0  0
  -31.4610  -19.5990   17.2890 O   0  0  0  0  0  0  0  0  0  0  0  0
  -31.3870  -20.8880   16.6940 C   0  0  0  0  0  2  0  0  0  0  0  0
  -32.3070  -20.9100   15.4700 C   0  0  0  0  0  2  0  0  0  0  0  0
  -34.6340  -21.8970   15.4170 C   0  0  0  0  0  2  0  0  0  0  0  0
  -33.7700  -20.9710   15.8620 C   0  0  0  0  0  3  0  0  0  0  0  0
  2  5  2  0
  3  8  1  0
  3  1  2  0
  4  3  1  0
  5  1  1  0
  5 48  1  0
  6  4  2  0
  6  2  1  0
  7  4  1  0
  8  9  2  0
  9 10  1  0
 11  8  1  0
 12 17  1  0
 13 14  1  0
 13 12  1  0
 15 14  1  0
 15 22  1  0
 15 16  1  0
 17 11  1  0
 17 16  1  0
 18 11  2  0
 19 20  2  0
 20 39  1  0
 21 20  1  0
 21 24  1  0
 22 19  1  0
 22 23  1  0
 23 21  2  0
 24 25  1  0
 25 26  2  0
 27 30  1  0
 27 26  1  0
 28 27  2  0
 29 28  1  0
 29 24  2  0
 30 31  1  0
 31 32  1  0
 32 33  2  0
 34 33  1  0
 34 38  1  0
 35 34  2  0
 36 31  2  0
 36 35  1  0
 37 36  1  0
 39 40  1  0
 40 43  1  0
 40 42  1  0
 41 39  2  0
 44 45  1  0
 44 19  1  0
 46 44  1  0
 47 48  2  0
 49 50  1  0
 49 47  1  0
 51 50  1  0
 52 63  2  0
 53 51  1  0
 53 58  1  0
 54 62  1  0
 54 64  1  0
 55 61  1  0
 55 57  1  0
 56 62  1  0
 57 56  1  0
 58 57  2  0
 59 53  2  0
 60 59  1  0
 60 55  2  0
 61 54  1  0
 62 52  1  0
 64 66  2  0
 65 64  1  0
 67 65  1  0
 68 77  2  0
 68 73  1  0
 69 65  1  0
 69 73  1  0
 70 69  1  0
 71 72  1  0
 71 70  1  0
 72 68  1  0
 73 74  2  0
 74 75  1  0
 76 75  2  0
 77 76  1  0
 78 52  1  0
 78 79  1  0
 78 88  1  0
 79 82  1  0
 80 84  1  0
 80 79  1  0
 81 80  2  0
 84 83  1  0
 86 84  1  0
 86 87  1  0
 86 85  1  0
 88 91  1  1
 88 89  1  0
 90 88  1  0
 92  6  1  0
 93 92  1  0
 94 96  1  0
 94 93  1  0
 95 96  2  0
M  ISO  4   8 100  11 100  50 101  51 101
M  END
>  <TORSDO>  (3) 
F 24

>  <SCORE>  (3) 
-12.487

>  <name>  (3) 
2

>  <ligand_id>  (3) 
2

>  <original_smiles>  (3) 
[H]N=C(C(=O)N1C([H])([H])C([H])([H])C([H])([H])C([H])(n2nc(-c3c([H])c([H])c(Oc4c([H])c([H])c(F)c([H])c4F)c([H])c3[H])c(C(=O)N([H])[H])c2N([H])[H])C1([H])[H])c1c([H])c(N=C([H])C([H])([H])C([H])([H])Oc2c([H])c([H])c3c(c2[H])C([H])([H])N(C(=O)C([H])(N([H])C(=O)C([H])(N([H])C([H])([H])[H])C([H])([H])[H])C(C([H])([H])[H])(C([H])([H])[H])C([H])([H])[H])C([H])(C(=O)N([H])C2([H])c4c([H])c([H])c([H])c([H])c4C([H])([H])C([H])([H])C2([H])[H])C3([H])[H])c([H])c(OC([H])([H])C([H])([H])C([H])=C([H])[H])c1C([H])([H])[H]

>  <smiles>  (3) 
[H]N=C(C(=O)N1C([H])([H])C([H])([H])C([H])([H])C([H])(n2nc(-c3c([H])c([H])c(Oc4c([H])c([H])c(F)c([H])c4F)c([H])c3[H])c(C(=O)N([H])[H])c2N([H])[H])C1([H])[H])c1c([H])c(N=C([H])C([H])([H])C([H])([H])Oc2c([H])c([H])c3c(c2[H])C([H])([H])N(C(=O)C([H])(N([H])C(=O)C([H])(N([H])C([H])([H])[H])C([H])([H])[H])C(C([H])([H])[H])(C([H])([H])[H])C([H])([H])[H])C([H])(C(=O)N([H])C2([H])c4c([H])c([H])c([H])c([H])c4C([H])([H])C([H])([H])C2([H])[H])C3([H])[H])c([H])c(OC([H])([H])C([H])([H])C([H])=C([H])[H])c1C([H])([H])[H]

$$$$
3:0:0
     RDKit          3D

 96104  0  0  1  0  0  0  0  0999 V2000
  -29.7390  -22.8720   20.4690 C   0  0  0  0  0  0  0  0  0  0  0  0
  -29.1370  -21.8270   19.8260 N   0  0  0  0  0  0  0  0  0  0  0  0
  -30.6030  -22.6300   21.3150 O   0  0  0  0  0  0  0  0  0  0  0  0
  -28.5580  -22.1040   19.0460 H   0  0  0  0  0  0  0  0  0  0  0  0
  -29.8330  -19.7130   18.6970 C   0  0  0  0  0  3  0  0  0  0  0  0
  -29.5020  -20.3970   19.8410 C   0  0  0  0  0  0  0  0  0  0  0  0
  -29.7450  -18.1840   20.3370 C   0  0  0  0  0  3  0  0  0  0  0  0
  -29.9730  -17.3000   18.0170 C   0  0  0  0  0  1  0  0  0  0  0  0
  -29.8980  -18.3620   19.0080 N   0  0  0  0  0  0  0  0  0  0  0  0
  -29.4060  -19.4180   20.8380 N   0  0  0  0  0  0  0  0  0  0  0  0
  -28.9990  -19.5560   21.7610 H   0  0  0  0  0  0  0  0  0  0  0  0
  -30.7120  -14.7160   20.1570 C   0  0  0  0  0  0  0  0  0  0  0  0
  -30.6170  -12.5300   18.9210 C   0  0  0  0  0  2  0  0  0  0  0  0
  -29.5850  -12.6920   17.7720 C   0  0  0  0  0  2  0  0  0  0  0  0
  -28.1350  -12.4980   18.2730 C   0  0  0  0  0  2  0  0  0  0  0  0
  -27.8530  -13.2750   19.5900 C   0  0  0  0  0  3  0  0  0  0  0  0
  -28.9630  -12.9720   20.6200 C   0  0  0  0  0  2  0  0  0  0  0  0
  -30.2230  -13.4370   20.0200 N   0  0  0  0  0  0  0  0  0  0  0  0
  -31.7950  -15.0370   19.6540 O   0  0  0  0  0  0  0  0  0  0  0  0
  -29.5570  -16.8640   21.1440 C   0  0  0  0  0  0  0  0  0  0  0  0
  -29.8250  -15.5440   20.8290 N   0  0  0  0  0  0  0  0  0  0  0  0
  -28.9830  -17.0160   22.2310 O   0  0  0  0  0  0  0  0  0  0  0  0
  -29.2000  -14.9460   21.3450 H   0  0  0  0  0  0  0  0  0  0  0  0
  -25.5050  -13.8800   20.4340 C   0  0  0  0  0  0  0  0  0  0  0  0
  -24.4510  -13.1070   20.8340 C   0  0  0  0  0  0  0  0  0  0  0  0
  -24.9000  -11.7530   20.7440 C   0  0  0  0  0  0  0  0  0  0  0  0
  -26.5260  -12.9980   20.1210 N   0  0  0  0  0  0  0  0  0  0  0  0
  -26.1710  -11.7140   20.3600 N   0  0  0  0  0  0  0  0  0  0  0  0
  -24.1780  -10.4920   20.9390 C   0  0  0  0  0  0  0  0  0  0  0  0
  -24.6120   -9.5320   21.8770 C   0  0  0  0  0  3  0  0  0  0  0  0
  -23.8870   -8.3330   22.0580 C   0  0  0  0  0  3  0  0  0  0  0  0
  -22.7150   -8.0900   21.3040 C   0  0  0  0  0  0  0  0  0  0  0  0
  -22.3060   -9.0400   20.3500 C   0  0  0  0  0  3  0  0  0  0  0  0
  -23.0310  -10.2300   20.1680 C   0  0  0  0  0  3  0  0  0  0  0  0
  -21.9650   -6.9420   21.3950 O   0  0  0  0  0  0  0  0  0  0  0  0
  -21.8510   -6.2460   22.5720 C   0  0  0  0  0  0  0  0  0  0  0  0
  -21.3520   -6.8520   23.7470 C   0  0  0  0  0  3  0  0  0  0  0  0
  -21.1890   -6.0850   24.9170 C   0  0  0  0  0  3  0  0  0  0  0  0
  -21.5070   -4.7140   24.9120 C   0  0  0  0  0  0  0  0  0  0  0  0
  -21.9980   -4.1090   23.7420 C   0  0  0  0  0  3  0  0  0  0  0  0
  -22.1650   -4.8730   22.5740 C   0  0  0  0  0  0  0  0  0  0  0  0
  -22.6170   -4.2840   21.4420 F   0  0  0  0  0  0  0  0  0  0  0  0
  -21.3430   -3.9730   26.0330 F   0  0  0  0  0  0  0  0  0  0  0  0
  -23.0750  -13.5870   21.1920 C   0  0  0  0  0  0  0  0  0  0  0  0
  -22.3920  -12.8750   22.0820 N   0  0  0  0  0  0  0  0  0  0  0  0
  -22.6160  -14.6280   20.7220 O   0  0  0  0  0  0  0  0  0  0  0  0
  -22.7720  -12.0280   22.4800 H   0  0  0  0  0  0  0  0  0  0  0  0
  -21.4690  -13.1760   22.3670 H   0  0  0  0  0  0  0  0  0  0  0  0
  -25.6840  -15.2570   20.2950 N   0  0  0  0  0  0  0  0  0  0  0  0
  -24.9490  -15.9300   20.4970 H   0  0  0  0  0  0  0  0  0  0  0  0
  -26.5320  -15.6980   19.9640 H   0  0  0  0  0  0  0  0  0  0  0  0
  -28.4750  -25.1340   20.3750 C   0  0  0  0  0  3  0  0  0  0  0  0
  -29.4960  -24.2870   20.0150 C   0  0  0  0  0  0  0  0  0  0  0  0
  -30.5020  -24.8110   19.2930 O   0  0  0  0  0  0  0  0  0  0  0  0
  -31.2330  -24.2110   19.3680 H   0  0  0  0  0  0  0  0  0  0  0  0
  -28.4830  -26.5190   20.0870 O   0  0  0  0  0  0  0  0  0  0  0  0
  -24.6730  -31.8680   23.1830 C   0  0  0  0  0  0  0  0  0  0  0  0
  -27.3320  -27.3180   20.1400 C   0  0  0  0  0  0  0  0  0  0  0  0
  -23.4820  -30.4510   21.5420 C   0  0  0  0  0  3  0  0  0  0  0  0
  -24.9480  -28.8990   20.1380 C   0  0  0  0  0  0  0  0  0  0  0  0
  -26.0190  -30.7950   21.3660 C   0  0  0  0  0  2  0  0  0  0  0  0
  -26.1130  -29.4140   20.7270 C   0  0  0  0  0  0  0  0  0  0  0  0
  -27.3070  -28.6260   20.7250 C   0  0  0  0  0  3  0  0  0  0  0  0
  -26.1460  -26.8570   19.5370 C   0  0  0  0  0  3  0  0  0  0  0  0
  -24.9650  -27.6270   19.5360 C   0  0  0  0  0  3  0  0  0  0  0  0
  -23.7050  -29.7700   20.1620 C   0  0  0  0  0  2  0  0  0  0  0  0
  -24.7440  -31.0520   22.0870 N   0  0  0  0  0  0  0  0  0  0  0  0
  -23.5840  -32.1370   23.7160 O   0  0  0  0  0  0  0  0  0  0  0  0
  -22.8270  -29.4340   22.5100 C   0  0  0  0  0  0  0  0  0  0  0  0
  -21.4960  -29.2710   22.3980 N   0  0  0  0  0  0  0  0  0  0  0  0
  -23.5020  -28.8060   23.3280 O   0  0  0  0  0  0  0  0  0  0  0  0
  -21.0000  -29.8340   21.7180 H   0  0  0  0  0  0  0  0  0  0  0  0
  -18.1180  -28.0880   22.9320 C   0  0  0  0  0  0  0  0  0  0  0  0
  -20.6820  -28.3300   23.1720 C   0  0  0  0  0  3  0  0  0  0  0  0
  -20.7640  -26.9050   22.5910 C   0  0  0  0  0  2  0  0  0  0  0  0
  -19.6440  -26.5930   21.5880 C   0  0  0  0  0  2  0  0  0  0  0  0
  -18.2720  -26.7440   22.2480 C   0  0  0  0  0  2  0  0  0  0  0  0
  -19.2480  -28.8430   23.3520 C   0  0  0  0  0  0  0  0  0  0  0  0
  -19.0400  -30.1040   23.9590 C   0  0  0  0  0  3  0  0  0  0  0  0
  -17.7390  -30.6100   24.1480 C   0  0  0  0  0  3  0  0  0  0  0  0
  -16.6270  -29.8560   23.7380 C   0  0  0  0  0  3  0  0  0  0  0  0
  -16.8160  -28.5960   23.1400 C   0  0  0  0  0  3  0  0  0  0  0  0
  -25.9510  -32.5220   23.8100 C   0  0  0  0  0  3  0  0  0  0  0  0
  -26.4770  -31.7460   25.0810 C   0  0  1  0  0  0  0  0  0  0  0  0
  -25.3870  -31.4930   26.1510 C   0  0  0  0  0  1  0  0  0  0  0  0
  -27.0750  -30.3730   24.6850 C   0  0  0  0  0  1  0  0  0  0  0  0
  -27.6190  -32.5540   25.7410 C   0  0  0  0  0  1  0  0  0  0  0  0
  -25.6170  -33.9100   24.1450 N   0  0  0  0  0  0  0  0  0  0  0  0
  -25.9540  -34.9650   23.3990 C   0  0  0  0  0  0  0  0  0  0  0  0
  -26.6270  -34.8740   22.3700 O   0  0  0  0  0  0  0  0  0  0  0  0
  -25.0190  -34.0580   24.9400 H   0  0  0  0  0  0  0  0  0  0  0  0
  -24.2130  -36.7470   23.0370 C   0  0  0  0  0  1  0  0  0  0  0  0
  -25.4510  -36.3450   23.8570 C   0  0  0  0  0  3  0  0  0  0  0  0
  -27.5740  -37.2350   24.7130 C   0  0  0  0  0  1  0  0  0  0  0  0
  -26.4770  -37.4060   23.7630 N   0  0  0  0  0  0  0  0  0  0  0  0
  -26.0650  -38.3220   23.9110 H   0  0  0  0  0  0  0  0  0  0  0  0
  1  3  2  0
  2  6  1  0
  2  1  1  0
  4  2  1  0
  5  9  1  0
  5  6  2  0
  6 10  1  0
  7 10  1  0
  7 20  1  0
  8  9  1  0
  9  7  1  0
 10 11  1  0
 12 21  1  0
 13 18  1  0
 14 15  1  0
 14 13  1  0
 16 15  1  0
 16 27  1  0
 16 17  1  0
 18 12  1  0
 18 17  1  0
 19 12  2  0
 20 22  2  0
 21 20  1  0
 21 23  1  0
 24 25  2  0
 25 44  1  0
 26 25  1  0
 26 29  1  0
 27 28  1  0
 27 24  1  0
 28 26  2  0
 29 30  1  0
 30 31  2  0
 32 35  1  0
 32 31  1  0
 33 32  2  0
 34 33  1  0
 34 29  2  0
 35 36  1  0
 36 41  2  0
 36 37  1  0
 37 38  2  0
 39 38  1  0
 39 43  1  0
 40 39  2  0
 41 40  1  0
 42 41  1  0
 44 45  1  0
 45 48  1  0
 45 47  1  0
 46 44  2  0
 49 24  1  0
 49 50  1  0
 51 49  1  0
 53 52  2  0
 53  1  1  0
 54 55  1  0
 54 53  1  0
 56 58  1  0
 56 52  1  0
 57 68  2  0
 58 63  1  0
 59 67  1  0
 59 69  1  0
 60 66  1  0
 60 62  1  0
 61 67  1  0
 62 61  1  0
 63 62  2  0
 64 58  2  0
 65 64  1  0
 65 60  2  0
 66 59  1  0
 67 57  1  0
 69 71  2  0
 70 69  1  0
 72 70  1  0
 73 82  2  0
 73 78  1  0
 74 70  1  0
 74 78  1  0
 75 74  1  0
 76 77  1  0
 76 75  1  0
 77 73  1  0
 78 79  2  0
 79 80  1  0
 81 80  2  0
 82 81  1  0
 83 57  1  0
 83 88  1  0
 83 84  1  0
 84 87  1  1
 84 85  1  0
 86 84  1  0
 88 91  1  0
 89 93  1  0
 89 88  1  0
 90 89  2  0
 93 92  1  0
 95 93  1  0
 95 96  1  0
 95 94  1  0
M  ISO  4  12 100  21 100  52 101  56 101
M  END
>  <TORSDO>  (4) 
F 19

>  <SCORE>  (4) 
-13.503

>  <name>  (4) 
3

>  <ligand_id>  (4) 
3

>  <original_smiles>  (4) 
[H]OC(C(=O)N([H])c1c([H])n(C([H])([H])[H])c(C(=O)N([H])C(=O)N2C([H])([H])C([H])([H])C([H])([H])C([H])(n3nc(-c4c([H])c([H])c(Oc5c([H])c([H])c(F)c([H])c5F)c([H])c4[H])c(C(=O)N([H])[H])c3N([H])[H])C2([H])[H])[n+]1[H])=C([H])Oc1c([H])c([H])c2c(c1[H])C([H])([H])N(C(=O)C([H])(N([H])C(=O)C([H])(N([H])C([H])([H])[H])C([H])([H])[H])C(C([H])([H])[H])(C([H])([H])[H])C([H])([H])[H])C([H])(C(=O)N([H])C1([H])c3c([H])c([H])c([H])c([H])c3C([H])([H])C([H])([H])C1([H])[H])C2([H])[H]

>  <smiles>  (4) 
[H]OC(C(=O)N([H])c1c([H])n(C([H])([H])[H])c(C(=O)N([H])C(=O)N2C([H])([H])C([H])([H])C([H])([H])C([H])(n3nc(-c4c([H])c([H])c(Oc5c([H])c([H])c(F)c([H])c5F)c([H])c4[H])c(C(=O)N([H])[H])c3N([H])[H])C2([H])[H])[n+]1[H])=C([H])Oc1c([H])c([H])c2c(c1[H])C([H])([H])N(C(=O)C([H])(N([H])C(=O)C([H])(N([H])C([H])([H])[H])C([H])([H])[H])C(C([H])([H])[H])(C([H])([H])[H])C([H])([H])[H])C([H])(C(=O)N([H])C1([H])c3c([H])c([H])c([H])c([H])c3C([H])([H])C([H])([H])C1([H])[H])C2([H])[H]

$$$$
4:0:0
     RDKit          3D

 91 99  0  0  1  0  0  0  0  0999 V2000
  -31.1080  -19.4720   20.9980 C   0  0  0  0  0  3  0  0  0  0  0  0
  -28.8220  -19.5050   20.3180 C   0  0  0  0  0  3  0  0  0  0  0  0
  -31.1130  -18.0370   21.0250 C   0  0  0  0  0  0  0  0  0  0  0  0
  -28.8120  -18.0750   20.3310 C   0  0  0  0  0  0  0  0  0  0  0  0
  -29.9730  -20.2570   20.6500 C   0  0  0  0  0  0  0  0  0  0  0  0
  -29.9560  -17.2790   20.6540 C   0  0  0  0  0  0  0  0  0  0  0  0
  -32.3760  -17.3610   21.5290 C   0  0  0  0  0  1  0  0  0  0  0  0
  -27.5030  -17.3980   20.0110 C   0  0  0  0  0  1  0  0  0  0  0  0
  -30.5220  -14.7470   20.1840 C   0  0  0  0  0  0  0  0  0  0  0  0
  -30.2240  -12.5370   19.0540 C   0  0  0  0  0  2  0  0  0  0  0  0
  -29.2260  -12.6880   17.8840 C   0  0  0  0  0  2  0  0  0  0  0  0
  -27.7780  -12.5020   18.3730 C   0  0  0  0  0  2  0  0  0  0  0  0
  -27.4720  -13.3320   19.6480 C   0  0  0  0  0  3  0  0  0  0  0  0
  -28.5870  -13.1760   20.7120 C   0  0  0  0  0  2  0  0  0  0  0  0
  -29.8690  -13.5370   20.0850 N   0  0  0  0  0  0  0  0  0  0  0  0
  -31.6450  -14.8870   19.6950 O   0  0  0  0  0  0  0  0  0  0  0  0
  -29.8110  -15.8030   20.7120 N   0  0  0  0  0  0  0  0  0  0  0  0
  -28.9020  -15.4980   21.0170 H   0  0  0  0  0  0  0  0  0  0  0  0
  -25.0990  -13.8920   20.4700 C   0  0  0  0  0  0  0  0  0  0  0  0
  -24.0590  -13.1080   20.8830 C   0  0  0  0  0  0  0  0  0  0  0  0
  -24.5320  -11.7630   20.8060 C   0  0  0  0  0  0  0  0  0  0  0  0
  -26.1470  -13.0290   20.1840 N   0  0  0  0  0  0  0  0  0  0  0  0
  -25.8080  -11.7390   20.4420 N   0  0  0  0  0  0  0  0  0  0  0  0
  -23.8170  -10.4940   21.0010 C   0  0  0  0  0  0  0  0  0  0  0  0
  -24.2720   -9.5260   21.9220 C   0  0  0  0  0  3  0  0  0  0  0  0
  -23.5560   -8.3240   22.1060 C   0  0  0  0  0  3  0  0  0  0  0  0
  -22.3720   -8.0840   21.3690 C   0  0  0  0  0  0  0  0  0  0  0  0
  -21.9360   -9.0400   20.4370 C   0  0  0  0  0  3  0  0  0  0  0  0
  -22.6520  -10.2340   20.2510 C   0  0  0  0  0  3  0  0  0  0  0  0
  -21.6260   -6.9330   21.4640 O   0  0  0  0  0  0  0  0  0  0  0  0
  -21.5770   -6.2040   22.6240 C   0  0  0  0  0  0  0  0  0  0  0  0
  -21.1310   -6.7640   23.8410 C   0  0  0  0  0  3  0  0  0  0  0  0
  -21.0310   -5.9580   24.9920 C   0  0  0  0  0  3  0  0  0  0  0  0
  -21.3660   -4.5920   24.9250 C   0  0  0  0  0  0  0  0  0  0  0  0
  -21.8050   -4.0310   23.7130 C   0  0  0  0  0  3  0  0  0  0  0  0
  -21.9070   -4.8350   22.5650 C   0  0  0  0  0  0  0  0  0  0  0  0
  -22.3080   -4.2860   21.3940 F   0  0  0  0  0  0  0  0  0  0  0  0
  -21.2630   -3.8140   26.0300 F   0  0  0  0  0  0  0  0  0  0  0  0
  -22.6750  -13.5760   21.2270 C   0  0  0  0  0  0  0  0  0  0  0  0
  -21.9890  -12.8620   22.1130 N   0  0  0  0  0  0  0  0  0  0  0  0
  -22.2110  -14.6110   20.7500 O   0  0  0  0  0  0  0  0  0  0  0  0
  -22.3800  -12.0280   22.5260 H   0  0  0  0  0  0  0  0  0  0  0  0
  -21.0630  -13.1580   22.3860 H   0  0  0  0  0  0  0  0  0  0  0  0
  -25.2190  -15.2610   20.2900 N   0  0  0  0  0  0  0  0  0  0  0  0
  -26.0110  -15.7040   19.8490 H   0  0  0  0  0  0  0  0  0  0  0  0
  -24.4140  -15.8750   20.3670 H   0  0  0  0  0  0  0  0  0  0  0  0
  -29.1140  -22.5750   20.5360 C   0  0  0  0  0  3  0  0  0  0  0  0
  -30.0730  -21.6990   20.6610 N   0  0  0  0  0  0  0  0  0  0  0  0
  -29.3120  -24.1470   20.5780 C   0  0  0  0  0  3  0  0  0  0  0  0
  -28.1030  -25.0950   20.1480 C   0  0  0  0  0  3  0  0  0  0  0  0
  -28.2890  -26.5650   20.2340 O   0  0  0  0  0  0  0  0  0  0  0  0
  -24.5870  -31.9560   23.2490 C   0  0  0  0  0  0  0  0  0  0  0  0
  -27.1580  -27.3970   20.1780 C   0  0  0  0  0  0  0  0  0  0  0  0
  -23.3580  -30.5680   21.6170 C   0  0  0  0  0  3  0  0  0  0  0  0
  -24.7900  -29.0090   20.1800 C   0  0  0  0  0  0  0  0  0  0  0  0
  -25.8960  -30.8810   21.4050 C   0  0  0  0  0  2  0  0  0  0  0  0
  -25.9660  -29.5030   20.7590 C   0  0  0  0  0  0  0  0  0  0  0  0
  -27.1530  -28.7100   20.7440 C   0  0  0  0  0  3  0  0  0  0  0  0
  -25.9580  -26.9550   19.5740 C   0  0  0  0  0  3  0  0  0  0  0  0
  -24.7890  -27.7420   19.5760 C   0  0  0  0  0  3  0  0  0  0  0  0
  -23.5560  -29.8880   20.2360 C   0  0  0  0  0  2  0  0  0  0  0  0
  -24.6330  -31.1510   22.1480 N   0  0  0  0  0  0  0  0  0  0  0  0
  -23.5100  -32.2410   23.7940 O   0  0  0  0  0  0  0  0  0  0  0  0
  -22.6970  -29.5580   22.5840 C   0  0  0  0  0  0  0  0  0  0  0  0
  -21.3710  -29.3780   22.4560 N   0  0  0  0  0  0  0  0  0  0  0  0
  -23.3750  -28.9370   23.4060 O   0  0  0  0  0  0  0  0  0  0  0  0
  -20.8840  -29.9290   21.7650 H   0  0  0  0  0  0  0  0  0  0  0  0
  -17.9960  -28.1730   22.9490 C   0  0  0  0  0  0  0  0  0  0  0  0
  -20.5520  -28.4440   23.2320 C   0  0  0  0  0  3  0  0  0  0  0  0
  -20.6630  -27.0080   22.6710 C   0  0  0  0  0  2  0  0  0  0  0  0
  -19.5670  -26.6710   21.6530 C   0  0  0  0  0  2  0  0  0  0  0  0
  -18.1810  -26.8180   22.2880 C   0  0  0  0  0  2  0  0  0  0  0  0
  -19.1090  -28.9440   23.3770 C   0  0  0  0  0  0  0  0  0  0  0  0
  -18.8810  -30.2110   23.9570 C   0  0  0  0  0  3  0  0  0  0  0  0
  -17.5730  -30.7090   24.1120 C   0  0  0  0  0  3  0  0  0  0  0  0
  -16.4750  -29.9360   23.6970 C   0  0  0  0  0  3  0  0  0  0  0  0
  -16.6860  -28.6700   23.1220 C   0  0  0  0  0  3  0  0  0  0  0  0
  -25.8800  -32.5790   23.8620 C   0  0  0  0  0  3  0  0  0  0  0  0
  -26.4040  -31.7990   25.1290 C   0  0  1  0  0  0  0  0  0  0  0  0
  -25.3190  -31.5560   26.2050 C   0  0  0  0  0  1  0  0  0  0  0  0
  -26.9780  -30.4220   24.7220 C   0  0  0  0  0  1  0  0  0  0  0  0
  -27.5620  -32.5840   25.7870 C   0  0  0  0  0  1  0  0  0  0  0  0
  -25.5830  -33.9780   24.2020 N   0  0  0  0  0  0  0  0  0  0  0  0
  -25.8970  -35.0310   23.4360 C   0  0  0  0  0  0  0  0  0  0  0  0
  -26.5390  -34.9270   22.3870 O   0  0  0  0  0  0  0  0  0  0  0  0
  -25.0090  -34.1340   25.0180 H   0  0  0  0  0  0  0  0  0  0  0  0
  -24.1560  -36.8230   23.1440 C   0  0  0  0  0  1  0  0  0  0  0  0
  -25.4270  -36.4210   23.9080 C   0  0  0  0  0  3  0  0  0  0  0  0
  -27.5890  -37.3110   24.6580 C   0  0  0  0  0  1  0  0  0  0  0  0
  -26.4550  -37.4730   23.7540 N   0  0  0  0  0  0  0  0  0  0  0  0
  -26.0540  -38.3930   23.9120 H   0  0  0  0  0  0  0  0  0  0  0  0
  1  3  1  0
  2  4  2  0
  2  5  1  0
  3  7  1  0
  4  6  1  0
  5 48  1  0
  5  1  2  0
  6 17  1  0
  6  3  2  0
  8  4  1  0
  9 17  1  0
 10 15  1  0
 11 12  1  0
 11 10  1  0
 13 12  1  0
 13 22  1  0
 13 14  1  0
 15  9  1  0
 15 14  1  0
 16  9  2  0
 17 18  1  0
 19 20  2  0
 20 39  1  0
 21 20  1  0
 21 24  1  0
 22 23  1  0
 22 19  1  0
 23 21  2  0
 24 25  1  0
 25 26  2  0
 27 30  1  0
 27 26  1  0
 28 27  2  0
 29 28  1  0
 29 24  2  0
 30 31  1  0
 31 32  1  0
 32 33  2  0
 34 33  1  0
 34 38  1  0
 35 34  2  0
 36 31  2  0
 36 35  1  0
 37 36  1  0
 39 40  1  0
 40 43  1  0
 40 42  1  0
 41 39  2  0
 44 46  1  0
 44 19  1  0
 45 44  1  0
 47 49  1  0
 47 48  2  0
 50 51  1  0
 50 49  2  0
 52 63  2  0
 53 51  1  0
 53 58  1  0
 54 62  1  0
 54 64  1  0
 55 61  1  0
 55 57  1  0
 56 62  1  0
 57 56  1  0
 58 57  2  0
 59 60  1  0
 59 53  2  0
 60 55  2  0
 61 54  1  0
 62 52  1  0
 64 66  2  0
 65 64  1  0
 67 65  1  0
 68 77  2  0
 68 73  1  0
 69 65  1  0
 69 73  1  0
 70 69  1  0
 71 72  1  0
 71 70  1  0
 72 68  1  0
 73 74  2  0
 74 75  1  0
 76 75  2  0
 77 76  1  0
 78 52  1  0
 78 83  1  0
 78 79  1  0
 79 82  1  1
 79 80  1  0
 81 79  1  0
 83 86  1  0
 84 88  1  0
 84 83  1  0
 85 84  2  0
 88 87  1  0
 90 88  1  0
 90 91  1  0
 90 89  1  0
M  ISO  4   9 100  17 100  50 101  51 101
M  END
>  <TORSDO>  (5) 
F 19

>  <SCORE>  (5) 
-13.695

>  <name>  (5) 
4

>  <ligand_id>  (5) 
4

>  <original_smiles>  (5) 
[H]C(=Nc1c([H])c(C([H])([H])[H])c(N([H])C(=O)N2C([H])([H])C([H])([H])C([H])([H])C([H])(n3nc(-c4c([H])c([H])c(Oc5c([H])c([H])c(F)c([H])c5F)c([H])c4[H])c(C(=O)N([H])[H])c3N([H])[H])C2([H])[H])c(C([H])([H])[H])c1[H])C([H])([H])C([H])([H])Oc1c([H])c([H])c2c(c1[H])C([H])([H])N(C(=O)C([H])(N([H])C(=O)C([H])(N([H])C([H])([H])[H])C([H])([H])[H])C(C([H])([H])[H])(C([H])([H])[H])C([H])([H])[H])C([H])(C(=O)N([H])C1([H])c3c([H])c([H])c([H])c([H])c3C([H])([H])C([H])([H])C1([H])[H])C2([H])[H]

>  <smiles>  (5) 
[H]C(=Nc1c([H])c(C([H])([H])[H])c(N([H])C(=O)N2C([H])([H])C([H])([H])C([H])([H])C([H])(n3nc(-c4c([H])c([H])c(Oc5c([H])c([H])c(F)c([H])c5F)c([H])c4[H])c(C(=O)N([H])[H])c3N([H])[H])C2([H])[H])c(C([H])([H])[H])c1[H])C([H])([H])C([H])([H])Oc1c([H])c([H])c2c(c1[H])C([H])([H])N(C(=O)C([H])(N([H])C(=O)C([H])(N([H])C([H])([H])[H])C([H])([H])[H])C(C([H])([H])[H])(C([H])([H])[H])C([H])([H])[H])C([H])(C(=O)N([H])C1([H])c3c([H])c([H])c([H])c([H])c3C([H])([H])C([H])([H])C1([H])[H])C2([H])[H]

$$$$
5:0:0
     RDKit          3D

 93101  0  0  1  0  0  0  0  0999 V2000
  -28.4930  -18.5420   19.1650 C   0  0  0  0  0  3  0  0  0  0  0  0
  -28.0050  -20.9540   19.1600 C   0  0  0  0  0  3  0  0  0  0  0  0
  -29.5900  -18.6910   20.0410 C   0  0  0  0  0  0  0  0  0  0  0  0
  -29.8450  -20.0780   20.4990 C   0  0  0  0  0  0  0  0  0  0  0  0
  -29.0460  -21.2410   20.0730 C   0  0  0  0  0  0  0  0  0  0  0  0
  -27.7250  -19.6410   18.7340 C   0  0  0  0  0  0  0  0  0  0  0  0
  -26.6870  -19.4300   17.8890 F   0  0  0  0  0  0  0  0  0  0  0  0
  -30.7490  -14.9040   20.1100 C   0  0  0  0  0  0  0  0  0  0  0  0
  -30.4810  -12.6370   19.0730 C   0  0  0  0  0  2  0  0  0  0  0  0
  -29.4840  -12.6860   17.8950 C   0  0  0  0  0  2  0  0  0  0  0  0
  -28.0400  -12.5050   18.3970 C   0  0  0  0  0  2  0  0  0  0  0  0
  -27.7210  -13.3830   19.6350 C   0  0  0  0  0  3  0  0  0  0  0  0
  -28.8360  -13.3220   20.7010 C   0  0  0  0  0  2  0  0  0  0  0  0
  -30.0850  -13.6970   20.0330 N   0  0  0  0  0  0  0  0  0  0  0  0
  -31.9480  -14.9090   19.8190 O   0  0  0  0  0  0  0  0  0  0  0  0
  -30.4910  -17.4150   20.2950 C   0  0  0  0  0  0  0  0  0  0  0  0
  -30.0160  -16.0970   20.2470 N   0  0  0  0  0  0  0  0  0  0  0  0
  -31.6850  -17.6290   20.5150 O   0  0  0  0  0  0  0  0  0  0  0  0
  -29.0160  -15.9970   20.2420 H   0  0  0  0  0  0  0  0  0  0  0  0
  -25.3810  -13.9530   20.5050 C   0  0  0  0  0  0  0  0  0  0  0  0
  -24.3310  -13.1710   20.9000 C   0  0  0  0  0  0  0  0  0  0  0  0
  -24.7860  -11.8210   20.8100 C   0  0  0  0  0  0  0  0  0  0  0  0
  -26.4080  -13.0790   20.1920 N   0  0  0  0  0  0  0  0  0  0  0  0
  -26.0620  -11.7890   20.4410 N   0  0  0  0  0  0  0  0  0  0  0  0
  -24.0640  -10.5550   20.9920 C   0  0  0  0  0  0  0  0  0  0  0  0
  -24.5120   -9.5710   21.9010 C   0  0  0  0  0  3  0  0  0  0  0  0
  -23.7870   -8.3720   22.0750 C   0  0  0  0  0  3  0  0  0  0  0  0
  -22.5990   -8.1490   21.3390 C   0  0  0  0  0  0  0  0  0  0  0  0
  -22.1690   -9.1210   20.4180 C   0  0  0  0  0  3  0  0  0  0  0  0
  -22.8950  -10.3110   20.2420 C   0  0  0  0  0  3  0  0  0  0  0  0
  -21.8410   -7.0060   21.4240 O   0  0  0  0  0  0  0  0  0  0  0  0
  -21.7810   -6.2680   22.5780 C   0  0  0  0  0  0  0  0  0  0  0  0
  -21.3080   -6.8170   23.7900 C   0  0  0  0  0  3  0  0  0  0  0  0
  -21.1980   -6.0030   24.9350 C   0  0  0  0  0  3  0  0  0  0  0  0
  -21.5500   -4.6410   24.8690 C   0  0  0  0  0  0  0  0  0  0  0  0
  -22.0140   -4.0920   23.6620 C   0  0  0  0  0  3  0  0  0  0  0  0
  -22.1270   -4.9020   22.5190 C   0  0  0  0  0  0  0  0  0  0  0  0
  -22.5560   -4.3640   21.3530 F   0  0  0  0  0  0  0  0  0  0  0  0
  -21.4360   -3.8580   25.9670 F   0  0  0  0  0  0  0  0  0  0  0  0
  -22.9500  -13.6450   21.2440 C   0  0  0  0  0  0  0  0  0  0  0  0
  -22.2580  -12.9280   22.1200 N   0  0  0  0  0  0  0  0  0  0  0  0
  -22.4960  -14.6860   20.7700 O   0  0  0  0  0  0  0  0  0  0  0  0
  -22.6400  -12.0840   22.5200 H   0  0  0  0  0  0  0  0  0  0  0  0
  -21.3320  -13.2250   22.3950 H   0  0  0  0  0  0  0  0  0  0  0  0
  -25.5420  -15.3280   20.3610 N   0  0  0  0  0  0  0  0  0  0  0  0
  -24.7730  -15.9730   20.5060 H   0  0  0  0  0  0  0  0  0  0  0  0
  -26.3610  -15.7720   19.9690 H   0  0  0  0  0  0  0  0  0  0  0  0
  -28.7160  -23.7510   20.1050 C   0  0  0  0  0  3  0  0  0  0  0  0
  -29.1900  -22.6100   20.5990 N   0  0  0  0  0  0  0  0  0  0  0  0
  -28.6330  -25.1760   20.8620 C   0  0  0  0  0  2  0  0  0  0  0  0
  -28.6530  -26.5000   20.1430 O   0  0  0  0  0  0  0  0  0  0  0  0
  -24.6260  -31.7630   23.1910 C   0  0  0  0  0  0  0  0  0  0  0  0
  -27.5050  -27.3250   20.1590 C   0  0  0  0  0  0  0  0  0  0  0  0
  -23.5250  -30.3390   21.4950 C   0  0  0  0  0  3  0  0  0  0  0  0
  -25.0800  -28.8640   20.0900 C   0  0  0  0  0  0  0  0  0  0  0  0
  -26.0540  -30.7550   21.3920 C   0  0  0  0  0  2  0  0  0  0  0  0
  -26.2100  -29.3830   20.7370 C   0  0  0  0  0  0  0  0  0  0  0  0
  -27.4230  -28.6230   20.7690 C   0  0  0  0  0  3  0  0  0  0  0  0
  -26.3540  -26.8660   19.4900 C   0  0  0  0  0  3  0  0  0  0  0  0
  -25.1570  -27.6110   19.4550 C   0  0  0  0  0  3  0  0  0  0  0  0
  -23.8080  -29.6910   20.1120 C   0  0  0  0  0  2  0  0  0  0  0  0
  -24.7510  -30.9730   22.0840 N   0  0  0  0  0  0  0  0  0  0  0  0
  -23.5170  -31.9860   23.7010 O   0  0  0  0  0  0  0  0  0  0  0  0
  -22.8780  -29.2840   22.4250 C   0  0  0  0  0  0  0  0  0  0  0  0
  -21.5600  -29.0620   22.2710 N   0  0  0  0  0  0  0  0  0  0  0  0
  -23.5630  -28.6690   23.2470 O   0  0  0  0  0  0  0  0  0  0  0  0
  -21.0630  -29.6130   21.5850 H   0  0  0  0  0  0  0  0  0  0  0  0
  -18.2210  -27.7330   22.6930 C   0  0  0  0  0  0  0  0  0  0  0  0
  -20.7640  -28.0780   23.0090 C   0  0  0  0  0  3  0  0  0  0  0  0
  -20.9270  -26.6630   22.4060 C   0  0  0  0  0  2  0  0  0  0  0  0
  -19.8530  -26.3250   21.3670 C   0  0  0  0  0  2  0  0  0  0  0  0
  -18.4560  -26.4070   21.9910 C   0  0  0  0  0  2  0  0  0  0  0  0
  -19.3050  -28.5250   23.1580 C   0  0  0  0  0  0  0  0  0  0  0  0
  -19.0290  -29.7650   23.7710 C   0  0  0  0  0  3  0  0  0  0  0  0
  -17.7050  -30.2140   23.9290 C   0  0  0  0  0  3  0  0  0  0  0  0
  -16.6360  -29.4190   23.4800 C   0  0  0  0  0  3  0  0  0  0  0  0
  -16.8950  -28.1820   22.8660 C   0  0  0  0  0  3  0  0  0  0  0  0
  -25.8630  -32.4410   23.8560 C   0  0  0  0  0  3  0  0  0  0  0  0
  -26.3590  -31.6910   25.1550 C   0  0  1  0  0  0  0  0  0  0  0  0
  -25.2410  -31.4190   26.1880 C   0  0  0  0  0  1  0  0  0  0  0  0
  -26.9980  -30.3320   24.7910 C   0  0  0  0  0  1  0  0  0  0  0  0
  -27.4620  -32.5230   25.8510 C   0  0  0  0  0  1  0  0  0  0  0  0
  -25.4970  -33.8300   24.1720 N   0  0  0  0  0  0  0  0  0  0  0  0
  -25.8050  -34.8900   23.4150 C   0  0  0  0  0  0  0  0  0  0  0  0
  -26.4970  -34.8080   22.3970 O   0  0  0  0  0  0  0  0  0  0  0  0
  -24.8950  -33.9690   24.9700 H   0  0  0  0  0  0  0  0  0  0  0  0
  -24.0240  -36.6190   23.0060 C   0  0  0  0  0  1  0  0  0  0  0  0
  -25.2560  -36.2610   23.8530 C   0  0  0  0  0  3  0  0  0  0  0  0
  -27.3330  -37.2270   24.7380 C   0  0  0  0  0  1  0  0  0  0  0  0
  -26.2510  -37.3520   23.7640 N   0  0  0  0  0  0  0  0  0  0  0  0
  -25.8060  -38.2550   23.8970 H   0  0  0  0  0  0  0  0  0  0  0  0
  -30.6740  -19.8290   22.8830 C   0  0  0  0  0  1  0  0  0  0  0  0
  -30.9840  -20.3570   21.4790 C   0  0  0  0  0  2  0  0  0  0  0  0
  1  3  1  0
  2  5  2  0
  3 16  1  0
  3  4  2  0
  4 93  1  0
  5  4  1  0
  5 49  1  0
  6  2  1  0
  6  1  2  0
  7  6  1  0
  8 17  1  0
  9 14  1  0
 10 11  1  0
 10  9  1  0
 12 11  1  0
 12 23  1  0
 12 13  1  0
 14  8  1  0
 14 13  1  0
 15  8  2  0
 16 18  2  0
 17 16  1  0
 19 17  1  0
 20 21  2  0
 21 40  1  0
 22 21  1  0
 22 25  1  0
 23 24  1  0
 23 20  1  0
 24 22  2  0
 25 26  1  0
 26 27  2  0
 28 31  1  0
 28 27  1  0
 29 28  2  0
 30 29  1  0
 30 25  2  0
 31 32  1  0
 32 33  1  0
 33 34  2  0
 35 34  1  0
 35 39  1  0
 36 35  2  0
 37 32  2  0
 37 36  1  0
 38 37  1  0
 40 41  1  0
 41 44  1  0
 41 43  1  0
 42 40  2  0
 45 20  1  0
 45 46  1  0
 47 45  1  0
 48 49  2  0
 48 50  1  0
 51 53  1  0
 51 50  1  0
 52 63  2  0
 53 58  1  0
 54 62  1  0
 54 64  1  0
 55 61  1  0
 55 57  1  0
 56 62  1  0
 57 58  2  0
 57 56  1  0
 59 53  2  0
 60 59  1  0
 60 55  2  0
 61 54  1  0
 62 52  1  0
 64 66  2  0
 65 64  1  0
 67 65  1  0
 68 77  2  0
 68 73  1  0
 69 65  1  0
 69 73  1  0
 70 69  1  0
 71 72  1  0
 71 70  1  0
 72 68  1  0
 73 74  2  0
 74 75  1  0
 76 75  2  0
 77 76  1  0
 78 52  1  0
 78 83  1  0
 78 79  1  0
 79 82  1  1
 79 80  1  0
 81 79  1  0
 83 86  1  0
 84 88  1  0
 84 83  1  0
 85 84  2  0
 88 87  1  0
 90 88  1  0
 90 91  1  0
 90 89  1  0
 93 92  1  0
M  ISO  4   8 100  17 100  50 101  51 101
M  END
>  <TORSDO>  (6) 
F 19

>  <SCORE>  (6) 
-14.140

>  <name>  (6) 
5

>  <ligand_id>  (6) 
5

>  <original_smiles>  (6) 
[H]C(=Nc1c([H])c(F)c([H])c(C(=O)N([H])C(=O)N2C([H])([H])C([H])([H])C([H])([H])C([H])(n3nc(-c4c([H])c([H])c(Oc5c([H])c([H])c(F)c([H])c5F)c([H])c4[H])c(C(=O)N([H])[H])c3N([H])[H])C2([H])[H])c1C([H])([H])C([H])([H])[H])C([H])([H])Oc1c([H])c([H])c2c(c1[H])C([H])([H])N(C(=O)C([H])(N([H])C(=O)C([H])(N([H])C([H])([H])[H])C([H])([H])[H])C(C([H])([H])[H])(C([H])([H])[H])C([H])([H])[H])C([H])(C(=O)N([H])C1([H])c3c([H])c([H])c([H])c([H])c3C([H])([H])C([H])([H])C1([H])[H])C2([H])[H]

>  <smiles>  (6) 
[H]C(=Nc1c([H])c(F)c([H])c(C(=O)N([H])C(=O)N2C([H])([H])C([H])([H])C([H])([H])C([H])(n3nc(-c4c([H])c([H])c(Oc5c([H])c([H])c(F)c([H])c5F)c([H])c4[H])c(C(=O)N([H])[H])c3N([H])[H])C2([H])[H])c1C([H])([H])C([H])([H])[H])C([H])([H])Oc1c([H])c([H])c2c(c1[H])C([H])([H])N(C(=O)C([H])(N([H])C(=O)C([H])(N([H])C([H])([H])[H])C([H])([H])[H])C(C([H])([H])[H])(C([H])([H])[H])C([H])([H])[H])C([H])(C(=O)N([H])C1([H])c3c([H])c([H])c([H])c([H])c3C([H])([H])C([H])([H])C1([H])[H])C2([H])[H]

$$$$
6:0:0
     RDKit          3D

 90 98  0  0  1  0  0  0  0  0999 V2000
  -28.7180  -20.9290   20.7960 C   0  0  0  0  0  2  0  0  0  0  0  0
  -30.5620  -14.8440   20.3440 C   0  0  0  0  0  0  0  0  0  0  0  0
  -30.4080  -12.5360   19.3650 C   0  0  0  0  0  2  0  0  0  0  0  0
  -29.4650  -12.5760   18.1420 C   0  0  0  0  0  2  0  0  0  0  0  0
  -27.9980  -12.3880   18.5770 C   0  0  0  0  0  2  0  0  0  0  0  0
  -27.6170  -13.2820   19.7870 C   0  0  0  0  0  3  0  0  0  0  0  0
  -28.6800  -13.2180   20.9050 C   0  0  0  0  0  2  0  0  0  0  0  0
  -29.9670  -13.5960   20.3070 N   0  0  0  0  0  0  0  0  0  0  0  0
  -31.7500  -14.9360   20.0140 O   0  0  0  0  0  0  0  0  0  0  0  0
  -30.7230  -19.3600   20.0160 C   0  0  0  0  0  3  0  0  0  0  0  0
  -29.9060  -17.4370   20.4170 C   0  0  0  0  0  0  0  0  0  0  0  0
  -31.0430  -18.0460   19.9540 N   0  0  0  0  0  0  0  0  0  0  0  0
  -28.9290  -18.3440   20.7110 N   0  0  0  0  0  2  0  0  0  0  0  0
  -29.4620  -19.6170   20.4310 N   0  0  0  0  0  0  0  0  0  0  0  0
  -29.7490  -15.9580   20.5800 N   0  0  0  0  0  0  0  0  0  0  0  0
  -28.8210  -15.6960   20.8670 H   0  0  0  0  0  0  0  0  0  0  0  0
  -25.2310  -13.8610   20.5270 C   0  0  0  0  0  0  0  0  0  0  0  0
  -24.1700  -13.0830   20.9020 C   0  0  0  0  0  0  0  0  0  0  0  0
  -24.6380  -11.7340   20.8670 C   0  0  0  0  0  0  0  0  0  0  0  0
  -26.2770  -12.9850   20.2840 N   0  0  0  0  0  0  0  0  0  0  0  0
  -25.9280  -11.7010   20.5520 N   0  0  0  0  0  0  0  0  0  0  0  0
  -23.9160  -10.4680   21.0580 C   0  0  0  0  0  0  0  0  0  0  0  0
  -24.3570   -9.4990   21.9860 C   0  0  0  0  0  3  0  0  0  0  0  0
  -23.6340   -8.3000   22.1650 C   0  0  0  0  0  3  0  0  0  0  0  0
  -22.4560   -8.0620   21.4170 C   0  0  0  0  0  0  0  0  0  0  0  0
  -22.0350   -9.0210   20.4780 C   0  0  0  0  0  3  0  0  0  0  0  0
  -22.7590  -10.2110   20.2970 C   0  0  0  0  0  3  0  0  0  0  0  0
  -21.7050   -6.9160   21.5050 O   0  0  0  0  0  0  0  0  0  0  0  0
  -21.6680   -6.1670   22.6540 C   0  0  0  0  0  0  0  0  0  0  0  0
  -21.2490   -6.7130   23.8870 C   0  0  0  0  0  3  0  0  0  0  0  0
  -21.1580   -5.8910   25.0280 C   0  0  0  0  0  3  0  0  0  0  0  0
  -21.4770   -4.5220   24.9370 C   0  0  0  0  0  0  0  0  0  0  0  0
  -21.8900   -3.9750   23.7090 C   0  0  0  0  0  3  0  0  0  0  0  0
  -21.9810   -4.7950   22.5710 C   0  0  0  0  0  0  0  0  0  0  0  0
  -22.3590   -4.2570   21.3860 F   0  0  0  0  0  0  0  0  0  0  0  0
  -21.3830   -3.7300   26.0310 F   0  0  0  0  0  0  0  0  0  0  0  0
  -22.7720  -13.5560   21.1770 C   0  0  0  0  0  0  0  0  0  0  0  0
  -22.0470  -12.8550   22.0420 N   0  0  0  0  0  0  0  0  0  0  0  0
  -22.3320  -14.5820   20.6620 O   0  0  0  0  0  0  0  0  0  0  0  0
  -22.4150  -12.0250   22.4810 H   0  0  0  0  0  0  0  0  0  0  0  0
  -21.1090  -13.1540   22.2670 H   0  0  0  0  0  0  0  0  0  0  0  0
  -25.3870  -15.2320   20.3490 N   0  0  0  0  0  0  0  0  0  0  0  0
  -24.6120  -15.8770   20.4610 H   0  0  0  0  0  0  0  0  0  0  0  0
  -26.2140  -15.6780   19.9710 H   0  0  0  0  0  0  0  0  0  0  0  0
  -32.9180  -20.2100   19.2370 C   0  0  0  0  0  2  0  0  0  0  0  0
  -31.6700  -20.4240   19.6900 C   0  0  0  0  0  3  0  0  0  0  0  0
  -28.8190  -22.3360   20.0200 C   0  0  0  0  0  3  0  0  0  0  0  0
  -28.3940  -23.6110   20.4230 C   0  0  0  0  0  3  0  0  0  0  0  0
  -28.3910  -24.9970   19.6080 C   0  0  0  0  0  2  0  0  0  0  0  0
  -28.3010  -26.3630   20.2740 O   0  0  0  0  0  0  0  0  0  0  0  0
  -24.5940  -31.8830   23.2460 C   0  0  0  0  0  0  0  0  0  0  0  0
  -27.1910  -27.2520   20.1850 C   0  0  0  0  0  0  0  0  0  0  0  0
  -23.3910  -30.4870   21.6070 C   0  0  0  0  0  3  0  0  0  0  0  0
  -24.8380  -28.9280   20.1750 C   0  0  0  0  0  0  0  0  0  0  0  0
  -25.9380  -30.7810   21.4290 C   0  0  0  0  0  2  0  0  0  0  0  0
  -26.0120  -29.3970   20.7760 C   0  0  0  0  0  0  0  0  0  0  0  0
  -27.1860  -28.5710   20.7700 C   0  0  0  0  0  3  0  0  0  0  0  0
  -25.9850  -26.8550   19.5660 C   0  0  0  0  0  3  0  0  0  0  0  0
  -24.8320  -27.6670   19.5610 C   0  0  0  0  0  3  0  0  0  0  0  0
  -23.6060  -29.8130   20.2260 C   0  0  0  0  0  2  0  0  0  0  0  0
  -24.6610  -31.0700   22.1490 N   0  0  0  0  0  0  0  0  0  0  0  0
  -23.5100  -32.1620   23.7800 O   0  0  0  0  0  0  0  0  0  0  0  0
  -22.7240  -29.4730   22.5690 C   0  0  0  0  0  0  0  0  0  0  0  0
  -21.3970  -29.2990   22.4450 N   0  0  0  0  0  0  0  0  0  0  0  0
  -23.4020  -28.8450   23.3870 O   0  0  0  0  0  0  0  0  0  0  0  0
  -20.9080  -29.8560   21.7590 H   0  0  0  0  0  0  0  0  0  0  0  0
  -18.0180  -28.1050   22.9570 C   0  0  0  0  0  0  0  0  0  0  0  0
  -20.5780  -28.3610   23.2180 C   0  0  0  0  0  3  0  0  0  0  0  0
  -20.6750  -26.9310   22.6410 C   0  0  0  0  0  2  0  0  0  0  0  0
  -19.5700  -26.6110   21.6300 C   0  0  0  0  0  2  0  0  0  0  0  0
  -18.1900  -26.7570   22.2780 C   0  0  0  0  0  2  0  0  0  0  0  0
  -19.1380  -28.8650   23.3840 C   0  0  0  0  0  0  0  0  0  0  0  0
  -18.9220  -30.1270   23.9800 C   0  0  0  0  0  3  0  0  0  0  0  0
  -17.6180  -30.6270   24.1530 C   0  0  0  0  0  3  0  0  0  0  0  0
  -16.5120  -29.8640   23.7410 C   0  0  0  0  0  3  0  0  0  0  0  0
  -16.7130  -28.6050   23.1490 C   0  0  0  0  0  3  0  0  0  0  0  0
  -25.8750  -32.5190   23.8690 C   0  0  0  0  0  3  0  0  0  0  0  0
  -26.3860  -31.7540   25.1510 C   0  0  1  0  0  0  0  0  0  0  0  0
  -25.2900  -31.5250   26.2190 C   0  0  0  0  0  1  0  0  0  0  0  0
  -26.9670  -30.3720   24.7720 C   0  0  0  0  0  1  0  0  0  0  0  0
  -27.5360  -32.5500   25.8120 C   0  0  0  0  0  1  0  0  0  0  0  0
  -25.5650  -33.9190   24.1950 N   0  0  0  0  0  0  0  0  0  0  0  0
  -25.8980  -34.9720   23.4360 C   0  0  0  0  0  0  0  0  0  0  0  0
  -26.5660  -34.8660   22.4040 O   0  0  0  0  0  0  0  0  0  0  0  0
  -24.9710  -34.0740   24.9960 H   0  0  0  0  0  0  0  0  0  0  0  0
  -24.1740  -36.7710   23.0790 C   0  0  0  0  0  1  0  0  0  0  0  0
  -25.4130  -36.3630   23.8920 C   0  0  0  0  0  3  0  0  0  0  0  0
  -27.5470  -37.2440   24.7280 C   0  0  0  0  0  1  0  0  0  0  0  0
  -26.4490  -37.4140   23.7810 N   0  0  0  0  0  0  0  0  0  0  0  0
  -26.0440  -38.3350   23.9250 H   0  0  0  0  0  0  0  0  0  0  0  0
  2 15  1  0
  3  8  1  0
  4  5  1  0
  4  3  1  0
  6  5  1  0
  6 20  1  0
  6  7  1  0
  8  2  1  0
  8  7  1  0
  9  2  2  0
 10 46  1  0
 10 14  1  0
 11 15  1  0
 11 13  1  0
 12 10  1  0
 12 11  2  0
 14 13  1  0
 14  1  1  0
 15 16  1  0
 17 18  2  0
 18 37  1  0
 19 18  1  0
 19 22  1  0
 20 17  1  0
 20 21  1  0
 21 19  2  0
 22 23  1  0
 23 24  2  0
 25 28  1  0
 25 24  1  0
 26 25  2  0
 27 26  1  0
 27 22  2  0
 28 29  1  0
 29 30  1  0
 30 31  2  0
 32 31  1  0
 32 36  1  0
 33 32  2  0
 34 29  2  0
 34 33  1  0
 35 34  1  0
 37 38  1  0
 38 41  1  0
 38 40  1  0
 39 37  2  0
 42 43  1  0
 42 17  1  0
 44 42  1  0
 45 46  2  0
 47 48  2  0
 47  1  1  0
 49 50  1  0
 49 48  1  0
 51 62  2  0
 52 50  1  0
 52 57  1  0
 53 61  1  0
 53 63  1  0
 54 60  1  0
 54 56  1  0
 55 61  1  0
 56 55  1  0
 57 56  2  0
 58 52  2  0
 59 58  1  0
 59 54  2  0
 60 53  1  0
 61 51  1  0
 63 65  2  0
 64 63  1  0
 66 64  1  0
 67 76  2  0
 67 72  1  0
 68 64  1  0
 68 72  1  0
 69 68  1  0
 70 71  1  0
 70 69  1  0
 71 67  1  0
 72 73  2  0
 73 74  1  0
 75 74  2  0
 76 75  1  0
 77 51  1  0
 77 82  1  0
 77 78  1  0
 78 81  1  1
 78 79  1  0
 80 78  1  0
 82 85  1  0
 83 87  1  0
 83 82  1  0
 84 83  2  0
 87 86  1  0
 89 87  1  0
 89 90  1  0
 89 88  1  0
M  ISO  4   2 100  15 100  49 101  50 101
M  END
>  <TORSDO>  (7) 
F 19

>  <SCORE>  (7) 
-14.318

>  <name>  (7) 
6

>  <ligand_id>  (7) 
6

>  <original_smiles>  (7) 
[H]C([H])=C([H])c1nc(N([H])C(=O)N2C([H])([H])C([H])([H])C([H])([H])C([H])(n3nc(-c4c([H])c([H])c(Oc5c([H])c([H])c(F)c([H])c5F)c([H])c4[H])c(C(=O)N([H])[H])c3N([H])[H])C2([H])[H])nn1C([H])([H])C([H])=C([H])C([H])([H])Oc1c([H])c([H])c2c(c1[H])C([H])([H])N(C(=O)C([H])(N([H])C(=O)C([H])(N([H])C([H])([H])[H])C([H])([H])[H])C(C([H])([H])[H])(C([H])([H])[H])C([H])([H])[H])C([H])(C(=O)N([H])C1([H])c3c([H])c([H])c([H])c([H])c3C([H])([H])C([H])([H])C1([H])[H])C2([H])[H]

>  <smiles>  (7) 
[H]C([H])=C([H])c1nc(N([H])C(=O)N2C([H])([H])C([H])([H])C([H])([H])C([H])(n3nc(-c4c([H])c([H])c(Oc5c([H])c([H])c(F)c([H])c5F)c([H])c4[H])c(C(=O)N([H])[H])c3N([H])[H])C2([H])[H])nn1C([H])([H])C([H])=C([H])C([H])([H])Oc1c([H])c([H])c2c(c1[H])C([H])([H])N(C(=O)C([H])(N([H])C(=O)C([H])(N([H])C([H])([H])[H])C([H])([H])[H])C(C([H])([H])[H])(C([H])([H])[H])C([H])([H])[H])C([H])(C(=O)N([H])C1([H])c3c([H])c([H])c([H])c([H])c3C([H])([H])C([H])([H])C1([H])[H])C2([H])[H]

$$$$
7:0:0
     RDKit          3D

 96105  0  0  1  0  0  0  0  0999 V2000
  -28.7850  -18.4090   19.9700 C   0  0  0  0  0  3  0  0  0  0  0  0
  -31.5040  -17.9100   19.6770 C   0  0  0  0  0  3  0  0  0  0  0  0
  -29.2790  -17.1300   20.3210 C   0  0  0  0  0  0  0  0  0  0  0  0
  -30.6710  -16.8280   20.1330 C   0  0  0  0  0  0  0  0  0  0  0  0
  -31.0110  -19.2380   19.4220 C   0  0  0  0  0  0  0  0  0  0  0  0
  -29.6200  -19.4600   19.5330 C   0  0  0  0  0  0  0  0  0  0  0  0
  -31.2380  -15.4760   20.5980 C   0  0  0  0  0  0  0  0  0  0  0  0
  -31.5220  -15.3050   21.8240 N   0  0  0  0  0  0  0  0  0  0  0  0
  -31.3040  -16.1320   22.3660 H   0  0  0  0  0  0  0  0  0  0  0  0
  -31.5180  -14.3010   19.6220 C   0  0  0  0  0  0  0  0  0  0  0  0
  -31.1770  -11.9200   18.9720 C   0  0  0  0  0  2  0  0  0  0  0  0
  -30.1820  -11.7770   17.8030 C   0  0  0  0  0  2  0  0  0  0  0  0
  -28.7340  -11.7160   18.3200 C   0  0  0  0  0  2  0  0  0  0  0  0
  -28.4300  -12.8400   19.3450 C   0  0  0  0  0  3  0  0  0  0  0  0
  -29.5300  -12.9180   20.4280 C   0  0  0  0  0  2  0  0  0  0  0  0
  -30.8230  -13.1230   19.7580 N   0  0  0  0  0  0  0  0  0  0  0  0
  -32.4950  -14.3900   18.8700 O   0  0  0  0  0  0  0  0  0  0  0  0
  -26.1860  -13.6640   20.2910 C   0  0  0  0  0  0  0  0  0  0  0  0
  -25.0710  -12.9940   20.7190 C   0  0  0  0  0  0  0  0  0  0  0  0
  -25.3710  -11.6050   20.5880 C   0  0  0  0  0  0  0  0  0  0  0  0
  -27.1010  -12.6880   19.9300 N   0  0  0  0  0  0  0  0  0  0  0  0
  -26.6190  -11.4400   20.1650 N   0  0  0  0  0  0  0  0  0  0  0  0
  -24.5240  -10.4210   20.7860 C   0  0  0  0  0  0  0  0  0  0  0  0
  -24.8420   -9.4380   21.7490 C   0  0  0  0  0  3  0  0  0  0  0  0
  -24.0030   -8.3190   21.9350 C   0  0  0  0  0  3  0  0  0  0  0  0
  -22.8300   -8.1750   21.1550 C   0  0  0  0  0  0  0  0  0  0  0  0
  -22.5290   -9.1450   20.1830 C   0  0  0  0  0  3  0  0  0  0  0  0
  -23.3690  -10.2560   19.9960 C   0  0  0  0  0  3  0  0  0  0  0  0
  -21.9690   -7.1070   21.2460 O   0  0  0  0  0  0  0  0  0  0  0  0
  -21.7210   -6.4840   22.4410 C   0  0  0  0  0  0  0  0  0  0  0  0
  -21.1640   -7.1730   23.5410 C   0  0  0  0  0  3  0  0  0  0  0  0
  -20.8610   -6.4760   24.7290 C   0  0  0  0  0  3  0  0  0  0  0  0
  -21.1050   -5.0930   24.8160 C   0  0  0  0  0  0  0  0  0  0  0  0
  -21.6550   -4.4050   23.7200 C   0  0  0  0  0  3  0  0  0  0  0  0
  -21.9600   -5.0970   22.5360 C   0  0  0  0  0  0  0  0  0  0  0  0
  -22.4700   -4.4250   21.4770 F   0  0  0  0  0  0  0  0  0  0  0  0
  -20.8090   -4.4230   25.9540 F   0  0  0  0  0  0  0  0  0  0  0  0
  -23.7640  -13.6070   21.1340 C   0  0  0  0  0  0  0  0  0  0  0  0
  -23.0600  -12.9760   22.0670 N   0  0  0  0  0  0  0  0  0  0  0  0
  -23.3820  -14.6800   20.6670 O   0  0  0  0  0  0  0  0  0  0  0  0
  -23.3820  -12.1080   22.4680 H   0  0  0  0  0  0  0  0  0  0  0  0
  -22.1860  -13.3700   22.3880 H   0  0  0  0  0  0  0  0  0  0  0  0
  -26.4890  -15.0160   20.1570 N   0  0  0  0  0  4  0  0  0  0  0  0
  -25.8190  -15.7420   20.3820 H   0  0  0  0  0  0  0  0  0  0  0  0
  -27.3640  -15.3790   19.8020 H   0  0  0  0  0  0  0  0  0  0  0  0
  -26.9760  -16.2380   20.9490 C   0  0  0  0  0  2  0  0  0  0  0  0
  -28.3210  -16.1730   20.9450 C   0  0  0  0  0  2  0  0  0  0  0  0
  -31.8660  -20.2870   19.0480 O   0  0  0  0  0  0  0  0  0  0  0  0
  -31.9290  -21.5040   19.8630 C   0  0  0  0  0  2  0  0  0  0  0  0
  -31.2620  -24.0430   19.6040 C   0  0  0  0  0  3  0  0  0  0  0  0
  -31.0550  -22.7060   19.3970 C   0  0  0  0  0  3  0  0  0  0  0  0
  -30.3010  -25.1650   19.1290 C   0  0  0  0  0  2  0  0  0  0  0  0
  -30.2260  -26.4120   19.9070 O   0  0  0  0  0  0  0  0  0  0  0  0
  -25.7210  -30.5540   23.6940 C   0  0  0  0  0  0  0  0  0  0  0  0
  -29.0010  -27.0980   19.9380 C   0  0  0  0  0  0  0  0  0  0  0  0
  -24.7610  -29.3990   21.7330 C   0  0  0  0  0  3  0  0  0  0  0  0
  -26.4460  -28.3710   20.1140 C   0  0  0  0  0  0  0  0  0  0  0  0
  -27.2430  -30.0460   21.7790 C   0  0  0  0  0  2  0  0  0  0  0  0
  -27.5180  -28.8560   20.8730 C   0  0  0  0  0  0  0  0  0  0  0  0
  -28.7920  -28.2260   20.7860 C   0  0  0  0  0  3  0  0  0  0  0  0
  -27.9000  -26.6750   19.1510 C   0  0  0  0  0  3  0  0  0  0  0  0
  -26.6380  -27.2860   19.2470 C   0  0  0  0  0  3  0  0  0  0  0  0
  -25.1060  -29.0580   20.2610 C   0  0  0  0  0  2  0  0  0  0  0  0
  -25.9210  -30.0080   22.4600 N   0  0  0  0  0  0  0  0  0  0  0  0
  -24.5920  -30.5870   24.2080 O   0  0  0  0  0  0  0  0  0  0  0  0
  -24.2040  -28.1320   22.4270 C   0  0  0  0  0  0  0  0  0  0  0  0
  -22.9460  -27.7770   22.1120 N   0  0  0  0  0  0  0  0  0  0  0  0
  -24.9040  -27.4810   23.2050 O   0  0  0  0  0  0  0  0  0  0  0  0
  -22.4370  -28.3690   21.4710 H   0  0  0  0  0  0  0  0  0  0  0  0
  -19.8260  -25.9590   21.9170 C   0  0  0  0  0  0  0  0  0  0  0  0
  -22.2330  -26.5990   22.6080 C   0  0  0  0  0  3  0  0  0  0  0  0
  -22.6800  -25.3210   21.8600 C   0  0  0  0  0  2  0  0  0  0  0  0
  -21.7950  -24.9890   20.6550 C   0  0  0  0  0  2  0  0  0  0  0  0
  -20.3400  -24.7890   21.0940 C   0  0  0  0  0  2  0  0  0  0  0  0
  -20.7160  -26.8170   22.6150 C   0  0  0  0  0  0  0  0  0  0  0  0
  -20.1900  -27.9110   23.3370 C   0  0  0  0  0  3  0  0  0  0  0  0
  -18.8040  -28.1500   23.3720 C   0  0  0  0  0  3  0  0  0  0  0  0
  -17.9260  -27.2860   22.6950 C   0  0  0  0  0  3  0  0  0  0  0  0
  -18.4360  -26.1930   21.9710 C   0  0  0  0  0  3  0  0  0  0  0  0
  -26.8930  -31.1850   24.5080 C   0  0  0  0  0  3  0  0  0  0  0  0
  -26.5130  -32.5660   24.8370 N   0  0  0  0  0  0  0  0  0  0  0  0
  -26.9720  -33.6550   24.2060 C   0  0  0  0  0  0  0  0  0  0  0  0
  -27.8280  -33.6040   23.3180 O   0  0  0  0  0  0  0  0  0  0  0  0
  -25.7740  -32.6820   25.5150 H   0  0  0  0  0  0  0  0  0  0  0  0
  -25.3530  -35.4770   23.5870 C   0  0  0  0  0  1  0  0  0  0  0  0
  -26.3870  -35.0170   24.6250 C   0  0  0  0  0  3  0  0  0  0  0  0
  -28.2910  -35.8280   25.9480 C   0  0  0  0  0  1  0  0  0  0  0  0
  -27.4060  -36.0720   24.8110 N   0  0  0  0  0  0  0  0  0  0  0  0
  -26.9620  -36.9750   24.9500 H   0  0  0  0  0  0  0  0  0  0  0  0
  -27.2420  -30.3800   25.8220 C   0  0  1  0  0  0  0  0  0  0  0  0
  -26.0190  -30.1090   26.7280 C   0  0  0  0  0  1  0  0  0  0  0  0
  -27.8830  -29.0180   25.4720 C   0  0  0  0  0  1  0  0  0  0  0  0
  -28.2900  -31.1610   26.6490 C   0  0  0  0  0  1  0  0  0  0  0  0
  -29.1220  -20.6970   19.1780 O   0  0  0  0  0  0  0  0  0  0  0  0
  -28.0830  -22.8130   19.6220 C   0  0  0  0  0  1  0  0  0  0  0  0
  -28.2190  -21.3500   20.0630 C   0  0  0  0  0  2  0  0  0  0  0  0
  1  3  1  0
  2  4  1  0
  3 47  1  0
  4  3  2  0
  4  7  1  0
  5  6  1  0
  5  2  2  0
  6  1  2  0
  7  8  2  0
  8  9  1  0
 10 16  1  0
 10  7  1  0
 11 16  1  0
 12 13  1  0
 12 11  1  0
 14 13  1  0
 14 21  1  0
 14 15  1  0
 16 15  1  0
 17 10  2  0
 18 19  2  0
 19 38  1  0
 20 19  1  0
 20 23  1  0
 21 22  1  0
 21 18  1  0
 22 20  2  0
 23 24  1  0
 24 25  2  0
 26 29  1  0
 26 25  1  0
 27 26  2  0
 28 27  1  0
 28 23  2  0
 29 30  1  0
 30 35  2  0
 30 31  1  0
 31 32  2  0
 32 33  1  0
 33 37  1  0
 34 33  2  0
 35 34  1  0
 36 35  1  0
 38 39  1  0
 39 42  1  0
 39 41  1  0
 40 38  2  0
 43 18  1  0
 43 44  1  0
 43 46  1  0
 45 43  1  0
 47 46  1  0
 48  5  1  0
 48 49  1  0
 51 50  2  0
 51 49  1  0
 52 50  1  0
 52 53  1  0
 53 55  1  0
 54 65  2  0
 55 60  1  0
 56 66  1  0
 56 64  1  0
 57 63  1  0
 57 59  1  0
 58 64  1  0
 59 58  1  0
 60 59  2  0
 61 62  1  0
 61 55  2  0
 62 57  2  0
 63 56  1  0
 64 54  1  0
 66 68  2  0
 67 66  1  0
 69 67  1  0
 70 79  2  0
 70 75  1  0
 71 67  1  0
 71 75  1  0
 72 71  1  0
 73 74  1  0
 73 72  1  0
 74 70  1  0
 75 76  2  0
 76 77  1  0
 78 77  2  0
 79 78  1  0
 80 54  1  0
 80 81  1  0
 80 90  1  0
 81 84  1  0
 82 86  1  0
 82 81  1  0
 83 82  2  0
 86 85  1  0
 86 88  1  0
 88 89  1  0
 88 87  1  0
 90 93  1  1
 90 91  1  0
 92 90  1  0
 94  6  1  0
 94 96  1  0
 95 96  1  0
M  ISO  4   7 100  10 100  52 101  53 101
M  END
>  <TORSDO>  (8) 
F 24

>  <SCORE>  (8) 
-8.876

>  <name>  (8) 
7

>  <ligand_id>  (8) 
7

>  <original_smiles>  (8) 
[H]N=C(C(=O)N1C([H])([H])C([H])([H])C([H])([H])C([H])(n2nc(-c3c([H])c([H])c(Oc4c([H])c([H])c(F)c([H])c4F)c([H])c3[H])c(C(=O)N([H])[H])c2N([H])[H])C1([H])[H])c1c([H])c(OC([H])([H])C([H])=C([H])C([H])([H])Oc2c([H])c([H])c3c(c2[H])C([H])([H])N(C(=O)C([H])(N([H])C(=O)C([H])(N([H])C([H])([H])[H])C([H])([H])[H])C(C([H])([H])[H])(C([H])([H])[H])C([H])([H])[H])C([H])(C(=O)N([H])C2([H])c4c([H])c([H])c([H])c([H])c4C([H])([H])C([H])([H])C2([H])[H])C3([H])[H])c(OC([H])([H])C([H])([H])[H])c([H])c1C([H])=C([H])[H]

>  <smiles>  (8) 
[H]N=C(C(=O)N1C([H])([H])C([H])([H])C([H])([H])C([H])(n2nc(-c3c([H])c([H])c(Oc4c([H])c([H])c(F)c([H])c4F)c([H])c3[H])c(C(=O)N([H])[H])c2N([H])[H])C1([H])[H])c1c([H])c(OC([H])([H])C([H])=C([H])C([H])([H])Oc2c([H])c([H])c3c(c2[H])C([H])([H])N(C(=O)C([H])(N([H])C(=O)C([H])(N([H])C([H])([H])[H])C([H])([H])[H])C(C([H])([H])[H])(C([H])([H])[H])C([H])([H])[H])C([H])(C(=O)N([H])C2([H])c4c([H])c([H])c([H])c([H])c4C([H])([H])C([H])([H])C2([H])[H])C3([H])[H])c(OC([H])([H])C([H])([H])[H])c([H])c1C([H])=C([H])[H]

$$$$
8:0:0
     RDKit          3D

 94102  0  0  1  0  0  0  0  0999 V2000
  -29.5280  -17.4830   19.6360 C   0  0  0  0  0  0  0  0  0  0  0  0
  -29.4280  -18.8860   19.4340 C   0  0  0  0  0  0  0  0  0  0  0  0
  -30.1900  -17.0150   20.8000 C   0  0  0  0  0  0  0  0  0  0  0  0
  -29.9650  -19.7630   20.3970 C   0  0  0  0  0  0  0  0  0  0  0  0
  -30.7200  -17.9810   21.6830 C   0  0  0  0  0  0  0  0  0  0  0  0
  -28.7520  -19.4800   18.1990 C   0  0  0  0  0  1  0  0  0  0  0  0
  -30.6180  -19.3190   21.4910 N   0  0  0  0  0  0  0  0  0  0  0  0
  -31.3280  -17.5610   22.8190 F   0  0  0  0  0  0  0  0  0  0  0  0
  -30.9530  -14.6350   20.7140 C   0  0  0  0  0  0  0  0  0  0  0  0
  -30.7460  -12.4550   19.5720 C   0  0  0  0  0  2  0  0  0  0  0  0
  -29.8440  -12.6380   18.3310 C   0  0  0  0  0  2  0  0  0  0  0  0
  -28.3490  -12.5270   18.6990 C   0  0  0  0  0  2  0  0  0  0  0  0
  -27.9680  -13.3500   19.9590 C   0  0  0  0  0  3  0  0  0  0  0  0
  -28.9810  -13.1090   21.1010 C   0  0  0  0  0  2  0  0  0  0  0  0
  -30.3260  -13.4320   20.5890 N   0  0  0  0  0  0  0  0  0  0  0  0
  -32.0940  -14.8500   20.2950 O   0  0  0  0  0  0  0  0  0  0  0  0
  -30.1780  -15.6290   21.1910 N   0  0  0  0  0  0  0  0  0  0  0  0
  -29.3300  -15.3180   21.6390 H   0  0  0  0  0  0  0  0  0  0  0  0
  -25.5420  -13.9680   20.5580 C   0  0  0  0  0  0  0  0  0  0  0  0
  -24.4580  -13.1990   20.8890 C   0  0  0  0  0  0  0  0  0  0  0  0
  -24.9200  -11.8470   20.8870 C   0  0  0  0  0  0  0  0  0  0  0  0
  -26.5950  -13.0830   20.3800 N   0  0  0  0  0  0  0  0  0  0  0  0
  -26.2210  -11.8040   20.6340 N   0  0  0  0  0  0  0  0  0  0  0  0
  -24.1850  -10.5860   21.0540 C   0  0  0  0  0  0  0  0  0  0  0  0
  -24.5600   -9.6380   22.0320 C   0  0  0  0  0  3  0  0  0  0  0  0
  -23.8270   -8.4410   22.1860 C   0  0  0  0  0  3  0  0  0  0  0  0
  -22.7070   -8.1850   21.3610 C   0  0  0  0  0  0  0  0  0  0  0  0
  -22.3510   -9.1210   20.3750 C   0  0  0  0  0  3  0  0  0  0  0  0
  -23.0840  -10.3100   20.2190 C   0  0  0  0  0  3  0  0  0  0  0  0
  -21.9530   -7.0380   21.4210 O   0  0  0  0  0  0  0  0  0  0  0  0
  -21.8060   -6.3340   22.5890 C   0  0  0  0  0  0  0  0  0  0  0  0
  -21.2350   -6.9160   23.7430 C   0  0  0  0  0  3  0  0  0  0  0  0
  -21.0370   -6.1360   24.9000 C   0  0  0  0  0  3  0  0  0  0  0  0
  -21.4030   -4.7770   24.9040 C   0  0  0  0  0  0  0  0  0  0  0  0
  -21.9670   -4.1940   23.7560 C   0  0  0  0  0  3  0  0  0  0  0  0
  -22.1650   -4.9700   22.6010 C   0  0  0  0  0  0  0  0  0  0  0  0
  -22.6900   -4.4000   21.4900 F   0  0  0  0  0  0  0  0  0  0  0  0
  -21.2050   -4.0250   26.0130 F   0  0  0  0  0  0  0  0  0  0  0  0
  -23.0520  -13.6800   21.0990 C   0  0  0  0  0  0  0  0  0  0  0  0
  -22.2880  -12.9910   21.9410 N   0  0  0  0  0  0  0  0  0  0  0  0
  -22.6360  -14.7010   20.5530 O   0  0  0  0  0  0  0  0  0  0  0  0
  -22.6360  -12.1660   22.4060 H   0  0  0  0  0  0  0  0  0  0  0  0
  -21.3430  -13.2940   22.1220 H   0  0  0  0  0  0  0  0  0  0  0  0
  -25.7140  -15.3370   20.3730 N   0  0  0  0  0  0  0  0  0  0  0  0
  -24.9350  -15.9850   20.4160 H   0  0  0  0  0  0  0  0  0  0  0  0
  -26.5650  -15.7600   20.0270 H   0  0  0  0  0  0  0  0  0  0  0  0
  -27.5900  -16.4550   18.4260 C   0  0  0  0  0  2  0  0  0  0  0  0
  -28.9040  -16.5320   18.6980 C   0  0  0  0  0  3  0  0  0  0  0  0
  -29.7750  -21.1280   20.2200 O   0  0  0  0  0  0  0  0  0  0  0  0
  -30.2180  -22.0860   21.1880 C   0  0  0  0  0  2  0  0  0  0  0  0
  -29.5750  -23.4710   20.8790 C   0  0  0  0  0  2  0  0  0  0  0  0
  -30.0600  -24.6240   21.7960 C   0  0  0  0  0  2  0  0  0  0  0  0
  -29.1280  -25.8630   21.9010 C   0  0  0  0  0  2  0  0  0  0  0  0
  -29.1960  -26.8030   20.8160 O   0  0  0  0  0  0  0  0  0  0  0  0
  -24.9140  -31.8560   23.4680 C   0  0  0  0  0  0  0  0  0  0  0  0
  -28.0260  -27.5220   20.6870 C   0  0  0  0  0  0  0  0  0  0  0  0
  -23.9120  -30.3530   21.7770 C   0  0  0  0  0  3  0  0  0  0  0  0
  -25.5550  -28.8810   20.4890 C   0  0  0  0  0  0  0  0  0  0  0  0
  -26.4190  -30.8610   21.7480 C   0  0  0  0  0  2  0  0  0  0  0  0
  -26.6340  -29.4860   21.1460 C   0  0  0  0  0  0  0  0  0  0  0  0
  -27.8760  -28.8130   21.2470 C   0  0  0  0  0  3  0  0  0  0  0  0
  -26.9360  -26.9330   20.0180 C   0  0  0  0  0  3  0  0  0  0  0  0
  -25.7010  -27.6020   19.9210 C   0  0  0  0  0  3  0  0  0  0  0  0
  -24.2590  -29.6620   20.4300 C   0  0  0  0  0  2  0  0  0  0  0  0
  -25.0940  -31.0400   22.3900 N   0  0  0  0  0  0  0  0  0  0  0  0
  -23.7830  -32.0710   23.9250 O   0  0  0  0  0  0  0  0  0  0  0  0
  -23.2550  -29.3130   22.7130 C   0  0  0  0  0  0  0  0  0  0  0  0
  -21.9610  -29.0330   22.4840 N   0  0  0  0  0  0  0  0  0  0  0  0
  -23.9090  -28.7600   23.6010 O   0  0  0  0  0  0  0  0  0  0  0  0
  -21.4920  -29.5350   21.7430 H   0  0  0  0  0  0  0  0  0  0  0  0
  -18.6530  -27.6010   22.7290 C   0  0  0  0  0  0  0  0  0  0  0  0
  -21.1510  -28.0590   23.2140 C   0  0  0  0  0  3  0  0  0  0  0  0
  -21.4080  -26.6240   22.7000 C   0  0  0  0  0  2  0  0  0  0  0  0
  -20.4280  -26.1890   21.6070 C   0  0  0  0  0  2  0  0  0  0  0  0
  -18.9880  -26.2480   22.1220 C   0  0  0  0  0  2  0  0  0  0  0  0
  -19.6700  -28.4570   23.2280 C   0  0  0  0  0  0  0  0  0  0  0  0
  -19.3070  -29.7180   23.7510 C   0  0  0  0  0  3  0  0  0  0  0  0
  -17.9600  -30.1240   23.7820 C   0  0  0  0  0  3  0  0  0  0  0  0
  -16.9560  -29.2660   23.3010 C   0  0  0  0  0  3  0  0  0  0  0  0
  -17.3040  -28.0060   22.7810 C   0  0  0  0  0  3  0  0  0  0  0  0
  -26.1130  -32.5740   24.1600 C   0  0  0  0  0  3  0  0  0  0  0  0
  -25.7250  -33.9740   24.3770 N   0  0  0  0  0  0  0  0  0  0  0  0
  -26.0720  -34.9920   23.5760 C   0  0  0  0  0  0  0  0  0  0  0  0
  -26.8210  -34.8550   22.6050 O   0  0  0  0  0  0  0  0  0  0  0  0
  -25.0640  -34.1520   25.1190 H   0  0  0  0  0  0  0  0  0  0  0  0
  -24.2970  -36.6740   22.9890 C   0  0  0  0  0  1  0  0  0  0  0  0
  -25.4960  -36.3820   23.9050 C   0  0  0  0  0  3  0  0  0  0  0  0
  -27.5260  -37.4210   24.8160 C   0  0  0  0  0  1  0  0  0  0  0  0
  -26.4890  -37.4720   23.7890 N   0  0  0  0  0  0  0  0  0  0  0  0
  -26.0340  -38.3800   23.8420 H   0  0  0  0  0  0  0  0  0  0  0  0
  -26.5430  -31.8970   25.5190 C   0  0  1  0  0  0  0  0  0  0  0  0
  -25.3690  -31.6670   26.4980 C   0  0  0  0  0  1  0  0  0  0  0  0
  -27.2150  -30.5280   25.2580 C   0  0  0  0  0  1  0  0  0  0  0  0
  -27.5950  -32.7780   26.2320 C   0  0  0  0  0  1  0  0  0  0  0  0
  1  3  1  0
  2  1  2  0
  2  4  1  0
  3 17  1  0
  3  5  2  0
  4  7  2  0
  5  8  1  0
  6  2  1  0
  7  5  1  0
  9 17  1  0
 10 15  1  0
 11 12  1  0
 11 10  1  0
 13 12  1  0
 13 22  1  0
 13 14  1  0
 15  9  1  0
 15 14  1  0
 16  9  2  0
 17 18  1  0
 19 20  2  0
 20 39  1  0
 21 20  1  0
 21 24  1  0
 22 19  1  0
 22 23  1  0
 23 21  2  0
 24 25  1  0
 25 26  2  0
 27 30  1  0
 27 26  1  0
 28 27  2  0
 29 28  1  0
 29 24  2  0
 30 31  1  0
 31 36  2  0
 31 32  1  0
 32 33  2  0
 33 34  1  0
 34 38  1  0
 35 34  2  0
 36 35  1  0
 37 36  1  0
 39 40  1  0
 40 43  1  0
 40 42  1  0
 41 39  2  0
 44 45  1  0
 44 19  1  0
 46 44  1  0
 47 48  2  0
 48  1  1  0
 49  4  1  0
 49 50  1  0
 51 50  1  0
 51 52  1  0
 52 53  1  0
 54 53  1  0
 55 66  2  0
 56 54  1  0
 56 61  1  0
 57 65  1  0
 57 67  1  0
 58 60  1  0
 59 65  1  0
 60 61  2  0
 60 59  1  0
 62 56  2  0
 63 62  1  0
 63 58  2  0
 64 58  1  0
 64 57  1  0
 65 55  1  0
 67 69  2  0
 68 67  1  0
 70 68  1  0
 71 80  2  0
 71 76  1  0
 72 68  1  0
 72 76  1  0
 73 72  1  0
 74 75  1  0
 74 73  1  0
 75 71  1  0
 76 77  2  0
 77 78  1  0
 79 78  2  0
 80 79  1  0
 81 55  1  0
 81 82  1  0
 81 91  1  0
 82 85  1  0
 83 87  1  0
 83 82  1  0
 84 83  2  0
 87 86  1  0
 89 90  1  0
 89 87  1  0
 89 88  1  0
 91 94  1  1
 91 92  1  0
 93 91  1  0
M  ISO  4   9 100  17 100  53 101  54 101
M  END
>  <TORSDO>  (9) 
F 22

>  <SCORE>  (9) 
-11.978

>  <name>  (9) 
8

>  <ligand_id>  (9) 
8

>  <original_smiles>  (9) 
[H]C([H])=C([H])c1c(N([H])C(=O)N2C([H])([H])C([H])([H])C([H])([H])C([H])(n3nc(-c4c([H])c([H])c(Oc5c([H])c([H])c(F)c([H])c5F)c([H])c4[H])c(C(=O)N([H])[H])c3N([H])[H])C2([H])[H])c(F)nc(OC([H])([H])C([H])([H])C([H])([H])C([H])([H])Oc2c([H])c([H])c3c(c2[H])C([H])([H])N(C(=O)C([H])(N([H])C(=O)C([H])(N([H])C([H])([H])[H])C([H])([H])[H])C(C([H])([H])[H])(C([H])([H])[H])C([H])([H])[H])C([H])(C(=O)N([H])C2([H])c4c([H])c([H])c([H])c([H])c4C([H])([H])C([H])([H])C2([H])[H])C3([H])[H])c1C([H])([H])[H]

>  <smiles>  (9) 
[H]C([H])=C([H])c1c(N([H])C(=O)N2C([H])([H])C([H])([H])C([H])([H])C([H])(n3nc(-c4c([H])c([H])c(Oc5c([H])c([H])c(F)c([H])c5F)c([H])c4[H])c(C(=O)N([H])[H])c3N([H])[H])C2([H])[H])c(F)nc(OC([H])([H])C([H])([H])C([H])([H])C([H])([H])Oc2c([H])c([H])c3c(c2[H])C([H])([H])N(C(=O)C([H])(N([H])C(=O)C([H])(N([H])C([H])([H])[H])C([H])([H])[H])C(C([H])([H])[H])(C([H])([H])[H])C([H])([H])[H])C([H])(C(=O)N([H])C2([H])c4c([H])c([H])c([H])c([H])c4C([H])([H])C([H])([H])C2([H])[H])C3([H])[H])c1C([H])([H])[H]

$$$$
9:0:0
     RDKit          3D

 93102  0  0  1  0  0  0  0  0999 V2000
  -28.9030  -23.9890   20.1310 C   0  0  0  0  0  0  0  0  0  0  0  0
  -28.1130  -25.0960   20.3530 C   0  0  0  0  0  2  0  0  0  0  0  0
  -30.3020  -23.9600   19.5610 C   0  0  0  0  0  3  0  0  0  0  0  0
  -28.5330  -22.5090   20.4200 C   0  0  0  0  0  3  0  0  0  0  0  0
  -30.6860  -22.4640   19.3820 C   0  0  0  0  0  3  0  0  0  0  0  0
  -29.6580  -21.6300   20.0150 N   0  0  0  0  0  0  0  0  0  0  0  0
  -28.7660  -17.9440   20.7010 C   0  0  0  0  0  3  0  0  0  0  0  0
  -30.9920  -17.9980   19.8350 C   0  0  0  0  0  3  0  0  0  0  0  0
  -29.7430  -20.1760   20.1120 C   0  0  0  0  0  0  0  0  0  0  0  0
  -29.9230  -17.2060   20.3300 C   0  0  0  0  0  0  0  0  0  0  0  0
  -28.6710  -19.3670   20.6010 C   0  0  0  0  0  0  0  0  0  0  0  0
  -30.9070  -19.4230   19.7280 C   0  0  0  0  0  0  0  0  0  0  0  0
  -27.5090  -19.9500   20.9890 F   0  0  0  0  0  0  0  0  0  0  0  0
  -31.9970  -20.0610   19.2340 F   0  0  0  0  0  0  0  0  0  0  0  0
  -30.7180  -14.7200   20.0200 C   0  0  0  0  0  0  0  0  0  0  0  0
  -30.4830  -12.4980   18.9250 C   0  0  0  0  0  2  0  0  0  0  0  0
  -29.4630  -12.6490   17.7740 C   0  0  0  0  0  2  0  0  0  0  0  0
  -28.0210  -12.4650   18.2860 C   0  0  0  0  0  2  0  0  0  0  0  0
  -27.7330  -13.2880   19.5700 C   0  0  0  0  0  3  0  0  0  0  0  0
  -28.8600  -13.1100   20.6130 C   0  0  0  0  0  2  0  0  0  0  0  0
  -30.1280  -13.4820   19.9660 N   0  0  0  0  0  0  0  0  0  0  0  0
  -31.8490  -14.9090   19.5600 O   0  0  0  0  0  0  0  0  0  0  0  0
  -29.9080  -15.7390   20.4620 N   0  0  0  0  0  0  0  0  0  0  0  0
  -29.0590  -15.3750   20.8650 H   0  0  0  0  0  0  0  0  0  0  0  0
  -25.3930  -13.8630   20.4610 C   0  0  0  0  0  0  0  0  0  0  0  0
  -24.3490  -13.0780   20.8690 C   0  0  0  0  0  0  0  0  0  0  0  0
  -24.8040  -11.7280   20.7570 C   0  0  0  0  0  0  0  0  0  0  0  0
  -26.4170  -12.9910   20.1260 N   0  0  0  0  0  0  0  0  0  0  0  0
  -26.0720  -11.6990   20.3630 N   0  0  0  0  0  0  0  0  0  0  0  0
  -24.0860  -10.4610   20.9460 C   0  0  0  0  0  0  0  0  0  0  0  0
  -24.5180   -9.4990   21.8870 C   0  0  0  0  0  3  0  0  0  0  0  0
  -23.8010   -8.2970   22.0630 C   0  0  0  0  0  3  0  0  0  0  0  0
  -22.6370   -8.0460   21.2990 C   0  0  0  0  0  0  0  0  0  0  0  0
  -22.2230   -8.9970   20.3480 C   0  0  0  0  0  3  0  0  0  0  0  0
  -22.9420  -10.1910   20.1700 C   0  0  0  0  0  3  0  0  0  0  0  0
  -21.8920   -6.8950   21.3830 O   0  0  0  0  0  0  0  0  0  0  0  0
  -21.7590   -6.2100   22.5640 C   0  0  0  0  0  0  0  0  0  0  0  0
  -21.2180   -6.8130   23.7200 C   0  0  0  0  0  3  0  0  0  0  0  0
  -21.0320   -6.0520   24.8910 C   0  0  0  0  0  3  0  0  0  0  0  0
  -21.3800   -4.6890   24.9080 C   0  0  0  0  0  0  0  0  0  0  0  0
  -21.9140   -4.0830   23.7570 C   0  0  0  0  0  3  0  0  0  0  0  0
  -22.1010   -4.8430   22.5880 C   0  0  0  0  0  0  0  0  0  0  0  0
  -22.5950   -4.2490   21.4750 F   0  0  0  0  0  0  0  0  0  0  0  0
  -21.1960   -3.9560   26.0310 F   0  0  0  0  0  0  0  0  0  0  0  0
  -22.9720  -13.5480   21.2450 C   0  0  0  0  0  0  0  0  0  0  0  0
  -22.3000  -12.8250   22.1330 N   0  0  0  0  0  0  0  0  0  0  0  0
  -22.5050  -14.5890   20.7880 O   0  0  0  0  0  0  0  0  0  0  0  0
  -22.6900  -11.9810   22.5250 H   0  0  0  0  0  0  0  0  0  0  0  0
  -21.3810  -13.1240   22.4280 H   0  0  0  0  0  0  0  0  0  0  0  0
  -25.5490  -15.2400   20.3260 N   0  0  0  0  0  0  0  0  0  0  0  0
  -24.7850  -15.8810   20.5090 H   0  0  0  0  0  0  0  0  0  0  0  0
  -26.3530  -15.6920   19.9110 H   0  0  0  0  0  0  0  0  0  0  0  0
  -28.3740  -26.4650   20.1030 O   0  0  0  0  0  0  0  0  0  0  0  0
  -24.6250  -31.8400   23.1850 C   0  0  0  0  0  0  0  0  0  0  0  0
  -27.2760  -27.3410   20.0750 C   0  0  0  0  0  0  0  0  0  0  0  0
  -23.4370  -30.4600   21.5190 C   0  0  0  0  0  3  0  0  0  0  0  0
  -24.9030  -28.9410   20.0740 C   0  0  0  0  0  0  0  0  0  0  0  0
  -25.9750  -30.7920   21.3540 C   0  0  0  0  0  2  0  0  0  0  0  0
  -26.0670  -29.4250   20.6870 C   0  0  0  0  0  0  0  0  0  0  0  0
  -27.2560  -28.6350   20.6820 C   0  0  0  0  0  3  0  0  0  0  0  0
  -26.0940  -26.9190   19.4250 C   0  0  0  0  0  3  0  0  0  0  0  0
  -24.9180  -27.6920   19.4340 C   0  0  0  0  0  3  0  0  0  0  0  0
  -23.6620  -29.8080   20.1290 C   0  0  0  0  0  2  0  0  0  0  0  0
  -24.6970  -31.0470   22.0760 N   0  0  0  0  0  0  0  0  0  0  0  0
  -23.5370  -32.1060   23.7160 O   0  0  0  0  0  0  0  0  0  0  0  0
  -22.7750  -29.4250   22.4590 C   0  0  0  0  0  0  0  0  0  0  0  0
  -21.4540  -29.2280   22.3080 N   0  0  0  0  0  0  0  0  0  0  0  0
  -23.4480  -28.8040   23.2850 O   0  0  0  0  0  0  0  0  0  0  0  0
  -20.9680  -29.7810   21.6170 H   0  0  0  0  0  0  0  0  0  0  0  0
  -18.0840  -27.9840   22.7480 C   0  0  0  0  0  0  0  0  0  0  0  0
  -20.6350  -28.2730   23.0580 C   0  0  0  0  0  3  0  0  0  0  0  0
  -20.7620  -26.8480   22.4720 C   0  0  0  0  0  2  0  0  0  0  0  0
  -19.6780  -26.5210   21.4380 C   0  0  0  0  0  2  0  0  0  0  0  0
  -18.2860  -26.6430   22.0640 C   0  0  0  0  0  2  0  0  0  0  0  0
  -19.1870  -28.7560   23.2010 C   0  0  0  0  0  0  0  0  0  0  0  0
  -18.9430  -30.0110   23.8020 C   0  0  0  0  0  3  0  0  0  0  0  0
  -17.6300  -30.4960   23.9510 C   0  0  0  0  0  3  0  0  0  0  0  0
  -16.5410  -29.7210   23.5160 C   0  0  0  0  0  3  0  0  0  0  0  0
  -16.7690  -28.4670   22.9210 C   0  0  0  0  0  3  0  0  0  0  0  0
  -25.9010  -32.4700   23.8220 C   0  0  0  0  0  3  0  0  0  0  0  0
  -25.5850  -33.8630   24.1640 N   0  0  0  0  0  0  0  0  0  0  0  0
  -25.9110  -34.9240   23.4130 C   0  0  0  0  0  0  0  0  0  0  0  0
  -26.5810  -34.8320   22.3800 O   0  0  0  0  0  0  0  0  0  0  0  0
  -24.9890  -34.0090   24.9660 H   0  0  0  0  0  0  0  0  0  0  0  0
  -24.1730  -36.7100   23.0770 C   0  0  0  0  0  1  0  0  0  0  0  0
  -25.4190  -36.3070   23.8810 C   0  0  0  0  0  3  0  0  0  0  0  0
  -27.5510  -37.1990   24.7120 C   0  0  0  0  0  1  0  0  0  0  0  0
  -26.4450  -37.3660   23.7720 N   0  0  0  0  0  0  0  0  0  0  0  0
  -26.0340  -38.2840   23.9260 H   0  0  0  0  0  0  0  0  0  0  0  0
  -26.4080  -31.6870   25.0970 C   0  0  1  0  0  0  0  0  0  0  0  0
  -25.3050  -31.4370   26.1530 C   0  0  0  0  0  1  0  0  0  0  0  0
  -26.9980  -30.3140   24.6990 C   0  0  0  0  0  1  0  0  0  0  0  0
  -27.5510  -32.4780   25.7750 C   0  0  0  0  0  1  0  0  0  0  0  0
  1  2  1  0
  1  4  2  0
  3  1  1  0
  5  3  2  0
  5  6  1  0
  6  9  1  0
  6  4  1  0
  8 10  1  0
  9 11  2  0
 10 23  1  0
 10  7  2  0
 11  7  1  0
 11 13  1  0
 12  8  2  0
 12  9  1  0
 14 12  1  0
 15 23  1  0
 16 21  1  0
 17 18  1  0
 17 16  1  0
 19 18  1  0
 19 28  1  0
 19 20  1  0
 21 15  1  0
 21 20  1  0
 22 15  2  0
 23 24  1  0
 25 26  2  0
 26 45  1  0
 27 26  1  0
 27 30  1  0
 28 29  1  0
 28 25  1  0
 29 27  2  0
 30 31  1  0
 31 32  2  0
 33 36  1  0
 33 32  1  0
 34 33  2  0
 35 34  1  0
 35 30  2  0
 36 37  1  0
 37 42  2  0
 37 38  1  0
 38 39  2  0
 39 40  1  0
 40 44  1  0
 41 40  2  0
 42 41  1  0
 43 42  1  0
 45 46  1  0
 46 49  1  0
 46 48  1  0
 47 45  2  0
 50 25  1  0
 50 51  1  0
 52 50  1  0
 53  2  1  0
 54 65  2  0
 55 53  1  0
 55 60  1  0
 56 64  1  0
 56 66  1  0
 57 63  1  0
 57 59  1  0
 58 64  1  0
 59 58  1  0
 60 59  2  0
 61 62  1  0
 61 55  2  0
 62 57  2  0
 63 56  1  0
 64 54  1  0
 66 68  2  0
 67 66  1  0
 69 67  1  0
 70 79  2  0
 70 75  1  0
 71 67  1  0
 71 75  1  0
 72 71  1  0
 73 74  1  0
 73 72  1  0
 74 70  1  0
 75 76  2  0
 76 77  1  0
 78 77  2  0
 79 78  1  0
 80 54  1  0
 80 81  1  0
 80 90  1  0
 81 84  1  0
 82 86  1  0
 82 81  1  0
 83 82  2  0
 86 85  1  0
 88 86  1  0
 88 89  1  0
 88 87  1  0
 90 93  1  1
 90 91  1  0
 92 90  1  0
M  ISO  4   2 101  15 100  23 100  53 101
M  END
>  <TORSDO>  (10) 
F 17

>  <SCORE>  (10) 
-14.687

>  <name>  (10) 
9

>  <ligand_id>  (10) 
9

>  <original_smiles>  (10) 
[H]C(Oc1c([H])c([H])c2c(c1[H])C([H])([H])N(C(=O)C([H])(N([H])C(=O)C([H])(N([H])C([H])([H])[H])C([H])([H])[H])C(C([H])([H])[H])(C([H])([H])[H])C([H])([H])[H])C([H])(C(=O)N([H])C1([H])c3c([H])c([H])c([H])c([H])c3C([H])([H])C([H])([H])C1([H])[H])C2([H])[H])=C1C([H])([H])N(c2c(F)c([H])c(N([H])C(=O)N3C([H])([H])C([H])([H])C([H])([H])C([H])(n4nc(-c5c([H])c([H])c(Oc6c([H])c([H])c(F)c([H])c6F)c([H])c5[H])c(C(=O)N([H])[H])c4N([H])[H])C3([H])[H])c([H])c2F)C([H])([H])C1([H])[H]

>  <smiles>  (10) 
[H]C(Oc1c([H])c([H])c2c(c1[H])C([H])([H])N(C(=O)C([H])(N([H])C(=O)C([H])(N([H])C([H])([H])[H])C([H])([H])[H])C(C([H])([H])[H])(C([H])([H])[H])C([H])([H])[H])C([H])(C(=O)N([H])C1([H])c3c([H])c([H])c([H])c([H])c3C([H])([H])C([H])([H])C1([H])[H])C2([H])[H])=C1C([H])([H])N(c2c(F)c([H])c(N([H])C(=O)N3C([H])([H])C([H])([H])C([H])([H])C([H])(n4nc(-c5c([H])c([H])c(Oc6c([H])c([H])c(F)c([H])c6F)c([H])c5[H])c(C(=O)N([H])[H])c4N([H])[H])C3([H])[H])c([H])c2F)C([H])([H])C1([H])[H]

$$$$
10:0:0
     RDKit          3D

 94102  0  0  1  0  0  0  0  0999 V2000
  -28.9800  -16.9050   20.4930 C   0  0  0  0  0  3  0  0  0  0  0  0
  -31.1720  -17.5450   19.6550 C   0  0  0  0  0  3  0  0  0  0  0  0
  -30.3670  -16.6470   20.4360 C   0  0  0  0  0  0  0  0  0  0  0  0
  -28.4160  -18.0350   19.8670 C   0  0  0  0  0  0  0  0  0  0  0  0
  -30.6180  -18.6830   18.9720 C   0  0  0  0  0  0  0  0  0  0  0  0
  -29.2270  -18.9300   19.1360 C   0  0  0  0  0  0  0  0  0  0  0  0
  -26.9450  -18.3460   20.0870 C   0  0  0  0  0  1  0  0  0  0  0  0
  -30.8840  -15.5930   21.3970 C   0  0  0  0  0  0  0  0  0  0  0  0
  -30.8220  -15.8280   22.6430 N   0  0  0  0  0  0  0  0  0  0  0  0
  -30.4270  -16.7440   22.8170 H   0  0  0  0  0  0  0  0  0  0  0  0
  -31.4850  -14.2620   20.8950 C   0  0  0  0  0  0  0  0  0  0  0  0
  -31.4060  -11.7830   20.7290 C   0  0  0  0  0  2  0  0  0  0  0  0
  -30.7590  -11.3320   19.4060 C   0  0  0  0  0  2  0  0  0  0  0  0
  -29.2280  -11.2470   19.5490 C   0  0  0  0  0  2  0  0  0  0  0  0
  -28.6220  -12.5110   20.2140 C   0  0  0  0  0  3  0  0  0  0  0  0
  -29.4000  -12.9130   21.4880 C   0  0  0  0  0  2  0  0  0  0  0  0
  -30.8180  -13.0850   21.1200 N   0  0  0  0  0  0  0  0  0  0  0  0
  -32.6300  -14.2850   20.4250 O   0  0  0  0  0  0  0  0  0  0  0  0
  -26.1730  -13.2720   20.3970 C   0  0  0  0  0  0  0  0  0  0  0  0
  -25.0200  -12.5880   20.6680 C   0  0  0  0  0  0  0  0  0  0  0  0
  -25.4050  -11.2320   20.8920 C   0  0  0  0  0  0  0  0  0  0  0  0
  -27.1950  -12.3380   20.4750 N   0  0  0  0  0  0  0  0  0  0  0  0
  -26.7270  -11.1120   20.8280 N   0  0  0  0  0  0  0  0  0  0  0  0
  -24.5880  -10.0310   21.1110 C   0  0  0  0  0  0  0  0  0  0  0  0
  -24.8680   -9.1320   22.1640 C   0  0  0  0  0  3  0  0  0  0  0  0
  -24.0600   -7.9930   22.3700 C   0  0  0  0  0  3  0  0  0  0  0  0
  -22.9540   -7.7470   21.5210 C   0  0  0  0  0  0  0  0  0  0  0  0
  -22.6890   -8.6360   20.4640 C   0  0  0  0  0  3  0  0  0  0  0  0
  -23.4980   -9.7650   20.2580 C   0  0  0  0  0  3  0  0  0  0  0  0
  -22.1270   -6.6540   21.6280 O   0  0  0  0  0  0  0  0  0  0  0  0
  -22.0020   -5.9580   22.8020 C   0  0  0  0  0  0  0  0  0  0  0  0
  -21.5790   -6.5820   23.9960 C   0  0  0  0  0  3  0  0  0  0  0  0
  -21.3970   -5.8170   25.1640 C   0  0  0  0  0  3  0  0  0  0  0  0
  -21.6270   -4.4280   25.1400 C   0  0  0  0  0  0  0  0  0  0  0  0
  -22.0410   -3.8030   23.9510 C   0  0  0  0  0  3  0  0  0  0  0  0
  -22.2260   -4.5660   22.7850 C   0  0  0  0  0  0  0  0  0  0  0  0
  -22.6060   -3.9550   21.6370 F   0  0  0  0  0  0  0  0  0  0  0  0
  -21.4440   -3.6910   26.2610 F   0  0  0  0  0  0  0  0  0  0  0  0
  -23.6250  -13.1430   20.6250 C   0  0  0  0  0  0  0  0  0  0  0  0
  -22.7260  -12.6120   21.4460 N   0  0  0  0  0  0  0  0  0  0  0  0
  -23.3320  -14.0880   19.8910 O   0  0  0  0  0  0  0  0  0  0  0  0
  -22.9670  -11.8520   22.0640 H   0  0  0  0  0  0  0  0  0  0  0  0
  -21.7820  -12.9680   21.4510 H   0  0  0  0  0  0  0  0  0  0  0  0
  -26.4350  -14.5990   20.0750 N   0  0  0  0  0  0  0  0  0  0  0  0
  -25.6920  -15.2770   19.9610 H   0  0  0  0  0  0  0  0  0  0  0  0
  -27.3500  -14.9800   19.8720 H   0  0  0  0  0  0  0  0  0  0  0  0
  -29.1680  -21.2360   19.3650 C   0  0  0  0  0  1  0  0  0  0  0  0
  -28.6610  -20.0930   18.6890 O   0  0  0  0  0  0  0  0  0  0  0  0
  -31.4540  -19.5770   18.2810 O   0  0  0  0  0  0  0  0  0  0  0  0
  -30.9300  -20.7750   17.6240 C   0  0  0  0  0  2  0  0  0  0  0  0
  -30.5130  -23.3120   18.1090 C   0  0  0  0  0  3  0  0  0  0  0  0
  -31.0610  -22.0980   18.4250 C   0  0  0  0  0  3  0  0  0  0  0  0
  -30.5780  -24.6010   18.9770 C   0  0  0  0  0  2  0  0  0  0  0  0
  -30.3080  -25.8830   18.3340 O   0  0  0  0  0  0  0  0  0  0  0  0
  -26.6890  -29.3340   23.5350 C   0  0  0  0  0  0  0  0  0  0  0  0
  -29.1840  -26.5990   18.7400 C   0  0  0  0  0  0  0  0  0  0  0  0
  -25.4580  -28.9000   21.4380 C   0  0  0  0  0  3  0  0  0  0  0  0
  -26.8660  -28.0940   19.4610 C   0  0  0  0  0  0  0  0  0  0  0  0
  -28.0050  -29.1620   21.4140 C   0  0  0  0  0  2  0  0  0  0  0  0
  -28.0410  -28.2280   20.2130 C   0  0  0  0  0  0  0  0  0  0  0  0
  -29.2050  -27.5000   19.8440 C   0  0  0  0  0  3  0  0  0  0  0  0
  -27.9880  -26.4920   17.9990 C   0  0  0  0  0  3  0  0  0  0  0  0
  -26.8400  -27.2310   18.3510 C   0  0  0  0  0  3  0  0  0  0  0  0
  -25.6630  -28.9040   19.8980 C   0  0  0  0  0  2  0  0  0  0  0  0
  -26.7370  -29.1160   22.1890 N   0  0  0  0  0  0  0  0  0  0  0  0
  -25.6070  -29.3960   24.1360 O   0  0  0  0  0  0  0  0  0  0  0  0
  -24.7280  -27.5930   21.8320 C   0  0  0  0  0  0  0  0  0  0  0  0
  -23.4070  -27.5460   21.5850 N   0  0  0  0  0  0  0  0  0  0  0  0
  -25.3510  -26.6470   22.3200 O   0  0  0  0  0  0  0  0  0  0  0  0
  -22.9700  -28.3680   21.1940 H   0  0  0  0  0  0  0  0  0  0  0  0
  -19.9990  -26.3710   21.2920 C   0  0  0  0  0  0  0  0  0  0  0  0
  -22.5310  -26.3990   21.8250 C   0  0  0  0  0  3  0  0  0  0  0  0
  -22.6710  -25.3410   20.7070 C   0  0  0  0  0  2  0  0  0  0  0  0
  -21.6510  -25.5140   19.5770 C   0  0  0  0  0  2  0  0  0  0  0  0
  -20.2230  -25.4270   20.1240 C   0  0  0  0  0  2  0  0  0  0  0  0
  -21.0860  -26.8390   22.0800 C   0  0  0  0  0  0  0  0  0  0  0  0
  -20.8280  -27.7450   23.1330 C   0  0  0  0  0  3  0  0  0  0  0  0
  -19.5170  -28.1770   23.4060 C   0  0  0  0  0  3  0  0  0  0  0  0
  -18.4440  -27.6950   22.6350 C   0  0  0  0  0  3  0  0  0  0  0  0
  -18.6870  -26.7920   21.5840 C   0  0  0  0  0  3  0  0  0  0  0  0
  -27.9840  -29.5380   24.3780 C   0  0  0  0  0  3  0  0  0  0  0  0
  -27.7120  -30.5930   25.3620 N   0  0  0  0  0  0  0  0  0  0  0  0
  -28.1650  -31.8520   25.2780 C   0  0  0  0  0  0  0  0  0  0  0  0
  -28.9250  -32.2290   24.3830 O   0  0  0  0  0  0  0  0  0  0  0  0
  -27.0470  -30.3720   26.0890 H   0  0  0  0  0  0  0  0  0  0  0  0
  -26.6000  -33.7550   25.7910 C   0  0  0  0  0  1  0  0  0  0  0  0
  -27.7020  -32.8490   26.3620 C   0  0  0  0  0  3  0  0  0  0  0  0
  -29.7530  -32.9190   27.7080 C   0  0  0  0  0  1  0  0  0  0  0  0
  -28.7970  -33.6790   26.9060 N   0  0  0  0  0  0  0  0  0  0  0  0
  -28.4280  -34.4300   27.4840 H   0  0  0  0  0  0  0  0  0  0  0  0
  -28.4730  -28.2220   25.1000 C   0  0  1  0  0  0  0  0  0  0  0  0
  -27.3710  -27.5150   25.9260 C   0  0  0  0  0  1  0  0  0  0  0  0
  -29.0150  -27.2100   24.0650 C   0  0  0  0  0  1  0  0  0  0  0  0
  -29.6480  -28.5540   26.0530 C   0  0  0  0  0  1  0  0  0  0  0  0
  2  3  2  0
  3  1  1  0
  3  8  1  0
  4  7  1  0
  4  1  2  0
  5  6  2  0
  5  2  1  0
  6  4  1  0
  8  9  2  0
  9 10  1  0
 11 17  1  0
 11  8  1  0
 12 17  1  0
 13 14  1  0
 13 12  1  0
 15 14  1  0
 15 22  1  0
 15 16  1  0
 17 16  1  0
 18 11  2  0
 19 22  1  0
 19 20  2  0
 20 21  1  0
 21 24  1  0
 22 23  1  0
 23 21  2  0
 24 25  1  0
 25 26  2  0
 27 30  1  0
 27 26  1  0
 28 27  2  0
 29 28  1  0
 29 24  2  0
 30 31  1  0
 31 32  1  0
 32 33  2  0
 34 33  1  0
 34 38  1  0
 35 34  2  0
 36 31  2  0
 36 35  1  0
 37 36  1  0
 39 20  1  0
 39 40  1  0
 40 43  1  0
 40 42  1  0
 41 39  2  0
 44 19  1  0
 45 44  1  0
 46 44  1  0
 48  6  1  0
 48 47  1  0
 49  5  1  0
 50 49  1  0
 50 52  1  0
 51 52  2  0
 51 53  1  0
 54 56  1  0
 54 53  1  0
 55 66  2  0
 56 61  1  0
 57 67  1  0
 57 65  1  0
 58 64  1  0
 58 60  1  0
 59 65  1  0
 60 59  1  0
 61 60  2  0
 62 63  1  0
 62 56  2  0
 63 58  2  0
 64 57  1  0
 65 55  1  0
 67 69  2  0
 68 67  1  0
 70 68  1  0
 71 80  2  0
 71 76  1  0
 72 68  1  0
 72 76  1  0
 73 72  1  0
 74 75  1  0
 74 73  1  0
 75 71  1  0
 76 77  2  0
 77 78  1  0
 79 78  2  0
 80 79  1  0
 81 55  1  0
 81 91  1  0
 81 82  1  0
 82 85  1  0
 83 82  1  0
 83 87  1  0
 84 83  2  0
 87 86  1  0
 87 89  1  0
 89 90  1  0
 89 88  1  0
 91 92  1  1
 91 94  1  0
 93 91  1  0
M  ISO  4   8 100  11 100  53 101  54 101
M  END
>  <TORSDO>  (11) 
F 22

>  <SCORE>  (11) 
-9.051

>  <name>  (11) 
10

>  <ligand_id>  (11) 
10

>  <original_smiles>  (11) 
[H]N=C(C(=O)N1C([H])([H])C([H])([H])C([H])([H])C([H])(n2nc(-c3c([H])c([H])c(Oc4c([H])c([H])c(F)c([H])c4F)c([H])c3[H])c(C(=O)N([H])[H])c2N([H])[H])C1([H])[H])c1c([H])c(OC([H])([H])C([H])=C([H])C([H])([H])Oc2c([H])c([H])c3c(c2[H])C([H])([H])N(C(=O)C([H])(N([H])C(=O)C([H])(N([H])C([H])([H])[H])C([H])([H])[H])C(C([H])([H])[H])(C([H])([H])[H])C([H])([H])[H])C([H])(C(=O)N([H])C2([H])c4c([H])c([H])c([H])c([H])c4C([H])([H])C([H])([H])C2([H])[H])C3([H])[H])c(OC([H])([H])[H])c(C([H])([H])[H])c1[H]

>  <smiles>  (11) 
[H]N=C(C(=O)N1C([H])([H])C([H])([H])C([H])([H])C([H])(n2nc(-c3c([H])c([H])c(Oc4c([H])c([H])c(F)c([H])c4F)c([H])c3[H])c(C(=O)N([H])[H])c2N([H])[H])C1([H])[H])c1c([H])c(OC([H])([H])C([H])=C([H])C([H])([H])Oc2c([H])c([H])c3c(c2[H])C([H])([H])N(C(=O)C([H])(N([H])C(=O)C([H])(N([H])C([H])([H])[H])C([H])([H])[H])C(C([H])([H])[H])(C([H])([H])[H])C([H])([H])[H])C([H])(C(=O)N([H])C2([H])c4c([H])c([H])c([H])c([H])c4C([H])([H])C([H])([H])C2([H])[H])C3([H])[H])c(OC([H])([H])[H])c(C([H])([H])[H])c1[H]

$$$$
11:0:0
     RDKit          3D

 97106  0  0  1  0  0  0  0  0999 V2000
  -30.7310  -20.0760   18.3540 C   0  0  0  0  0  3  0  0  0  0  0  0
  -29.6950  -18.7570   20.0800 C   0  0  0  0  0  3  0  0  0  0  0  0
  -31.0230  -17.6210   18.3840 C   0  0  0  0  0  0  0  0  0  0  0  0
  -31.3590  -18.9050   17.8690 C   0  0  0  0  0  0  0  0  0  0  0  0
  -29.8610  -20.0700   19.4550 C   0  0  0  0  0  0  0  0  0  0  0  0
  -30.2720  -17.4770   19.6000 C   0  0  0  0  0  0  0  0  0  0  0  0
  -31.4720  -16.4300   17.5450 C   0  0  0  0  0  1  0  0  0  0  0  0
  -30.7920  -14.8940   20.1170 C   0  0  0  0  0  0  0  0  0  0  0  0
  -30.5340  -12.6520   19.0060 C   0  0  0  0  0  2  0  0  0  0  0  0
  -29.5150  -12.7060   17.8400 C   0  0  0  0  0  2  0  0  0  0  0  0
  -28.0720  -12.5190   18.3400 C   0  0  0  0  0  2  0  0  0  0  0  0
  -27.7720  -13.3650   19.6020 C   0  0  0  0  0  3  0  0  0  0  0  0
  -28.8860  -13.1950   20.6450 C   0  0  0  0  0  2  0  0  0  0  0  0
  -30.1290  -13.6730   20.0060 N   0  0  0  0  0  0  0  0  0  0  0  0
  -31.9950  -14.9050   19.8420 O   0  0  0  0  0  0  0  0  0  0  0  0
  -29.2320  -16.1600   21.4860 C   0  0  0  0  0  1  0  0  0  0  0  0
  -30.0810  -16.1190   20.2870 N   0  0  0  0  0  0  0  0  0  0  0  0
  -25.4300  -13.9560   20.4570 C   0  0  0  0  0  0  0  0  0  0  0  0
  -24.3770  -13.1790   20.8480 C   0  0  0  0  0  0  0  0  0  0  0  0
  -24.8320  -11.8270   20.7700 C   0  0  0  0  0  0  0  0  0  0  0  0
  -26.4550  -13.0760   20.1530 N   0  0  0  0  0  0  0  0  0  0  0  0
  -26.1090  -11.7900   20.4120 N   0  0  0  0  0  0  0  0  0  0  0  0
  -24.1100  -10.5640   20.9600 C   0  0  0  0  0  0  0  0  0  0  0  0
  -24.5370   -9.6030   21.9020 C   0  0  0  0  0  3  0  0  0  0  0  0
  -23.8120   -8.4070   22.0840 C   0  0  0  0  0  3  0  0  0  0  0  0
  -22.6450   -8.1640   21.3210 C   0  0  0  0  0  0  0  0  0  0  0  0
  -22.2410   -9.1100   20.3640 C   0  0  0  0  0  3  0  0  0  0  0  0
  -22.9670  -10.2990   20.1820 C   0  0  0  0  0  3  0  0  0  0  0  0
  -21.8910   -7.0190   21.4070 O   0  0  0  0  0  0  0  0  0  0  0  0
  -21.7800   -6.3200   22.5810 C   0  0  0  0  0  0  0  0  0  0  0  0
  -21.2120   -6.8930   23.7390 C   0  0  0  0  0  3  0  0  0  0  0  0
  -21.0530   -6.1170   24.9040 C   0  0  0  0  0  3  0  0  0  0  0  0
  -21.4510   -4.7660   24.9100 C   0  0  0  0  0  0  0  0  0  0  0  0
  -22.0080   -4.1910   23.7540 C   0  0  0  0  0  3  0  0  0  0  0  0
  -22.1680   -4.9650   22.5920 C   0  0  0  0  0  0  0  0  0  0  0  0
  -22.6870   -4.4010   21.4750 F   0  0  0  0  0  0  0  0  0  0  0  0
  -21.2880   -4.0150   26.0250 F   0  0  0  0  0  0  0  0  0  0  0  0
  -22.9920  -13.6530   21.1840 C   0  0  0  0  0  0  0  0  0  0  0  0
  -22.3030  -12.9390   22.0620 N   0  0  0  0  0  0  0  0  0  0  0  0
  -22.5370  -14.6920   20.7040 O   0  0  0  0  0  0  0  0  0  0  0  0
  -22.6930  -12.0970   22.4630 H   0  0  0  0  0  0  0  0  0  0  0  0
  -21.3730  -13.2280   22.3330 H   0  0  0  0  0  0  0  0  0  0  0  0
  -25.5950  -15.3300   20.3040 N   0  0  0  0  0  0  0  0  0  0  0  0
  -24.8490  -15.9920   20.4870 H   0  0  0  0  0  0  0  0  0  0  0  0
  -26.4600  -15.7710   20.0170 H   0  0  0  0  0  0  0  0  0  0  0  0
  -28.6410  -23.8110   19.9920 C   0  0  0  0  0  0  0  0  0  0  0  0
  -28.2870  -25.1010   19.5780 C   0  0  0  0  0  3  0  0  0  0  0  0
  -29.1140  -23.3570   21.3640 C   0  0  0  0  0  2  0  0  0  0  0  0
  -29.4030  -21.8080   21.2990 C   0  0  0  0  0  2  0  0  0  0  0  0
  -28.6060  -22.4640   19.1770 C   0  0  0  0  0  3  0  0  0  0  0  0
  -28.8550  -22.6000   17.6650 C   0  0  0  0  0  1  0  0  0  0  0  0
  -29.3490  -21.3720   19.9050 N   0  0  0  0  0  0  0  0  0  0  0  0
  -28.2870  -26.3630   20.2600 O   0  0  0  0  0  0  0  0  0  0  0  0
  -24.5530  -31.9000   23.2100 C   0  0  0  0  0  0  0  0  0  0  0  0
  -27.1970  -27.2720   20.1790 C   0  0  0  0  0  0  0  0  0  0  0  0
  -23.3680  -30.4880   21.5720 C   0  0  0  0  0  3  0  0  0  0  0  0
  -24.8330  -28.9280   20.1640 C   0  0  0  0  0  0  0  0  0  0  0  0
  -25.9180  -30.7870   21.4190 C   0  0  0  0  0  2  0  0  0  0  0  0
  -26.0020  -29.4050   20.7680 C   0  0  0  0  0  0  0  0  0  0  0  0
  -27.1830  -28.5890   20.7700 C   0  0  0  0  0  3  0  0  0  0  0  0
  -25.9940  -26.8700   19.5520 C   0  0  0  0  0  3  0  0  0  0  0  0
  -24.8350  -27.6680   19.5470 C   0  0  0  0  0  3  0  0  0  0  0  0
  -23.5990  -29.8070   20.1990 C   0  0  0  0  0  2  0  0  0  0  0  0
  -24.6310  -31.0790   22.1220 N   0  0  0  0  0  0  0  0  0  0  0  0
  -23.4640  -32.1830   23.7310 O   0  0  0  0  0  0  0  0  0  0  0  0
  -22.6960  -29.4790   22.5340 C   0  0  0  0  0  0  0  0  0  0  0  0
  -21.3710  -29.2980   22.3980 N   0  0  0  0  0  0  0  0  0  0  0  0
  -23.3660  -28.8600   23.3640 O   0  0  0  0  0  0  0  0  0  0  0  0
  -20.8880  -29.8510   21.7050 H   0  0  0  0  0  0  0  0  0  0  0  0
  -17.9860  -28.1110   22.8960 C   0  0  0  0  0  0  0  0  0  0  0  0
  -20.5460  -28.3640   23.1660 C   0  0  0  0  0  3  0  0  0  0  0  0
  -20.6420  -26.9300   22.5940 C   0  0  0  0  0  2  0  0  0  0  0  0
  -19.5390  -26.6110   21.5780 C   0  0  0  0  0  2  0  0  0  0  0  0
  -18.1570  -26.7600   22.2190 C   0  0  0  0  0  2  0  0  0  0  0  0
  -19.1060  -28.8700   23.3240 C   0  0  0  0  0  0  0  0  0  0  0  0
  -18.8910  -30.1350   23.9140 C   0  0  0  0  0  3  0  0  0  0  0  0
  -17.5860  -30.6390   24.0810 C   0  0  0  0  0  3  0  0  0  0  0  0
  -16.4810  -29.8790   23.6660 C   0  0  0  0  0  3  0  0  0  0  0  0
  -16.6810  -28.6160   23.0790 C   0  0  0  0  0  3  0  0  0  0  0  0
  -25.8290  -32.5400   23.8400 C   0  0  0  0  0  3  0  0  0  0  0  0
  -26.3420  -31.7670   25.1160 C   0  0  1  0  0  0  0  0  0  0  0  0
  -25.2420  -31.5080   26.1730 C   0  0  0  0  0  1  0  0  0  0  0  0
  -26.9490  -30.4010   24.7260 C   0  0  0  0  0  1  0  0  0  0  0  0
  -27.4760  -32.5720   25.7950 C   0  0  0  0  0  1  0  0  0  0  0  0
  -25.5080  -33.9340   24.1800 N   0  0  0  0  0  0  0  0  0  0  0  0
  -25.8160  -34.9940   23.4220 C   0  0  0  0  0  0  0  0  0  0  0  0
  -26.4740  -34.9030   22.3820 O   0  0  0  0  0  0  0  0  0  0  0  0
  -24.9220  -34.0790   24.9880 H   0  0  0  0  0  0  0  0  0  0  0  0
  -24.0710  -36.7750   23.0870 C   0  0  0  0  0  1  0  0  0  0  0  0
  -25.3190  -36.3750   23.8910 C   0  0  0  0  0  3  0  0  0  0  0  0
  -27.4420  -37.2810   24.7290 C   0  0  0  0  0  1  0  0  0  0  0  0
  -26.3400  -37.4420   23.7840 N   0  0  0  0  0  0  0  0  0  0  0  0
  -25.9230  -38.3570   23.9420 H   0  0  0  0  0  0  0  0  0  0  0  0
  -33.4220  -19.6560   17.3130 C   0  0  0  0  0  3  0  0  0  0  0  0
  -32.3840  -19.0320   16.9130 N   0  0  0  0  0  0  0  0  0  0  0  0
  -35.6690  -20.5770   17.0380 C   0  0  0  0  0  2  0  0  0  0  0  0
  -34.6570  -19.8460   16.5370 C   0  0  0  0  0  3  0  0  0  0  0  0
  1  5  1  0
  3  6  2  0
  4  1  2  0
  4  3  1  0
  5 52  1  0
  5  2  2  0
  6  2  1  0
  6 17  1  0
  7  3  1  0
  8 17  1  0
  9 14  1  0
 10 11  1  0
 10  9  1  0
 12 11  1  0
 12 21  1  0
 12 13  1  0
 14  8  1  0
 14 13  1  0
 15  8  2  0
 17 16  1  0
 18 19  2  0
 19 38  1  0
 20 19  1  0
 20 23  1  0
 21 22  1  0
 21 18  1  0
 22 20  2  0
 23 24  1  0
 24 25  2  0
 26 29  1  0
 26 25  1  0
 27 26  2  0
 28 27  1  0
 28 23  2  0
 29 30  1  0
 30 35  2  0
 30 31  1  0
 31 32  2  0
 32 33  1  0
 33 37  1  0
 34 33  2  0
 35 34  1  0
 36 35  1  0
 38 39  1  0
 39 42  1  0
 39 41  1  0
 40 38  2  0
 43 18  1  0
 43 44  1  0
 45 43  1  0
 46 48  1  0
 47 46  2  0
 47 53  1  0
 49 48  1  0
 50 51  1  0
 50 52  1  0
 50 46  1  0
 52 49  1  0
 54 65  2  0
 55 53  1  0
 55 60  1  0
 56 64  1  0
 56 66  1  0
 57 63  1  0
 57 59  1  0
 58 64  1  0
 59 60  2  0
 59 58  1  0
 61 55  2  0
 62 61  1  0
 62 57  2  0
 63 56  1  0
 64 54  1  0
 66 68  2  0
 67 66  1  0
 69 67  1  0
 70 79  2  0
 70 75  1  0
 71 67  1  0
 71 75  1  0
 72 71  1  0
 73 74  1  0
 73 72  1  0
 74 70  1  0
 75 76  2  0
 76 77  1  0
 78 77  2  0
 79 78  1  0
 80 54  1  0
 80 85  1  0
 80 81  1  0
 81 84  1  1
 81 82  1  0
 83 81  1  0
 85 88  1  0
 86 90  1  0
 86 85  1  0
 87 86  2  0
 90 89  1  0
 92 90  1  0
 92 93  1  0
 92 91  1  0
 95 94  2  0
 95  4  1  0
 97 96  2  0
 97 94  1  0
M  ISO  4   8 100  17 100  47 101  53 101
M  END
>  <TORSDO>  (12) 
F 19

>  <SCORE>  (12) 
-14.046

>  <name>  (12) 
11

>  <ligand_id>  (12) 
11

>  <original_smiles>  (12) 
[H]C(=Nc1c([H])c(N2C([H])([H])C([H])([H])C(=C([H])Oc3c([H])c([H])c4c(c3[H])C([H])([H])N(C(=O)C([H])(N([H])C(=O)C([H])(N([H])C([H])([H])[H])C([H])([H])[H])C(C([H])([H])[H])(C([H])([H])[H])C([H])([H])[H])C([H])(C(=O)N([H])C3([H])c5c([H])c([H])c([H])c([H])c5C([H])([H])C([H])([H])C3([H])[H])C4([H])[H])C2([H])C([H])([H])[H])c([H])c(N(C(=O)N2C([H])([H])C([H])([H])C([H])([H])C([H])(n3nc(-c4c([H])c([H])c(Oc5c([H])c([H])c(F)c([H])c5F)c([H])c4[H])c(C(=O)N([H])[H])c3N([H])[H])C2([H])[H])C([H])([H])[H])c1C([H])([H])[H])C([H])=C([H])[H]

>  <smiles>  (12) 
[H]C(=Nc1c([H])c(N2C([H])([H])C([H])([H])C(=C([H])Oc3c([H])c([H])c4c(c3[H])C([H])([H])N(C(=O)C([H])(N([H])C(=O)C([H])(N([H])C([H])([H])[H])C([H])([H])[H])C(C([H])([H])[H])(C([H])([H])[H])C([H])([H])[H])C([H])(C(=O)N([H])C3([H])c5c([H])c([H])c([H])c([H])c5C([H])([H])C([H])([H])C3([H])[H])C4([H])[H])C2([H])C([H])([H])[H])c([H])c(N(C(=O)N2C([H])([H])C([H])([H])C([H])([H])C([H])(n3nc(-c4c([H])c([H])c(Oc5c([H])c([H])c(F)c([H])c5F)c([H])c4[H])c(C(=O)N([H])[H])c3N([H])[H])C2([H])[H])C([H])([H])[H])c1C([H])([H])[H])C([H])=C([H])[H]

$$$$
12:0:0
     RDKit          3D

 88 96  0  0  1  0  0  0  0  0999 V2000
  -30.4430  -15.1410   20.3790 C   0  0  0  0  0  0  0  0  0  0  0  0
  -30.4160  -12.7340   19.4940 C   0  0  0  0  0  2  0  0  0  0  0  0
  -29.5100  -12.6020   18.2450 C   0  0  0  0  0  2  0  0  0  0  0  0
  -28.0450  -12.3590   18.6530 C   0  0  0  0  0  2  0  0  0  0  0  0
  -27.5910  -13.3090   19.7910 C   0  0  0  0  0  3  0  0  0  0  0  0
  -28.6210  -13.3930   20.9380 C   0  0  0  0  0  2  0  0  0  0  0  0
  -29.8850  -13.8480   20.3420 N   0  0  0  0  0  0  0  0  0  0  0  0
  -31.6570  -15.1920   20.1380 O   0  0  0  0  0  0  0  0  0  0  0  0
  -28.6230  -18.9100   20.4580 C   0  0  0  0  0  3  0  0  0  0  0  0
  -29.7130  -17.8880   20.3920 C   0  0  0  0  0  0  0  0  0  0  0  0
  -29.0990  -20.2530   20.3180 C   0  0  0  0  0  0  0  0  0  0  0  0
  -31.5300  -20.9630   19.9760 C   0  0  0  0  0  1  0  0  0  0  0  0
  -30.8180  -18.6360   20.2220 N   0  0  0  0  0  0  0  0  0  0  0  0
  -30.4700  -19.9970   20.1780 N   0  0  0  0  0  0  0  0  0  0  0  0
  -29.6110  -16.3220   20.4940 N   0  0  0  0  0  0  0  0  0  0  0  0
  -28.6610  -16.0340   20.6590 H   0  0  0  0  0  0  0  0  0  0  0  0
  -25.1960  -13.8710   20.4800 C   0  0  0  0  0  0  0  0  0  0  0  0
  -24.1310  -13.0910   20.8360 C   0  0  0  0  0  0  0  0  0  0  0  0
  -24.6070  -11.7430   20.8300 C   0  0  0  0  0  0  0  0  0  0  0  0
  -26.2490  -12.9990   20.2690 N   0  0  0  0  0  0  0  0  0  0  0  0
  -25.9050  -11.7140   20.5470 N   0  0  0  0  0  0  0  0  0  0  0  0
  -23.8850  -10.4770   21.0150 C   0  0  0  0  0  0  0  0  0  0  0  0
  -24.2990   -9.5230   21.9700 C   0  0  0  0  0  3  0  0  0  0  0  0
  -23.5750   -8.3230   22.1450 C   0  0  0  0  0  3  0  0  0  0  0  0
  -22.4220   -8.0700   21.3640 C   0  0  0  0  0  0  0  0  0  0  0  0
  -22.0270   -9.0140   20.3990 C   0  0  0  0  0  3  0  0  0  0  0  0
  -22.7520  -10.2030   20.2220 C   0  0  0  0  0  3  0  0  0  0  0  0
  -21.6710   -6.9220   21.4460 O   0  0  0  0  0  0  0  0  0  0  0  0
  -21.5900   -6.1980   22.6090 C   0  0  0  0  0  0  0  0  0  0  0  0
  -21.1170   -6.7690   23.8100 C   0  0  0  0  0  3  0  0  0  0  0  0
  -20.9830   -5.9700   24.9630 C   0  0  0  0  0  3  0  0  0  0  0  0
  -21.3120   -4.6030   24.9170 C   0  0  0  0  0  0  0  0  0  0  0  0
  -21.7780   -4.0320   23.7200 C   0  0  0  0  0  3  0  0  0  0  0  0
  -21.9130   -4.8260   22.5680 C   0  0  0  0  0  0  0  0  0  0  0  0
  -22.3430   -4.2660   21.4110 F   0  0  0  0  0  0  0  0  0  0  0  0
  -21.1760   -3.8340   26.0220 F   0  0  0  0  0  0  0  0  0  0  0  0
  -22.7240  -13.5600   21.0670 C   0  0  0  0  0  0  0  0  0  0  0  0
  -21.9830  -12.8750   21.9300 N   0  0  0  0  0  0  0  0  0  0  0  0
  -22.2900  -14.5720   20.5180 O   0  0  0  0  0  0  0  0  0  0  0  0
  -22.3440  -12.0560   22.3960 H   0  0  0  0  0  0  0  0  0  0  0  0
  -21.0380  -13.1740   22.1270 H   0  0  0  0  0  0  0  0  0  0  0  0
  -25.3500  -15.2410   20.2870 N   0  0  0  0  0  0  0  0  0  0  0  0
  -24.5670  -15.8820   20.3620 H   0  0  0  0  0  0  0  0  0  0  0  0
  -26.1750  -15.6740   19.8950 H   0  0  0  0  0  0  0  0  0  0  0  0
  -28.3990  -21.5480   20.2760 O   0  0  0  0  0  0  0  0  0  0  0  0
  -28.9030  -23.0520   20.2770 C   0  0  0  0  0  3  0  0  0  0  0  0
  -27.9080  -24.4820   20.1370 C   0  0  0  0  0  3  0  0  0  0  0  0
  -28.2000  -26.0540   20.2340 O   0  0  0  0  0  0  0  0  0  0  0  0
  -24.6400  -31.8800   23.2340 C   0  0  0  0  0  0  0  0  0  0  0  0
  -27.1680  -27.0940   20.1810 C   0  0  0  0  0  0  0  0  0  0  0  0
  -23.4270  -30.4950   21.5970 C   0  0  0  0  0  3  0  0  0  0  0  0
  -24.8590  -28.9080   20.1590 C   0  0  0  0  0  0  0  0  0  0  0  0
  -25.9860  -30.7280   21.4250 C   0  0  0  0  0  2  0  0  0  0  0  0
  -26.0480  -29.3310   20.7660 C   0  0  0  0  0  0  0  0  0  0  0  0
  -27.2020  -28.4430   20.7530 C   0  0  0  0  0  3  0  0  0  0  0  0
  -25.9480  -26.7950   19.5340 C   0  0  0  0  0  3  0  0  0  0  0  0
  -24.8270  -27.6580   19.5240 C   0  0  0  0  0  3  0  0  0  0  0  0
  -23.6390  -29.8190   20.2160 C   0  0  0  0  0  2  0  0  0  0  0  0
  -24.7050  -31.0590   22.1390 N   0  0  0  0  0  0  0  0  0  0  0  0
  -23.5570  -32.1700   23.7660 O   0  0  0  0  0  0  0  0  0  0  0  0
  -22.7420  -29.4930   22.5630 C   0  0  0  0  0  0  0  0  0  0  0  0
  -21.4130  -29.3290   22.4430 N   0  0  0  0  0  0  0  0  0  0  0  0
  -23.4140  -28.8650   23.3860 O   0  0  0  0  0  0  0  0  0  0  0  0
  -20.9270  -29.8840   21.7520 H   0  0  0  0  0  0  0  0  0  0  0  0
  -18.0310  -28.1280   22.9540 C   0  0  0  0  0  0  0  0  0  0  0  0
  -20.5900  -28.3940   23.2160 C   0  0  0  0  0  3  0  0  0  0  0  0
  -20.6920  -26.9600   22.6420 C   0  0  0  0  0  2  0  0  0  0  0  0
  -19.5890  -26.6380   21.6300 C   0  0  0  0  0  2  0  0  0  0  0  0
  -18.2070  -26.7800   22.2750 C   0  0  0  0  0  2  0  0  0  0  0  0
  -19.1490  -28.8930   23.3810 C   0  0  0  0  0  0  0  0  0  0  0  0
  -18.9290  -30.1530   23.9770 C   0  0  0  0  0  3  0  0  0  0  0  0
  -17.6230  -30.6510   24.1490 C   0  0  0  0  0  3  0  0  0  0  0  0
  -16.5190  -29.8840   23.7360 C   0  0  0  0  0  3  0  0  0  0  0  0
  -16.7240  -28.6250   23.1440 C   0  0  0  0  0  3  0  0  0  0  0  0
  -25.9220  -32.5110   23.8570 C   0  0  0  0  0  3  0  0  0  0  0  0
  -25.6150  -33.9100   24.1990 N   0  0  0  0  0  0  0  0  0  0  0  0
  -25.9290  -34.9700   23.4430 C   0  0  0  0  0  0  0  0  0  0  0  0
  -26.5710  -34.8740   22.3950 O   0  0  0  0  0  0  0  0  0  0  0  0
  -25.0400  -34.0570   25.0150 H   0  0  0  0  0  0  0  0  0  0  0  0
  -24.1830  -36.7630   23.1650 C   0  0  0  0  0  1  0  0  0  0  0  0
  -25.4570  -36.3580   23.9240 C   0  0  0  0  0  3  0  0  0  0  0  0
  -27.6190  -37.2500   24.6730 C   0  0  0  0  0  1  0  0  0  0  0  0
  -26.4810  -37.4140   23.7730 N   0  0  0  0  0  0  0  0  0  0  0  0
  -26.0770  -38.3330   23.9360 H   0  0  0  0  0  0  0  0  0  0  0  0
  -26.4350  -31.7350   25.1330 C   0  0  1  0  0  0  0  0  0  0  0  0
  -25.3420  -31.5060   26.2040 C   0  0  0  0  0  1  0  0  0  0  0  0
  -27.0070  -30.3520   24.7460 C   0  0  0  0  0  1  0  0  0  0  0  0
  -27.5930  -32.5210   25.7930 C   0  0  0  0  0  1  0  0  0  0  0  0
  1 15  1  0
  2  7  1  0
  3  4  1  0
  3  2  1  0
  5  4  1  0
  5 20  1  0
  5  6  1  0
  7  1  1  0
  7  6  1  0
  8  1  2  0
 10  9  1  0
 10 15  1  0
 11  9  2  0
 12 14  1  0
 13 10  2  0
 14 13  1  0
 14 11  1  0
 15 16  1  0
 17 18  2  0
 18 37  1  0
 19 18  1  0
 19 22  1  0
 20 17  1  0
 20 21  1  0
 21 19  2  0
 22 23  1  0
 23 24  2  0
 25 28  1  0
 25 24  1  0
 26 25  2  0
 27 26  1  0
 27 22  2  0
 28 29  1  0
 29 30  1  0
 30 31  2  0
 32 31  1  0
 32 36  1  0
 33 32  2  0
 34 29  2  0
 34 33  1  0
 35 34  1  0
 37 38  1  0
 38 41  1  0
 38 40  1  0
 39 37  2  0
 42 43  1  0
 42 17  1  0
 44 42  1  0
 45 46  1  0
 45 11  1  0
 47 48  1  0
 47 46  2  0
 49 60  2  0
 50 48  1  0
 50 55  1  0
 51 59  1  0
 51 61  1  0
 52 58  1  0
 52 54  1  0
 53 59  1  0
 54 53  1  0
 55 54  2  0
 56 50  2  0
 57 56  1  0
 57 52  2  0
 58 51  1  0
 59 49  1  0
 61 63  2  0
 62 61  1  0
 64 62  1  0
 65 74  2  0
 65 70  1  0
 66 62  1  0
 66 70  1  0
 67 66  1  0
 68 69  1  0
 68 67  1  0
 69 65  1  0
 70 71  2  0
 71 72  1  0
 73 72  2  0
 74 73  1  0
 75 49  1  0
 75 76  1  0
 75 85  1  0
 76 79  1  0
 77 81  1  0
 77 76  1  0
 78 77  2  0
 81 80  1  0
 83 81  1  0
 83 84  1  0
 83 82  1  0
 85 88  1  1
 85 86  1  0
 87 85  1  0
M  ISO  4   1 100  15 100  47 101  48 101
M  END
>  <TORSDO>  (13) 
F 18

>  <SCORE>  (13) 
-15.376

>  <name>  (13) 
12

>  <ligand_id>  (13) 
12

>  <original_smiles>  (13) 
[H]c1c([H])c([H])c2c(c1[H])C([H])([H])C([H])([H])C([H])([H])C2([H])N([H])C(=O)C1([H])N(C(=O)C([H])(N([H])C(=O)C([H])(N([H])C([H])([H])[H])C([H])([H])[H])C(C([H])([H])[H])(C([H])([H])[H])C([H])([H])[H])C([H])([H])c2c([H])c(OC([H])([H])C([H])([H])Oc3c([H])c(N([H])C(=O)N4C([H])([H])C([H])([H])C([H])([H])C([H])(n5nc(-c6c([H])c([H])c(Oc7c([H])c([H])c(F)c([H])c7F)c([H])c6[H])c(C(=O)N([H])[H])c5N([H])[H])C4([H])[H])nn3C([H])([H])[H])c([H])c([H])c2C1([H])[H]

>  <smiles>  (13) 
[H]c1c([H])c([H])c2c(c1[H])C([H])([H])C([H])([H])C([H])([H])C2([H])N([H])C(=O)C1([H])N(C(=O)C([H])(N([H])C(=O)C([H])(N([H])C([H])([H])[H])C([H])([H])[H])C(C([H])([H])[H])(C([H])([H])[H])C([H])([H])[H])C([H])([H])c2c([H])c(OC([H])([H])C([H])([H])Oc3c([H])c(N([H])C(=O)N4C([H])([H])C([H])([H])C([H])([H])C([H])(n5nc(-c6c([H])c([H])c(Oc7c([H])c([H])c(F)c([H])c7F)c([H])c6[H])c(C(=O)N([H])[H])c5N([H])[H])C4([H])[H])nn3C([H])([H])[H])c([H])c([H])c2C1([H])[H]

$$$$
13:0:0
     RDKit          3D

 95103  0  0  1  0  0  0  0  0999 V2000
  -29.0380  -19.4370   20.7290 C   0  0  0  0  0  3  0  0  0  0  0  0
  -29.1220  -18.0150   20.6790 C   0  0  0  0  0  0  0  0  0  0  0  0
  -31.3420  -18.1720   19.7210 C   0  0  0  0  0  0  0  0  0  0  0  0
  -30.1060  -20.2730   20.3500 C   0  0  0  0  0  0  0  0  0  0  0  0
  -30.2630  -17.3110   20.1670 C   0  0  0  0  0  0  0  0  0  0  0  0
  -31.2700  -19.6040   19.8880 C   0  0  0  0  0  0  0  0  0  0  0  0
  -27.9060  -17.2680   21.2080 C   0  0  0  0  0  1  0  0  0  0  0  0
  -30.8690  -14.7120   19.8210 C   0  0  0  0  0  0  0  0  0  0  0  0
  -30.5090  -12.5010   18.7310 C   0  0  0  0  0  2  0  0  0  0  0  0
  -29.4760  -12.6540   17.5950 C   0  0  0  0  0  2  0  0  0  0  0  0
  -28.0450  -12.4780   18.1360 C   0  0  0  0  0  2  0  0  0  0  0  0
  -27.7810  -13.3230   19.4100 C   0  0  0  0  0  3  0  0  0  0  0  0
  -28.9290  -13.1800   20.4370 C   0  0  0  0  0  2  0  0  0  0  0  0
  -30.1890  -13.5190   19.7520 N   0  0  0  0  0  0  0  0  0  0  0  0
  -32.0470  -14.7570   19.4770 O   0  0  0  0  0  0  0  0  0  0  0  0
  -30.1130  -15.8300   20.1020 N   0  0  0  0  0  0  0  0  0  0  0  0
  -29.1960  -15.5360   20.4000 H   0  0  0  0  0  0  0  0  0  0  0  0
  -25.4550  -13.8930   20.3340 C   0  0  0  0  0  0  0  0  0  0  0  0
  -24.4200  -13.1120   20.7680 C   0  0  0  0  0  0  0  0  0  0  0  0
  -24.8690  -11.7620   20.6490 C   0  0  0  0  0  0  0  0  0  0  0  0
  -26.4760  -13.0230   19.9930 N   0  0  0  0  0  0  0  0  0  0  0  0
  -26.1330  -11.7320   20.2400 N   0  0  0  0  0  0  0  0  0  0  0  0
  -24.1480  -10.4990   20.8440 C   0  0  0  0  0  0  0  0  0  0  0  0
  -24.5700   -9.5510   21.8010 C   0  0  0  0  0  3  0  0  0  0  0  0
  -23.8490   -8.3520   21.9870 C   0  0  0  0  0  3  0  0  0  0  0  0
  -22.6930   -8.0920   21.2130 C   0  0  0  0  0  0  0  0  0  0  0  0
  -22.2920   -9.0280   20.2430 C   0  0  0  0  0  3  0  0  0  0  0  0
  -23.0140  -10.2170   20.0560 C   0  0  0  0  0  3  0  0  0  0  0  0
  -21.9420   -6.9460   21.3050 O   0  0  0  0  0  0  0  0  0  0  0  0
  -21.7570   -6.3000   22.5020 C   0  0  0  0  0  0  0  0  0  0  0  0
  -21.1400   -6.9340   23.6030 C   0  0  0  0  0  3  0  0  0  0  0  0
  -20.9080   -6.2130   24.7910 C   0  0  0  0  0  3  0  0  0  0  0  0
  -21.2850   -4.8590   24.8790 C   0  0  0  0  0  0  0  0  0  0  0  0
  -21.8950   -4.2250   23.7820 C   0  0  0  0  0  3  0  0  0  0  0  0
  -22.1280   -4.9430   22.5970 C   0  0  0  0  0  0  0  0  0  0  0  0
  -22.6950   -4.3220   21.5350 F   0  0  0  0  0  0  0  0  0  0  0  0
  -21.0560   -4.1640   26.0170 F   0  0  0  0  0  0  0  0  0  0  0  0
  -23.0520  -13.5860   21.1620 C   0  0  0  0  0  0  0  0  0  0  0  0
  -22.3960  -12.8670   22.0680 N   0  0  0  0  0  0  0  0  0  0  0  0
  -22.5770  -14.6230   20.7030 O   0  0  0  0  0  0  0  0  0  0  0  0
  -22.7990  -12.0290   22.4550 H   0  0  0  0  0  0  0  0  0  0  0  0
  -21.4800  -13.1620   22.3730 H   0  0  0  0  0  0  0  0  0  0  0  0
  -25.5980  -15.2650   20.1700 N   0  0  0  0  0  0  0  0  0  0  0  0
  -24.8070  -15.8880   20.2990 H   0  0  0  0  0  0  0  0  0  0  0  0
  -26.3550  -15.6910   19.6500 H   0  0  0  0  0  0  0  0  0  0  0  0
  -29.4260  -22.5740   19.9090 C   0  0  0  0  0  3  0  0  0  0  0  0
  -30.0960  -21.6910   20.5810 N   0  0  0  0  0  0  0  0  0  0  0  0
  -29.5700  -24.1280   20.1350 C   0  0  0  0  0  3  0  0  0  0  0  0
  -28.3880  -25.0780   19.6920 C   0  0  0  0  0  3  0  0  0  0  0  0
  -28.5430  -26.5180   19.9920 O   0  0  0  0  0  0  0  0  0  0  0  0
  -24.6570  -31.6540   23.2040 C   0  0  0  0  0  0  0  0  0  0  0  0
  -27.3970  -27.3240   19.9660 C   0  0  0  0  0  0  0  0  0  0  0  0
  -23.4940  -30.2950   21.5010 C   0  0  0  0  0  3  0  0  0  0  0  0
  -24.9880  -28.8540   20.0210 C   0  0  0  0  0  0  0  0  0  0  0  0
  -26.0190  -30.7060   21.3280 C   0  0  0  0  0  2  0  0  0  0  0  0
  -26.1400  -29.3560   20.6360 C   0  0  0  0  0  0  0  0  0  0  0  0
  -27.3490  -28.6020   20.5990 C   0  0  0  0  0  3  0  0  0  0  0  0
  -26.2190  -26.8750   19.3230 C   0  0  0  0  0  3  0  0  0  0  0  0
  -25.0290  -27.6190   19.3590 C   0  0  0  0  0  3  0  0  0  0  0  0
  -23.7280  -29.6880   20.0960 C   0  0  0  0  0  2  0  0  0  0  0  0
  -24.7410  -30.9010   22.0710 N   0  0  0  0  0  0  0  0  0  0  0  0
  -23.5650  -31.8780   23.7480 O   0  0  0  0  0  0  0  0  0  0  0  0
  -22.8570  -29.2180   22.4120 C   0  0  0  0  0  0  0  0  0  0  0  0
  -21.5430  -28.9820   22.2460 N   0  0  0  0  0  0  0  0  0  0  0  0
  -23.5460  -28.5960   23.2240 O   0  0  0  0  0  0  0  0  0  0  0  0
  -21.0440  -29.5280   21.5570 H   0  0  0  0  0  0  0  0  0  0  0  0
  -18.2120  -27.6430   22.6260 C   0  0  0  0  0  0  0  0  0  0  0  0
  -20.7510  -27.9910   22.9760 C   0  0  0  0  0  3  0  0  0  0  0  0
  -20.9240  -26.5810   22.3680 C   0  0  0  0  0  2  0  0  0  0  0  0
  -19.8680  -26.2520   21.3080 C   0  0  0  0  0  2  0  0  0  0  0  0
  -18.4600  -26.3280   21.9060 C   0  0  0  0  0  2  0  0  0  0  0  0
  -19.2880  -28.4310   23.1140 C   0  0  0  0  0  0  0  0  0  0  0  0
  -19.0030  -29.6640   23.7380 C   0  0  0  0  0  3  0  0  0  0  0  0
  -17.6760  -30.1060   23.8890 C   0  0  0  0  0  3  0  0  0  0  0  0
  -16.6150  -29.3140   23.4180 C   0  0  0  0  0  3  0  0  0  0  0  0
  -16.8830  -28.0840   22.7930 C   0  0  0  0  0  3  0  0  0  0  0  0
  -25.9200  -32.2950   23.8560 C   0  0  0  0  0  3  0  0  0  0  0  0
  -25.6060  -33.7000   24.1510 N   0  0  0  0  0  0  0  0  0  0  0  0
  -25.9200  -34.7330   23.3560 C   0  0  0  0  0  0  0  0  0  0  0  0
  -26.5760  -34.6070   22.3190 O   0  0  0  0  0  0  0  0  0  0  0  0
  -25.0130  -33.8750   24.9480 H   0  0  0  0  0  0  0  0  0  0  0  0
  -24.1440  -36.4860   23.0180 C   0  0  0  0  0  1  0  0  0  0  0  0
  -25.4300  -36.1300   23.7830 C   0  0  0  0  0  3  0  0  0  0  0  0
  -27.5750  -37.0950   24.4900 C   0  0  0  0  0  1  0  0  0  0  0  0
  -26.4360  -37.1960   23.5810 N   0  0  0  0  0  0  0  0  0  0  0  0
  -26.0130  -38.1130   23.7030 H   0  0  0  0  0  0  0  0  0  0  0  0
  -26.3940  -31.5410   25.1580 C   0  0  1  0  0  0  0  0  0  0  0  0
  -25.2640  -31.3180   26.1900 C   0  0  0  0  0  1  0  0  0  0  0  0
  -26.9900  -30.1590   24.8010 C   0  0  0  0  0  1  0  0  0  0  0  0
  -27.5150  -32.3480   25.8550 C   0  0  0  0  0  1  0  0  0  0  0  0
  -33.1510  -20.7590   20.6920 C   0  0  0  0  0  1  0  0  0  0  0  0
  -32.3620  -20.3780   19.5710 O   0  0  0  0  0  0  0  0  0  0  0  0
  -32.6130  -17.6820   19.0280 C   0  0  0  0  0  2  0  0  0  0  0  0
  -32.6690  -17.4040   16.5130 C   0  0  0  0  0  2  0  0  0  0  0  0
  -32.7690  -18.1820   17.6000 C   0  0  0  0  0  3  0  0  0  0  0  0
  2  1  1  0
  2  7  1  0
  3  6  2  0
  3  5  1  0
  4 47  1  0
  4  1  2  0
  5  2  2  0
  6  4  1  0
  8 16  1  0
  9 14  1  0
 10 11  1  0
 10  9  1  0
 12 11  1  0
 12 21  1  0
 12 13  1  0
 14  8  1  0
 14 13  1  0
 15  8  2  0
 16  5  1  0
 16 17  1  0
 18 19  2  0
 19 38  1  0
 20 19  1  0
 20 23  1  0
 21 22  1  0
 21 18  1  0
 22 20  2  0
 23 24  1  0
 24 25  2  0
 26 29  1  0
 26 25  1  0
 27 26  2  0
 28 27  1  0
 28 23  2  0
 29 30  1  0
 30 35  2  0
 30 31  1  0
 31 32  2  0
 32 33  1  0
 33 37  1  0
 34 33  2  0
 35 34  1  0
 36 35  1  0
 38 39  1  0
 39 42  1  0
 39 41  1  0
 40 38  2  0
 43 44  1  0
 43 18  1  0
 45 43  1  0
 46 48  1  0
 46 47  2  0
 49 50  1  0
 49 48  2  0
 51 62  2  0
 52 50  1  0
 52 57  1  0
 53 61  1  0
 53 63  1  0
 54 60  1  0
 54 56  1  0
 55 61  1  0
 56 55  1  0
 57 56  2  0
 58 59  1  0
 58 52  2  0
 59 54  2  0
 60 53  1  0
 61 51  1  0
 63 65  2  0
 64 63  1  0
 66 64  1  0
 67 76  2  0
 67 72  1  0
 68 64  1  0
 68 72  1  0
 69 68  1  0
 70 71  1  0
 70 69  1  0
 71 67  1  0
 72 73  2  0
 73 74  1  0
 75 74  2  0
 76 75  1  0
 77 51  1  0
 77 78  1  0
 77 87  1  0
 78 81  1  0
 79 83  1  0
 79 78  1  0
 80 79  2  0
 83 82  1  0
 85 86  1  0
 85 83  1  0
 85 84  1  0
 87 90  1  1
 87 88  1  0
 89 87  1  0
 92  6  1  0
 92 91  1  0
 93  3  1  0
 94 95  2  0
 95 93  1  0
M  ISO  4   8 100  16 100  49 101  50 101
M  END
>  <TORSDO>  (14) 
F 22

>  <SCORE>  (14) 
-11.514

>  <name>  (14) 
13

>  <ligand_id>  (14) 
13

>  <original_smiles>  (14) 
[H]C(=Nc1c([H])c(C([H])([H])[H])c(N([H])C(=O)N2C([H])([H])C([H])([H])C([H])([H])C([H])(n3nc(-c4c([H])c([H])c(Oc5c([H])c([H])c(F)c([H])c5F)c([H])c4[H])c(C(=O)N([H])[H])c3N([H])[H])C2([H])[H])c(C([H])([H])C([H])=C([H])[H])c1OC([H])([H])[H])C([H])([H])C([H])([H])Oc1c([H])c([H])c2c(c1[H])C([H])([H])N(C(=O)C([H])(N([H])C(=O)C([H])(N([H])C([H])([H])[H])C([H])([H])[H])C(C([H])([H])[H])(C([H])([H])[H])C([H])([H])[H])C([H])(C(=O)N([H])C1([H])c3c([H])c([H])c([H])c([H])c3C([H])([H])C([H])([H])C1([H])[H])C2([H])[H]

>  <smiles>  (14) 
[H]C(=Nc1c([H])c(C([H])([H])[H])c(N([H])C(=O)N2C([H])([H])C([H])([H])C([H])([H])C([H])(n3nc(-c4c([H])c([H])c(Oc5c([H])c([H])c(F)c([H])c5F)c([H])c4[H])c(C(=O)N([H])[H])c3N([H])[H])C2([H])[H])c(C([H])([H])C([H])=C([H])[H])c1OC([H])([H])[H])C([H])([H])C([H])([H])Oc1c([H])c([H])c2c(c1[H])C([H])([H])N(C(=O)C([H])(N([H])C(=O)C([H])(N([H])C([H])([H])[H])C([H])([H])[H])C(C([H])([H])[H])(C([H])([H])[H])C([H])([H])[H])C([H])(C(=O)N([H])C1([H])c3c([H])c([H])c([H])c([H])c3C([H])([H])C([H])([H])C1([H])[H])C2([H])[H]

$$$$
14:0:0
     RDKit          3D

 94102  0  0  1  0  0  0  0  0999 V2000
  -30.5800  -14.7370   20.4780 C   0  0  0  0  0  0  0  0  0  0  0  0
  -30.4240  -12.4790   19.4440 C   0  0  0  0  0  2  0  0  0  0  0  0
  -29.5050  -12.5900   18.2070 C   0  0  0  0  0  2  0  0  0  0  0  0
  -28.0230  -12.4260   18.6020 C   0  0  0  0  0  2  0  0  0  0  0  0
  -27.6300  -13.2970   19.8240 C   0  0  0  0  0  3  0  0  0  0  0  0
  -28.6640  -13.1580   20.9640 C   0  0  0  0  0  2  0  0  0  0  0  0
  -29.9830  -13.5030   20.4110 N   0  0  0  0  0  0  0  0  0  0  0  0
  -31.7660  -14.8870   20.1680 O   0  0  0  0  0  0  0  0  0  0  0  0
  -28.7200  -17.9240   19.9700 C   0  0  0  0  0  3  0  0  0  0  0  0
  -28.6610  -19.3530   19.8970 C   0  0  0  0  0  0  0  0  0  0  0  0
  -29.7130  -20.1240   20.4660 C   0  0  0  0  0  0  0  0  0  0  0  0
  -29.8190  -17.2360   20.5500 C   0  0  0  0  0  0  0  0  0  0  0  0
  -30.7790  -19.3560   21.0110 C   0  0  0  0  0  0  0  0  0  0  0  0
  -30.8350  -17.9860   21.0470 N   0  0  0  0  0  0  0  0  0  0  0  0
  -29.7100  -15.7830   20.6690 N   0  0  0  0  0  0  0  0  0  0  0  0
  -28.7680  -15.4590   20.8000 H   0  0  0  0  0  0  0  0  0  0  0  0
  -25.2180  -13.9030   20.4770 C   0  0  0  0  0  0  0  0  0  0  0  0
  -24.1440  -13.1330   20.8320 C   0  0  0  0  0  0  0  0  0  0  0  0
  -24.6090  -11.7830   20.8290 C   0  0  0  0  0  0  0  0  0  0  0  0
  -26.2700  -13.0210   20.2790 N   0  0  0  0  0  0  0  0  0  0  0  0
  -25.9070  -11.7420   20.5510 N   0  0  0  0  0  0  0  0  0  0  0  0
  -23.8800  -10.5220   21.0180 C   0  0  0  0  0  0  0  0  0  0  0  0
  -24.2960   -9.5640   21.9690 C   0  0  0  0  0  3  0  0  0  0  0  0
  -23.5700   -8.3670   22.1450 C   0  0  0  0  0  3  0  0  0  0  0  0
  -22.4130   -8.1200   21.3680 C   0  0  0  0  0  0  0  0  0  0  0  0
  -22.0160   -9.0650   20.4050 C   0  0  0  0  0  3  0  0  0  0  0  0
  -22.7430  -10.2540   20.2290 C   0  0  0  0  0  3  0  0  0  0  0  0
  -21.6590   -6.9740   21.4520 O   0  0  0  0  0  0  0  0  0  0  0  0
  -21.5850   -6.2430   22.6110 C   0  0  0  0  0  0  0  0  0  0  0  0
  -21.1330   -6.8100   23.8220 C   0  0  0  0  0  3  0  0  0  0  0  0
  -21.0080   -6.0050   24.9720 C   0  0  0  0  0  3  0  0  0  0  0  0
  -21.3270   -4.6350   24.9110 C   0  0  0  0  0  0  0  0  0  0  0  0
  -21.7720   -4.0680   23.7040 C   0  0  0  0  0  3  0  0  0  0  0  0
  -21.8980   -4.8700   22.5560 C   0  0  0  0  0  0  0  0  0  0  0  0
  -22.3090   -4.3140   21.3900 F   0  0  0  0  0  0  0  0  0  0  0  0
  -21.1980   -3.8600   26.0130 F   0  0  0  0  0  0  0  0  0  0  0  0
  -22.7400  -13.6110   21.0630 C   0  0  0  0  0  0  0  0  0  0  0  0
  -21.9910  -12.9300   21.9220 N   0  0  0  0  0  0  0  0  0  0  0  0
  -22.3130  -14.6260   20.5130 O   0  0  0  0  0  0  0  0  0  0  0  0
  -22.3470  -12.1090   22.3900 H   0  0  0  0  0  0  0  0  0  0  0  0
  -21.0480  -13.2360   22.1150 H   0  0  0  0  0  0  0  0  0  0  0  0
  -25.3820  -15.2710   20.2840 N   0  0  0  0  0  0  0  0  0  0  0  0
  -24.5980  -15.9110   20.3570 H   0  0  0  0  0  0  0  0  0  0  0  0
  -26.2110  -15.7060   19.9090 H   0  0  0  0  0  0  0  0  0  0  0  0
  -26.7720  -19.2990   18.4090 C   0  0  0  0  0  1  0  0  0  0  0  0
  -27.6120  -20.0240   19.3000 O   0  0  0  0  0  0  0  0  0  0  0  0
  -32.8710  -19.3340   22.2100 C   0  0  0  0  0  1  0  0  0  0  0  0
  -31.8390  -20.0580   21.5500 O   0  0  0  0  0  0  0  0  0  0  0  0
  -29.8120  -21.5380   20.5250 O   0  0  0  0  0  0  0  0  0  0  0  0
  -28.7440  -22.4690   20.1340 C   0  0  0  0  0  2  0  0  0  0  0  0
  -29.0840  -24.0000   20.3740 C   0  0  0  0  0  0  0  0  0  0  0  0
  -30.1690  -24.3380   20.8610 O   0  0  0  0  0  0  0  0  0  0  0  0
  -28.0130  -25.0840   19.9750 C   0  0  0  0  0  2  0  0  0  0  0  0
  -28.3010  -26.5140   20.2660 O   0  0  0  0  0  0  0  0  0  0  0  0
  -24.6120  -31.9440   23.2900 C   0  0  0  0  0  0  0  0  0  0  0  0
  -27.1990  -27.3880   20.2090 C   0  0  0  0  0  0  0  0  0  0  0  0
  -23.4030  -30.5570   21.6480 C   0  0  0  0  0  3  0  0  0  0  0  0
  -24.8450  -29.0150   20.2120 C   0  0  0  0  0  0  0  0  0  0  0  0
  -25.9450  -30.8650   21.4660 C   0  0  0  0  0  2  0  0  0  0  0  0
  -26.0180  -29.4920   20.8110 C   0  0  0  0  0  0  0  0  0  0  0  0
  -27.1990  -28.6900   20.8010 C   0  0  0  0  0  3  0  0  0  0  0  0
  -26.0000  -26.9730   19.5800 C   0  0  0  0  0  3  0  0  0  0  0  0
  -24.8390  -27.7620   19.5890 C   0  0  0  0  0  3  0  0  0  0  0  0
  -23.6120  -29.8910   20.2650 C   0  0  0  0  0  2  0  0  0  0  0  0
  -24.6730  -31.1390   22.1910 N   0  0  0  0  0  0  0  0  0  0  0  0
  -23.5300  -32.2250   23.8230 O   0  0  0  0  0  0  0  0  0  0  0  0
  -22.7380  -29.5360   22.6020 C   0  0  0  0  0  0  0  0  0  0  0  0
  -21.4120  -29.3610   22.4720 N   0  0  0  0  0  0  0  0  0  0  0  0
  -23.4140  -28.9070   23.4200 O   0  0  0  0  0  0  0  0  0  0  0  0
  -20.9260  -29.9190   21.7840 H   0  0  0  0  0  0  0  0  0  0  0  0
  -18.0300  -28.1750   22.9610 C   0  0  0  0  0  0  0  0  0  0  0  0
  -20.5880  -28.4250   23.2390 C   0  0  0  0  0  3  0  0  0  0  0  0
  -20.6870  -26.9940   22.6630 C   0  0  0  0  0  2  0  0  0  0  0  0
  -19.5870  -26.6760   21.6460 C   0  0  0  0  0  2  0  0  0  0  0  0
  -18.2040  -26.8260   22.2860 C   0  0  0  0  0  2  0  0  0  0  0  0
  -19.1500  -28.9340   23.3950 C   0  0  0  0  0  0  0  0  0  0  0  0
  -18.9330  -30.1970   23.9850 C   0  0  0  0  0  3  0  0  0  0  0  0
  -17.6300  -30.7020   24.1480 C   0  0  0  0  0  3  0  0  0  0  0  0
  -16.5240  -29.9410   23.7320 C   0  0  0  0  0  3  0  0  0  0  0  0
  -16.7250  -28.6790   23.1440 C   0  0  0  0  0  3  0  0  0  0  0  0
  -25.8980  -32.5700   23.9130 C   0  0  0  0  0  3  0  0  0  0  0  0
  -25.5950  -33.9700   24.2420 N   0  0  0  0  0  0  0  0  0  0  0  0
  -25.9130  -35.0190   23.4720 C   0  0  0  0  0  0  0  0  0  0  0  0
  -26.5650  -34.9110   22.4300 O   0  0  0  0  0  0  0  0  0  0  0  0
  -25.0130  -34.1290   25.0510 H   0  0  0  0  0  0  0  0  0  0  0  0
  -24.1690  -36.8040   23.1520 C   0  0  0  0  0  1  0  0  0  0  0  0
  -25.4340  -36.4100   23.9310 C   0  0  0  0  0  3  0  0  0  0  0  0
  -27.5870  -37.3080   24.6950 C   0  0  0  0  0  1  0  0  0  0  0  0
  -26.4600  -37.4640   23.7810 N   0  0  0  0  0  0  0  0  0  0  0  0
  -26.0550  -38.3850   23.9310 H   0  0  0  0  0  0  0  0  0  0  0  0
  -26.4060  -31.7970   25.1920 C   0  0  1  0  0  0  0  0  0  0  0  0
  -25.3090  -31.5670   26.2580 C   0  0  0  0  0  1  0  0  0  0  0  0
  -26.9820  -30.4160   24.8030 C   0  0  0  0  0  1  0  0  0  0  0  0
  -27.5610  -32.5850   25.8550 C   0  0  0  0  0  1  0  0  0  0  0  0
  1 15  1  0
  2  7  1  0
  3  4  1  0
  3  2  1  0
  5  4  1  0
  5 20  1  0
  5  6  1  0
  7  1  1  0
  7  6  1  0
  8  1  2  0
  9 12  2  0
 10  9  1  0
 10 11  2  0
 11 49  1  0
 11 13  1  0
 12 15  1  0
 12 14  1  0
 13 14  2  0
 13 48  1  0
 15 16  1  0
 17 18  2  0
 18 37  1  0
 19 18  1  0
 19 22  1  0
 20 17  1  0
 20 21  1  0
 21 19  2  0
 22 23  1  0
 23 24  2  0
 25 28  1  0
 25 24  1  0
 26 25  2  0
 27 26  1  0
 27 22  2  0
 28 29  1  0
 29 30  1  0
 30 31  2  0
 32 31  1  0
 32 36  1  0
 33 32  2  0
 34 29  2  0
 34 33  1  0
 35 34  1  0
 37 38  1  0
 38 41  1  0
 38 40  1  0
 39 37  2  0
 42 43  1  0
 42 17  1  0
 44 42  1  0
 45 46  1  0
 46 10  1  0
 48 47  1  0
 50 51  1  0
 50 49  1  0
 51 52  2  0
 53 54  1  0
 53 51  1  0
 55 66  2  0
 56 54  1  0
 56 61  1  0
 57 65  1  0
 57 67  1  0
 58 64  1  0
 58 60  1  0
 59 65  1  0
 60 59  1  0
 61 60  2  0
 62 63  1  0
 62 56  2  0
 63 58  2  0
 64 57  1  0
 65 55  1  0
 67 69  2  0
 68 67  1  0
 70 68  1  0
 71 80  2  0
 71 76  1  0
 72 68  1  0
 72 76  1  0
 73 72  1  0
 74 75  1  0
 74 73  1  0
 75 71  1  0
 76 77  2  0
 77 78  1  0
 79 78  2  0
 80 79  1  0
 81 55  1  0
 81 82  1  0
 81 91  1  0
 82 85  1  0
 83 87  1  0
 83 82  1  0
 84 83  2  0
 87 86  1  0
 89 87  1  0
 89 90  1  0
 89 88  1  0
 91 94  1  1
 91 92  1  0
 93 91  1  0
M  ISO  4   1 100  15 100  53 101  54 101
M  END
>  <TORSDO>  (15) 
F 21

>  <SCORE>  (15) 
-13.536

>  <name>  (15) 
14

>  <ligand_id>  (15) 
14

>  <original_smiles>  (15) 
[H]c1c([H])c([H])c2c(c1[H])C([H])([H])C([H])([H])C([H])([H])C2([H])N([H])C(=O)C1([H])N(C(=O)C([H])(N([H])C(=O)C([H])(N([H])C([H])([H])[H])C([H])([H])[H])C(C([H])([H])[H])(C([H])([H])[H])C([H])([H])[H])C([H])([H])c2c([H])c(OC([H])([H])C(=O)C([H])([H])Oc3c(OC([H])([H])[H])nc(N([H])C(=O)N4C([H])([H])C([H])([H])C([H])([H])C([H])(n5nc(-c6c([H])c([H])c(Oc7c([H])c([H])c(F)c([H])c7F)c([H])c6[H])c(C(=O)N([H])[H])c5N([H])[H])C4([H])[H])c([H])c3OC([H])([H])[H])c([H])c([H])c2C1([H])[H]

>  <smiles>  (15) 
[H]c1c([H])c([H])c2c(c1[H])C([H])([H])C([H])([H])C([H])([H])C2([H])N([H])C(=O)C1([H])N(C(=O)C([H])(N([H])C(=O)C([H])(N([H])C([H])([H])[H])C([H])([H])[H])C(C([H])([H])[H])(C([H])([H])[H])C([H])([H])[H])C([H])([H])c2c([H])c(OC([H])([H])C(=O)C([H])([H])Oc3c(OC([H])([H])[H])nc(N([H])C(=O)N4C([H])([H])C([H])([H])C([H])([H])C([H])(n5nc(-c6c([H])c([H])c(Oc7c([H])c([H])c(F)c([H])c7F)c([H])c6[H])c(C(=O)N([H])[H])c5N([H])[H])C4([H])[H])c([H])c3OC([H])([H])[H])c([H])c([H])c2C1([H])[H]

$$$$
15:0:0
     RDKit          3D

 92100  0  0  1  0  0  0  0  0999 V2000
  -30.2660  -18.4070   21.1490 C   0  0  0  0  0  3  0  0  0  0  0  0
  -29.7860  -17.8570   18.8820 C   0  0  0  0  0  3  0  0  0  0  0  0
  -30.1490  -19.8110   20.8800 C   0  0  0  0  0  0  0  0  0  0  0  0
  -29.8010  -20.2830   19.5730 C   0  0  0  0  0  0  0  0  0  0  0  0
  -30.1330  -17.3730   20.1700 C   0  0  0  0  0  0  0  0  0  0  0  0
  -29.6250  -19.2510   18.6000 C   0  0  0  0  0  0  0  0  0  0  0  0
  -29.3110  -19.6060   17.3300 F   0  0  0  0  0  0  0  0  0  0  0  0
  -30.8950  -14.9430   19.7100 C   0  0  0  0  0  0  0  0  0  0  0  0
  -30.5750  -12.7200   18.6010 C   0  0  0  0  0  2  0  0  0  0  0  0
  -29.4890  -12.8020   17.5040 C   0  0  0  0  0  2  0  0  0  0  0  0
  -28.0790  -12.6050   18.0980 C   0  0  0  0  0  2  0  0  0  0  0  0
  -27.8520  -13.4590   19.3720 C   0  0  0  0  0  3  0  0  0  0  0  0
  -29.0300  -13.3050   20.3500 C   0  0  0  0  0  2  0  0  0  0  0  0
  -30.2600  -13.7200   19.6490 N   0  0  0  0  0  0  0  0  0  0  0  0
  -31.9080  -15.1490   19.0310 O   0  0  0  0  0  0  0  0  0  0  0  0
  -30.4360  -15.6390   21.9640 C   0  0  0  0  0  1  0  0  0  0  0  0
  -30.3710  -15.9420   20.5210 N   0  0  0  0  0  0  0  0  0  0  0  0
  -25.6020  -14.0150   20.4800 C   0  0  0  0  0  0  0  0  0  0  0  0
  -24.5810  -13.2220   20.9290 C   0  0  0  0  0  0  0  0  0  0  0  0
  -25.0030  -11.8750   20.7120 C   0  0  0  0  0  0  0  0  0  0  0  0
  -26.5800  -13.1480   20.0170 N   0  0  0  0  0  0  0  0  0  0  0  0
  -26.2360  -11.8500   20.2200 N   0  0  0  0  0  0  0  0  0  0  0  0
  -24.2830  -10.6090   20.8910 C   0  0  0  0  0  0  0  0  0  0  0  0
  -24.7450   -9.6150   21.7810 C   0  0  0  0  0  3  0  0  0  0  0  0
  -24.0250   -8.4130   21.9520 C   0  0  0  0  0  3  0  0  0  0  0  0
  -22.8250   -8.1960   21.2320 C   0  0  0  0  0  0  0  0  0  0  0  0
  -22.3820   -9.1790   20.3300 C   0  0  0  0  0  3  0  0  0  0  0  0
  -23.1030  -10.3730   20.1580 C   0  0  0  0  0  3  0  0  0  0  0  0
  -22.0730   -7.0490   21.3120 O   0  0  0  0  0  0  0  0  0  0  0  0
  -21.9680   -6.3380   22.4820 C   0  0  0  0  0  0  0  0  0  0  0  0
  -21.4330   -6.9110   23.6550 C   0  0  0  0  0  3  0  0  0  0  0  0
  -21.2770   -6.1250   24.8150 C   0  0  0  0  0  3  0  0  0  0  0  0
  -21.6460   -4.7670   24.8010 C   0  0  0  0  0  0  0  0  0  0  0  0
  -22.1730   -4.1930   23.6310 C   0  0  0  0  0  3  0  0  0  0  0  0
  -22.3320   -4.9760   22.4740 C   0  0  0  0  0  0  0  0  0  0  0  0
  -22.8210   -4.4110   21.3430 F   0  0  0  0  0  0  0  0  0  0  0  0
  -21.4900   -4.0110   25.9130 F   0  0  0  0  0  0  0  0  0  0  0  0
  -23.2470  -13.6860   21.4340 C   0  0  0  0  0  0  0  0  0  0  0  0
  -22.6370  -12.9260   22.3360 N   0  0  0  0  0  0  0  0  0  0  0  0
  -22.7600  -14.7550   21.0700 O   0  0  0  0  0  0  0  0  0  0  0  0
  -23.0480  -12.0610   22.6550 H   0  0  0  0  0  0  0  0  0  0  0  0
  -21.7490  -13.2170   22.7180 H   0  0  0  0  0  0  0  0  0  0  0  0
  -25.7720  -15.3920   20.4070 N   0  0  0  0  0  0  0  0  0  0  0  0
  -25.0370  -16.0430   20.6570 H   0  0  0  0  0  0  0  0  0  0  0  0
  -26.5810  -15.8460   20.0000 H   0  0  0  0  0  0  0  0  0  0  0  0
  -30.3140  -20.4650   23.2990 C   0  0  0  0  0  2  0  0  0  0  0  0
  -30.4230  -20.7450   21.9890 C   0  0  0  0  0  3  0  0  0  0  0  0
  -29.1430  -22.6930   19.7140 C   0  0  0  0  0  3  0  0  0  0  0  0
  -29.7050  -21.6660   19.1340 N   0  0  0  0  0  0  0  0  0  0  0  0
  -29.1110  -24.1620   19.1170 C   0  0  0  0  0  3  0  0  0  0  0  0
  -28.4810  -25.3570   19.9710 C   0  0  0  0  0  3  0  0  0  0  0  0
  -28.5190  -26.7420   19.4210 O   0  0  0  0  0  0  0  0  0  0  0  0
  -24.7490  -31.6710   23.1400 C   0  0  0  0  0  0  0  0  0  0  0  0
  -27.3740  -27.5450   19.5350 C   0  0  0  0  0  0  0  0  0  0  0  0
  -23.5220  -30.4080   21.4070 C   0  0  0  0  0  3  0  0  0  0  0  0
  -24.9610  -29.0610   19.7750 C   0  0  0  0  0  0  0  0  0  0  0  0
  -26.0400  -30.8350   21.1610 C   0  0  0  0  0  2  0  0  0  0  0  0
  -26.1370  -29.5330   20.3730 C   0  0  0  0  0  0  0  0  0  0  0  0
  -27.3480  -28.7900   20.2380 C   0  0  0  0  0  3  0  0  0  0  0  0
  -26.1760  -27.1310   18.9150 C   0  0  0  0  0  3  0  0  0  0  0  0
  -24.9820  -27.8670   19.0360 C   0  0  0  0  0  3  0  0  0  0  0  0
  -23.7010  -29.8810   19.9590 C   0  0  0  0  0  2  0  0  0  0  0  0
  -24.7920  -30.9860   21.9600 N   0  0  0  0  0  0  0  0  0  0  0  0
  -23.6810  -31.8530   23.7410 O   0  0  0  0  0  0  0  0  0  0  0  0
  -22.9320  -29.2770   22.2830 C   0  0  0  0  0  0  0  0  0  0  0  0
  -21.6160  -29.0380   22.1540 N   0  0  0  0  0  0  0  0  0  0  0  0
  -23.6570  -28.6220   23.0350 O   0  0  0  0  0  0  0  0  0  0  0  0
  -21.0890  -29.6150   21.5130 H   0  0  0  0  0  0  0  0  0  0  0  0
  -18.3210  -27.6000   22.5550 C   0  0  0  0  0  0  0  0  0  0  0  0
  -20.8600  -27.9930   22.8460 C   0  0  0  0  0  3  0  0  0  0  0  0
  -21.0450  -26.6220   22.1550 C   0  0  0  0  0  2  0  0  0  0  0  0
  -19.9620  -26.3230   21.1150 C   0  0  0  0  0  2  0  0  0  0  0  0
  -18.5770  -26.3270   21.7700 C   0  0  0  0  0  2  0  0  0  0  0  0
  -19.3930  -28.3920   23.0480 C   0  0  0  0  0  0  0  0  0  0  0  0
  -19.1000  -29.5870   23.7390 C   0  0  0  0  0  3  0  0  0  0  0  0
  -17.7670  -29.9910   23.9480 C   0  0  0  0  0  3  0  0  0  0  0  0
  -16.7100  -29.1950   23.4720 C   0  0  0  0  0  3  0  0  0  0  0  0
  -16.9870  -28.0030   22.7790 C   0  0  0  0  0  3  0  0  0  0  0  0
  -26.0370  -32.2810   23.7740 C   0  0  0  0  0  3  0  0  0  0  0  0
  -26.5880  -31.4370   24.9910 C   0  0  1  0  0  0  0  0  0  0  0  0
  -25.5180  -31.1190   26.0620 C   0  0  0  0  0  1  0  0  0  0  0  0
  -27.1760  -30.0930   24.5020 C   0  0  0  0  0  1  0  0  0  0  0  0
  -27.7420  -32.2020   25.6780 C   0  0  0  0  0  1  0  0  0  0  0  0
  -25.7170  -33.6510   24.2010 N   0  0  0  0  0  0  0  0  0  0  0  0
  -26.0230  -34.7550   23.5060 C   0  0  0  0  0  0  0  0  0  0  0  0
  -26.6720  -34.7270   22.4580 O   0  0  0  0  0  0  0  0  0  0  0  0
  -25.1360  -33.7450   25.0220 H   0  0  0  0  0  0  0  0  0  0  0  0
  -24.2570  -36.5370   23.3150 C   0  0  0  0  0  1  0  0  0  0  0  0
  -25.5290  -36.1060   24.0630 C   0  0  0  0  0  3  0  0  0  0  0  0
  -27.6720  -36.9780   24.8840 C   0  0  0  0  0  1  0  0  0  0  0  0
  -26.5420  -37.1810   23.9810 N   0  0  0  0  0  0  0  0  0  0  0  0
  -26.1260  -38.0840   24.1900 H   0  0  0  0  0  0  0  0  0  0  0  0
  2  5  1  0
  3  1  1  0
  3 47  1  0
  4  3  2  0
  5 17  1  0
  5  1  2  0
  6  2  2  0
  6  4  1  0
  7  6  1  0
  8 17  1  0
  9 14  1  0
 10 11  1  0
 10  9  1  0
 12 11  1  0
 12 21  1  0
 12 13  1  0
 14  8  1  0
 14 13  1  0
 15  8  2  0
 17 16  1  0
 18 19  2  0
 19 38  1  0
 20 23  1  0
 20 19  1  0
 21 22  1  0
 21 18  1  0
 22 20  2  0
 23 24  1  0
 24 25  2  0
 26 29  1  0
 26 25  1  0
 27 26  2  0
 28 27  1  0
 28 23  2  0
 29 30  1  0
 30 31  1  0
 31 32  2  0
 33 32  1  0
 33 37  1  0
 34 33  2  0
 35 30  2  0
 35 34  1  0
 36 35  1  0
 38 39  1  0
 39 41  1  0
 39 42  1  0
 40 38  2  0
 43 18  1  0
 43 44  1  0
 45 43  1  0
 47 46  2  0
 49  4  1  0
 49 48  2  0
 50 48  1  0
 50 51  2  0
 52 54  1  0
 52 51  1  0
 53 64  2  0
 54 59  1  0
 55 63  1  0
 55 65  1  0
 56 62  1  0
 56 58  1  0
 57 63  1  0
 58 57  1  0
 59 58  2  0
 60 61  1  0
 60 54  2  0
 61 56  2  0
 62 55  1  0
 63 53  1  0
 65 67  2  0
 66 65  1  0
 68 66  1  0
 69 78  2  0
 69 74  1  0
 70 66  1  0
 70 74  1  0
 71 70  1  0
 72 73  1  0
 72 71  1  0
 73 69  1  0
 74 75  2  0
 75 76  1  0
 77 76  2  0
 78 77  1  0
 79 53  1  0
 79 84  1  0
 79 80  1  0
 80 83  1  1
 80 81  1  0
 82 80  1  0
 84 87  1  0
 85 89  1  0
 85 84  1  0
 86 85  2  0
 89 88  1  0
 91 89  1  0
 91 92  1  0
 91 90  1  0
M  ISO  4   8 100  17 100  51 101  52 101
M  END
>  <TORSDO>  (16) 
F 20

>  <SCORE>  (16) 
-11.802

>  <name>  (16) 
15

>  <ligand_id>  (16) 
15

>  <original_smiles>  (16) 
[H]C(=Nc1c(F)c([H])c(N(C(=O)N2C([H])([H])C([H])([H])C([H])([H])C([H])(n3nc(-c4c([H])c([H])c(Oc5c([H])c([H])c(F)c([H])c5F)c([H])c4[H])c(C(=O)N([H])[H])c3N([H])[H])C2([H])[H])C([H])([H])[H])c([H])c1C([H])=C([H])[H])C([H])([H])C([H])([H])Oc1c([H])c([H])c2c(c1[H])C([H])([H])N(C(=O)C([H])(N([H])C(=O)C([H])(N([H])C([H])([H])[H])C([H])([H])[H])C(C([H])([H])[H])(C([H])([H])[H])C([H])([H])[H])C([H])(C(=O)N([H])C1([H])c3c([H])c([H])c([H])c([H])c3C([H])([H])C([H])([H])C1([H])[H])C2([H])[H]

>  <smiles>  (16) 
[H]C(=Nc1c(F)c([H])c(N(C(=O)N2C([H])([H])C([H])([H])C([H])([H])C([H])(n3nc(-c4c([H])c([H])c(Oc5c([H])c([H])c(F)c([H])c5F)c([H])c4[H])c(C(=O)N([H])[H])c3N([H])[H])C2([H])[H])C([H])([H])[H])c([H])c1C([H])=C([H])[H])C([H])([H])C([H])([H])Oc1c([H])c([H])c2c(c1[H])C([H])([H])N(C(=O)C([H])(N([H])C(=O)C([H])(N([H])C([H])([H])[H])C([H])([H])[H])C(C([H])([H])[H])(C([H])([H])[H])C([H])([H])[H])C([H])(C(=O)N([H])C1([H])c3c([H])c([H])c([H])c([H])c3C([H])([H])C([H])([H])C1([H])[H])C2([H])[H]

$$$$
16:0:0
     RDKit          3D

 92100  0  0  1  0  0  0  0  0999 V2000
  -30.6500  -18.4790   19.0520 C   0  0  0  0  0  3  0  0  0  0  0  0
  -30.4950  -19.8730   19.2940 C   0  0  0  0  0  3  0  0  0  0  0  0
  -30.7070  -18.0400   21.4020 C   0  0  0  0  0  3  0  0  0  0  0  0
  -30.7010  -17.4900   20.0910 C   0  0  0  0  0  0  0  0  0  0  0  0
  -30.4440  -20.4130   20.6010 C   0  0  0  0  0  0  0  0  0  0  0  0
  -30.6280  -19.4520   21.6540 C   0  0  0  0  0  0  0  0  0  0  0  0
  -31.1910  -14.9340   20.3950 C   0  0  0  0  0  0  0  0  0  0  0  0
  -30.9780  -12.5560   19.6300 C   0  0  0  0  0  2  0  0  0  0  0  0
  -30.0720  -12.4230   18.3840 C   0  0  0  0  0  2  0  0  0  0  0  0
  -28.5750  -12.4020   18.7580 C   0  0  0  0  0  2  0  0  0  0  0  0
  -28.1690  -13.4000   19.8770 C   0  0  0  0  0  3  0  0  0  0  0  0
  -29.2090  -13.4560   21.0190 C   0  0  0  0  0  2  0  0  0  0  0  0
  -30.5190  -13.7240   20.4060 N   0  0  0  0  0  0  0  0  0  0  0  0
  -32.4210  -14.9370   20.4410 O   0  0  0  0  0  0  0  0  0  0  0  0
  -30.0510  -15.8200   18.5540 C   0  0  0  0  0  3  0  0  0  0  0  0
  -30.5680  -16.0360   19.7840 N   0  0  0  0  0  0  0  0  0  0  0  0
  -29.0140  -16.3460   18.1280 O   0  0  0  0  0  0  0  0  0  0  0  0
  -25.7920  -14.1050   20.5220 C   0  0  0  0  0  0  0  0  0  0  0  0
  -24.6840  -13.3770   20.8560 C   0  0  0  0  0  0  0  0  0  0  0  0
  -25.0990  -12.0110   20.8720 C   0  0  0  0  0  0  0  0  0  0  0  0
  -26.8100  -13.1790   20.3450 N   0  0  0  0  0  0  0  0  0  0  0  0
  -26.3990  -11.9180   20.6240 N   0  0  0  0  0  0  0  0  0  0  0  0
  -24.3260  -10.7780   21.0490 C   0  0  0  0  0  0  0  0  0  0  0  0
  -24.6860   -9.8140   22.0170 C   0  0  0  0  0  3  0  0  0  0  0  0
  -23.9150   -8.6440   22.1800 C   0  0  0  0  0  3  0  0  0  0  0  0
  -22.7710   -8.4290   21.3760 C   0  0  0  0  0  0  0  0  0  0  0  0
  -22.4330   -9.3800   20.3960 C   0  0  0  0  0  3  0  0  0  0  0  0
  -23.2040  -10.5420   20.2310 C   0  0  0  0  0  3  0  0  0  0  0  0
  -21.9760   -7.3110   21.4510 O   0  0  0  0  0  0  0  0  0  0  0  0
  -21.8580   -6.5910   22.6120 C   0  0  0  0  0  0  0  0  0  0  0  0
  -21.3700   -7.1730   23.8040 C   0  0  0  0  0  3  0  0  0  0  0  0
  -21.1970   -6.3790   24.9550 C   0  0  0  0  0  3  0  0  0  0  0  0
  -21.5000   -5.0060   24.9150 C   0  0  0  0  0  0  0  0  0  0  0  0
  -21.9820   -4.4240   23.7290 C   0  0  0  0  0  3  0  0  0  0  0  0
  -22.1570   -5.2160   22.5810 C   0  0  0  0  0  0  0  0  0  0  0  0
  -22.6020   -4.6460   21.4350 F   0  0  0  0  0  0  0  0  0  0  0  0
  -21.3270   -4.2420   26.0190 F   0  0  0  0  0  0  0  0  0  0  0  0
  -23.2930  -13.9070   21.0540 C   0  0  0  0  0  0  0  0  0  0  0  0
  -22.5070  -13.2620   21.9090 N   0  0  0  0  0  0  0  0  0  0  0  0
  -22.9100  -14.9290   20.4850 O   0  0  0  0  0  0  0  0  0  0  0  0
  -22.8290  -12.4380   22.3950 H   0  0  0  0  0  0  0  0  0  0  0  0
  -21.5720  -13.6000   22.0850 H   0  0  0  0  0  0  0  0  0  0  0  0
  -26.0100  -15.4650   20.3240 N   0  0  0  0  0  0  0  0  0  0  0  0
  -25.2590  -16.1430   20.3930 H   0  0  0  0  0  0  0  0  0  0  0  0
  -26.8820  -15.8700   20.0020 H   0  0  0  0  0  0  0  0  0  0  0  0
  -31.5410  -20.9310   23.2890 C   0  0  0  0  0  1  0  0  0  0  0  0
  -30.7020  -19.8220   22.9770 O   0  0  0  0  0  0  0  0  0  0  0  0
  -30.2960  -21.7990   20.8700 O   0  0  0  0  0  0  0  0  0  0  0  0
  -29.4740  -22.6740   20.0270 C   0  0  0  0  0  2  0  0  0  0  0  0
  -29.5940  -24.2320   20.2260 C   0  0  0  0  0  3  0  0  0  0  0  0
  -28.5700  -25.1400   20.3370 C   0  0  0  0  0  3  0  0  0  0  0  0
  -28.6700  -26.5540   20.3420 O   0  0  0  0  0  0  0  0  0  0  0  0
  -24.6960  -31.8410   23.2550 C   0  0  0  0  0  0  0  0  0  0  0  0
  -27.5170  -27.3610   20.2700 C   0  0  0  0  0  0  0  0  0  0  0  0
  -23.5700  -30.4070   21.5900 C   0  0  0  0  0  3  0  0  0  0  0  0
  -25.1000  -28.8980   20.2020 C   0  0  0  0  0  0  0  0  0  0  0  0
  -26.1030  -30.8000   21.4650 C   0  0  0  0  0  2  0  0  0  0  0  0
  -26.2370  -29.4210   20.8330 C   0  0  0  0  0  0  0  0  0  0  0  0
  -27.4430  -28.6570   20.8700 C   0  0  0  0  0  3  0  0  0  0  0  0
  -26.3620  -26.9060   19.5900 C   0  0  0  0  0  3  0  0  0  0  0  0
  -25.1630  -27.6440   19.5780 C   0  0  0  0  0  3  0  0  0  0  0  0
  -23.8360  -29.7320   20.2190 C   0  0  0  0  0  2  0  0  0  0  0  0
  -24.8060  -31.0350   22.1590 N   0  0  0  0  0  0  0  0  0  0  0  0
  -23.5930  -32.0890   23.7650 O   0  0  0  0  0  0  0  0  0  0  0  0
  -22.9140  -29.3740   22.5370 C   0  0  0  0  0  0  0  0  0  0  0  0
  -21.6030  -29.1400   22.3640 N   0  0  0  0  0  0  0  0  0  0  0  0
  -23.5880  -28.7860   23.3870 O   0  0  0  0  0  0  0  0  0  0  0  0
  -21.1180  -29.6690   21.6520 H   0  0  0  0  0  0  0  0  0  0  0  0
  -18.2680  -27.7910   22.7390 C   0  0  0  0  0  0  0  0  0  0  0  0
  -20.7970  -28.1770   23.1150 C   0  0  0  0  0  3  0  0  0  0  0  0
  -20.9930  -26.7440   22.5700 C   0  0  0  0  0  2  0  0  0  0  0  0
  -19.9550  -26.3520   21.5150 C   0  0  0  0  0  2  0  0  0  0  0  0
  -18.5380  -26.4400   22.0950 C   0  0  0  0  0  2  0  0  0  0  0  0
  -19.3290  -28.6120   23.2050 C   0  0  0  0  0  0  0  0  0  0  0  0
  -19.0250  -29.8710   23.7660 C   0  0  0  0  0  3  0  0  0  0  0  0
  -17.6920  -30.3120   23.8650 C   0  0  0  0  0  3  0  0  0  0  0  0
  -16.6450  -29.4890   23.4180 C   0  0  0  0  0  3  0  0  0  0  0  0
  -16.9320  -28.2290   22.8620 C   0  0  0  0  0  3  0  0  0  0  0  0
  -25.9460  -32.5100   23.9060 C   0  0  0  0  0  3  0  0  0  0  0  0
  -26.4420  -31.7690   25.2080 C   0  0  1  0  0  0  0  0  0  0  0  0
  -25.3220  -31.5210   26.2450 C   0  0  0  0  0  1  0  0  0  0  0  0
  -27.0690  -30.4010   24.8560 C   0  0  0  0  0  1  0  0  0  0  0  0
  -27.5560  -32.5980   25.8900 C   0  0  0  0  0  1  0  0  0  0  0  0
  -25.5980  -33.9060   24.2070 N   0  0  0  0  0  0  0  0  0  0  0  0
  -25.9310  -34.9550   23.4450 C   0  0  0  0  0  0  0  0  0  0  0  0
  -26.6350  -34.8530   22.4360 O   0  0  0  0  0  0  0  0  0  0  0  0
  -24.9750  -34.0580   24.9870 H   0  0  0  0  0  0  0  0  0  0  0  0
  -24.1780  -36.7090   23.0160 C   0  0  0  0  0  1  0  0  0  0  0  0
  -25.4020  -36.3390   23.8700 C   0  0  0  0  0  3  0  0  0  0  0  0
  -27.4860  -37.2830   24.7600 C   0  0  0  0  0  1  0  0  0  0  0  0
  -26.4150  -37.4120   23.7770 N   0  0  0  0  0  0  0  0  0  0  0  0
  -25.9840  -38.3240   23.8950 H   0  0  0  0  0  0  0  0  0  0  0  0
  1  2  2  0
  1  4  1  0
  2  5  1  0
  3  6  1  0
  4  3  2  0
  5 48  1  0
  5  6  2  0
  6 47  1  0
  7 13  1  0
  7 14  2  0
  8 13  1  0
  9 10  1  0
  9  8  1  0
 11 10  1  0
 11 21  1  0
 11 12  1  0
 13 12  1  0
 15 16  1  0
 16  4  1  0
 16  7  1  0
 17 15  2  0
 18 19  2  0
 19 20  1  0
 19 38  1  0
 20 23  1  0
 21 18  1  0
 21 22  1  0
 22 20  2  0
 23 24  1  0
 24 25  2  0
 26 29  1  0
 26 25  1  0
 27 26  2  0
 28 27  1  0
 28 23  2  0
 29 30  1  0
 30 31  1  0
 31 32  2  0
 33 32  1  0
 33 37  1  0
 34 33  2  0
 35 30  2  0
 35 34  1  0
 36 35  1  0
 38 39  1  0
 39 42  1  0
 39 41  1  0
 40 38  2  0
 43 44  1  0
 43 18  1  0
 45 43  1  0
 47 46  1  0
 49 50  1  0
 49 48  1  0
 50 51  2  0
 51 52  1  0
 53 64  2  0
 54 52  1  0
 54 59  1  0
 55 63  1  0
 55 65  1  0
 56 62  1  0
 56 58  1  0
 57 63  1  0
 58 59  2  0
 58 57  1  0
 60 54  2  0
 61 60  1  0
 61 56  2  0
 62 55  1  0
 63 53  1  0
 65 67  2  0
 66 65  1  0
 68 66  1  0
 69 78  2  0
 69 74  1  0
 70 66  1  0
 70 74  1  0
 71 70  1  0
 72 73  1  0
 72 71  1  0
 73 69  1  0
 74 75  2  0
 75 76  1  0
 77 76  2  0
 78 77  1  0
 79 53  1  0
 79 84  1  0
 79 80  1  0
 80 83  1  1
 80 81  1  0
 82 80  1  0
 84 87  1  0
 85 89  1  0
 85 84  1  0
 86 85  2  0
 89 88  1  0
 91 89  1  0
 91 92  1  0
 91 90  1  0
M  ISO  4   7 100  16 100  51 101  52 101
M  END
>  <TORSDO>  (17) 
F 20

>  <SCORE>  (17) 
-12.587

>  <name>  (17) 
16

>  <ligand_id>  (17) 
16

>  <original_smiles>  (17) 
[H]C(=O)N(C(=O)N1C([H])([H])C([H])([H])C([H])([H])C([H])(n2nc(-c3c([H])c([H])c(Oc4c([H])c([H])c(F)c([H])c4F)c([H])c3[H])c(C(=O)N([H])[H])c2N([H])[H])C1([H])[H])c1c([H])c([H])c(OC([H])([H])C([H])=C([H])Oc2c([H])c([H])c3c(c2[H])C([H])([H])N(C(=O)C([H])(N([H])C(=O)C([H])(N([H])C([H])([H])[H])C([H])([H])[H])C(C([H])([H])[H])(C([H])([H])[H])C([H])([H])[H])C([H])(C(=O)N([H])C2([H])c4c([H])c([H])c([H])c([H])c4C([H])([H])C([H])([H])C2([H])[H])C3([H])[H])c(OC([H])([H])[H])c1[H]

>  <smiles>  (17) 
[H]C(=O)N(C(=O)N1C([H])([H])C([H])([H])C([H])([H])C([H])(n2nc(-c3c([H])c([H])c(Oc4c([H])c([H])c(F)c([H])c4F)c([H])c3[H])c(C(=O)N([H])[H])c2N([H])[H])C1([H])[H])c1c([H])c([H])c(OC([H])([H])C([H])=C([H])Oc2c([H])c([H])c3c(c2[H])C([H])([H])N(C(=O)C([H])(N([H])C(=O)C([H])(N([H])C([H])([H])[H])C([H])([H])[H])C(C([H])([H])[H])(C([H])([H])[H])C([H])([H])[H])C([H])(C(=O)N([H])C2([H])c4c([H])c([H])c([H])c([H])c4C([H])([H])C([H])([H])C2([H])[H])C3([H])[H])c(OC([H])([H])[H])c1[H]

$$$$
17:0:0
     RDKit          3D

 95103  0  0  1  0  0  0  0  0999 V2000
  -29.5820  -20.5370   21.2630 C   0  0  0  0  0  3  0  0  0  0  0  0
  -29.6520  -21.8080   20.7840 C   0  0  0  0  0  3  0  0  0  0  0  0
  -30.8010  -19.4830   19.3370 C   0  0  0  0  0  3  0  0  0  0  0  0
  -31.2100  -18.3620   18.6020 C   0  0  0  0  0  3  0  0  0  0  0  0
  -30.1100  -18.0420   21.1620 C   0  0  0  0  0  3  0  0  0  0  0  0
  -30.1830  -19.3460   20.5990 C   0  0  0  0  0  0  0  0  0  0  0  0
  -30.5640  -16.9010   20.4490 C   0  0  0  0  0  0  0  0  0  0  0  0
  -31.0380  -17.0570   19.1140 C   0  0  0  0  0  0  0  0  0  0  0  0
  -31.1890  -14.5150   20.7160 C   0  0  0  0  0  0  0  0  0  0  0  0
  -30.8860  -12.3390   19.6160 C   0  0  0  0  0  2  0  0  0  0  0  0
  -30.0130  -12.5690   18.3630 C   0  0  0  0  0  2  0  0  0  0  0  0
  -28.5180  -12.5000   18.7190 C   0  0  0  0  0  2  0  0  0  0  0  0
  -28.1540  -13.3520   19.9660 C   0  0  0  0  0  3  0  0  0  0  0  0
  -29.1470  -13.1010   21.1290 C   0  0  0  0  0  2  0  0  0  0  0  0
  -30.5010  -13.3460   20.6210 N   0  0  0  0  0  0  0  0  0  0  0  0
  -32.3710  -14.6270   20.3750 O   0  0  0  0  0  0  0  0  0  0  0  0
  -30.4520  -15.5990   21.0470 N   0  0  0  0  0  0  0  0  0  0  0  0
  -29.6010  -15.4180   21.5550 H   0  0  0  0  0  0  0  0  0  0  0  0
  -25.7390  -14.0460   20.5250 C   0  0  0  0  0  0  0  0  0  0  0  0
  -24.6270  -13.3130   20.8440 C   0  0  0  0  0  0  0  0  0  0  0  0
  -25.0500  -11.9500   20.8640 C   0  0  0  0  0  0  0  0  0  0  0  0
  -26.7700  -13.1300   20.3710 N   0  0  0  0  0  0  0  0  0  0  0  0
  -26.3530  -11.8650   20.6340 N   0  0  0  0  0  0  0  0  0  0  0  0
  -24.2770  -10.7120   21.0280 C   0  0  0  0  0  0  0  0  0  0  0  0
  -24.6540   -9.7300   21.9700 C   0  0  0  0  0  3  0  0  0  0  0  0
  -23.8870   -8.5550   22.1240 C   0  0  0  0  0  3  0  0  0  0  0  0
  -22.7280   -8.3570   21.3370 C   0  0  0  0  0  0  0  0  0  0  0  0
  -22.3710   -9.3290   20.3840 C   0  0  0  0  0  3  0  0  0  0  0  0
  -23.1390  -10.4940   20.2290 C   0  0  0  0  0  3  0  0  0  0  0  0
  -21.9330   -7.2380   21.4030 O   0  0  0  0  0  0  0  0  0  0  0  0
  -21.7900   -6.5240   22.5650 C   0  0  0  0  0  0  0  0  0  0  0  0
  -21.2910   -7.1110   23.7480 C   0  0  0  0  0  3  0  0  0  0  0  0
  -21.0980   -6.3220   24.8990 C   0  0  0  0  0  3  0  0  0  0  0  0
  -21.3910   -4.9450   24.8680 C   0  0  0  0  0  0  0  0  0  0  0  0
  -21.8810   -4.3570   23.6880 C   0  0  0  0  0  3  0  0  0  0  0  0
  -22.0780   -5.1440   22.5400 C   0  0  0  0  0  0  0  0  0  0  0  0
  -22.5290   -4.5670   21.4010 F   0  0  0  0  0  0  0  0  0  0  0  0
  -21.1990   -4.1830   25.9700 F   0  0  0  0  0  0  0  0  0  0  0  0
  -23.2320  -13.8370   21.0280 C   0  0  0  0  0  0  0  0  0  0  0  0
  -22.4550  -13.2000   21.9000 N   0  0  0  0  0  0  0  0  0  0  0  0
  -22.8360  -14.8400   20.4330 O   0  0  0  0  0  0  0  0  0  0  0  0
  -22.7940  -12.3870   22.3960 H   0  0  0  0  0  0  0  0  0  0  0  0
  -21.5130  -13.5210   22.0650 H   0  0  0  0  0  0  0  0  0  0  0  0
  -25.9520  -15.4080   20.3340 N   0  0  0  0  0  0  0  0  0  0  0  0
  -25.1940  -16.0810   20.3780 H   0  0  0  0  0  0  0  0  0  0  0  0
  -26.8290  -15.8170   20.0300 H   0  0  0  0  0  0  0  0  0  0  0  0
  -31.8430  -16.0510   17.0510 C   0  0  0  0  0  1  0  0  0  0  0  0
  -31.2580  -15.9270   18.3490 O   0  0  0  0  0  0  0  0  0  0  0  0
  -28.9600  -23.0200   21.3040 C   0  0  0  0  0  0  0  0  0  0  0  0
  -28.5260  -23.0110   22.4990 N   0  0  0  0  0  0  0  0  0  0  0  0
  -28.7330  -22.1310   22.9570 H   0  0  0  0  0  0  0  0  0  0  0  0
  -28.8250  -24.1990   20.3280 C   0  0  0  0  0  0  0  0  0  0  0  0
  -29.0890  -24.1020   19.1200 O   0  0  0  0  0  0  0  0  0  0  0  0
  -28.3210  -25.5420   20.8960 C   0  0  0  0  0  2  0  0  0  0  0  0
  -28.2730  -26.5730   19.8910 O   0  0  0  0  0  0  0  0  0  0  0  0
  -24.5320  -31.6840   23.1480 C   0  0  0  0  0  0  0  0  0  0  0  0
  -27.1210  -27.3210   19.9290 C   0  0  0  0  0  0  0  0  0  0  0  0
  -23.3060  -30.3330   21.4740 C   0  0  0  0  0  3  0  0  0  0  0  0
  -24.7380  -28.8250   20.0030 C   0  0  0  0  0  0  0  0  0  0  0  0
  -25.8290  -30.6900   21.2620 C   0  0  0  0  0  2  0  0  0  0  0  0
  -25.9060  -29.3340   20.5870 C   0  0  0  0  0  0  0  0  0  0  0  0
  -27.1050  -28.5920   20.5450 C   0  0  0  0  0  3  0  0  0  0  0  0
  -25.9410  -26.8160   19.3500 C   0  0  0  0  0  3  0  0  0  0  0  0
  -24.7490  -27.5630   19.3880 C   0  0  0  0  0  3  0  0  0  0  0  0
  -23.5000  -29.6880   20.0760 C   0  0  0  0  0  2  0  0  0  0  0  0
  -24.5750  -30.9130   22.0210 N   0  0  0  0  0  0  0  0  0  0  0  0
  -23.4550  -31.9480   23.7040 O   0  0  0  0  0  0  0  0  0  0  0  0
  -22.6520  -29.2920   22.4090 C   0  0  0  0  0  0  0  0  0  0  0  0
  -21.3230  -29.1280   22.2860 N   0  0  0  0  0  0  0  0  0  0  0  0
  -23.3350  -28.6330   23.1980 O   0  0  0  0  0  0  0  0  0  0  0  0
  -20.8340  -29.7170   21.6240 H   0  0  0  0  0  0  0  0  0  0  0  0
  -17.9380  -27.9810   22.8050 C   0  0  0  0  0  0  0  0  0  0  0  0
  -20.5030  -28.1740   23.0330 C   0  0  0  0  0  3  0  0  0  0  0  0
  -20.5620  -26.7650   22.3960 C   0  0  0  0  0  2  0  0  0  0  0  0
  -19.4320  -26.5090   21.3930 C   0  0  0  0  0  2  0  0  0  0  0  0
  -18.0700  -26.6580   22.0730 C   0  0  0  0  0  2  0  0  0  0  0  0
  -19.0800  -28.7020   23.2440 C   0  0  0  0  0  0  0  0  0  0  0  0
  -18.9000  -29.9460   23.8870 C   0  0  0  0  0  3  0  0  0  0  0  0
  -17.6090  -30.4660   24.0980 C   0  0  0  0  0  3  0  0  0  0  0  0
  -16.4800  -29.7390   23.6770 C   0  0  0  0  0  3  0  0  0  0  0  0
  -16.6470  -28.4990   23.0370 C   0  0  0  0  0  3  0  0  0  0  0  0
  -25.8240  -32.2920   23.7800 C   0  0  0  0  0  3  0  0  0  0  0  0
  -25.5350  -33.6900   24.1180 N   0  0  0  0  0  0  0  0  0  0  0  0
  -25.8930  -34.7450   23.3750 C   0  0  0  0  0  0  0  0  0  0  0  0
  -26.5750  -34.6410   22.3500 O   0  0  0  0  0  0  0  0  0  0  0  0
  -24.9380  -33.8490   24.9180 H   0  0  0  0  0  0  0  0  0  0  0  0
  -24.2140  -36.5800   23.0140 C   0  0  0  0  0  1  0  0  0  0  0  0
  -25.4270  -36.1340   23.8450 C   0  0  0  0  0  3  0  0  0  0  0  0
  -27.5530  -36.9650   24.7480 C   0  0  0  0  0  1  0  0  0  0  0  0
  -26.4820  -37.1660   23.7750 N   0  0  0  0  0  0  0  0  0  0  0  0
  -26.0880  -38.0900   23.9310 H   0  0  0  0  0  0  0  0  0  0  0  0
  -26.3310  -31.5000   25.0470 C   0  0  1  0  0  0  0  0  0  0  0  0
  -25.2350  -31.2590   26.1110 C   0  0  0  0  0  1  0  0  0  0  0  0
  -26.8980  -30.1240   24.6340 C   0  0  0  0  0  1  0  0  0  0  0  0
  -27.4930  -32.2710   25.7150 C   0  0  0  0  0  1  0  0  0  0  0  0
  2  1  2  0
  2 49  1  0
  3  6  1  0
  4  8  1  0
  4  3  2  0
  6  5  2  0
  6  1  1  0
  7 17  1  0
  7  5  1  0
  8  7  2  0
  9 17  1  0
 10 15  1  0
 11 12  1  0
 11 10  1  0
 13 12  1  0
 13 22  1  0
 13 14  1  0
 15  9  1  0
 15 14  1  0
 16  9  2  0
 17 18  1  0
 19 20  2  0
 20 21  1  0
 20 39  1  0
 21 24  1  0
 22 19  1  0
 22 23  1  0
 23 21  2  0
 24 25  1  0
 25 26  2  0
 27 30  1  0
 27 26  1  0
 28 27  2  0
 29 28  1  0
 29 24  2  0
 30 31  1  0
 31 32  1  0
 32 33  2  0
 34 33  1  0
 34 38  1  0
 35 34  2  0
 36 31  2  0
 36 35  1  0
 37 36  1  0
 39 40  1  0
 40 43  1  0
 40 42  1  0
 41 39  2  0
 44 45  1  0
 44 19  1  0
 46 44  1  0
 47 48  1  0
 48  8  1  0
 49 50  2  0
 50 51  1  0
 52 54  1  0
 52 49  1  0
 53 52  2  0
 55 57  1  0
 55 54  1  0
 56 67  2  0
 57 62  1  0
 58 66  1  0
 58 68  1  0
 59 65  1  0
 59 61  1  0
 60 66  1  0
 61 60  1  0
 62 61  2  0
 63 64  1  0
 63 57  2  0
 64 59  2  0
 65 58  1  0
 66 56  1  0
 68 70  2  0
 69 68  1  0
 71 69  1  0
 72 81  2  0
 72 77  1  0
 73 69  1  0
 73 77  1  0
 74 73  1  0
 75 76  1  0
 75 74  1  0
 76 72  1  0
 77 78  2  0
 78 79  1  0
 80 79  2  0
 81 80  1  0
 82 56  1  0
 82 83  1  0
 82 92  1  0
 83 86  1  0
 84 88  1  0
 84 83  1  0
 85 84  2  0
 88 87  1  0
 90 88  1  0
 90 91  1  0
 90 89  1  0
 92 95  1  1
 92 93  1  0
 94 92  1  0
M  ISO  4   9 100  17 100  54 101  55 101
M  END
>  <TORSDO>  (18) 
F 21

>  <SCORE>  (18) 
-13.167

>  <name>  (18) 
17

>  <ligand_id>  (18) 
17

>  <original_smiles>  (18) 
[H]N=C(C(=O)C([H])([H])Oc1c([H])c([H])c2c(c1[H])C([H])([H])N(C(=O)C([H])(N([H])C(=O)C([H])(N([H])C([H])([H])[H])C([H])([H])[H])C(C([H])([H])[H])(C([H])([H])[H])C([H])([H])[H])C([H])(C(=O)N([H])C1([H])c3c([H])c([H])c([H])c([H])c3C([H])([H])C([H])([H])C1([H])[H])C2([H])[H])C([H])=C([H])c1c([H])c([H])c(OC([H])([H])[H])c(N([H])C(=O)N2C([H])([H])C([H])([H])C([H])([H])C([H])(n3nc(-c4c([H])c([H])c(Oc5c([H])c([H])c(F)c([H])c5F)c([H])c4[H])c(C(=O)N([H])[H])c3N([H])[H])C2([H])[H])c1[H]

>  <smiles>  (18) 
[H]N=C(C(=O)C([H])([H])Oc1c([H])c([H])c2c(c1[H])C([H])([H])N(C(=O)C([H])(N([H])C(=O)C([H])(N([H])C([H])([H])[H])C([H])([H])[H])C(C([H])([H])[H])(C([H])([H])[H])C([H])([H])[H])C([H])(C(=O)N([H])C1([H])c3c([H])c([H])c([H])c([H])c3C([H])([H])C([H])([H])C1([H])[H])C2([H])[H])C([H])=C([H])c1c([H])c([H])c(OC([H])([H])[H])c(N([H])C(=O)N2C([H])([H])C([H])([H])C([H])([H])C([H])(n3nc(-c4c([H])c([H])c(Oc5c([H])c([H])c(F)c([H])c5F)c([H])c4[H])c(C(=O)N([H])[H])c3N([H])[H])C2([H])[H])c1[H]

$$$$
18:0:0
     RDKit          3D

 97105  0  0  1  0  0  0  0  0999 V2000
  -29.2170  -20.0960   20.5470 C   0  0  0  0  0  3  0  0  0  0  0  0
  -31.5360  -18.5930   20.1290 C   0  0  0  0  0  3  0  0  0  0  0  0
  -29.0920  -18.7350   20.1510 C   0  0  0  0  0  0  0  0  0  0  0  0
  -30.2770  -17.9830   19.9210 C   0  0  0  0  0  0  0  0  0  0  0  0
  -30.4850  -20.7140   20.7040 C   0  0  0  0  0  0  0  0  0  0  0  0
  -31.6440  -19.9320   20.5210 C   0  0  0  0  0  0  0  0  0  0  0  0
  -32.8710  -20.4820   20.6920 F   0  0  0  0  0  0  0  0  0  0  0  0
  -30.9400  -14.2980   20.0580 C   0  0  0  0  0  0  0  0  0  0  0  0
  -30.5350  -12.1470   18.9910 C   0  0  0  0  0  2  0  0  0  0  0  0
  -29.5560  -12.3790   17.8210 C   0  0  0  0  0  2  0  0  0  0  0  0
  -28.1030  -12.2480   18.3110 C   0  0  0  0  0  2  0  0  0  0  0  0
  -27.8190  -13.0910   19.5840 C   0  0  0  0  0  3  0  0  0  0  0  0
  -28.9200  -12.9040   20.6580 C   0  0  0  0  0  2  0  0  0  0  0  0
  -30.2260  -13.1460   20.0280 N   0  0  0  0  0  0  0  0  0  0  0  0
  -32.0830  -14.3960   19.5960 O   0  0  0  0  0  0  0  0  0  0  0  0
  -30.3420  -16.5870   19.4550 C   0  0  0  0  0  0  0  0  0  0  0  0
  -30.2250  -15.5190   20.2870 N   0  0  0  0  0  0  0  0  0  0  0  0
  -30.5920  -16.4310   18.1430 N   0  0  0  0  0  4  0  0  0  0  0  0
  -29.4830  -15.5960   20.9610 H   0  0  0  0  0  0  0  0  0  0  0  0
  -30.5600  -17.2290   17.5230 H   0  0  0  0  0  0  0  0  0  0  0  0
  -30.8870  -15.5480   17.7620 H   0  0  0  0  0  0  0  0  0  0  0  0
  -25.4460  -13.6750   20.3840 C   0  0  0  0  0  0  0  0  0  0  0  0
  -24.4020  -12.8980   20.8070 C   0  0  0  0  0  0  0  0  0  0  0  0
  -24.8720  -11.5490   20.7570 C   0  0  0  0  0  0  0  0  0  0  0  0
  -26.4880  -12.8040   20.1160 N   0  0  0  0  0  0  0  0  0  0  0  0
  -26.1490  -11.5200   20.3980 N   0  0  0  0  0  0  0  0  0  0  0  0
  -24.1620  -10.2850   20.9790 C   0  0  0  0  0  0  0  0  0  0  0  0
  -24.5620   -9.3810   21.9870 C   0  0  0  0  0  3  0  0  0  0  0  0
  -23.8570   -8.1760   22.1930 C   0  0  0  0  0  3  0  0  0  0  0  0
  -22.7320   -7.8670   21.3920 C   0  0  0  0  0  0  0  0  0  0  0  0
  -22.3510   -8.7600   20.3760 C   0  0  0  0  0  3  0  0  0  0  0  0
  -23.0580   -9.9570   20.1680 C   0  0  0  0  0  3  0  0  0  0  0  0
  -21.9990   -6.7100   21.5060 O   0  0  0  0  0  0  0  0  0  0  0  0
  -21.7670   -6.1210   22.7230 C   0  0  0  0  0  0  0  0  0  0  0  0
  -21.1060   -6.8030   23.7660 C   0  0  0  0  0  3  0  0  0  0  0  0
  -20.8290   -6.1380   24.9760 C   0  0  0  0  0  3  0  0  0  0  0  0
  -21.1990   -4.7900   25.1420 C   0  0  0  0  0  0  0  0  0  0  0  0
  -21.8490   -4.1070   24.0990 C   0  0  0  0  0  3  0  0  0  0  0  0
  -22.1310   -4.7710   22.8930 C   0  0  0  0  0  0  0  0  0  0  0  0
  -22.7400   -4.1000   21.8840 F   0  0  0  0  0  0  0  0  0  0  0  0
  -20.9270   -4.1480   26.3020 F   0  0  0  0  0  0  0  0  0  0  0  0
  -23.0140  -13.3640   21.1350 C   0  0  0  0  0  0  0  0  0  0  0  0
  -22.3370  -12.6880   22.0560 N   0  0  0  0  0  0  0  0  0  0  0  0
  -22.5370  -14.3670   20.6040 O   0  0  0  0  0  0  0  0  0  0  0  0
  -22.7300  -11.8750   22.5090 H   0  0  0  0  0  0  0  0  0  0  0  0
  -21.4050  -12.9840   22.3110 H   0  0  0  0  0  0  0  0  0  0  0  0
  -25.5920  -15.0440   20.1830 N   0  0  0  0  0  0  0  0  0  0  0  0
  -24.8090  -15.6760   20.3140 H   0  0  0  0  0  0  0  0  0  0  0  0
  -26.3140  -15.4420   19.6020 H   0  0  0  0  0  0  0  0  0  0  0  0
  -26.6650  -18.5380   20.7150 C   0  0  0  0  0  2  0  0  0  0  0  0
  -27.7440  -18.1460   20.0190 C   0  0  0  0  0  3  0  0  0  0  0  0
  -30.6810  -22.0380   21.0320 O   0  0  0  0  0  0  0  0  0  0  0  0
  -29.5310  -22.8230   21.3450 C   0  0  0  0  0  2  0  0  0  0  0  0
  -29.6970  -24.2530   20.8000 C   0  0  0  0  0  0  0  0  0  0  0  0
  -30.7790  -24.6650   20.3610 O   0  0  0  0  0  0  0  0  0  0  0  0
  -28.4340  -25.1200   20.7950 C   0  0  0  0  0  2  0  0  0  0  0  0
  -28.6780  -26.4670   20.3440 O   0  0  0  0  0  0  0  0  0  0  0  0
  -24.5820  -31.5140   23.2300 C   0  0  0  0  0  0  0  0  0  0  0  0
  -27.5210  -27.2060   20.2390 C   0  0  0  0  0  0  0  0  0  0  0  0
  -23.5100  -30.0940   21.5150 C   0  0  0  0  0  3  0  0  0  0  0  0
  -25.0860  -28.6400   20.1360 C   0  0  0  0  0  0  0  0  0  0  0  0
  -26.0270  -30.5480   21.4390 C   0  0  0  0  0  2  0  0  0  0  0  0
  -26.1960  -29.1880   20.7920 C   0  0  0  0  0  0  0  0  0  0  0  0
  -27.4180  -28.4810   20.8420 C   0  0  0  0  0  3  0  0  0  0  0  0
  -26.4010  -26.6850   19.5500 C   0  0  0  0  0  3  0  0  0  0  0  0
  -25.1870  -27.3900   19.5030 C   0  0  0  0  0  3  0  0  0  0  0  0
  -23.8100  -29.4510   20.1350 C   0  0  0  0  0  2  0  0  0  0  0  0
  -24.7240  -30.7330   22.1220 N   0  0  0  0  0  0  0  0  0  0  0  0
  -23.4680  -31.7350   23.7220 O   0  0  0  0  0  0  0  0  0  0  0  0
  -22.8550  -29.0320   22.4260 C   0  0  0  0  0  0  0  0  0  0  0  0
  -21.5450  -28.8030   22.2320 N   0  0  0  0  0  0  0  0  0  0  0  0
  -23.5230  -28.4180   23.2640 O   0  0  0  0  0  0  0  0  0  0  0  0
  -21.0680  -29.3470   21.5280 H   0  0  0  0  0  0  0  0  0  0  0  0
  -18.1780  -27.5520   22.6280 C   0  0  0  0  0  0  0  0  0  0  0  0
  -20.7290  -27.8250   22.9510 C   0  0  0  0  0  3  0  0  0  0  0  0
  -20.8560  -26.4210   22.3170 C   0  0  0  0  0  2  0  0  0  0  0  0
  -19.7730  -26.1300   21.2720 C   0  0  0  0  0  2  0  0  0  0  0  0
  -18.3800  -26.2340   21.9000 C   0  0  0  0  0  2  0  0  0  0  0  0
  -19.2810  -28.3060   23.1080 C   0  0  0  0  0  0  0  0  0  0  0  0
  -19.0400  -29.5410   23.7470 C   0  0  0  0  0  3  0  0  0  0  0  0
  -17.7280  -30.0240   23.9100 C   0  0  0  0  0  3  0  0  0  0  0  0
  -16.6380  -29.2660   23.4470 C   0  0  0  0  0  3  0  0  0  0  0  0
  -16.8650  -28.0310   22.8120 C   0  0  0  0  0  3  0  0  0  0  0  0
  -25.8120  -32.1830   23.9190 C   0  0  0  0  0  3  0  0  0  0  0  0
  -25.4590  -33.5830   24.1900 N   0  0  0  0  0  0  0  0  0  0  0  0
  -25.7880  -34.6170   23.4050 C   0  0  0  0  0  0  0  0  0  0  0  0
  -26.4960  -34.4970   22.4010 O   0  0  0  0  0  0  0  0  0  0  0  0
  -24.8310  -33.7480   24.9640 H   0  0  0  0  0  0  0  0  0  0  0  0
  -24.0150  -36.3390   22.9430 C   0  0  0  0  0  1  0  0  0  0  0  0
  -25.2500  -36.0080   23.7950 C   0  0  0  0  0  3  0  0  0  0  0  0
  -27.3330  -36.9990   24.6390 C   0  0  0  0  0  1  0  0  0  0  0  0
  -26.2520  -37.0870   23.6600 N   0  0  0  0  0  0  0  0  0  0  0  0
  -25.8140  -37.9990   23.7500 H   0  0  0  0  0  0  0  0  0  0  0  0
  -26.2570  -31.4470   25.2410 C   0  0  1  0  0  0  0  0  0  0  0  0
  -25.0990  -31.1960   26.2370 C   0  0  0  0  0  1  0  0  0  0  0  0
  -26.8960  -30.0770   24.9110 C   0  0  0  0  0  1  0  0  0  0  0  0
  -27.3430  -32.2790   25.9660 C   0  0  0  0  0  1  0  0  0  0  0  0
  1  5  1  0
  2  6  1  0
  3  1  2  0
  4  2  2  0
  4  3  1  0
  5 52  1  0
  6  7  1  0
  6  5  2  0
  8 17  1  0
  9 14  1  0
 10 11  1  0
 10  9  1  0
 12 11  1  0
 12 25  1  0
 12 13  1  0
 14  8  1  0
 14 13  1  0
 15  8  2  0
 16  4  1  0
 16 17  1  0
 17 19  1  0
 18 16  2  0
 20 18  1  0
 21 18  1  0
 22 23  2  0
 23 42  1  0
 24 23  1  0
 24 27  1  0
 25 22  1  0
 25 26  1  0
 26 24  2  0
 27 28  1  0
 28 29  2  0
 30 33  1  0
 30 29  1  0
 31 30  2  0
 32 31  1  0
 32 27  2  0
 33 34  1  0
 34 39  2  0
 34 35  1  0
 35 36  2  0
 36 37  1  0
 37 41  1  0
 38 37  2  0
 39 38  1  0
 40 39  1  0
 42 43  1  0
 43 46  1  0
 43 45  1  0
 44 42  2  0
 47 48  1  0
 47 22  1  0
 49 47  1  0
 51  3  1  0
 51 50  2  0
 52 53  1  0
 54 53  1  0
 55 54  2  0
 56 54  1  0
 57 56  1  0
 58 69  2  0
 59 57  1  0
 59 64  1  0
 60 68  1  0
 60 70  1  0
 61 63  1  0
 62 68  1  0
 63 64  2  0
 63 62  1  0
 65 59  2  0
 66 65  1  0
 66 61  2  0
 67 61  1  0
 67 60  1  0
 68 58  1  0
 70 72  2  0
 71 70  1  0
 73 71  1  0
 74 83  2  0
 74 79  1  0
 75 71  1  0
 75 79  1  0
 76 75  1  0
 77 78  1  0
 77 76  1  0
 78 74  1  0
 79 80  2  0
 80 81  1  0
 82 81  2  0
 83 82  1  0
 84 58  1  0
 84 85  1  0
 84 94  1  0
 85 88  1  0
 86 90  1  0
 86 85  1  0
 87 86  2  0
 90 89  1  0
 92 93  1  0
 92 90  1  0
 92 91  1  0
 94 97  1  1
 94 95  1  0
 96 94  1  0
M  ISO  4   8 100  17 100  56 101  57 101
M  END
>  <TORSDO>  (19) 
F 21

>  <SCORE>  (19) 
-11.805

>  <name>  (19) 
18

>  <ligand_id>  (19) 
18

>  <original_smiles>  (19) 
[H]C([H])=C([H])c1c([H])c(OC([H])([H])C(=O)C([H])([H])Oc2c([H])c([H])c3c(c2[H])C([H])([H])N(C(=O)C([H])(N([H])C(=O)C([H])(N([H])C([H])([H])[H])C([H])([H])[H])C(C([H])([H])[H])(C([H])([H])[H])C([H])([H])[H])C([H])(C(=O)N([H])C2([H])c4c([H])c([H])c([H])c([H])c4C([H])([H])C([H])([H])C2([H])[H])C3([H])[H])c(F)c([H])c1C(N([H])C(=O)N1C([H])([H])C([H])([H])C([H])([H])C([H])(n2nc(-c3c([H])c([H])c(Oc4c([H])c([H])c(F)c([H])c4F)c([H])c3[H])c(C(=O)N([H])[H])c2N([H])[H])C1([H])[H])=[N+]([H])[H]

>  <smiles>  (19) 
[H]C([H])=C([H])c1c([H])c(OC([H])([H])C(=O)C([H])([H])Oc2c([H])c([H])c3c(c2[H])C([H])([H])N(C(=O)C([H])(N([H])C(=O)C([H])(N([H])C([H])([H])[H])C([H])([H])[H])C(C([H])([H])[H])(C([H])([H])[H])C([H])([H])[H])C([H])(C(=O)N([H])C2([H])c4c([H])c([H])c([H])c([H])c4C([H])([H])C([H])([H])C2([H])[H])C3([H])[H])c(F)c([H])c1C(N([H])C(=O)N1C([H])([H])C([H])([H])C([H])([H])C([H])(n2nc(-c3c([H])c([H])c(Oc4c([H])c([H])c(F)c([H])c4F)c([H])c3[H])c(C(=O)N([H])[H])c2N([H])[H])C1([H])[H])=[N+]([H])[H]

$$$$
19:0:0
     RDKit          3D

 97105  0  0  1  0  0  0  0  0999 V2000
  -29.5400  -20.8300   19.4530 C   0  0  0  0  0  0  0  0  0  0  0  0
  -29.2680  -20.6930   18.1900 N   0  0  0  0  0  4  0  0  0  0  0  0
  -29.5340  -19.8640   17.6630 H   0  0  0  0  0  0  0  0  0  0  0  0
  -28.8120  -21.4050   17.6290 H   0  0  0  0  0  0  0  0  0  0  0  0
  -30.0290  -18.3010   19.6870 C   0  0  0  0  0  3  0  0  0  0  0  0
  -31.0680  -19.8880   21.2180 C   0  0  0  0  0  3  0  0  0  0  0  0
  -30.2220  -19.6510   20.1130 C   0  0  0  0  0  0  0  0  0  0  0  0
  -30.6650  -17.2170   20.3550 C   0  0  0  0  0  0  0  0  0  0  0  0
  -31.7200  -18.8240   21.8890 C   0  0  0  0  0  0  0  0  0  0  0  0
  -31.4840  -17.4920   21.4710 C   0  0  0  0  0  0  0  0  0  0  0  0
  -31.1230  -14.8090   19.7290 C   0  0  0  0  0  0  0  0  0  0  0  0
  -30.7860  -12.5520   18.7670 C   0  0  0  0  0  2  0  0  0  0  0  0
  -29.7580  -12.6650   17.6170 C   0  0  0  0  0  2  0  0  0  0  0  0
  -28.3110  -12.5830   18.1510 C   0  0  0  0  0  2  0  0  0  0  0  0
  -28.0680  -13.5250   19.3580 C   0  0  0  0  0  3  0  0  0  0  0  0
  -29.1890  -13.3570   20.4110 C   0  0  0  0  0  2  0  0  0  0  0  0
  -30.4730  -13.6130   19.7360 N   0  0  0  0  0  0  0  0  0  0  0  0
  -32.2460  -14.9630   19.2400 O   0  0  0  0  0  0  0  0  0  0  0  0
  -30.3270  -15.8510   20.0680 N   0  0  0  0  0  0  0  0  0  0  0  0
  -29.4010  -15.5650   20.3460 H   0  0  0  0  0  0  0  0  0  0  0  0
  -25.8150  -14.2790   20.3510 C   0  0  0  0  0  0  0  0  0  0  0  0
  -24.7120  -13.5760   20.7540 C   0  0  0  0  0  0  0  0  0  0  0  0
  -25.0340  -12.1970   20.5610 C   0  0  0  0  0  0  0  0  0  0  0  0
  -26.7420  -13.3330   19.9400 N   0  0  0  0  0  0  0  0  0  0  0  0
  -26.2810  -12.0700   20.1260 N   0  0  0  0  0  0  0  0  0  0  0  0
  -24.2060  -10.9920   20.7100 C   0  0  0  0  0  0  0  0  0  0  0  0
  -24.6000   -9.9280   21.5500 C   0  0  0  0  0  3  0  0  0  0  0  0
  -23.7810   -8.7870   21.6900 C   0  0  0  0  0  3  0  0  0  0  0  0
  -22.5540   -8.7030   20.9920 C   0  0  0  0  0  0  0  0  0  0  0  0
  -22.1780   -9.7560   20.1390 C   0  0  0  0  0  3  0  0  0  0  0  0
  -22.9960  -10.8890   19.9960 C   0  0  0  0  0  3  0  0  0  0  0  0
  -21.7040   -7.6250   21.0500 O   0  0  0  0  0  0  0  0  0  0  0  0
  -21.5940   -6.8550   22.1800 C   0  0  0  0  0  0  0  0  0  0  0  0
  -21.2180   -7.4090   23.4230 C   0  0  0  0  0  3  0  0  0  0  0  0
  -21.0470   -6.5700   24.5430 C   0  0  0  0  0  3  0  0  0  0  0  0
  -21.2430   -5.1810   24.4210 C   0  0  0  0  0  0  0  0  0  0  0  0
  -21.6140   -4.6290   23.1820 C   0  0  0  0  0  3  0  0  0  0  0  0
  -21.7860   -5.4640   22.0640 C   0  0  0  0  0  0  0  0  0  0  0  0
  -22.1220   -4.9240   20.8690 F   0  0  0  0  0  0  0  0  0  0  0  0
  -21.0730   -4.3750   25.4940 F   0  0  0  0  0  0  0  0  0  0  0  0
  -23.3970  -14.1470   21.2000 C   0  0  0  0  0  0  0  0  0  0  0  0
  -22.6920  -13.4480   22.0840 N   0  0  0  0  0  0  0  0  0  0  0  0
  -23.0080  -15.2440   20.8000 O   0  0  0  0  0  0  0  0  0  0  0  0
  -23.0200  -12.5580   22.4300 H   0  0  0  0  0  0  0  0  0  0  0  0
  -21.8110  -13.8110   22.4230 H   0  0  0  0  0  0  0  0  0  0  0  0
  -26.0980  -15.6420   20.2770 N   0  0  0  0  0  0  0  0  0  0  0  0
  -25.4060  -16.3480   20.5060 H   0  0  0  0  0  0  0  0  0  0  0  0
  -26.9340  -16.0320   19.8610 H   0  0  0  0  0  0  0  0  0  0  0  0
  -33.2670  -20.2310   23.1030 C   0  0  0  0  0  1  0  0  0  0  0  0
  -32.5320  -19.0120   22.9880 O   0  0  0  0  0  0  0  0  0  0  0  0
  -31.3060  -16.1440   23.3640 C   0  0  0  0  0  1  0  0  0  0  0  0
  -32.0200  -16.4410   22.1710 O   0  0  0  0  0  0  0  0  0  0  0  0
  -28.8080  -23.1040   19.5740 C   0  0  0  0  0  3  0  0  0  0  0  0
  -29.2440  -22.0130   20.1110 N   0  0  0  0  0  0  0  0  0  0  0  0
  -28.5090  -24.4110   20.3340 C   0  0  0  0  0  2  0  0  0  0  0  0
  -28.4620  -25.6810   19.4290 C   0  0  0  0  0  2  0  0  0  0  0  0
  -28.2920  -26.9300   20.1430 O   0  0  0  0  0  0  0  0  0  0  0  0
  -24.5140  -32.0770   23.3250 C   0  0  0  0  0  0  0  0  0  0  0  0
  -27.0930  -27.6300   20.1510 C   0  0  0  0  0  0  0  0  0  0  0  0
  -23.2720  -30.6940   21.6930 C   0  0  0  0  0  3  0  0  0  0  0  0
  -24.6940  -29.1620   20.2250 C   0  0  0  0  0  0  0  0  0  0  0  0
  -25.7990  -31.0370   21.4560 C   0  0  0  0  0  2  0  0  0  0  0  0
  -25.8650  -29.6710   20.7970 C   0  0  0  0  0  0  0  0  0  0  0  0
  -27.0610  -28.9140   20.7560 C   0  0  0  0  0  3  0  0  0  0  0  0
  -25.8930  -27.1340   19.5880 C   0  0  0  0  0  3  0  0  0  0  0  0
  -24.7070  -27.8940   19.6190 C   0  0  0  0  0  3  0  0  0  0  0  0
  -23.4540  -30.0270   20.3040 C   0  0  0  0  0  2  0  0  0  0  0  0
  -24.5470  -31.2880   22.2130 N   0  0  0  0  0  0  0  0  0  0  0  0
  -23.4460  -32.3460   23.8910 O   0  0  0  0  0  0  0  0  0  0  0  0
  -22.6360  -29.6660   22.6560 C   0  0  0  0  0  0  0  0  0  0  0  0
  -21.3180  -29.4500   22.5130 N   0  0  0  0  0  0  0  0  0  0  0  0
  -23.3250  -29.0670   23.4860 O   0  0  0  0  0  0  0  0  0  0  0  0
  -20.8260  -29.9880   21.8150 H   0  0  0  0  0  0  0  0  0  0  0  0
  -17.9790  -28.1240   22.9250 C   0  0  0  0  0  0  0  0  0  0  0  0
  -20.5130  -28.4990   23.2810 C   0  0  0  0  0  3  0  0  0  0  0  0
  -20.6960  -27.0590   22.7490 C   0  0  0  0  0  2  0  0  0  0  0  0
  -19.6440  -26.6620   21.7060 C   0  0  0  0  0  2  0  0  0  0  0  0
  -18.2340  -26.7650   22.2960 C   0  0  0  0  0  2  0  0  0  0  0  0
  -19.0490  -28.9450   23.3720 C   0  0  0  0  0  0  0  0  0  0  0  0
  -18.7560  -30.2130   23.9170 C   0  0  0  0  0  3  0  0  0  0  0  0
  -17.4260  -30.6640   24.0190 C   0  0  0  0  0  3  0  0  0  0  0  0
  -16.3700  -29.8420   23.5890 C   0  0  0  0  0  3  0  0  0  0  0  0
  -16.6470  -28.5740   23.0470 C   0  0  0  0  0  3  0  0  0  0  0  0
  -25.8150  -32.6950   23.9280 C   0  0  0  0  0  3  0  0  0  0  0  0
  -25.5250  -34.0960   24.2560 N   0  0  0  0  0  0  0  0  0  0  0  0
  -25.8490  -35.1420   23.4820 C   0  0  0  0  0  0  0  0  0  0  0  0
  -26.4960  -35.0270   22.4370 O   0  0  0  0  0  0  0  0  0  0  0  0
  -24.9470  -34.2620   25.0660 H   0  0  0  0  0  0  0  0  0  0  0  0
  -24.1180  -36.9400   23.1670 C   0  0  0  0  0  1  0  0  0  0  0  0
  -25.3820  -36.5370   23.9430 C   0  0  0  0  0  3  0  0  0  0  0  0
  -27.5450  -37.4200   24.6960 C   0  0  0  0  0  1  0  0  0  0  0  0
  -26.4140  -37.5850   23.7860 N   0  0  0  0  0  0  0  0  0  0  0  0
  -26.0160  -38.5080   23.9370 H   0  0  0  0  0  0  0  0  0  0  0  0
  -26.3380  -31.9220   25.1990 C   0  0  1  0  0  0  0  0  0  0  0  0
  -25.2510  -31.6770   26.2710 C   0  0  0  0  0  1  0  0  0  0  0  0
  -26.9250  -30.5470   24.8000 C   0  0  0  0  0  1  0  0  0  0  0  0
  -27.4840  -32.7230   25.8610 C   0  0  0  0  0  1  0  0  0  0  0  0
  1 54  1  0
  1  7  1  0
  2  1  2  0
  3  2  1  0
  4  2  1  0
  5  7  2  0
  5  8  1  0
  6  9  2  0
  7  6  1  0
  8 10  2  0
  9 50  1  0
 10  9  1  0
 10 52  1  0
 11 17  1  0
 11 19  1  0
 12 17  1  0
 13 14  1  0
 13 12  1  0
 15 14  1  0
 15 24  1  0
 15 16  1  0
 17 16  1  0
 18 11  2  0
 19 20  1  0
 19  8  1  0
 21 22  2  0
 22 41  1  0
 23 26  1  0
 23 22  1  0
 24 25  1  0
 24 21  1  0
 25 23  2  0
 26 27  1  0
 27 28  2  0
 29 32  1  0
 29 28  1  0
 30 29  2  0
 31 30  1  0
 31 26  2  0
 32 33  1  0
 33 34  1  0
 34 35  2  0
 36 35  1  0
 36 40  1  0
 37 36  2  0
 38 33  2  0
 38 37  1  0
 39 38  1  0
 41 42  1  0
 42 45  1  0
 42 44  1  0
 43 41  2  0
 46 21  1  0
 46 47  1  0
 48 46  1  0
 50 49  1  0
 52 51  1  0
 53 54  2  0
 53 55  1  0
 56 57  1  0
 56 55  1  0
 57 59  1  0
 58 69  2  0
 59 64  1  0
 60 68  1  0
 60 70  1  0
 61 67  1  0
 61 63  1  0
 62 68  1  0
 63 62  1  0
 64 63  2  0
 65 66  1  0
 65 59  2  0
 66 61  2  0
 67 60  1  0
 68 58  1  0
 70 72  2  0
 71 70  1  0
 73 71  1  0
 74 83  2  0
 74 79  1  0
 75 71  1  0
 75 79  1  0
 76 75  1  0
 77 78  1  0
 77 76  1  0
 78 74  1  0
 79 80  2  0
 80 81  1  0
 82 81  2  0
 83 82  1  0
 84 58  1  0
 84 85  1  0
 84 94  1  0
 85 88  1  0
 86 90  1  0
 86 85  1  0
 87 86  2  0
 90 89  1  0
 92 93  1  0
 92 90  1  0
 92 91  1  0
 94 97  1  1
 94 95  1  0
 96 94  1  0
M  ISO  4  11 100  19 100  56 101  57 101
M  END
>  <TORSDO>  (20) 
F 22

>  <SCORE>  (20) 
-9.322

>  <name>  (20) 
19

>  <ligand_id>  (20) 
19

>  <original_smiles>  (20) 
[H]C(=NC(c1c([H])c(OC([H])([H])[H])c(OC([H])([H])[H])c(N([H])C(=O)N2C([H])([H])C([H])([H])C([H])([H])C([H])(n3nc(-c4c([H])c([H])c(Oc5c([H])c([H])c(F)c([H])c5F)c([H])c4[H])c(C(=O)N([H])[H])c3N([H])[H])C2([H])[H])c1[H])=[N+]([H])[H])C([H])([H])C([H])([H])Oc1c([H])c([H])c2c(c1[H])C([H])([H])N(C(=O)C([H])(N([H])C(=O)C([H])(N([H])C([H])([H])[H])C([H])([H])[H])C(C([H])([H])[H])(C([H])([H])[H])C([H])([H])[H])C([H])(C(=O)N([H])C1([H])c3c([H])c([H])c([H])c([H])c3C([H])([H])C([H])([H])C1([H])[H])C2([H])[H]

>  <smiles>  (20) 
[H]C(=NC(c1c([H])c(OC([H])([H])[H])c(OC([H])([H])[H])c(N([H])C(=O)N2C([H])([H])C([H])([H])C([H])([H])C([H])(n3nc(-c4c([H])c([H])c(Oc5c([H])c([H])c(F)c([H])c5F)c([H])c4[H])c(C(=O)N([H])[H])c3N([H])[H])C2([H])[H])c1[H])=[N+]([H])[H])C([H])([H])C([H])([H])Oc1c([H])c([H])c2c(c1[H])C([H])([H])N(C(=O)C([H])(N([H])C(=O)C([H])(N([H])C([H])([H])[H])C([H])([H])[H])C(C([H])([H])[H])(C([H])([H])[H])C([H])([H])[H])C([H])(C(=O)N([H])C1([H])c3c([H])c([H])c([H])c([H])c3C([H])([H])C([H])([H])C1([H])[H])C2([H])[H]

$$$$
20:0:0
     RDKit          3D

 96104  0  0  1  0  0  0  0  0999 V2000
  -29.1090  -22.8880   20.3070 C   0  0  0  0  0  0  0  0  0  0  0  0
  -29.0520  -21.6240   20.8760 N   0  0  0  0  0  0  0  0  0  0  0  0
  -29.7090  -23.1160   19.2540 O   0  0  0  0  0  0  0  0  0  0  0  0
  -28.4390  -21.6920   21.6800 H   0  0  0  0  0  0  0  0  0  0  0  0
  -31.0900  -18.2820   20.8440 C   0  0  0  0  0  3  0  0  0  0  0  0
  -30.8250  -19.7020   20.8780 C   0  0  0  0  0  3  0  0  0  0  0  0
  -28.5690  -19.2680   20.2520 C   0  0  0  0  0  3  0  0  0  0  0  0
  -30.1010  -17.2890   20.5390 C   0  0  0  0  0  0  0  0  0  0  0  0
  -28.8260  -17.8570   20.1760 C   0  0  0  0  0  0  0  0  0  0  0  0
  -29.5320  -20.2440   20.6180 C   0  0  0  0  0  0  0  0  0  0  0  0
  -30.2520  -15.7400   20.8010 C   0  0  0  0  0  0  0  0  0  0  0  0
  -30.0260  -15.3300   21.9830 N   0  0  0  0  0  0  0  0  0  0  0  0
  -29.7430  -16.1030   22.5730 H   0  0  0  0  0  0  0  0  0  0  0  0
  -30.7170  -14.6450   19.7450 C   0  0  0  0  0  0  0  0  0  0  0  0
  -30.4060  -12.4060   18.6480 C   0  0  0  0  0  2  0  0  0  0  0  0
  -29.3260  -12.4860   17.5460 C   0  0  0  0  0  2  0  0  0  0  0  0
  -27.9140  -12.2940   18.1330 C   0  0  0  0  0  2  0  0  0  0  0  0
  -27.6860  -13.1380   19.4130 C   0  0  0  0  0  3  0  0  0  0  0  0
  -28.8630  -12.9930   20.4000 C   0  0  0  0  0  2  0  0  0  0  0  0
  -30.0920  -13.4070   19.7000 N   0  0  0  0  0  0  0  0  0  0  0  0
  -31.7090  -14.8610   19.0400 O   0  0  0  0  0  0  0  0  0  0  0  0
  -25.3920  -13.6960   20.4220 C   0  0  0  0  0  0  0  0  0  0  0  0
  -24.3770  -12.9090   20.8920 C   0  0  0  0  0  0  0  0  0  0  0  0
  -24.8270  -11.5610   20.7480 C   0  0  0  0  0  0  0  0  0  0  0  0
  -26.4020  -12.8300   20.0370 N   0  0  0  0  0  0  0  0  0  0  0  0
  -26.0720  -11.5360   20.2870 N   0  0  0  0  0  0  0  0  0  0  0  0
  -24.1210  -10.2920   20.9710 C   0  0  0  0  0  0  0  0  0  0  0  0
  -24.5780   -9.3490   21.9170 C   0  0  0  0  0  3  0  0  0  0  0  0
  -23.8720   -8.1450   22.1260 C   0  0  0  0  0  3  0  0  0  0  0  0
  -22.6950   -7.8750   21.3880 C   0  0  0  0  0  0  0  0  0  0  0  0
  -22.2580   -8.8060   20.4310 C   0  0  0  0  0  3  0  0  0  0  0  0
  -22.9640  -10.0010   20.2200 C   0  0  0  0  0  3  0  0  0  0  0  0
  -21.9590   -6.7210   21.5070 O   0  0  0  0  0  0  0  0  0  0  0  0
  -21.8430   -6.0600   22.7030 C   0  0  0  0  0  0  0  0  0  0  0  0
  -21.3000   -6.6820   23.8480 C   0  0  0  0  0  3  0  0  0  0  0  0
  -21.1350   -5.9450   25.0380 C   0  0  0  0  0  3  0  0  0  0  0  0
  -21.5050   -4.5880   25.0840 C   0  0  0  0  0  0  0  0  0  0  0  0
  -22.0410   -3.9660   23.9430 C   0  0  0  0  0  3  0  0  0  0  0  0
  -22.2070   -4.7000   22.7550 C   0  0  0  0  0  0  0  0  0  0  0  0
  -22.7050   -4.0910   21.6520 F   0  0  0  0  0  0  0  0  0  0  0  0
  -21.3400   -3.8770   26.2230 F   0  0  0  0  0  0  0  0  0  0  0  0
  -23.0280  -13.3750   21.3540 C   0  0  0  0  0  0  0  0  0  0  0  0
  -22.4150  -12.6500   22.2850 N   0  0  0  0  0  0  0  0  0  0  0  0
  -22.5280  -14.4130   20.9240 O   0  0  0  0  0  0  0  0  0  0  0  0
  -22.8350  -11.8090   22.6500 H   0  0  0  0  0  0  0  0  0  0  0  0
  -21.5140  -12.9410   22.6360 H   0  0  0  0  0  0  0  0  0  0  0  0
  -25.5270  -15.0700   20.2640 N   0  0  0  0  0  0  0  0  0  0  0  0
  -24.7810  -15.7140   20.5050 H   0  0  0  0  0  0  0  0  0  0  0  0
  -26.3070  -15.5220   19.8050 H   0  0  0  0  0  0  0  0  0  0  0  0
  -26.3870  -17.2900   19.8400 C   0  0  0  0  0  2  0  0  0  0  0  0
  -27.6940  -16.9800   19.7990 C   0  0  0  0  0  3  0  0  0  0  0  0
  -27.9310  -25.2230   20.9080 C   0  0  0  0  0  3  0  0  0  0  0  0
  -28.3560  -23.9130   21.1320 C   0  0  0  0  0  0  0  0  0  0  0  0
  -28.0190  -23.4640   22.3580 O   0  0  0  0  0  0  0  0  0  0  0  0
  -27.5810  -24.1730   22.8110 H   0  0  0  0  0  0  0  0  0  0  0  0
  -27.9950  -26.1890   19.8830 O   0  0  0  0  0  0  0  0  0  0  0  0
  -24.5160  -31.7460   23.0230 C   0  0  0  0  0  0  0  0  0  0  0  0
  -26.9560  -27.1410   19.8720 C   0  0  0  0  0  0  0  0  0  0  0  0
  -23.2410  -30.3740   21.4140 C   0  0  0  0  0  3  0  0  0  0  0  0
  -24.6250  -28.8050   19.9320 C   0  0  0  0  0  0  0  0  0  0  0  0
  -25.7790  -30.6500   21.1530 C   0  0  0  0  0  2  0  0  0  0  0  0
  -25.8200  -29.2690   20.5000 C   0  0  0  0  0  0  0  0  0  0  0  0
  -26.9920  -28.4460   20.4640 C   0  0  0  0  0  3  0  0  0  0  0  0
  -25.7450  -26.7400   19.2730 C   0  0  0  0  0  3  0  0  0  0  0  0
  -24.5900  -27.5490   19.3060 C   0  0  0  0  0  3  0  0  0  0  0  0
  -23.4030  -29.6990   20.0250 C   0  0  0  0  0  2  0  0  0  0  0  0
  -24.5320  -30.9410   21.9190 N   0  0  0  0  0  0  0  0  0  0  0  0
  -23.4550  -32.0400   23.5910 O   0  0  0  0  0  0  0  0  0  0  0  0
  -22.5870  -29.3660   22.3900 C   0  0  0  0  0  0  0  0  0  0  0  0
  -21.2560  -29.2100   22.2970 N   0  0  0  0  0  0  0  0  0  0  0  0
  -23.2750  -28.7310   23.1920 O   0  0  0  0  0  0  0  0  0  0  0  0
  -20.7630  -29.7780   21.6220 H   0  0  0  0  0  0  0  0  0  0  0  0
  -17.8710  -28.0760   22.9050 C   0  0  0  0  0  0  0  0  0  0  0  0
  -20.4420  -28.2820   23.0850 C   0  0  0  0  0  3  0  0  0  0  0  0
  -20.4920  -26.8550   22.4920 C   0  0  0  0  0  2  0  0  0  0  0  0
  -19.3490  -26.5660   21.5130 C   0  0  0  0  0  2  0  0  0  0  0  0
  -17.9940  -26.7310   22.2080 C   0  0  0  0  0  2  0  0  0  0  0  0
  -19.0200  -28.8110   23.3010 C   0  0  0  0  0  0  0  0  0  0  0  0
  -18.8490  -30.0690   23.9180 C   0  0  0  0  0  3  0  0  0  0  0  0
  -17.5620  -30.5950   24.1380 C   0  0  0  0  0  3  0  0  0  0  0  0
  -16.4270  -29.8580   23.7560 C   0  0  0  0  0  3  0  0  0  0  0  0
  -16.5840  -28.6000   23.1460 C   0  0  0  0  0  3  0  0  0  0  0  0
  -25.8280  -32.3520   23.6120 C   0  0  0  0  0  3  0  0  0  0  0  0
  -25.5320  -33.7260   24.0410 N   0  0  0  0  0  0  0  0  0  0  0  0
  -25.8360  -34.8250   23.3380 C   0  0  0  0  0  0  0  0  0  0  0  0
  -26.4700  -34.7890   22.2810 O   0  0  0  0  0  0  0  0  0  0  0  0
  -24.9710  -33.8300   24.8730 H   0  0  0  0  0  0  0  0  0  0  0  0
  -24.1010  -36.6390   23.1560 C   0  0  0  0  0  1  0  0  0  0  0  0
  -25.3660  -36.1820   23.9010 C   0  0  0  0  0  3  0  0  0  0  0  0
  -27.5290  -37.0090   24.7170 C   0  0  0  0  0  1  0  0  0  0  0  0
  -26.3980  -37.2410   23.8240 N   0  0  0  0  0  0  0  0  0  0  0  0
  -25.9990  -38.1490   24.0450 H   0  0  0  0  0  0  0  0  0  0  0  0
  -26.4190  -31.5110   24.8100 C   0  0  1  0  0  0  0  0  0  0  0  0
  -25.3780  -31.1800   25.9060 C   0  0  0  0  0  1  0  0  0  0  0  0
  -27.0090  -30.1730   24.3040 C   0  0  0  0  0  1  0  0  0  0  0  0
  -27.5810  -32.2860   25.4730 C   0  0  0  0  0  1  0  0  0  0  0  0
  1  2  1  0
  1 53  1  0
  2  4  1  0
  3  1  2  0
  5  6  1  0
  7 10  1  0
  8 11  1  0
  8  5  2  0
  9  7  2  0
  9  8  1  0
 10  2  1  0
 10  6  2  0
 11 12  2  0
 12 13  1  0
 14 11  1  0
 15 20  1  0
 16 17  1  0
 16 15  1  0
 18 17  1  0
 18 25  1  0
 18 19  1  0
 20 14  1  0
 20 19  1  0
 21 14  2  0
 22 23  2  0
 23 42  1  0
 24 23  1  0
 24 27  1  0
 25 26  1  0
 25 22  1  0
 26 24  2  0
 27 28  1  0
 28 29  2  0
 30 33  1  0
 30 29  1  0
 31 30  2  0
 32 31  1  0
 32 27  2  0
 33 34  1  0
 34 39  2  0
 34 35  1  0
 35 36  2  0
 36 37  1  0
 37 41  1  0
 38 37  2  0
 39 38  1  0
 40 39  1  0
 42 43  1  0
 43 46  1  0
 43 45  1  0
 44 42  2  0
 47 22  1  0
 47 48  1  0
 49 47  1  0
 51 50  2  0
 51  9  1  0
 52 53  2  0
 53 54  1  0
 54 55  1  0
 56 52  1  0
 57 68  2  0
 58 56  1  0
 58 63  1  0
 59 67  1  0
 59 69  1  0
 60 66  1  0
 60 62  1  0
 61 67  1  0
 62 61  1  0
 63 62  2  0
 64 65  1  0
 64 58  2  0
 65 60  2  0
 66 59  1  0
 67 57  1  0
 69 71  2  0
 70 69  1  0
 72 70  1  0
 73 82  2  0
 73 78  1  0
 74 70  1  0
 74 78  1  0
 75 74  1  0
 76 77  1  0
 76 75  1  0
 77 73  1  0
 78 79  2  0
 79 80  1  0
 81 80  2  0
 82 81  1  0
 83 57  1  0
 83 84  1  0
 83 93  1  0
 84 87  1  0
 85 89  1  0
 85 84  1  0
 86 85  2  0
 89 88  1  0
 91 89  1  0
 91 92  1  0
 91 90  1  0
 93 96  1  1
 93 94  1  0
 95 93  1  0
M  ISO  4  11 100  14 100  52 101  56 101
M  END
>  <TORSDO>  (21) 
F 21

>  <SCORE>  (21) 
-13.544

>  <name>  (21) 
20

>  <ligand_id>  (21) 
20

>  <original_smiles>  (21) 
[H]N=C(C(=O)N1C([H])([H])C([H])([H])C([H])([H])C([H])(n2nc(-c3c([H])c([H])c(Oc4c([H])c([H])c(F)c([H])c4F)c([H])c3[H])c(C(=O)N([H])[H])c2N([H])[H])C1([H])[H])c1c([H])c([H])c(N([H])C(=O)C(O[H])=C([H])Oc2c([H])c([H])c3c(c2[H])C([H])([H])N(C(=O)C([H])(N([H])C(=O)C([H])(N([H])C([H])([H])[H])C([H])([H])[H])C(C([H])([H])[H])(C([H])([H])[H])C([H])([H])[H])C([H])(C(=O)N([H])C2([H])c4c([H])c([H])c([H])c([H])c4C([H])([H])C([H])([H])C2([H])[H])C3([H])[H])c([H])c1C([H])=C([H])[H]

>  <smiles>  (21) 
[H]N=C(C(=O)N1C([H])([H])C([H])([H])C([H])([H])C([H])(n2nc(-c3c([H])c([H])c(Oc4c([H])c([H])c(F)c([H])c4F)c([H])c3[H])c(C(=O)N([H])[H])c2N([H])[H])C1([H])[H])c1c([H])c([H])c(N([H])C(=O)C(O[H])=C([H])Oc2c([H])c([H])c3c(c2[H])C([H])([H])N(C(=O)C([H])(N([H])C(=O)C([H])(N([H])C([H])([H])[H])C([H])([H])[H])C(C([H])([H])[H])(C([H])([H])[H])C([H])([H])[H])C([H])(C(=O)N([H])C2([H])c4c([H])c([H])c([H])c([H])c4C([H])([H])C([H])([H])C2([H])[H])C3([H])[H])c([H])c1C([H])=C([H])[H]

$$$$
21:0:0
     RDKit          3D

 92100  0  0  1  0  0  0  0  0999 V2000
  -29.2130  -21.3260   20.7360 N   0  0  0  0  0  0  0  0  0  0  0  0
  -28.9010  -21.3270   21.7030 H   0  0  0  0  0  0  0  0  0  0  0  0
  -29.5820  -18.8340   21.0020 C   0  0  0  0  0  3  0  0  0  0  0  0
  -30.3240  -18.2140   18.9940 C   0  0  0  0  0  3  0  0  0  0  0  0
  -30.0270  -17.6740   20.2280 C   0  0  0  0  0  0  0  0  0  0  0  0
  -29.6050  -20.0030   20.2440 C   0  0  0  0  0  0  0  0  0  0  0  0
  -30.2570  -20.4810   17.8460 C   0  0  0  0  0  1  0  0  0  0  0  0
  -30.0690  -19.6100   18.9900 N   0  0  0  0  0  0  0  0  0  0  0  0
  -30.0130  -16.1710   20.7240 C   0  0  0  0  0  0  0  0  0  0  0  0
  -29.3900  -16.0020   21.8120 N   0  0  0  0  0  0  0  0  0  0  0  0
  -29.0000  -16.8780   22.1340 H   0  0  0  0  0  0  0  0  0  0  0  0
  -30.7470  -14.9010   20.0120 C   0  0  0  0  0  0  0  0  0  0  0  0
  -30.5160  -12.6420   18.9310 C   0  0  0  0  0  2  0  0  0  0  0  0
  -29.4970  -12.7480   17.7690 C   0  0  0  0  0  2  0  0  0  0  0  0
  -28.0510  -12.5600   18.2720 C   0  0  0  0  0  2  0  0  0  0  0  0
  -27.7630  -13.3790   19.5580 C   0  0  0  0  0  3  0  0  0  0  0  0
  -28.8900  -13.1890   20.5920 C   0  0  0  0  0  2  0  0  0  0  0  0
  -30.1450  -13.6440   19.9660 N   0  0  0  0  0  0  0  0  0  0  0  0
  -31.8500  -15.0480   19.4700 O   0  0  0  0  0  0  0  0  0  0  0  0
  -25.4270  -13.9580   20.4440 C   0  0  0  0  0  0  0  0  0  0  0  0
  -24.3810  -13.1790   20.8560 C   0  0  0  0  0  0  0  0  0  0  0  0
  -24.8300  -11.8280   20.7490 C   0  0  0  0  0  0  0  0  0  0  0  0
  -26.4490  -13.0810   20.1150 N   0  0  0  0  0  0  0  0  0  0  0  0
  -26.0980  -11.7910   20.3550 N   0  0  0  0  0  0  0  0  0  0  0  0
  -24.1070  -10.5640   20.9430 C   0  0  0  0  0  0  0  0  0  0  0  0
  -24.5470   -9.5950   21.8710 C   0  0  0  0  0  3  0  0  0  0  0  0
  -23.8240   -8.3970   22.0520 C   0  0  0  0  0  3  0  0  0  0  0  0
  -22.6450   -8.1600   21.3050 C   0  0  0  0  0  0  0  0  0  0  0  0
  -22.2240   -9.1170   20.3650 C   0  0  0  0  0  3  0  0  0  0  0  0
  -22.9490  -10.3070   20.1820 C   0  0  0  0  0  3  0  0  0  0  0  0
  -21.8920   -7.0140   21.3950 O   0  0  0  0  0  0  0  0  0  0  0  0
  -21.7930   -6.3080   22.5680 C   0  0  0  0  0  0  0  0  0  0  0  0
  -21.2960   -6.8960   23.7520 C   0  0  0  0  0  3  0  0  0  0  0  0
  -21.1450   -6.1160   24.9160 C   0  0  0  0  0  3  0  0  0  0  0  0
  -21.4820   -4.7500   24.8970 C   0  0  0  0  0  0  0  0  0  0  0  0
  -21.9700   -4.1610   23.7180 C   0  0  0  0  0  3  0  0  0  0  0  0
  -22.1240   -4.9380   22.5550 C   0  0  0  0  0  0  0  0  0  0  0  0
  -22.5750   -4.3620   21.4160 F   0  0  0  0  0  0  0  0  0  0  0  0
  -21.3310   -3.9970   26.0120 F   0  0  0  0  0  0  0  0  0  0  0  0
  -23.0080  -13.6560   21.2370 C   0  0  0  0  0  0  0  0  0  0  0  0
  -22.3340  -12.9370   22.1280 N   0  0  0  0  0  0  0  0  0  0  0  0
  -22.5460  -14.7000   20.7790 O   0  0  0  0  0  0  0  0  0  0  0  0
  -22.7240  -12.0930   22.5180 H   0  0  0  0  0  0  0  0  0  0  0  0
  -21.4180  -13.2370   22.4290 H   0  0  0  0  0  0  0  0  0  0  0  0
  -25.5880  -15.3330   20.3000 N   0  0  0  0  0  0  0  0  0  0  0  0
  -24.8350  -15.9880   20.4810 H   0  0  0  0  0  0  0  0  0  0  0  0
  -26.4330  -15.7800   19.9660 H   0  0  0  0  0  0  0  0  0  0  0  0
  -29.0710  -22.7190   20.0970 C   0  0  0  0  0  2  0  0  0  0  0  0
  -28.1000  -25.2250   20.9610 C   0  0  0  0  0  3  0  0  0  0  0  0
  -28.3490  -23.8400   21.0040 C   0  0  0  0  0  0  0  0  0  0  0  0
  -27.7850  -23.1690   22.2560 C   0  0  0  0  0  1  0  0  0  0  0  0
  -28.3470  -26.3580   20.1360 O   0  0  0  0  0  0  0  0  0  0  0  0
  -24.6070  -31.8840   23.1350 C   0  0  0  0  0  0  0  0  0  0  0  0
  -27.3010  -27.3170   20.0860 C   0  0  0  0  0  0  0  0  0  0  0  0
  -23.4450  -30.4860   21.4670 C   0  0  0  0  0  3  0  0  0  0  0  0
  -24.9340  -28.9520   20.0510 C   0  0  0  0  0  0  0  0  0  0  0  0
  -25.9910  -30.8080   21.3350 C   0  0  0  0  0  2  0  0  0  0  0  0
  -26.0950  -29.4320   20.6750 C   0  0  0  0  0  0  0  0  0  0  0  0
  -27.2850  -28.6260   20.6830 C   0  0  0  0  0  3  0  0  0  0  0  0
  -26.1170  -26.9080   19.4380 C   0  0  0  0  0  3  0  0  0  0  0  0
  -24.9500  -27.6980   19.4220 C   0  0  0  0  0  3  0  0  0  0  0  0
  -23.6910  -29.8220   20.0860 C   0  0  0  0  0  2  0  0  0  0  0  0
  -24.6990  -31.0790   22.0350 N   0  0  0  0  0  0  0  0  0  0  0  0
  -23.5110  -32.1510   23.6500 O   0  0  0  0  0  0  0  0  0  0  0  0
  -22.7690  -29.4600   22.4110 C   0  0  0  0  0  0  0  0  0  0  0  0
  -21.4420  -29.2920   22.2770 N   0  0  0  0  0  0  0  0  0  0  0  0
  -23.4400  -28.8210   23.2260 O   0  0  0  0  0  0  0  0  0  0  0  0
  -20.9600  -29.8600   21.5950 H   0  0  0  0  0  0  0  0  0  0  0  0
  -18.0550  -28.1090   22.7620 C   0  0  0  0  0  0  0  0  0  0  0  0
  -20.6160  -28.3480   23.0320 C   0  0  0  0  0  3  0  0  0  0  0  0
  -20.7070  -26.9260   22.4300 C   0  0  0  0  0  2  0  0  0  0  0  0
  -19.6010  -26.6280   21.4120 C   0  0  0  0  0  2  0  0  0  0  0  0
  -18.2210  -26.7720   22.0600 C   0  0  0  0  0  2  0  0  0  0  0  0
  -19.1790  -28.8550   23.2040 C   0  0  0  0  0  0  0  0  0  0  0  0
  -18.9700  -30.1080   23.8210 C   0  0  0  0  0  3  0  0  0  0  0  0
  -17.6690  -30.6150   23.9990 C   0  0  0  0  0  3  0  0  0  0  0  0
  -16.5590  -29.8650   23.5720 C   0  0  0  0  0  3  0  0  0  0  0  0
  -16.7520  -28.6130   22.9600 C   0  0  0  0  0  3  0  0  0  0  0  0
  -25.8710  -32.5240   23.7840 C   0  0  0  0  0  3  0  0  0  0  0  0
  -26.3800  -31.7410   25.0570 C   0  0  1  0  0  0  0  0  0  0  0  0
  -25.2750  -31.4730   26.1040 C   0  0  0  0  0  1  0  0  0  0  0  0
  -26.9890  -30.3780   24.6560 C   0  0  0  0  0  1  0  0  0  0  0  0
  -27.5110  -32.5420   25.7440 C   0  0  0  0  0  1  0  0  0  0  0  0
  -25.5380  -33.9140   24.1330 N   0  0  0  0  0  0  0  0  0  0  0  0
  -25.8590  -34.9840   23.3950 C   0  0  0  0  0  0  0  0  0  0  0  0
  -26.5340  -34.9070   22.3650 O   0  0  0  0  0  0  0  0  0  0  0  0
  -24.9370  -34.0470   24.9340 H   0  0  0  0  0  0  0  0  0  0  0  0
  -24.1050  -36.7590   23.0680 C   0  0  0  0  0  1  0  0  0  0  0  0
  -25.3510  -36.3590   23.8740 C   0  0  0  0  0  3  0  0  0  0  0  0
  -27.4700  -37.2640   24.7250 C   0  0  0  0  0  1  0  0  0  0  0  0
  -26.3690  -37.4280   23.7790 N   0  0  0  0  0  0  0  0  0  0  0  0
  -25.9490  -38.3400   23.9370 H   0  0  0  0  0  0  0  0  0  0  0  0
  1  2  1  0
  4  5  2  0
  5  9  1  0
  5  3  1  0
  6  1  1  0
  6  3  2  0
  7  8  1  0
  8  4  1  0
  8  6  1  0
  9 10  2  0
 10 11  1  0
 12  9  1  0
 13 18  1  0
 14 15  1  0
 14 13  1  0
 16 15  1  0
 16 23  1  0
 16 17  1  0
 18 12  1  0
 18 17  1  0
 19 12  2  0
 20 21  2  0
 21 40  1  0
 22 21  1  0
 22 25  1  0
 23 24  1  0
 23 20  1  0
 24 22  2  0
 25 26  1  0
 26 27  2  0
 28 31  1  0
 28 27  1  0
 29 28  2  0
 30 29  1  0
 30 25  2  0
 31 32  1  0
 32 33  1  0
 33 34  2  0
 35 34  1  0
 35 39  1  0
 36 35  2  0
 37 32  2  0
 37 36  1  0
 38 37  1  0
 40 41  1  0
 41 44  1  0
 41 43  1  0
 42 40  2  0
 45 20  1  0
 45 46  1  0
 47 45  1  0
 48  1  1  0
 48 50  1  0
 49 50  2  0
 50 51  1  0
 52 49  1  0
 53 64  2  0
 54 52  1  0
 54 59  1  0
 55 63  1  0
 55 65  1  0
 56 62  1  0
 56 58  1  0
 57 63  1  0
 58 59  2  0
 58 57  1  0
 60 54  2  0
 61 60  1  0
 61 56  2  0
 62 55  1  0
 63 53  1  0
 65 67  2  0
 66 65  1  0
 68 66  1  0
 69 78  2  0
 69 74  1  0
 70 66  1  0
 70 74  1  0
 71 70  1  0
 72 73  1  0
 72 71  1  0
 73 69  1  0
 74 75  2  0
 75 76  1  0
 77 76  2  0
 78 77  1  0
 79 53  1  0
 79 84  1  0
 79 80  1  0
 80 83  1  1
 80 81  1  0
 82 80  1  0
 84 87  1  0
 85 89  1  0
 85 84  1  0
 86 85  2  0
 89 88  1  0
 91 89  1  0
 91 92  1  0
 91 90  1  0
M  ISO  4   9 100  12 100  49 101  52 101
M  END
>  <TORSDO>  (22) 
F 20

>  <SCORE>  (22) 
-13.265

>  <name>  (22) 
21

>  <ligand_id>  (22) 
21

>  <original_smiles>  (22) 
[H]N=C(C(=O)N1C([H])([H])C([H])([H])C([H])([H])C([H])(n2nc(-c3c([H])c([H])c(Oc4c([H])c([H])c(F)c([H])c4F)c([H])c3[H])c(C(=O)N([H])[H])c2N([H])[H])C1([H])[H])c1c([H])c(N([H])C([H])([H])C(=C([H])Oc2c([H])c([H])c3c(c2[H])C([H])([H])N(C(=O)C([H])(N([H])C(=O)C([H])(N([H])C([H])([H])[H])C([H])([H])[H])C(C([H])([H])[H])(C([H])([H])[H])C([H])([H])[H])C([H])(C(=O)N([H])C2([H])c4c([H])c([H])c([H])c([H])c4C([H])([H])C([H])([H])C2([H])[H])C3([H])[H])C([H])([H])[H])n(C([H])([H])[H])c1[H]

>  <smiles>  (22) 
[H]N=C(C(=O)N1C([H])([H])C([H])([H])C([H])([H])C([H])(n2nc(-c3c([H])c([H])c(Oc4c([H])c([H])c(F)c([H])c4F)c([H])c3[H])c(C(=O)N([H])[H])c2N([H])[H])C1([H])[H])c1c([H])c(N([H])C([H])([H])C(=C([H])Oc2c([H])c([H])c3c(c2[H])C([H])([H])N(C(=O)C([H])(N([H])C(=O)C([H])(N([H])C([H])([H])[H])C([H])([H])[H])C(C([H])([H])[H])(C([H])([H])[H])C([H])([H])[H])C([H])(C(=O)N([H])C2([H])c4c([H])c([H])c([H])c([H])c4C([H])([H])C([H])([H])C2([H])[H])C3([H])[H])C([H])([H])[H])n(C([H])([H])[H])c1[H]

$$$$
22:0:0
     RDKit          3D

 93101  0  0  1  0  0  0  0  0999 V2000
  -30.3010  -17.6050   21.4430 C   0  0  0  0  0  3  0  0  0  0  0  0
  -30.1150  -20.0620   21.2930 C   0  0  0  0  0  3  0  0  0  0  0  0
  -30.0410  -17.4260   20.0670 C   0  0  0  0  0  0  0  0  0  0  0  0
  -29.8820  -18.6800   19.2950 C   0  0  0  0  0  0  0  0  0  0  0  0
  -29.9040  -20.0260   19.9010 C   0  0  0  0  0  0  0  0  0  0  0  0
  -30.3300  -18.8830   22.0390 C   0  0  0  0  0  0  0  0  0  0  0  0
  -30.5550  -18.9800   23.3700 F   0  0  0  0  0  0  0  0  0  0  0  0
  -29.6920  -15.9530   19.6030 C   0  0  0  0  0  0  0  0  0  0  0  0
  -28.6300  -15.8500   18.9200 N   0  0  0  0  0  0  0  0  0  0  0  0
  -28.1880  -16.7530   18.7980 H   0  0  0  0  0  0  0  0  0  0  0  0
  -30.5570  -14.5900   19.8410 C   0  0  0  0  0  0  0  0  0  0  0  0
  -30.2180  -12.3490   18.7580 C   0  0  0  0  0  2  0  0  0  0  0  0
  -29.1320  -12.4560   17.6620 C   0  0  0  0  0  2  0  0  0  0  0  0
  -27.7270  -12.2480   18.2620 C   0  0  0  0  0  2  0  0  0  0  0  0
  -27.4980  -13.0780   19.5500 C   0  0  0  0  0  3  0  0  0  0  0  0
  -28.6920  -12.9840   20.5220 C   0  0  0  0  0  2  0  0  0  0  0  0
  -29.9040  -13.3690   19.7860 N   0  0  0  0  0  0  0  0  0  0  0  0
  -31.7630  -14.6320   19.5790 O   0  0  0  0  0  0  0  0  0  0  0  0
  -25.2580  -13.6550   20.6440 C   0  0  0  0  0  0  0  0  0  0  0  0
  -24.2230  -12.8750   21.0810 C   0  0  0  0  0  0  0  0  0  0  0  0
  -24.6370  -11.5220   20.8820 C   0  0  0  0  0  0  0  0  0  0  0  0
  -26.2310  -12.7740   20.1990 N   0  0  0  0  0  0  0  0  0  0  0  0
  -25.8770  -11.4820   20.4080 N   0  0  0  0  0  0  0  0  0  0  0  0
  -23.9030  -10.2640   21.0550 C   0  0  0  0  0  0  0  0  0  0  0  0
  -24.3490   -9.2670   21.9500 C   0  0  0  0  0  3  0  0  0  0  0  0
  -23.6160   -8.0730   22.1140 C   0  0  0  0  0  3  0  0  0  0  0  0
  -22.4220   -7.8670   21.3810 C   0  0  0  0  0  0  0  0  0  0  0  0
  -21.9950   -8.8540   20.4740 C   0  0  0  0  0  3  0  0  0  0  0  0
  -22.7290  -10.0390   20.3090 C   0  0  0  0  0  3  0  0  0  0  0  0
  -21.6580   -6.7280   21.4570 O   0  0  0  0  0  0  0  0  0  0  0  0
  -21.5640   -6.0020   22.6170 C   0  0  0  0  0  0  0  0  0  0  0  0
  -21.0240   -6.5510   23.7990 C   0  0  0  0  0  3  0  0  0  0  0  0
  -20.8820   -5.7480   24.9490 C   0  0  0  0  0  3  0  0  0  0  0  0
  -21.2690   -4.3950   24.9150 C   0  0  0  0  0  0  0  0  0  0  0  0
  -21.8030   -3.8450   23.7360 C   0  0  0  0  0  3  0  0  0  0  0  0
  -21.9470   -4.6460   22.5890 C   0  0  0  0  0  0  0  0  0  0  0  0
  -22.4420   -4.1050   21.4500 F   0  0  0  0  0  0  0  0  0  0  0  0
  -21.1260   -3.6210   26.0150 F   0  0  0  0  0  0  0  0  0  0  0  0
  -22.8860  -13.3570   21.5630 C   0  0  0  0  0  0  0  0  0  0  0  0
  -22.2470  -12.6030   22.4500 N   0  0  0  0  0  0  0  0  0  0  0  0
  -22.4200  -14.4310   21.1880 O   0  0  0  0  0  0  0  0  0  0  0  0
  -22.6390  -11.7310   22.7740 H   0  0  0  0  0  0  0  0  0  0  0  0
  -21.3530  -12.9020   22.8140 H   0  0  0  0  0  0  0  0  0  0  0  0
  -25.4440  -15.0320   20.5600 N   0  0  0  0  0  0  0  0  0  0  0  0
  -24.7180  -15.6930   20.8120 H   0  0  0  0  0  0  0  0  0  0  0  0
  -26.2510  -15.4710   20.1320 H   0  0  0  0  0  0  0  0  0  0  0  0
  -28.9180  -19.3860   17.0670 C   0  0  0  0  0  2  0  0  0  0  0  0
  -29.6300  -18.5520   17.8430 C   0  0  0  0  0  3  0  0  0  0  0  0
  -29.8900  -21.2790   19.1900 O   0  0  0  0  0  0  0  0  0  0  0  0
  -28.8510  -22.3730   19.2910 C   0  0  0  0  0  2  0  0  0  0  0  0
  -29.0210  -23.5980   20.2990 C   0  0  0  0  0  3  0  0  0  0  0  0
  -28.8850  -24.9970   20.3360 C   0  0  0  0  0  3  0  0  0  0  0  0
  -28.6190  -26.0490   19.4150 O   0  0  0  0  0  0  0  0  0  0  0  0
  -24.6180  -31.0880   22.9660 C   0  0  0  0  0  0  0  0  0  0  0  0
  -27.4910  -26.8950   19.5660 C   0  0  0  0  0  0  0  0  0  0  0  0
  -23.4960  -29.7420   21.2300 C   0  0  0  0  0  3  0  0  0  0  0  0
  -25.0350  -28.3940   19.6860 C   0  0  0  0  0  0  0  0  0  0  0  0
  -26.0140  -30.2230   21.0630 C   0  0  0  0  0  2  0  0  0  0  0  0
  -26.1810  -28.8970   20.3180 C   0  0  0  0  0  0  0  0  0  0  0  0
  -27.4150  -28.1620   20.2490 C   0  0  0  0  0  3  0  0  0  0  0  0
  -26.3170  -26.4640   18.9180 C   0  0  0  0  0  3  0  0  0  0  0  0
  -25.1080  -27.1860   18.9760 C   0  0  0  0  0  3  0  0  0  0  0  0
  -23.7460  -29.1880   19.8010 C   0  0  0  0  0  2  0  0  0  0  0  0
  -24.7280  -30.3680   21.8100 N   0  0  0  0  0  0  0  0  0  0  0  0
  -23.5230  -31.2520   23.5240 O   0  0  0  0  0  0  0  0  0  0  0  0
  -22.9060  -28.6150   22.1130 C   0  0  0  0  0  0  0  0  0  0  0  0
  -21.6040  -28.3260   21.9420 N   0  0  0  0  0  0  0  0  0  0  0  0
  -23.6210  -28.0080   22.9130 O   0  0  0  0  0  0  0  0  0  0  0  0
  -21.0810  -28.8740   21.2740 H   0  0  0  0  0  0  0  0  0  0  0  0
  -18.3630  -26.7390   22.2300 C   0  0  0  0  0  0  0  0  0  0  0  0
  -20.8620  -27.2700   22.6350 C   0  0  0  0  0  3  0  0  0  0  0  0
  -21.1500  -25.8850   22.0130 C   0  0  0  0  0  2  0  0  0  0  0  0
  -20.1380  -25.4860   20.9340 C   0  0  0  0  0  2  0  0  0  0  0  0
  -18.7220  -25.4480   21.5140 C   0  0  0  0  0  2  0  0  0  0  0  0
  -19.3680  -27.6020   22.7430 C   0  0  0  0  0  0  0  0  0  0  0  0
  -18.9810  -28.8060   23.3720 C   0  0  0  0  0  3  0  0  0  0  0  0
  -17.6210  -29.1490   23.4920 C   0  0  0  0  0  3  0  0  0  0  0  0
  -16.6300  -28.2840   22.9950 C   0  0  0  0  0  3  0  0  0  0  0  0
  -17.0020  -27.0800   22.3700 C   0  0  0  0  0  3  0  0  0  0  0  0
  -25.8600  -31.7580   23.6300 C   0  0  0  0  0  3  0  0  0  0  0  0
  -25.4780  -33.1260   24.0120 N   0  0  0  0  0  0  0  0  0  0  0  0
  -25.7670  -34.2240   23.3000 C   0  0  0  0  0  0  0  0  0  0  0  0
  -26.4510  -34.1950   22.2740 O   0  0  0  0  0  0  0  0  0  0  0  0
  -24.8680  -33.2190   24.8100 H   0  0  0  0  0  0  0  0  0  0  0  0
  -23.9530  -35.9450   23.0080 C   0  0  0  0  0  1  0  0  0  0  0  0
  -25.2110  -35.5690   23.8090 C   0  0  0  0  0  3  0  0  0  0  0  0
  -27.2840  -36.5380   24.7010 C   0  0  0  0  0  1  0  0  0  0  0  0
  -26.1900  -36.6750   23.7420 N   0  0  0  0  0  0  0  0  0  0  0  0
  -25.7360  -37.5690   23.9040 H   0  0  0  0  0  0  0  0  0  0  0  0
  -26.3950  -30.9630   24.8860 C   0  0  1  0  0  0  0  0  0  0  0  0
  -25.3020  -30.6440   25.9330 C   0  0  0  0  0  1  0  0  0  0  0  0
  -27.0380  -29.6250   24.4540 C   0  0  0  0  0  1  0  0  0  0  0  0
  -27.5050  -31.7800   25.5870 C   0  0  0  0  0  1  0  0  0  0  0  0
  1  6  1  0
  2  6  2  0
  3  1  2  0
  4  5  2  0
  4  3  1  0
  5  2  1  0
  6  7  1  0
  8 11  1  0
  8  3  1  0
  9  8  2  0
 10  9  1  0
 12 17  1  0
 13 14  1  0
 13 12  1  0
 15 14  1  0
 15 22  1  0
 15 16  1  0
 17 11  1  0
 17 16  1  0
 18 11  2  0
 19 20  2  0
 20 39  1  0
 21 24  1  0
 21 20  1  0
 22 23  1  0
 22 19  1  0
 23 21  2  0
 24 25  1  0
 25 26  2  0
 27 30  1  0
 27 26  1  0
 28 27  2  0
 29 28  1  0
 29 24  2  0
 30 31  1  0
 31 32  1  0
 32 33  2  0
 34 33  1  0
 34 38  1  0
 35 34  2  0
 36 31  2  0
 36 35  1  0
 37 36  1  0
 39 40  1  0
 40 42  1  0
 40 43  1  0
 41 39  2  0
 44 19  1  0
 44 45  1  0
 46 44  1  0
 47 48  2  0
 48  4  1  0
 49 50  1  0
 49  5  1  0
 50 51  1  0
 51 52  2  0
 53 55  1  0
 53 52  1  0
 54 65  2  0
 55 60  1  0
 56 64  1  0
 56 66  1  0
 57 63  1  0
 57 59  1  0
 58 64  1  0
 59 58  1  0
 60 59  2  0
 61 62  1  0
 61 55  2  0
 62 57  2  0
 63 56  1  0
 64 54  1  0
 66 68  2  0
 67 66  1  0
 69 67  1  0
 70 79  2  0
 70 75  1  0
 71 67  1  0
 71 75  1  0
 72 71  1  0
 73 74  1  0
 73 72  1  0
 74 70  1  0
 75 76  2  0
 76 77  1  0
 78 77  2  0
 79 78  1  0
 80 54  1  0
 80 81  1  0
 80 90  1  0
 81 84  1  0
 82 86  1  0
 82 81  1  0
 83 82  2  0
 86 85  1  0
 88 86  1  0
 88 89  1  0
 88 87  1  0
 90 93  1  1
 90 91  1  0
 92 90  1  0
M  ISO  4   8 100  11 100  52 101  53 101
M  END
>  <TORSDO>  (23) 
F 21

>  <SCORE>  (23) 
-10.998

>  <name>  (23) 
22

>  <ligand_id>  (23) 
22

>  <original_smiles>  (23) 
[H]N=C(C(=O)N1C([H])([H])C([H])([H])C([H])([H])C([H])(n2nc(-c3c([H])c([H])c(Oc4c([H])c([H])c(F)c([H])c4F)c([H])c3[H])c(C(=O)N([H])[H])c2N([H])[H])C1([H])[H])c1c([H])c(F)c([H])c(OC([H])([H])C([H])=C([H])Oc2c([H])c([H])c3c(c2[H])C([H])([H])N(C(=O)C([H])(N([H])C(=O)C([H])(N([H])C([H])([H])[H])C([H])([H])[H])C(C([H])([H])[H])(C([H])([H])[H])C([H])([H])[H])C([H])(C(=O)N([H])C2([H])c4c([H])c([H])c([H])c([H])c4C([H])([H])C([H])([H])C2([H])[H])C3([H])[H])c1C([H])=C([H])[H]

>  <smiles>  (23) 
[H]N=C(C(=O)N1C([H])([H])C([H])([H])C([H])([H])C([H])(n2nc(-c3c([H])c([H])c(Oc4c([H])c([H])c(F)c([H])c4F)c([H])c3[H])c(C(=O)N([H])[H])c2N([H])[H])C1([H])[H])c1c([H])c(F)c([H])c(OC([H])([H])C([H])=C([H])Oc2c([H])c([H])c3c(c2[H])C([H])([H])N(C(=O)C([H])(N([H])C(=O)C([H])(N([H])C([H])([H])[H])C([H])([H])[H])C(C([H])([H])[H])(C([H])([H])[H])C([H])([H])[H])C([H])(C(=O)N([H])C2([H])c4c([H])c([H])c([H])c([H])c4C([H])([H])C([H])([H])C2([H])[H])C3([H])[H])c1C([H])=C([H])[H]

$$$$
23:0:0
     RDKit          3D

 95103  0  0  1  0  0  0  0  0999 V2000
  -30.0650  -20.4750   19.5730 C   0  0  0  0  0  0  0  0  0  0  0  0
  -30.0710  -21.6780   20.1950 N   0  0  0  0  0  0  0  0  0  0  0  0
  -29.6260  -20.3730   18.4270 O   0  0  0  0  0  0  0  0  0  0  0  0
  -30.4830  -21.7100   21.1150 H   0  0  0  0  0  0  0  0  0  0  0  0
  -30.5060  -17.9140   19.7610 C   0  0  0  0  0  3  0  0  0  0  0  0
  -31.2770  -17.7870   21.8770 C   0  0  0  0  0  3  0  0  0  0  0  0
  -30.9170  -17.0290   20.8070 C   0  0  0  0  0  0  0  0  0  0  0  0
  -30.5620  -19.2100   20.2470 C   0  0  0  0  0  0  0  0  0  0  0  0
  -31.0430  -19.1220   21.5680 N   0  0  0  0  0  0  0  0  0  0  0  0
  -31.3390  -14.6270   20.1130 C   0  0  0  0  0  0  0  0  0  0  0  0
  -30.8880  -12.4190   19.0810 C   0  0  0  0  0  2  0  0  0  0  0  0
  -29.9320  -12.5990   17.8810 C   0  0  0  0  0  2  0  0  0  0  0  0
  -28.4600  -12.5890   18.3410 C   0  0  0  0  0  2  0  0  0  0  0  0
  -28.2090  -13.5300   19.5480 C   0  0  0  0  0  3  0  0  0  0  0  0
  -29.2620  -13.2910   20.6540 C   0  0  0  0  0  2  0  0  0  0  0  0
  -30.6030  -13.4770   20.0640 N   0  0  0  0  0  0  0  0  0  0  0  0
  -32.4070  -14.7640   19.5060 O   0  0  0  0  0  0  0  0  0  0  0  0
  -30.8220  -15.6020   20.8900 N   0  0  0  0  0  0  0  0  0  0  0  0
  -30.1200  -15.2650   21.5320 H   0  0  0  0  0  0  0  0  0  0  0  0
  -25.9160  -14.3760   20.3640 C   0  0  0  0  0  0  0  0  0  0  0  0
  -24.7750  -13.7180   20.7360 C   0  0  0  0  0  0  0  0  0  0  0  0
  -25.0710  -12.3250   20.6300 C   0  0  0  0  0  0  0  0  0  0  0  0
  -26.8430  -13.3920   20.0580 N   0  0  0  0  0  0  0  0  0  0  0  0
  -26.3380  -12.1490   20.2750 N   0  0  0  0  0  0  0  0  0  0  0  0
  -24.2080  -11.1480   20.7910 C   0  0  0  0  0  0  0  0  0  0  0  0
  -24.5620  -10.0860   21.6510 C   0  0  0  0  0  3  0  0  0  0  0  0
  -23.7060   -8.9740   21.8030 C   0  0  0  0  0  3  0  0  0  0  0  0
  -22.4820   -8.9170   21.0940 C   0  0  0  0  0  0  0  0  0  0  0  0
  -22.1460   -9.9690   20.2220 C   0  0  0  0  0  3  0  0  0  0  0  0
  -23.0000  -11.0720   20.0690 C   0  0  0  0  0  3  0  0  0  0  0  0
  -21.6000   -7.8650   21.1580 O   0  0  0  0  0  0  0  0  0  0  0  0
  -21.5090   -7.0710   22.2730 C   0  0  0  0  0  0  0  0  0  0  0  0
  -21.2070   -7.6050   23.5460 C   0  0  0  0  0  3  0  0  0  0  0  0
  -21.0510   -6.7450   24.6510 C   0  0  0  0  0  3  0  0  0  0  0  0
  -21.1880   -5.3540   24.4870 C   0  0  0  0  0  0  0  0  0  0  0  0
  -21.4830   -4.8190   23.2210 C   0  0  0  0  0  3  0  0  0  0  0  0
  -21.6400   -5.6760   22.1170 C   0  0  0  0  0  0  0  0  0  0  0  0
  -21.9020   -5.1550   20.8940 F   0  0  0  0  0  0  0  0  0  0  0  0
  -21.0320   -4.5280   25.5470 F   0  0  0  0  0  0  0  0  0  0  0  0
  -23.4520  -14.3430   21.0780 C   0  0  0  0  0  0  0  0  0  0  0  0
  -22.6870  -13.7130   21.9620 N   0  0  0  0  0  0  0  0  0  0  0  0
  -23.1110  -15.4230   20.5970 O   0  0  0  0  0  0  0  0  0  0  0  0
  -22.9740  -12.8390   22.3760 H   0  0  0  0  0  0  0  0  0  0  0  0
  -21.7990  -14.1140   22.2310 H   0  0  0  0  0  0  0  0  0  0  0  0
  -26.2330  -15.7240   20.2420 N   0  0  0  0  0  0  0  0  0  0  0  0
  -25.5520  -16.4570   20.4100 H   0  0  0  0  0  0  0  0  0  0  0  0
  -27.1270  -16.0800   19.9260 H   0  0  0  0  0  0  0  0  0  0  0  0
  -31.1940  -20.1600   22.5790 C   0  0  0  0  0  2  0  0  0  0  0  0
  -29.6170  -22.1340   22.7800 C   0  0  0  0  0  2  0  0  0  0  0  0
  -29.8590  -20.8180   22.8650 C   0  0  0  0  0  3  0  0  0  0  0  0
  -29.2170  -22.8290   19.7960 C   0  0  0  0  0  2  0  0  0  0  0  0
  -29.6560  -24.2790   20.2240 C   0  0  0  0  0  2  0  0  0  0  0  0
  -27.7580  -24.9910   21.7190 C   0  0  0  0  0  1  0  0  0  0  0  0
  -28.4360  -25.2610   20.3530 C   0  0  0  0  0  3  0  0  0  0  0  0
  -28.6730  -26.7040   20.2140 O   0  0  0  0  0  0  0  0  0  0  0  0
  -24.6760  -31.7570   23.3400 C   0  0  0  0  0  0  0  0  0  0  0  0
  -27.5330  -27.5090   20.1230 C   0  0  0  0  0  0  0  0  0  0  0  0
  -23.5650  -30.4080   21.5950 C   0  0  0  0  0  3  0  0  0  0  0  0
  -25.1060  -28.9980   20.1310 C   0  0  0  0  0  0  0  0  0  0  0  0
  -26.0900  -30.8340   21.5010 C   0  0  0  0  0  2  0  0  0  0  0  0
  -26.2360  -29.5020   20.7870 C   0  0  0  0  0  0  0  0  0  0  0  0
  -27.4540  -28.7670   20.7800 C   0  0  0  0  0  3  0  0  0  0  0  0
  -26.3840  -27.0640   19.4230 C   0  0  0  0  0  3  0  0  0  0  0  0
  -25.1790  -27.7810   19.4410 C   0  0  0  0  0  3  0  0  0  0  0  0
  -23.8350  -29.8180   20.1870 C   0  0  0  0  0  2  0  0  0  0  0  0
  -24.7930  -31.0110   22.2040 N   0  0  0  0  0  0  0  0  0  0  0  0
  -23.5700  -31.9720   23.8570 O   0  0  0  0  0  0  0  0  0  0  0  0
  -22.9140  -29.3210   22.4800 C   0  0  0  0  0  0  0  0  0  0  0  0
  -21.5960  -29.1140   22.3070 N   0  0  0  0  0  0  0  0  0  0  0  0
  -23.5900  -28.6710   23.2810 O   0  0  0  0  0  0  0  0  0  0  0  0
  -21.1110  -29.6900   21.6340 H   0  0  0  0  0  0  0  0  0  0  0  0
  -18.2450  -27.8000   22.6520 C   0  0  0  0  0  0  0  0  0  0  0  0
  -20.7860  -28.1150   23.0060 C   0  0  0  0  0  3  0  0  0  0  0  0
  -20.9460  -26.7210   22.3570 C   0  0  0  0  0  2  0  0  0  0  0  0
  -19.8780  -26.4250   21.2970 C   0  0  0  0  0  2  0  0  0  0  0  0
  -18.4800  -26.4910   21.9170 C   0  0  0  0  0  2  0  0  0  0  0  0
  -19.3300  -28.5710   23.1490 C   0  0  0  0  0  0  0  0  0  0  0  0
  -19.0580  -29.7970   23.7920 C   0  0  0  0  0  3  0  0  0  0  0  0
  -17.7350  -30.2550   23.9410 C   0  0  0  0  0  3  0  0  0  0  0  0
  -16.6650  -29.4790   23.4620 C   0  0  0  0  0  3  0  0  0  0  0  0
  -16.9210  -28.2530   22.8230 C   0  0  0  0  0  3  0  0  0  0  0  0
  -25.9230  -32.3940   24.0280 C   0  0  0  0  0  3  0  0  0  0  0  0
  -25.5850  -33.7850   24.3590 N   0  0  0  0  0  0  0  0  0  0  0  0
  -25.9420  -34.8490   23.6280 C   0  0  0  0  0  0  0  0  0  0  0  0
  -26.6650  -34.7620   22.6300 O   0  0  0  0  0  0  0  0  0  0  0  0
  -24.9550  -33.9250   25.1350 H   0  0  0  0  0  0  0  0  0  0  0  0
  -24.2120  -36.6240   23.2060 C   0  0  0  0  0  1  0  0  0  0  0  0
  -25.4180  -36.2270   24.0710 C   0  0  0  0  0  3  0  0  0  0  0  0
  -27.5000  -37.1300   25.0110 C   0  0  0  0  0  1  0  0  0  0  0  0
  -26.4420  -37.2930   24.0170 N   0  0  0  0  0  0  0  0  0  0  0  0
  -26.0190  -38.2070   24.1510 H   0  0  0  0  0  0  0  0  0  0  0  0
  -26.3840  -31.6120   25.3190 C   0  0  1  0  0  0  0  0  0  0  0  0
  -25.2420  -31.3540   26.3310 C   0  0  0  0  0  1  0  0  0  0  0  0
  -26.9970  -30.2430   24.9400 C   0  0  0  0  0  1  0  0  0  0  0  0
  -27.4950  -32.4060   26.0450 C   0  0  0  0  0  1  0  0  0  0  0  0
  1  2  1  0
  1  8  1  0
  2  4  1  0
  3  1  2  0
  5  8  2  0
  5  7  1  0
  7 18  1  0
  7  6  2  0
  8  9  1  0
  9  6  1  0
  9 48  1  0
 10 18  1  0
 11 16  1  0
 12 13  1  0
 12 11  1  0
 14 13  1  0
 14 23  1  0
 14 15  1  0
 16 10  1  0
 16 15  1  0
 17 10  2  0
 18 19  1  0
 20 21  2  0
 21 40  1  0
 22 21  1  0
 22 25  1  0
 23 24  1  0
 23 20  1  0
 24 22  2  0
 25 26  1  0
 26 27  2  0
 28 31  1  0
 28 27  1  0
 29 28  2  0
 30 29  1  0
 30 25  2  0
 31 32  1  0
 32 33  1  0
 33 34  2  0
 35 34  1  0
 35 39  1  0
 36 35  2  0
 37 32  2  0
 37 36  1  0
 38 37  1  0
 40 41  1  0
 41 44  1  0
 41 43  1  0
 42 40  2  0
 45 20  1  0
 45 46  1  0
 47 45  1  0
 48 50  1  0
 49 50  2  0
 51  2  1  0
 51 52  1  0
 52 54  1  0
 54 53  1  0
 55 54  1  0
 56 67  2  0
 57 55  1  0
 57 62  1  0
 58 66  1  0
 58 68  1  0
 59 65  1  0
 59 61  1  0
 60 66  1  0
 61 60  1  0
 62 61  2  0
 63 64  1  0
 63 57  2  0
 64 59  2  0
 65 58  1  0
 66 56  1  0
 68 70  2  0
 69 68  1  0
 71 69  1  0
 72 81  2  0
 72 77  1  0
 73 69  1  0
 73 77  1  0
 74 73  1  0
 75 76  1  0
 75 74  1  0
 76 72  1  0
 77 78  2  0
 78 79  1  0
 80 79  2  0
 81 80  1  0
 82 56  1  0
 82 83  1  0
 82 92  1  0
 83 86  1  0
 84 88  1  0
 84 83  1  0
 85 84  2  0
 88 87  1  0
 90 88  1  0
 90 91  1  0
 90 89  1  0
 92 95  1  1
 92 93  1  0
 94 92  1  0
M  ISO  4  10 100  18 100  54 101  55 101
M  END
>  <TORSDO>  (24) 
F 22

>  <SCORE>  (24) 
-12.078

>  <name>  (24) 
23

>  <ligand_id>  (24) 
23

>  <original_smiles>  (24) 
[H]C([H])=C([H])C([H])([H])n1c([H])c(N([H])C(=O)N2C([H])([H])C([H])([H])C([H])([H])C([H])(n3nc(-c4c([H])c([H])c(Oc5c([H])c([H])c(F)c([H])c5F)c([H])c4[H])c(C(=O)N([H])[H])c3N([H])[H])C2([H])[H])c([H])c1C(=O)N([H])C([H])([H])C([H])([H])C([H])(Oc1c([H])c([H])c2c(c1[H])C([H])([H])N(C(=O)C([H])(N([H])C(=O)C([H])(N([H])C([H])([H])[H])C([H])([H])[H])C(C([H])([H])[H])(C([H])([H])[H])C([H])([H])[H])C([H])(C(=O)N([H])C1([H])c3c([H])c([H])c([H])c([H])c3C([H])([H])C([H])([H])C1([H])[H])C2([H])[H])C([H])([H])[H]

>  <smiles>  (24) 
[H]C([H])=C([H])C([H])([H])n1c([H])c(N([H])C(=O)N2C([H])([H])C([H])([H])C([H])([H])C([H])(n3nc(-c4c([H])c([H])c(Oc5c([H])c([H])c(F)c([H])c5F)c([H])c4[H])c(C(=O)N([H])[H])c3N([H])[H])C2([H])[H])c([H])c1C(=O)N([H])C([H])([H])C([H])([H])C([H])(Oc1c([H])c([H])c2c(c1[H])C([H])([H])N(C(=O)C([H])(N([H])C(=O)C([H])(N([H])C([H])([H])[H])C([H])([H])[H])C(C([H])([H])[H])(C([H])([H])[H])C([H])([H])[H])C([H])(C(=O)N([H])C1([H])c3c([H])c([H])c([H])c([H])c3C([H])([H])C([H])([H])C1([H])[H])C2([H])[H])C([H])([H])[H]

$$$$
24:0:0
     RDKit          3D

 97105  0  0  1  0  0  0  0  0999 V2000
  -29.9530  -20.4800   18.6980 C   0  0  0  0  0  3  0  0  0  0  0  0
  -30.2220  -18.0520   19.0270 C   0  0  0  0  0  0  0  0  0  0  0  0
  -30.3710  -18.2600   20.4300 C   0  0  0  0  0  0  0  0  0  0  0  0
  -30.0910  -20.7240   20.0830 C   0  0  0  0  0  0  0  0  0  0  0  0
  -30.0120  -19.1730   18.1780 C   0  0  0  0  0  0  0  0  0  0  0  0
  -30.3170  -19.5990   20.9280 C   0  0  0  0  0  0  0  0  0  0  0  0
  -30.5110  -19.8160   22.2510 F   0  0  0  0  0  0  0  0  0  0  0  0
  -29.8710  -19.0100   16.8000 N   0  0  0  0  0  0  0  0  0  0  0  0
  -30.1330  -19.7890   16.2040 H   0  0  0  0  0  0  0  0  0  0  0  0
  -30.1980  -18.1210   16.4370 H   0  0  0  0  0  0  0  0  0  0  0  0
  -31.2980  -16.2350   17.6860 C   0  0  0  0  0  2  0  0  0  0  0  0
  -30.2780  -16.7070   18.4220 C   0  0  0  0  0  3  0  0  0  0  0  0
  -29.3870  -22.9800   20.1080 C   0  0  0  0  0  3  0  0  0  0  0  0
  -30.1050  -22.0420   20.6150 N   0  0  0  0  0  0  0  0  0  0  0  0
  -30.8690  -25.0300   20.0440 C   0  0  0  0  0  1  0  0  0  0  0  0
  -29.4980  -24.4770   20.4750 C   0  0  0  0  0  3  0  0  0  0  0  0
  -28.3300  -25.3280   19.8770 C   0  0  0  0  0  2  0  0  0  0  0  0
  -28.4170  -26.7590   20.1090 O   0  0  0  0  0  0  0  0  0  0  0  0
  -24.5460  -31.9120   23.1810 C   0  0  0  0  0  0  0  0  0  0  0  0
  -27.2430  -27.5030   20.0630 C   0  0  0  0  0  0  0  0  0  0  0  0
  -23.3590  -30.5150   21.5240 C   0  0  0  0  0  3  0  0  0  0  0  0
  -24.8320  -29.0120   20.0820 C   0  0  0  0  0  0  0  0  0  0  0  0
  -25.8840  -30.8990   21.3310 C   0  0  0  0  0  2  0  0  0  0  0  0
  -25.9870  -29.5330   20.6770 C   0  0  0  0  0  0  0  0  0  0  0  0
  -27.1940  -28.7880   20.6630 C   0  0  0  0  0  3  0  0  0  0  0  0
  -26.0660  -27.0150   19.4460 C   0  0  0  0  0  3  0  0  0  0  0  0
  -24.8680  -27.7530   19.4630 C   0  0  0  0  0  3  0  0  0  0  0  0
  -23.5790  -29.8570   20.1360 C   0  0  0  0  0  2  0  0  0  0  0  0
  -24.6150  -31.1230   22.0710 N   0  0  0  0  0  0  0  0  0  0  0  0
  -23.4600  -32.1650   23.7220 O   0  0  0  0  0  0  0  0  0  0  0  0
  -22.7190  -29.4740   22.4710 C   0  0  0  0  0  0  0  0  0  0  0  0
  -21.3910  -29.2980   22.3620 N   0  0  0  0  0  0  0  0  0  0  0  0
  -23.4130  -28.8290   23.2620 O   0  0  0  0  0  0  0  0  0  0  0  0
  -20.8920  -29.8720   21.6960 H   0  0  0  0  0  0  0  0  0  0  0  0
  -18.0220  -28.1060   22.8970 C   0  0  0  0  0  0  0  0  0  0  0  0
  -20.5850  -28.3460   23.1250 C   0  0  0  0  0  3  0  0  0  0  0  0
  -20.6690  -26.9280   22.5140 C   0  0  0  0  0  2  0  0  0  0  0  0
  -19.5470  -26.6340   21.5140 C   0  0  0  0  0  2  0  0  0  0  0  0
  -18.1780  -26.7720   22.1870 C   0  0  0  0  0  2  0  0  0  0  0  0
  -19.1530  -28.8520   23.3250 C   0  0  0  0  0  0  0  0  0  0  0  0
  -18.9530  -30.1010   23.9510 C   0  0  0  0  0  3  0  0  0  0  0  0
  -17.6550  -30.6070   24.1510 C   0  0  0  0  0  3  0  0  0  0  0  0
  -16.5390  -29.8590   23.7370 C   0  0  0  0  0  3  0  0  0  0  0  0
  -16.7230  -28.6110   23.1170 C   0  0  0  0  0  3  0  0  0  0  0  0
  -25.8210  -32.5540   23.8090 C   0  0  0  0  0  3  0  0  0  0  0  0
  -25.4920  -33.9430   24.1530 N   0  0  0  0  0  0  0  0  0  0  0  0
  -25.8600  -35.0130   23.4350 C   0  0  0  0  0  0  0  0  0  0  0  0
  -26.5800  -34.9330   22.4360 O   0  0  0  0  0  0  0  0  0  0  0  0
  -24.8510  -34.0780   24.9220 H   0  0  0  0  0  0  0  0  0  0  0  0
  -24.1820  -36.8360   22.9970 C   0  0  0  0  0  1  0  0  0  0  0  0
  -25.3460  -36.3900   23.8970 C   0  0  0  0  0  3  0  0  0  0  0  0
  -27.4080  -37.2200   24.9410 C   0  0  0  0  0  1  0  0  0  0  0  0
  -26.3930  -37.4340   23.9120 N   0  0  0  0  0  0  0  0  0  0  0  0
  -25.9850  -38.3540   24.0550 H   0  0  0  0  0  0  0  0  0  0  0  0
  -26.3500  -31.7740   25.0750 C   0  0  1  0  0  0  0  0  0  0  0  0
  -25.2590  -31.5060   26.1380 C   0  0  0  0  0  1  0  0  0  0  0  0
  -26.9540  -30.4120   24.6620 C   0  0  0  0  0  1  0  0  0  0  0  0
  -27.4890  -32.5760   25.7470 C   0  0  0  0  0  1  0  0  0  0  0  0
  -30.7210  -17.1360   21.4510 C   0  0  0  0  0  2  0  0  0  0  0  0
  -30.9940  -14.6690   20.9650 C   0  0  0  0  0  0  0  0  0  0  0  0
  -30.7910  -12.4360   19.9360 C   0  0  0  0  0  2  0  0  0  0  0  0
  -29.9480  -12.5520   18.6510 C   0  0  0  0  0  2  0  0  0  0  0  0
  -28.4460  -12.4190   18.9670 C   0  0  0  0  0  2  0  0  0  0  0  0
  -28.0010  -13.3300   20.1420 C   0  0  0  0  0  3  0  0  0  0  0  0
  -28.9690  -13.2080   21.3420 C   0  0  0  0  0  2  0  0  0  0  0  0
  -30.3290  -13.4870   20.8540 N   0  0  0  0  0  0  0  0  0  0  0  0
  -32.1800  -14.7960   20.6520 O   0  0  0  0  0  0  0  0  0  0  0  0
  -30.2390  -15.7470   21.2710 N   0  0  0  0  0  0  0  0  0  0  0  0
  -29.2640  -15.5750   21.4600 H   0  0  0  0  0  0  0  0  0  0  0  0
  -25.5650  -13.9550   20.6740 C   0  0  0  0  0  0  0  0  0  0  0  0
  -24.4700  -13.1930   20.9780 C   0  0  0  0  0  0  0  0  0  0  0  0
  -24.9230  -11.8390   20.9970 C   0  0  0  0  0  0  0  0  0  0  0  0
  -26.6170  -13.0660   20.5310 N   0  0  0  0  0  0  0  0  0  0  0  0
  -26.2320  -11.7890   20.7850 N   0  0  0  0  0  0  0  0  0  0  0  0
  -24.1770  -10.5830   21.1490 C   0  0  0  0  0  0  0  0  0  0  0  0
  -24.5340   -9.6300   22.1260 C   0  0  0  0  0  3  0  0  0  0  0  0
  -23.7930   -8.4360   22.2670 C   0  0  0  0  0  3  0  0  0  0  0  0
  -22.6800   -8.1890   21.4290 C   0  0  0  0  0  0  0  0  0  0  0  0
  -22.3430   -9.1310   20.4410 C   0  0  0  0  0  3  0  0  0  0  0  0
  -23.0850  -10.3160   20.2990 C   0  0  0  0  0  3  0  0  0  0  0  0
  -21.9180   -7.0460   21.4760 O   0  0  0  0  0  0  0  0  0  0  0  0
  -21.7540   -6.3370   22.6400 C   0  0  0  0  0  0  0  0  0  0  0  0
  -21.1790   -6.9180   23.7930 C   0  0  0  0  0  3  0  0  0  0  0  0
  -20.9680   -6.1330   24.9440 C   0  0  0  0  0  3  0  0  0  0  0  0
  -21.3180   -4.7700   24.9420 C   0  0  0  0  0  0  0  0  0  0  0  0
  -21.8850   -4.1890   23.7940 C   0  0  0  0  0  3  0  0  0  0  0  0
  -22.0980   -4.9710   22.6450 C   0  0  0  0  0  0  0  0  0  0  0  0
  -22.6250   -4.4030   21.5330 F   0  0  0  0  0  0  0  0  0  0  0  0
  -21.1070   -4.0130   26.0430 F   0  0  0  0  0  0  0  0  0  0  0  0
  -23.0590  -13.6800   21.1430 C   0  0  0  0  0  0  0  0  0  0  0  0
  -22.2670  -12.9980   21.9640 N   0  0  0  0  0  0  0  0  0  0  0  0
  -22.6650  -14.6990   20.5780 O   0  0  0  0  0  0  0  0  0  0  0  0
  -22.5920  -12.1710   22.4420 H   0  0  0  0  0  0  0  0  0  0  0  0
  -21.3160  -13.3070   22.1140 H   0  0  0  0  0  0  0  0  0  0  0  0
  -25.7520  -15.3220   20.4880 N   0  0  0  0  0  0  0  0  0  0  0  0
  -24.9820  -15.9840   20.5260 H   0  0  0  0  0  0  0  0  0  0  0  0
  -26.6240  -15.7480   20.2030 H   0  0  0  0  0  0  0  0  0  0  0  0
  1  4  1  0
  2  3  2  0
  3  6  1  0
  3 59  1  0
  4 14  1  0
  4  6  2  0
  5  1  2  0
  5  2  1  0
  6  7  1  0
  8  5  1  0
  9  8  1  0
 10  8  1  0
 11 12  2  0
 12  2  1  0
 13 16  1  0
 13 14  2  0
 16 15  1  0
 17 18  1  0
 17 16  1  0
 19 30  2  0
 20 18  1  0
 20 25  1  0
 21 29  1  0
 21 31  1  0
 22 28  1  0
 22 24  1  0
 23 29  1  0
 24 23  1  0
 25 24  2  0
 26 27  1  0
 26 20  2  0
 27 22  2  0
 28 21  1  0
 29 19  1  0
 31 33  2  0
 32 31  1  0
 34 32  1  0
 35 44  2  0
 35 40  1  0
 36 32  1  0
 36 40  1  0
 37 36  1  0
 38 39  1  0
 38 37  1  0
 39 35  1  0
 40 41  2  0
 41 42  1  0
 43 42  2  0
 44 43  1  0
 45 19  1  0
 45 46  1  0
 45 55  1  0
 46 49  1  0
 47 51  1  0
 47 46  1  0
 48 47  2  0
 51 50  1  0
 51 53  1  0
 53 54  1  0
 53 52  1  0
 55 58  1  1
 55 56  1  0
 57 55  1  0
 60 68  1  0
 61 66  1  0
 62 63  1  0
 62 61  1  0
 64 63  1  0
 64 73  1  0
 64 65  1  0
 66 60  1  0
 66 65  1  0
 67 60  2  0
 68 59  1  0
 68 69  1  0
 70 71  2  0
 71 72  1  0
 71 90  1  0
 72 75  1  0
 73 70  1  0
 73 74  1  0
 74 72  2  0
 75 76  1  0
 76 77  2  0
 78 81  1  0
 78 77  1  0
 79 78  2  0
 80 79  1  0
 80 75  2  0
 81 82  1  0
 82 87  2  0
 82 83  1  0
 83 84  2  0
 85 84  1  0
 85 89  1  0
 86 85  2  0
 87 86  1  0
 88 87  1  0
 90 91  1  0
 91 94  1  0
 91 93  1  0
 92 90  2  0
 95 96  1  0
 95 70  1  0
 97 95  1  0
M  ISO  4  17 101  18 101  60 100  68 100
M  END
>  <TORSDO>  (25) 
F 22

>  <SCORE>  (25) 
-12.905

>  <name>  (25) 
24

>  <ligand_id>  (25) 
24

>  <original_smiles>  (25) 
[H]C(=Nc1c([H])c(N([H])[H])c(C([H])=C([H])[H])c(C([H])([H])N([H])C(=O)N2C([H])([H])C([H])([H])C([H])([H])C([H])(n3nc(-c4c([H])c([H])c(Oc5c([H])c([H])c(F)c([H])c5F)c([H])c4[H])c(C(=O)N([H])[H])c3N([H])[H])C2([H])[H])c1F)C([H])(C([H])([H])[H])C([H])([H])Oc1c([H])c([H])c2c(c1[H])C([H])([H])N(C(=O)C([H])(N([H])C(=O)C([H])(N([H])C([H])([H])[H])C([H])([H])[H])C(C([H])([H])[H])(C([H])([H])[H])C([H])([H])[H])C([H])(C(=O)N([H])C1([H])c3c([H])c([H])c([H])c([H])c3C([H])([H])C([H])([H])C1([H])[H])C2([H])[H]

>  <smiles>  (25) 
[H]C(=Nc1c([H])c(N([H])[H])c(C([H])=C([H])[H])c(C([H])([H])N([H])C(=O)N2C([H])([H])C([H])([H])C([H])([H])C([H])(n3nc(-c4c([H])c([H])c(Oc5c([H])c([H])c(F)c([H])c5F)c([H])c4[H])c(C(=O)N([H])[H])c3N([H])[H])C2([H])[H])c1F)C([H])(C([H])([H])[H])C([H])([H])Oc1c([H])c([H])c2c(c1[H])C([H])([H])N(C(=O)C([H])(N([H])C(=O)C([H])(N([H])C([H])([H])[H])C([H])([H])[H])C(C([H])([H])[H])(C([H])([H])[H])C([H])([H])[H])C([H])(C(=O)N([H])C1([H])c3c([H])c([H])c([H])c([H])c3C([H])([H])C([H])([H])C1([H])[H])C2([H])[H]

$$$$
25:0:0
     RDKit          3D

 95103  0  0  1  0  0  0  0  0999 V2000
  -31.5290  -20.8700   21.8250 O   0  0  0  0  0  0  0  0  0  0  0  0
  -30.4650  -19.1280   20.4390 C   0  0  0  0  0  3  0  0  0  0  0  0
  -31.0080  -17.2890   22.4840 C   0  0  0  0  0  3  0  0  0  0  0  0
  -30.0720  -17.7800   20.2660 C   0  0  0  0  0  0  0  0  0  0  0  0
  -30.3650  -16.8550   21.3060 C   0  0  0  0  0  0  0  0  0  0  0  0
  -31.1220  -19.5680   21.6150 C   0  0  0  0  0  0  0  0  0  0  0  0
  -31.3930  -18.6330   22.6310 C   0  0  0  0  0  0  0  0  0  0  0  0
  -32.0200  -19.0310   23.7640 F   0  0  0  0  0  0  0  0  0  0  0  0
  -30.5160  -14.6490   20.2890 C   0  0  0  0  0  0  0  0  0  0  0  0
  -30.1570  -12.5600   19.0360 C   0  0  0  0  0  2  0  0  0  0  0  0
  -29.1510  -12.7950   17.8930 C   0  0  0  0  0  2  0  0  0  0  0  0
  -27.7070  -12.6050   18.3940 C   0  0  0  0  0  2  0  0  0  0  0  0
  -27.4180  -13.4030   19.6890 C   0  0  0  0  0  3  0  0  0  0  0  0
  -28.5270  -13.1630   20.7390 C   0  0  0  0  0  2  0  0  0  0  0  0
  -29.8300  -13.4890   20.1270 N   0  0  0  0  0  0  0  0  0  0  0  0
  -31.5260  -14.9380   19.6410 O   0  0  0  0  0  0  0  0  0  0  0  0
  -30.0120  -15.4880   21.2040 N   0  0  0  0  0  0  0  0  0  0  0  0
  -29.2360  -15.1610   21.7590 H   0  0  0  0  0  0  0  0  0  0  0  0
  -25.0470  -13.9480   20.5350 C   0  0  0  0  0  0  0  0  0  0  0  0
  -24.0110  -13.1450   20.9280 C   0  0  0  0  0  0  0  0  0  0  0  0
  -24.4920  -11.8030   20.8240 C   0  0  0  0  0  0  0  0  0  0  0  0
  -26.0930  -13.0930   20.2220 N   0  0  0  0  0  0  0  0  0  0  0  0
  -25.7650  -11.7960   20.4530 N   0  0  0  0  0  0  0  0  0  0  0  0
  -23.7990  -10.5210   21.0060 C   0  0  0  0  0  0  0  0  0  0  0  0
  -24.2340   -9.5750   21.9600 C   0  0  0  0  0  3  0  0  0  0  0  0
  -23.5410   -8.3570   22.1270 C   0  0  0  0  0  3  0  0  0  0  0  0
  -22.4000   -8.0760   21.3410 C   0  0  0  0  0  0  0  0  0  0  0  0
  -21.9840   -9.0110   20.3770 C   0  0  0  0  0  3  0  0  0  0  0  0
  -22.6770  -10.2200   20.2080 C   0  0  0  0  0  3  0  0  0  0  0  0
  -21.6780   -6.9090   21.4160 O   0  0  0  0  0  0  0  0  0  0  0  0
  -21.5710   -6.2040   22.5880 C   0  0  0  0  0  0  0  0  0  0  0  0
  -20.9940   -6.7670   23.7470 C   0  0  0  0  0  3  0  0  0  0  0  0
  -20.8420   -5.9850   24.9100 C   0  0  0  0  0  3  0  0  0  0  0  0
  -21.2560   -4.6390   24.9120 C   0  0  0  0  0  0  0  0  0  0  0  0
  -21.8270   -4.0750   23.7570 C   0  0  0  0  0  3  0  0  0  0  0  0
  -21.9820   -4.8550   22.5980 C   0  0  0  0  0  0  0  0  0  0  0  0
  -22.5120   -4.3010   21.4820 F   0  0  0  0  0  0  0  0  0  0  0  0
  -21.1030   -3.8840   26.0260 F   0  0  0  0  0  0  0  0  0  0  0  0
  -22.6230  -13.5830   21.2920 C   0  0  0  0  0  0  0  0  0  0  0  0
  -21.9520  -12.8360   22.1610 N   0  0  0  0  0  0  0  0  0  0  0  0
  -22.1420  -14.6230   20.8400 O   0  0  0  0  0  0  0  0  0  0  0  0
  -22.3530  -11.9950   22.5490 H   0  0  0  0  0  0  0  0  0  0  0  0
  -21.0210  -13.1090   22.4460 H   0  0  0  0  0  0  0  0  0  0  0  0
  -25.1860  -15.3270   20.3980 N   0  0  0  0  0  0  0  0  0  0  0  0
  -24.4260  -15.9740   20.5720 H   0  0  0  0  0  0  0  0  0  0  0  0
  -26.0210  -15.7830   20.0540 H   0  0  0  0  0  0  0  0  0  0  0  0
  -29.1880  -18.0860   17.9110 C   0  0  0  0  0  2  0  0  0  0  0  0
  -29.4000  -17.3490   19.0170 C   0  0  0  0  0  3  0  0  0  0  0  0
  -30.6960  -21.9270   21.3540 C   0  0  0  0  0  2  0  0  0  0  0  0
  -29.4810  -22.1110   22.2870 C   0  0  0  0  0  2  0  0  0  0  0  0
  -28.4420  -23.1250   21.7850 C   0  0  0  0  0  2  0  0  0  0  0  0
  -28.3150  -25.3910   21.3290 C   0  0  0  0  0  3  0  0  0  0  0  0
  -29.0790  -24.3830   21.4500 N   0  0  0  0  0  0  0  0  0  0  0  0
  -28.8060  -26.7470   20.8740 C   0  0  0  0  0  2  0  0  0  0  0  0
  -28.1650  -27.1200   19.6540 O   0  0  0  0  0  0  0  0  0  0  0  0
  -24.4610  -32.0250   23.2350 C   0  0  0  0  0  0  0  0  0  0  0  0
  -26.9970  -27.8230   19.7980 C   0  0  0  0  0  0  0  0  0  0  0  0
  -23.1820  -30.7000   21.5780 C   0  0  0  0  0  3  0  0  0  0  0  0
  -24.5790  -29.2570   20.0050 C   0  0  0  0  0  0  0  0  0  0  0  0
  -25.6830  -31.1110   21.2720 C   0  0  0  0  0  2  0  0  0  0  0  0
  -25.7530  -29.7770   20.5650 C   0  0  0  0  0  0  0  0  0  0  0  0
  -26.9630  -29.0660   20.4650 C   0  0  0  0  0  3  0  0  0  0  0  0
  -25.8140  -27.3100   19.2290 C   0  0  0  0  0  3  0  0  0  0  0  0
  -24.6010  -28.0190   19.3370 C   0  0  0  0  0  3  0  0  0  0  0  0
  -23.3260  -30.0920   20.1560 C   0  0  0  0  0  2  0  0  0  0  0  0
  -24.4620  -31.2890   22.0880 N   0  0  0  0  0  0  0  0  0  0  0  0
  -23.4070  -32.2550   23.8460 O   0  0  0  0  0  0  0  0  0  0  0  0
  -22.5920  -29.6210   22.5130 C   0  0  0  0  0  0  0  0  0  0  0  0
  -21.2760  -29.3830   22.3930 N   0  0  0  0  0  0  0  0  0  0  0  0
  -23.3130  -29.0050   23.3020 O   0  0  0  0  0  0  0  0  0  0  0  0
  -20.7560  -29.9390   21.7300 H   0  0  0  0  0  0  0  0  0  0  0  0
  -17.9670  -28.0170   22.8640 C   0  0  0  0  0  0  0  0  0  0  0  0
  -20.5090  -28.3870   23.1410 C   0  0  0  0  0  3  0  0  0  0  0  0
  -20.6790  -26.9790   22.5240 C   0  0  0  0  0  2  0  0  0  0  0  0
  -19.5890  -26.6320   21.5050 C   0  0  0  0  0  2  0  0  0  0  0  0
  -18.2050  -26.6950   22.1550 C   0  0  0  0  0  2  0  0  0  0  0  0
  -19.0500  -28.8200   23.3130 C   0  0  0  0  0  0  0  0  0  0  0  0
  -18.7730  -30.0570   23.9350 C   0  0  0  0  0  3  0  0  0  0  0  0
  -17.4470  -30.4920   24.1140 C   0  0  0  0  0  3  0  0  0  0  0  0
  -16.3790  -29.6860   23.6820 C   0  0  0  0  0  3  0  0  0  0  0  0
  -16.6400  -28.4510   23.0630 C   0  0  0  0  0  3  0  0  0  0  0  0
  -25.7740  -32.6320   23.8220 C   0  0  0  0  0  3  0  0  0  0  0  0
  -25.5050  -34.0380   24.1490 N   0  0  0  0  0  0  0  0  0  0  0  0
  -25.8780  -35.0770   23.3890 C   0  0  0  0  0  0  0  0  0  0  0  0
  -26.5570  -34.9510   22.3650 O   0  0  0  0  0  0  0  0  0  0  0  0
  -24.9120  -34.2130   24.9460 H   0  0  0  0  0  0  0  0  0  0  0  0
  -24.2360  -36.9350   22.9750 C   0  0  0  0  0  1  0  0  0  0  0  0
  -25.4250  -36.4800   23.8360 C   0  0  0  0  0  3  0  0  0  0  0  0
  -27.5490  -37.2830   24.7710 C   0  0  0  0  0  1  0  0  0  0  0  0
  -26.5020  -37.4930   23.7750 N   0  0  0  0  0  0  0  0  0  0  0  0
  -26.1250  -38.4280   23.9050 H   0  0  0  0  0  0  0  0  0  0  0  0
  -26.3070  -31.8550   25.0890 C   0  0  1  0  0  0  0  0  0  0  0  0
  -25.2330  -31.6270   26.1760 C   0  0  0  0  0  1  0  0  0  0  0  0
  -26.8690  -30.4740   24.6810 C   0  0  0  0  0  1  0  0  0  0  0  0
  -27.4780  -32.6390   25.7290 C   0  0  0  0  0  1  0  0  0  0  0  0
  2  6  1  0
  3  7  1  0
  4  2  2  0
  4  5  1  0
  5  3  2  0
  6  1  1  0
  6  7  2  0
  7  8  1  0
  9 17  1  0
 10 15  1  0
 11 12  1  0
 11 10  1  0
 13 12  1  0
 13 22  1  0
 13 14  1  0
 15  9  1  0
 15 14  1  0
 16  9  2  0
 17  5  1  0
 17 18  1  0
 19 20  2  0
 20 39  1  0
 21 20  1  0
 21 24  1  0
 22 23  1  0
 22 19  1  0
 23 21  2  0
 24 25  1  0
 25 26  2  0
 27 30  1  0
 27 26  1  0
 28 27  2  0
 29 28  1  0
 29 24  2  0
 30 31  1  0
 31 36  2  0
 31 32  1  0
 32 33  2  0
 33 34  1  0
 34 38  1  0
 35 34  2  0
 36 35  1  0
 37 36  1  0
 39 40  1  0
 40 43  1  0
 40 42  1  0
 41 39  2  0
 44 19  1  0
 44 45  1  0
 46 44  1  0
 47 48  2  0
 48  4  1  0
 49  1  1  0
 49 50  1  0
 51 50  1  0
 52 53  2  0
 53 51  1  0
 54 52  1  0
 55 57  1  0
 55 54  1  0
 56 67  2  0
 57 62  1  0
 58 66  1  0
 58 68  1  0
 59 65  1  0
 59 61  1  0
 60 66  1  0
 61 60  1  0
 62 61  2  0
 63 64  1  0
 63 57  2  0
 64 59  2  0
 65 58  1  0
 66 56  1  0
 68 70  2  0
 69 68  1  0
 71 69  1  0
 72 81  2  0
 72 77  1  0
 73 69  1  0
 73 77  1  0
 74 73  1  0
 75 76  1  0
 75 74  1  0
 76 72  1  0
 77 78  2  0
 78 79  1  0
 80 79  2  0
 81 80  1  0
 82 56  1  0
 82 83  1  0
 82 92  1  0
 83 86  1  0
 84 88  1  0
 84 83  1  0
 85 84  2  0
 88 87  1  0
 90 88  1  0
 90 91  1  0
 90 89  1  0
 92 95  1  1
 92 93  1  0
 94 92  1  0
M  ISO  4   9 100  17 100  54 101  55 101
M  END
>  <TORSDO>  (26) 
F 23

>  <SCORE>  (26) 
-12.385

>  <name>  (26) 
25

>  <ligand_id>  (26) 
25

>  <original_smiles>  (26) 
[H]C(=NC([H])([H])C([H])([H])C([H])([H])Oc1c([H])c(C([H])=C([H])[H])c(N([H])C(=O)N2C([H])([H])C([H])([H])C([H])([H])C([H])(n3nc(-c4c([H])c([H])c(Oc5c([H])c([H])c(F)c([H])c5F)c([H])c4[H])c(C(=O)N([H])[H])c3N([H])[H])C2([H])[H])c([H])c1F)C([H])([H])Oc1c([H])c([H])c2c(c1[H])C([H])([H])N(C(=O)C([H])(N([H])C(=O)C([H])(N([H])C([H])([H])[H])C([H])([H])[H])C(C([H])([H])[H])(C([H])([H])[H])C([H])([H])[H])C([H])(C(=O)N([H])C1([H])c3c([H])c([H])c([H])c([H])c3C([H])([H])C([H])([H])C1([H])[H])C2([H])[H]

>  <smiles>  (26) 
[H]C(=NC([H])([H])C([H])([H])C([H])([H])Oc1c([H])c(C([H])=C([H])[H])c(N([H])C(=O)N2C([H])([H])C([H])([H])C([H])([H])C([H])(n3nc(-c4c([H])c([H])c(Oc5c([H])c([H])c(F)c([H])c5F)c([H])c4[H])c(C(=O)N([H])[H])c3N([H])[H])C2([H])[H])c([H])c1F)C([H])([H])Oc1c([H])c([H])c2c(c1[H])C([H])([H])N(C(=O)C([H])(N([H])C(=O)C([H])(N([H])C([H])([H])[H])C([H])([H])[H])C(C([H])([H])[H])(C([H])([H])[H])C([H])([H])[H])C([H])(C(=O)N([H])C1([H])c3c([H])c([H])c([H])c([H])c3C([H])([H])C([H])([H])C1([H])[H])C2([H])[H]

$$$$
26:0:0
     RDKit          3D

 96104  0  0  1  0  0  0  0  0999 V2000
  -31.0970  -20.1040   20.7260 C   0  0  0  0  0  3  0  0  0  0  0  0
  -31.3240  -17.6820   20.7980 C   0  0  0  0  0  3  0  0  0  0  0  0
  -31.8030  -18.9490   20.8110 C   0  0  0  0  0  3  0  0  0  0  0  0
  -29.7820  -20.4010   20.6050 C   0  0  0  0  0  0  0  0  0  0  0  0
  -30.1240  -17.1220   20.5170 C   0  0  0  0  0  0  0  0  0  0  0  0
  -28.7720  -19.5000   20.4170 C   0  0  0  0  0  0  0  0  0  0  0  0
  -28.9470  -18.0050   20.1890 C   0  0  0  0  0  0  0  0  0  0  0  0
  -33.3080  -19.0940   20.9920 C   0  0  0  0  0  1  0  0  0  0  0  0
  -27.9510  -17.4050   19.6790 N   0  0  0  0  0  2  0  0  0  0  0  0
  -28.1990  -16.4390   19.5270 H   0  0  0  0  0  0  0  0  0  0  0  0
  -30.6760  -14.6430   20.1760 C   0  0  0  0  0  0  0  0  0  0  0  0
  -30.3730  -12.4540   19.0590 C   0  0  0  0  0  2  0  0  0  0  0  0
  -29.3910  -12.6470   17.8840 C   0  0  0  0  0  2  0  0  0  0  0  0
  -27.9300  -12.5040   18.3580 C   0  0  0  0  0  2  0  0  0  0  0  0
  -27.6310  -13.3290   19.6380 C   0  0  0  0  0  3  0  0  0  0  0  0
  -28.7270  -13.1210   20.7090 C   0  0  0  0  0  2  0  0  0  0  0  0
  -30.0250  -13.4440   20.0940 N   0  0  0  0  0  0  0  0  0  0  0  0
  -31.8240  -14.7860   19.7450 O   0  0  0  0  0  0  0  0  0  0  0  0
  -29.8970  -15.7000   20.5460 N   0  0  0  0  0  0  0  0  0  0  0  0
  -28.9680  -15.4400   20.8330 H   0  0  0  0  0  0  0  0  0  0  0  0
  -25.2560  -13.9280   20.4280 C   0  0  0  0  0  0  0  0  0  0  0  0
  -24.2010  -13.1520   20.8240 C   0  0  0  0  0  0  0  0  0  0  0  0
  -24.6620  -11.8020   20.7720 C   0  0  0  0  0  0  0  0  0  0  0  0
  -26.2960  -13.0500   20.1610 N   0  0  0  0  0  0  0  0  0  0  0  0
  -25.9430  -11.7650   20.4270 N   0  0  0  0  0  0  0  0  0  0  0  0
  -23.9400  -10.5390   20.9750 C   0  0  0  0  0  0  0  0  0  0  0  0
  -24.3920   -9.5700   21.8990 C   0  0  0  0  0  3  0  0  0  0  0  0
  -23.6690   -8.3730   22.0910 C   0  0  0  0  0  3  0  0  0  0  0  0
  -22.4810   -8.1350   21.3600 C   0  0  0  0  0  0  0  0  0  0  0  0
  -22.0490   -9.0930   20.4260 C   0  0  0  0  0  3  0  0  0  0  0  0
  -22.7720  -10.2820   20.2320 C   0  0  0  0  0  3  0  0  0  0  0  0
  -21.7280   -6.9900   21.4620 O   0  0  0  0  0  0  0  0  0  0  0  0
  -21.6940   -6.2530   22.6190 C   0  0  0  0  0  0  0  0  0  0  0  0
  -21.2710   -6.8100   23.8450 C   0  0  0  0  0  3  0  0  0  0  0  0
  -21.1840   -5.9990   24.9940 C   0  0  0  0  0  3  0  0  0  0  0  0
  -21.5100   -4.6320   24.9180 C   0  0  0  0  0  0  0  0  0  0  0  0
  -21.9270   -4.0750   23.6960 C   0  0  0  0  0  3  0  0  0  0  0  0
  -22.0150   -4.8830   22.5500 C   0  0  0  0  0  0  0  0  0  0  0  0
  -22.3960   -4.3350   21.3700 F   0  0  0  0  0  0  0  0  0  0  0  0
  -21.4200   -3.8500   26.0190 F   0  0  0  0  0  0  0  0  0  0  0  0
  -22.8130  -13.6290   21.1400 C   0  0  0  0  0  0  0  0  0  0  0  0
  -22.1090  -12.9240   22.0190 N   0  0  0  0  0  0  0  0  0  0  0  0
  -22.3630  -14.6610   20.6450 O   0  0  0  0  0  0  0  0  0  0  0  0
  -22.4870  -12.0890   22.4400 H   0  0  0  0  0  0  0  0  0  0  0  0
  -21.1790  -13.2270   22.2750 H   0  0  0  0  0  0  0  0  0  0  0  0
  -25.4000  -15.3010   20.2580 N   0  0  0  0  0  0  0  0  0  0  0  0
  -24.6180  -15.9260   20.4200 H   0  0  0  0  0  0  0  0  0  0  0  0
  -26.2240  -15.8020   19.9490 H   0  0  0  0  0  0  0  0  0  0  0  0
  -27.4700  -19.9750   20.3860 N   0  0  0  0  0  0  0  0  0  0  0  0
  -27.3320  -20.9600   20.2060 H   0  0  0  0  0  0  0  0  0  0  0  0
  -26.8020  -19.3590   19.9340 H   0  0  0  0  0  0  0  0  0  0  0  0
  -29.5550  -22.7420   20.0280 C   0  0  0  0  0  3  0  0  0  0  0  0
  -29.4380  -21.7680   20.8720 N   0  0  0  0  0  0  0  0  0  0  0  0
  -29.4760  -24.2610   20.3980 C   0  0  0  0  0  3  0  0  0  0  0  0
  -28.3500  -25.1420   19.7420 C   0  0  0  0  0  3  0  0  0  0  0  0
  -28.4410  -26.5850   20.0140 O   0  0  0  0  0  0  0  0  0  0  0  0
  -24.5280  -31.7510   23.1030 C   0  0  0  0  0  0  0  0  0  0  0  0
  -27.2800  -27.3620   19.9630 C   0  0  0  0  0  0  0  0  0  0  0  0
  -23.3700  -30.3680   21.4160 C   0  0  0  0  0  3  0  0  0  0  0  0
  -24.8690  -28.8880   19.9690 C   0  0  0  0  0  0  0  0  0  0  0  0
  -25.8990  -30.7570   21.2640 C   0  0  0  0  0  2  0  0  0  0  0  0
  -26.0160  -29.3990   20.5870 C   0  0  0  0  0  0  0  0  0  0  0  0
  -27.2230  -28.6460   20.5760 C   0  0  0  0  0  3  0  0  0  0  0  0
  -26.1090  -26.8960   19.3190 C   0  0  0  0  0  3  0  0  0  0  0  0
  -24.9150  -27.6400   19.3290 C   0  0  0  0  0  3  0  0  0  0  0  0
  -23.6110  -29.7290   20.0230 C   0  0  0  0  0  2  0  0  0  0  0  0
  -24.6170  -30.9740   21.9850 N   0  0  0  0  0  0  0  0  0  0  0  0
  -23.4340  -31.9930   23.6340 O   0  0  0  0  0  0  0  0  0  0  0  0
  -22.7210  -29.3140   22.3440 C   0  0  0  0  0  0  0  0  0  0  0  0
  -21.3970  -29.1320   22.2150 N   0  0  0  0  0  0  0  0  0  0  0  0
  -23.4080  -28.6670   23.1380 O   0  0  0  0  0  0  0  0  0  0  0  0
  -20.9020  -29.7090   21.5490 H   0  0  0  0  0  0  0  0  0  0  0  0
  -18.0250  -27.9210   22.7050 C   0  0  0  0  0  0  0  0  0  0  0  0
  -20.5870  -28.1650   22.9560 C   0  0  0  0  0  3  0  0  0  0  0  0
  -20.6800  -26.7580   22.3220 C   0  0  0  0  0  2  0  0  0  0  0  0
  -19.5660  -26.4780   21.3080 C   0  0  0  0  0  2  0  0  0  0  0  0
  -18.1920  -26.5990   21.9740 C   0  0  0  0  0  2  0  0  0  0  0  0
  -19.1490  -28.6630   23.1520 C   0  0  0  0  0  0  0  0  0  0  0  0
  -18.9400  -29.9010   23.7960 C   0  0  0  0  0  3  0  0  0  0  0  0
  -17.6380  -30.3980   23.9970 C   0  0  0  0  0  3  0  0  0  0  0  0
  -16.5280  -29.6510   23.5650 C   0  0  0  0  0  3  0  0  0  0  0  0
  -16.7220  -28.4150   22.9250 C   0  0  0  0  0  3  0  0  0  0  0  0
  -25.7920  -32.3950   23.7540 C   0  0  0  0  0  3  0  0  0  0  0  0
  -26.3050  -31.6070   25.0220 C   0  0  1  0  0  0  0  0  0  0  0  0
  -25.2030  -31.3300   26.0720 C   0  0  0  0  0  1  0  0  0  0  0  0
  -26.9160  -30.2470   24.6110 C   0  0  0  0  0  1  0  0  0  0  0  0
  -27.4330  -32.4070   25.7140 C   0  0  0  0  0  1  0  0  0  0  0  0
  -25.4520  -33.7800   24.1080 N   0  0  0  0  0  0  0  0  0  0  0  0
  -25.7720  -34.8530   23.3720 C   0  0  0  0  0  0  0  0  0  0  0  0
  -26.4550  -34.7830   22.3470 O   0  0  0  0  0  0  0  0  0  0  0  0
  -24.8450  -33.9070   24.9040 H   0  0  0  0  0  0  0  0  0  0  0  0
  -24.0160  -36.6230   23.0330 C   0  0  0  0  0  1  0  0  0  0  0  0
  -25.2550  -36.2230   23.8510 C   0  0  0  0  0  3  0  0  0  0  0  0
  -27.3600  -37.1330   24.7300 C   0  0  0  0  0  1  0  0  0  0  0  0
  -26.2700  -37.2970   23.7720 N   0  0  0  0  0  0  0  0  0  0  0  0
  -25.8450  -38.2070   23.9280 H   0  0  0  0  0  0  0  0  0  0  0  0
  1  3  1  0
  2  3  1  0
  3  8  1  0
  4  1  2  0
  4 53  1  0
  5 19  1  0
  5  2  2  0
  6  4  1  0
  7  6  2  0
  7  5  1  0
  9  7  1  0
 10  9  1  0
 11 19  1  0
 12 17  1  0
 13 14  1  0
 13 12  1  0
 15 14  1  0
 15 24  1  0
 15 16  1  0
 17 11  1  0
 17 16  1  0
 18 11  2  0
 19 20  1  0
 21 22  2  0
 22 41  1  0
 23 22  1  0
 23 26  1  0
 24 25  1  0
 24 21  1  0
 25 23  2  0
 26 27  1  0
 27 28  2  0
 29 32  1  0
 29 28  1  0
 30 29  2  0
 31 30  1  0
 31 26  2  0
 32 33  1  0
 33 34  1  0
 34 35  2  0
 36 35  1  0
 36 40  1  0
 37 36  2  0
 38 33  2  0
 38 37  1  0
 39 38  1  0
 41 42  1  0
 42 45  1  0
 42 44  1  0
 43 41  2  0
 46 47  1  0
 46 21  1  0
 48 46  1  0
 49  6  1  0
 50 49  1  0
 51 49  1  0
 52 54  1  0
 52 53  2  0
 55 56  1  0
 55 54  2  0
 57 68  2  0
 58 56  1  0
 58 63  1  0
 59 67  1  0
 59 69  1  0
 60 66  1  0
 60 62  1  0
 61 67  1  0
 62 61  1  0
 63 62  2  0
 64 65  1  0
 64 58  2  0
 65 60  2  0
 66 59  1  0
 67 57  1  0
 69 71  2  0
 70 69  1  0
 72 70  1  0
 73 82  2  0
 73 78  1  0
 74 70  1  0
 74 78  1  0
 75 74  1  0
 76 77  1  0
 76 75  1  0
 77 73  1  0
 78 79  2  0
 79 80  1  0
 81 80  2  0
 82 81  1  0
 83 57  1  0
 83 88  1  0
 83 84  1  0
 84 87  1  1
 84 85  1  0
 86 84  1  0
 88 91  1  0
 89 93  1  0
 89 88  1  0
 90 89  2  0
 93 92  1  0
 95 93  1  0
 95 96  1  0
 95 94  1  0
M  ISO  4  11 100  19 100  55 101  56 101
M  END
>  <TORSDO>  (27) 
F 20

>  <SCORE>  (27) 
-14.461

>  <name>  (27) 
26

>  <ligand_id>  (27) 
26

>  <original_smiles>  (27) 
[H]N=c1c(N([H])[H])c(N=C([H])C([H])([H])C([H])([H])Oc2c([H])c([H])c3c(c2[H])C([H])([H])N(C(=O)C([H])(N([H])C(=O)C([H])(N([H])C([H])([H])[H])C([H])([H])[H])C(C([H])([H])[H])(C([H])([H])[H])C([H])([H])[H])C([H])(C(=O)N([H])C2([H])c4c([H])c([H])c([H])c([H])c4C([H])([H])C([H])([H])C2([H])[H])C3([H])[H])c([H])c(C([H])([H])[H])c([H])c1N([H])C(=O)N1C([H])([H])C([H])([H])C([H])([H])C([H])(n2nc(-c3c([H])c([H])c(Oc4c([H])c([H])c(F)c([H])c4F)c([H])c3[H])c(C(=O)N([H])[H])c2N([H])[H])C1([H])[H]

>  <smiles>  (27) 
[H]N=c1c(N([H])[H])c(N=C([H])C([H])([H])C([H])([H])Oc2c([H])c([H])c3c(c2[H])C([H])([H])N(C(=O)C([H])(N([H])C(=O)C([H])(N([H])C([H])([H])[H])C([H])([H])[H])C(C([H])([H])[H])(C([H])([H])[H])C([H])([H])[H])C([H])(C(=O)N([H])C2([H])c4c([H])c([H])c([H])c([H])c4C([H])([H])C([H])([H])C2([H])[H])C3([H])[H])c([H])c(C([H])([H])[H])c([H])c1N([H])C(=O)N1C([H])([H])C([H])([H])C([H])([H])C([H])(n2nc(-c3c([H])c([H])c(Oc4c([H])c([H])c(F)c([H])c4F)c([H])c3[H])c(C(=O)N([H])[H])c2N([H])[H])C1([H])[H]

$$$$
27:0:0
     RDKit          3D

 92100  0  0  1  0  0  0  0  0999 V2000
  -30.0350  -18.1920   20.2770 C   0  0  0  0  0  0  0  0  0  0  0  0
  -30.0740  -17.8670   18.8620 C   0  0  0  0  0  0  0  0  0  0  0  0
  -29.8000  -19.6530   20.1650 C   0  0  0  0  0  0  0  0  0  0  0  0
  -29.9880  -18.8950   18.0470 N   0  0  0  0  0  0  0  0  0  0  0  0
  -29.8580  -20.0000   18.8530 O   0  0  0  0  0  0  0  0  0  0  0  0
  -30.1070  -16.9470   21.3350 C   0  0  0  0  0  0  0  0  0  0  0  0
  -29.4700  -17.0840   22.4220 N   0  0  0  0  0  0  0  0  0  0  0  0
  -28.9930  -17.9770   22.4790 H   0  0  0  0  0  0  0  0  0  0  0  0
  -30.9610  -15.4960   21.1030 C   0  0  0  0  0  0  0  0  0  0  0  0
  -30.9610  -13.1130   20.2110 C   0  0  0  0  0  2  0  0  0  0  0  0
  -30.1770  -13.0160   18.8780 C   0  0  0  0  0  2  0  0  0  0  0  0
  -28.6650  -12.8500   19.1220 C   0  0  0  0  0  2  0  0  0  0  0  0
  -28.1330  -13.7680   20.2520 C   0  0  0  0  0  3  0  0  0  0  0  0
  -29.0530  -13.7800   21.4880 C   0  0  0  0  0  2  0  0  0  0  0  0
  -30.3810  -14.2190   21.0390 N   0  0  0  0  0  0  0  0  0  0  0  0
  -32.1760  -15.5470   20.8740 O   0  0  0  0  0  0  0  0  0  0  0  0
  -25.6930  -14.3320   20.7690 C   0  0  0  0  0  0  0  0  0  0  0  0
  -24.5970  -13.5520   21.0070 C   0  0  0  0  0  0  0  0  0  0  0  0
  -25.0610  -12.2010   20.9860 C   0  0  0  0  0  0  0  0  0  0  0  0
  -26.7540  -13.4580   20.6060 N   0  0  0  0  0  0  0  0  0  0  0  0
  -26.3760  -12.1680   20.8060 N   0  0  0  0  0  0  0  0  0  0  0  0
  -24.3150  -10.9370   21.0650 C   0  0  0  0  0  0  0  0  0  0  0  0
  -24.6420   -9.9430   22.0130 C   0  0  0  0  0  3  0  0  0  0  0  0
  -23.8940   -8.7470   22.0820 C   0  0  0  0  0  3  0  0  0  0  0  0
  -22.8070   -8.5370   21.1990 C   0  0  0  0  0  0  0  0  0  0  0  0
  -22.5010   -9.5210   20.2420 C   0  0  0  0  0  3  0  0  0  0  0  0
  -23.2490  -10.7080   20.1720 C   0  0  0  0  0  3  0  0  0  0  0  0
  -22.0410   -7.3960   21.1770 O   0  0  0  0  0  0  0  0  0  0  0  0
  -21.8390   -6.6410   22.3050 C   0  0  0  0  0  0  0  0  0  0  0  0
  -21.2310   -7.1780   23.4620 C   0  0  0  0  0  3  0  0  0  0  0  0
  -20.9800   -6.3490   24.5720 C   0  0  0  0  0  3  0  0  0  0  0  0
  -21.3250   -4.9840   24.5270 C   0  0  0  0  0  0  0  0  0  0  0  0
  -21.9240   -4.4480   23.3740 C   0  0  0  0  0  3  0  0  0  0  0  0
  -22.1780   -5.2740   22.2650 C   0  0  0  0  0  0  0  0  0  0  0  0
  -22.7350   -4.7470   21.1480 F   0  0  0  0  0  0  0  0  0  0  0  0
  -21.0760   -4.1860   25.5910 F   0  0  0  0  0  0  0  0  0  0  0  0
  -23.1820  -14.0300   21.1520 C   0  0  0  0  0  0  0  0  0  0  0  0
  -22.3720  -13.3230   21.9320 N   0  0  0  0  0  0  0  0  0  0  0  0
  -22.8010  -15.0650   20.6100 O   0  0  0  0  0  0  0  0  0  0  0  0
  -22.6910  -12.4840   22.3940 H   0  0  0  0  0  0  0  0  0  0  0  0
  -21.4200  -13.6260   22.0740 H   0  0  0  0  0  0  0  0  0  0  0  0
  -25.8750  -15.7080   20.6500 N   0  0  0  0  0  0  0  0  0  0  0  0
  -25.1010  -16.3600   20.7190 H   0  0  0  0  0  0  0  0  0  0  0  0
  -26.7640  -16.1630   20.4850 H   0  0  0  0  0  0  0  0  0  0  0  0
  -29.1050  -16.0880   17.4290 C   0  0  0  0  0  2  0  0  0  0  0  0
  -30.0610  -16.5220   18.2690 C   0  0  0  0  0  3  0  0  0  0  0  0
  -29.2090  -22.0810   20.4440 C   0  0  0  0  0  3  0  0  0  0  0  0
  -29.5720  -20.8640   20.9750 N   0  0  0  0  0  0  0  0  0  0  0  0
  -30.6280  -24.1130   21.2280 C   0  0  0  0  0  1  0  0  0  0  0  0
  -29.1710  -23.6750   21.0060 C   0  0  0  0  0  3  0  0  0  0  0  0
  -28.3630  -24.9760   20.2450 C   0  0  0  0  0  2  0  0  0  0  0  0
  -28.5000  -26.5280   20.5040 O   0  0  0  0  0  0  0  0  0  0  0  0
  -24.7140  -32.1510   23.4290 C   0  0  0  0  0  0  0  0  0  0  0  0
  -27.4220  -27.4940   20.3960 C   0  0  0  0  0  0  0  0  0  0  0  0
  -23.5540  -30.7260   21.7870 C   0  0  0  0  0  3  0  0  0  0  0  0
  -25.0480  -29.1940   20.3550 C   0  0  0  0  0  0  0  0  0  0  0  0
  -26.1010  -31.0560   21.6250 C   0  0  0  0  0  2  0  0  0  0  0  0
  -26.2130  -29.6660   20.9690 C   0  0  0  0  0  0  0  0  0  0  0  0
  -27.3970  -28.8320   20.9730 C   0  0  0  0  0  3  0  0  0  0  0  0
  -26.2320  -27.1360   19.7230 C   0  0  0  0  0  3  0  0  0  0  0  0
  -25.0730  -27.9450   19.7110 C   0  0  0  0  0  3  0  0  0  0  0  0
  -23.7950  -30.0570   20.4060 C   0  0  0  0  0  2  0  0  0  0  0  0
  -24.8090  -31.3340   22.3350 N   0  0  0  0  0  0  0  0  0  0  0  0
  -23.6200  -32.4050   23.9570 O   0  0  0  0  0  0  0  0  0  0  0  0
  -22.9030  -29.7000   22.7480 C   0  0  0  0  0  0  0  0  0  0  0  0
  -21.5990  -29.4290   22.5650 N   0  0  0  0  0  0  0  0  0  0  0  0
  -23.5770  -29.1480   23.6210 O   0  0  0  0  0  0  0  0  0  0  0  0
  -21.1090  -29.9270   21.8350 H   0  0  0  0  0  0  0  0  0  0  0  0
  -18.2990  -27.9780   22.9300 C   0  0  0  0  0  0  0  0  0  0  0  0
  -20.8100  -28.4560   23.3260 C   0  0  0  0  0  3  0  0  0  0  0  0
  -21.0570  -27.0190   22.8150 C   0  0  0  0  0  2  0  0  0  0  0  0
  -20.0450  -26.5710   21.7560 C   0  0  0  0  0  2  0  0  0  0  0  0
  -18.6210  -26.6250   22.3160 C   0  0  0  0  0  2  0  0  0  0  0  0
  -19.3270  -28.8440   23.3890 C   0  0  0  0  0  0  0  0  0  0  0  0
  -18.9740  -30.1020   23.9220 C   0  0  0  0  0  3  0  0  0  0  0  0
  -17.6250  -30.4990   24.0010 C   0  0  0  0  0  3  0  0  0  0  0  0
  -16.6110  -29.6320   23.5570 C   0  0  0  0  0  3  0  0  0  0  0  0
  -16.9480  -28.3740   23.0270 C   0  0  0  0  0  3  0  0  0  0  0  0
  -25.9730  -32.8240   24.0570 C   0  0  0  0  0  3  0  0  0  0  0  0
  -25.6340  -34.2240   24.3540 N   0  0  0  0  0  0  0  0  0  0  0  0
  -25.9480  -35.2680   23.5750 C   0  0  0  0  0  0  0  0  0  0  0  0
  -26.6200  -35.1550   22.5460 O   0  0  0  0  0  0  0  0  0  0  0  0
  -25.0350  -34.3860   25.1500 H   0  0  0  0  0  0  0  0  0  0  0  0
  -24.1820  -37.0230   23.1950 C   0  0  0  0  0  1  0  0  0  0  0  0
  -25.4390  -36.6590   24.0030 C   0  0  0  0  0  3  0  0  0  0  0  0
  -27.5610  -37.6090   24.7970 C   0  0  0  0  0  1  0  0  0  0  0  0
  -26.4500  -37.7300   23.8560 N   0  0  0  0  0  0  0  0  0  0  0  0
  -26.0260  -38.6450   23.9800 H   0  0  0  0  0  0  0  0  0  0  0  0
  -26.4780  -32.0930   25.3630 C   0  0  1  0  0  0  0  0  0  0  0  0
  -25.3570  -31.8030   26.3890 C   0  0  0  0  0  1  0  0  0  0  0  0
  -27.1520  -30.7460   25.0160 C   0  0  0  0  0  1  0  0  0  0  0  0
  -27.5540  -32.9570   26.0630 C   0  0  0  0  0  1  0  0  0  0  0  0
  1  6  1  0
  2  1  1  0
  3  1  2  0
  3 48  1  0
  4  5  1  0
  4  2  2  0
  5  3  1  0
  6  7  2  0
  7  8  1  0
  9  6  1  0
 10 15  1  0
 11 12  1  0
 11 10  1  0
 13 12  1  0
 13 20  1  0
 13 14  1  0
 15  9  1  0
 15 14  1  0
 16  9  2  0
 17 18  2  0
 18 37  1  0
 19 18  1  0
 19 22  1  0
 20 17  1  0
 20 21  1  0
 21 19  2  0
 22 23  1  0
 23 24  2  0
 25 24  1  0
 26 25  2  0
 27 26  1  0
 27 22  2  0
 28 25  1  0
 28 29  1  0
 29 30  1  0
 30 31  2  0
 32 31  1  0
 32 36  1  0
 33 32  2  0
 34 29  2  0
 34 33  1  0
 35 34  1  0
 37 38  1  0
 38 41  1  0
 38 40  1  0
 39 37  2  0
 42 43  1  0
 42 17  1  0
 44 42  1  0
 45 46  2  0
 46  2  1  0
 47 48  2  0
 47 50  1  0
 50 49  1  0
 51 52  1  0
 51 50  1  0
 53 64  2  0
 54 52  1  0
 54 59  1  0
 55 63  1  0
 55 65  1  0
 56 62  1  0
 56 58  1  0
 57 63  1  0
 58 59  2  0
 58 57  1  0
 60 54  2  0
 61 60  1  0
 61 56  2  0
 62 55  1  0
 63 53  1  0
 65 67  2  0
 66 65  1  0
 68 66  1  0
 69 78  2  0
 69 74  1  0
 70 66  1  0
 70 74  1  0
 71 70  1  0
 72 73  1  0
 72 71  1  0
 73 69  1  0
 74 75  2  0
 75 76  1  0
 77 76  2  0
 78 77  1  0
 79 53  1  0
 79 80  1  0
 79 89  1  0
 80 83  1  0
 81 85  1  0
 81 80  1  0
 82 81  2  0
 85 84  1  0
 87 88  1  0
 87 85  1  0
 87 86  1  0
 89 92  1  1
 89 90  1  0
 91 89  1  0
M  ISO  4   6 100   9 100  51 101  52 101
M  END
>  <TORSDO>  (28) 
F 21

>  <SCORE>  (28) 
-10.037

>  <name>  (28) 
27

>  <ligand_id>  (28) 
27

>  <original_smiles>  (28) 
[H]N=C(C(=O)N1C([H])([H])C([H])([H])C([H])([H])C([H])(n2nc(-c3c([H])c([H])c(Oc4c([H])c([H])c(F)c([H])c4F)c([H])c3[H])c(C(=O)N([H])[H])c2N([H])[H])C1([H])[H])c1c(C([H])=C([H])[H])noc1N=C([H])C([H])(C([H])([H])[H])C([H])([H])Oc1c([H])c([H])c2c(c1[H])C([H])([H])N(C(=O)C([H])(N([H])C(=O)C([H])(N([H])C([H])([H])[H])C([H])([H])[H])C(C([H])([H])[H])(C([H])([H])[H])C([H])([H])[H])C([H])(C(=O)N([H])C1([H])c3c([H])c([H])c([H])c([H])c3C([H])([H])C([H])([H])C1([H])[H])C2([H])[H]

>  <smiles>  (28) 
[H]N=C(C(=O)N1C([H])([H])C([H])([H])C([H])([H])C([H])(n2nc(-c3c([H])c([H])c(Oc4c([H])c([H])c(F)c([H])c4F)c([H])c3[H])c(C(=O)N([H])[H])c2N([H])[H])C1([H])[H])c1c(C([H])=C([H])[H])noc1N=C([H])C([H])(C([H])([H])[H])C([H])([H])Oc1c([H])c([H])c2c(c1[H])C([H])([H])N(C(=O)C([H])(N([H])C(=O)C([H])(N([H])C([H])([H])[H])C([H])([H])[H])C(C([H])([H])[H])(C([H])([H])[H])C([H])([H])[H])C([H])(C(=O)N([H])C1([H])c3c([H])c([H])c([H])c([H])c3C([H])([H])C([H])([H])C1([H])[H])C2([H])[H]

$$$$
28:0:0
     RDKit          3D

 94102  0  0  1  0  0  0  0  0999 V2000
  -31.8360  -17.4490   21.1290 C   0  0  0  0  0  3  0  0  0  0  0  0
  -31.3620  -19.8300   21.1830 C   0  0  0  0  0  3  0  0  0  0  0  0
  -29.5860  -18.2450   20.6360 C   0  0  0  0  0  0  0  0  0  0  0  0
  -30.5160  -17.1470   20.6930 C   0  0  0  0  0  0  0  0  0  0  0  0
  -30.0190  -19.5970   20.8080 C   0  0  0  0  0  0  0  0  0  0  0  0
  -32.2500  -18.7650   21.3720 C   0  0  0  0  0  0  0  0  0  0  0  0
  -28.0970  -18.0130   20.3980 C   0  0  0  0  0  1  0  0  0  0  0  0
  -33.5280  -19.0120   21.7460 F   0  0  0  0  0  0  0  0  0  0  0  0
  -30.9050  -14.6830   20.4310 C   0  0  0  0  0  0  0  0  0  0  0  0
  -30.6940  -12.3500   19.6860 C   0  0  0  0  0  2  0  0  0  0  0  0
  -29.8420  -12.3030   18.4010 C   0  0  0  0  0  2  0  0  0  0  0  0
  -28.3560  -12.1440   18.7690 C   0  0  0  0  0  2  0  0  0  0  0  0
  -27.8880  -13.1660   19.8380 C   0  0  0  0  0  3  0  0  0  0  0  0
  -28.8770  -13.2840   21.0200 C   0  0  0  0  0  2  0  0  0  0  0  0
  -30.2210  -13.5030   20.4740 N   0  0  0  0  0  0  0  0  0  0  0  0
  -32.1200  -14.6880   20.2260 O   0  0  0  0  0  0  0  0  0  0  0  0
  -30.1840  -15.8240   20.1680 N   0  0  0  0  0  0  0  0  0  0  0  0
  -25.4750  -13.7910   20.4460 C   0  0  0  0  0  0  0  0  0  0  0  0
  -24.3930  -13.0260   20.7830 C   0  0  0  0  0  0  0  0  0  0  0  0
  -24.8580  -11.6750   20.8070 C   0  0  0  0  0  0  0  0  0  0  0  0
  -26.5260  -12.9040   20.2810 N   0  0  0  0  0  0  0  0  0  0  0  0
  -26.1620  -11.6300   20.5660 N   0  0  0  0  0  0  0  0  0  0  0  0
  -24.1290  -10.4160   20.9890 C   0  0  0  0  0  0  0  0  0  0  0  0
  -24.5220   -9.4700   21.9610 C   0  0  0  0  0  3  0  0  0  0  0  0
  -23.7930   -8.2740   22.1300 C   0  0  0  0  0  3  0  0  0  0  0  0
  -22.6590   -8.0140   21.3250 C   0  0  0  0  0  0  0  0  0  0  0  0
  -22.2880   -8.9470   20.3410 C   0  0  0  0  0  3  0  0  0  0  0  0
  -23.0180  -10.1350   20.1700 C   0  0  0  0  0  3  0  0  0  0  0  0
  -21.9060   -6.8680   21.4010 O   0  0  0  0  0  0  0  0  0  0  0  0
  -21.8000   -6.1550   22.5670 C   0  0  0  0  0  0  0  0  0  0  0  0
  -21.2800   -6.7300   23.7470 C   0  0  0  0  0  3  0  0  0  0  0  0
  -21.1220   -5.9400   24.9040 C   0  0  0  0  0  3  0  0  0  0  0  0
  -21.4730   -4.5770   24.8780 C   0  0  0  0  0  0  0  0  0  0  0  0
  -21.9870   -4.0020   23.7020 C   0  0  0  0  0  3  0  0  0  0  0  0
  -22.1450   -4.7880   22.5480 C   0  0  0  0  0  0  0  0  0  0  0  0
  -22.6180   -4.2230   21.4110 F   0  0  0  0  0  0  0  0  0  0  0  0
  -21.3160   -3.8160   25.9880 F   0  0  0  0  0  0  0  0  0  0  0  0
  -22.9830  -13.5040   20.9740 C   0  0  0  0  0  0  0  0  0  0  0  0
  -22.2160  -12.8380   21.8310 N   0  0  0  0  0  0  0  0  0  0  0  0
  -22.5630  -14.5050   20.3940 O   0  0  0  0  0  0  0  0  0  0  0  0
  -22.5610  -12.0260   22.3220 H   0  0  0  0  0  0  0  0  0  0  0  0
  -21.2680  -13.1470   21.9960 H   0  0  0  0  0  0  0  0  0  0  0  0
  -25.6420  -15.1580   20.2420 N   0  0  0  0  0  0  0  0  0  0  0  0
  -24.8640  -15.8050   20.3050 H   0  0  0  0  0  0  0  0  0  0  0  0
  -26.5010  -15.5980   19.9450 H   0  0  0  0  0  0  0  0  0  0  0  0
  -30.4880  -16.1060   17.7610 C   0  0  0  0  0  2  0  0  0  0  0  0
  -29.7090  -15.9350   18.8460 C   0  0  0  0  0  3  0  0  0  0  0  0
  -29.1270  -20.6440   20.5910 O   0  0  0  0  0  0  0  0  0  0  0  0
  -29.6500  -21.9880   20.5220 C   0  0  0  0  0  2  0  0  0  0  0  0
  -28.5280  -23.0590   20.4680 C   0  0  0  0  0  2  0  0  0  0  0  0
  -28.9700  -24.4910   20.0750 C   0  0  0  0  0  0  0  0  0  0  0  0
  -30.0310  -24.7090   19.4810 O   0  0  0  0  0  0  0  0  0  0  0  0
  -28.0150  -25.6390   20.4620 C   0  0  0  0  0  2  0  0  0  0  0  0
  -28.2100  -26.8510   19.6950 O   0  0  0  0  0  0  0  0  0  0  0  0
  -24.4500  -31.8160   23.1310 C   0  0  0  0  0  0  0  0  0  0  0  0
  -27.0790  -27.6380   19.7020 C   0  0  0  0  0  0  0  0  0  0  0  0
  -23.2250  -30.5180   21.4160 C   0  0  0  0  0  3  0  0  0  0  0  0
  -24.6710  -29.1140   19.8490 C   0  0  0  0  0  0  0  0  0  0  0  0
  -25.7420  -30.9310   21.1910 C   0  0  0  0  0  2  0  0  0  0  0  0
  -25.8370  -29.6140   20.4470 C   0  0  0  0  0  0  0  0  0  0  0  0
  -27.0480  -28.8870   20.3670 C   0  0  0  0  0  3  0  0  0  0  0  0
  -25.9030  -27.1640   19.0830 C   0  0  0  0  0  3  0  0  0  0  0  0
  -24.6990  -27.8880   19.1620 C   0  0  0  0  0  3  0  0  0  0  0  0
  -23.4120  -29.9400   19.9880 C   0  0  0  0  0  2  0  0  0  0  0  0
  -24.4920  -31.0980   21.9720 N   0  0  0  0  0  0  0  0  0  0  0  0
  -23.3770  -32.0340   23.7120 O   0  0  0  0  0  0  0  0  0  0  0  0
  -22.6100  -29.4220   22.3150 C   0  0  0  0  0  0  0  0  0  0  0  0
  -21.2880  -29.2150   22.1870 N   0  0  0  0  0  0  0  0  0  0  0  0
  -23.3160  -28.7610   23.0810 O   0  0  0  0  0  0  0  0  0  0  0  0
  -20.7790  -29.8050   21.5440 H   0  0  0  0  0  0  0  0  0  0  0  0
  -17.9520  -27.8920   22.6150 C   0  0  0  0  0  0  0  0  0  0  0  0
  -20.5020  -28.2070   22.8990 C   0  0  0  0  0  3  0  0  0  0  0  0
  -20.6450  -26.8180   22.2360 C   0  0  0  0  0  2  0  0  0  0  0  0
  -19.5490  -26.5250   21.2050 C   0  0  0  0  0  2  0  0  0  0  0  0
  -18.1660  -26.5920   21.8570 C   0  0  0  0  0  2  0  0  0  0  0  0
  -19.0500  -28.6580   23.0890 C   0  0  0  0  0  0  0  0  0  0  0  0
  -18.7980  -29.8780   23.7550 C   0  0  0  0  0  3  0  0  0  0  0  0
  -17.4790  -30.3320   23.9510 C   0  0  0  0  0  3  0  0  0  0  0  0
  -16.3960  -29.5610   23.4950 C   0  0  0  0  0  3  0  0  0  0  0  0
  -16.6320  -28.3410   22.8340 C   0  0  0  0  0  3  0  0  0  0  0  0
  -25.7420  -32.4180   23.7680 C   0  0  0  0  0  3  0  0  0  0  0  0
  -25.4390  -33.8000   24.1600 N   0  0  0  0  0  0  0  0  0  0  0  0
  -25.7640  -34.8830   23.4410 C   0  0  0  0  0  0  0  0  0  0  0  0
  -26.4230  -34.8240   22.4000 O   0  0  0  0  0  0  0  0  0  0  0  0
  -24.8590  -33.9230   24.9770 H   0  0  0  0  0  0  0  0  0  0  0  0
  -24.0320  -36.6870   23.1740 C   0  0  0  0  0  1  0  0  0  0  0  0
  -25.2790  -36.2500   23.9600 C   0  0  0  0  0  3  0  0  0  0  0  0
  -27.4160  -37.1030   24.8180 C   0  0  0  0  0  1  0  0  0  0  0  0
  -26.3100  -37.3100   23.8870 N   0  0  0  0  0  0  0  0  0  0  0  0
  -25.9020  -38.2210   24.0790 H   0  0  0  0  0  0  0  0  0  0  0  0
  -26.2720  -31.5910   25.0030 C   0  0  1  0  0  0  0  0  0  0  0  0
  -25.1890  -31.3060   26.0690 C   0  0  0  0  0  1  0  0  0  0  0  0
  -26.8510  -30.2330   24.5440 C   0  0  0  0  0  1  0  0  0  0  0  0
  -27.4290  -32.3560   25.6880 C   0  0  0  0  0  1  0  0  0  0  0  0
  1  6  1  0
  2  6  2  0
  3  4  1  0
  3  5  2  0
  4  1  2  0
  5  2  1  0
  6  8  1  0
  7  3  1  0
  9 15  1  0
 10 15  1  0
 11 12  1  0
 11 10  1  0
 13 12  1  0
 13 21  1  0
 13 14  1  0
 15 14  1  0
 16  9  2  0
 17  9  1  0
 17  4  1  0
 18 19  2  0
 19 20  1  0
 19 38  1  0
 20 23  1  0
 21 18  1  0
 21 22  1  0
 22 20  2  0
 23 24  1  0
 24 25  2  0
 26 29  1  0
 26 25  1  0
 27 26  2  0
 28 27  1  0
 28 23  2  0
 29 30  1  0
 30 31  1  0
 31 32  2  0
 33 32  1  0
 33 37  1  0
 34 33  2  0
 35 30  2  0
 35 34  1  0
 36 35  1  0
 38 39  1  0
 39 42  1  0
 39 41  1  0
 40 38  2  0
 43 44  1  0
 43 18  1  0
 45 43  1  0
 46 47  2  0
 47 17  1  0
 48  5  1  0
 49 48  1  0
 50 49  1  0
 51 53  1  0
 51 50  1  0
 52 51  2  0
 54 56  1  0
 54 53  1  0
 55 66  2  0
 56 61  1  0
 57 65  1  0
 57 67  1  0
 58 64  1  0
 58 60  1  0
 59 65  1  0
 60 59  1  0
 61 60  2  0
 62 63  1  0
 62 56  2  0
 63 58  2  0
 64 57  1  0
 65 55  1  0
 67 69  2  0
 68 67  1  0
 70 68  1  0
 71 80  2  0
 71 76  1  0
 72 68  1  0
 72 76  1  0
 73 72  1  0
 74 75  1  0
 74 73  1  0
 75 71  1  0
 76 77  2  0
 77 78  1  0
 79 78  2  0
 80 79  1  0
 81 55  1  0
 81 82  1  0
 81 91  1  0
 82 85  1  0
 83 87  1  0
 83 82  1  0
 84 83  2  0
 87 86  1  0
 89 87  1  0
 89 90  1  0
 89 88  1  0
 91 94  1  1
 91 92  1  0
 93 91  1  0
M  ISO  4   9 100  17 100  53 101  54 101
M  END
>  <TORSDO>  (29) 
F 22

>  <SCORE>  (29) 
-11.999

>  <name>  (29) 
28

>  <ligand_id>  (29) 
28

>  <original_smiles>  (29) 
[H]C([H])=C([H])N(C(=O)N1C([H])([H])C([H])([H])C([H])([H])C([H])(n2nc(-c3c([H])c([H])c(Oc4c([H])c([H])c(F)c([H])c4F)c([H])c3[H])c(C(=O)N([H])[H])c2N([H])[H])C1([H])[H])c1c([H])c(F)c([H])c(OC([H])([H])C([H])([H])C(=O)C([H])([H])Oc2c([H])c([H])c3c(c2[H])C([H])([H])N(C(=O)C([H])(N([H])C(=O)C([H])(N([H])C([H])([H])[H])C([H])([H])[H])C(C([H])([H])[H])(C([H])([H])[H])C([H])([H])[H])C([H])(C(=O)N([H])C2([H])c4c([H])c([H])c([H])c([H])c4C([H])([H])C([H])([H])C2([H])[H])C3([H])[H])c1C([H])([H])[H]

>  <smiles>  (29) 
[H]C([H])=C([H])N(C(=O)N1C([H])([H])C([H])([H])C([H])([H])C([H])(n2nc(-c3c([H])c([H])c(Oc4c([H])c([H])c(F)c([H])c4F)c([H])c3[H])c(C(=O)N([H])[H])c2N([H])[H])C1([H])[H])c1c([H])c(F)c([H])c(OC([H])([H])C([H])([H])C(=O)C([H])([H])Oc2c([H])c([H])c3c(c2[H])C([H])([H])N(C(=O)C([H])(N([H])C(=O)C([H])(N([H])C([H])([H])[H])C([H])([H])[H])C(C([H])([H])[H])(C([H])([H])[H])C([H])([H])[H])C([H])(C(=O)N([H])C2([H])c4c([H])c([H])c([H])c([H])c4C([H])([H])C([H])([H])C2([H])[H])C3([H])[H])c1C([H])([H])[H]

$$$$
29:0:0
     RDKit          3D

 92100  0  0  1  0  0  0  0  0999 V2000
  -31.1760  -17.9430   20.4340 C   0  0  0  0  0  3  0  0  0  0  0  0
  -28.8450  -19.4770   20.2910 C   0  0  0  0  0  3  0  0  0  0  0  0
  -31.2500  -19.3790   20.3730 C   0  0  0  0  0  0  0  0  0  0  0  0
  -28.7840  -18.0530   20.3660 C   0  0  0  0  0  0  0  0  0  0  0  0
  -30.0680  -20.1930   20.2930 C   0  0  0  0  0  0  0  0  0  0  0  0
  -29.9480  -17.2310   20.4300 C   0  0  0  0  0  0  0  0  0  0  0  0
  -27.4120  -17.4240   20.3440 C   0  0  0  0  0  1  0  0  0  0  0  0
  -30.5800  -14.6960   20.1230 C   0  0  0  0  0  0  0  0  0  0  0  0
  -30.2970  -12.4640   19.0490 C   0  0  0  0  0  2  0  0  0  0  0  0
  -29.2960  -12.6020   17.8810 C   0  0  0  0  0  2  0  0  0  0  0  0
  -27.8450  -12.4410   18.3800 C   0  0  0  0  0  2  0  0  0  0  0  0
  -27.5470  -13.2920   19.6440 C   0  0  0  0  0  3  0  0  0  0  0  0
  -28.6630  -13.1340   20.7020 C   0  0  0  0  0  2  0  0  0  0  0  0
  -29.9440  -13.4800   20.0620 N   0  0  0  0  0  0  0  0  0  0  0  0
  -31.7270  -14.8330   19.6900 O   0  0  0  0  0  0  0  0  0  0  0  0
  -29.8030  -15.7640   20.5090 N   0  0  0  0  0  0  0  0  0  0  0  0
  -28.8890  -15.4650   20.8070 H   0  0  0  0  0  0  0  0  0  0  0  0
  -25.1890  -13.8780   20.4840 C   0  0  0  0  0  0  0  0  0  0  0  0
  -24.1420  -13.1090   20.9020 C   0  0  0  0  0  0  0  0  0  0  0  0
  -24.5960  -11.7580   20.8230 C   0  0  0  0  0  0  0  0  0  0  0  0
  -26.2220  -13.0040   20.1890 N   0  0  0  0  0  0  0  0  0  0  0  0
  -25.8720  -11.7180   20.4520 N   0  0  0  0  0  0  0  0  0  0  0  0
  -23.8700  -10.5000   21.0210 C   0  0  0  0  0  0  0  0  0  0  0  0
  -24.3370   -9.5110   21.9130 C   0  0  0  0  0  3  0  0  0  0  0  0
  -23.6090   -8.3170   22.1010 C   0  0  0  0  0  3  0  0  0  0  0  0
  -22.3990   -8.1060   21.3990 C   0  0  0  0  0  0  0  0  0  0  0  0
  -21.9490   -9.0840   20.4950 C   0  0  0  0  0  3  0  0  0  0  0  0
  -22.6790  -10.2700   20.3050 C   0  0  0  0  0  3  0  0  0  0  0  0
  -21.6370   -6.9670   21.5020 O   0  0  0  0  0  0  0  0  0  0  0  0
  -21.6340   -6.2050   22.6410 C   0  0  0  0  0  0  0  0  0  0  0  0
  -21.2630   -6.7400   23.8950 C   0  0  0  0  0  3  0  0  0  0  0  0
  -21.2080   -5.9040   25.0280 C   0  0  0  0  0  3  0  0  0  0  0  0
  -21.5120   -4.5340   24.9090 C   0  0  0  0  0  0  0  0  0  0  0  0
  -21.8760   -3.9980   23.6610 C   0  0  0  0  0  3  0  0  0  0  0  0
  -21.9340   -4.8320   22.5300 C   0  0  0  0  0  0  0  0  0  0  0  0
  -22.2660   -4.3070   21.3250 F   0  0  0  0  0  0  0  0  0  0  0  0
  -21.4490   -3.7290   25.9950 F   0  0  0  0  0  0  0  0  0  0  0  0
  -22.7640  -13.5930   21.2500 C   0  0  0  0  0  0  0  0  0  0  0  0
  -22.0740  -12.8920   22.1410 N   0  0  0  0  0  0  0  0  0  0  0  0
  -22.3110  -14.6320   20.7680 O   0  0  0  0  0  0  0  0  0  0  0  0
  -22.4550  -12.0510   22.5500 H   0  0  0  0  0  0  0  0  0  0  0  0
  -21.1540  -13.1990   22.4180 H   0  0  0  0  0  0  0  0  0  0  0  0
  -25.3250  -15.2440   20.3000 N   0  0  0  0  0  0  0  0  0  0  0  0
  -24.5360  -15.8700   20.4140 H   0  0  0  0  0  0  0  0  0  0  0  0
  -26.1030  -15.6680   19.8140 H   0  0  0  0  0  0  0  0  0  0  0  0
  -33.7430  -19.4690   20.7950 C   0  0  0  0  0  2  0  0  0  0  0  0
  -32.5760  -20.0370   20.4380 C   0  0  0  0  0  3  0  0  0  0  0  0
  -29.2110  -22.5150   20.0880 C   0  0  0  0  0  3  0  0  0  0  0  0
  -30.1590  -21.6380   20.2760 N   0  0  0  0  0  0  0  0  0  0  0  0
  -29.4180  -24.0810   20.1580 C   0  0  0  0  0  3  0  0  0  0  0  0
  -28.2040  -25.0440   19.7850 C   0  0  0  0  0  3  0  0  0  0  0  0
  -28.3680  -26.5070   19.9730 O   0  0  0  0  0  0  0  0  0  0  0  0
  -24.5760  -31.7670   23.1390 C   0  0  0  0  0  0  0  0  0  0  0  0
  -27.2260  -27.3270   19.9480 C   0  0  0  0  0  0  0  0  0  0  0  0
  -23.3780  -30.4090   21.4610 C   0  0  0  0  0  3  0  0  0  0  0  0
  -24.8370  -28.9100   19.9890 C   0  0  0  0  0  0  0  0  0  0  0  0
  -25.9140  -30.7540   21.2800 C   0  0  0  0  0  2  0  0  0  0  0  0
  -26.0040  -29.3960   20.5950 C   0  0  0  0  0  0  0  0  0  0  0  0
  -27.1990  -28.6170   20.5620 C   0  0  0  0  0  3  0  0  0  0  0  0
  -26.0320  -26.8920   19.3230 C   0  0  0  0  0  3  0  0  0  0  0  0
  -24.8540  -27.6640   19.3440 C   0  0  0  0  0  3  0  0  0  0  0  0
  -23.5940  -29.7720   20.0620 C   0  0  0  0  0  2  0  0  0  0  0  0
  -24.6420  -30.9930   22.0180 N   0  0  0  0  0  0  0  0  0  0  0  0
  -23.4920  -32.0210   23.6860 O   0  0  0  0  0  0  0  0  0  0  0  0
  -22.7240  -29.3600   22.3920 C   0  0  0  0  0  0  0  0  0  0  0  0
  -21.3960  -29.1920   22.2760 N   0  0  0  0  0  0  0  0  0  0  0  0
  -23.4110  -28.7030   23.1790 O   0  0  0  0  0  0  0  0  0  0  0  0
  -20.9010  -29.7750   21.6160 H   0  0  0  0  0  0  0  0  0  0  0  0
  -18.0180  -28.0060   22.7890 C   0  0  0  0  0  0  0  0  0  0  0  0
  -20.5830  -28.2300   23.0230 C   0  0  0  0  0  3  0  0  0  0  0  0
  -20.6620  -26.8230   22.3880 C   0  0  0  0  0  2  0  0  0  0  0  0
  -19.5390  -26.5510   21.3810 C   0  0  0  0  0  2  0  0  0  0  0  0
  -18.1700  -26.6830   22.0560 C   0  0  0  0  0  2  0  0  0  0  0  0
  -19.1520  -28.7390   23.2300 C   0  0  0  0  0  0  0  0  0  0  0  0
  -18.9560  -29.9780   23.8760 C   0  0  0  0  0  3  0  0  0  0  0  0
  -17.6590  -30.4840   24.0870 C   0  0  0  0  0  3  0  0  0  0  0  0
  -16.5400  -29.7470   23.6630 C   0  0  0  0  0  3  0  0  0  0  0  0
  -16.7210  -28.5090   23.0200 C   0  0  0  0  0  3  0  0  0  0  0  0
  -25.8560  -32.3890   23.7780 C   0  0  0  0  0  3  0  0  0  0  0  0
  -26.3730  -31.5910   25.0380 C   0  0  1  0  0  0  0  0  0  0  0  0
  -25.2800  -31.3310   26.1010 C   0  0  0  0  0  1  0  0  0  0  0  0
  -26.9560  -30.2220   24.6160 C   0  0  0  0  0  1  0  0  0  0  0  0
  -27.5230  -32.3710   25.7160 C   0  0  0  0  0  1  0  0  0  0  0  0
  -25.5430  -33.7790   24.1400 N   0  0  0  0  0  0  0  0  0  0  0  0
  -25.8590  -34.8490   23.3990 C   0  0  0  0  0  0  0  0  0  0  0  0
  -26.5150  -34.7710   22.3570 O   0  0  0  0  0  0  0  0  0  0  0  0
  -24.9600  -33.9140   24.9530 H   0  0  0  0  0  0  0  0  0  0  0  0
  -24.1080  -36.6320   23.1120 C   0  0  0  0  0  1  0  0  0  0  0  0
  -25.3690  -36.2250   23.8900 C   0  0  0  0  0  3  0  0  0  0  0  0
  -27.5110  -37.1180   24.6950 C   0  0  0  0  0  1  0  0  0  0  0  0
  -26.3900  -37.2890   23.7730 N   0  0  0  0  0  0  0  0  0  0  0  0
  -25.9780  -38.2030   23.9400 H   0  0  0  0  0  0  0  0  0  0  0  0
  2  5  2  0
  2  4  1  0
  3  1  2  0
  3 47  1  0
  4  6  2  0
  5  3  1  0
  6  1  1  0
  6 16  1  0
  7  4  1  0
  8 16  1  0
  9 14  1  0
 10 11  1  0
 10  9  1  0
 12 11  1  0
 12 21  1  0
 12 13  1  0
 14  8  1  0
 14 13  1  0
 15  8  2  0
 16 17  1  0
 18 19  2  0
 19 38  1  0
 20 19  1  0
 20 23  1  0
 21 22  1  0
 21 18  1  0
 22 20  2  0
 23 24  1  0
 24 25  2  0
 26 29  1  0
 26 25  1  0
 27 26  2  0
 28 27  1  0
 28 23  2  0
 29 30  1  0
 30 31  1  0
 31 32  2  0
 33 32  1  0
 33 37  1  0
 34 33  2  0
 35 30  2  0
 35 34  1  0
 36 35  1  0
 38 39  1  0
 39 42  1  0
 39 41  1  0
 40 38  2  0
 43 44  1  0
 43 18  1  0
 45 43  1  0
 47 46  2  0
 48 50  1  0
 48 49  2  0
 49  5  1  0
 51 52  1  0
 51 50  2  0
 53 64  2  0
 54 52  1  0
 54 59  1  0
 55 63  1  0
 55 65  1  0
 56 62  1  0
 56 58  1  0
 57 63  1  0
 58 57  1  0
 59 58  2  0
 60 61  1  0
 60 54  2  0
 61 56  2  0
 62 55  1  0
 63 53  1  0
 65 67  2  0
 66 65  1  0
 68 66  1  0
 69 78  2  0
 69 74  1  0
 70 66  1  0
 70 74  1  0
 71 70  1  0
 72 73  1  0
 72 71  1  0
 73 69  1  0
 74 75  2  0
 75 76  1  0
 77 76  2  0
 78 77  1  0
 79 53  1  0
 79 84  1  0
 79 80  1  0
 80 83  1  1
 80 81  1  0
 82 80  1  0
 84 87  1  0
 85 89  1  0
 85 84  1  0
 86 85  2  0
 89 88  1  0
 91 89  1  0
 91 92  1  0
 91 90  1  0
M  ISO  4   8 100  16 100  51 101  52 101
M  END
>  <TORSDO>  (30) 
F 20

>  <SCORE>  (30) 
-14.009

>  <name>  (30) 
29

>  <ligand_id>  (30) 
29

>  <original_smiles>  (30) 
[H]C(=Nc1c([H])c(C([H])([H])[H])c(N([H])C(=O)N2C([H])([H])C([H])([H])C([H])([H])C([H])(n3nc(-c4c([H])c([H])c(Oc5c([H])c([H])c(F)c([H])c5F)c([H])c4[H])c(C(=O)N([H])[H])c3N([H])[H])C2([H])[H])c([H])c1C([H])=C([H])[H])C([H])([H])C([H])([H])Oc1c([H])c([H])c2c(c1[H])C([H])([H])N(C(=O)C([H])(N([H])C(=O)C([H])(N([H])C([H])([H])[H])C([H])([H])[H])C(C([H])([H])[H])(C([H])([H])[H])C([H])([H])[H])C([H])(C(=O)N([H])C1([H])c3c([H])c([H])c([H])c([H])c3C([H])([H])C([H])([H])C1([H])[H])C2([H])[H]

>  <smiles>  (30) 
[H]C(=Nc1c([H])c(C([H])([H])[H])c(N([H])C(=O)N2C([H])([H])C([H])([H])C([H])([H])C([H])(n3nc(-c4c([H])c([H])c(Oc5c([H])c([H])c(F)c([H])c5F)c([H])c4[H])c(C(=O)N([H])[H])c3N([H])[H])C2([H])[H])c([H])c1C([H])=C([H])[H])C([H])([H])C([H])([H])Oc1c([H])c([H])c2c(c1[H])C([H])([H])N(C(=O)C([H])(N([H])C(=O)C([H])(N([H])C([H])([H])[H])C([H])([H])[H])C(C([H])([H])[H])(C([H])([H])[H])C([H])([H])[H])C([H])(C(=O)N([H])C1([H])c3c([H])c([H])c([H])c([H])c3C([H])([H])C([H])([H])C1([H])[H])C2([H])[H]

$$$$
30:0:0
     RDKit          3D

 95103  0  0  1  0  0  0  0  0999 V2000
  -29.5070  -18.4750   20.5190 C   0  0  0  0  0  3  0  0  0  0  0  0
  -31.1970  -18.5330   22.7130 C   0  0  0  0  0  3  0  0  0  0  0  0
  -29.7930  -19.7820   21.1060 C   0  0  0  0  0  0  0  0  0  0  0  0
  -30.0460  -17.2140   21.0030 C   0  0  0  0  0  0  0  0  0  0  0  0
  -30.6500  -19.7540   22.2530 C   0  0  0  0  0  0  0  0  0  0  0  0
  -30.9100  -17.2920   22.1150 C   0  0  0  0  0  0  0  0  0  0  0  0
  -31.4380  -16.1690   22.6660 F   0  0  0  0  0  0  0  0  0  0  0  0
  -30.4290  -14.7810   20.1590 C   0  0  0  0  0  0  0  0  0  0  0  0
  -30.1500  -12.5990   18.9640 C   0  0  0  0  0  2  0  0  0  0  0  0
  -29.1290  -12.7530   17.8190 C   0  0  0  0  0  2  0  0  0  0  0  0
  -27.6900  -12.5550   18.3370 C   0  0  0  0  0  2  0  0  0  0  0  0
  -27.4000  -13.3490   19.6390 C   0  0  0  0  0  3  0  0  0  0  0  0
  -28.5360  -13.1680   20.6700 C   0  0  0  0  0  2  0  0  0  0  0  0
  -29.7860  -13.5740   20.0130 N   0  0  0  0  0  0  0  0  0  0  0  0
  -31.5800  -14.9230   19.7400 O   0  0  0  0  0  0  0  0  0  0  0  0
  -29.6560  -15.8780   20.5050 N   0  0  0  0  0  0  0  0  0  0  0  0
  -28.6690  -15.6860   20.5410 H   0  0  0  0  0  0  0  0  0  0  0  0
  -25.0400  -13.8660   20.5010 C   0  0  0  0  0  0  0  0  0  0  0  0
  -24.0140  -13.0600   20.9150 C   0  0  0  0  0  0  0  0  0  0  0  0
  -24.5080  -11.7220   20.8310 C   0  0  0  0  0  0  0  0  0  0  0  0
  -26.0910  -13.0180   20.1940 N   0  0  0  0  0  0  0  0  0  0  0  0
  -25.7830  -11.7230   20.4580 N   0  0  0  0  0  0  0  0  0  0  0  0
  -23.8240  -10.4380   21.0330 C   0  0  0  0  0  0  0  0  0  0  0  0
  -24.3070   -9.4820   21.9540 C   0  0  0  0  0  3  0  0  0  0  0  0
  -23.6190   -8.2660   22.1500 C   0  0  0  0  0  3  0  0  0  0  0  0
  -22.4330   -7.9950   21.4280 C   0  0  0  0  0  0  0  0  0  0  0  0
  -21.9660   -8.9400   20.5000 C   0  0  0  0  0  3  0  0  0  0  0  0
  -22.6550  -10.1490   20.3020 C   0  0  0  0  0  3  0  0  0  0  0  0
  -21.7170   -6.8280   21.5350 O   0  0  0  0  0  0  0  0  0  0  0  0
  -21.7030   -6.0930   22.6920 C   0  0  0  0  0  0  0  0  0  0  0  0
  -21.2490   -6.6340   23.9160 C   0  0  0  0  0  3  0  0  0  0  0  0
  -21.1880   -5.8200   25.0650 C   0  0  0  0  0  3  0  0  0  0  0  0
  -21.5690   -4.4680   24.9910 C   0  0  0  0  0  0  0  0  0  0  0  0
  -22.0110   -3.9250   23.7730 C   0  0  0  0  0  3  0  0  0  0  0  0
  -22.0770   -4.7360   22.6260 C   0  0  0  0  0  0  0  0  0  0  0  0
  -22.4840   -4.2020   21.4490 F   0  0  0  0  0  0  0  0  0  0  0  0
  -21.5030   -3.6850   26.0940 F   0  0  0  0  0  0  0  0  0  0  0  0
  -22.6230  -13.4950   21.2690 C   0  0  0  0  0  0  0  0  0  0  0  0
  -21.9610  -12.7650   22.1580 N   0  0  0  0  0  0  0  0  0  0  0  0
  -22.1370  -14.5210   20.7960 O   0  0  0  0  0  0  0  0  0  0  0  0
  -22.3710  -11.9370   22.5670 H   0  0  0  0  0  0  0  0  0  0  0  0
  -21.0280  -13.0350   22.4300 H   0  0  0  0  0  0  0  0  0  0  0  0
  -25.1550  -15.2430   20.3370 N   0  0  0  0  0  0  0  0  0  0  0  0
  -24.3670  -15.8600   20.5010 H   0  0  0  0  0  0  0  0  0  0  0  0
  -25.9490  -15.7150   19.9250 H   0  0  0  0  0  0  0  0  0  0  0  0
  -31.0220  -20.8890   22.9770 N   0  0  0  0  0  0  0  0  0  0  0  0
  -31.5230  -20.7300   23.8480 H   0  0  0  0  0  0  0  0  0  0  0  0
  -30.3250  -21.6130   23.1100 H   0  0  0  0  0  0  0  0  0  0  0  0
  -29.2810  -21.1070   20.4210 C   0  0  0  0  0  0  0  0  0  0  0  0
  -29.0890  -21.1000   19.1990 O   0  0  0  0  0  0  0  0  0  0  0  0
  -28.8720  -22.4470   21.1980 C   0  0  0  0  0  2  0  0  0  0  0  0
  -29.0790  -23.8770   20.5080 C   0  0  0  0  0  0  0  0  0  0  0  0
  -30.1400  -24.1360   19.9330 O   0  0  0  0  0  0  0  0  0  0  0  0
  -27.9450  -24.9990   20.6080 C   0  0  0  0  0  2  0  0  0  0  0  0
  -28.2880  -26.4410   20.3190 O   0  0  0  0  0  0  0  0  0  0  0  0
  -24.5890  -31.9540   23.2410 C   0  0  0  0  0  0  0  0  0  0  0  0
  -27.2010  -27.3430   20.2370 C   0  0  0  0  0  0  0  0  0  0  0  0
  -23.3930  -30.5490   21.6040 C   0  0  0  0  0  3  0  0  0  0  0  0
  -24.8480  -28.9930   20.1900 C   0  0  0  0  0  0  0  0  0  0  0  0
  -25.9360  -30.8590   21.4320 C   0  0  0  0  0  2  0  0  0  0  0  0
  -26.0180  -29.4730   20.7910 C   0  0  0  0  0  0  0  0  0  0  0  0
  -27.1980  -28.6630   20.8010 C   0  0  0  0  0  3  0  0  0  0  0  0
  -26.0140  -26.9360   19.5890 C   0  0  0  0  0  3  0  0  0  0  0  0
  -24.8540  -27.7350   19.5700 C   0  0  0  0  0  3  0  0  0  0  0  0
  -23.6110  -29.8690   20.2280 C   0  0  0  0  0  2  0  0  0  0  0  0
  -24.6570  -31.1380   22.1480 N   0  0  0  0  0  0  0  0  0  0  0  0
  -23.5060  -32.2330   23.7720 O   0  0  0  0  0  0  0  0  0  0  0  0
  -22.7230  -29.5370   22.5670 C   0  0  0  0  0  0  0  0  0  0  0  0
  -21.3970  -29.3590   22.4360 N   0  0  0  0  0  0  0  0  0  0  0  0
  -23.3970  -28.9130   23.3910 O   0  0  0  0  0  0  0  0  0  0  0  0
  -20.9140  -29.9060   21.7390 H   0  0  0  0  0  0  0  0  0  0  0  0
  -18.0120  -28.1880   22.9460 C   0  0  0  0  0  0  0  0  0  0  0  0
  -20.5730  -28.4280   23.2100 C   0  0  0  0  0  3  0  0  0  0  0  0
  -20.6620  -26.9960   22.6360 C   0  0  0  0  0  2  0  0  0  0  0  0
  -19.5560  -26.6810   21.6240 C   0  0  0  0  0  2  0  0  0  0  0  0
  -18.1780  -26.8380   22.2700 C   0  0  0  0  0  2  0  0  0  0  0  0
  -19.1370  -28.9420   23.3730 C   0  0  0  0  0  0  0  0  0  0  0  0
  -18.9270  -30.2060   23.9670 C   0  0  0  0  0  3  0  0  0  0  0  0
  -17.6270  -30.7140   24.1390 C   0  0  0  0  0  3  0  0  0  0  0  0
  -16.5160  -29.9580   23.7290 C   0  0  0  0  0  3  0  0  0  0  0  0
  -16.7090  -28.6950   23.1370 C   0  0  0  0  0  3  0  0  0  0  0  0
  -25.8700  -32.5910   23.8640 C   0  0  0  0  0  3  0  0  0  0  0  0
  -25.5590  -33.9920   24.1830 N   0  0  0  0  0  0  0  0  0  0  0  0
  -25.8990  -35.0410   23.4220 C   0  0  0  0  0  0  0  0  0  0  0  0
  -26.5740  -34.9300   22.3950 O   0  0  0  0  0  0  0  0  0  0  0  0
  -24.9590  -34.1510   24.9800 H   0  0  0  0  0  0  0  0  0  0  0  0
  -24.1830  -36.8430   23.0410 C   0  0  0  0  0  1  0  0  0  0  0  0
  -25.4120  -36.4340   23.8710 C   0  0  0  0  0  3  0  0  0  0  0  0
  -27.5350  -37.3120   24.7370 C   0  0  0  0  0  1  0  0  0  0  0  0
  -26.4500  -37.4810   23.7730 N   0  0  0  0  0  0  0  0  0  0  0  0
  -26.0470  -38.4050   23.9060 H   0  0  0  0  0  0  0  0  0  0  0  0
  -26.3800  -31.8290   25.1500 C   0  0  1  0  0  0  0  0  0  0  0  0
  -25.2790  -31.5930   26.2110 C   0  0  0  0  0  1  0  0  0  0  0  0
  -26.9650  -30.4470   24.7720 C   0  0  0  0  0  1  0  0  0  0  0  0
  -27.5250  -32.6290   25.8120 C   0  0  0  0  0  1  0  0  0  0  0  0
  1  4  2  0
  1  3  1  0
  3  5  2  0
  4  6  1  0
  5  2  1  0
  5 46  1  0
  6  7  1  0
  6  2  2  0
  8 16  1  0
  9 14  1  0
 10 11  1  0
 10  9  1  0
 12 11  1  0
 12 21  1  0
 12 13  1  0
 14  8  1  0
 14 13  1  0
 15  8  2  0
 16 17  1  0
 16  4  1  0
 18 19  2  0
 19 38  1  0
 20 19  1  0
 20 23  1  0
 21 22  1  0
 21 18  1  0
 22 20  2  0
 23 24  1  0
 24 25  2  0
 26 29  1  0
 26 25  1  0
 27 26  2  0
 28 27  1  0
 28 23  2  0
 29 30  1  0
 30 31  1  0
 31 32  2  0
 33 32  1  0
 33 37  1  0
 34 33  2  0
 35 30  2  0
 35 34  1  0
 36 35  1  0
 38 39  1  0
 39 42  1  0
 39 41  1  0
 40 38  2  0
 43 44  1  0
 43 18  1  0
 45 43  1  0
 46 48  1  0
 46 47  1  0
 49  3  1  0
 49 51  1  0
 50 49  2  0
 52 54  1  0
 52 51  1  0
 53 52  2  0
 55 54  1  0
 56 67  2  0
 57 55  1  0
 57 62  1  0
 58 66  1  0
 58 68  1  0
 59 65  1  0
 59 61  1  0
 60 66  1  0
 61 62  2  0
 61 60  1  0
 63 57  2  0
 64 63  1  0
 64 59  2  0
 65 58  1  0
 66 56  1  0
 68 70  2  0
 69 68  1  0
 71 69  1  0
 72 81  2  0
 72 77  1  0
 73 69  1  0
 73 77  1  0
 74 73  1  0
 75 76  1  0
 75 74  1  0
 76 72  1  0
 77 78  2  0
 78 79  1  0
 80 79  2  0
 81 80  1  0
 82 56  1  0
 82 83  1  0
 82 92  1  0
 83 86  1  0
 84 88  1  0
 84 83  1  0
 85 84  2  0
 88 87  1  0
 90 88  1  0
 90 91  1  0
 90 89  1  0
 92 95  1  1
 92 93  1  0
 94 92  1  0
M  ISO  4   8 100  16 100  54 101  55 101
M  END
>  <TORSDO>  (31) 
F 21

>  <SCORE>  (31) 
-13.378

>  <name>  (31) 
30

>  <ligand_id>  (31) 
30

>  <original_smiles>  (31) 
[H]c1c([H])c([H])c2c(c1[H])C([H])([H])C([H])([H])C([H])([H])C2([H])N([H])C(=O)C1([H])N(C(=O)C([H])(N([H])C(=O)C([H])(N([H])C([H])([H])[H])C([H])([H])[H])C(C([H])([H])[H])(C([H])([H])[H])C([H])([H])[H])C([H])([H])c2c([H])c(OC([H])([H])C(=O)C([H])([H])C(=O)c3c([H])c(N([H])C(=O)N4C([H])([H])C([H])([H])C([H])([H])C([H])(n5nc(-c6c([H])c([H])c(Oc7c([H])c([H])c(F)c([H])c7F)c([H])c6[H])c(C(=O)N([H])[H])c5N([H])[H])C4([H])[H])c(F)c([H])c3N([H])[H])c([H])c([H])c2C1([H])[H]

>  <smiles>  (31) 
[H]c1c([H])c([H])c2c(c1[H])C([H])([H])C([H])([H])C([H])([H])C2([H])N([H])C(=O)C1([H])N(C(=O)C([H])(N([H])C(=O)C([H])(N([H])C([H])([H])[H])C([H])([H])[H])C(C([H])([H])[H])(C([H])([H])[H])C([H])([H])[H])C([H])([H])c2c([H])c(OC([H])([H])C(=O)C([H])([H])C(=O)c3c([H])c(N([H])C(=O)N4C([H])([H])C([H])([H])C([H])([H])C([H])(n5nc(-c6c([H])c([H])c(Oc7c([H])c([H])c(F)c([H])c7F)c([H])c6[H])c(C(=O)N([H])[H])c5N([H])[H])C4([H])[H])c(F)c([H])c3N([H])[H])c([H])c([H])c2C1([H])[H]

$$$$
31:0:0
     RDKit          3D

 94102  0  0  1  0  0  0  0  0999 V2000
  -30.6330  -17.5180   21.8670 C   0  0  0  0  0  3  0  0  0  0  0  0
  -31.2370  -19.8190   22.1110 C   0  0  0  0  0  3  0  0  0  0  0  0
  -29.4760  -19.2270   20.4260 C   0  0  0  0  0  0  0  0  0  0  0  0
  -29.7810  -17.7280   20.7460 C   0  0  0  0  0  0  0  0  0  0  0  0
  -30.3840  -20.1720   21.0460 C   0  0  0  0  0  0  0  0  0  0  0  0
  -31.3170  -18.5120   22.5540 C   0  0  0  0  0  0  0  0  0  0  0  0
  -32.1110  -18.1950   23.6050 F   0  0  0  0  0  0  0  0  0  0  0  0
  -30.1710  -15.0510   20.3150 C   0  0  0  0  0  0  0  0  0  0  0  0
  -30.2110  -12.5820   19.6490 C   0  0  0  0  0  2  0  0  0  0  0  0
  -29.3070  -12.2560   18.4400 C   0  0  0  0  0  2  0  0  0  0  0  0
  -27.8670  -11.9730   18.9050 C   0  0  0  0  0  2  0  0  0  0  0  0
  -27.3650  -13.0200   19.9330 C   0  0  0  0  0  3  0  0  0  0  0  0
  -28.3990  -13.3130   21.0380 C   0  0  0  0  0  2  0  0  0  0  0  0
  -29.6200  -13.7630   20.3570 N   0  0  0  0  0  0  0  0  0  0  0  0
  -31.3870  -15.0880   20.0970 O   0  0  0  0  0  0  0  0  0  0  0  0
  -29.3990  -16.2870   20.2760 N   0  0  0  0  0  0  0  0  0  0  0  0
  -28.4190  -16.1530   20.0760 H   0  0  0  0  0  0  0  0  0  0  0  0
  -24.9940  -13.5290   20.7330 C   0  0  0  0  0  0  0  0  0  0  0  0
  -23.9600  -12.7250   21.1250 C   0  0  0  0  0  0  0  0  0  0  0  0
  -24.4620  -11.3870   21.0880 C   0  0  0  0  0  0  0  0  0  0  0  0
  -26.0550  -12.6790   20.4720 N   0  0  0  0  0  0  0  0  0  0  0  0
  -25.7480  -11.3860   20.7540 N   0  0  0  0  0  0  0  0  0  0  0  0
  -23.7730  -10.1070   21.2930 C   0  0  0  0  0  0  0  0  0  0  0  0
  -24.2460   -9.1530   22.2230 C   0  0  0  0  0  3  0  0  0  0  0  0
  -23.5530   -7.9380   22.4170 C   0  0  0  0  0  3  0  0  0  0  0  0
  -22.3740   -7.6680   21.6810 C   0  0  0  0  0  0  0  0  0  0  0  0
  -21.9210   -8.6100   20.7410 C   0  0  0  0  0  3  0  0  0  0  0  0
  -22.6140   -9.8150   20.5450 C   0  0  0  0  0  3  0  0  0  0  0  0
  -21.6490   -6.5050   21.7860 O   0  0  0  0  0  0  0  0  0  0  0  0
  -21.6400   -5.7640   22.9410 C   0  0  0  0  0  0  0  0  0  0  0  0
  -21.1800   -6.2970   24.1640 C   0  0  0  0  0  3  0  0  0  0  0  0
  -21.1230   -5.4790   25.3110 C   0  0  0  0  0  3  0  0  0  0  0  0
  -21.5150   -4.1300   25.2340 C   0  0  0  0  0  0  0  0  0  0  0  0
  -21.9680   -3.5960   24.0150 C   0  0  0  0  0  3  0  0  0  0  0  0
  -22.0270   -4.4110   22.8710 C   0  0  0  0  0  0  0  0  0  0  0  0
  -22.4450   -3.8850   21.6940 F   0  0  0  0  0  0  0  0  0  0  0  0
  -21.4530   -3.3420   26.3340 F   0  0  0  0  0  0  0  0  0  0  0  0
  -22.5560  -13.1640   21.4170 C   0  0  0  0  0  0  0  0  0  0  0  0
  -21.8660  -12.4600   22.3070 N   0  0  0  0  0  0  0  0  0  0  0  0
  -22.0790  -14.1700   20.8910 O   0  0  0  0  0  0  0  0  0  0  0  0
  -22.2660  -11.6480   22.7520 H   0  0  0  0  0  0  0  0  0  0  0  0
  -20.9250  -12.7380   22.5460 H   0  0  0  0  0  0  0  0  0  0  0  0
  -25.1160  -14.9030   20.5500 N   0  0  0  0  0  0  0  0  0  0  0  0
  -24.3310  -15.5340   20.6730 H   0  0  0  0  0  0  0  0  0  0  0  0
  -25.9380  -15.3650   20.1860 H   0  0  0  0  0  0  0  0  0  0  0  0
  -28.4190  -20.1250   19.5290 C   0  0  0  0  0  0  0  0  0  0  0  0
  -27.9470  -19.5970   18.5180 O   0  0  0  0  0  0  0  0  0  0  0  0
  -27.9090  -21.6520   19.8850 C   0  0  0  0  0  3  0  0  0  0  0  0
  -27.6530  -22.8570   19.1390 C   0  0  0  0  0  3  0  0  0  0  0  0
  -26.9620  -24.3260   19.5770 C   0  0  0  0  0  2  0  0  0  0  0  0
  -27.3300  -25.8120   19.1580 O   0  0  0  0  0  0  0  0  0  0  0  0
  -24.4790  -31.4880   23.0670 C   0  0  0  0  0  0  0  0  0  0  0  0
  -26.4070  -26.9260   19.3380 C   0  0  0  0  0  0  0  0  0  0  0  0
  -23.0730  -30.4340   21.3420 C   0  0  0  0  0  3  0  0  0  0  0  0
  -24.2870  -28.9170   19.6530 C   0  0  0  0  0  0  0  0  0  0  0  0
  -25.6330  -30.4590   21.0650 C   0  0  0  0  0  2  0  0  0  0  0  0
  -25.5350  -29.1550   20.2440 C   0  0  0  0  0  0  0  0  0  0  0  0
  -26.5990  -28.1810   20.0650 C   0  0  0  0  0  3  0  0  0  0  0  0
  -25.1440  -26.8150   18.7220 C   0  0  0  0  0  3  0  0  0  0  0  0
  -24.1090  -27.7640   18.8750 C   0  0  0  0  0  3  0  0  0  0  0  0
  -23.1640  -29.9210   19.8800 C   0  0  0  0  0  2  0  0  0  0  0  0
  -24.4210  -30.8080   21.8800 N   0  0  0  0  0  0  0  0  0  0  0  0
  -23.4520  -31.8050   23.6870 O   0  0  0  0  0  0  0  0  0  0  0  0
  -22.3350  -29.3840   22.2120 C   0  0  0  0  0  0  0  0  0  0  0  0
  -20.9940  -29.3380   22.1200 N   0  0  0  0  0  0  0  0  0  0  0  0
  -22.9740  -28.6150   22.9350 O   0  0  0  0  0  0  0  0  0  0  0  0
  -20.5380  -30.0080   21.5180 H   0  0  0  0  0  0  0  0  0  0  0  0
  -17.5420  -28.3380   22.5900 C   0  0  0  0  0  0  0  0  0  0  0  0
  -20.1190  -28.3880   22.8120 C   0  0  0  0  0  3  0  0  0  0  0  0
  -20.1030  -27.0190   22.0920 C   0  0  0  0  0  2  0  0  0  0  0  0
  -18.9600  -26.8850   21.0790 C   0  0  0  0  0  2  0  0  0  0  0  0
  -17.6050  -27.0580   21.7720 C   0  0  0  0  0  2  0  0  0  0  0  0
  -18.7220  -28.9700   23.0640 C   0  0  0  0  0  0  0  0  0  0  0  0
  -18.6060  -30.1750   23.7930 C   0  0  0  0  0  3  0  0  0  0  0  0
  -17.3450  -30.7440   24.0470 C   0  0  0  0  0  3  0  0  0  0  0  0
  -16.1800  -30.1070   23.5860 C   0  0  0  0  0  3  0  0  0  0  0  0
  -16.2800  -28.9050   22.8630 C   0  0  0  0  0  3  0  0  0  0  0  0
  -25.8390  -31.9170   23.6970 C   0  0  0  0  0  3  0  0  0  0  0  0
  -25.6710  -33.2690   24.2550 N   0  0  0  0  0  0  0  0  0  0  0  0
  -26.1240  -34.3940   23.6870 C   0  0  0  0  0  0  0  0  0  0  0  0
  -26.7930  -34.3930   22.6490 O   0  0  0  0  0  0  0  0  0  0  0  0
  -25.0840  -33.3480   25.0720 H   0  0  0  0  0  0  0  0  0  0  0  0
  -24.6180  -36.4100   23.6430 C   0  0  0  0  0  1  0  0  0  0  0  0
  -25.7860  -35.7310   24.3760 C   0  0  0  0  0  3  0  0  0  0  0  0
  -27.9810  -36.2160   25.3650 C   0  0  0  0  0  1  0  0  0  0  0  0
  -26.9310  -36.6630   24.4520 N   0  0  0  0  0  0  0  0  0  0  0  0
  -26.6260  -37.5860   24.7480 H   0  0  0  0  0  0  0  0  0  0  0  0
  -26.3460  -30.9220   24.8140 C   0  0  1  0  0  0  0  0  0  0  0  0
  -25.2960  -30.6290   25.9110 C   0  0  0  0  0  1  0  0  0  0  0  0
  -26.7680  -29.5700   24.1960 C   0  0  0  0  0  1  0  0  0  0  0  0
  -27.6060  -31.5040   25.4990 C   0  0  0  0  0  1  0  0  0  0  0  0
  -30.4790  -21.4600   20.5380 O   0  0  0  0  0  0  0  0  0  0  0  0
  -31.2600  -23.6920   20.2440 C   0  0  0  0  0  1  0  0  0  0  0  0
  -31.3810  -22.4180   21.0820 C   0  0  0  0  0  2  0  0  0  0  0  0
  1  6  1  0
  2  6  2  0
  3  4  1  0
  3  5  2  0
  4  1  2  0
  5  2  1  0
  6  7  1  0
  8 14  1  0
  9 14  1  0
 10 11  1  0
 10  9  1  0
 12 11  1  0
 12 21  1  0
 12 13  1  0
 14 13  1  0
 15  8  2  0
 16  8  1  0
 16  4  1  0
 17 16  1  0
 18 19  2  0
 19 38  1  0
 20 19  1  0
 20 23  1  0
 21 18  1  0
 21 22  1  0
 22 20  2  0
 23 24  1  0
 24 25  2  0
 26 29  1  0
 26 25  1  0
 27 26  2  0
 28 27  1  0
 28 23  2  0
 29 30  1  0
 30 31  1  0
 31 32  2  0
 33 32  1  0
 33 37  1  0
 34 33  2  0
 35 30  2  0
 35 34  1  0
 36 35  1  0
 38 39  1  0
 39 42  1  0
 39 41  1  0
 40 38  2  0
 43 44  1  0
 43 18  1  0
 45 43  1  0
 46 48  1  0
 46  3  1  0
 47 46  2  0
 49 50  1  0
 49 48  2  0
 51 53  1  0
 51 50  1  0
 52 63  2  0
 53 58  1  0
 54 62  1  0
 54 64  1  0
 55 61  1  0
 55 57  1  0
 56 62  1  0
 57 56  1  0
 58 57  2  0
 59 60  1  0
 59 53  2  0
 60 55  2  0
 61 54  1  0
 62 52  1  0
 64 66  2  0
 65 64  1  0
 67 65  1  0
 68 77  2  0
 68 73  1  0
 69 65  1  0
 69 73  1  0
 70 69  1  0
 71 72  1  0
 71 70  1  0
 72 68  1  0
 73 74  2  0
 74 75  1  0
 76 75  2  0
 77 76  1  0
 78 52  1  0
 78 79  1  0
 78 88  1  0
 79 82  1  0
 80 79  1  0
 80 84  1  0
 81 80  2  0
 84 83  1  0
 84 86  1  0
 86 87  1  0
 86 85  1  0
 88 91  1  1
 88 89  1  0
 90 88  1  0
 92  5  1  0
 92 94  1  0
 93 94  1  0
M  ISO  4   8 100  16 100  50 101  51 101
M  END
>  <TORSDO>  (32) 
F 21

>  <SCORE>  (32) 
-11.121

>  <name>  (32) 
31

>  <ligand_id>  (32) 
31

>  <original_smiles>  (32) 
[H]C(C(=O)c1c(OC([H])([H])C([H])([H])[H])c([H])c(F)c([H])c1N([H])C(=O)N1C([H])([H])C([H])([H])C([H])([H])C([H])(n2nc(-c3c([H])c([H])c(Oc4c([H])c([H])c(F)c([H])c4F)c([H])c3[H])c(C(=O)N([H])[H])c2N([H])[H])C1([H])[H])=C([H])C([H])([H])Oc1c([H])c([H])c2c(c1[H])C([H])([H])N(C(=O)C([H])(N([H])C(=O)C([H])(N([H])C([H])([H])[H])C([H])([H])[H])C(C([H])([H])[H])(C([H])([H])[H])C([H])([H])[H])C([H])(C(=O)N([H])C1([H])c3c([H])c([H])c([H])c([H])c3C([H])([H])C([H])([H])C1([H])[H])C2([H])[H]

>  <smiles>  (32) 
[H]C(C(=O)c1c(OC([H])([H])C([H])([H])[H])c([H])c(F)c([H])c1N([H])C(=O)N1C([H])([H])C([H])([H])C([H])([H])C([H])(n2nc(-c3c([H])c([H])c(Oc4c([H])c([H])c(F)c([H])c4F)c([H])c3[H])c(C(=O)N([H])[H])c2N([H])[H])C1([H])[H])=C([H])C([H])([H])Oc1c([H])c([H])c2c(c1[H])C([H])([H])N(C(=O)C([H])(N([H])C(=O)C([H])(N([H])C([H])([H])[H])C([H])([H])[H])C(C([H])([H])[H])(C([H])([H])[H])C([H])([H])[H])C([H])(C(=O)N([H])C1([H])c3c([H])c([H])c([H])c([H])c3C([H])([H])C([H])([H])C1([H])[H])C2([H])[H]

$$$$
32:0:0
     RDKit          3D

 95103  0  0  1  0  0  0  0  0999 V2000
  -29.2080  -17.5190   20.6380 C   0  0  0  0  0  3  0  0  0  0  0  0
  -31.4310  -17.5910   21.6160 C   0  0  0  0  0  3  0  0  0  0  0  0
  -29.1330  -18.9300   20.6410 C   0  0  0  0  0  0  0  0  0  0  0  0
  -30.3390  -16.8400   21.1270 C   0  0  0  0  0  0  0  0  0  0  0  0
  -30.2150  -19.6850   21.1730 C   0  0  0  0  0  0  0  0  0  0  0  0
  -31.3590  -19.0020   21.6450 C   0  0  0  0  0  0  0  0  0  0  0  0
  -32.3870  -19.7100   22.1720 F   0  0  0  0  0  0  0  0  0  0  0  0
  -30.9800  -14.4810   20.6020 C   0  0  0  0  0  0  0  0  0  0  0  0
  -30.7410  -12.2820   19.4980 C   0  0  0  0  0  2  0  0  0  0  0  0
  -29.8420  -12.4220   18.2510 C   0  0  0  0  0  2  0  0  0  0  0  0
  -28.3430  -12.3400   18.6180 C   0  0  0  0  0  2  0  0  0  0  0  0
  -27.9690  -13.2330   19.8290 C   0  0  0  0  0  3  0  0  0  0  0  0
  -28.9680  -13.0110   20.9860 C   0  0  0  0  0  2  0  0  0  0  0  0
  -30.3250  -13.2950   20.4760 N   0  0  0  0  0  0  0  0  0  0  0  0
  -32.1000  -14.6960   20.1240 O   0  0  0  0  0  0  0  0  0  0  0  0
  -30.2570  -15.4240   21.2250 N   0  0  0  0  0  0  0  0  0  0  0  0
  -29.3630  -15.0680   21.5280 H   0  0  0  0  0  0  0  0  0  0  0  0
  -25.5520  -13.9230   20.3980 C   0  0  0  0  0  0  0  0  0  0  0  0
  -24.4500  -13.1940   20.7530 C   0  0  0  0  0  0  0  0  0  0  0  0
  -24.8780  -11.8300   20.7880 C   0  0  0  0  0  0  0  0  0  0  0  0
  -26.5860  -13.0110   20.2510 N   0  0  0  0  0  0  0  0  0  0  0  0
  -26.1790  -11.7490   20.5410 N   0  0  0  0  0  0  0  0  0  0  0  0
  -24.1120  -10.5920   20.9880 C   0  0  0  0  0  0  0  0  0  0  0  0
  -24.4970   -9.6350   21.9530 C   0  0  0  0  0  3  0  0  0  0  0  0
  -23.7370   -8.4600   22.1370 C   0  0  0  0  0  3  0  0  0  0  0  0
  -22.5780   -8.2330   21.3580 C   0  0  0  0  0  0  0  0  0  0  0  0
  -22.2130   -9.1790   20.3830 C   0  0  0  0  0  3  0  0  0  0  0  0
  -22.9720  -10.3450   20.1950 C   0  0  0  0  0  3  0  0  0  0  0  0
  -21.7950   -7.1080   21.4520 O   0  0  0  0  0  0  0  0  0  0  0  0
  -21.7280   -6.3720   22.6070 C   0  0  0  0  0  0  0  0  0  0  0  0
  -21.3290   -6.9460   23.8340 C   0  0  0  0  0  3  0  0  0  0  0  0
  -21.2040   -6.1380   24.9820 C   0  0  0  0  0  3  0  0  0  0  0  0
  -21.4730   -4.7580   24.9030 C   0  0  0  0  0  0  0  0  0  0  0  0
  -21.8680   -4.1850   23.6820 C   0  0  0  0  0  3  0  0  0  0  0  0
  -21.9920   -4.9900   22.5360 C   0  0  0  0  0  0  0  0  0  0  0  0
  -22.3510   -4.4280   21.3570 F   0  0  0  0  0  0  0  0  0  0  0  0
  -21.3470   -3.9800   26.0040 F   0  0  0  0  0  0  0  0  0  0  0  0
  -23.0540  -13.7130   20.9470 C   0  0  0  0  0  0  0  0  0  0  0  0
  -22.2740  -13.0680   21.8080 N   0  0  0  0  0  0  0  0  0  0  0  0
  -22.6620  -14.7260   20.3680 O   0  0  0  0  0  0  0  0  0  0  0  0
  -22.6020  -12.2470   22.2950 H   0  0  0  0  0  0  0  0  0  0  0  0
  -21.3370  -13.4000   21.9820 H   0  0  0  0  0  0  0  0  0  0  0  0
  -25.7590  -15.2790   20.1610 N   0  0  0  0  0  0  0  0  0  0  0  0
  -24.9700  -15.9120   20.0860 H   0  0  0  0  0  0  0  0  0  0  0  0
  -26.5880  -15.6220   19.6950 H   0  0  0  0  0  0  0  0  0  0  0  0
  -27.8660  -19.5590   20.1830 C   0  0  0  0  0  0  0  0  0  0  0  0
  -27.3470  -20.5360   20.7300 O   0  0  0  0  0  0  0  0  0  0  0  0
  -26.6360  -19.9730   17.9710 C   0  0  0  0  0  1  0  0  0  0  0  0
  -27.2080  -18.9320   18.9480 C   0  0  0  0  0  2  0  0  0  0  0  0
  -30.1460  -21.0530   21.3520 O   0  0  0  0  0  0  0  0  0  0  0  0
  -29.9860  -21.8730   20.1940 C   0  0  0  0  0  2  0  0  0  0  0  0
  -29.1220  -23.0840   20.6090 C   0  0  0  0  0  2  0  0  0  0  0  0
  -29.0940  -24.2830   19.6340 C   0  0  0  0  0  2  0  0  0  0  0  0
  -28.3210  -25.4760   20.2360 C   0  0  0  0  0  2  0  0  0  0  0  0
  -28.2990  -26.6160   19.3680 O   0  0  0  0  0  0  0  0  0  0  0  0
  -24.7020  -31.5720   23.0120 C   0  0  0  0  0  0  0  0  0  0  0  0
  -27.1580  -27.3780   19.4760 C   0  0  0  0  0  0  0  0  0  0  0  0
  -23.4170  -30.3460   21.2880 C   0  0  0  0  0  3  0  0  0  0  0  0
  -24.7950  -28.9110   19.6890 C   0  0  0  0  0  0  0  0  0  0  0  0
  -25.9430  -30.6700   21.0500 C   0  0  0  0  0  2  0  0  0  0  0  0
  -25.9790  -29.3610   20.2880 C   0  0  0  0  0  0  0  0  0  0  0  0
  -27.1660  -28.6020   20.1780 C   0  0  0  0  0  3  0  0  0  0  0  0
  -25.9610  -26.9390   18.8710 C   0  0  0  0  0  3  0  0  0  0  0  0
  -24.7810  -27.6980   18.9770 C   0  0  0  0  0  3  0  0  0  0  0  0
  -23.5720  -29.7860   19.8480 C   0  0  0  0  0  2  0  0  0  0  0  0
  -24.7070  -30.8720   21.8410 N   0  0  0  0  0  0  0  0  0  0  0  0
  -23.6440  -31.8170   23.6070 O   0  0  0  0  0  0  0  0  0  0  0  0
  -22.7690  -29.2570   22.1740 C   0  0  0  0  0  0  0  0  0  0  0  0
  -21.4320  -29.1390   22.0980 N   0  0  0  0  0  0  0  0  0  0  0  0
  -23.4630  -28.5260   22.8860 O   0  0  0  0  0  0  0  0  0  0  0  0
  -20.9340  -29.7840   21.5000 H   0  0  0  0  0  0  0  0  0  0  0  0
  -18.0340  -28.0550   22.6710 C   0  0  0  0  0  0  0  0  0  0  0  0
  -20.6130  -28.1590   22.8110 C   0  0  0  0  0  3  0  0  0  0  0  0
  -20.6040  -26.7980   22.0780 C   0  0  0  0  0  2  0  0  0  0  0  0
  -19.4320  -26.6450   21.1030 C   0  0  0  0  0  2  0  0  0  0  0  0
  -18.0980  -26.7850   21.8420 C   0  0  0  0  0  2  0  0  0  0  0  0
  -19.2140  -28.7100   23.1120 C   0  0  0  0  0  0  0  0  0  0  0  0
  -19.0980  -29.9100   23.8460 C   0  0  0  0  0  3  0  0  0  0  0  0
  -17.8340  -30.4520   24.1460 C   0  0  0  0  0  3  0  0  0  0  0  0
  -16.6680  -29.7890   23.7240 C   0  0  0  0  0  3  0  0  0  0  0  0
  -16.7700  -28.5930   22.9920 C   0  0  0  0  0  3  0  0  0  0  0  0
  -26.0220  -32.1160   23.6440 C   0  0  0  0  0  3  0  0  0  0  0  0
  -25.7420  -33.4590   24.1670 N   0  0  0  0  0  0  0  0  0  0  0  0
  -26.0540  -34.6000   23.5380 C   0  0  0  0  0  0  0  0  0  0  0  0
  -26.6840  -34.6300   22.4770 O   0  0  0  0  0  0  0  0  0  0  0  0
  -25.1900  -33.5100   25.0100 H   0  0  0  0  0  0  0  0  0  0  0  0
  -24.3270  -36.4240   23.4840 C   0  0  0  0  0  1  0  0  0  0  0  0
  -25.5950  -35.9190   24.1900 C   0  0  0  0  0  3  0  0  0  0  0  0
  -27.7680  -36.6810   25.0410 C   0  0  0  0  0  1  0  0  0  0  0  0
  -26.6280  -36.9760   24.1760 N   0  0  0  0  0  0  0  0  0  0  0  0
  -26.2340  -37.8680   24.4620 H   0  0  0  0  0  0  0  0  0  0  0  0
  -26.6000  -31.1850   24.7800 C   0  0  1  0  0  0  0  0  0  0  0  0
  -25.5650  -30.8120   25.8680 C   0  0  0  0  0  1  0  0  0  0  0  0
  -27.1490  -29.8680   24.1810 C   0  0  0  0  0  1  0  0  0  0  0  0
  -27.7940  -31.8820   25.4750 C   0  0  0  0  0  1  0  0  0  0  0  0
  1  3  2  0
  1  4  1  0
  2  6  1  0
  3  5  1  0
  4 16  1  0
  4  2  2  0
  5 50  1  0
  5  6  2  0
  6  7  1  0
  8 16  1  0
  9 14  1  0
 10 11  1  0
 10  9  1  0
 12 11  1  0
 12 21  1  0
 12 13  1  0
 14  8  1  0
 14 13  1  0
 15  8  2  0
 16 17  1  0
 18 19  2  0
 19 20  1  0
 19 38  1  0
 20 23  1  0
 21 18  1  0
 21 22  1  0
 22 20  2  0
 23 24  1  0
 24 25  2  0
 26 29  1  0
 26 25  1  0
 27 26  2  0
 28 27  1  0
 28 23  2  0
 29 30  1  0
 30 31  1  0
 31 32  2  0
 33 32  1  0
 33 37  1  0
 34 33  2  0
 35 30  2  0
 35 34  1  0
 36 35  1  0
 38 39  1  0
 39 42  1  0
 39 41  1  0
 40 38  2  0
 43 18  1  0
 44 43  1  0
 45 43  1  0
 46  3  1  0
 46 47  2  0
 48 49  1  0
 49 46  1  0
 51 52  1  0
 51 50  1  0
 53 54  1  0
 53 52  1  0
 55 57  1  0
 55 54  1  0
 56 67  2  0
 57 62  1  0
 58 66  1  0
 58 68  1  0
 59 65  1  0
 59 61  1  0
 60 66  1  0
 61 60  1  0
 62 61  2  0
 63 64  1  0
 63 57  2  0
 64 59  2  0
 65 58  1  0
 66 56  1  0
 68 70  2  0
 69 68  1  0
 71 69  1  0
 72 81  2  0
 72 77  1  0
 73 69  1  0
 73 77  1  0
 74 73  1  0
 75 76  1  0
 75 74  1  0
 76 72  1  0
 77 78  2  0
 78 79  1  0
 80 79  2  0
 81 80  1  0
 82 56  1  0
 82 83  1  0
 82 92  1  0
 83 86  1  0
 84 83  1  0
 84 88  1  0
 85 84  2  0
 88 87  1  0
 90 88  1  0
 90 91  1  0
 90 89  1  0
 92 95  1  1
 92 93  1  0
 94 92  1  0
M  ISO  4   8 100  16 100  54 101  55 101
M  END
>  <TORSDO>  (33) 
F 23

>  <SCORE>  (33) 
-12.032

>  <name>  (33) 
32

>  <ligand_id>  (33) 
32

>  <original_smiles>  (33) 
[H]c1c([H])c([H])c2c(c1[H])C([H])([H])C([H])([H])C([H])([H])C2([H])N([H])C(=O)C1([H])N(C(=O)C([H])(N([H])C(=O)C([H])(N([H])C([H])([H])[H])C([H])([H])[H])C(C([H])([H])[H])(C([H])([H])[H])C([H])([H])[H])C([H])([H])c2c([H])c(OC([H])([H])C([H])([H])C([H])([H])C([H])([H])Oc3c(F)c([H])c(N([H])C(=O)N4C([H])([H])C([H])([H])C([H])([H])C([H])(n5nc(-c6c([H])c([H])c(Oc7c([H])c([H])c(F)c([H])c7F)c([H])c6[H])c(C(=O)N([H])[H])c5N([H])[H])C4([H])[H])c([H])c3C(=O)C([H])([H])C([H])([H])[H])c([H])c([H])c2C1([H])[H]

>  <smiles>  (33) 
[H]c1c([H])c([H])c2c(c1[H])C([H])([H])C([H])([H])C([H])([H])C2([H])N([H])C(=O)C1([H])N(C(=O)C([H])(N([H])C(=O)C([H])(N([H])C([H])([H])[H])C([H])([H])[H])C(C([H])([H])[H])(C([H])([H])[H])C([H])([H])[H])C([H])([H])c2c([H])c(OC([H])([H])C([H])([H])C([H])([H])C([H])([H])Oc3c(F)c([H])c(N([H])C(=O)N4C([H])([H])C([H])([H])C([H])([H])C([H])(n5nc(-c6c([H])c([H])c(Oc7c([H])c([H])c(F)c([H])c7F)c([H])c6[H])c(C(=O)N([H])[H])c5N([H])[H])C4([H])[H])c([H])c3C(=O)C([H])([H])C([H])([H])[H])c([H])c([H])c2C1([H])[H]

$$$$
33:0:0
     RDKit          3D

 93101  0  0  1  0  0  0  0  0999 V2000
  -29.7860  -19.2310   20.2970 C   0  0  0  0  0  3  0  0  0  0  0  0
  -30.8760  -18.4440   22.3200 C   0  0  0  0  0  3  0  0  0  0  0  0
  -30.1710  -20.7840   22.1360 C   0  0  0  0  0  3  0  0  0  0  0  0
  -30.3980  -18.1670   21.0220 C   0  0  0  0  0  0  0  0  0  0  0  0
  -29.6590  -20.5450   20.8380 C   0  0  0  0  0  0  0  0  0  0  0  0
  -30.7770  -19.7400   22.8680 C   0  0  0  0  0  0  0  0  0  0  0  0
  -31.3170  -19.9880   24.1300 N   0  0  0  0  0  0  0  0  0  0  0  0
  -31.5970  -19.2280   24.7440 H   0  0  0  0  0  0  0  0  0  0  0  0
  -31.1900  -20.8790   24.5990 H   0  0  0  0  0  0  0  0  0  0  0  0
  -30.6340  -16.8120   20.4160 C   0  0  0  0  0  3  0  0  0  0  0  0
  -30.6950  -15.6770   21.0330 N   0  0  0  0  0  0  0  0  0  0  0  0
  -31.2530  -14.6190   20.3050 C   0  0  0  0  0  0  0  0  0  0  0  0
  -30.7880  -12.5020   19.0990 C   0  0  0  0  0  2  0  0  0  0  0  0
  -29.8580  -12.7860   17.9040 C   0  0  0  0  0  2  0  0  0  0  0  0
  -28.3850  -12.7000   18.3450 C   0  0  0  0  0  2  0  0  0  0  0  0
  -28.0990  -13.5160   19.6340 C   0  0  0  0  0  3  0  0  0  0  0  0
  -29.1600  -13.2530   20.7260 C   0  0  0  0  0  2  0  0  0  0  0  0
  -30.4880  -13.4970   20.1450 N   0  0  0  0  0  0  0  0  0  0  0  0
  -32.3440  -14.7100   19.7350 O   0  0  0  0  0  0  0  0  0  0  0  0
  -25.7410  -14.1950   20.4010 C   0  0  0  0  0  0  0  0  0  0  0  0
  -24.6470  -13.4560   20.7640 C   0  0  0  0  0  0  0  0  0  0  0  0
  -25.0520  -12.0890   20.6880 C   0  0  0  0  0  0  0  0  0  0  0  0
  -26.7440  -13.2780   20.1280 N   0  0  0  0  0  0  0  0  0  0  0  0
  -26.3340  -12.0050   20.3580 N   0  0  0  0  0  0  0  0  0  0  0  0
  -24.2750  -10.8540   20.8590 C   0  0  0  0  0  0  0  0  0  0  0  0
  -24.6750   -9.8490   21.7680 C   0  0  0  0  0  3  0  0  0  0  0  0
  -23.9020   -8.6780   21.9260 C   0  0  0  0  0  3  0  0  0  0  0  0
  -22.7150   -8.5060   21.1760 C   0  0  0  0  0  0  0  0  0  0  0  0
  -22.3340   -9.4980   20.2540 C   0  0  0  0  0  3  0  0  0  0  0  0
  -23.1080  -10.6600   20.0950 C   0  0  0  0  0  3  0  0  0  0  0  0
  -21.9130   -7.3920   21.2460 O   0  0  0  0  0  0  0  0  0  0  0  0
  -21.8260   -6.6380   22.3890 C   0  0  0  0  0  0  0  0  0  0  0  0
  -21.4160   -7.1940   23.6200 C   0  0  0  0  0  3  0  0  0  0  0  0
  -21.2730   -6.3690   24.7530 C   0  0  0  0  0  3  0  0  0  0  0  0
  -21.5300   -4.9890   24.6560 C   0  0  0  0  0  0  0  0  0  0  0  0
  -21.9320   -4.4310   23.4300 C   0  0  0  0  0  3  0  0  0  0  0  0
  -22.0760   -5.2530   22.2990 C   0  0  0  0  0  0  0  0  0  0  0  0
  -22.4450   -4.7070   21.1150 F   0  0  0  0  0  0  0  0  0  0  0  0
  -21.3850   -4.1950   25.7430 F   0  0  0  0  0  0  0  0  0  0  0  0
  -23.2770  -13.9830   21.0770 C   0  0  0  0  0  0  0  0  0  0  0  0
  -22.5460  -13.3010   21.9520 N   0  0  0  0  0  0  0  0  0  0  0  0
  -22.8650  -15.0330   20.5810 O   0  0  0  0  0  0  0  0  0  0  0  0
  -22.8940  -12.4500   22.3680 H   0  0  0  0  0  0  0  0  0  0  0  0
  -21.6260  -13.6310   22.2100 H   0  0  0  0  0  0  0  0  0  0  0  0
  -25.9600  -15.5620   20.2610 N   0  0  0  0  0  0  0  0  0  0  0  0
  -25.2310  -16.2500   20.4100 H   0  0  0  0  0  0  0  0  0  0  0  0
  -26.8430  -15.9730   19.9850 H   0  0  0  0  0  0  0  0  0  0  0  0
  -29.0310  -21.6740   19.9820 C   0  0  0  0  0  2  0  0  0  0  0  0
  -28.4440  -24.0230   20.0300 C   0  0  0  0  0  0  0  0  0  0  0  0
  -28.1580  -24.0790   18.5300 C   0  0  0  0  0  1  0  0  0  0  0  0
  -28.8270  -22.9630   20.6660 N   0  0  0  0  0  0  0  0  0  0  0  0
  -28.1850  -25.3440   20.8000 C   0  0  0  0  0  2  0  0  0  0  0  0
  -28.2930  -26.5870   20.0570 O   0  0  0  0  0  0  0  0  0  0  0  0
  -24.5500  -31.8370   23.1530 C   0  0  0  0  0  0  0  0  0  0  0  0
  -27.1510  -27.3670   20.0600 C   0  0  0  0  0  0  0  0  0  0  0  0
  -23.3270  -30.4520   21.5070 C   0  0  0  0  0  3  0  0  0  0  0  0
  -24.7670  -28.9000   20.0790 C   0  0  0  0  0  0  0  0  0  0  0  0
  -25.8560  -30.7910   21.2990 C   0  0  0  0  0  2  0  0  0  0  0  0
  -25.9350  -29.4170   20.6580 C   0  0  0  0  0  0  0  0  0  0  0  0
  -27.1320  -28.6610   20.6420 C   0  0  0  0  0  3  0  0  0  0  0  0
  -25.9690  -26.8700   19.4780 C   0  0  0  0  0  3  0  0  0  0  0  0
  -24.7810  -27.6250   19.4880 C   0  0  0  0  0  3  0  0  0  0  0  0
  -23.5320  -29.7750   20.1260 C   0  0  0  0  0  2  0  0  0  0  0  0
  -24.5970  -31.0440   22.0450 N   0  0  0  0  0  0  0  0  0  0  0  0
  -23.4750  -32.1110   23.7030 O   0  0  0  0  0  0  0  0  0  0  0  0
  -22.6680  -29.4330   22.4640 C   0  0  0  0  0  0  0  0  0  0  0  0
  -21.3440  -29.2500   22.3310 N   0  0  0  0  0  0  0  0  0  0  0  0
  -23.3460  -28.8110   23.2860 O   0  0  0  0  0  0  0  0  0  0  0  0
  -20.8600  -29.7930   21.6290 H   0  0  0  0  0  0  0  0  0  0  0  0
  -17.9710  -28.0490   22.8110 C   0  0  0  0  0  0  0  0  0  0  0  0
  -20.5240  -28.3200   23.1110 C   0  0  0  0  0  3  0  0  0  0  0  0
  -20.6310  -26.8740   22.5650 C   0  0  0  0  0  2  0  0  0  0  0  0
  -19.5530  -26.5420   21.5310 C   0  0  0  0  0  2  0  0  0  0  0  0
  -18.1580  -26.6970   22.1430 C   0  0  0  0  0  2  0  0  0  0  0  0
  -19.0810  -28.8170   23.2510 C   0  0  0  0  0  0  0  0  0  0  0  0
  -18.8510  -30.0830   23.8320 C   0  0  0  0  0  3  0  0  0  0  0  0
  -17.5430  -30.5830   23.9750 C   0  0  0  0  0  3  0  0  0  0  0  0
  -16.4480  -29.8120   23.5490 C   0  0  0  0  0  3  0  0  0  0  0  0
  -16.6620  -28.5470   22.9770 C   0  0  0  0  0  3  0  0  0  0  0  0
  -25.8420  -32.4580   23.7700 C   0  0  0  0  0  3  0  0  0  0  0  0
  -25.5400  -33.8530   24.1230 N   0  0  0  0  0  0  0  0  0  0  0  0
  -25.8740  -34.9140   23.3740 C   0  0  0  0  0  0  0  0  0  0  0  0
  -26.5420  -34.8200   22.3400 O   0  0  0  0  0  0  0  0  0  0  0  0
  -24.9420  -33.9980   24.9230 H   0  0  0  0  0  0  0  0  0  0  0  0
  -24.1540  -36.7220   23.0500 C   0  0  0  0  0  1  0  0  0  0  0  0
  -25.3950  -36.2980   23.8530 C   0  0  0  0  0  3  0  0  0  0  0  0
  -27.5340  -37.1650   24.6920 C   0  0  0  0  0  1  0  0  0  0  0  0
  -26.4310  -37.3480   23.7520 N   0  0  0  0  0  0  0  0  0  0  0  0
  -26.0270  -38.2680   23.9100 H   0  0  0  0  0  0  0  0  0  0  0  0
  -26.3730  -31.6650   25.0290 C   0  0  1  0  0  0  0  0  0  0  0  0
  -25.2950  -31.4180   26.1110 C   0  0  0  0  0  1  0  0  0  0  0  0
  -26.9450  -30.2920   24.6040 C   0  0  0  0  0  1  0  0  0  0  0  0
  -27.5310  -32.4490   25.6920 C   0  0  0  0  0  1  0  0  0  0  0  0
  1  5  2  0
  1  4  1  0
  2  6  1  0
  3  6  2  0
  4  2  2  0
  5  3  1  0
  6  7  1  0
  7  9  1  0
  7  8  1  0
 10  4  1  0
 10 11  2  0
 12 11  1  0
 13 18  1  0
 14 15  1  0
 14 13  1  0
 16 15  1  0
 16 23  1  0
 16 17  1  0
 18 12  1  0
 18 17  1  0
 19 12  2  0
 20 21  2  0
 21 40  1  0
 22 21  1  0
 22 25  1  0
 23 24  1  0
 23 20  1  0
 24 22  2  0
 25 26  1  0
 26 27  2  0
 28 31  1  0
 28 27  1  0
 29 28  2  0
 30 29  1  0
 30 25  2  0
 31 32  1  0
 32 33  1  0
 33 34  2  0
 35 34  1  0
 35 39  1  0
 36 35  2  0
 37 32  2  0
 37 36  1  0
 38 37  1  0
 40 41  1  0
 41 44  1  0
 41 43  1  0
 42 40  2  0
 45 20  1  0
 45 46  1  0
 47 45  1  0
 48 51  1  0
 48  5  1  0
 49 51  2  0
 49 52  1  0
 50 49  1  0
 53 55  1  0
 53 52  1  0
 54 65  2  0
 55 60  1  0
 56 64  1  0
 56 66  1  0
 57 63  1  0
 57 59  1  0
 58 64  1  0
 59 58  1  0
 60 59  2  0
 61 62  1  0
 61 55  2  0
 62 57  2  0
 63 56  1  0
 64 54  1  0
 66 68  2  0
 67 66  1  0
 69 67  1  0
 70 79  2  0
 70 75  1  0
 71 67  1  0
 71 75  1  0
 72 71  1  0
 73 74  1  0
 73 72  1  0
 74 70  1  0
 75 76  2  0
 76 77  1  0
 78 77  2  0
 79 78  1  0
 80 54  1  0
 80 81  1  0
 80 90  1  0
 81 84  1  0
 82 86  1  0
 82 81  1  0
 83 82  2  0
 86 85  1  0
 88 86  1  0
 88 89  1  0
 88 87  1  0
 90 93  1  1
 90 91  1  0
 92 90  1  0
M  ISO  4  11 100  12 100  52 101  53 101
M  END
>  <TORSDO>  (34) 
F 21

>  <SCORE>  (34) 
-13.209

>  <name>  (34) 
33

>  <ligand_id>  (34) 
33

>  <original_smiles>  (34) 
[H]C(=NC(=O)N1C([H])([H])C([H])([H])C([H])([H])C([H])(n2nc(-c3c([H])c([H])c(Oc4c([H])c([H])c(F)c([H])c4F)c([H])c3[H])c(C(=O)N([H])[H])c2N([H])[H])C1([H])[H])c1c([H])c(N([H])[H])c([H])c(C([H])([H])N=C(C([H])([H])[H])C([H])([H])Oc2c([H])c([H])c3c(c2[H])C([H])([H])N(C(=O)C([H])(N([H])C(=O)C([H])(N([H])C([H])([H])[H])C([H])([H])[H])C(C([H])([H])[H])(C([H])([H])[H])C([H])([H])[H])C([H])(C(=O)N([H])C2([H])c4c([H])c([H])c([H])c([H])c4C([H])([H])C([H])([H])C2([H])[H])C3([H])[H])c1[H]

>  <smiles>  (34) 
[H]C(=NC(=O)N1C([H])([H])C([H])([H])C([H])([H])C([H])(n2nc(-c3c([H])c([H])c(Oc4c([H])c([H])c(F)c([H])c4F)c([H])c3[H])c(C(=O)N([H])[H])c2N([H])[H])C1([H])[H])c1c([H])c(N([H])[H])c([H])c(C([H])([H])N=C(C([H])([H])[H])C([H])([H])Oc2c([H])c([H])c3c(c2[H])C([H])([H])N(C(=O)C([H])(N([H])C(=O)C([H])(N([H])C([H])([H])[H])C([H])([H])[H])C(C([H])([H])[H])(C([H])([H])[H])C([H])([H])[H])C([H])(C(=O)N([H])C2([H])c4c([H])c([H])c([H])c([H])c4C([H])([H])C([H])([H])C2([H])[H])C3([H])[H])c1[H]

$$$$
34:0:0
     RDKit          3D

 99107  0  0  1  0  0  0  0  0999 V2000
  -30.2560  -20.8000   21.5010 C   0  0  0  0  0  3  0  0  0  0  0  0
  -30.6530  -18.0740   21.7090 C   0  0  0  0  0  0  0  0  0  0  0  0
  -30.6660  -18.6310   20.3630 C   0  0  0  0  0  0  0  0  0  0  0  0
  -30.3230  -20.1020   20.2530 C   0  0  0  0  0  0  0  0  0  0  0  0
  -30.3760  -20.2470   22.7790 C   0  0  0  0  0  0  0  0  0  0  0  0
  -30.5440  -18.8670   22.8770 C   0  0  0  0  0  0  0  0  0  0  0  0
  -31.3050  -15.0950   18.7380 C   0  0  0  0  0  0  0  0  0  0  0  0
  -30.9530  -12.7340   17.8520 C   0  0  0  0  0  2  0  0  0  0  0  0
  -29.7610  -12.6080   16.8730 C   0  0  0  0  0  2  0  0  0  0  0  0
  -28.4380  -12.3860   17.6340 C   0  0  0  0  0  2  0  0  0  0  0  0
  -28.2790  -13.3640   18.8130 C   0  0  0  0  0  3  0  0  0  0  0  0
  -29.5640  -13.4150   19.6750 C   0  0  0  0  0  2  0  0  0  0  0  0
  -30.6650  -13.8510   18.8000 N   0  0  0  0  0  0  0  0  0  0  0  0
  -32.4370  -15.0860   18.2370 O   0  0  0  0  0  0  0  0  0  0  0  0
  -31.1950  -17.6260   19.2490 C   0  0  0  0  0  0  0  0  0  0  0  0
  -29.1980  -16.4550   18.9560 C   0  0  0  0  0  1  0  0  0  0  0  0
  -30.6540  -16.3250   19.0980 N   0  0  0  0  0  0  0  0  0  0  0  0
  -32.1610  -18.0090   18.5770 O   0  0  0  0  0  0  0  0  0  0  0  0
  -26.1610  -14.0560   20.0900 C   0  0  0  0  0  0  0  0  0  0  0  0
  -25.1710  -13.3200   20.6750 C   0  0  0  0  0  0  0  0  0  0  0  0
  -25.5420  -11.9530   20.4980 C   0  0  0  0  0  0  0  0  0  0  0  0
  -27.0780  -13.1350   19.6010 N   0  0  0  0  0  0  0  0  0  0  0  0
  -26.7250  -11.8640   19.9040 N   0  0  0  0  0  0  0  0  0  0  0  0
  -24.8100  -10.7180   20.7970 C   0  0  0  0  0  0  0  0  0  0  0  0
  -25.1980   -9.8730   21.8580 C   0  0  0  0  0  3  0  0  0  0  0  0
  -24.4680   -8.6990   22.1370 C   0  0  0  0  0  3  0  0  0  0  0  0
  -23.3360   -8.3650   21.3570 C   0  0  0  0  0  0  0  0  0  0  0  0
  -22.9680   -9.2000   20.2870 C   0  0  0  0  0  3  0  0  0  0  0  0
  -23.7010  -10.3650   20.0070 C   0  0  0  0  0  3  0  0  0  0  0  0
  -22.5860   -7.2290   21.5380 O   0  0  0  0  0  0  0  0  0  0  0  0
  -22.0900   -6.8860   22.7700 C   0  0  0  0  0  0  0  0  0  0  0  0
  -21.2660   -7.7630   23.5070 C   0  0  0  0  0  3  0  0  0  0  0  0
  -20.7190   -7.3450   24.7370 C   0  0  0  0  0  3  0  0  0  0  0  0
  -20.9860   -6.0530   25.2240 C   0  0  0  0  0  0  0  0  0  0  0  0
  -21.8020   -5.1770   24.4880 C   0  0  0  0  0  3  0  0  0  0  0  0
  -22.3520   -5.5920   23.2630 C   0  0  0  0  0  0  0  0  0  0  0  0
  -23.1220   -4.7380   22.5460 F   0  0  0  0  0  0  0  0  0  0  0  0
  -20.4550   -5.6500   26.4030 F   0  0  0  0  0  0  0  0  0  0  0  0
  -23.8980  -13.8520   21.2660 C   0  0  0  0  0  0  0  0  0  0  0  0
  -23.4100  -13.2280   22.3330 N   0  0  0  0  0  0  0  0  0  0  0  0
  -23.3580  -14.8620   20.8170 O   0  0  0  0  0  0  0  0  0  0  0  0
  -23.8680  -12.4150   22.7150 H   0  0  0  0  0  0  0  0  0  0  0  0
  -22.5690  -13.5730   22.7720 H   0  0  0  0  0  0  0  0  0  0  0  0
  -26.3250  -15.4250   19.9060 N   0  0  0  0  0  0  0  0  0  0  0  0
  -25.6030  -16.0870   20.1710 H   0  0  0  0  0  0  0  0  0  0  0  0
  -27.0510  -15.8390   19.3390 H   0  0  0  0  0  0  0  0  0  0  0  0
  -31.3000  -18.9200   25.1600 C   0  0  0  0  0  1  0  0  0  0  0  0
  -30.5940  -18.2530   24.1170 O   0  0  0  0  0  0  0  0  0  0  0  0
  -29.8200  -15.7510   21.9790 C   0  0  0  0  0  2  0  0  0  0  0  0
  -30.8270  -16.6420   22.0380 C   0  0  0  0  0  3  0  0  0  0  0  0
  -30.0210  -20.9790   19.1230 O   0  0  0  0  0  0  0  0  0  0  0  0
  -29.3240  -22.3270   19.4150 C   0  0  0  0  0  2  0  0  0  0  0  0
  -29.0740  -23.5640   18.4060 C   0  0  0  0  0  0  0  0  0  0  0  0
  -29.6280  -23.6020   17.3020 O   0  0  0  0  0  0  0  0  0  0  0  0
  -28.0770  -24.7610   18.8810 C   0  0  0  0  0  2  0  0  0  0  0  0
  -28.2770  -26.2240   18.4960 O   0  0  0  0  0  0  0  0  0  0  0  0
  -24.6870  -31.1640   22.5310 C   0  0  0  0  0  0  0  0  0  0  0  0
  -27.1770  -27.1120   18.6720 C   0  0  0  0  0  0  0  0  0  0  0  0
  -23.4110  -29.9990   20.7690 C   0  0  0  0  0  3  0  0  0  0  0  0
  -24.7990  -28.7100   19.0410 C   0  0  0  0  0  0  0  0  0  0  0  0
  -25.9370  -30.3820   20.4950 C   0  0  0  0  0  2  0  0  0  0  0  0
  -26.0000  -29.1130   19.6400 C   0  0  0  0  0  0  0  0  0  0  0  0
  -27.1910  -28.3320   19.4420 C   0  0  0  0  0  3  0  0  0  0  0  0
  -25.9470  -26.7920   18.0550 C   0  0  0  0  0  3  0  0  0  0  0  0
  -24.7800  -27.5630   18.2350 C   0  0  0  0  0  3  0  0  0  0  0  0
  -23.5560  -29.5450   19.2920 C   0  0  0  0  0  2  0  0  0  0  0  0
  -24.7000  -30.5270   21.3230 N   0  0  0  0  0  0  0  0  0  0  0  0
  -23.6320  -31.3320   23.1620 O   0  0  0  0  0  0  0  0  0  0  0  0
  -22.8170  -28.8370   21.6040 C   0  0  0  0  0  0  0  0  0  0  0  0
  -21.4830  -28.6740   21.5640 N   0  0  0  0  0  0  0  0  0  0  0  0
  -23.5550  -28.0900   22.2510 O   0  0  0  0  0  0  0  0  0  0  0  0
  -20.9420  -29.3320   21.0180 H   0  0  0  0  0  0  0  0  0  0  0  0
  -18.1470  -27.4080   22.1810 C   0  0  0  0  0  0  0  0  0  0  0  0
  -20.7250  -27.6170   22.2370 C   0  0  0  0  0  3  0  0  0  0  0  0
  -20.7460  -26.3080   21.4120 C   0  0  0  0  0  2  0  0  0  0  0  0
  -19.5440  -26.1700   20.4720 C   0  0  0  0  0  2  0  0  0  0  0  0
  -18.2340  -26.1990   21.2630 C   0  0  0  0  0  2  0  0  0  0  0  0
  -19.3160  -28.0820   22.6250 C   0  0  0  0  0  0  0  0  0  0  0  0
  -19.1760  -29.2210   23.4500 C   0  0  0  0  0  3  0  0  0  0  0  0
  -17.9020  -29.6810   23.8320 C   0  0  0  0  0  3  0  0  0  0  0  0
  -16.7500  -29.0020   23.4000 C   0  0  0  0  0  3  0  0  0  0  0  0
  -16.8740  -27.8660   22.5800 C   0  0  0  0  0  3  0  0  0  0  0  0
  -25.9920  -31.7300   23.1680 C   0  0  0  0  0  3  0  0  0  0  0  0
  -25.6590  -33.0140   23.8030 N   0  0  0  0  0  0  0  0  0  0  0  0
  -25.8920  -34.2170   23.2600 C   0  0  0  0  0  0  0  0  0  0  0  0
  -26.4780  -34.3600   22.1830 O   0  0  0  0  0  0  0  0  0  0  0  0
  -25.1280  -32.9690   24.6600 H   0  0  0  0  0  0  0  0  0  0  0  0
  -24.0710  -35.9460   23.4290 C   0  0  0  0  0  1  0  0  0  0  0  0
  -25.3970  -35.4560   24.0320 C   0  0  0  0  0  3  0  0  0  0  0  0
  -27.5570  -36.2840   24.8560 C   0  0  0  0  0  1  0  0  0  0  0  0
  -26.3730  -36.5670   24.0490 N   0  0  0  0  0  0  0  0  0  0  0  0
  -25.9450  -37.4180   24.4030 H   0  0  0  0  0  0  0  0  0  0  0  0
  -26.6440  -30.7480   24.2200 C   0  0  1  0  0  0  0  0  0  0  0  0
  -25.6530  -30.2350   25.2890 C   0  0  0  0  0  1  0  0  0  0  0  0
  -27.2580  -29.5150   23.5150 C   0  0  0  0  0  1  0  0  0  0  0  0
  -27.8050  -31.4620   24.9520 C   0  0  0  0  0  1  0  0  0  0  0  0
  -30.2760  -20.9860   23.9460 O   0  0  0  0  0  0  0  0  0  0  0  0
  -30.9210  -22.8420   25.3090 C   0  0  0  0  0  1  0  0  0  0  0  0
  -30.4510  -22.4000   23.9210 C   0  0  0  0  0  2  0  0  0  0  0  0
  1  5  1  0
  2 50  1  0
  2  6  1  0
  3  2  2  0
  4  3  1  0
  4  1  2  0
  5  6  2  0
  5 97  1  0
  6 48  1  0
  7 13  1  0
  7 17  1  0
  8 13  1  0
  9 10  1  0
  9  8  1  0
 11 10  1  0
 11 22  1  0
 11 12  1  0
 13 12  1  0
 14  7  2  0
 15  3  1  0
 16 17  1  0
 17 15  1  0
 18 15  2  0
 19 20  2  0
 20 39  1  0
 21 20  1  0
 21 24  1  0
 22 23  1  0
 22 19  1  0
 23 21  2  0
 24 25  1  0
 25 26  2  0
 27 30  1  0
 27 26  1  0
 28 27  2  0
 29 28  1  0
 29 24  2  0
 30 31  1  0
 31 36  2  0
 31 32  1  0
 32 33  2  0
 33 34  1  0
 34 38  1  0
 35 34  2  0
 36 35  1  0
 37 36  1  0
 39 40  1  0
 40 42  1  0
 40 43  1  0
 41 39  2  0
 44 19  1  0
 44 45  1  0
 46 44  1  0
 48 47  1  0
 49 50  2  0
 51 52  1  0
 51  4  1  0
 53 55  1  0
 53 52  1  0
 54 53  2  0
 56 58  1  0
 56 55  1  0
 57 68  2  0
 58 63  1  0
 59 67  1  0
 59 69  1  0
 60 66  1  0
 60 62  1  0
 61 67  1  0
 62 61  1  0
 63 62  2  0
 64 65  1  0
 64 58  2  0
 65 60  2  0
 66 59  1  0
 67 57  1  0
 69 71  2  0
 70 69  1  0
 72 70  1  0
 73 82  2  0
 73 78  1  0
 74 70  1  0
 74 78  1  0
 75 74  1  0
 76 77  1  0
 76 75  1  0
 77 73  1  0
 78 79  2  0
 79 80  1  0
 81 80  2  0
 82 81  1  0
 83 57  1  0
 83 84  1  0
 83 93  1  0
 84 87  1  0
 85 84  1  0
 85 89  1  0
 86 85  2  0
 89 88  1  0
 89 91  1  0
 91 92  1  0
 91 90  1  0
 93 96  1  1
 93 94  1  0
 95 93  1  0
 99 97  1  0
 99 98  1  0
M  ISO  4   7 100  17 100  55 101  56 101
M  END
>  <TORSDO>  (35) 
F 24

>  <SCORE>  (35) 
-2.629

>  <name>  (35) 
34

>  <ligand_id>  (35) 
34

>  <original_smiles>  (35) 
[H]C([H])=C([H])c1c(OC([H])([H])[H])c(OC([H])([H])C([H])([H])[H])c([H])c(OC([H])([H])C(=O)C([H])([H])Oc2c([H])c([H])c3c(c2[H])C([H])([H])N(C(=O)C([H])(N([H])C(=O)C([H])(N([H])C([H])([H])[H])C([H])([H])[H])C(C([H])([H])[H])(C([H])([H])[H])C([H])([H])[H])C([H])(C(=O)N([H])C2([H])c4c([H])c([H])c([H])c([H])c4C([H])([H])C([H])([H])C2([H])[H])C3([H])[H])c1C(=O)N(C(=O)N1C([H])([H])C([H])([H])C([H])([H])C([H])(n2nc(-c3c([H])c([H])c(Oc4c([H])c([H])c(F)c([H])c4F)c([H])c3[H])c(C(=O)N([H])[H])c2N([H])[H])C1([H])[H])C([H])([H])[H]

>  <smiles>  (35) 
[H]C([H])=C([H])c1c(OC([H])([H])[H])c(OC([H])([H])C([H])([H])[H])c([H])c(OC([H])([H])C(=O)C([H])([H])Oc2c([H])c([H])c3c(c2[H])C([H])([H])N(C(=O)C([H])(N([H])C(=O)C([H])(N([H])C([H])([H])[H])C([H])([H])[H])C(C([H])([H])[H])(C([H])([H])[H])C([H])([H])[H])C([H])(C(=O)N([H])C2([H])c4c([H])c([H])c([H])c([H])c4C([H])([H])C([H])([H])C2([H])[H])C3([H])[H])c1C(=O)N(C(=O)N1C([H])([H])C([H])([H])C([H])([H])C([H])(n2nc(-c3c([H])c([H])c(Oc4c([H])c([H])c(F)c([H])c4F)c([H])c3[H])c(C(=O)N([H])[H])c2N([H])[H])C1([H])[H])C([H])([H])[H]

$$$$
35:0:0
     RDKit          3D

 97105  0  0  1  0  0  0  0  0999 V2000
  -30.2230  -18.7460   21.5120 C   0  0  0  0  0  3  0  0  0  0  0  0
  -28.6290  -18.1660   19.7720 C   0  0  0  0  0  3  0  0  0  0  0  0
  -29.5560  -17.7520   20.7570 C   0  0  0  0  0  0  0  0  0  0  0  0
  -30.1040  -20.1200   21.1860 C   0  0  0  0  0  0  0  0  0  0  0  0
  -28.4810  -19.5350   19.4520 C   0  0  0  0  0  0  0  0  0  0  0  0
  -29.2360  -20.5130   20.1360 C   0  0  0  0  0  0  0  0  0  0  0  0
  -27.5440  -19.9570   18.3360 C   0  0  0  0  0  1  0  0  0  0  0  0
  -30.7980  -14.3340   19.9990 C   0  0  0  0  0  0  0  0  0  0  0  0
  -30.3680  -12.1850   18.9020 C   0  0  0  0  0  2  0  0  0  0  0  0
  -29.3610  -12.4210   17.7570 C   0  0  0  0  0  2  0  0  0  0  0  0
  -27.9140  -12.3160   18.2780 C   0  0  0  0  0  2  0  0  0  0  0  0
  -27.6630  -13.1430   19.5700 C   0  0  0  0  0  3  0  0  0  0  0  0
  -28.7930  -12.9250   20.6030 C   0  0  0  0  0  2  0  0  0  0  0  0
  -30.0730  -13.1860   19.9350 N   0  0  0  0  0  0  0  0  0  0  0  0
  -31.9870  -14.3750   19.6690 O   0  0  0  0  0  0  0  0  0  0  0  0
  -29.8930  -16.2880   20.9890 C   0  0  0  0  0  0  0  0  0  0  0  0
  -30.0740  -15.4780   19.9000 N   0  0  0  0  0  0  0  0  0  0  0  0
  -30.0510  -15.9100   22.1540 O   0  0  0  0  0  0  0  0  0  0  0  0
  -25.3350  -13.7590   20.4660 C   0  0  0  0  0  0  0  0  0  0  0  0
  -24.2760  -12.9930   20.8750 C   0  0  0  0  0  0  0  0  0  0  0  0
  -24.7160  -11.6370   20.7820 C   0  0  0  0  0  0  0  0  0  0  0  0
  -26.3450  -12.8700   20.1360 N   0  0  0  0  0  0  0  0  0  0  0  0
  -25.9820  -11.5870   20.3870 N   0  0  0  0  0  0  0  0  0  0  0  0
  -23.9850  -10.3810   20.9920 C   0  0  0  0  0  0  0  0  0  0  0  0
  -24.4510   -9.3980   21.8930 C   0  0  0  0  0  3  0  0  0  0  0  0
  -23.7200   -8.2060   22.0910 C   0  0  0  0  0  3  0  0  0  0  0  0
  -22.5110   -7.9890   21.3890 C   0  0  0  0  0  0  0  0  0  0  0  0
  -22.0660   -8.9600   20.4740 C   0  0  0  0  0  3  0  0  0  0  0  0
  -22.7970  -10.1430   20.2740 C   0  0  0  0  0  3  0  0  0  0  0  0
  -21.7500   -6.8480   21.4980 O   0  0  0  0  0  0  0  0  0  0  0  0
  -21.7350   -6.1030   22.6500 C   0  0  0  0  0  0  0  0  0  0  0  0
  -21.3330   -6.6500   23.8880 C   0  0  0  0  0  3  0  0  0  0  0  0
  -21.2630   -5.8270   25.0300 C   0  0  0  0  0  3  0  0  0  0  0  0
  -21.5860   -4.4610   24.9370 C   0  0  0  0  0  0  0  0  0  0  0  0
  -21.9840   -3.9140   23.7040 C   0  0  0  0  0  3  0  0  0  0  0  0
  -22.0560   -4.7330   22.5640 C   0  0  0  0  0  0  0  0  0  0  0  0
  -22.4170   -4.1950   21.3730 F   0  0  0  0  0  0  0  0  0  0  0  0
  -21.5130   -3.6690   26.0320 F   0  0  0  0  0  0  0  0  0  0  0  0
  -22.9070  -13.4830   21.2460 C   0  0  0  0  0  0  0  0  0  0  0  0
  -22.2280  -12.7780   22.1450 N   0  0  0  0  0  0  0  0  0  0  0  0
  -22.4520  -14.5230   20.7710 O   0  0  0  0  0  0  0  0  0  0  0  0
  -22.6130  -11.9350   22.5440 H   0  0  0  0  0  0  0  0  0  0  0  0
  -21.3130  -13.0880   22.4390 H   0  0  0  0  0  0  0  0  0  0  0  0
  -25.5200  -15.1330   20.3350 N   0  0  0  0  0  0  0  0  0  0  0  0
  -24.8100  -15.7960   20.6260 H   0  0  0  0  0  0  0  0  0  0  0  0
  -26.3880  -15.5750   20.0700 H   0  0  0  0  0  0  0  0  0  0  0  0
  -30.9760  -16.7850   18.0340 C   0  0  0  0  0  2  0  0  0  0  0  0
  -30.0280  -16.0050   18.5930 C   0  0  0  0  0  3  0  0  0  0  0  0
  -30.8790  -21.1410   21.9130 C   0  0  0  0  0  3  0  0  0  0  0  0
  -31.3220  -21.0510   23.1790 C   0  0  0  0  0  3  0  0  0  0  0  0
  -32.1510  -22.1210   23.8570 C   0  0  0  0  0  1  0  0  0  0  0  0
  -29.1850  -21.8160   19.6930 O   0  0  0  0  0  0  0  0  0  0  0  0
  -28.4700  -22.7340   20.5200 C   0  0  0  0  0  2  0  0  0  0  0  0
  -28.6730  -24.1700   20.0110 C   0  0  0  0  0  0  0  0  0  0  0  0
  -29.0970  -24.4040   18.8720 O   0  0  0  0  0  0  0  0  0  0  0  0
  -28.3120  -25.3000   20.9850 C   0  0  0  0  0  2  0  0  0  0  0  0
  -28.5070  -26.5990   20.4030 O   0  0  0  0  0  0  0  0  0  0  0  0
  -24.6680  -31.8200   23.3000 C   0  0  0  0  0  0  0  0  0  0  0  0
  -27.3570  -27.3460   20.3410 C   0  0  0  0  0  0  0  0  0  0  0  0
  -23.4920  -30.4080   21.6440 C   0  0  0  0  0  3  0  0  0  0  0  0
  -24.9710  -28.8480   20.2730 C   0  0  0  0  0  0  0  0  0  0  0  0
  -26.0190  -30.7630   21.4920 C   0  0  0  0  0  2  0  0  0  0  0  0
  -26.1170  -29.3820   20.8790 C   0  0  0  0  0  0  0  0  0  0  0  0
  -27.3160  -28.6370   20.9090 C   0  0  0  0  0  3  0  0  0  0  0  0
  -26.2010  -26.8240   19.7220 C   0  0  0  0  0  3  0  0  0  0  0  0
  -25.0070  -27.5670   19.6930 C   0  0  0  0  0  3  0  0  0  0  0  0
  -23.7310  -29.7110   20.2770 C   0  0  0  0  0  2  0  0  0  0  0  0
  -24.7450  -31.0110   22.2060 N   0  0  0  0  0  0  0  0  0  0  0  0
  -23.5780  -32.1030   23.8130 O   0  0  0  0  0  0  0  0  0  0  0  0
  -22.8150  -29.4010   22.5990 C   0  0  0  0  0  0  0  0  0  0  0  0
  -21.4920  -29.2270   22.4450 N   0  0  0  0  0  0  0  0  0  0  0  0
  -23.4760  -28.7780   23.4360 O   0  0  0  0  0  0  0  0  0  0  0  0
  -21.0210  -29.7840   21.7460 H   0  0  0  0  0  0  0  0  0  0  0  0
  -18.0970  -28.0760   22.8870 C   0  0  0  0  0  0  0  0  0  0  0  0
  -20.6520  -28.3030   23.2050 C   0  0  0  0  0  3  0  0  0  0  0  0
  -20.7470  -26.8670   22.6390 C   0  0  0  0  0  2  0  0  0  0  0  0
  -19.6620  -26.5540   21.6040 C   0  0  0  0  0  2  0  0  0  0  0  0
  -18.2710  -26.7190   22.2210 C   0  0  0  0  0  2  0  0  0  0  0  0
  -19.2170  -28.8260   23.3330 C   0  0  0  0  0  0  0  0  0  0  0  0
  -19.0040  -30.0950   23.9120 C   0  0  0  0  0  3  0  0  0  0  0  0
  -17.7030  -30.6150   24.0500 C   0  0  0  0  0  3  0  0  0  0  0  0
  -16.5970  -29.8620   23.6190 C   0  0  0  0  0  3  0  0  0  0  0  0
  -16.7950  -28.5950   23.0430 C   0  0  0  0  0  3  0  0  0  0  0  0
  -25.9460  -32.4500   23.9430 C   0  0  0  0  0  3  0  0  0  0  0  0
  -25.6430  -33.8570   24.2370 N   0  0  0  0  0  0  0  0  0  0  0  0
  -26.0020  -34.8900   23.4620 C   0  0  0  0  0  0  0  0  0  0  0  0
  -26.6930  -34.7580   22.4480 O   0  0  0  0  0  0  0  0  0  0  0  0
  -25.0310  -34.0330   25.0200 H   0  0  0  0  0  0  0  0  0  0  0  0
  -24.2940  -36.6880   23.0350 C   0  0  0  0  0  1  0  0  0  0  0  0
  -25.5160  -36.2910   23.8790 C   0  0  0  0  0  3  0  0  0  0  0  0
  -27.6400  -37.1850   24.7300 C   0  0  0  0  0  1  0  0  0  0  0  0
  -26.5580  -37.3350   23.7620 N   0  0  0  0  0  0  0  0  0  0  0  0
  -26.1530  -38.2600   23.8800 H   0  0  0  0  0  0  0  0  0  0  0  0
  -26.4240  -31.6950   25.2430 C   0  0  1  0  0  0  0  0  0  0  0  0
  -25.3000  -31.4790   26.2820 C   0  0  0  0  0  1  0  0  0  0  0  0
  -27.0100  -30.3100   24.8830 C   0  0  0  0  0  1  0  0  0  0  0  0
  -27.5570  -32.4930   25.9270 C   0  0  0  0  0  1  0  0  0  0  0  0
  2  3  1  0
  3 16  1  0
  3  1  2  0
  4  1  1  0
  4 49  1  0
  5  2  2  0
  5  6  1  0
  6  4  2  0
  7  5  1  0
  9 14  1  0
 10 11  1  0
 10  9  1  0
 12 11  1  0
 12 22  1  0
 12 13  1  0
 14  8  1  0
 14 13  1  0
 15  8  2  0
 16 18  2  0
 17  8  1  0
 17 16  1  0
 19 20  2  0
 20 39  1  0
 21 20  1  0
 21 24  1  0
 22 23  1  0
 22 19  1  0
 23 21  2  0
 24 25  1  0
 25 26  2  0
 27 30  1  0
 27 26  1  0
 28 27  2  0
 29 28  1  0
 29 24  2  0
 30 31  1  0
 31 32  1  0
 32 33  2  0
 34 33  1  0
 34 38  1  0
 35 34  2  0
 36 31  2  0
 36 35  1  0
 37 36  1  0
 39 40  1  0
 40 43  1  0
 40 42  1  0
 41 39  2  0
 44 19  1  0
 44 45  1  0
 46 44  1  0
 47 48  2  0
 48 17  1  0
 49 50  2  0
 50 51  1  0
 52  6  1  0
 52 53  1  0
 54 53  1  0
 54 56  1  0
 55 54  2  0
 57 56  1  0
 58 69  2  0
 59 57  1  0
 59 64  1  0
 60 68  1  0
 60 70  1  0
 61 67  1  0
 61 63  1  0
 62 68  1  0
 63 64  2  0
 63 62  1  0
 65 59  2  0
 66 65  1  0
 66 61  2  0
 67 60  1  0
 68 58  1  0
 70 72  2  0
 71 70  1  0
 73 71  1  0
 74 83  2  0
 74 79  1  0
 75 71  1  0
 75 79  1  0
 76 75  1  0
 77 78  1  0
 77 76  1  0
 78 74  1  0
 79 80  2  0
 80 81  1  0
 82 81  2  0
 83 82  1  0
 84 58  1  0
 84 85  1  0
 84 94  1  0
 85 88  1  0
 86 90  1  0
 86 85  1  0
 87 86  2  0
 90 89  1  0
 92 90  1  0
 92 93  1  0
 92 91  1  0
 94 97  1  1
 94 95  1  0
 96 94  1  0
M  ISO  4   8 100  17 100  56 101  57 101
M  END
>  <TORSDO>  (36) 
F 22

>  <SCORE>  (36) 
-12.136

>  <name>  (36) 
35

>  <ligand_id>  (36) 
35

>  <original_smiles>  (36) 
[H]C([H])=C([H])N(C(=O)c1c([H])c(C([H])=C([H])C([H])([H])[H])c(OC([H])([H])C(=O)C([H])([H])Oc2c([H])c([H])c3c(c2[H])C([H])([H])N(C(=O)C([H])(N([H])C(=O)C([H])(N([H])C([H])([H])[H])C([H])([H])[H])C(C([H])([H])[H])(C([H])([H])[H])C([H])([H])[H])C([H])(C(=O)N([H])C2([H])c4c([H])c([H])c([H])c([H])c4C([H])([H])C([H])([H])C2([H])[H])C3([H])[H])c(C([H])([H])[H])c1[H])C(=O)N1C([H])([H])C([H])([H])C([H])([H])C([H])(n2nc(-c3c([H])c([H])c(Oc4c([H])c([H])c(F)c([H])c4F)c([H])c3[H])c(C(=O)N([H])[H])c2N([H])[H])C1([H])[H]

>  <smiles>  (36) 
[H]C([H])=C([H])N(C(=O)c1c([H])c(C([H])=C([H])C([H])([H])[H])c(OC([H])([H])C(=O)C([H])([H])Oc2c([H])c([H])c3c(c2[H])C([H])([H])N(C(=O)C([H])(N([H])C(=O)C([H])(N([H])C([H])([H])[H])C([H])([H])[H])C(C([H])([H])[H])(C([H])([H])[H])C([H])([H])[H])C([H])(C(=O)N([H])C2([H])c4c([H])c([H])c([H])c([H])c4C([H])([H])C([H])([H])C2([H])[H])C3([H])[H])c(C([H])([H])[H])c1[H])C(=O)N1C([H])([H])C([H])([H])C([H])([H])C([H])(n2nc(-c3c([H])c([H])c(Oc4c([H])c([H])c(F)c([H])c4F)c([H])c3[H])c(C(=O)N([H])[H])c2N([H])[H])C1([H])[H]

$$$$
36:0:0
     RDKit          3D

 94103  0  0  1  0  0  0  0  0999 V2000
  -28.5870  -21.6160   19.3990 C   0  0  0  0  0  2  0  0  0  0  0  0
  -29.4890  -21.7900   21.7080 C   0  0  0  0  0  2  0  0  0  0  0  0
  -27.7900  -22.9480   19.5820 C   0  0  0  0  0  2  0  0  0  0  0  0
  -28.6820  -23.1250   21.8760 C   0  0  0  0  0  2  0  0  0  0  0  0
  -28.8500  -20.7950   20.7040 C   0  0  0  0  0  3  0  0  0  0  0  0
  -28.4650  -23.9460   20.5610 C   0  0  0  0  0  3  0  0  0  0  0  0
  -29.5600  -18.2630   21.1940 C   0  0  0  0  0  3  0  0  0  0  0  0
  -30.3500  -17.1860   20.6300 C   0  0  0  0  0  0  0  0  0  0  0  0
  -30.9630  -17.5640   19.4490 C   0  0  0  0  0  0  0  0  0  0  0  0
  -29.6100  -19.4640   20.4880 C   0  0  0  0  0  0  0  0  0  0  0  0
  -30.7040  -19.2670   19.1330 S   0  0  0  0  0  0  0  0  0  0  0  0
  -31.0960  -14.7650   20.8150 C   0  0  0  0  0  0  0  0  0  0  0  0
  -30.8780  -12.5920   19.6570 C   0  0  0  0  0  2  0  0  0  0  0  0
  -30.0590  -12.8940   18.3830 C   0  0  0  0  0  2  0  0  0  0  0  0
  -28.5470  -12.8140   18.6810 C   0  0  0  0  0  2  0  0  0  0  0  0
  -28.1360  -13.5830   19.9660 C   0  0  0  0  0  3  0  0  0  0  0  0
  -29.0920  -13.2720   21.1390 C   0  0  0  0  0  2  0  0  0  0  0  0
  -30.4560  -13.5660   20.6810 N   0  0  0  0  0  0  0  0  0  0  0  0
  -32.2870  -14.9030   20.5190 O   0  0  0  0  0  0  0  0  0  0  0  0
  -30.3100  -15.8270   21.1430 N   0  0  0  0  0  0  0  0  0  0  0  0
  -29.4440  -15.5820   21.6010 H   0  0  0  0  0  0  0  0  0  0  0  0
  -25.6990  -14.2380   20.4550 C   0  0  0  0  0  0  0  0  0  0  0  0
  -24.5870  -13.4930   20.7470 C   0  0  0  0  0  0  0  0  0  0  0  0
  -25.0230  -12.1330   20.7720 C   0  0  0  0  0  0  0  0  0  0  0  0
  -26.7440  -13.3340   20.3270 N   0  0  0  0  0  0  0  0  0  0  0  0
  -26.3350  -12.0630   20.5760 N   0  0  0  0  0  0  0  0  0  0  0  0
  -24.2550  -10.8890   20.9180 C   0  0  0  0  0  0  0  0  0  0  0  0
  -24.6070   -9.9120   21.8760 C   0  0  0  0  0  3  0  0  0  0  0  0
  -23.8410   -8.7350   22.0130 C   0  0  0  0  0  3  0  0  0  0  0  0
  -22.7080   -8.5270   21.1930 C   0  0  0  0  0  0  0  0  0  0  0  0
  -22.3770   -9.4910   20.2270 C   0  0  0  0  0  3  0  0  0  0  0  0
  -23.1410  -10.6620   20.0870 C   0  0  0  0  0  3  0  0  0  0  0  0
  -21.9210   -7.4020   21.2370 O   0  0  0  0  0  0  0  0  0  0  0  0
  -21.7840   -6.6620   22.3830 C   0  0  0  0  0  0  0  0  0  0  0  0
  -21.3310   -7.2410   23.5900 C   0  0  0  0  0  3  0  0  0  0  0  0
  -21.1370   -6.4310   24.7280 C   0  0  0  0  0  3  0  0  0  0  0  0
  -21.3850   -5.0470   24.6590 C   0  0  0  0  0  0  0  0  0  0  0  0
  -21.8290   -4.4700   23.4560 C   0  0  0  0  0  3  0  0  0  0  0  0
  -22.0290   -5.2740   22.3200 C   0  0  0  0  0  0  0  0  0  0  0  0
  -22.4390   -4.7090   21.1600 F   0  0  0  0  0  0  0  0  0  0  0  0
  -21.1880   -4.2690   25.7480 F   0  0  0  0  0  0  0  0  0  0  0  0
  -23.1860  -14.0070   20.8920 C   0  0  0  0  0  0  0  0  0  0  0  0
  -22.3740  -13.3530   21.7130 N   0  0  0  0  0  0  0  0  0  0  0  0
  -22.8200  -15.0280   20.3090 O   0  0  0  0  0  0  0  0  0  0  0  0
  -22.6860  -12.5310   22.2080 H   0  0  0  0  0  0  0  0  0  0  0  0
  -21.4270  -13.6810   21.8550 H   0  0  0  0  0  0  0  0  0  0  0  0
  -25.9030  -15.6020   20.2660 N   0  0  0  0  0  0  0  0  0  0  0  0
  -25.1350  -16.2670   20.2590 H   0  0  0  0  0  0  0  0  0  0  0  0
  -26.7850  -16.0110   19.9870 H   0  0  0  0  0  0  0  0  0  0  0  0
  -31.6620  -16.7880   18.4680 C   0  0  0  0  0  3  0  0  0  0  0  0
  -31.4680  -16.8170   17.1360 C   0  0  0  0  0  3  0  0  0  0  0  0
  -32.2570  -16.0200   16.1170 C   0  0  0  0  0  1  0  0  0  0  0  0
  -27.6760  -25.3110   20.8090 C   0  0  0  0  0  2  0  0  0  0  0  0
  -27.8080  -26.4600   19.9000 O   0  0  0  0  0  0  0  0  0  0  0  0
  -24.4790  -31.8990   23.2170 C   0  0  0  0  0  0  0  0  0  0  0  0
  -26.7440  -27.3560   19.9340 C   0  0  0  0  0  0  0  0  0  0  0  0
  -23.1320  -30.5730   21.6270 C   0  0  0  0  0  3  0  0  0  0  0  0
  -24.4400  -29.0140   20.0810 C   0  0  0  0  0  0  0  0  0  0  0  0
  -25.6590  -30.8310   21.2860 C   0  0  0  0  0  2  0  0  0  0  0  0
  -25.6560  -29.4680   20.6100 C   0  0  0  0  0  0  0  0  0  0  0  0
  -26.8180  -28.6530   20.5180 C   0  0  0  0  0  3  0  0  0  0  0  0
  -25.5150  -26.9440   19.3850 C   0  0  0  0  0  3  0  0  0  0  0  0
  -24.3700  -27.7610   19.4510 C   0  0  0  0  0  3  0  0  0  0  0  0
  -23.2380  -29.9230   20.2220 C   0  0  0  0  0  2  0  0  0  0  0  0
  -24.4460  -31.1160   22.1000 N   0  0  0  0  0  0  0  0  0  0  0  0
  -23.4400  -32.1980   23.8240 O   0  0  0  0  0  0  0  0  0  0  0  0
  -22.4970  -29.5570   22.6060 C   0  0  0  0  0  0  0  0  0  0  0  0
  -21.1780  -29.3320   22.4710 N   0  0  0  0  0  0  0  0  0  0  0  0
  -23.1880  -28.9730   23.4460 O   0  0  0  0  0  0  0  0  0  0  0  0
  -20.6810  -29.8570   21.7630 H   0  0  0  0  0  0  0  0  0  0  0  0
  -17.8670  -27.9320   22.8630 C   0  0  0  0  0  0  0  0  0  0  0  0
  -20.3810  -28.3880   23.2540 C   0  0  0  0  0  3  0  0  0  0  0  0
  -20.6120  -26.9350   22.7800 C   0  0  0  0  0  2  0  0  0  0  0  0
  -19.5960  -26.4740   21.7310 C   0  0  0  0  0  2  0  0  0  0  0  0
  -18.1730  -26.5590   22.2890 C   0  0  0  0  0  2  0  0  0  0  0  0
  -18.9030  -28.7960   23.3010 C   0  0  0  0  0  0  0  0  0  0  0  0
  -18.5660  -30.0750   23.7930 C   0  0  0  0  0  3  0  0  0  0  0  0
  -17.2210  -30.4910   23.8600 C   0  0  0  0  0  3  0  0  0  0  0  0
  -16.1970  -29.6240   23.4390 C   0  0  0  0  0  3  0  0  0  0  0  0
  -16.5210  -28.3490   22.9440 C   0  0  0  0  0  3  0  0  0  0  0  0
  -25.8160  -32.4750   23.7740 C   0  0  0  0  0  3  0  0  0  0  0  0
  -26.3780  -31.6620   25.0040 C   0  0  1  0  0  0  0  0  0  0  0  0
  -25.3420  -31.4360   26.1310 C   0  0  0  0  0  1  0  0  0  0  0  0
  -26.8880  -30.2730   24.5520 C   0  0  0  0  0  1  0  0  0  0  0  0
  -27.5900  -32.4060   25.6120 C   0  0  0  0  0  1  0  0  0  0  0  0
  -25.5750  -33.8760   24.1460 N   0  0  0  0  0  0  0  0  0  0  0  0
  -25.9240  -34.9350   23.4010 C   0  0  0  0  0  0  0  0  0  0  0  0
  -26.5580  -34.8310   22.3490 O   0  0  0  0  0  0  0  0  0  0  0  0
  -25.0170  -34.0340   24.9720 H   0  0  0  0  0  0  0  0  0  0  0  0
  -24.2570  -36.8000   23.1480 C   0  0  0  0  0  1  0  0  0  0  0  0
  -25.5080  -36.3290   23.9050 C   0  0  0  0  0  3  0  0  0  0  0  0
  -27.7070  -37.1080   24.6750 C   0  0  0  0  0  1  0  0  0  0  0  0
  -26.5770  -37.3450   23.7800 N   0  0  0  0  0  0  0  0  0  0  0  0
  -26.2140  -38.2750   23.9680 H   0  0  0  0  0  0  0  0  0  0  0  0
  1  3  1  0
  1  5  1  0
  2  4  1  0
  3  6  1  0
  5 10  1  0
  5  2  1  0
  6 53  1  0
  6  4  1  0
  8 20  1  0
  8  7  1  0
  9  8  2  0
 10  7  2  0
 11  9  1  0
 11 10  1  0
 12 20  1  0
 13 18  1  0
 14 15  1  0
 14 13  1  0
 16 15  1  0
 16 25  1  0
 16 17  1  0
 18 12  1  0
 18 17  1  0
 19 12  2  0
 20 21  1  0
 22 23  2  0
 23 24  1  0
 23 42  1  0
 24 27  1  0
 25 22  1  0
 25 26  1  0
 26 24  2  0
 27 28  1  0
 28 29  2  0
 30 33  1  0
 30 29  1  0
 31 30  2  0
 32 31  1  0
 32 27  2  0
 33 34  1  0
 34 35  1  0
 35 36  2  0
 37 36  1  0
 37 41  1  0
 38 37  2  0
 39 34  2  0
 39 38  1  0
 40 39  1  0
 42 43  1  0
 43 46  1  0
 43 45  1  0
 44 42  2  0
 47 22  1  0
 48 47  1  0
 49 47  1  0
 50  9  1  0
 51 50  2  0
 52 51  1  0
 54 56  1  0
 54 53  1  0
 55 66  2  0
 56 61  1  0
 57 65  1  0
 57 67  1  0
 58 64  1  0
 58 60  1  0
 59 65  1  0
 60 59  1  0
 61 60  2  0
 62 63  1  0
 62 56  2  0
 63 58  2  0
 64 57  1  0
 65 55  1  0
 67 69  2  0
 68 67  1  0
 70 68  1  0
 71 80  2  0
 71 76  1  0
 72 68  1  0
 72 76  1  0
 73 72  1  0
 74 75  1  0
 74 73  1  0
 75 71  1  0
 76 77  2  0
 77 78  1  0
 79 78  2  0
 80 79  1  0
 81 55  1  0
 81 86  1  0
 81 82  1  0
 82 85  1  1
 82 83  1  0
 84 82  1  0
 86 89  1  0
 87 91  1  0
 87 86  1  0
 88 87  2  0
 91 90  1  0
 93 91  1  0
 93 94  1  0
 93 92  1  0
M  ISO  4  12 100  20 100  53 101  54 101
M  END
>  <TORSDO>  (37) 
F 19

>  <SCORE>  (37) 
-13.652

>  <name>  (37) 
36

>  <ligand_id>  (37) 
36

>  <original_smiles>  (37) 
[H]C(=C([H])C([H])([H])[H])c1sc(C2([H])C([H])([H])C([H])([H])C([H])(C([H])([H])Oc3c([H])c([H])c4c(c3[H])C([H])([H])N(C(=O)C([H])(N([H])C(=O)C([H])(N([H])C([H])([H])[H])C([H])([H])[H])C(C([H])([H])[H])(C([H])([H])[H])C([H])([H])[H])C([H])(C(=O)N([H])C3([H])c5c([H])c([H])c([H])c([H])c5C([H])([H])C([H])([H])C3([H])[H])C4([H])[H])C([H])([H])C2([H])[H])c([H])c1N([H])C(=O)N1C([H])([H])C([H])([H])C([H])([H])C([H])(n2nc(-c3c([H])c([H])c(Oc4c([H])c([H])c(F)c([H])c4F)c([H])c3[H])c(C(=O)N([H])[H])c2N([H])[H])C1([H])[H]

>  <smiles>  (37) 
[H]C(=C([H])C([H])([H])[H])c1sc(C2([H])C([H])([H])C([H])([H])C([H])(C([H])([H])Oc3c([H])c([H])c4c(c3[H])C([H])([H])N(C(=O)C([H])(N([H])C(=O)C([H])(N([H])C([H])([H])[H])C([H])([H])[H])C(C([H])([H])[H])(C([H])([H])[H])C([H])([H])[H])C([H])(C(=O)N([H])C3([H])c5c([H])c([H])c([H])c([H])c5C([H])([H])C([H])([H])C3([H])[H])C4([H])[H])C([H])([H])C2([H])[H])c([H])c1N([H])C(=O)N1C([H])([H])C([H])([H])C([H])([H])C([H])(n2nc(-c3c([H])c([H])c(Oc4c([H])c([H])c(F)c([H])c4F)c([H])c3[H])c(C(=O)N([H])[H])c2N([H])[H])C1([H])[H]

$$$$
37:0:0
     RDKit          3D

 99108  0  0  1  0  0  0  0  0999 V2000
  -31.0750  -23.5100   18.6830 C   0  0  0  0  0  3  0  0  0  0  0  0
  -30.3920  -22.4070   18.9810 C   0  0  0  0  0  3  0  0  0  0  0  0
  -28.9840  -21.5870   20.7330 C   0  0  0  0  0  3  0  0  0  0  0  0
  -30.6340  -24.7040   19.4830 C   0  0  0  0  0  2  0  0  0  0  0  0
  -29.4300  -24.1620   20.2920 C   0  0  0  0  0  3  0  0  0  0  0  0
  -29.4700  -22.6470   19.9870 N   0  0  0  0  0  0  0  0  0  0  0  0
  -28.0850  -21.8660   21.6750 N   0  0  0  0  0  0  0  0  0  0  0  0
  -27.7200  -21.1150   22.2400 H   0  0  0  0  0  0  0  0  0  0  0  0
  -27.7460  -22.7950   21.8410 H   0  0  0  0  0  0  0  0  0  0  0  0
  -30.7040  -18.0510   21.1240 C   0  0  0  0  0  3  0  0  0  0  0  0
  -28.3990  -19.2230   20.0650 C   0  0  0  0  0  3  0  0  0  0  0  0
  -30.5510  -19.4890   21.1580 C   0  0  0  0  0  0  0  0  0  0  0  0
  -29.3660  -20.1100   20.6080 C   0  0  0  0  0  0  0  0  0  0  0  0
  -29.7040  -17.1810   20.6160 C   0  0  0  0  0  0  0  0  0  0  0  0
  -28.5570  -17.8110   20.0760 C   0  0  0  0  0  0  0  0  0  0  0  0
  -27.5590  -17.0310   19.5910 F   0  0  0  0  0  0  0  0  0  0  0  0
  -30.5240  -14.7060   20.4460 C   0  0  0  0  0  0  0  0  0  0  0  0
  -30.3600  -12.4620   19.3740 C   0  0  0  0  0  2  0  0  0  0  0  0
  -29.4190  -12.5800   18.1530 C   0  0  0  0  0  2  0  0  0  0  0  0
  -27.9410  -12.4210   18.5690 C   0  0  0  0  0  2  0  0  0  0  0  0
  -27.5700  -13.2800   19.8060 C   0  0  0  0  0  3  0  0  0  0  0  0
  -28.6190  -13.1130   20.9270 C   0  0  0  0  0  2  0  0  0  0  0  0
  -29.9330  -13.4710   20.3640 N   0  0  0  0  0  0  0  0  0  0  0  0
  -31.6910  -14.8910   20.0890 O   0  0  0  0  0  0  0  0  0  0  0  0
  -29.6710  -15.7250   20.7710 N   0  0  0  0  0  0  0  0  0  0  0  0
  -28.7410  -15.3770   20.9360 H   0  0  0  0  0  0  0  0  0  0  0  0
  -25.1660  -13.8860   20.4890 C   0  0  0  0  0  0  0  0  0  0  0  0
  -24.0950  -13.1150   20.8540 C   0  0  0  0  0  0  0  0  0  0  0  0
  -24.5590  -11.7630   20.8410 C   0  0  0  0  0  0  0  0  0  0  0  0
  -26.2150  -13.0030   20.2760 N   0  0  0  0  0  0  0  0  0  0  0  0
  -25.8540  -11.7240   20.5470 N   0  0  0  0  0  0  0  0  0  0  0  0
  -23.8310  -10.5030   21.0340 C   0  0  0  0  0  0  0  0  0  0  0  0
  -24.2600   -9.5390   21.9730 C   0  0  0  0  0  3  0  0  0  0  0  0
  -23.5320   -8.3440   22.1530 C   0  0  0  0  0  3  0  0  0  0  0  0
  -22.3610   -8.1040   21.3970 C   0  0  0  0  0  0  0  0  0  0  0  0
  -21.9510   -9.0570   20.4480 C   0  0  0  0  0  3  0  0  0  0  0  0
  -22.6790  -10.2440   20.2640 C   0  0  0  0  0  3  0  0  0  0  0  0
  -21.6050   -6.9600   21.4860 O   0  0  0  0  0  0  0  0  0  0  0  0
  -21.5590   -6.2160   22.6380 C   0  0  0  0  0  0  0  0  0  0  0  0
  -21.1390   -6.7700   23.8670 C   0  0  0  0  0  3  0  0  0  0  0  0
  -21.0410   -5.9540   25.0100 C   0  0  0  0  0  3  0  0  0  0  0  0
  -21.3520   -4.5830   24.9280 C   0  0  0  0  0  0  0  0  0  0  0  0
  -21.7640   -4.0280   23.7040 C   0  0  0  0  0  3  0  0  0  0  0  0
  -21.8650   -4.8420   22.5610 C   0  0  0  0  0  0  0  0  0  0  0  0
  -22.2430   -4.2970   21.3800 F   0  0  0  0  0  0  0  0  0  0  0  0
  -21.2490   -3.7970   26.0240 F   0  0  0  0  0  0  0  0  0  0  0  0
  -22.6940  -13.5950   21.1030 C   0  0  0  0  0  0  0  0  0  0  0  0
  -21.9550  -12.9070   21.9680 N   0  0  0  0  0  0  0  0  0  0  0  0
  -22.2610  -14.6150   20.5680 O   0  0  0  0  0  0  0  0  0  0  0  0
  -22.3160  -12.0830   22.4240 H   0  0  0  0  0  0  0  0  0  0  0  0
  -21.0140  -13.2100   22.1750 H   0  0  0  0  0  0  0  0  0  0  0  0
  -25.3280  -15.2560   20.3010 N   0  0  0  0  0  0  0  0  0  0  0  0
  -24.5490  -15.8990   20.3940 H   0  0  0  0  0  0  0  0  0  0  0  0
  -26.1650  -15.7100   19.9510 H   0  0  0  0  0  0  0  0  0  0  0  0
  -31.6240  -20.2970   21.8420 C   0  0  0  0  0  0  0  0  0  0  0  0
  -32.7290  -19.5470   22.5800 C   0  0  0  0  0  1  0  0  0  0  0  0
  -31.6610  -21.5280   21.8720 O   0  0  0  0  0  0  0  0  0  0  0  0
  -28.1560  -25.0510   19.9160 C   0  0  0  0  0  2  0  0  0  0  0  0
  -28.2910  -26.5200   20.1200 O   0  0  0  0  0  0  0  0  0  0  0  0
  -24.5620  -31.8830   23.1990 C   0  0  0  0  0  0  0  0  0  0  0  0
  -27.1540  -27.3460   20.0890 C   0  0  0  0  0  0  0  0  0  0  0  0
  -23.3420  -30.4890   21.5650 C   0  0  0  0  0  3  0  0  0  0  0  0
  -24.7800  -28.9480   20.1170 C   0  0  0  0  0  0  0  0  0  0  0  0
  -25.8790  -30.8150   21.3560 C   0  0  0  0  0  2  0  0  0  0  0  0
  -25.9540  -29.4400   20.7010 C   0  0  0  0  0  0  0  0  0  0  0  0
  -27.1430  -28.6510   20.6730 C   0  0  0  0  0  3  0  0  0  0  0  0
  -25.9530  -26.9030   19.4880 C   0  0  0  0  0  3  0  0  0  0  0  0
  -24.7830  -27.6850   19.5030 C   0  0  0  0  0  3  0  0  0  0  0  0
  -23.5420  -29.8180   20.1810 C   0  0  0  0  0  2  0  0  0  0  0  0
  -24.6140  -31.0800   22.0960 N   0  0  0  0  0  0  0  0  0  0  0  0
  -23.4840  -32.1570   23.7470 O   0  0  0  0  0  0  0  0  0  0  0  0
  -22.6930  -29.4670   22.5280 C   0  0  0  0  0  0  0  0  0  0  0  0
  -21.3650  -29.2890   22.4190 N   0  0  0  0  0  0  0  0  0  0  0  0
  -23.3820  -28.8370   23.3350 O   0  0  0  0  0  0  0  0  0  0  0  0
  -20.8690  -29.8490   21.7400 H   0  0  0  0  0  0  0  0  0  0  0  0
  -17.9940  -28.0910   22.9490 C   0  0  0  0  0  0  0  0  0  0  0  0
  -20.5550  -28.3480   23.1940 C   0  0  0  0  0  3  0  0  0  0  0  0
  -20.6510  -26.9190   22.6120 C   0  0  0  0  0  2  0  0  0  0  0  0
  -19.5380  -26.6010   21.6080 C   0  0  0  0  0  2  0  0  0  0  0  0
  -18.1620  -26.7430   22.2660 C   0  0  0  0  0  2  0  0  0  0  0  0
  -19.1180  -28.8510   23.3690 C   0  0  0  0  0  0  0  0  0  0  0  0
  -18.9040  -30.1110   23.9690 C   0  0  0  0  0  3  0  0  0  0  0  0
  -17.6010  -30.6110   24.1510 C   0  0  0  0  0  3  0  0  0  0  0  0
  -16.4920  -29.8480   23.7480 C   0  0  0  0  0  3  0  0  0  0  0  0
  -16.6900  -28.5910   23.1510 C   0  0  0  0  0  3  0  0  0  0  0  0
  -25.8500  -32.5150   23.8090 C   0  0  0  0  0  3  0  0  0  0  0  0
  -26.3780  -31.7420   25.0800 C   0  0  1  0  0  0  0  0  0  0  0  0
  -25.2940  -31.5050   26.1570 C   0  0  0  0  0  1  0  0  0  0  0  0
  -26.9570  -30.3640   24.6820 C   0  0  0  0  0  1  0  0  0  0  0  0
  -27.5350  -32.5350   25.7320 C   0  0  0  0  0  1  0  0  0  0  0  0
  -25.5430  -33.9120   24.1470 N   0  0  0  0  0  0  0  0  0  0  0  0
  -25.8570  -34.9670   23.3830 C   0  0  0  0  0  0  0  0  0  0  0  0
  -26.5050  -34.8660   22.3370 O   0  0  0  0  0  0  0  0  0  0  0  0
  -24.9660  -34.0630   24.9600 H   0  0  0  0  0  0  0  0  0  0  0  0
  -24.1130  -36.7520   23.0710 C   0  0  0  0  0  1  0  0  0  0  0  0
  -25.3750  -36.3540   23.8520 C   0  0  0  0  0  3  0  0  0  0  0  0
  -27.5260  -37.2490   24.6270 C   0  0  0  0  0  1  0  0  0  0  0  0
  -26.4000  -37.4110   23.7120 N   0  0  0  0  0  0  0  0  0  0  0  0
  -25.9940  -38.3300   23.8660 H   0  0  0  0  0  0  0  0  0  0  0  0
  1  2  2  0
  1  4  1  0
  2  6  1  0
  3  7  1  0
  4  5  1  0
  5 58  1  0
  6  5  1  0
  6  3  1  0
  7  9  1  0
  7  8  1  0
 10 12  1  0
 11 15  2  0
 11 13  1  0
 12 55  1  0
 13  3  1  0
 13 12  2  0
 14 25  1  0
 14 10  2  0
 15 14  1  0
 16 15  1  0
 17 25  1  0
 18 23  1  0
 19 20  1  0
 19 18  1  0
 21 20  1  0
 21 30  1  0
 21 22  1  0
 23 17  1  0
 23 22  1  0
 24 17  2  0
 25 26  1  0
 27 28  2  0
 28 47  1  0
 29 28  1  0
 29 32  1  0
 30 27  1  0
 30 31  1  0
 31 29  2  0
 32 33  1  0
 33 34  2  0
 35 38  1  0
 35 34  1  0
 36 35  2  0
 37 36  1  0
 37 32  2  0
 38 39  1  0
 39 40  1  0
 40 41  2  0
 42 41  1  0
 42 46  1  0
 43 42  2  0
 44 39  2  0
 44 43  1  0
 45 44  1  0
 47 48  1  0
 48 51  1  0
 48 50  1  0
 49 47  2  0
 52 53  1  0
 52 27  1  0
 54 52  1  0
 55 57  2  0
 55 56  1  0
 58 59  1  0
 60 71  2  0
 61 59  1  0
 61 66  1  0
 62 70  1  0
 62 72  1  0
 63 69  1  0
 63 65  1  0
 64 70  1  0
 65 64  1  0
 66 65  2  0
 67 68  1  0
 67 61  2  0
 68 63  2  0
 69 62  1  0
 70 60  1  0
 72 74  2  0
 73 72  1  0
 75 73  1  0
 76 85  2  0
 76 81  1  0
 77 73  1  0
 77 81  1  0
 78 77  1  0
 79 80  1  0
 79 78  1  0
 80 76  1  0
 81 82  2  0
 82 83  1  0
 84 83  2  0
 85 84  1  0
 86 60  1  0
 86 91  1  0
 86 87  1  0
 87 90  1  1
 87 88  1  0
 89 87  1  0
 91 94  1  0
 92 96  1  0
 92 91  1  0
 93 92  2  0
 96 95  1  0
 98 96  1  0
 98 99  1  0
 98 97  1  0
M  ISO  4  17 100  25 100  58 101  59 101
M  END
>  <TORSDO>  (38) 
F 19

>  <SCORE>  (38) 
-14.931

>  <name>  (38) 
37

>  <ligand_id>  (38) 
37

>  <original_smiles>  (38) 
[H]C1=C([H])C([H])([H])C([H])(C([H])([H])Oc2c([H])c([H])c3c(c2[H])C([H])([H])N(C(=O)C([H])(N([H])C(=O)C([H])(N([H])C([H])([H])[H])C([H])([H])[H])C(C([H])([H])[H])(C([H])([H])[H])C([H])([H])[H])C([H])(C(=O)N([H])C2([H])c4c([H])c([H])c([H])c([H])c4C([H])([H])C([H])([H])C2([H])[H])C3([H])[H])N1C(c1c([H])c(F)c(N([H])C(=O)N2C([H])([H])C([H])([H])C([H])([H])C([H])(n3nc(-c4c([H])c([H])c(Oc5c([H])c([H])c(F)c([H])c5F)c([H])c4[H])c(C(=O)N([H])[H])c3N([H])[H])C2([H])[H])c([H])c1C(=O)C([H])([H])[H])=[N+]([H])[H]

>  <smiles>  (38) 
[H]C1=C([H])C([H])([H])C([H])(C([H])([H])Oc2c([H])c([H])c3c(c2[H])C([H])([H])N(C(=O)C([H])(N([H])C(=O)C([H])(N([H])C([H])([H])[H])C([H])([H])[H])C(C([H])([H])[H])(C([H])([H])[H])C([H])([H])[H])C([H])(C(=O)N([H])C2([H])c4c([H])c([H])c([H])c([H])c4C([H])([H])C([H])([H])C2([H])[H])C3([H])[H])N1C(c1c([H])c(F)c(N([H])C(=O)N2C([H])([H])C([H])([H])C([H])([H])C([H])(n3nc(-c4c([H])c([H])c(Oc5c([H])c([H])c(F)c([H])c5F)c([H])c4[H])c(C(=O)N([H])[H])c3N([H])[H])C2([H])[H])c([H])c1C(=O)C([H])([H])[H])=[N+]([H])[H]

$$$$
38:0:0
     RDKit          3D

 93101  0  0  1  0  0  0  0  0999 V2000
  -30.9810  -17.7490   21.4950 C   0  0  0  0  0  3  0  0  0  0  0  0
  -30.7590  -20.1940   21.5420 C   0  0  0  0  0  3  0  0  0  0  0  0
  -30.1020  -17.6190   20.3980 C   0  0  0  0  0  0  0  0  0  0  0  0
  -29.5360  -18.8860   19.8870 C   0  0  0  0  0  0  0  0  0  0  0  0
  -29.8580  -20.1910   20.4540 C   0  0  0  0  0  0  0  0  0  0  0  0
  -31.3050  -19.0000   22.0450 C   0  0  0  0  0  0  0  0  0  0  0  0
  -32.1600  -19.0580   23.0900 F   0  0  0  0  0  0  0  0  0  0  0  0
  -29.7760  -16.1680   19.8980 C   0  0  0  0  0  0  0  0  0  0  0  0
  -28.8290  -16.0520   19.0840 N   0  0  0  0  0  0  0  0  0  0  0  0
  -28.3940  -16.9540   18.9140 H   0  0  0  0  0  0  0  0  0  0  0  0
  -30.6290  -14.8420   20.2500 C   0  0  0  0  0  0  0  0  0  0  0  0
  -30.4180  -12.5330   19.3360 C   0  0  0  0  0  2  0  0  0  0  0  0
  -29.4650  -12.5410   18.1220 C   0  0  0  0  0  2  0  0  0  0  0  0
  -28.0080  -12.3080   18.5730 C   0  0  0  0  0  2  0  0  0  0  0  0
  -27.6060  -13.2390   19.7420 C   0  0  0  0  0  3  0  0  0  0  0  0
  -28.6830  -13.3050   20.8520 C   0  0  0  0  0  2  0  0  0  0  0  0
  -29.9840  -13.6200   20.2390 N   0  0  0  0  0  0  0  0  0  0  0  0
  -31.8570  -14.8910   20.1360 O   0  0  0  0  0  0  0  0  0  0  0  0
  -25.2430  -13.8820   20.4810 C   0  0  0  0  0  0  0  0  0  0  0  0
  -24.1720  -13.1190   20.8570 C   0  0  0  0  0  0  0  0  0  0  0  0
  -24.6330  -11.7690   20.8440 C   0  0  0  0  0  0  0  0  0  0  0  0
  -26.2790  -12.9850   20.2620 N   0  0  0  0  0  0  0  0  0  0  0  0
  -25.9210  -11.7130   20.5450 N   0  0  0  0  0  0  0  0  0  0  0  0
  -23.9130  -10.5100   21.0370 C   0  0  0  0  0  0  0  0  0  0  0  0
  -24.3530   -9.5460   21.9680 C   0  0  0  0  0  3  0  0  0  0  0  0
  -23.6300   -8.3470   22.1460 C   0  0  0  0  0  3  0  0  0  0  0  0
  -22.4570   -8.1090   21.3920 C   0  0  0  0  0  0  0  0  0  0  0  0
  -22.0420   -9.0620   20.4470 C   0  0  0  0  0  3  0  0  0  0  0  0
  -22.7650  -10.2510   20.2660 C   0  0  0  0  0  3  0  0  0  0  0  0
  -21.7040   -6.9630   21.4830 O   0  0  0  0  0  0  0  0  0  0  0  0
  -21.6640   -6.2230   22.6350 C   0  0  0  0  0  0  0  0  0  0  0  0
  -21.2450   -6.7800   23.8630 C   0  0  0  0  0  3  0  0  0  0  0  0
  -21.1510   -5.9660   25.0080 C   0  0  0  0  0  3  0  0  0  0  0  0
  -21.4700   -4.5960   24.9290 C   0  0  0  0  0  0  0  0  0  0  0  0
  -21.8840   -4.0400   23.7040 C   0  0  0  0  0  3  0  0  0  0  0  0
  -21.9790   -4.8520   22.5610 C   0  0  0  0  0  0  0  0  0  0  0  0
  -22.3560   -4.3070   21.3800 F   0  0  0  0  0  0  0  0  0  0  0  0
  -21.3730   -3.8110   26.0270 F   0  0  0  0  0  0  0  0  0  0  0  0
  -22.7760  -13.6030   21.1150 C   0  0  0  0  0  0  0  0  0  0  0  0
  -22.0460  -12.9140   21.9870 N   0  0  0  0  0  0  0  0  0  0  0  0
  -22.3430  -14.6230   20.5780 O   0  0  0  0  0  0  0  0  0  0  0  0
  -22.4150  -12.0900   22.4380 H   0  0  0  0  0  0  0  0  0  0  0  0
  -21.1050  -13.2120   22.2020 H   0  0  0  0  0  0  0  0  0  0  0  0
  -25.4110  -15.2490   20.2800 N   0  0  0  0  0  0  0  0  0  0  0  0
  -24.6320  -15.8970   20.3140 H   0  0  0  0  0  0  0  0  0  0  0  0
  -26.2690  -15.6690   19.9400 H   0  0  0  0  0  0  0  0  0  0  0  0
  -29.2500  -22.5930   20.5180 C   0  0  0  0  0  3  0  0  0  0  0  0
  -29.3620  -21.4420   19.9040 N   0  0  0  0  0  0  0  0  0  0  0  0
  -28.8980  -23.9830   19.8340 C   0  0  0  0  0  2  0  0  0  0  0  0
  -28.2620  -25.1610   20.7070 C   0  0  0  0  0  2  0  0  0  0  0  0
  -28.3780  -26.5640   20.2300 O   0  0  0  0  0  0  0  0  0  0  0  0
  -24.6000  -31.9290   23.2470 C   0  0  0  0  0  0  0  0  0  0  0  0
  -27.2400  -27.3800   20.2250 C   0  0  0  0  0  0  0  0  0  0  0  0
  -23.4010  -30.5220   21.6080 C   0  0  0  0  0  3  0  0  0  0  0  0
  -24.8620  -28.9660   20.1970 C   0  0  0  0  0  0  0  0  0  0  0  0
  -25.9380  -30.8580   21.4200 C   0  0  0  0  0  2  0  0  0  0  0  0
  -26.0270  -29.4760   20.7850 C   0  0  0  0  0  0  0  0  0  0  0  0
  -27.2200  -28.6950   20.7830 C   0  0  0  0  0  3  0  0  0  0  0  0
  -26.0520  -26.9130   19.6210 C   0  0  0  0  0  3  0  0  0  0  0  0
  -24.8740  -27.6880   19.6130 C   0  0  0  0  0  3  0  0  0  0  0  0
  -23.6210  -29.8340   20.2340 C   0  0  0  0  0  2  0  0  0  0  0  0
  -24.6650  -31.1200   22.1500 N   0  0  0  0  0  0  0  0  0  0  0  0
  -23.5140  -32.2010   23.7820 O   0  0  0  0  0  0  0  0  0  0  0  0
  -22.7420  -29.5080   22.5710 C   0  0  0  0  0  0  0  0  0  0  0  0
  -21.4160  -29.3270   22.4480 N   0  0  0  0  0  0  0  0  0  0  0  0
  -23.4250  -28.8840   23.3890 O   0  0  0  0  0  0  0  0  0  0  0  0
  -20.9200  -29.8840   21.7670 H   0  0  0  0  0  0  0  0  0  0  0  0
  -18.0480  -28.1160   22.9600 C   0  0  0  0  0  0  0  0  0  0  0  0
  -20.6030  -28.3870   23.2200 C   0  0  0  0  0  3  0  0  0  0  0  0
  -20.7130  -26.9570   22.6420 C   0  0  0  0  0  2  0  0  0  0  0  0
  -19.6050  -26.6250   21.6360 C   0  0  0  0  0  2  0  0  0  0  0  0
  -18.2310  -26.7610   22.2960 C   0  0  0  0  0  2  0  0  0  0  0  0
  -19.1630  -28.8870   23.3810 C   0  0  0  0  0  0  0  0  0  0  0  0
  -18.9400  -30.1510   23.9670 C   0  0  0  0  0  3  0  0  0  0  0  0
  -17.6330  -30.6470   24.1310 C   0  0  0  0  0  3  0  0  0  0  0  0
  -16.5310  -29.8760   23.7240 C   0  0  0  0  0  3  0  0  0  0  0  0
  -16.7410  -28.6120   23.1440 C   0  0  0  0  0  3  0  0  0  0  0  0
  -25.8810  -32.5700   23.8650 C   0  0  0  0  0  3  0  0  0  0  0  0
  -25.5680  -33.9690   24.1870 N   0  0  0  0  0  0  0  0  0  0  0  0
  -25.9060  -35.0190   23.4250 C   0  0  0  0  0  0  0  0  0  0  0  0
  -26.5820  -34.9090   22.3980 O   0  0  0  0  0  0  0  0  0  0  0  0
  -24.9680  -34.1270   24.9830 H   0  0  0  0  0  0  0  0  0  0  0  0
  -24.1850  -36.8110   23.0410 C   0  0  0  0  0  1  0  0  0  0  0  0
  -25.4160  -36.4100   23.8700 C   0  0  0  0  0  3  0  0  0  0  0  0
  -27.5410  -37.2940   24.7240 C   0  0  0  0  0  1  0  0  0  0  0  0
  -26.4520  -37.4620   23.7650 N   0  0  0  0  0  0  0  0  0  0  0  0
  -26.0470  -38.3820   23.9040 H   0  0  0  0  0  0  0  0  0  0  0  0
  -26.3980  -31.8080   25.1460 C   0  0  1  0  0  0  0  0  0  0  0  0
  -25.3050  -31.5720   26.2140 C   0  0  0  0  0  1  0  0  0  0  0  0
  -26.9880  -30.4310   24.7650 C   0  0  0  0  0  1  0  0  0  0  0  0
  -27.5480  -32.6080   25.8040 C   0  0  0  0  0  1  0  0  0  0  0  0
  -27.0880  -18.6620   19.2080 C   0  0  0  0  0  1  0  0  0  0  0  0
  -28.5280  -18.9090   18.7260 C   0  0  0  0  0  2  0  0  0  0  0  0
  1  6  1  0
  2  6  2  0
  3  1  2  0
  4  3  1  0
  4  5  2  0
  5  2  1  0
  6  7  1  0
  8 11  1  0
  8  3  1  0
  9  8  2  0
 10  9  1  0
 12 17  1  0
 13 14  1  0
 13 12  1  0
 15 14  1  0
 15 22  1  0
 15 16  1  0
 17 11  1  0
 17 16  1  0
 18 11  2  0
 19 20  2  0
 20 39  1  0
 21 20  1  0
 21 24  1  0
 22 19  1  0
 22 23  1  0
 23 21  2  0
 24 25  1  0
 25 26  2  0
 27 30  1  0
 27 26  1  0
 28 27  2  0
 29 28  1  0
 29 24  2  0
 30 31  1  0
 31 32  1  0
 32 33  2  0
 34 33  1  0
 34 38  1  0
 35 34  2  0
 36 31  2  0
 36 35  1  0
 37 36  1  0
 39 40  1  0
 40 43  1  0
 40 42  1  0
 41 39  2  0
 44 45  1  0
 44 19  1  0
 46 44  1  0
 48  5  1  0
 48 47  2  0
 49 47  1  0
 49 50  1  0
 51 50  1  0
 52 63  2  0
 53 51  1  0
 53 58  1  0
 54 62  1  0
 54 64  1  0
 55 61  1  0
 55 57  1  0
 56 62  1  0
 57 56  1  0
 58 57  2  0
 59 53  2  0
 60 59  1  0
 60 55  2  0
 61 54  1  0
 62 52  1  0
 64 66  2  0
 65 64  1  0
 67 65  1  0
 68 77  2  0
 68 73  1  0
 69 65  1  0
 69 73  1  0
 70 69  1  0
 71 72  1  0
 71 70  1  0
 72 68  1  0
 73 74  2  0
 74 75  1  0
 76 75  2  0
 77 76  1  0
 78 52  1  0
 78 79  1  0
 78 88  1  0
 79 82  1  0
 80 84  1  0
 80 79  1  0
 81 80  2  0
 84 83  1  0
 86 84  1  0
 86 87  1  0
 86 85  1  0
 88 91  1  1
 88 89  1  0
 90 88  1  0
 93 92  1  0
 93  4  1  0
M  ISO  4   8 100  11 100  50 101  51 101
M  END
>  <TORSDO>  (39) 
F 21

>  <SCORE>  (39) 
-13.875

>  <name>  (39) 
38

>  <ligand_id>  (39) 
38

>  <original_smiles>  (39) 
[H]N=C(C(=O)N1C([H])([H])C([H])([H])C([H])([H])C([H])(n2nc(-c3c([H])c([H])c(Oc4c([H])c([H])c(F)c([H])c4F)c([H])c3[H])c(C(=O)N([H])[H])c2N([H])[H])C1([H])[H])c1c([H])c(F)c([H])c(N=C([H])C([H])([H])C([H])([H])Oc2c([H])c([H])c3c(c2[H])C([H])([H])N(C(=O)C([H])(N([H])C(=O)C([H])(N([H])C([H])([H])[H])C([H])([H])[H])C(C([H])([H])[H])(C([H])([H])[H])C([H])([H])[H])C([H])(C(=O)N([H])C2([H])c4c([H])c([H])c([H])c([H])c4C([H])([H])C([H])([H])C2([H])[H])C3([H])[H])c1C([H])([H])C([H])([H])[H]

>  <smiles>  (39) 
[H]N=C(C(=O)N1C([H])([H])C([H])([H])C([H])([H])C([H])(n2nc(-c3c([H])c([H])c(Oc4c([H])c([H])c(F)c([H])c4F)c([H])c3[H])c(C(=O)N([H])[H])c2N([H])[H])C1([H])[H])c1c([H])c(F)c([H])c(N=C([H])C([H])([H])C([H])([H])Oc2c([H])c([H])c3c(c2[H])C([H])([H])N(C(=O)C([H])(N([H])C(=O)C([H])(N([H])C([H])([H])[H])C([H])([H])[H])C(C([H])([H])[H])(C([H])([H])[H])C([H])([H])[H])C([H])(C(=O)N([H])C2([H])c4c([H])c([H])c([H])c([H])c4C([H])([H])C([H])([H])C2([H])[H])C3([H])[H])c1C([H])([H])C([H])([H])[H]

$$$$
39:0:0
     RDKit          3D

 92100  0  0  1  0  0  0  0  0999 V2000
  -28.8970  -20.9720   20.9410 C   0  0  0  0  0  2  0  0  0  0  0  0
  -28.2650  -22.0470   21.8480 C   0  0  0  0  0  2  0  0  0  0  0  0
  -28.8450  -23.4430   21.6580 C   0  0  0  0  0  3  0  0  0  0  0  0
  -28.1200  -24.5460   21.3760 C   0  0  0  0  0  3  0  0  0  0  0  0
  -28.6840  -25.9570   21.2190 C   0  0  0  0  0  2  0  0  0  0  0  0
  -28.3200  -26.5720   19.9790 O   0  0  0  0  0  0  0  0  0  0  0  0
  -24.6380  -31.7950   23.1460 C   0  0  0  0  0  0  0  0  0  0  0  0
  -27.1750  -27.3310   20.0290 C   0  0  0  0  0  0  0  0  0  0  0  0
  -23.3830  -30.3980   21.5360 C   0  0  0  0  0  3  0  0  0  0  0  0
  -24.7950  -28.8460   20.0820 C   0  0  0  0  0  0  0  0  0  0  0  0
  -25.9020  -30.7400   21.2800 C   0  0  0  0  0  2  0  0  0  0  0  0
  -25.9660  -29.3660   20.6500 C   0  0  0  0  0  0  0  0  0  0  0  0
  -27.1620  -28.6130   20.6240 C   0  0  0  0  0  3  0  0  0  0  0  0
  -25.9940  -26.8230   19.4540 C   0  0  0  0  0  3  0  0  0  0  0  0
  -24.8030  -27.5740   19.4840 C   0  0  0  0  0  3  0  0  0  0  0  0
  -23.5580  -29.7130   20.1520 C   0  0  0  0  0  2  0  0  0  0  0  0
  -24.6590  -30.9920   22.0470 N   0  0  0  0  0  0  0  0  0  0  0  0
  -23.5730  -32.0780   23.7120 O   0  0  0  0  0  0  0  0  0  0  0  0
  -22.7500  -29.3830   22.5140 C   0  0  0  0  0  0  0  0  0  0  0  0
  -21.4230  -29.2040   22.4170 N   0  0  0  0  0  0  0  0  0  0  0  0
  -23.4490  -28.7590   23.3170 O   0  0  0  0  0  0  0  0  0  0  0  0
  -20.9220  -29.7640   21.7420 H   0  0  0  0  0  0  0  0  0  0  0  0
  -18.0580  -28.0110   22.9790 C   0  0  0  0  0  0  0  0  0  0  0  0
  -20.6180  -28.2730   23.2080 C   0  0  0  0  0  3  0  0  0  0  0  0
  -20.7100  -26.8370   22.6400 C   0  0  0  0  0  2  0  0  0  0  0  0
  -19.5920  -26.5060   21.6480 C   0  0  0  0  0  2  0  0  0  0  0  0
  -18.2210  -26.6560   22.3120 C   0  0  0  0  0  2  0  0  0  0  0  0
  -19.1830  -28.7790   23.3830 C   0  0  0  0  0  0  0  0  0  0  0  0
  -18.9730  -30.0480   23.9660 C   0  0  0  0  0  3  0  0  0  0  0  0
  -17.6710  -30.5510   24.1450 C   0  0  0  0  0  3  0  0  0  0  0  0
  -16.5600  -29.7830   23.7540 C   0  0  0  0  0  3  0  0  0  0  0  0
  -16.7550  -28.5140   23.1790 C   0  0  0  0  0  3  0  0  0  0  0  0
  -25.9440  -32.4190   23.7300 C   0  0  0  0  0  3  0  0  0  0  0  0
  -25.6360  -33.8010   24.1190 N   0  0  0  0  0  0  0  0  0  0  0  0
  -25.9350  -34.8820   23.3860 C   0  0  0  0  0  0  0  0  0  0  0  0
  -26.5660  -34.8210   22.3280 O   0  0  0  0  0  0  0  0  0  0  0  0
  -25.0730  -33.9220   24.9480 H   0  0  0  0  0  0  0  0  0  0  0  0
  -24.1760  -36.6630   23.1530 C   0  0  0  0  0  1  0  0  0  0  0  0
  -25.4510  -36.2490   23.9040 C   0  0  0  0  0  3  0  0  0  0  0  0
  -27.6100  -37.1270   24.6760 C   0  0  0  0  0  1  0  0  0  0  0  0
  -26.4690  -37.3150   23.7850 N   0  0  0  0  0  0  0  0  0  0  0  0
  -26.0620  -38.2260   23.9810 H   0  0  0  0  0  0  0  0  0  0  0  0
  -26.5230  -31.6120   24.9550 C   0  0  1  0  0  0  0  0  0  0  0  0
  -25.4810  -31.3270   26.0610 C   0  0  0  0  0  1  0  0  0  0  0  0
  -27.1040  -30.2570   24.4890 C   0  0  0  0  0  1  0  0  0  0  0  0
  -27.6930  -32.3980   25.5930 C   0  0  0  0  0  1  0  0  0  0  0  0
  -30.2250  -20.6740   21.3720 O   0  0  0  0  0  0  0  0  0  0  0  0
  -30.4560  -18.4420   20.3480 C   0  0  0  0  0  3  0  0  0  0  0  0
  -30.5040  -19.3510   21.4500 C   0  0  0  0  0  0  0  0  0  0  0  0
  -30.7110  -17.1350   20.7020 C   0  0  0  0  0  0  0  0  0  0  0  0
  -30.8360  -18.7320   22.6290 C   0  0  0  0  0  0  0  0  0  0  0  0
  -30.9140  -19.3530   23.9860 C   0  0  0  0  0  1  0  0  0  0  0  0
  -31.1050  -17.0190   22.3980 S   0  0  0  0  0  0  0  0  0  0  0  0
  -30.5190  -15.9490   19.8710 C   0  0  0  0  0  0  0  0  0  0  0  0
  -29.8320  -16.0290   18.8070 N   0  0  0  0  0  0  0  0  0  0  0  0
  -29.4420  -16.9540   18.6810 H   0  0  0  0  0  0  0  0  0  0  0  0
  -31.2850  -14.6720   20.2260 C   0  0  0  0  0  0  0  0  0  0  0  0
  -30.8900  -12.4730   19.2180 C   0  0  0  0  0  2  0  0  0  0  0  0
  -29.9670  -12.6630   17.9940 C   0  0  0  0  0  2  0  0  0  0  0  0
  -28.4790  -12.6190   18.4080 C   0  0  0  0  0  2  0  0  0  0  0  0
  -28.1610  -13.4880   19.6560 C   0  0  0  0  0  3  0  0  0  0  0  0
  -29.2190  -13.3130   20.7650 C   0  0  0  0  0  2  0  0  0  0  0  0
  -30.5540  -13.5250   20.1870 N   0  0  0  0  0  0  0  0  0  0  0  0
  -32.5020  -14.7060   20.0350 O   0  0  0  0  0  0  0  0  0  0  0  0
  -25.8120  -14.1940   20.4220 C   0  0  0  0  0  0  0  0  0  0  0  0
  -24.7070  -13.4650   20.7720 C   0  0  0  0  0  0  0  0  0  0  0  0
  -25.1040  -12.0940   20.7010 C   0  0  0  0  0  0  0  0  0  0  0  0
  -26.8070  -13.2690   20.1530 N   0  0  0  0  0  0  0  0  0  0  0  0
  -26.3890  -11.9980   20.3860 N   0  0  0  0  0  0  0  0  0  0  0  0
  -24.3200  -10.8630   20.8580 C   0  0  0  0  0  0  0  0  0  0  0  0
  -24.6790   -9.8690   21.7960 C   0  0  0  0  0  3  0  0  0  0  0  0
  -23.8940   -8.7070   21.9420 C   0  0  0  0  0  3  0  0  0  0  0  0
  -22.7350   -8.5280   21.1490 C   0  0  0  0  0  0  0  0  0  0  0  0
  -22.3920   -9.5120   20.2050 C   0  0  0  0  0  3  0  0  0  0  0  0
  -23.1780  -10.6670   20.0570 C   0  0  0  0  0  3  0  0  0  0  0  0
  -21.9320   -7.4140   21.2010 O   0  0  0  0  0  0  0  0  0  0  0  0
  -21.7820   -6.6870   22.3560 C   0  0  0  0  0  0  0  0  0  0  0  0
  -21.3320   -7.2830   23.5540 C   0  0  0  0  0  3  0  0  0  0  0  0
  -21.1230   -6.4910   24.7010 C   0  0  0  0  0  3  0  0  0  0  0  0
  -21.3560   -5.1040   24.6490 C   0  0  0  0  0  0  0  0  0  0  0  0
  -21.8020   -4.5060   23.4560 C   0  0  0  0  0  3  0  0  0  0  0  0
  -22.0080   -5.2960   22.3110 C   0  0  0  0  0  0  0  0  0  0  0  0
  -22.4150   -4.7140   21.1570 F   0  0  0  0  0  0  0  0  0  0  0  0
  -21.1500   -4.3410   25.7470 F   0  0  0  0  0  0  0  0  0  0  0  0
  -23.3350  -14.0050   21.0600 C   0  0  0  0  0  0  0  0  0  0  0  0
  -22.5810  -13.3390   21.9280 N   0  0  0  0  0  0  0  0  0  0  0  0
  -22.9390  -15.0540   20.5530 O   0  0  0  0  0  0  0  0  0  0  0  0
  -22.9050  -12.4910   22.3670 H   0  0  0  0  0  0  0  0  0  0  0  0
  -21.6630  -13.6930   22.1610 H   0  0  0  0  0  0  0  0  0  0  0  0
  -26.0440  -15.5580   20.2880 N   0  0  0  0  0  0  0  0  0  0  0  0
  -25.3230  -16.2530   20.4450 H   0  0  0  0  0  0  0  0  0  0  0  0
  -26.9130  -15.9600   19.9620 H   0  0  0  0  0  0  0  0  0  0  0  0
  1 47  1  0
  1  2  1  0
  3  2  1  0
  4  3  2  0
  5  4  1  0
  6  8  1  0
  6  5  1  0
  7 18  2  0
  8 13  1  0
  9 17  1  0
  9 19  1  0
 10 16  1  0
 10 12  1  0
 11 17  1  0
 12 11  1  0
 13 12  2  0
 14 15  1  0
 14  8  2  0
 15 10  2  0
 16  9  1  0
 17  7  1  0
 19 21  2  0
 20 19  1  0
 22 20  1  0
 23 32  2  0
 23 28  1  0
 24 20  1  0
 24 28  1  0
 25 24  1  0
 26 27  1  0
 26 25  1  0
 27 23  1  0
 28 29  2  0
 29 30  1  0
 31 30  2  0
 32 31  1  0
 33  7  1  0
 33 34  1  0
 33 43  1  0
 34 37  1  0
 35 39  1  0
 35 34  1  0
 36 35  2  0
 39 38  1  0
 41 39  1  0
 41 42  1  0
 41 40  1  0
 43 46  1  1
 43 44  1  0
 45 43  1  0
 47 49  1  0
 48 50  2  0
 48 49  1  0
 49 51  2  0
 50 53  1  0
 51 52  1  0
 53 51  1  0
 54 57  1  0
 54 50  1  0
 55 54  2  0
 56 55  1  0
 58 63  1  0
 59 60  1  0
 59 58  1  0
 61 60  1  0
 61 68  1  0
 61 62  1  0
 63 57  1  0
 63 62  1  0
 64 57  2  0
 65 66  2  0
 66 85  1  0
 67 66  1  0
 67 70  1  0
 68 69  1  0
 68 65  1  0
 69 67  2  0
 70 71  1  0
 71 72  2  0
 73 76  1  0
 73 72  1  0
 74 73  2  0
 75 74  1  0
 75 70  2  0
 76 77  1  0
 77 78  1  0
 78 79  2  0
 80 79  1  0
 80 84  1  0
 81 80  2  0
 82 77  2  0
 82 81  1  0
 83 82  1  0
 85 86  1  0
 86 89  1  0
 86 88  1  0
 87 85  2  0
 90 65  1  0
 90 91  1  0
 92 90  1  0
M  ISO  4   5 101   6 101  54 100  57 100
M  END
>  <TORSDO>  (40) 
F 22

>  <SCORE>  (40) 
-12.287

>  <name>  (40) 
39

>  <ligand_id>  (40) 
39

>  <original_smiles>  (40) 
[H]N=C(C(=O)N1C([H])([H])C([H])([H])C([H])([H])C([H])(n2nc(-c3c([H])c([H])c(Oc4c([H])c([H])c(F)c([H])c4F)c([H])c3[H])c(C(=O)N([H])[H])c2N([H])[H])C1([H])[H])c1sc(C([H])([H])[H])c(OC([H])([H])C([H])([H])C([H])=C([H])C([H])([H])Oc2c([H])c([H])c3c(c2[H])C([H])([H])N(C(=O)C([H])(N([H])C(=O)C([H])(N([H])C([H])([H])[H])C([H])([H])[H])C(C([H])([H])[H])(C([H])([H])[H])C([H])([H])[H])C([H])(C(=O)N([H])C2([H])c4c([H])c([H])c([H])c([H])c4C([H])([H])C([H])([H])C2([H])[H])C3([H])[H])c1[H]

>  <smiles>  (40) 
[H]N=C(C(=O)N1C([H])([H])C([H])([H])C([H])([H])C([H])(n2nc(-c3c([H])c([H])c(Oc4c([H])c([H])c(F)c([H])c4F)c([H])c3[H])c(C(=O)N([H])[H])c2N([H])[H])C1([H])[H])c1sc(C([H])([H])[H])c(OC([H])([H])C([H])([H])C([H])=C([H])C([H])([H])Oc2c([H])c([H])c3c(c2[H])C([H])([H])N(C(=O)C([H])(N([H])C(=O)C([H])(N([H])C([H])([H])[H])C([H])([H])[H])C(C([H])([H])[H])(C([H])([H])[H])C([H])([H])[H])C([H])(C(=O)N([H])C2([H])c4c([H])c([H])c([H])c([H])c4C([H])([H])C([H])([H])C2([H])[H])C3([H])[H])c1[H]

$$$$
40:0:0
     RDKit          3D

 95103  0  0  1  0  0  0  0  0999 V2000
  -30.8950  -18.5640   22.6460 C   0  0  0  0  0  3  0  0  0  0  0  0
  -30.2880  -18.7680   19.9540 C   0  0  0  0  0  3  0  0  0  0  0  0
  -30.7260  -17.3730   21.9020 C   0  0  0  0  0  0  0  0  0  0  0  0
  -30.4450  -17.4570   20.5090 C   0  0  0  0  0  0  0  0  0  0  0  0
  -30.7340  -19.8540   22.0810 C   0  0  0  0  0  0  0  0  0  0  0  0
  -30.3770  -19.9610   20.7140 C   0  0  0  0  0  0  0  0  0  0  0  0
  -30.1780  -16.2700   19.6030 C   0  0  0  0  0  0  0  0  0  0  0  0
  -29.3390  -16.4290   18.6690 N   0  0  0  0  0  0  0  0  0  0  0  0
  -29.3100  -15.5990   18.0900 H   0  0  0  0  0  0  0  0  0  0  0  0
  -31.0240  -14.9630   19.6810 C   0  0  0  0  0  0  0  0  0  0  0  0
  -30.6640  -12.7000   18.7480 C   0  0  0  0  0  2  0  0  0  0  0  0
  -29.6330  -12.7740   17.6000 C   0  0  0  0  0  2  0  0  0  0  0  0
  -28.2000  -12.6080   18.1450 C   0  0  0  0  0  2  0  0  0  0  0  0
  -27.9130  -13.5320   19.3520 C   0  0  0  0  0  3  0  0  0  0  0  0
  -29.0630  -13.5080   20.3880 C   0  0  0  0  0  2  0  0  0  0  0  0
  -30.3340  -13.7780   19.6950 N   0  0  0  0  0  0  0  0  0  0  0  0
  -32.2060  -15.0330   19.3410 O   0  0  0  0  0  0  0  0  0  0  0  0
  -25.6460  -14.2020   20.3430 C   0  0  0  0  0  0  0  0  0  0  0  0
  -24.5820  -13.4510   20.7630 C   0  0  0  0  0  0  0  0  0  0  0  0
  -24.9780  -12.0880   20.6100 C   0  0  0  0  0  0  0  0  0  0  0  0
  -26.6160  -13.2870   19.9580 N   0  0  0  0  0  0  0  0  0  0  0  0
  -26.2290  -12.0110   20.1830 N   0  0  0  0  0  0  0  0  0  0  0  0
  -24.2210  -10.8460   20.7860 C   0  0  0  0  0  0  0  0  0  0  0  0
  -24.6360   -9.8570   21.7030 C   0  0  0  0  0  3  0  0  0  0  0  0
  -23.8830   -8.6750   21.8670 C   0  0  0  0  0  3  0  0  0  0  0  0
  -22.7010   -8.4790   21.1150 C   0  0  0  0  0  0  0  0  0  0  0  0
  -22.3060   -9.4580   20.1850 C   0  0  0  0  0  3  0  0  0  0  0  0
  -23.0610  -10.6300   20.0190 C   0  0  0  0  0  3  0  0  0  0  0  0
  -21.9190   -7.3530   21.1910 O   0  0  0  0  0  0  0  0  0  0  0  0
  -21.7700   -6.6590   22.3640 C   0  0  0  0  0  0  0  0  0  0  0  0
  -21.2520   -7.2670   23.5290 C   0  0  0  0  0  3  0  0  0  0  0  0
  -21.0510   -6.4990   24.6930 C   0  0  0  0  0  3  0  0  0  0  0  0
  -21.3570   -5.1260   24.6930 C   0  0  0  0  0  0  0  0  0  0  0  0
  -21.8680   -4.5180   23.5330 C   0  0  0  0  0  3  0  0  0  0  0  0
  -22.0720   -5.2820   22.3710 C   0  0  0  0  0  0  0  0  0  0  0  0
  -22.5450   -4.6880   21.2490 F   0  0  0  0  0  0  0  0  0  0  0  0
  -21.1560   -4.3850   25.8090 F   0  0  0  0  0  0  0  0  0  0  0  0
  -23.2380  -13.9650   21.1900 C   0  0  0  0  0  0  0  0  0  0  0  0
  -22.5640  -13.2470   22.0820 N   0  0  0  0  0  0  0  0  0  0  0  0
  -22.7960  -15.0330   20.7680 O   0  0  0  0  0  0  0  0  0  0  0  0
  -22.9340  -12.3800   22.4430 H   0  0  0  0  0  0  0  0  0  0  0  0
  -21.6640  -13.5700   22.4100 H   0  0  0  0  0  0  0  0  0  0  0  0
  -25.8640  -15.5730   20.2340 N   0  0  0  0  0  0  0  0  0  0  0  0
  -25.1530  -16.2590   20.4650 H   0  0  0  0  0  0  0  0  0  0  0  0
  -26.7150  -15.9890   19.8720 H   0  0  0  0  0  0  0  0  0  0  0  0
  -31.4020  -20.9090   24.1470 C   0  0  0  0  0  1  0  0  0  0  0  0
  -30.9380  -21.0100   22.8060 O   0  0  0  0  0  0  0  0  0  0  0  0
  -31.7810  -15.8280   23.5640 C   0  0  0  0  0  2  0  0  0  0  0  0
  -30.8600  -16.0910   22.6210 C   0  0  0  0  0  3  0  0  0  0  0  0
  -30.1610  -21.1780   20.0700 O   0  0  0  0  0  0  0  0  0  0  0  0
  -29.2430  -22.1200   20.6630 C   0  0  0  0  0  2  0  0  0  0  0  0
  -29.0840  -24.6170   20.0460 C   0  0  0  0  0  3  0  0  0  0  0  0
  -28.9240  -23.3060   19.7410 C   0  0  0  0  0  3  0  0  0  0  0  0
  -28.7780  -25.8050   19.1250 C   0  0  0  0  0  2  0  0  0  0  0  0
  -28.5540  -27.0370   19.8440 O   0  0  0  0  0  0  0  0  0  0  0  0
  -24.6010  -31.8850   23.2460 C   0  0  0  0  0  0  0  0  0  0  0  0
  -27.3260  -27.6830   19.8770 C   0  0  0  0  0  0  0  0  0  0  0  0
  -23.4060  -30.5360   21.5500 C   0  0  0  0  0  3  0  0  0  0  0  0
  -24.8780  -29.1210   20.0220 C   0  0  0  0  0  0  0  0  0  0  0  0
  -25.9160  -30.9800   21.3290 C   0  0  0  0  0  2  0  0  0  0  0  0
  -26.0310  -29.6460   20.6150 C   0  0  0  0  0  0  0  0  0  0  0  0
  -27.2510  -28.9340   20.5410 C   0  0  0  0  0  3  0  0  0  0  0  0
  -26.1420  -27.1640   19.3000 C   0  0  0  0  0  3  0  0  0  0  0  0
  -24.9290  -27.8780   19.3670 C   0  0  0  0  0  3  0  0  0  0  0  0
  -23.6100  -29.9370   20.1330 C   0  0  0  0  0  2  0  0  0  0  0  0
  -24.6600  -31.1480   22.1010 N   0  0  0  0  0  0  0  0  0  0  0  0
  -23.5230  -32.0940   23.8200 O   0  0  0  0  0  0  0  0  0  0  0  0
  -22.8050  -29.4470   22.4670 C   0  0  0  0  0  0  0  0  0  0  0  0
  -21.4960  -29.1860   22.3120 N   0  0  0  0  0  0  0  0  0  0  0  0
  -23.5140  -28.8380   23.2730 O   0  0  0  0  0  0  0  0  0  0  0  0
  -20.9800  -29.7340   21.6370 H   0  0  0  0  0  0  0  0  0  0  0  0
  -18.2080  -27.7380   22.6850 C   0  0  0  0  0  0  0  0  0  0  0  0
  -20.7310  -28.1740   23.0390 C   0  0  0  0  0  3  0  0  0  0  0  0
  -20.9550  -26.7670   22.4370 C   0  0  0  0  0  2  0  0  0  0  0  0
  -19.9090  -26.3890   21.3830 C   0  0  0  0  0  2  0  0  0  0  0  0
  -18.5020  -26.4210   21.9880 C   0  0  0  0  0  2  0  0  0  0  0  0
  -19.2550  -28.5680   23.1660 C   0  0  0  0  0  0  0  0  0  0  0  0
  -18.9280  -29.7980   23.7760 C   0  0  0  0  0  3  0  0  0  0  0  0
  -17.5860  -30.2010   23.9110 C   0  0  0  0  0  3  0  0  0  0  0  0
  -16.5540  -29.3670   23.4470 C   0  0  0  0  0  3  0  0  0  0  0  0
  -16.8650  -28.1380   22.8400 C   0  0  0  0  0  3  0  0  0  0  0  0
  -25.8800  -32.5220   23.8760 C   0  0  0  0  0  3  0  0  0  0  0  0
  -25.5650  -33.9210   24.1960 N   0  0  0  0  0  0  0  0  0  0  0  0
  -25.9080  -34.9710   23.4370 C   0  0  0  0  0  0  0  0  0  0  0  0
  -26.5940  -34.8640   22.4160 O   0  0  0  0  0  0  0  0  0  0  0  0
  -24.9580  -34.0790   24.9870 H   0  0  0  0  0  0  0  0  0  0  0  0
  -24.1810  -36.7580   23.0480 C   0  0  0  0  0  1  0  0  0  0  0  0
  -25.4110  -36.3600   23.8810 C   0  0  0  0  0  3  0  0  0  0  0  0
  -27.5280  -37.2570   24.7440 C   0  0  0  0  0  1  0  0  0  0  0  0
  -26.4430  -37.4140   23.7770 N   0  0  0  0  0  0  0  0  0  0  0  0
  -26.0320  -38.3340   23.9100 H   0  0  0  0  0  0  0  0  0  0  0  0
  -26.3910  -31.7580   25.1580 C   0  0  1  0  0  0  0  0  0  0  0  0
  -25.2870  -31.4980   26.2080 C   0  0  0  0  0  1  0  0  0  0  0  0
  -27.0050  -30.3920   24.7720 C   0  0  0  0  0  1  0  0  0  0  0  0
  -27.5150  -32.5710   25.8430 C   0  0  0  0  0  1  0  0  0  0  0  0
  2  4  2  0
  2  6  1  0
  3 49  1  0
  3  1  2  0
  4  3  1  0
  5  1  1  0
  5 47  1  0
  6  5  2  0
  7 10  1  0
  7  4  1  0
  8  7  2  0
  9  8  1  0
 10 16  1  0
 11 16  1  0
 12 13  1  0
 12 11  1  0
 14 13  1  0
 14 21  1  0
 14 15  1  0
 16 15  1  0
 17 10  2  0
 18 19  2  0
 19 38  1  0
 20 19  1  0
 20 23  1  0
 21 22  1  0
 21 18  1  0
 22 20  2  0
 23 24  1  0
 24 25  2  0
 26 29  1  0
 26 25  1  0
 27 26  2  0
 28 27  1  0
 28 23  2  0
 29 30  1  0
 30 35  2  0
 30 31  1  0
 31 32  2  0
 32 33  1  0
 33 37  1  0
 34 33  2  0
 35 34  1  0
 36 35  1  0
 38 39  1  0
 39 42  1  0
 39 41  1  0
 40 38  2  0
 43 18  1  0
 43 44  1  0
 45 43  1  0
 47 46  1  0
 49 48  2  0
 50 51  1  0
 50  6  1  0
 53 52  2  0
 53 51  1  0
 54 55  1  0
 54 52  1  0
 55 57  1  0
 56 67  2  0
 57 62  1  0
 58 66  1  0
 58 68  1  0
 59 65  1  0
 59 61  1  0
 60 66  1  0
 61 60  1  0
 62 61  2  0
 63 64  1  0
 63 57  2  0
 64 59  2  0
 65 58  1  0
 66 56  1  0
 68 70  2  0
 69 68  1  0
 71 69  1  0
 72 81  2  0
 72 77  1  0
 73 69  1  0
 73 77  1  0
 74 73  1  0
 75 76  1  0
 75 74  1  0
 76 72  1  0
 77 78  2  0
 78 79  1  0
 80 79  2  0
 81 80  1  0
 82 56  1  0
 82 83  1  0
 82 92  1  0
 83 86  1  0
 84 88  1  0
 84 83  1  0
 85 84  2  0
 88 87  1  0
 90 88  1  0
 90 91  1  0
 90 89  1  0
 92 95  1  1
 92 93  1  0
 94 92  1  0
M  ISO  4   7 100  10 100  54 101  55 101
M  END
>  <TORSDO>  (41) 
F 23

>  <SCORE>  (41) 
-9.254

>  <name>  (41) 
40

>  <ligand_id>  (41) 
40

>  <original_smiles>  (41) 
[H]N=C(C(=O)N1C([H])([H])C([H])([H])C([H])([H])C([H])(n2nc(-c3c([H])c([H])c(Oc4c([H])c([H])c(F)c([H])c4F)c([H])c3[H])c(C(=O)N([H])[H])c2N([H])[H])C1([H])[H])c1c([H])c(OC([H])([H])C([H])=C([H])C([H])([H])Oc2c([H])c([H])c3c(c2[H])C([H])([H])N(C(=O)C([H])(N([H])C(=O)C([H])(N([H])C([H])([H])[H])C([H])([H])[H])C(C([H])([H])[H])(C([H])([H])[H])C([H])([H])[H])C([H])(C(=O)N([H])C2([H])c4c([H])c([H])c([H])c([H])c4C([H])([H])C([H])([H])C2([H])[H])C3([H])[H])c(OC([H])([H])[H])c([H])c1C([H])=C([H])[H]

>  <smiles>  (41) 
[H]N=C(C(=O)N1C([H])([H])C([H])([H])C([H])([H])C([H])(n2nc(-c3c([H])c([H])c(Oc4c([H])c([H])c(F)c([H])c4F)c([H])c3[H])c(C(=O)N([H])[H])c2N([H])[H])C1([H])[H])c1c([H])c(OC([H])([H])C([H])=C([H])C([H])([H])Oc2c([H])c([H])c3c(c2[H])C([H])([H])N(C(=O)C([H])(N([H])C(=O)C([H])(N([H])C([H])([H])[H])C([H])([H])[H])C(C([H])([H])[H])(C([H])([H])[H])C([H])([H])[H])C([H])(C(=O)N([H])C2([H])c4c([H])c([H])c([H])c([H])c4C([H])([H])C([H])([H])C2([H])[H])C3([H])[H])c(OC([H])([H])[H])c([H])c1C([H])=C([H])[H]

$$$$
41:0:0
     RDKit          3D

 97105  0  0  1  0  0  0  0  0999 V2000
  -31.4750  -18.2450   20.5100 C   0  0  0  0  0  3  0  0  0  0  0  0
  -29.1030  -18.4240   20.2120 C   0  0  0  0  0  0  0  0  0  0  0  0
  -30.4430  -20.5320   20.3310 C   0  0  0  0  0  0  0  0  0  0  0  0
  -30.2340  -17.5560   20.4040 C   0  0  0  0  0  0  0  0  0  0  0  0
  -29.1980  -19.8550   20.2860 C   0  0  0  0  0  0  0  0  0  0  0  0
  -31.5770  -19.6730   20.4460 C   0  0  0  0  0  0  0  0  0  0  0  0
  -32.8090  -20.2330   20.5280 F   0  0  0  0  0  0  0  0  0  0  0  0
  -30.9350  -15.0010   20.4010 C   0  0  0  0  0  0  0  0  0  0  0  0
  -30.8190  -12.6790   19.4980 C   0  0  0  0  0  2  0  0  0  0  0  0
  -29.9220  -12.6890   18.2380 C   0  0  0  0  0  2  0  0  0  0  0  0
  -28.4370  -12.5290   18.6200 C   0  0  0  0  0  2  0  0  0  0  0  0
  -28.0150  -13.4700   19.7790 C   0  0  0  0  0  3  0  0  0  0  0  0
  -29.0280  -13.4230   20.9420 C   0  0  0  0  0  2  0  0  0  0  0  0
  -30.3460  -13.7600   20.3860 N   0  0  0  0  0  0  0  0  0  0  0  0
  -32.1320  -15.1260   20.1220 O   0  0  0  0  0  0  0  0  0  0  0  0
  -30.0770  -16.0820   20.5050 N   0  0  0  0  0  0  0  0  0  0  0  0
  -29.1220  -15.7850   20.6350 H   0  0  0  0  0  0  0  0  0  0  0  0
  -25.6440  -14.1010   20.5170 C   0  0  0  0  0  0  0  0  0  0  0  0
  -24.5370  -13.3600   20.8090 C   0  0  0  0  0  0  0  0  0  0  0  0
  -24.9430  -11.9980   20.6800 C   0  0  0  0  0  0  0  0  0  0  0  0
  -26.6530  -13.2020   20.2240 N   0  0  0  0  0  0  0  0  0  0  0  0
  -26.2360  -11.9230   20.3870 N   0  0  0  0  0  0  0  0  0  0  0  0
  -24.1580  -10.7660   20.7630 C   0  0  0  0  0  0  0  0  0  0  0  0
  -24.5510   -9.7000   21.6000 C   0  0  0  0  0  3  0  0  0  0  0  0
  -23.7710   -8.5280   21.6760 C   0  0  0  0  0  3  0  0  0  0  0  0
  -22.5840   -8.4170   20.9140 C   0  0  0  0  0  0  0  0  0  0  0  0
  -22.2090   -9.4720   20.0650 C   0  0  0  0  0  3  0  0  0  0  0  0
  -22.9900  -10.6370   19.9860 C   0  0  0  0  0  3  0  0  0  0  0  0
  -21.7750   -7.3060   20.9060 O   0  0  0  0  0  0  0  0  0  0  0  0
  -21.7410   -6.4370   21.9670 C   0  0  0  0  0  0  0  0  0  0  0  0
  -21.3800   -6.8590   23.2650 C   0  0  0  0  0  3  0  0  0  0  0  0
  -21.2910   -5.9200   24.3110 C   0  0  0  0  0  3  0  0  0  0  0  0
  -21.5500   -4.5590   24.0590 C   0  0  0  0  0  0  0  0  0  0  0  0
  -21.9030   -4.1360   22.7660 C   0  0  0  0  0  3  0  0  0  0  0  0
  -21.9950   -5.0730   21.7220 C   0  0  0  0  0  0  0  0  0  0  0  0
  -22.3170   -4.6580   20.4730 F   0  0  0  0  0  0  0  0  0  0  0  0
  -21.4540   -3.6540   25.0620 F   0  0  0  0  0  0  0  0  0  0  0  0
  -23.1600  -13.8860   21.0900 C   0  0  0  0  0  0  0  0  0  0  0  0
  -22.3840  -13.1670   21.8930 N   0  0  0  0  0  0  0  0  0  0  0  0
  -22.7820  -14.9670   20.6380 O   0  0  0  0  0  0  0  0  0  0  0  0
  -22.7070  -12.2930   22.2800 H   0  0  0  0  0  0  0  0  0  0  0  0
  -21.4580  -13.4940   22.1250 H   0  0  0  0  0  0  0  0  0  0  0  0
  -25.8590  -15.4610   20.4490 N   0  0  0  0  0  0  0  0  0  0  0  0
  -25.0680  -16.0900   20.5180 H   0  0  0  0  0  0  0  0  0  0  0  0
  -26.6450  -15.8720   19.9640 H   0  0  0  0  0  0  0  0  0  0  0  0
  -27.7440  -17.9570   19.9030 C   0  0  0  0  0  3  0  0  0  0  0  0
  -27.0690  -18.3620   18.7980 C   0  0  0  0  0  0  0  0  0  0  0  0
  -25.5850  -18.1330   18.6030 C   0  0  0  0  0  1  0  0  0  0  0  0
  -27.7140  -19.1360   17.6550 C   0  0  0  0  0  1  0  0  0  0  0  0
  -29.7600  -22.8540   19.8590 C   0  0  0  0  0  3  0  0  0  0  0  0
  -30.5950  -21.9730   20.3410 N   0  0  0  0  0  0  0  0  0  0  0  0
  -31.1370  -24.8490   19.0750 C   0  0  0  0  0  1  0  0  0  0  0  0
  -29.9340  -24.4220   19.9360 C   0  0  0  0  0  3  0  0  0  0  0  0
  -28.6560  -25.3150   19.5840 C   0  0  0  0  0  2  0  0  0  0  0  0
  -28.6990  -26.7560   19.9160 O   0  0  0  0  0  0  0  0  0  0  0  0
  -24.6560  -31.7410   23.1950 C   0  0  0  0  0  0  0  0  0  0  0  0
  -27.5160  -27.5150   19.8970 C   0  0  0  0  0  0  0  0  0  0  0  0
  -23.5390  -30.4150   21.4350 C   0  0  0  0  0  3  0  0  0  0  0  0
  -25.0760  -29.0140   19.9480 C   0  0  0  0  0  0  0  0  0  0  0  0
  -26.0620  -30.8460   21.3250 C   0  0  0  0  0  2  0  0  0  0  0  0
  -26.2110  -29.5150   20.5960 C   0  0  0  0  0  0  0  0  0  0  0  0
  -27.4300  -28.7780   20.5610 C   0  0  0  0  0  3  0  0  0  0  0  0
  -26.3530  -27.0590   19.2330 C   0  0  0  0  0  3  0  0  0  0  0  0
  -25.1470  -27.7920   19.2590 C   0  0  0  0  0  3  0  0  0  0  0  0
  -23.8070  -29.8370   20.0200 C   0  0  0  0  0  2  0  0  0  0  0  0
  -24.7700  -31.0120   22.0460 N   0  0  0  0  0  0  0  0  0  0  0  0
  -23.5520  -31.9440   23.7220 O   0  0  0  0  0  0  0  0  0  0  0  0
  -22.8920  -29.3160   22.3110 C   0  0  0  0  0  0  0  0  0  0  0  0
  -21.5650  -29.1440   22.1780 N   0  0  0  0  0  0  0  0  0  0  0  0
  -23.5800  -28.6250   23.0660 O   0  0  0  0  0  0  0  0  0  0  0  0
  -21.0690  -29.7500   21.5410 H   0  0  0  0  0  0  0  0  0  0  0  0
  -18.1920  -27.9400   22.6560 C   0  0  0  0  0  0  0  0  0  0  0  0
  -20.7600  -28.1390   22.8700 C   0  0  0  0  0  3  0  0  0  0  0  0
  -20.8240  -26.7760   22.1390 C   0  0  0  0  0  2  0  0  0  0  0  0
  -19.6860  -26.5770   21.1340 C   0  0  0  0  0  2  0  0  0  0  0  0
  -18.3270  -26.6680   21.8360 C   0  0  0  0  0  2  0  0  0  0  0  0
  -19.3340  -28.6380   23.1290 C   0  0  0  0  0  0  0  0  0  0  0  0
  -19.1510  -29.8330   23.8610 C   0  0  0  0  0  3  0  0  0  0  0  0
  -17.8590  -30.3260   24.1220 C   0  0  0  0  0  3  0  0  0  0  0  0
  -16.7320  -29.6220   23.6640 C   0  0  0  0  0  3  0  0  0  0  0  0
  -16.9000  -28.4310   22.9350 C   0  0  0  0  0  3  0  0  0  0  0  0
  -25.9030  -32.3710   23.8910 C   0  0  0  0  0  3  0  0  0  0  0  0
  -25.5760  -33.7680   24.2060 N   0  0  0  0  0  0  0  0  0  0  0  0
  -25.9200  -34.8200   23.4490 C   0  0  0  0  0  0  0  0  0  0  0  0
  -26.6120  -34.7140   22.4330 O   0  0  0  0  0  0  0  0  0  0  0  0
  -24.9570  -33.9250   24.9890 H   0  0  0  0  0  0  0  0  0  0  0  0
  -24.1720  -36.5880   23.0690 C   0  0  0  0  0  1  0  0  0  0  0  0
  -25.4140  -36.2070   23.8890 C   0  0  0  0  0  3  0  0  0  0  0  0
  -27.5340  -37.1280   24.7220 C   0  0  0  0  0  1  0  0  0  0  0  0
  -26.4340  -37.2720   23.7700 N   0  0  0  0  0  0  0  0  0  0  0  0
  -26.0150  -38.1860   23.9110 H   0  0  0  0  0  0  0  0  0  0  0  0
  -26.3460  -31.5950   25.1920 C   0  0  1  0  0  0  0  0  0  0  0  0
  -25.1950  -31.3650   26.1980 C   0  0  0  0  0  1  0  0  0  0  0  0
  -26.9400  -30.2140   24.8260 C   0  0  0  0  0  1  0  0  0  0  0  0
  -27.4690  -32.3780   25.9140 C   0  0  0  0  0  1  0  0  0  0  0  0
  -27.7770  -21.1830   21.5890 C   0  0  0  0  0  1  0  0  0  0  0  0
  -28.0380  -20.5970   20.3190 O   0  0  0  0  0  0  0  0  0  0  0  0
  2  5  2  0
  2  4  1  0
  3 51  1  0
  3  6  2  0
  4 16  1  0
  4  1  2  0
  5 97  1  0
  5  3  1  0
  6  1  1  0
  6  7  1  0
  8 16  1  0
  9 14  1  0
 10 11  1  0
 10  9  1  0
 12 11  1  0
 12 21  1  0
 12 13  1  0
 14  8  1  0
 14 13  1  0
 15  8  2  0
 16 17  1  0
 18 19  2  0
 19 38  1  0
 20 23  1  0
 20 19  1  0
 21 22  1  0
 21 18  1  0
 22 20  2  0
 23 24  1  0
 24 25  2  0
 26 25  1  0
 27 26  2  0
 28 27  1  0
 28 23  2  0
 29 26  1  0
 29 30  1  0
 30 31  1  0
 31 32  2  0
 33 32  1  0
 33 37  1  0
 34 33  2  0
 35 30  2  0
 35 34  1  0
 36 35  1  0
 38 39  1  0
 39 42  1  0
 39 41  1  0
 40 38  2  0
 43 18  1  0
 43 44  1  0
 45 43  1  0
 46  2  1  0
 47 46  2  0
 48 47  1  0
 49 47  1  0
 50 53  1  0
 50 51  2  0
 53 52  1  0
 54 55  1  0
 54 53  1  0
 56 67  2  0
 57 55  1  0
 57 62  1  0
 58 66  1  0
 58 68  1  0
 59 65  1  0
 59 61  1  0
 60 66  1  0
 61 60  1  0
 62 61  2  0
 63 64  1  0
 63 57  2  0
 64 59  2  0
 65 58  1  0
 66 56  1  0
 68 70  2  0
 69 68  1  0
 71 69  1  0
 72 81  2  0
 72 77  1  0
 73 69  1  0
 73 77  1  0
 74 73  1  0
 75 76  1  0
 75 74  1  0
 76 72  1  0
 77 78  2  0
 78 79  1  0
 80 79  2  0
 81 80  1  0
 82 56  1  0
 82 83  1  0
 82 92  1  0
 83 86  1  0
 84 88  1  0
 84 83  1  0
 85 84  2  0
 88 87  1  0
 90 88  1  0
 90 91  1  0
 90 89  1  0
 92 95  1  1
 92 93  1  0
 94 92  1  0
 97 96  1  0
M  ISO  4   8 100  16 100  54 101  55 101
M  END
>  <TORSDO>  (42) 
F 21

>  <SCORE>  (42) 
-11.328

>  <name>  (42) 
41

>  <ligand_id>  (42) 
41

>  <original_smiles>  (42) 
[H]C(=Nc1c(F)c([H])c(N([H])C(=O)N2C([H])([H])C([H])([H])C([H])([H])C([H])(n3nc(-c4c([H])c([H])c(Oc5c([H])c([H])c(F)c([H])c5F)c([H])c4[H])c(C(=O)N([H])[H])c3N([H])[H])C2([H])[H])c(C([H])=C(C([H])([H])[H])C([H])([H])[H])c1OC([H])([H])[H])C([H])(C([H])([H])[H])C([H])([H])Oc1c([H])c([H])c2c(c1[H])C([H])([H])N(C(=O)C([H])(N([H])C(=O)C([H])(N([H])C([H])([H])[H])C([H])([H])[H])C(C([H])([H])[H])(C([H])([H])[H])C([H])([H])[H])C([H])(C(=O)N([H])C1([H])c3c([H])c([H])c([H])c([H])c3C([H])([H])C([H])([H])C1([H])[H])C2([H])[H]

>  <smiles>  (42) 
[H]C(=Nc1c(F)c([H])c(N([H])C(=O)N2C([H])([H])C([H])([H])C([H])([H])C([H])(n3nc(-c4c([H])c([H])c(Oc5c([H])c([H])c(F)c([H])c5F)c([H])c4[H])c(C(=O)N([H])[H])c3N([H])[H])C2([H])[H])c(C([H])=C(C([H])([H])[H])C([H])([H])[H])c1OC([H])([H])[H])C([H])(C([H])([H])[H])C([H])([H])Oc1c([H])c([H])c2c(c1[H])C([H])([H])N(C(=O)C([H])(N([H])C(=O)C([H])(N([H])C([H])([H])[H])C([H])([H])[H])C(C([H])([H])[H])(C([H])([H])[H])C([H])([H])[H])C([H])(C(=O)N([H])C1([H])c3c([H])c([H])c([H])c([H])c3C([H])([H])C([H])([H])C1([H])[H])C2([H])[H]

$$$$
42:0:0
     RDKit          3D

 95103  0  0  1  0  0  0  0  0999 V2000
  -28.2250  -17.0400   20.7120 C   0  0  0  0  0  3  0  0  0  0  0  0
  -27.4180  -18.0240   20.2350 C   0  0  0  0  0  0  0  0  0  0  0  0
  -27.9430  -19.3840   19.9670 C   0  0  0  0  0  0  0  0  0  0  0  0
  -30.1390  -18.4860   20.7950 C   0  0  0  0  0  0  0  0  0  0  0  0
  -29.5750  -17.1620   21.0170 N   0  0  0  0  0  0  0  0  0  0  0  0
  -29.3070  -19.5760   20.2840 N   0  0  0  0  0  0  0  0  0  0  0  0
  -27.2970  -20.3290   19.4920 O   0  0  0  0  0  0  0  0  0  0  0  0
  -31.3240  -18.6750   21.0700 O   0  0  0  0  0  0  0  0  0  0  0  0
  -25.9740  -17.7410   20.0340 C   0  0  0  0  0  0  0  0  0  0  0  0
  -25.2930  -18.5080   19.1820 N   0  0  0  0  0  0  0  0  0  0  0  0
  -25.3660  -16.8180   20.5770 O   0  0  0  0  0  0  0  0  0  0  0  0
  -24.3160  -18.3360   18.9950 H   0  0  0  0  0  0  0  0  0  0  0  0
  -25.7520  -19.3100   18.7600 H   0  0  0  0  0  0  0  0  0  0  0  0
  -30.1540  -16.0160   21.8780 C   0  0  0  0  0  2  0  0  0  0  0  0
  -30.8750  -14.6470   21.4320 C   0  0  0  0  0  0  0  0  0  0  0  0
  -31.0020  -12.1870   20.9230 C   0  0  0  0  0  2  0  0  0  0  0  0
  -30.3560  -11.8960   19.5530 C   0  0  0  0  0  2  0  0  0  0  0  0
  -28.8400  -11.6720   19.7070 C   0  0  0  0  0  2  0  0  0  0  0  0
  -28.1680  -12.7610   20.5850 C   0  0  0  0  0  3  0  0  0  0  0  0
  -28.9580  -13.0300   21.8860 C   0  0  0  0  0  2  0  0  0  0  0  0
  -30.3320  -13.3780   21.5060 N   0  0  0  0  0  0  0  0  0  0  0  0
  -32.0560  -14.7480   21.0840 O   0  0  0  0  0  0  0  0  0  0  0  0
  -25.6770  -13.3100   20.8430 C   0  0  0  0  0  0  0  0  0  0  0  0
  -24.5800  -12.5310   21.0870 C   0  0  0  0  0  0  0  0  0  0  0  0
  -25.0670  -11.1940   21.2060 C   0  0  0  0  0  0  0  0  0  0  0  0
  -26.7640  -12.4540   20.8470 N   0  0  0  0  0  0  0  0  0  0  0  0
  -26.3930  -11.1770   21.1210 N   0  0  0  0  0  0  0  0  0  0  0  0
  -24.3430   -9.9240   21.3320 C   0  0  0  0  0  0  0  0  0  0  0  0
  -24.6970   -8.9640   22.3050 C   0  0  0  0  0  3  0  0  0  0  0  0
  -23.9730   -7.7580   22.4190 C   0  0  0  0  0  3  0  0  0  0  0  0
  -22.8800   -7.5020   21.5570 C   0  0  0  0  0  0  0  0  0  0  0  0
  -22.5460   -8.4500   20.5740 C   0  0  0  0  0  3  0  0  0  0  0  0
  -23.2720   -9.6470   20.4590 C   0  0  0  0  0  3  0  0  0  0  0  0
  -22.1330   -6.3500   21.5800 O   0  0  0  0  0  0  0  0  0  0  0  0
  -22.0330   -5.5800   22.7110 C   0  0  0  0  0  0  0  0  0  0  0  0
  -21.5690   -6.1090   23.9360 C   0  0  0  0  0  3  0  0  0  0  0  0
  -21.4120   -5.2650   25.0530 C   0  0  0  0  0  3  0  0  0  0  0  0
  -21.7130   -3.8940   24.9470 C   0  0  0  0  0  0  0  0  0  0  0  0
  -22.1740   -3.3650   23.7290 C   0  0  0  0  0  3  0  0  0  0  0  0
  -22.3300   -4.2050   22.6130 C   0  0  0  0  0  0  0  0  0  0  0  0
  -22.7500   -3.6870   21.4340 F   0  0  0  0  0  0  0  0  0  0  0  0
  -21.5570   -3.0820   26.0180 F   0  0  0  0  0  0  0  0  0  0  0  0
  -23.1490  -12.9840   21.0930 C   0  0  0  0  0  0  0  0  0  0  0  0
  -22.3030  -12.3330   21.8840 N   0  0  0  0  0  0  0  0  0  0  0  0
  -22.7830  -13.9540   20.4300 O   0  0  0  0  0  0  0  0  0  0  0  0
  -22.6090  -11.5520   22.4440 H   0  0  0  0  0  0  0  0  0  0  0  0
  -21.3360  -12.6270   21.9310 H   0  0  0  0  0  0  0  0  0  0  0  0
  -25.8430  -14.6630   20.5780 N   0  0  0  0  0  0  0  0  0  0  0  0
  -25.0490  -15.2930   20.5330 H   0  0  0  0  0  0  0  0  0  0  0  0
  -26.6940  -15.0590   20.2080 H   0  0  0  0  0  0  0  0  0  0  0  0
  -29.8550  -20.9430   19.8780 C   0  0  0  0  0  2  0  0  0  0  0  0
  -29.5610  -22.3100   20.7210 C   0  0  0  0  0  2  0  0  0  0  0  0
  -28.5550  -23.5250   20.2970 C   0  0  0  0  0  2  0  0  0  0  0  0
  -29.0210  -24.9260   19.6320 C   0  0  0  0  0  2  0  0  0  0  0  0
  -28.8680  -26.2680   20.2900 O   0  0  0  0  0  0  0  0  0  0  0  0
  -25.0350  -31.5070   23.4820 C   0  0  0  0  0  0  0  0  0  0  0  0
  -27.7370  -27.1130   20.2190 C   0  0  0  0  0  0  0  0  0  0  0  0
  -23.8880  -30.2380   21.7000 C   0  0  0  0  0  3  0  0  0  0  0  0
  -25.3830  -28.7620   20.2260 C   0  0  0  0  0  0  0  0  0  0  0  0
  -26.4340  -30.5320   21.6410 C   0  0  0  0  0  2  0  0  0  0  0  0
  -26.5290  -29.1970   20.9020 C   0  0  0  0  0  0  0  0  0  0  0  0
  -27.7040  -28.3830   20.8890 C   0  0  0  0  0  3  0  0  0  0  0  0
  -26.5650  -26.7340   19.5290 C   0  0  0  0  0  3  0  0  0  0  0  0
  -25.4050  -27.5400   19.5320 C   0  0  0  0  0  3  0  0  0  0  0  0
  -24.1530  -29.6500   20.2860 C   0  0  0  0  0  2  0  0  0  0  0  0
  -25.1350  -30.7760   22.3330 N   0  0  0  0  0  0  0  0  0  0  0  0
  -23.9320  -31.7590   23.9910 O   0  0  0  0  0  0  0  0  0  0  0  0
  -23.1740  -29.1710   22.5640 C   0  0  0  0  0  0  0  0  0  0  0  0
  -21.8480  -29.0390   22.3930 N   0  0  0  0  0  0  0  0  0  0  0  0
  -23.8160  -28.4660   23.3470 O   0  0  0  0  0  0  0  0  0  0  0  0
  -21.3890  -29.6610   21.7420 H   0  0  0  0  0  0  0  0  0  0  0  0
  -18.4290  -27.9010   22.7300 C   0  0  0  0  0  0  0  0  0  0  0  0
  -20.9890  -28.0620   23.0640 C   0  0  0  0  0  3  0  0  0  0  0  0
  -21.0620  -26.6830   22.3680 C   0  0  0  0  0  2  0  0  0  0  0  0
  -19.9700  -26.4810   21.3120 C   0  0  0  0  0  2  0  0  0  0  0  0
  -18.5820  -26.6100   21.9440 C   0  0  0  0  0  2  0  0  0  0  0  0
  -19.5600  -28.5910   23.2430 C   0  0  0  0  0  0  0  0  0  0  0  0
  -19.3640  -29.8030   23.9380 C   0  0  0  0  0  3  0  0  0  0  0  0
  -18.0700  -30.3230   24.1290 C   0  0  0  0  0  3  0  0  0  0  0  0
  -16.9520  -29.6290   23.6300 C   0  0  0  0  0  3  0  0  0  0  0  0
  -17.1350  -28.4190   22.9360 C   0  0  0  0  0  3  0  0  0  0  0  0
  -26.2960  -32.0810   24.2020 C   0  0  0  0  0  3  0  0  0  0  0  0
  -25.9810  -33.4540   24.6240 N   0  0  0  0  0  0  0  0  0  0  0  0
  -26.3730  -34.5610   23.9770 C   0  0  0  0  0  0  0  0  0  0  0  0
  -27.1030  -34.5310   22.9830 O   0  0  0  0  0  0  0  0  0  0  0  0
  -25.3390  -33.5520   25.3960 H   0  0  0  0  0  0  0  0  0  0  0  0
  -24.6880  -36.4060   23.6750 C   0  0  0  0  0  1  0  0  0  0  0  0
  -25.8760  -35.9160   24.5190 C   0  0  0  0  0  3  0  0  0  0  0  0
  -27.9700  -36.6940   25.5410 C   0  0  0  0  0  1  0  0  0  0  0  0
  -26.9260  -36.9570   24.5530 N   0  0  0  0  0  0  0  0  0  0  0  0
  -26.5220  -37.8680   24.7540 H   0  0  0  0  0  0  0  0  0  0  0  0
  -26.7560  -31.2140   25.4370 C   0  0  1  0  0  0  0  0  0  0  0  0
  -25.6240  -30.9200   26.4470 C   0  0  0  0  0  1  0  0  0  0  0  0
  -27.3350  -29.8600   24.9730 C   0  0  0  0  0  1  0  0  0  0  0  0
  -27.8930  -31.9440   26.1920 C   0  0  0  0  0  1  0  0  0  0  0  0
  1  5  1  0
  2  1  2  0
  3  2  1  0
  3  6  1  0
  4  5  1  0
  4  8  2  0
  5 14  1  0
  6  4  1  0
  7  3  2  0
  9  2  1  0
  9 11  2  0
 10  9  1  0
 12 10  1  0
 13 10  1  0
 15 21  1  0
 15 14  1  0
 16 21  1  0
 17 18  1  0
 17 16  1  0
 19 18  1  0
 19 26  1  0
 19 20  1  0
 21 20  1  0
 22 15  2  0
 23 26  1  0
 23 24  2  0
 24 43  1  0
 24 25  1  0
 25 28  1  0
 26 27  1  0
 27 25  2  0
 28 29  1  0
 29 30  2  0
 31 34  1  0
 31 30  1  0
 32 31  2  0
 33 32  1  0
 33 28  2  0
 34 35  1  0
 35 36  1  0
 36 37  2  0
 38 37  1  0
 38 42  1  0
 39 38  2  0
 40 35  2  0
 40 39  1  0
 41 40  1  0
 43 44  1  0
 44 47  1  0
 44 46  1  0
 45 43  2  0
 48 23  1  0
 49 48  1  0
 50 48  1  0
 51  6  1  0
 51 52  1  0
 53 52  1  0
 54 55  1  0
 54 53  1  0
 56 67  2  0
 57 55  1  0
 57 62  1  0
 58 66  1  0
 58 68  1  0
 59 65  1  0
 59 61  1  0
 60 66  1  0
 61 60  1  0
 62 61  2  0
 63 64  1  0
 63 57  2  0
 64 59  2  0
 65 58  1  0
 66 56  1  0
 68 70  2  0
 69 68  1  0
 71 69  1  0
 72 81  2  0
 72 77  1  0
 73 69  1  0
 73 77  1  0
 74 73  1  0
 75 76  1  0
 75 74  1  0
 76 72  1  0
 77 78  2  0
 78 79  1  0
 80 79  2  0
 81 80  1  0
 82 56  1  0
 82 83  1  0
 82 92  1  0
 83 86  1  0
 84 88  1  0
 84 83  1  0
 85 84  2  0
 88 87  1  0
 88 90  1  0
 90 91  1  0
 90 89  1  0
 92 95  1  1
 92 93  1  0
 94 92  1  0
M  ISO  4  14 100  15 100  54 101  55 101
M  END
>  <TORSDO>  (43) 
F 22

>  <SCORE>  (43) 
-10.070

>  <name>  (43) 
42

>  <ligand_id>  (43) 
42

>  <original_smiles>  (43) 
[H]c1c([H])c([H])c2c(c1[H])C([H])([H])C([H])([H])C([H])([H])C2([H])N([H])C(=O)C1([H])N(C(=O)C([H])(N([H])C(=O)C([H])(N([H])C([H])([H])[H])C([H])([H])[H])C(C([H])([H])[H])(C([H])([H])[H])C([H])([H])[H])C([H])([H])c2c([H])c(OC([H])([H])C([H])([H])C([H])([H])C([H])([H])n3c(=O)c(C(=O)N([H])[H])c([H])n(C([H])([H])C(=O)N4C([H])([H])C([H])([H])C([H])([H])C([H])(n5nc(-c6c([H])c([H])c(Oc7c([H])c([H])c(F)c([H])c7F)c([H])c6[H])c(C(=O)N([H])[H])c5N([H])[H])C4([H])[H])c3=O)c([H])c([H])c2C1([H])[H]

>  <smiles>  (43) 
[H]c1c([H])c([H])c2c(c1[H])C([H])([H])C([H])([H])C([H])([H])C2([H])N([H])C(=O)C1([H])N(C(=O)C([H])(N([H])C(=O)C([H])(N([H])C([H])([H])[H])C([H])([H])[H])C(C([H])([H])[H])(C([H])([H])[H])C([H])([H])[H])C([H])([H])c2c([H])c(OC([H])([H])C([H])([H])C([H])([H])C([H])([H])n3c(=O)c(C(=O)N([H])[H])c([H])n(C([H])([H])C(=O)N4C([H])([H])C([H])([H])C([H])([H])C([H])(n5nc(-c6c([H])c([H])c(Oc7c([H])c([H])c(F)c([H])c7F)c([H])c6[H])c(C(=O)N([H])[H])c5N([H])[H])C4([H])[H])c3=O)c([H])c([H])c2C1([H])[H]

$$$$
43:0:0
     RDKit          3D

 93101  0  0  1  0  0  0  0  0999 V2000
  -30.8660  -19.7890   19.6180 C   0  0  0  0  0  3  0  0  0  0  0  0
  -29.1780  -19.2090   21.2190 C   0  0  0  0  0  3  0  0  0  0  0  0
  -30.2500  -17.3840   19.9070 C   0  0  0  0  0  0  0  0  0  0  0  0
  -31.0490  -18.4070   19.2970 C   0  0  0  0  0  0  0  0  0  0  0  0
  -29.9050  -20.2320   20.5600 C   0  0  0  0  0  0  0  0  0  0  0  0
  -29.3360  -17.8290   20.9000 C   0  0  0  0  0  0  0  0  0  0  0  0
  -28.5360  -16.9280   21.5210 F   0  0  0  0  0  0  0  0  0  0  0  0
  -30.1160  -15.9760   19.3220 C   0  0  0  0  0  0  0  0  0  0  0  0
  -29.3960  -15.9150   18.2820 N   0  0  0  0  0  0  0  0  0  0  0  0
  -29.0050  -16.8210   18.0550 H   0  0  0  0  0  0  0  0  0  0  0  0
  -30.9250  -14.7140   19.8240 C   0  0  0  0  0  0  0  0  0  0  0  0
  -30.5870  -12.4180   18.9470 C   0  0  0  0  0  2  0  0  0  0  0  0
  -29.5740  -12.4760   17.7820 C   0  0  0  0  0  2  0  0  0  0  0  0
  -28.1280  -12.3410   18.3080 C   0  0  0  0  0  2  0  0  0  0  0  0
  -27.8310  -13.2660   19.5160 C   0  0  0  0  0  3  0  0  0  0  0  0
  -28.9730  -13.2510   20.5580 C   0  0  0  0  0  2  0  0  0  0  0  0
  -30.2470  -13.5170   19.8690 N   0  0  0  0  0  0  0  0  0  0  0  0
  -32.1490  -14.7470   19.6740 O   0  0  0  0  0  0  0  0  0  0  0  0
  -25.5450  -13.9560   20.4390 C   0  0  0  0  0  0  0  0  0  0  0  0
  -24.4710  -13.2210   20.8530 C   0  0  0  0  0  0  0  0  0  0  0  0
  -24.8700  -11.8530   20.7520 C   0  0  0  0  0  0  0  0  0  0  0  0
  -26.5250  -13.0310   20.1060 N   0  0  0  0  0  0  0  0  0  0  0  0
  -26.1310  -11.7620   20.3590 N   0  0  0  0  0  0  0  0  0  0  0  0
  -24.1050  -10.6180   20.9480 C   0  0  0  0  0  0  0  0  0  0  0  0
  -24.5430   -9.6180   21.8420 C   0  0  0  0  0  3  0  0  0  0  0  0
  -23.7830   -8.4440   22.0280 C   0  0  0  0  0  3  0  0  0  0  0  0
  -22.5720   -8.2650   21.3180 C   0  0  0  0  0  0  0  0  0  0  0  0
  -22.1540   -9.2530   20.4100 C   0  0  0  0  0  3  0  0  0  0  0  0
  -22.9150  -10.4180   20.2220 C   0  0  0  0  0  3  0  0  0  0  0  0
  -21.7800   -7.1470   21.4160 O   0  0  0  0  0  0  0  0  0  0  0  0
  -21.7290   -6.4030   22.5680 C   0  0  0  0  0  0  0  0  0  0  0  0
  -21.3240   -6.9610   23.7990 C   0  0  0  0  0  3  0  0  0  0  0  0
  -21.2190   -6.1440   24.9420 C   0  0  0  0  0  3  0  0  0  0  0  0
  -21.5100   -4.7690   24.8540 C   0  0  0  0  0  0  0  0  0  0  0  0
  -21.9100   -4.2110   23.6260 C   0  0  0  0  0  3  0  0  0  0  0  0
  -22.0170   -5.0260   22.4870 C   0  0  0  0  0  0  0  0  0  0  0  0
  -22.3810   -4.4800   21.3020 F   0  0  0  0  0  0  0  0  0  0  0  0
  -21.4020   -3.9800   25.9480 F   0  0  0  0  0  0  0  0  0  0  0  0
  -23.1160  -13.7480   21.2280 C   0  0  0  0  0  0  0  0  0  0  0  0
  -22.4190  -13.0580   22.1230 N   0  0  0  0  0  0  0  0  0  0  0  0
  -22.6890  -14.8040   20.7630 O   0  0  0  0  0  0  0  0  0  0  0  0
  -22.7820  -12.2040   22.5180 H   0  0  0  0  0  0  0  0  0  0  0  0
  -21.5110  -13.3880   22.4170 H   0  0  0  0  0  0  0  0  0  0  0  0
  -25.7620  -15.3240   20.2900 N   0  0  0  0  0  0  0  0  0  0  0  0
  -25.0430  -16.0150   20.4740 H   0  0  0  0  0  0  0  0  0  0  0  0
  -26.6210  -15.7260   19.9340 H   0  0  0  0  0  0  0  0  0  0  0  0
  -29.3730  -22.5620   20.1700 C   0  0  0  0  0  3  0  0  0  0  0  0
  -29.7690  -21.6040   20.9490 N   0  0  0  0  0  0  0  0  0  0  0  0
  -29.3780  -24.0880   20.5550 C   0  0  0  0  0  3  0  0  0  0  0  0
  -28.2250  -25.0170   19.9950 C   0  0  0  0  0  3  0  0  0  0  0  0
  -28.3610  -26.4710   20.2250 O   0  0  0  0  0  0  0  0  0  0  0  0
  -24.5890  -31.8290   23.1890 C   0  0  0  0  0  0  0  0  0  0  0  0
  -27.2190  -27.2800   20.1590 C   0  0  0  0  0  0  0  0  0  0  0  0
  -23.3850  -30.4160   21.5590 C   0  0  0  0  0  3  0  0  0  0  0  0
  -24.8380  -28.8600   20.1420 C   0  0  0  0  0  0  0  0  0  0  0  0
  -25.9190  -30.7500   21.3620 C   0  0  0  0  0  2  0  0  0  0  0  0
  -26.0030  -29.3670   20.7310 C   0  0  0  0  0  0  0  0  0  0  0  0
  -27.1940  -28.5870   20.7320 C   0  0  0  0  0  3  0  0  0  0  0  0
  -26.0310  -26.8220   19.5440 C   0  0  0  0  0  3  0  0  0  0  0  0
  -24.8520  -27.5920   19.5400 C   0  0  0  0  0  3  0  0  0  0  0  0
  -23.5960  -29.7280   20.1840 C   0  0  0  0  0  2  0  0  0  0  0  0
  -24.6510  -31.0160   22.0940 N   0  0  0  0  0  0  0  0  0  0  0  0
  -23.5070  -32.1060   23.7260 O   0  0  0  0  0  0  0  0  0  0  0  0
  -22.7280  -29.4050   22.5280 C   0  0  0  0  0  0  0  0  0  0  0  0
  -21.4020  -29.2240   22.4040 N   0  0  0  0  0  0  0  0  0  0  0  0
  -23.4090  -28.7850   23.3490 O   0  0  0  0  0  0  0  0  0  0  0  0
  -20.9120  -29.7770   21.7150 H   0  0  0  0  0  0  0  0  0  0  0  0
  -18.0260  -28.0350   22.9190 C   0  0  0  0  0  0  0  0  0  0  0  0
  -20.5840  -28.2920   23.1820 C   0  0  0  0  0  3  0  0  0  0  0  0
  -20.6840  -26.8580   22.6130 C   0  0  0  0  0  2  0  0  0  0  0  0
  -19.5780  -26.5310   21.6030 C   0  0  0  0  0  2  0  0  0  0  0  0
  -18.1980  -26.6810   22.2510 C   0  0  0  0  0  2  0  0  0  0  0  0
  -19.1470  -28.7980   23.3420 C   0  0  0  0  0  0  0  0  0  0  0  0
  -18.9310  -30.0640   23.9280 C   0  0  0  0  0  3  0  0  0  0  0  0
  -17.6270  -30.5680   24.0940 C   0  0  0  0  0  3  0  0  0  0  0  0
  -16.5210  -29.8020   23.6870 C   0  0  0  0  0  3  0  0  0  0  0  0
  -16.7210  -28.5380   23.1050 C   0  0  0  0  0  3  0  0  0  0  0  0
  -25.8740  -32.4650   23.8050 C   0  0  0  0  0  3  0  0  0  0  0  0
  -25.5570  -33.8590   24.1480 N   0  0  0  0  0  0  0  0  0  0  0  0
  -25.8770  -34.9210   23.3950 C   0  0  0  0  0  0  0  0  0  0  0  0
  -26.5410  -34.8290   22.3570 O   0  0  0  0  0  0  0  0  0  0  0  0
  -24.9680  -34.0040   24.9540 H   0  0  0  0  0  0  0  0  0  0  0  0
  -24.1410  -36.7090   23.0580 C   0  0  0  0  0  1  0  0  0  0  0  0
  -25.3830  -36.3020   23.8650 C   0  0  0  0  0  3  0  0  0  0  0  0
  -27.5110  -37.1930   24.7090 C   0  0  0  0  0  1  0  0  0  0  0  0
  -26.4110  -37.3610   23.7630 N   0  0  0  0  0  0  0  0  0  0  0  0
  -26.0000  -38.2770   23.9130 H   0  0  0  0  0  0  0  0  0  0  0  0
  -26.4060  -31.6890   25.0720 C   0  0  1  0  0  0  0  0  0  0  0  0
  -25.3230  -31.4330   26.1450 C   0  0  0  0  0  1  0  0  0  0  0  0
  -26.9970  -30.3200   24.6610 C   0  0  0  0  0  1  0  0  0  0  0  0
  -27.5550  -32.4860   25.7320 C   0  0  0  0  0  1  0  0  0  0  0  0
  -31.6310  -18.2430   16.8140 C   0  0  0  0  0  1  0  0  0  0  0  0
  -32.1160  -18.0710   18.2580 C   0  0  0  0  0  2  0  0  0  0  0  0
  1  5  1  0
  3  6  2  0
  4  1  2  0
  4  3  1  0
  5 48  1  0
  5  2  2  0
  6  2  1  0
  6  7  1  0
  8 11  1  0
  8  3  1  0
  9  8  2  0
 10  9  1  0
 11 17  1  0
 12 17  1  0
 13 14  1  0
 13 12  1  0
 15 14  1  0
 15 22  1  0
 15 16  1  0
 17 16  1  0
 18 11  2  0
 19 20  2  0
 20 39  1  0
 21 20  1  0
 21 24  1  0
 22 23  1  0
 22 19  1  0
 23 21  2  0
 24 25  1  0
 25 26  2  0
 27 30  1  0
 27 26  1  0
 28 27  2  0
 29 28  1  0
 29 24  2  0
 30 31  1  0
 31 32  1  0
 32 33  2  0
 34 33  1  0
 34 38  1  0
 35 34  2  0
 36 31  2  0
 36 35  1  0
 37 36  1  0
 39 40  1  0
 40 43  1  0
 40 42  1  0
 41 39  2  0
 44 19  1  0
 44 45  1  0
 46 44  1  0
 47 49  1  0
 47 48  2  0
 50 51  1  0
 50 49  2  0
 52 63  2  0
 53 51  1  0
 53 58  1  0
 54 62  1  0
 54 64  1  0
 55 61  1  0
 55 57  1  0
 56 62  1  0
 57 58  2  0
 57 56  1  0
 59 53  2  0
 60 59  1  0
 60 55  2  0
 61 54  1  0
 62 52  1  0
 64 66  2  0
 65 64  1  0
 67 65  1  0
 68 77  2  0
 68 73  1  0
 69 65  1  0
 69 73  1  0
 70 69  1  0
 71 72  1  0
 71 70  1  0
 72 68  1  0
 73 74  2  0
 74 75  1  0
 76 75  2  0
 77 76  1  0
 78 52  1  0
 78 79  1  0
 78 88  1  0
 79 82  1  0
 80 84  1  0
 80 79  1  0
 81 80  2  0
 84 83  1  0
 86 84  1  0
 86 87  1  0
 86 85  1  0
 88 91  1  1
 88 89  1  0
 90 88  1  0
 92 93  1  0
 93  4  1  0
M  ISO  4   8 100  11 100  50 101  51 101
M  END
>  <TORSDO>  (44) 
F 21

>  <SCORE>  (44) 
-12.534

>  <name>  (44) 
43

>  <ligand_id>  (44) 
43

>  <original_smiles>  (44) 
[H]N=C(C(=O)N1C([H])([H])C([H])([H])C([H])([H])C([H])(n2nc(-c3c([H])c([H])c(Oc4c([H])c([H])c(F)c([H])c4F)c([H])c3[H])c(C(=O)N([H])[H])c2N([H])[H])C1([H])[H])c1c(F)c([H])c(N=C([H])C([H])([H])C([H])([H])Oc2c([H])c([H])c3c(c2[H])C([H])([H])N(C(=O)C([H])(N([H])C(=O)C([H])(N([H])C([H])([H])[H])C([H])([H])[H])C(C([H])([H])[H])(C([H])([H])[H])C([H])([H])[H])C([H])(C(=O)N([H])C2([H])c4c([H])c([H])c([H])c([H])c4C([H])([H])C([H])([H])C2([H])[H])C3([H])[H])c([H])c1C([H])([H])C([H])([H])[H]

>  <smiles>  (44) 
[H]N=C(C(=O)N1C([H])([H])C([H])([H])C([H])([H])C([H])(n2nc(-c3c([H])c([H])c(Oc4c([H])c([H])c(F)c([H])c4F)c([H])c3[H])c(C(=O)N([H])[H])c2N([H])[H])C1([H])[H])c1c(F)c([H])c(N=C([H])C([H])([H])C([H])([H])Oc2c([H])c([H])c3c(c2[H])C([H])([H])N(C(=O)C([H])(N([H])C(=O)C([H])(N([H])C([H])([H])[H])C([H])([H])[H])C(C([H])([H])[H])(C([H])([H])[H])C([H])([H])[H])C([H])(C(=O)N([H])C2([H])c4c([H])c([H])c([H])c([H])c4C([H])([H])C([H])([H])C2([H])[H])C3([H])[H])c([H])c1C([H])([H])C([H])([H])[H]

$$$$
44:0:0
     RDKit          3D

 94102  0  0  1  0  0  0  0  0999 V2000
  -30.1100  -18.3240   21.4090 C   0  0  0  0  0  3  0  0  0  0  0  0
  -28.7680  -19.1940   19.1260 C   0  0  0  0  0  0  0  0  0  0  0  0
  -29.0180  -17.7890   19.3340 C   0  0  0  0  0  0  0  0  0  0  0  0
  -29.7000  -17.3060   20.4940 C   0  0  0  0  0  0  0  0  0  0  0  0
  -29.1590  -20.2090   20.0600 C   0  0  0  0  0  0  0  0  0  0  0  0
  -29.8620  -19.7260   21.2040 C   0  0  0  0  0  0  0  0  0  0  0  0
  -28.4970  -16.7910   18.3010 C   0  0  0  0  0  1  0  0  0  0  0  0
  -30.2750  -20.6060   22.1490 F   0  0  0  0  0  0  0  0  0  0  0  0
  -30.5510  -14.8150   20.4680 C   0  0  0  0  0  0  0  0  0  0  0  0
  -30.3910  -12.5450   19.4370 C   0  0  0  0  0  2  0  0  0  0  0  0
  -29.4560  -12.6430   18.2100 C   0  0  0  0  0  2  0  0  0  0  0  0
  -27.9790  -12.4820   18.6260 C   0  0  0  0  0  2  0  0  0  0  0  0
  -27.6040  -13.3410   19.8630 C   0  0  0  0  0  3  0  0  0  0  0  0
  -28.6580  -13.2070   20.9850 C   0  0  0  0  0  2  0  0  0  0  0  0
  -29.9630  -13.5720   20.4140 N   0  0  0  0  0  0  0  0  0  0  0  0
  -31.7080  -14.9820   20.0750 O   0  0  0  0  0  0  0  0  0  0  0  0
  -29.7380  -15.8670   20.8490 N   0  0  0  0  0  0  0  0  0  0  0  0
  -28.8700  -15.5300   21.2390 H   0  0  0  0  0  0  0  0  0  0  0  0
  -25.2070  -13.9310   20.5690 C   0  0  0  0  0  0  0  0  0  0  0  0
  -24.1390  -13.1550   20.9300 C   0  0  0  0  0  0  0  0  0  0  0  0
  -24.6020  -11.8050   20.8940 C   0  0  0  0  0  0  0  0  0  0  0  0
  -26.2540  -13.0530   20.3370 N   0  0  0  0  0  0  0  0  0  0  0  0
  -25.8950  -11.7680   20.5920 N   0  0  0  0  0  0  0  0  0  0  0  0
  -23.8740  -10.5410   21.0750 C   0  0  0  0  0  0  0  0  0  0  0  0
  -24.3010   -9.5710   22.0080 C   0  0  0  0  0  3  0  0  0  0  0  0
  -23.5760   -8.3720   22.1760 C   0  0  0  0  0  3  0  0  0  0  0  0
  -22.4080   -8.1350   21.4110 C   0  0  0  0  0  0  0  0  0  0  0  0
  -22.0020   -9.0950   20.4670 C   0  0  0  0  0  3  0  0  0  0  0  0
  -22.7270  -10.2850   20.2970 C   0  0  0  0  0  3  0  0  0  0  0  0
  -21.6530   -6.9900   21.4900 O   0  0  0  0  0  0  0  0  0  0  0  0
  -21.5930   -6.2450   22.6400 C   0  0  0  0  0  0  0  0  0  0  0  0
  -21.1380   -6.7930   23.8600 C   0  0  0  0  0  3  0  0  0  0  0  0
  -21.0260   -5.9740   25.0010 C   0  0  0  0  0  3  0  0  0  0  0  0
  -21.3580   -4.6080   24.9240 C   0  0  0  0  0  0  0  0  0  0  0  0
  -21.8050   -4.0590   23.7090 C   0  0  0  0  0  3  0  0  0  0  0  0
  -21.9190   -4.8750   22.5700 C   0  0  0  0  0  0  0  0  0  0  0  0
  -22.3310   -4.3370   21.3970 F   0  0  0  0  0  0  0  0  0  0  0  0
  -21.2430   -3.8190   26.0170 F   0  0  0  0  0  0  0  0  0  0  0  0
  -22.7400  -13.6320   21.1970 C   0  0  0  0  0  0  0  0  0  0  0  0
  -22.0040  -12.9260   22.0480 N   0  0  0  0  0  0  0  0  0  0  0  0
  -22.3080  -14.6640   20.6860 O   0  0  0  0  0  0  0  0  0  0  0  0
  -22.3640  -12.0900   22.4840 H   0  0  0  0  0  0  0  0  0  0  0  0
  -21.0650  -13.2260   22.2680 H   0  0  0  0  0  0  0  0  0  0  0  0
  -25.3710  -15.3030   20.4030 N   0  0  0  0  0  0  0  0  0  0  0  0
  -24.6000  -15.9520   20.5180 H   0  0  0  0  0  0  0  0  0  0  0  0
  -26.2200  -15.7510   20.0830 H   0  0  0  0  0  0  0  0  0  0  0  0
  -28.4790  -20.0290   16.7970 C   0  0  0  0  0  2  0  0  0  0  0  0
  -27.9610  -19.5950   17.9560 C   0  0  0  0  0  3  0  0  0  0  0  0
  -28.7880  -21.5850   19.7690 N   0  0  0  0  0  0  0  0  0  0  0  0
  -28.2660  -21.6390   18.8990 H   0  0  0  0  0  0  0  0  0  0  0  0
  -29.0170  -22.9310   20.4160 C   0  0  0  0  0  2  0  0  0  0  0  0
  -28.8190  -24.1350   19.4110 C   0  0  0  0  0  3  0  0  0  0  0  0
  -28.5290  -25.4940   19.4060 C   0  0  0  0  0  3  0  0  0  0  0  0
  -28.3080  -26.4830   20.3860 O   0  0  0  0  0  0  0  0  0  0  0  0
  -24.5480  -31.9640   23.2630 C   0  0  0  0  0  0  0  0  0  0  0  0
  -27.2240  -27.3810   20.2650 C   0  0  0  0  0  0  0  0  0  0  0  0
  -23.3730  -30.5460   21.6180 C   0  0  0  0  0  3  0  0  0  0  0  0
  -24.8520  -28.9960   20.2140 C   0  0  0  0  0  0  0  0  0  0  0  0
  -25.9150  -30.8730   21.4650 C   0  0  0  0  0  2  0  0  0  0  0  0
  -26.0120  -29.4890   20.8260 C   0  0  0  0  0  0  0  0  0  0  0  0
  -27.1980  -28.6910   20.8480 C   0  0  0  0  0  3  0  0  0  0  0  0
  -26.0370  -26.9440   19.6340 C   0  0  0  0  0  3  0  0  0  0  0  0
  -24.8680  -27.7300   19.6080 C   0  0  0  0  0  3  0  0  0  0  0  0
  -23.6080  -29.8640   20.2450 C   0  0  0  0  0  2  0  0  0  0  0  0
  -24.6300  -31.1470   22.1720 N   0  0  0  0  0  0  0  0  0  0  0  0
  -23.4570  -32.2410   23.7810 O   0  0  0  0  0  0  0  0  0  0  0  0
  -22.7020  -29.5350   22.5780 C   0  0  0  0  0  0  0  0  0  0  0  0
  -21.3770  -29.3550   22.4410 N   0  0  0  0  0  0  0  0  0  0  0  0
  -23.3750  -28.9150   23.4050 O   0  0  0  0  0  0  0  0  0  0  0  0
  -20.8930  -29.9080   21.7460 H   0  0  0  0  0  0  0  0  0  0  0  0
  -17.9940  -28.1710   22.9360 C   0  0  0  0  0  0  0  0  0  0  0  0
  -20.5530  -28.4210   23.2100 C   0  0  0  0  0  3  0  0  0  0  0  0
  -20.6490  -26.9880   22.6350 C   0  0  0  0  0  2  0  0  0  0  0  0
  -19.5480  -26.6720   21.6180 C   0  0  0  0  0  2  0  0  0  0  0  0
  -18.1660  -26.8220   22.2600 C   0  0  0  0  0  2  0  0  0  0  0  0
  -19.1140  -28.9280   23.3690 C   0  0  0  0  0  0  0  0  0  0  0  0
  -18.9000  -30.1910   23.9620 C   0  0  0  0  0  3  0  0  0  0  0  0
  -17.5960  -30.6970   24.1270 C   0  0  0  0  0  3  0  0  0  0  0  0
  -16.4890  -29.9370   23.7110 C   0  0  0  0  0  3  0  0  0  0  0  0
  -16.6890  -28.6760   23.1210 C   0  0  0  0  0  3  0  0  0  0  0  0
  -25.8180  -32.6100   23.8960 C   0  0  0  0  0  3  0  0  0  0  0  0
  -26.3190  -31.8560   25.1890 C   0  0  1  0  0  0  0  0  0  0  0  0
  -25.2100  -31.6210   26.2420 C   0  0  0  0  0  1  0  0  0  0  0  0
  -26.9190  -30.4790   24.8230 C   0  0  0  0  0  1  0  0  0  0  0  0
  -27.4540  -32.6640   25.8610 C   0  0  0  0  0  1  0  0  0  0  0  0
  -25.4970  -34.0110   24.2070 N   0  0  0  0  0  0  0  0  0  0  0  0
  -25.8340  -35.0580   23.4430 C   0  0  0  0  0  0  0  0  0  0  0  0
  -26.5170  -34.9480   22.4210 O   0  0  0  0  0  0  0  0  0  0  0  0
  -24.8910  -34.1690   24.9980 H   0  0  0  0  0  0  0  0  0  0  0  0
  -24.1090  -36.8450   23.0440 C   0  0  0  0  0  1  0  0  0  0  0  0
  -25.3350  -36.4480   23.8810 C   0  0  0  0  0  3  0  0  0  0  0  0
  -27.4490  -37.3480   24.7480 C   0  0  0  0  0  1  0  0  0  0  0  0
  -26.3670  -37.5040   23.7800 N   0  0  0  0  0  0  0  0  0  0  0  0
  -25.9550  -38.4240   23.9100 H   0  0  0  0  0  0  0  0  0  0  0  0
  2  3  2  0
  2  5  1  0
  3  4  1  0
  4 17  1  0
  4  1  2  0
  5  6  2  0
  6  1  1  0
  6  8  1  0
  7  3  1  0
  9 17  1  0
 10 15  1  0
 11 12  1  0
 11 10  1  0
 13 12  1  0
 13 22  1  0
 13 14  1  0
 15  9  1  0
 15 14  1  0
 16  9  2  0
 17 18  1  0
 19 20  2  0
 20 39  1  0
 21 20  1  0
 21 24  1  0
 22 19  1  0
 22 23  1  0
 23 21  2  0
 24 25  1  0
 25 26  2  0
 27 30  1  0
 27 26  1  0
 28 27  2  0
 29 28  1  0
 29 24  2  0
 30 31  1  0
 31 32  1  0
 32 33  2  0
 34 33  1  0
 34 38  1  0
 35 34  2  0
 36 31  2  0
 36 35  1  0
 37 36  1  0
 39 40  1  0
 40 43  1  0
 40 42  1  0
 41 39  2  0
 44 45  1  0
 44 19  1  0
 46 44  1  0
 47 48  2  0
 48  2  1  0
 49  5  1  0
 49 51  1  0
 50 49  1  0
 52 51  1  0
 53 52  2  0
 53 54  1  0
 55 66  2  0
 56 54  1  0
 56 61  1  0
 57 65  1  0
 57 67  1  0
 58 64  1  0
 58 60  1  0
 59 65  1  0
 60 61  2  0
 60 59  1  0
 62 56  2  0
 63 62  1  0
 63 58  2  0
 64 57  1  0
 65 55  1  0
 67 69  2  0
 68 67  1  0
 70 68  1  0
 71 80  2  0
 71 76  1  0
 72 68  1  0
 72 76  1  0
 73 72  1  0
 74 75  1  0
 74 73  1  0
 75 71  1  0
 76 77  2  0
 77 78  1  0
 79 78  2  0
 80 79  1  0
 81 55  1  0
 81 86  1  0
 81 82  1  0
 82 85  1  1
 82 83  1  0
 84 82  1  0
 86 89  1  0
 87 91  1  0
 87 86  1  0
 88 87  2  0
 91 90  1  0
 93 91  1  0
 93 94  1  0
 93 92  1  0
M  ISO  4   9 100  17 100  53 101  54 101
M  END
>  <TORSDO>  (45) 
F 20

>  <SCORE>  (45) 
-13.762

>  <name>  (45) 
44

>  <ligand_id>  (45) 
44

>  <original_smiles>  (45) 
[H]C([H])=C([H])c1c(N([H])C([H])([H])C([H])=C([H])Oc2c([H])c([H])c3c(c2[H])C([H])([H])N(C(=O)C([H])(N([H])C(=O)C([H])(N([H])C([H])([H])[H])C([H])([H])[H])C(C([H])([H])[H])(C([H])([H])[H])C([H])([H])[H])C([H])(C(=O)N([H])C2([H])c4c([H])c([H])c([H])c([H])c4C([H])([H])C([H])([H])C2([H])[H])C3([H])[H])c(F)c([H])c(N([H])C(=O)N2C([H])([H])C([H])([H])C([H])([H])C([H])(n3nc(-c4c([H])c([H])c(Oc5c([H])c([H])c(F)c([H])c5F)c([H])c4[H])c(C(=O)N([H])[H])c3N([H])[H])C2([H])[H])c1C([H])([H])[H]

>  <smiles>  (45) 
[H]C([H])=C([H])c1c(N([H])C([H])([H])C([H])=C([H])Oc2c([H])c([H])c3c(c2[H])C([H])([H])N(C(=O)C([H])(N([H])C(=O)C([H])(N([H])C([H])([H])[H])C([H])([H])[H])C(C([H])([H])[H])(C([H])([H])[H])C([H])([H])[H])C([H])(C(=O)N([H])C2([H])c4c([H])c([H])c([H])c([H])c4C([H])([H])C([H])([H])C2([H])[H])C3([H])[H])c(F)c([H])c(N([H])C(=O)N2C([H])([H])C([H])([H])C([H])([H])C([H])(n3nc(-c4c([H])c([H])c(Oc5c([H])c([H])c(F)c([H])c5F)c([H])c4[H])c(C(=O)N([H])[H])c3N([H])[H])C2([H])[H])c1C([H])([H])[H]

$$$$
45:0:0
     RDKit          3D

 90 98  0  0  1  0  0  0  0  0999 V2000
  -30.5210  -14.9800   20.3770 C   0  0  0  0  0  0  0  0  0  0  0  0
  -30.4180  -12.6030   19.4880 C   0  0  0  0  0  2  0  0  0  0  0  0
  -29.5120  -12.5520   18.2350 C   0  0  0  0  0  2  0  0  0  0  0  0
  -28.0360  -12.3630   18.6340 C   0  0  0  0  0  2  0  0  0  0  0  0
  -27.6140  -13.3090   19.7880 C   0  0  0  0  0  3  0  0  0  0  0  0
  -28.6430  -13.3190   20.9400 C   0  0  0  0  0  2  0  0  0  0  0  0
  -29.9360  -13.7110   20.3640 N   0  0  0  0  0  0  0  0  0  0  0  0
  -31.7190  -15.0410   20.0650 O   0  0  0  0  0  0  0  0  0  0  0  0
  -28.6730  -19.7140   20.9930 C   0  0  0  0  0  3  0  0  0  0  0  0
  -29.3800  -20.5300   20.0540 C   0  0  0  0  0  0  0  0  0  0  0  0
  -30.3160  -19.6620   19.3830 C   0  0  0  0  0  0  0  0  0  0  0  0
  -29.7170  -17.6040   20.4580 C   0  0  0  0  0  0  0  0  0  0  0  0
  -28.8210  -18.3370   21.1590 N   0  0  0  0  0  0  0  0  0  0  0  0
  -30.4710  -18.2880   19.5750 N   0  0  0  0  0  0  0  0  0  0  0  0
  -29.7160  -16.1290   20.6190 N   0  0  0  0  0  0  0  0  0  0  0  0
  -28.8350  -15.8300   21.0010 H   0  0  0  0  0  0  0  0  0  0  0  0
  -25.2210  -13.9240   20.4550 C   0  0  0  0  0  0  0  0  0  0  0  0
  -24.1400  -13.1660   20.8140 C   0  0  0  0  0  0  0  0  0  0  0  0
  -24.5920  -11.8100   20.8200 C   0  0  0  0  0  0  0  0  0  0  0  0
  -26.2600  -13.0320   20.2570 N   0  0  0  0  0  0  0  0  0  0  0  0
  -25.8910  -11.7570   20.5430 N   0  0  0  0  0  0  0  0  0  0  0  0
  -23.8490  -10.5590   21.0170 C   0  0  0  0  0  0  0  0  0  0  0  0
  -24.2630   -9.5930   21.9600 C   0  0  0  0  0  3  0  0  0  0  0  0
  -23.5190   -8.4080   22.1440 C   0  0  0  0  0  3  0  0  0  0  0  0
  -22.3470   -8.1790   21.3830 C   0  0  0  0  0  0  0  0  0  0  0  0
  -21.9520   -9.1340   20.4300 C   0  0  0  0  0  3  0  0  0  0  0  0
  -22.6960  -10.3110   20.2440 C   0  0  0  0  0  3  0  0  0  0  0  0
  -21.5760   -7.0450   21.4770 O   0  0  0  0  0  0  0  0  0  0  0  0
  -21.5220   -6.3050   22.6300 C   0  0  0  0  0  0  0  0  0  0  0  0
  -21.1340   -6.8730   23.8630 C   0  0  0  0  0  3  0  0  0  0  0  0
  -21.0240   -6.0600   25.0090 C   0  0  0  0  0  3  0  0  0  0  0  0
  -21.2910   -4.6810   24.9230 C   0  0  0  0  0  0  0  0  0  0  0  0
  -21.6720   -4.1130   23.6960 C   0  0  0  0  0  3  0  0  0  0  0  0
  -21.7830   -4.9220   22.5510 C   0  0  0  0  0  0  0  0  0  0  0  0
  -22.1300   -4.3650   21.3660 F   0  0  0  0  0  0  0  0  0  0  0  0
  -21.1780   -3.8990   26.0220 F   0  0  0  0  0  0  0  0  0  0  0  0
  -22.7420  -13.6610   21.0410 C   0  0  0  0  0  0  0  0  0  0  0  0
  -21.9880  -12.9940   21.9080 N   0  0  0  0  0  0  0  0  0  0  0  0
  -22.3260  -14.6760   20.4840 O   0  0  0  0  0  0  0  0  0  0  0  0
  -22.3380  -12.1730   22.3800 H   0  0  0  0  0  0  0  0  0  0  0  0
  -21.0490  -13.3100   22.1030 H   0  0  0  0  0  0  0  0  0  0  0  0
  -25.3990  -15.2900   20.2550 N   0  0  0  0  0  0  0  0  0  0  0  0
  -24.6290  -15.9450   20.3310 H   0  0  0  0  0  0  0  0  0  0  0  0
  -26.2430  -15.7160   19.8950 H   0  0  0  0  0  0  0  0  0  0  0  0
  -29.2040  -22.1000   19.6880 C   0  0  0  0  0  3  0  0  0  0  0  0
  -28.6310  -23.3020   20.1870 C   0  0  0  0  0  3  0  0  0  0  0  0
  -28.4610  -24.7660   19.4310 C   0  0  0  0  0  2  0  0  0  0  0  0
  -28.4130  -26.1930   20.0650 O   0  0  0  0  0  0  0  0  0  0  0  0
  -24.6780  -31.8000   23.0540 C   0  0  0  0  0  0  0  0  0  0  0  0
  -27.3300  -27.1510   19.9630 C   0  0  0  0  0  0  0  0  0  0  0  0
  -23.4980  -30.3960   21.4090 C   0  0  0  0  0  3  0  0  0  0  0  0
  -24.9670  -28.8640   19.9610 C   0  0  0  0  0  0  0  0  0  0  0  0
  -26.0460  -30.7050   21.2370 C   0  0  0  0  0  2  0  0  0  0  0  0
  -26.1410  -29.3200   20.5710 C   0  0  0  0  0  0  0  0  0  0  0  0
  -27.3160  -28.4780   20.5620 C   0  0  0  0  0  3  0  0  0  0  0  0
  -26.1230  -26.8020   19.3130 C   0  0  0  0  0  3  0  0  0  0  0  0
  -24.9730  -27.6180   19.3170 C   0  0  0  0  0  3  0  0  0  0  0  0
  -23.7240  -29.7370   20.0220 C   0  0  0  0  0  2  0  0  0  0  0  0
  -24.7600  -30.9890   21.9550 N   0  0  0  0  0  0  0  0  0  0  0  0
  -23.5900  -32.0610   23.5880 O   0  0  0  0  0  0  0  0  0  0  0  0
  -22.8410  -29.3680   22.3650 C   0  0  0  0  0  0  0  0  0  0  0  0
  -21.5100  -29.2020   22.2680 N   0  0  0  0  0  0  0  0  0  0  0  0
  -23.5320  -28.7250   23.1590 O   0  0  0  0  0  0  0  0  0  0  0  0
  -21.0080  -29.7740   21.6030 H   0  0  0  0  0  0  0  0  0  0  0  0
  -18.1370  -28.0150   22.8480 C   0  0  0  0  0  0  0  0  0  0  0  0
  -20.7060  -28.2510   23.0400 C   0  0  0  0  0  3  0  0  0  0  0  0
  -20.7770  -26.8340   22.4250 C   0  0  0  0  0  2  0  0  0  0  0  0
  -19.6410  -26.5470   21.4390 C   0  0  0  0  0  2  0  0  0  0  0  0
  -18.2820  -26.6830   22.1300 C   0  0  0  0  0  2  0  0  0  0  0  0
  -19.2740  -28.7580   23.2620 C   0  0  0  0  0  0  0  0  0  0  0  0
  -19.0830  -30.0040   23.8980 C   0  0  0  0  0  3  0  0  0  0  0  0
  -17.7870  -30.5070   24.1220 C   0  0  0  0  0  3  0  0  0  0  0  0
  -16.6660  -29.7600   23.7230 C   0  0  0  0  0  3  0  0  0  0  0  0
  -16.8410  -28.5160   23.0920 C   0  0  0  0  0  3  0  0  0  0  0  0
  -25.9470  -32.4540   23.6800 C   0  0  0  0  0  3  0  0  0  0  0  0
  -25.5960  -33.8300   24.0690 N   0  0  0  0  0  0  0  0  0  0  0  0
  -25.8800  -34.9240   23.3500 C   0  0  0  0  0  0  0  0  0  0  0  0
  -26.5320  -34.8830   22.3030 O   0  0  0  0  0  0  0  0  0  0  0  0
  -25.0120  -33.9320   24.8860 H   0  0  0  0  0  0  0  0  0  0  0  0
  -24.0890  -36.6770   23.1110 C   0  0  0  0  0  1  0  0  0  0  0  0
  -25.3620  -36.2790   23.8740 C   0  0  0  0  0  3  0  0  0  0  0  0
  -27.4900  -37.2010   24.6850 C   0  0  0  0  0  1  0  0  0  0  0  0
  -26.3590  -37.3680   23.7760 N   0  0  0  0  0  0  0  0  0  0  0  0
  -25.9290  -38.2690   23.9660 H   0  0  0  0  0  0  0  0  0  0  0  0
  -26.5060  -31.6580   24.9240 C   0  0  1  0  0  0  0  0  0  0  0  0
  -25.4380  -31.3600   26.0020 C   0  0  0  0  0  1  0  0  0  0  0  0
  -27.1180  -30.3080   24.4860 C   0  0  0  0  0  1  0  0  0  0  0  0
  -27.6460  -32.4620   25.5910 C   0  0  0  0  0  1  0  0  0  0  0  0
  -32.0850  -19.4440   17.7570 C   0  0  0  0  0  1  0  0  0  0  0  0
  -31.1290  -20.2530   18.4350 O   0  0  0  0  0  0  0  0  0  0  0  0
  1 15  1  0
  2  7  1  0
  3  4  1  0
  3  2  1  0
  5  4  1  0
  5 20  1  0
  5  6  1  0
  7  1  1  0
  7  6  1  0
  8  1  2  0
  9 13  1  0
 10  9  2  0
 11 14  2  0
 11 10  1  0
 12 15  1  0
 12 13  2  0
 14 12  1  0
 15 16  1  0
 17 18  2  0
 18 19  1  0
 18 37  1  0
 19 22  1  0
 20 17  1  0
 20 21  1  0
 21 19  2  0
 22 23  1  0
 23 24  2  0
 25 28  1  0
 25 24  1  0
 26 25  2  0
 27 26  1  0
 27 22  2  0
 28 29  1  0
 29 30  1  0
 30 31  2  0
 32 31  1  0
 32 36  1  0
 33 32  2  0
 34 29  2  0
 34 33  1  0
 35 34  1  0
 37 38  1  0
 38 41  1  0
 38 40  1  0
 39 37  2  0
 42 43  1  0
 42 17  1  0
 44 42  1  0
 45 10  1  0
 45 46  2  0
 47 48  1  0
 47 46  1  0
 49 60  2  0
 50 48  1  0
 50 55  1  0
 51 59  1  0
 51 61  1  0
 52 58  1  0
 52 54  1  0
 53 59  1  0
 54 53  1  0
 55 54  2  0
 56 57  1  0
 56 50  2  0
 57 52  2  0
 58 51  1  0
 59 49  1  0
 61 63  2  0
 62 61  1  0
 64 62  1  0
 65 74  2  0
 65 70  1  0
 66 62  1  0
 66 70  1  0
 67 66  1  0
 68 69  1  0
 68 67  1  0
 69 65  1  0
 70 71  2  0
 71 72  1  0
 73 72  2  0
 74 73  1  0
 75 49  1  0
 75 76  1  0
 75 85  1  0
 76 79  1  0
 77 81  1  0
 77 76  1  0
 78 77  2  0
 81 80  1  0
 83 81  1  0
 83 84  1  0
 83 82  1  0
 85 88  1  1
 85 86  1  0
 87 85  1  0
 89 90  1  0
 90 11  1  0
M  ISO  4   1 100  15 100  47 101  48 101
M  END
>  <TORSDO>  (46) 
F 18

>  <SCORE>  (46) 
-13.835

>  <name>  (46) 
45

>  <ligand_id>  (46) 
45

>  <original_smiles>  (46) 
[H]C(=C([H])C([H])([H])Oc1c([H])c([H])c2c(c1[H])C([H])([H])N(C(=O)C([H])(N([H])C(=O)C([H])(N([H])C([H])([H])[H])C([H])([H])[H])C(C([H])([H])[H])(C([H])([H])[H])C([H])([H])[H])C([H])(C(=O)N([H])C1([H])c3c([H])c([H])c([H])c([H])c3C([H])([H])C([H])([H])C1([H])[H])C2([H])[H])c1c([H])nc(N([H])C(=O)N2C([H])([H])C([H])([H])C([H])([H])C([H])(n3nc(-c4c([H])c([H])c(Oc5c([H])c([H])c(F)c([H])c5F)c([H])c4[H])c(C(=O)N([H])[H])c3N([H])[H])C2([H])[H])nc1OC([H])([H])[H]

>  <smiles>  (46) 
[H]C(=C([H])C([H])([H])Oc1c([H])c([H])c2c(c1[H])C([H])([H])N(C(=O)C([H])(N([H])C(=O)C([H])(N([H])C([H])([H])[H])C([H])([H])[H])C(C([H])([H])[H])(C([H])([H])[H])C([H])([H])[H])C([H])(C(=O)N([H])C1([H])c3c([H])c([H])c([H])c([H])c3C([H])([H])C([H])([H])C1([H])[H])C2([H])[H])c1c([H])nc(N([H])C(=O)N2C([H])([H])C([H])([H])C([H])([H])C([H])(n3nc(-c4c([H])c([H])c(Oc5c([H])c([H])c(F)c([H])c5F)c([H])c4[H])c(C(=O)N([H])[H])c3N([H])[H])C2([H])[H])nc1OC([H])([H])[H]

$$$$
46:0:0
     RDKit          3D

 95103  0  0  1  0  0  0  0  0999 V2000
  -30.3370  -18.7730   21.3940 C   0  0  0  0  0  3  0  0  0  0  0  0
  -30.5720  -17.8650   20.3200 C   0  0  0  0  0  0  0  0  0  0  0  0
  -30.9520  -18.4890   19.0770 C   0  0  0  0  0  0  0  0  0  0  0  0
  -30.9600  -19.9280   18.9410 C   0  0  0  0  0  0  0  0  0  0  0  0
  -30.3730  -20.1920   21.2730 C   0  0  0  0  0  0  0  0  0  0  0  0
  -30.6240  -20.7900   20.0200 C   0  0  0  0  0  0  0  0  0  0  0  0
  -31.3180  -20.5840   17.6070 C   0  0  0  0  0  1  0  0  0  0  0  0
  -30.0960  -16.4090   20.5890 C   0  0  0  0  0  0  0  0  0  0  0  0
  -28.8690  -16.3800   20.9160 N   0  0  0  0  0  0  0  0  0  0  0  0
  -28.4770  -17.3120   20.9250 H   0  0  0  0  0  0  0  0  0  0  0  0
  -30.9690  -15.0610   20.4930 C   0  0  0  0  0  0  0  0  0  0  0  0
  -30.7840  -12.8050   19.4460 C   0  0  0  0  0  2  0  0  0  0  0  0
  -29.8730  -12.8510   18.1960 C   0  0  0  0  0  2  0  0  0  0  0  0
  -28.3970  -12.6310   18.5900 C   0  0  0  0  0  2  0  0  0  0  0  0
  -27.9690  -13.5480   19.7570 C   0  0  0  0  0  3  0  0  0  0  0  0
  -28.9930  -13.4810   20.9180 C   0  0  0  0  0  2  0  0  0  0  0  0
  -30.3150  -13.8480   20.3840 N   0  0  0  0  0  0  0  0  0  0  0  0
  -32.1870  -15.1040   20.3200 O   0  0  0  0  0  0  0  0  0  0  0  0
  -25.5690  -14.1850   20.4120 C   0  0  0  0  0  0  0  0  0  0  0  0
  -24.4860  -13.4200   20.7570 C   0  0  0  0  0  0  0  0  0  0  0  0
  -24.9500  -12.0690   20.7660 C   0  0  0  0  0  0  0  0  0  0  0  0
  -26.6130  -13.2920   20.2180 N   0  0  0  0  0  0  0  0  0  0  0  0
  -26.2480  -12.0180   20.5020 N   0  0  0  0  0  0  0  0  0  0  0  0
  -24.2230  -10.8120   20.9490 C   0  0  0  0  0  0  0  0  0  0  0  0
  -24.6160   -9.8690   21.9230 C   0  0  0  0  0  3  0  0  0  0  0  0
  -23.8910   -8.6690   22.0880 C   0  0  0  0  0  3  0  0  0  0  0  0
  -22.7630   -8.4060   21.2760 C   0  0  0  0  0  0  0  0  0  0  0  0
  -22.3910   -9.3390   20.2910 C   0  0  0  0  0  3  0  0  0  0  0  0
  -23.1160  -10.5290   20.1250 C   0  0  0  0  0  3  0  0  0  0  0  0
  -22.0140   -7.2560   21.3460 O   0  0  0  0  0  0  0  0  0  0  0  0
  -21.9050   -6.5430   22.5120 C   0  0  0  0  0  0  0  0  0  0  0  0
  -21.3690   -7.1140   23.6880 C   0  0  0  0  0  3  0  0  0  0  0  0
  -21.2040   -6.3240   24.8420 C   0  0  0  0  0  3  0  0  0  0  0  0
  -21.5710   -4.9650   24.8240 C   0  0  0  0  0  0  0  0  0  0  0  0
  -22.1020   -4.3940   23.6540 C   0  0  0  0  0  3  0  0  0  0  0  0
  -22.2670   -5.1820   22.5010 C   0  0  0  0  0  0  0  0  0  0  0  0
  -22.7560   -4.6200   21.3690 F   0  0  0  0  0  0  0  0  0  0  0  0
  -21.4090   -4.2040   25.9300 F   0  0  0  0  0  0  0  0  0  0  0  0
  -23.0820  -13.9020   20.9750 C   0  0  0  0  0  0  0  0  0  0  0  0
  -22.3300  -13.2190   21.8320 N   0  0  0  0  0  0  0  0  0  0  0  0
  -22.6550  -14.9170   20.4240 O   0  0  0  0  0  0  0  0  0  0  0  0
  -22.6860  -12.3960   22.2960 H   0  0  0  0  0  0  0  0  0  0  0  0
  -21.3870  -13.5230   22.0280 H   0  0  0  0  0  0  0  0  0  0  0  0
  -25.7530  -15.5480   20.2200 N   0  0  0  0  0  0  0  0  0  0  0  0
  -25.0270  -16.2490   20.3240 H   0  0  0  0  0  0  0  0  0  0  0  0
  -26.6810  -15.9350   20.0650 H   0  0  0  0  0  0  0  0  0  0  0  0
  -30.8380  -20.7780   23.5610 C   0  0  0  0  0  1  0  0  0  0  0  0
  -30.1660  -21.0450   22.3370 O   0  0  0  0  0  0  0  0  0  0  0  0
  -30.2190  -17.3890   16.8700 C   0  0  0  0  0  1  0  0  0  0  0  0
  -31.3550  -17.6600   17.8590 C   0  0  0  0  0  2  0  0  0  0  0  0
  -30.6700  -22.1850   19.8860 O   0  0  0  0  0  0  0  0  0  0  0  0
  -29.4270  -22.9350   19.8130 C   0  0  0  0  0  2  0  0  0  0  0  0
  -29.6080  -24.5020   19.9620 C   0  0  0  0  0  3  0  0  0  0  0  0
  -28.3310  -25.3890   19.6920 C   0  0  0  0  0  3  0  0  0  0  0  0
  -28.4290  -26.8240   19.9910 O   0  0  0  0  0  0  0  0  0  0  0  0
  -24.6020  -31.9500   23.2420 C   0  0  0  0  0  0  0  0  0  0  0  0
  -27.2650  -27.6010   19.9710 C   0  0  0  0  0  0  0  0  0  0  0  0
  -23.4000  -30.6110   21.5510 C   0  0  0  0  0  3  0  0  0  0  0  0
  -24.8600  -29.1410   20.0520 C   0  0  0  0  0  0  0  0  0  0  0  0
  -25.9280  -30.9810   21.3560 C   0  0  0  0  0  2  0  0  0  0  0  0
  -26.0230  -29.6350   20.6510 C   0  0  0  0  0  0  0  0  0  0  0  0
  -27.2280  -28.8770   20.6030 C   0  0  0  0  0  3  0  0  0  0  0  0
  -26.0750  -27.1470   19.3490 C   0  0  0  0  0  3  0  0  0  0  0  0
  -24.8850  -27.9000   19.3940 C   0  0  0  0  0  3  0  0  0  0  0  0
  -23.6090  -29.9940   20.1420 C   0  0  0  0  0  2  0  0  0  0  0  0
  -24.6610  -31.1930   22.1080 N   0  0  0  0  0  0  0  0  0  0  0  0
  -23.5200  -32.1890   23.7970 O   0  0  0  0  0  0  0  0  0  0  0  0
  -22.7590  -29.5440   22.4700 C   0  0  0  0  0  0  0  0  0  0  0  0
  -21.4400  -29.3290   22.3170 N   0  0  0  0  0  0  0  0  0  0  0  0
  -23.4460  -28.9120   23.2770 O   0  0  0  0  0  0  0  0  0  0  0  0
  -20.9490  -29.8860   21.6310 H   0  0  0  0  0  0  0  0  0  0  0  0
  -18.0990  -27.9910   22.6870 C   0  0  0  0  0  0  0  0  0  0  0  0
  -20.6360  -28.3450   23.0420 C   0  0  0  0  0  3  0  0  0  0  0  0
  -20.8140  -26.9310   22.4440 C   0  0  0  0  0  2  0  0  0  0  0  0
  -19.7580  -26.5850   21.3900 C   0  0  0  0  0  2  0  0  0  0  0  0
  -18.3510  -26.6630   21.9920 C   0  0  0  0  0  2  0  0  0  0  0  0
  -19.1730  -28.7880   23.1640 C   0  0  0  0  0  0  0  0  0  0  0  0
  -18.8880  -30.0290   23.7740 C   0  0  0  0  0  3  0  0  0  0  0  0
  -17.5620  -30.4800   23.9050 C   0  0  0  0  0  3  0  0  0  0  0  0
  -16.5010  -29.6800   23.4470 C   0  0  0  0  0  3  0  0  0  0  0  0
  -16.7690  -28.4350   22.8480 C   0  0  0  0  0  3  0  0  0  0  0  0
  -25.8840  -32.5680   23.8820 C   0  0  0  0  0  3  0  0  0  0  0  0
  -25.5830  -33.9690   24.2070 N   0  0  0  0  0  0  0  0  0  0  0  0
  -25.9290  -35.0180   23.4480 C   0  0  0  0  0  0  0  0  0  0  0  0
  -26.6030  -34.9080   22.4200 O   0  0  0  0  0  0  0  0  0  0  0  0
  -24.9880  -34.1290   25.0060 H   0  0  0  0  0  0  0  0  0  0  0  0
  -24.2100  -36.8190   23.0980 C   0  0  0  0  0  1  0  0  0  0  0  0
  -25.4540  -36.4130   23.9030 C   0  0  0  0  0  3  0  0  0  0  0  0
  -27.5900  -37.2950   24.7300 C   0  0  0  0  0  1  0  0  0  0  0  0
  -26.4930  -37.4580   23.7800 N   0  0  0  0  0  0  0  0  0  0  0  0
  -26.0940  -38.3820   23.9150 H   0  0  0  0  0  0  0  0  0  0  0  0
  -26.3770  -31.7890   25.1620 C   0  0  1  0  0  0  0  0  0  0  0  0
  -25.2660  -31.5590   26.2140 C   0  0  0  0  0  1  0  0  0  0  0  0
  -26.9500  -30.4060   24.7730 C   0  0  0  0  0  1  0  0  0  0  0  0
  -27.5320  -32.5660   25.8380 C   0  0  0  0  0  1  0  0  0  0  0  0
  2  8  1  0
  2  1  2  0
  3  2  1  0
  4  3  2  0
  4  6  1  0
  5  1  1  0
  5 48  1  0
  6  5  2  0
  7  4  1  0
  8  9  2  0
  9 10  1  0
 11  8  1  0
 12 17  1  0
 13 14  1  0
 13 12  1  0
 15 14  1  0
 15 22  1  0
 15 16  1  0
 17 11  1  0
 17 16  1  0
 18 11  2  0
 19 20  2  0
 20 21  1  0
 20 39  1  0
 21 24  1  0
 22 19  1  0
 22 23  1  0
 23 21  2  0
 24 25  1  0
 25 26  2  0
 27 30  1  0
 27 26  1  0
 28 27  2  0
 29 28  1  0
 29 24  2  0
 30 31  1  0
 31 32  1  0
 32 33  2  0
 34 33  1  0
 34 38  1  0
 35 34  2  0
 36 31  2  0
 36 35  1  0
 37 36  1  0
 39 40  1  0
 40 43  1  0
 40 42  1  0
 41 39  2  0
 44 45  1  0
 44 19  1  0
 46 44  1  0
 48 47  1  0
 49 50  1  0
 50  3  1  0
 51  6  1  0
 52 51  1  0
 52 53  1  0
 54 53  2  0
 54 55  1  0
 56 67  2  0
 57 55  1  0
 57 62  1  0
 58 66  1  0
 58 68  1  0
 59 65  1  0
 59 61  1  0
 60 66  1  0
 61 60  1  0
 62 61  2  0
 63 64  1  0
 63 57  2  0
 64 59  2  0
 65 58  1  0
 66 56  1  0
 68 70  2  0
 69 68  1  0
 71 69  1  0
 72 81  2  0
 72 77  1  0
 73 69  1  0
 73 77  1  0
 74 73  1  0
 75 76  1  0
 75 74  1  0
 76 72  1  0
 77 78  2  0
 78 79  1  0
 80 79  2  0
 81 80  1  0
 82 56  1  0
 82 83  1  0
 82 92  1  0
 83 86  1  0
 84 88  1  0
 84 83  1  0
 85 84  2  0
 88 87  1  0
 90 88  1  0
 90 91  1  0
 90 89  1  0
 92 95  1  1
 92 93  1  0
 94 92  1  0
M  ISO  4   8 100  11 100  54 101  55 101
M  END
>  <TORSDO>  (47) 
F 23

>  <SCORE>  (47) 
-12.060

>  <name>  (47) 
46

>  <ligand_id>  (47) 
46

>  <original_smiles>  (47) 
[H]N=C(C(=O)N1C([H])([H])C([H])([H])C([H])([H])C([H])(n2nc(-c3c([H])c([H])c(Oc4c([H])c([H])c(F)c([H])c4F)c([H])c3[H])c(C(=O)N([H])[H])c2N([H])[H])C1([H])[H])c1c([H])c(OC([H])([H])[H])c(OC([H])([H])C([H])([H])C([H])([H])Oc2c([H])c([H])c3c(c2[H])C([H])([H])N(C(=O)C([H])(N([H])C(=O)C([H])(N([H])C([H])([H])[H])C([H])([H])[H])C(C([H])([H])[H])(C([H])([H])[H])C([H])([H])[H])C([H])(C(=O)N([H])C2([H])c4c([H])c([H])c([H])c([H])c4C([H])([H])C([H])([H])C2([H])[H])C3([H])[H])c(C([H])([H])[H])c1C([H])([H])C([H])([H])[H]

>  <smiles>  (47) 
[H]N=C(C(=O)N1C([H])([H])C([H])([H])C([H])([H])C([H])(n2nc(-c3c([H])c([H])c(Oc4c([H])c([H])c(F)c([H])c4F)c([H])c3[H])c(C(=O)N([H])[H])c2N([H])[H])C1([H])[H])c1c([H])c(OC([H])([H])[H])c(OC([H])([H])C([H])([H])C([H])([H])Oc2c([H])c([H])c3c(c2[H])C([H])([H])N(C(=O)C([H])(N([H])C(=O)C([H])(N([H])C([H])([H])[H])C([H])([H])[H])C(C([H])([H])[H])(C([H])([H])[H])C([H])([H])[H])C([H])(C(=O)N([H])C2([H])c4c([H])c([H])c([H])c([H])c4C([H])([H])C([H])([H])C2([H])[H])C3([H])[H])c(C([H])([H])[H])c1C([H])([H])C([H])([H])[H]

$$$$
47:0:0
     RDKit          3D

 92100  0  0  1  0  0  0  0  0999 V2000
  -29.7440  -18.1270   17.6750 C   0  0  0  0  0  3  0  0  0  0  0  0
  -29.5060  -18.4860   20.4290 C   0  0  0  0  0  3  0  0  0  0  0  0
  -29.4830  -19.4260   18.1630 C   0  0  0  0  0  0  0  0  0  0  0  0
  -29.7670  -17.1600   19.9340 C   0  0  0  0  0  0  0  0  0  0  0  0
  -29.3850  -19.6380   19.5710 C   0  0  0  0  0  0  0  0  0  0  0  0
  -29.8820  -17.0210   18.5340 C   0  0  0  0  0  0  0  0  0  0  0  0
  -29.2270  -20.5010   17.1070 C   0  0  0  0  0  1  0  0  0  0  0  0
  -30.0480  -15.8010   17.9780 F   0  0  0  0  0  0  0  0  0  0  0  0
  -30.5770  -14.8710   20.7030 C   0  0  0  0  0  0  0  0  0  0  0  0
  -30.5020  -12.5660   19.8340 C   0  0  0  0  0  2  0  0  0  0  0  0
  -29.6560  -12.5850   18.5450 C   0  0  0  0  0  2  0  0  0  0  0  0
  -28.1390  -12.4920   18.8410 C   0  0  0  0  0  2  0  0  0  0  0  0
  -27.6790  -13.3630   20.0430 C   0  0  0  0  0  3  0  0  0  0  0  0
  -28.6660  -13.2980   21.2340 C   0  0  0  0  0  2  0  0  0  0  0  0
  -29.9950  -13.6330   20.7080 N   0  0  0  0  0  0  0  0  0  0  0  0
  -31.7810  -15.0130   20.4870 O   0  0  0  0  0  0  0  0  0  0  0  0
  -29.7390  -15.9570   20.7670 N   0  0  0  0  0  0  0  0  0  0  0  0
  -28.8110  -15.7170   21.0750 H   0  0  0  0  0  0  0  0  0  0  0  0
  -25.2320  -13.9140   20.5880 C   0  0  0  0  0  0  0  0  0  0  0  0
  -24.1580  -13.1330   20.8950 C   0  0  0  0  0  0  0  0  0  0  0  0
  -24.6450  -11.7860   20.9250 C   0  0  0  0  0  0  0  0  0  0  0  0
  -26.3080  -13.0540   20.4450 N   0  0  0  0  0  0  0  0  0  0  0  0
  -25.9550  -11.7670   20.7070 N   0  0  0  0  0  0  0  0  0  0  0  0
  -23.9290  -10.5140   21.0940 C   0  0  0  0  0  0  0  0  0  0  0  0
  -24.3170   -9.5690   22.0700 C   0  0  0  0  0  3  0  0  0  0  0  0
  -23.6010   -8.3610   22.2230 C   0  0  0  0  0  3  0  0  0  0  0  0
  -22.4760   -8.0940   21.4050 C   0  0  0  0  0  0  0  0  0  0  0  0
  -22.1060   -9.0300   20.4220 C   0  0  0  0  0  3  0  0  0  0  0  0
  -22.8260  -10.2280   20.2690 C   0  0  0  0  0  3  0  0  0  0  0  0
  -21.7360   -6.9410   21.4690 O   0  0  0  0  0  0  0  0  0  0  0  0
  -21.6310   -6.2140   22.6290 C   0  0  0  0  0  0  0  0  0  0  0  0
  -21.1110   -6.7720   23.8190 C   0  0  0  0  0  3  0  0  0  0  0  0
  -20.9610   -5.9670   24.9650 C   0  0  0  0  0  3  0  0  0  0  0  0
  -21.3190   -4.6050   24.9250 C   0  0  0  0  0  0  0  0  0  0  0  0
  -21.8280   -4.0490   23.7380 C   0  0  0  0  0  3  0  0  0  0  0  0
  -21.9810   -4.8500   22.5950 C   0  0  0  0  0  0  0  0  0  0  0  0
  -22.4540   -4.3000   21.4480 F   0  0  0  0  0  0  0  0  0  0  0  0
  -21.1690   -3.8310   26.0260 F   0  0  0  0  0  0  0  0  0  0  0  0
  -22.7370  -13.5870   21.0710 C   0  0  0  0  0  0  0  0  0  0  0  0
  -21.9570  -12.9030   21.8980 N   0  0  0  0  0  0  0  0  0  0  0  0
  -22.3200  -14.6030   20.5070 O   0  0  0  0  0  0  0  0  0  0  0  0
  -22.2780  -12.0560   22.3440 H   0  0  0  0  0  0  0  0  0  0  0  0
  -21.0210  -13.2270   22.0860 H   0  0  0  0  0  0  0  0  0  0  0  0
  -25.3790  -15.2920   20.3980 N   0  0  0  0  0  0  0  0  0  0  0  0
  -24.5920  -15.9280   20.4650 H   0  0  0  0  0  0  0  0  0  0  0  0
  -26.2320  -15.7630   20.1300 H   0  0  0  0  0  0  0  0  0  0  0  0
  -29.0040  -20.8740   20.1200 O   0  0  0  0  0  0  0  0  0  0  0  0
  -29.8120  -22.0760   19.9490 C   0  0  0  0  0  2  0  0  0  0  0  0
  -29.4990  -24.6340   19.5010 C   0  0  0  0  0  3  0  0  0  0  0  0
  -29.0140  -23.3560   19.5740 C   0  0  0  0  0  3  0  0  0  0  0  0
  -28.6340  -25.8360   19.0720 C   0  0  0  0  0  2  0  0  0  0  0  0
  -28.4220  -26.8140   20.1270 O   0  0  0  0  0  0  0  0  0  0  0  0
  -24.5600  -31.9750   23.3270 C   0  0  0  0  0  0  0  0  0  0  0  0
  -27.2380  -27.5460   20.1650 C   0  0  0  0  0  0  0  0  0  0  0  0
  -23.3710  -30.5860   21.6700 C   0  0  0  0  0  3  0  0  0  0  0  0
  -24.8330  -29.0700   20.2410 C   0  0  0  0  0  0  0  0  0  0  0  0
  -25.9070  -30.9380   21.4950 C   0  0  0  0  0  2  0  0  0  0  0  0
  -25.9980  -29.5770   20.8280 C   0  0  0  0  0  0  0  0  0  0  0  0
  -27.2020  -28.8250   20.7830 C   0  0  0  0  0  3  0  0  0  0  0  0
  -26.0260  -27.0400   19.6400 C   0  0  0  0  0  3  0  0  0  0  0  0
  -24.8430  -27.7960   19.6560 C   0  0  0  0  0  3  0  0  0  0  0  0
  -23.5980  -29.9400   20.2810 C   0  0  0  0  0  2  0  0  0  0  0  0
  -24.6320  -31.1830   22.2200 N   0  0  0  0  0  0  0  0  0  0  0  0
  -23.4740  -32.2370   23.8640 O   0  0  0  0  0  0  0  0  0  0  0  0
  -22.7220  -29.5430   22.6130 C   0  0  0  0  0  0  0  0  0  0  0  0
  -21.3980  -29.3520   22.4790 N   0  0  0  0  0  0  0  0  0  0  0  0
  -23.4040  -28.9140   23.4270 O   0  0  0  0  0  0  0  0  0  0  0  0
  -20.9050  -29.9240   21.8080 H   0  0  0  0  0  0  0  0  0  0  0  0
  -18.0270  -28.1300   22.9470 C   0  0  0  0  0  0  0  0  0  0  0  0
  -20.5820  -28.4020   23.2360 C   0  0  0  0  0  3  0  0  0  0  0  0
  -20.6930  -26.9760   22.6500 C   0  0  0  0  0  2  0  0  0  0  0  0
  -19.5980  -26.6550   21.6260 C   0  0  0  0  0  2  0  0  0  0  0  0
  -18.2130  -26.7860   22.2630 C   0  0  0  0  0  2  0  0  0  0  0  0
  -19.1390  -28.8960   23.3900 C   0  0  0  0  0  0  0  0  0  0  0  0
  -18.9070  -30.1550   23.9880 C   0  0  0  0  0  3  0  0  0  0  0  0
  -17.5990  -30.6500   24.1400 C   0  0  0  0  0  3  0  0  0  0  0  0
  -16.5020  -29.8830   23.7100 C   0  0  0  0  0  3  0  0  0  0  0  0
  -16.7180  -28.6230   23.1240 C   0  0  0  0  0  3  0  0  0  0  0  0
  -25.8380  -32.6090   23.9560 C   0  0  0  0  0  3  0  0  0  0  0  0
  -26.3280  -31.8590   25.2550 C   0  0  1  0  0  0  0  0  0  0  0  0
  -25.2200  -31.6330   26.3120 C   0  0  0  0  0  1  0  0  0  0  0  0
  -26.9080  -30.4740   24.8880 C   0  0  0  0  0  1  0  0  0  0  0  0
  -27.4680  -32.6630   25.9230 C   0  0  0  0  0  1  0  0  0  0  0  0
  -25.5310  -34.0150   24.2520 N   0  0  0  0  0  0  0  0  0  0  0  0
  -25.8900  -35.0520   23.4830 C   0  0  0  0  0  0  0  0  0  0  0  0
  -26.5850  -34.9260   22.4710 O   0  0  0  0  0  0  0  0  0  0  0  0
  -24.9150  -34.1860   25.0330 H   0  0  0  0  0  0  0  0  0  0  0  0
  -24.1880  -36.8540   23.0500 C   0  0  0  0  0  1  0  0  0  0  0  0
  -25.4020  -36.4500   23.9030 C   0  0  0  0  0  3  0  0  0  0  0  0
  -27.5190  -37.3300   24.7860 C   0  0  0  0  0  1  0  0  0  0  0  0
  -26.4460  -37.4950   23.8080 N   0  0  0  0  0  0  0  0  0  0  0  0
  -26.0430  -38.4190   23.9350 H   0  0  0  0  0  0  0  0  0  0  0  0
  1  3  2  0
  1  6  1  0
  3  5  1  0
  4  2  1  0
  4 17  1  0
  5 47  1  0
  5  2  2  0
  6  4  2  0
  7  3  1  0
  8  6  1  0
  9 15  1  0
  9 17  1  0
 10 15  1  0
 11 12  1  0
 11 10  1  0
 13 12  1  0
 13 22  1  0
 13 14  1  0
 15 14  1  0
 16  9  2  0
 17 18  1  0
 19 20  2  0
 20 21  1  0
 20 39  1  0
 21 24  1  0
 22 19  1  0
 22 23  1  0
 23 21  2  0
 24 25  1  0
 25 26  2  0
 27 30  1  0
 27 26  1  0
 28 27  2  0
 29 28  1  0
 29 24  2  0
 30 31  1  0
 31 32  1  0
 32 33  2  0
 34 33  1  0
 34 38  1  0
 35 34  2  0
 36 31  2  0
 36 35  1  0
 37 36  1  0
 39 40  1  0
 40 43  1  0
 40 42  1  0
 41 39  2  0
 44 45  1  0
 44 19  1  0
 46 44  1  0
 48 47  1  0
 49 50  2  0
 50 48  1  0
 51 49  1  0
 51 52  1  0
 52 54  1  0
 53 64  2  0
 54 59  1  0
 55 63  1  0
 55 65  1  0
 56 62  1  0
 56 58  1  0
 57 63  1  0
 58 57  1  0
 59 58  2  0
 60 61  1  0
 60 54  2  0
 61 56  2  0
 62 55  1  0
 63 53  1  0
 65 67  2  0
 66 65  1  0
 68 66  1  0
 69 78  2  0
 69 74  1  0
 70 66  1  0
 70 74  1  0
 71 70  1  0
 72 73  1  0
 72 71  1  0
 73 69  1  0
 74 75  2  0
 75 76  1  0
 77 76  2  0
 78 77  1  0
 79 53  1  0
 79 84  1  0
 79 80  1  0
 80 83  1  1
 80 81  1  0
 82 80  1  0
 84 87  1  0
 85 89  1  0
 85 84  1  0
 86 85  2  0
 89 88  1  0
 91 89  1  0
 91 92  1  0
 91 90  1  0
M  ISO  4   9 100  17 100  51 101  52 101
M  END
>  <TORSDO>  (48) 
F 20

>  <SCORE>  (48) 
-13.111

>  <name>  (48) 
47

>  <ligand_id>  (48) 
47

>  <original_smiles>  (48) 
[H]C(=C([H])C([H])([H])Oc1c([H])c(N([H])C(=O)N2C([H])([H])C([H])([H])C([H])([H])C([H])(n3nc(-c4c([H])c([H])c(Oc5c([H])c([H])c(F)c([H])c5F)c([H])c4[H])c(C(=O)N([H])[H])c3N([H])[H])C2([H])[H])c(F)c([H])c1C([H])([H])[H])C([H])([H])Oc1c([H])c([H])c2c(c1[H])C([H])([H])N(C(=O)C([H])(N([H])C(=O)C([H])(N([H])C([H])([H])[H])C([H])([H])[H])C(C([H])([H])[H])(C([H])([H])[H])C([H])([H])[H])C([H])(C(=O)N([H])C1([H])c3c([H])c([H])c([H])c([H])c3C([H])([H])C([H])([H])C1([H])[H])C2([H])[H]

>  <smiles>  (48) 
[H]C(=C([H])C([H])([H])Oc1c([H])c(N([H])C(=O)N2C([H])([H])C([H])([H])C([H])([H])C([H])(n3nc(-c4c([H])c([H])c(Oc5c([H])c([H])c(F)c([H])c5F)c([H])c4[H])c(C(=O)N([H])[H])c3N([H])[H])C2([H])[H])c(F)c([H])c1C([H])([H])[H])C([H])([H])Oc1c([H])c([H])c2c(c1[H])C([H])([H])N(C(=O)C([H])(N([H])C(=O)C([H])(N([H])C([H])([H])[H])C([H])([H])[H])C(C([H])([H])[H])(C([H])([H])[H])C([H])([H])[H])C([H])(C(=O)N([H])C1([H])c3c([H])c([H])c([H])c([H])c3C([H])([H])C([H])([H])C1([H])[H])C2([H])[H]

$$$$
48:0:0
     RDKit          3D

 94102  0  0  1  0  0  0  0  0999 V2000
  -27.2530  -19.6880   19.3800 C   0  0  0  0  0  3  0  0  0  0  0  0
  -28.0480  -18.5920   19.7670 C   0  0  0  0  0  0  0  0  0  0  0  0
  -27.5270  -21.0100   19.7620 C   0  0  0  0  0  0  0  0  0  0  0  0
  -29.2160  -18.8110   20.5620 C   0  0  0  0  0  0  0  0  0  0  0  0
  -28.7720  -21.2550   20.3900 C   0  0  0  0  0  0  0  0  0  0  0  0
  -29.5480  -20.1620   20.8220 N   0  0  0  0  0  0  0  0  0  0  0  0
  -30.8740  -15.1940   21.1390 C   0  0  0  0  0  0  0  0  0  0  0  0
  -30.8420  -12.7990   20.3630 C   0  0  0  0  0  2  0  0  0  0  0  0
  -30.0840  -12.6160   19.0310 C   0  0  0  0  0  2  0  0  0  0  0  0
  -28.5770  -12.4220   19.2870 C   0  0  0  0  0  2  0  0  0  0  0  0
  -27.9950  -13.4430   20.2970 C   0  0  0  0  0  3  0  0  0  0  0  0
  -28.8950  -13.6130   21.5390 C   0  0  0  0  0  2  0  0  0  0  0  0
  -30.2350  -13.9640   21.0550 N   0  0  0  0  0  0  0  0  0  0  0  0
  -32.1080  -15.1830   21.1880 O   0  0  0  0  0  0  0  0  0  0  0  0
  -29.9720  -17.5720   21.2470 C   0  0  0  0  0  0  0  0  0  0  0  0
  -30.5570  -16.4640   19.1580 C   0  0  0  0  0  1  0  0  0  0  0  0
  -30.2450  -16.3410   20.6010 N   0  0  0  0  0  0  0  0  0  0  0  0
  -30.2770  -17.7200   22.4370 O   0  0  0  0  0  0  0  0  0  0  0  0
  -25.5400  -14.0260   20.7970 C   0  0  0  0  0  0  0  0  0  0  0  0
  -24.4420  -13.2580   21.0320 C   0  0  0  0  0  0  0  0  0  0  0  0
  -24.9050  -11.9090   21.0360 C   0  0  0  0  0  0  0  0  0  0  0  0
  -26.6080  -13.1540   20.6510 N   0  0  0  0  0  0  0  0  0  0  0  0
  -26.2230  -11.8710   20.8700 N   0  0  0  0  0  0  0  0  0  0  0  0
  -24.1560  -10.6520   21.1300 C   0  0  0  0  0  0  0  0  0  0  0  0
  -24.4970   -9.6600   22.0740 C   0  0  0  0  0  3  0  0  0  0  0  0
  -23.7470   -8.4690   22.1600 C   0  0  0  0  0  3  0  0  0  0  0  0
  -22.6430   -8.2620   21.3000 C   0  0  0  0  0  0  0  0  0  0  0  0
  -22.3210   -9.2430   20.3480 C   0  0  0  0  0  3  0  0  0  0  0  0
  -23.0710  -10.4270   20.2590 C   0  0  0  0  0  3  0  0  0  0  0  0
  -21.8750   -7.1250   21.2940 O   0  0  0  0  0  0  0  0  0  0  0  0
  -21.7400   -6.3440   22.4120 C   0  0  0  0  0  0  0  0  0  0  0  0
  -21.2380   -6.8620   23.6260 C   0  0  0  0  0  3  0  0  0  0  0  0
  -21.0500   -6.0080   24.7310 C   0  0  0  0  0  3  0  0  0  0  0  0
  -21.3580   -4.6380   24.6230 C   0  0  0  0  0  0  0  0  0  0  0  0
  -21.8580   -4.1220   23.4150 C   0  0  0  0  0  3  0  0  0  0  0  0
  -22.0460   -4.9740   22.3120 C   0  0  0  0  0  0  0  0  0  0  0  0
  -22.5070   -4.4660   21.1430 F   0  0  0  0  0  0  0  0  0  0  0  0
  -21.1700   -3.8160   25.6820 F   0  0  0  0  0  0  0  0  0  0  0  0
  -23.0260  -13.7460   21.1370 C   0  0  0  0  0  0  0  0  0  0  0  0
  -22.1980  -13.0640   21.9210 N   0  0  0  0  0  0  0  0  0  0  0  0
  -22.6610  -14.7710   20.5590 O   0  0  0  0  0  0  0  0  0  0  0  0
  -22.5060  -12.2400   22.4160 H   0  0  0  0  0  0  0  0  0  0  0  0
  -21.2420  -13.3730   22.0280 H   0  0  0  0  0  0  0  0  0  0  0  0
  -25.6860  -15.3930   20.6590 N   0  0  0  0  0  0  0  0  0  0  0  0
  -24.8380  -15.9360   20.5340 H   0  0  0  0  0  0  0  0  0  0  0  0
  -26.4670  -15.7930   20.1580 H   0  0  0  0  0  0  0  0  0  0  0  0
  -26.8810  -16.9730   18.2320 C   0  0  0  0  0  2  0  0  0  0  0  0
  -27.5670  -17.2690   19.3520 C   0  0  0  0  0  3  0  0  0  0  0  0
  -25.1210  -21.7040   19.4980 C   0  0  0  0  0  2  0  0  0  0  0  0
  -26.4270  -22.0010   19.6480 C   0  0  0  0  0  3  0  0  0  0  0  0
  -29.1830  -22.5910   20.7210 O   0  0  0  0  0  0  0  0  0  0  0  0
  -28.8680  -23.8220   19.8930 C   0  0  0  0  0  3  0  0  0  0  0  0
  -28.3340  -25.2190   20.5690 C   0  0  0  0  0  3  0  0  0  0  0  0
  -28.3510  -26.5820   19.9010 O   0  0  0  0  0  0  0  0  0  0  0  0
  -24.7000  -31.8780   23.3500 C   0  0  0  0  0  0  0  0  0  0  0  0
  -27.2370  -27.4560   19.9950 C   0  0  0  0  0  0  0  0  0  0  0  0
  -23.4570  -30.5750   21.6620 C   0  0  0  0  0  3  0  0  0  0  0  0
  -24.8730  -29.0990   20.1200 C   0  0  0  0  0  0  0  0  0  0  0  0
  -25.9940  -30.9050   21.4260 C   0  0  0  0  0  2  0  0  0  0  0  0
  -26.0610  -29.5560   20.7050 C   0  0  0  0  0  0  0  0  0  0  0  0
  -27.2470  -28.7520   20.6200 C   0  0  0  0  0  3  0  0  0  0  0  0
  -26.0180  -27.0600   19.4050 C   0  0  0  0  0  3  0  0  0  0  0  0
  -24.8550  -27.8590   19.4600 C   0  0  0  0  0  3  0  0  0  0  0  0
  -23.6400  -29.9780   20.2410 C   0  0  0  0  0  2  0  0  0  0  0  0
  -24.7390  -31.1370   22.2040 N   0  0  0  0  0  0  0  0  0  0  0  0
  -23.6310  -32.1220   23.9280 O   0  0  0  0  0  0  0  0  0  0  0  0
  -22.8190  -29.5060   22.5830 C   0  0  0  0  0  0  0  0  0  0  0  0
  -21.4950  -29.3080   22.4570 N   0  0  0  0  0  0  0  0  0  0  0  0
  -23.5150  -28.8590   23.3700 O   0  0  0  0  0  0  0  0  0  0  0  0
  -20.9900  -29.8900   21.8050 H   0  0  0  0  0  0  0  0  0  0  0  0
  -18.1570  -27.9730   22.8740 C   0  0  0  0  0  0  0  0  0  0  0  0
  -20.7000  -28.3200   23.1890 C   0  0  0  0  0  3  0  0  0  0  0  0
  -20.8620  -26.9110   22.5730 C   0  0  0  0  0  2  0  0  0  0  0  0
  -19.7890  -26.5820   21.5280 C   0  0  0  0  0  2  0  0  0  0  0  0
  -18.3940  -26.6550   22.1570 C   0  0  0  0  0  2  0  0  0  0  0  0
  -19.2410  -28.7640   23.3430 C   0  0  0  0  0  0  0  0  0  0  0  0
  -18.9670  -29.9980   23.9710 C   0  0  0  0  0  3  0  0  0  0  0  0
  -17.6400  -30.4420   24.1360 C   0  0  0  0  0  3  0  0  0  0  0  0
  -16.5720  -29.6480   23.6860 C   0  0  0  0  0  3  0  0  0  0  0  0
  -16.8320  -28.4150   23.0600 C   0  0  0  0  0  3  0  0  0  0  0  0
  -25.9970  -32.4790   23.9780 C   0  0  0  0  0  3  0  0  0  0  0  0
  -25.6900  -33.8510   24.4130 N   0  0  0  0  0  0  0  0  0  0  0  0
  -26.0180  -34.9570   23.7340 C   0  0  0  0  0  0  0  0  0  0  0  0
  -26.6820  -34.9320   22.6920 O   0  0  0  0  0  0  0  0  0  0  0  0
  -25.0960  -33.9460   25.2250 H   0  0  0  0  0  0  0  0  0  0  0  0
  -24.2900  -36.7780   23.5370 C   0  0  0  0  0  1  0  0  0  0  0  0
  -25.5380  -36.3080   24.3020 C   0  0  0  0  0  3  0  0  0  0  0  0
  -27.6830  -37.1250   25.1770 C   0  0  0  0  0  1  0  0  0  0  0  0
  -26.5710  -37.3650   24.2600 N   0  0  0  0  0  0  0  0  0  0  0  0
  -26.1670  -38.2700   24.4870 H   0  0  0  0  0  0  0  0  0  0  0  0
  -26.5550  -31.6310   25.1870 C   0  0  1  0  0  0  0  0  0  0  0  0
  -25.4970  -31.3240   26.2730 C   0  0  0  0  0  1  0  0  0  0  0  0
  -27.1270  -30.2840   24.6900 C   0  0  0  0  0  1  0  0  0  0  0  0
  -27.7220  -32.3870   25.8670 C   0  0  0  0  0  1  0  0  0  0  0  0
  1  3  2  0
  1  2  1  0
  2  4  2  0
  3  5  1  0
  4  6  1  0
  4 15  1  0
  5 51  1  0
  5  6  2  0
  7 14  2  0
  8 13  1  0
  9 10  1  0
  9  8  1  0
 11 10  1  0
 11 22  1  0
 11 12  1  0
 13  7  1  0
 13 12  1  0
 15 18  2  0
 16 17  1  0
 17  7  1  0
 17 15  1  0
 19 20  2  0
 20 21  1  0
 20 39  1  0
 21 24  1  0
 22 19  1  0
 22 23  1  0
 23 21  2  0
 24 25  1  0
 25 26  2  0
 27 26  1  0
 28 27  2  0
 29 28  1  0
 29 24  2  0
 30 27  1  0
 30 31  1  0
 31 32  1  0
 32 33  2  0
 34 33  1  0
 34 38  1  0
 35 34  2  0
 36 31  2  0
 36 35  1  0
 37 36  1  0
 39 40  1  0
 40 43  1  0
 40 42  1  0
 41 39  2  0
 44 19  1  0
 45 44  1  0
 46 44  1  0
 47 48  2  0
 48  2  1  0
 49 50  2  0
 50  3  1  0
 52 53  2  0
 52 51  1  0
 54 56  1  0
 54 53  1  0
 55 66  2  0
 56 61  1  0
 57 65  1  0
 57 67  1  0
 58 64  1  0
 58 60  1  0
 59 65  1  0
 60 59  1  0
 61 60  2  0
 62 63  1  0
 62 56  2  0
 63 58  2  0
 64 57  1  0
 65 55  1  0
 67 69  2  0
 68 67  1  0
 70 68  1  0
 71 80  2  0
 71 76  1  0
 72 68  1  0
 72 76  1  0
 73 72  1  0
 74 75  1  0
 74 73  1  0
 75 71  1  0
 76 77  2  0
 77 78  1  0
 79 78  2  0
 80 79  1  0
 81 55  1  0
 81 82  1  0
 81 91  1  0
 82 85  1  0
 83 87  1  0
 83 82  1  0
 84 83  2  0
 87 86  1  0
 89 87  1  0
 89 90  1  0
 89 88  1  0
 91 94  1  1
 91 92  1  0
 93 91  1  0
M  ISO  4   7 100  17 100  53 101  54 101
M  END
>  <TORSDO>  (49) 
F 21

>  <SCORE>  (49) 
-10.770

>  <name>  (49) 
48

>  <ligand_id>  (49) 
48

>  <original_smiles>  (49) 
[H]C([H])=C([H])c1c(OC([H])([H])C([H])([H])Oc2c([H])c([H])c3c(c2[H])C([H])([H])N(C(=O)C([H])(N([H])C(=O)C([H])(N([H])C([H])([H])[H])C([H])([H])[H])C(C([H])([H])[H])(C([H])([H])[H])C([H])([H])[H])C([H])(C(=O)N([H])C2([H])c4c([H])c([H])c([H])c([H])c4C([H])([H])C([H])([H])C2([H])[H])C3([H])[H])nc(C(=O)N(C(=O)N2C([H])([H])C([H])([H])C([H])([H])C([H])(n3nc(-c4c([H])c([H])c(Oc5c([H])c([H])c(F)c([H])c5F)c([H])c4[H])c(C(=O)N([H])[H])c3N([H])[H])C2([H])[H])C([H])([H])[H])c(C([H])=C([H])[H])c1[H]

>  <smiles>  (49) 
[H]C([H])=C([H])c1c(OC([H])([H])C([H])([H])Oc2c([H])c([H])c3c(c2[H])C([H])([H])N(C(=O)C([H])(N([H])C(=O)C([H])(N([H])C([H])([H])[H])C([H])([H])[H])C(C([H])([H])[H])(C([H])([H])[H])C([H])([H])[H])C([H])(C(=O)N([H])C2([H])c4c([H])c([H])c([H])c([H])c4C([H])([H])C([H])([H])C2([H])[H])C3([H])[H])nc(C(=O)N(C(=O)N2C([H])([H])C([H])([H])C([H])([H])C([H])(n3nc(-c4c([H])c([H])c(Oc5c([H])c([H])c(F)c([H])c5F)c([H])c4[H])c(C(=O)N([H])[H])c3N([H])[H])C2([H])[H])C([H])([H])[H])c(C([H])=C([H])[H])c1[H]

$$$$
49:0:0
     RDKit          3D

 88 96  0  0  1  0  0  0  0  0999 V2000
  -28.5370  -19.6170   19.1670 C   0  0  0  0  0  3  0  0  0  0  0  0
  -28.7790  -18.1620   19.2630 C   0  0  0  0  0  0  0  0  0  0  0  0
  -29.0960  -20.4800   20.0980 C   0  0  0  0  0  0  0  0  0  0  0  0
  -29.5900  -17.6940   20.2950 C   0  0  0  0  0  0  0  0  0  0  0  0
  -28.1410  -17.2230   18.2810 C   0  0  0  0  0  1  0  0  0  0  0  0
  -30.0610  -19.2870   21.1260 S   0  0  0  0  0  0  0  0  0  0  0  0
  -30.5510  -15.1580   20.3930 C   0  0  0  0  0  0  0  0  0  0  0  0
  -30.5160  -12.7770   19.4800 C   0  0  0  0  0  2  0  0  0  0  0  0
  -29.6000  -12.7040   18.2340 C   0  0  0  0  0  2  0  0  0  0  0  0
  -28.1360  -12.4650   18.6450 C   0  0  0  0  0  2  0  0  0  0  0  0
  -27.6980  -13.3820   19.8160 C   0  0  0  0  0  3  0  0  0  0  0  0
  -28.7380  -13.4140   20.9570 C   0  0  0  0  0  2  0  0  0  0  0  0
  -30.0090  -13.8650   20.3730 N   0  0  0  0  0  0  0  0  0  0  0  0
  -31.7360  -15.2600   20.0530 O   0  0  0  0  0  0  0  0  0  0  0  0
  -29.7370  -16.2980   20.7040 N   0  0  0  0  0  0  0  0  0  0  0  0
  -28.8750  -15.9560   21.1020 H   0  0  0  0  0  0  0  0  0  0  0  0
  -25.3010  -13.9280   20.5220 C   0  0  0  0  0  0  0  0  0  0  0  0
  -24.2410  -13.1390   20.8770 C   0  0  0  0  0  0  0  0  0  0  0  0
  -24.7240  -11.7940   20.8530 C   0  0  0  0  0  0  0  0  0  0  0  0
  -26.3580  -13.0630   20.2950 N   0  0  0  0  0  0  0  0  0  0  0  0
  -26.0200  -11.7740   20.5600 N   0  0  0  0  0  0  0  0  0  0  0  0
  -24.0080  -10.5240   21.0350 C   0  0  0  0  0  0  0  0  0  0  0  0
  -24.4260   -9.5710   21.9890 C   0  0  0  0  0  3  0  0  0  0  0  0
  -23.7090   -8.3660   22.1590 C   0  0  0  0  0  3  0  0  0  0  0  0
  -22.5610   -8.1070   21.3740 C   0  0  0  0  0  0  0  0  0  0  0  0
  -22.1630   -9.0480   20.4090 C   0  0  0  0  0  3  0  0  0  0  0  0
  -22.8800  -10.2440   20.2380 C   0  0  0  0  0  3  0  0  0  0  0  0
  -21.8180   -6.9530   21.4520 O   0  0  0  0  0  0  0  0  0  0  0  0
  -21.7280   -6.2330   22.6150 C   0  0  0  0  0  0  0  0  0  0  0  0
  -21.2070   -6.7930   23.8010 C   0  0  0  0  0  3  0  0  0  0  0  0
  -21.0680   -5.9960   24.9550 C   0  0  0  0  0  3  0  0  0  0  0  0
  -21.4400   -4.6390   24.9230 C   0  0  0  0  0  0  0  0  0  0  0  0
  -21.9530   -4.0770   23.7410 C   0  0  0  0  0  3  0  0  0  0  0  0
  -22.0940   -4.8710   22.5900 C   0  0  0  0  0  0  0  0  0  0  0  0
  -22.5690   -4.3190   21.4470 F   0  0  0  0  0  0  0  0  0  0  0  0
  -21.2990   -3.8710   26.0290 F   0  0  0  0  0  0  0  0  0  0  0  0
  -22.8350  -13.6010   21.1270 C   0  0  0  0  0  0  0  0  0  0  0  0
  -22.1020  -12.8950   21.9780 N   0  0  0  0  0  0  0  0  0  0  0  0
  -22.3970  -14.6220   20.6010 O   0  0  0  0  0  0  0  0  0  0  0  0
  -22.4690  -12.0680   22.4250 H   0  0  0  0  0  0  0  0  0  0  0  0
  -21.1570  -13.1860   22.1890 H   0  0  0  0  0  0  0  0  0  0  0  0
  -25.4490  -15.3000   20.3500 N   0  0  0  0  0  0  0  0  0  0  0  0
  -24.6700  -15.9410   20.4600 H   0  0  0  0  0  0  0  0  0  0  0  0
  -26.2960  -15.7570   20.0440 H   0  0  0  0  0  0  0  0  0  0  0  0
  -29.1010  -22.0470   19.9470 C   0  0  0  0  0  3  0  0  0  0  0  0
  -28.4050  -23.2460   20.3270 C   0  0  0  0  0  3  0  0  0  0  0  0
  -28.4380  -24.8000   19.6950 C   0  0  0  0  0  2  0  0  0  0  0  0
  -28.2980  -26.2090   20.3910 O   0  0  0  0  0  0  0  0  0  0  0  0
  -24.6070  -31.9390   23.2550 C   0  0  0  0  0  0  0  0  0  0  0  0
  -27.2410  -27.2000   20.2460 C   0  0  0  0  0  0  0  0  0  0  0  0
  -23.4290  -30.5290   21.6120 C   0  0  0  0  0  3  0  0  0  0  0  0
  -24.8990  -28.9580   20.1930 C   0  0  0  0  0  0  0  0  0  0  0  0
  -25.9840  -30.8010   21.4670 C   0  0  0  0  0  2  0  0  0  0  0  0
  -26.0710  -29.4050   20.8150 C   0  0  0  0  0  0  0  0  0  0  0  0
  -27.2350  -28.5400   20.8290 C   0  0  0  0  0  3  0  0  0  0  0  0
  -26.0410  -26.8670   19.5790 C   0  0  0  0  0  3  0  0  0  0  0  0
  -24.9010  -27.7040   19.5600 C   0  0  0  0  0  3  0  0  0  0  0  0
  -23.6650  -29.8490   20.2350 C   0  0  0  0  0  2  0  0  0  0  0  0
  -24.6930  -31.1140   22.1650 N   0  0  0  0  0  0  0  0  0  0  0  0
  -23.5140  -32.2180   23.7750 O   0  0  0  0  0  0  0  0  0  0  0  0
  -22.7490  -29.5230   22.5740 C   0  0  0  0  0  0  0  0  0  0  0  0
  -21.4220  -29.3460   22.4430 N   0  0  0  0  0  0  0  0  0  0  0  0
  -23.4200  -28.9040   23.4040 O   0  0  0  0  0  0  0  0  0  0  0  0
  -20.9360  -29.8970   21.7490 H   0  0  0  0  0  0  0  0  0  0  0  0
  -18.0440  -28.1330   22.9450 C   0  0  0  0  0  0  0  0  0  0  0  0
  -20.6020  -28.4050   23.2130 C   0  0  0  0  0  3  0  0  0  0  0  0
  -20.7090  -26.9740   22.6370 C   0  0  0  0  0  2  0  0  0  0  0  0
  -19.6080  -26.6490   21.6210 C   0  0  0  0  0  2  0  0  0  0  0  0
  -18.2270  -26.7870   22.2650 C   0  0  0  0  0  2  0  0  0  0  0  0
  -19.1600  -28.9000   23.3760 C   0  0  0  0  0  0  0  0  0  0  0  0
  -18.9340  -30.1590   23.9740 C   0  0  0  0  0  3  0  0  0  0  0  0
  -17.6270  -30.6510   24.1450 C   0  0  0  0  0  3  0  0  0  0  0  0
  -16.5260  -29.8830   23.7280 C   0  0  0  0  0  3  0  0  0  0  0  0
  -16.7350  -28.6250   23.1350 C   0  0  0  0  0  3  0  0  0  0  0  0
  -25.8750  -32.5890   23.8890 C   0  0  0  0  0  3  0  0  0  0  0  0
  -25.5570  -33.9940   24.1920 N   0  0  0  0  0  0  0  0  0  0  0  0
  -25.9030  -35.0400   23.4280 C   0  0  0  0  0  0  0  0  0  0  0  0
  -26.5890  -34.9220   22.4100 O   0  0  0  0  0  0  0  0  0  0  0  0
  -24.9490  -34.1580   24.9800 H   0  0  0  0  0  0  0  0  0  0  0  0
  -24.1930  -36.8420   23.0190 C   0  0  0  0  0  1  0  0  0  0  0  0
  -25.4130  -36.4360   23.8630 C   0  0  0  0  0  3  0  0  0  0  0  0
  -27.5270  -37.3250   24.7410 C   0  0  0  0  0  1  0  0  0  0  0  0
  -26.4530  -37.4830   23.7650 N   0  0  0  0  0  0  0  0  0  0  0  0
  -26.0470  -38.4060   23.8860 H   0  0  0  0  0  0  0  0  0  0  0  0
  -26.3640  -31.8460   25.1930 C   0  0  1  0  0  0  0  0  0  0  0  0
  -25.2500  -31.6330   26.2450 C   0  0  0  0  0  1  0  0  0  0  0  0
  -26.9560  -30.4600   24.8500 C   0  0  0  0  0  1  0  0  0  0  0  0
  -27.5020  -32.6560   25.8620 C   0  0  0  0  0  1  0  0  0  0  0  0
  1  2  1  0
  1  3  2  0
  2  4  2  0
  3  6  1  0
  4 15  1  0
  4  6  1  0
  5  2  1  0
  7 15  1  0
  8 13  1  0
  9 10  1  0
  9  8  1  0
 11 10  1  0
 11 20  1  0
 11 12  1  0
 13  7  1  0
 13 12  1  0
 14  7  2  0
 15 16  1  0
 17 18  2  0
 18 37  1  0
 19 18  1  0
 19 22  1  0
 20 17  1  0
 20 21  1  0
 21 19  2  0
 22 23  1  0
 23 24  2  0
 25 28  1  0
 25 24  1  0
 26 25  2  0
 27 26  1  0
 27 22  2  0
 28 29  1  0
 29 30  1  0
 30 31  2  0
 32 31  1  0
 32 36  1  0
 33 32  2  0
 34 29  2  0
 34 33  1  0
 35 34  1  0
 37 38  1  0
 38 41  1  0
 38 40  1  0
 39 37  2  0
 42 43  1  0
 42 17  1  0
 44 42  1  0
 45  3  1  0
 45 46  2  0
 47 46  1  0
 47 48  1  0
 49 60  2  0
 50 48  1  0
 50 55  1  0
 51 59  1  0
 51 61  1  0
 52 58  1  0
 52 54  1  0
 53 59  1  0
 54 55  2  0
 54 53  1  0
 56 50  2  0
 57 56  1  0
 57 52  2  0
 58 51  1  0
 59 49  1  0
 61 63  2  0
 62 61  1  0
 64 62  1  0
 65 74  2  0
 65 70  1  0
 66 62  1  0
 66 70  1  0
 67 66  1  0
 68 69  1  0
 68 67  1  0
 69 65  1  0
 70 71  2  0
 71 72  1  0
 73 72  2  0
 74 73  1  0
 75 49  1  0
 75 76  1  0
 75 85  1  0
 76 79  1  0
 77 81  1  0
 77 76  1  0
 78 77  2  0
 81 80  1  0
 83 81  1  0
 83 84  1  0
 83 82  1  0
 85 88  1  1
 85 86  1  0
 87 85  1  0
M  ISO  4   7 100  15 100  47 101  48 101
M  END
>  <TORSDO>  (50) 
F 18

>  <SCORE>  (50) 
-14.390

>  <name>  (50) 
49

>  <ligand_id>  (50) 
49

>  <original_smiles>  (50) 
[H]C(=C([H])C([H])([H])Oc1c([H])c([H])c2c(c1[H])C([H])([H])N(C(=O)C([H])(N([H])C(=O)C([H])(N([H])C([H])([H])[H])C([H])([H])[H])C(C([H])([H])[H])(C([H])([H])[H])C([H])([H])[H])C([H])(C(=O)N([H])C1([H])c3c([H])c([H])c([H])c([H])c3C([H])([H])C([H])([H])C1([H])[H])C2([H])[H])c1sc(N([H])C(=O)N2C([H])([H])C([H])([H])C([H])([H])C([H])(n3nc(-c4c([H])c([H])c(Oc5c([H])c([H])c(F)c([H])c5F)c([H])c4[H])c(C(=O)N([H])[H])c3N([H])[H])C2([H])[H])c(C([H])([H])[H])c1[H]

>  <smiles>  (50) 
[H]C(=C([H])C([H])([H])Oc1c([H])c([H])c2c(c1[H])C([H])([H])N(C(=O)C([H])(N([H])C(=O)C([H])(N([H])C([H])([H])[H])C([H])([H])[H])C(C([H])([H])[H])(C([H])([H])[H])C([H])([H])[H])C([H])(C(=O)N([H])C1([H])c3c([H])c([H])c([H])c([H])c3C([H])([H])C([H])([H])C1([H])[H])C2([H])[H])c1sc(N([H])C(=O)N2C([H])([H])C([H])([H])C([H])([H])C([H])(n3nc(-c4c([H])c([H])c(Oc5c([H])c([H])c(F)c([H])c5F)c([H])c4[H])c(C(=O)N([H])[H])c3N([H])[H])C2([H])[H])c(C([H])([H])[H])c1[H]

$$$$
50:0:0
     RDKit          3D

 94102  0  0  1  0  0  0  0  0999 V2000
  -31.1990  -19.9770   22.7890 C   0  0  0  0  0  3  0  0  0  0  0  0
  -31.0590  -19.4290   20.1200 C   0  0  0  0  0  3  0  0  0  0  0  0
  -31.1740  -18.6220   22.3880 C   0  0  0  0  0  0  0  0  0  0  0  0
  -31.1200  -18.3220   20.9990 C   0  0  0  0  0  0  0  0  0  0  0  0
  -31.1590  -20.9960   21.8240 C   0  0  0  0  0  0  0  0  0  0  0  0
  -31.0850  -20.7230   20.5090 N   0  0  0  0  0  0  0  0  0  0  0  0
  -31.2050  -22.3380   22.2250 N   0  0  0  0  0  0  0  0  0  0  0  0
  -31.2730  -22.5470   23.2180 H   0  0  0  0  0  0  0  0  0  0  0  0
  -30.3580  -16.6410   23.6370 C   0  0  0  0  0  2  0  0  0  0  0  0
  -31.2650  -17.6090   23.4460 C   0  0  0  0  0  3  0  0  0  0  0  0
  -31.2180  -16.9750   20.3570 C   0  0  0  0  0  2  0  0  0  0  0  0
  -31.2420  -15.8080   20.8930 N   0  0  0  0  0  2  0  0  0  0  0  0
  -31.7190  -14.8050   20.0520 C   0  0  0  0  0  0  0  0  0  0  0  0
  -31.2100  -12.7090   18.8490 C   0  0  0  0  0  2  0  0  0  0  0  0
  -30.2420  -12.9880   17.6840 C   0  0  0  0  0  2  0  0  0  0  0  0
  -28.7860  -12.8750   18.1750 C   0  0  0  0  0  2  0  0  0  0  0  0
  -28.5310  -13.6990   19.4650 C   0  0  0  0  0  3  0  0  0  0  0  0
  -29.6280  -13.4580   20.5280 C   0  0  0  0  0  2  0  0  0  0  0  0
  -30.9360  -13.7000   19.9040 N   0  0  0  0  0  0  0  0  0  0  0  0
  -32.7630  -14.9230   19.4020 O   0  0  0  0  0  0  0  0  0  0  0  0
  -26.1870  -14.3530   20.2990 C   0  0  0  0  0  0  0  0  0  0  0  0
  -25.1130  -13.6040   20.6970 C   0  0  0  0  0  0  0  0  0  0  0  0
  -25.5320  -12.2400   20.6080 C   0  0  0  0  0  0  0  0  0  0  0  0
  -27.1940  -13.4500   19.9980 N   0  0  0  0  0  0  0  0  0  0  0  0
  -26.8040  -12.1710   20.2370 N   0  0  0  0  0  0  0  0  0  0  0  0
  -24.7750  -10.9950   20.7980 C   0  0  0  0  0  0  0  0  0  0  0  0
  -25.1290  -10.0620   21.7990 C   0  0  0  0  0  3  0  0  0  0  0  0
  -24.3780   -8.8800   21.9760 C   0  0  0  0  0  3  0  0  0  0  0  0
  -23.2550   -8.6240   21.1550 C   0  0  0  0  0  0  0  0  0  0  0  0
  -22.9190   -9.5430   20.1450 C   0  0  0  0  0  3  0  0  0  0  0  0
  -23.6710  -10.7160   19.9660 C   0  0  0  0  0  3  0  0  0  0  0  0
  -22.4800   -7.4930   21.2400 O   0  0  0  0  0  0  0  0  0  0  0  0
  -22.1820   -6.9130   22.4470 C   0  0  0  0  0  0  0  0  0  0  0  0
  -21.5020   -7.6170   23.4640 C   0  0  0  0  0  3  0  0  0  0  0  0
  -21.1550   -6.9590   24.6620 C   0  0  0  0  0  3  0  0  0  0  0  0
  -21.4790   -5.6010   24.8390 C   0  0  0  0  0  0  0  0  0  0  0  0
  -22.1500   -4.8990   23.8230 C   0  0  0  0  0  3  0  0  0  0  0  0
  -22.4990   -5.5530   22.6290 C   0  0  0  0  0  0  0  0  0  0  0  0
  -23.1300   -4.8670   21.6460 F   0  0  0  0  0  0  0  0  0  0  0  0
  -21.1370   -4.9670   25.9850 F   0  0  0  0  0  0  0  0  0  0  0  0
  -23.7460  -14.1120   21.0490 C   0  0  0  0  0  0  0  0  0  0  0  0
  -23.0500  -13.4250   21.9480 N   0  0  0  0  0  0  0  0  0  0  0  0
  -23.3090  -15.1550   20.5630 O   0  0  0  0  0  0  0  0  0  0  0  0
  -23.4150  -12.5790   22.3620 H   0  0  0  0  0  0  0  0  0  0  0  0
  -22.1340  -13.7440   22.2250 H   0  0  0  0  0  0  0  0  0  0  0  0
  -26.3830  -15.7220   20.1460 N   0  0  0  0  0  0  0  0  0  0  0  0
  -25.6430  -16.3940   20.3030 H   0  0  0  0  0  0  0  0  0  0  0  0
  -27.2400  -16.1460   19.8120 H   0  0  0  0  0  0  0  0  0  0  0  0
  -31.3800  -23.4540   21.2900 C   0  0  0  0  0  2  0  0  0  0  0  0
  -30.0680  -24.1320   20.9120 C   0  0  0  0  0  3  0  0  0  0  0  0
  -29.8100  -24.8450   19.7930 C   0  0  0  0  0  0  0  0  0  0  0  0
  -30.8390  -25.1050   18.6970 C   0  0  0  0  0  1  0  0  0  0  0  0
  -28.4340  -25.4610   19.5570 C   0  0  0  0  0  2  0  0  0  0  0  0
  -28.4720  -26.8940   19.5760 O   0  0  0  0  0  0  0  0  0  0  0  0
  -24.6120  -31.6890   23.1320 C   0  0  0  0  0  0  0  0  0  0  0  0
  -27.2620  -27.5550   19.6560 C   0  0  0  0  0  0  0  0  0  0  0  0
  -23.3690  -30.3260   21.4820 C   0  0  0  0  0  3  0  0  0  0  0  0
  -24.8020  -28.9410   19.8880 C   0  0  0  0  0  0  0  0  0  0  0  0
  -25.8560  -30.8170   21.1560 C   0  0  0  0  0  2  0  0  0  0  0  0
  -25.9670  -29.4870   20.4400 C   0  0  0  0  0  0  0  0  0  0  0  0
  -27.1980  -28.8020   20.3210 C   0  0  0  0  0  3  0  0  0  0  0  0
  -26.0750  -27.0250   19.1000 C   0  0  0  0  0  3  0  0  0  0  0  0
  -24.8500  -27.7070   19.2160 C   0  0  0  0  0  3  0  0  0  0  0  0
  -23.5240  -29.7340   20.0540 C   0  0  0  0  0  2  0  0  0  0  0  0
  -24.6330  -30.9570   21.9830 N   0  0  0  0  0  0  0  0  0  0  0  0
  -23.5550  -31.8810   23.7490 O   0  0  0  0  0  0  0  0  0  0  0  0
  -22.8210  -29.2230   22.4160 C   0  0  0  0  0  0  0  0  0  0  0  0
  -21.5200  -28.9170   22.2810 N   0  0  0  0  0  0  0  0  0  0  0  0
  -23.5610  -28.6510   23.2200 O   0  0  0  0  0  0  0  0  0  0  0  0
  -20.9760  -29.4370   21.6060 H   0  0  0  0  0  0  0  0  0  0  0  0
  -18.3030  -27.3230   22.6640 C   0  0  0  0  0  0  0  0  0  0  0  0
  -20.8000  -27.8860   23.0270 C   0  0  0  0  0  3  0  0  0  0  0  0
  -21.0950  -26.4780   22.4560 C   0  0  0  0  0  2  0  0  0  0  0  0
  -20.0770  -26.0270   21.4040 C   0  0  0  0  0  2  0  0  0  0  0  0
  -18.6660  -26.0070   21.9990 C   0  0  0  0  0  2  0  0  0  0  0  0
  -19.3060  -28.2130   23.1330 C   0  0  0  0  0  0  0  0  0  0  0  0
  -18.9170  -29.4420   23.7100 C   0  0  0  0  0  3  0  0  0  0  0  0
  -17.5560  -29.7840   23.8240 C   0  0  0  0  0  3  0  0  0  0  0  0
  -16.5670  -28.8910   23.3760 C   0  0  0  0  0  3  0  0  0  0  0  0
  -16.9420  -27.6620   22.8040 C   0  0  0  0  0  3  0  0  0  0  0  0
  -25.9060  -32.3420   23.7100 C   0  0  0  0  0  3  0  0  0  0  0  0
  -25.5780  -33.7230   24.0850 N   0  0  0  0  0  0  0  0  0  0  0  0
  -25.8850  -34.8040   23.3550 C   0  0  0  0  0  0  0  0  0  0  0  0
  -26.5490  -34.7470   22.3160 O   0  0  0  0  0  0  0  0  0  0  0  0
  -25.0010  -33.8440   24.9040 H   0  0  0  0  0  0  0  0  0  0  0  0
  -24.1240  -36.5710   23.0580 C   0  0  0  0  0  1  0  0  0  0  0  0
  -25.3730  -36.1670   23.8570 C   0  0  0  0  0  3  0  0  0  0  0  0
  -27.4860  -37.0630   24.7230 C   0  0  0  0  0  1  0  0  0  0  0  0
  -26.3860  -37.2430   23.7790 N   0  0  0  0  0  0  0  0  0  0  0  0
  -25.9600  -38.1470   23.9590 H   0  0  0  0  0  0  0  0  0  0  0  0
  -26.5040  -31.5580   24.9400 C   0  0  1  0  0  0  0  0  0  0  0  0
  -25.4620  -31.2330   26.0360 C   0  0  0  0  0  1  0  0  0  0  0  0
  -27.1300  -30.2250   24.4740 C   0  0  0  0  0  1  0  0  0  0  0  0
  -27.6450  -32.3790   25.5900 C   0  0  0  0  0  1  0  0  0  0  0  0
  2  6  2  0
  2  4  1  0
  3  1  1  0
  3 10  1  0
  4  3  2  0
  5  7  1  0
  5  1  2  0
  6  5  1  0
  7  8  1  0
 10  9  2  0
 11 12  1  0
 11  4  1  0
 13 12  1  0
 14 19  1  0
 15 16  1  0
 15 14  1  0
 17 16  1  0
 17 24  1  0
 17 18  1  0
 19 13  1  0
 19 18  1  0
 20 13  2  0
 21 22  2  0
 22 41  1  0
 23 22  1  0
 23 26  1  0
 24 25  1  0
 24 21  1  0
 25 23  2  0
 26 27  1  0
 27 28  2  0
 29 32  1  0
 29 28  1  0
 30 29  2  0
 31 30  1  0
 31 26  2  0
 32 33  1  0
 33 38  2  0
 33 34  1  0
 34 35  2  0
 35 36  1  0
 36 40  1  0
 37 36  2  0
 38 37  1  0
 39 38  1  0
 41 42  1  0
 42 45  1  0
 42 44  1  0
 43 41  2  0
 46 21  1  0
 46 47  1  0
 48 46  1  0
 49  7  1  0
 50 49  1  0
 51 50  2  0
 52 51  1  0
 53 54  1  0
 53 51  1  0
 54 56  1  0
 55 66  2  0
 56 61  1  0
 57 65  1  0
 57 67  1  0
 58 64  1  0
 58 60  1  0
 59 65  1  0
 60 59  1  0
 61 60  2  0
 62 63  1  0
 62 56  2  0
 63 58  2  0
 64 57  1  0
 65 55  1  0
 67 69  2  0
 68 67  1  0
 70 68  1  0
 71 80  2  0
 71 76  1  0
 72 68  1  0
 72 76  1  0
 73 72  1  0
 74 75  1  0
 74 73  1  0
 75 71  1  0
 76 77  2  0
 77 78  1  0
 79 78  2  0
 80 79  1  0
 81 55  1  0
 81 82  1  0
 81 91  1  0
 82 85  1  0
 83 87  1  0
 83 82  1  0
 84 83  2  0
 87 86  1  0
 89 87  1  0
 89 90  1  0
 89 88  1  0
 91 94  1  1
 91 92  1  0
 93 91  1  0
M  ISO  4  12 100  13 100  53 101  54 101
M  END
>  <TORSDO>  (51) 
F 21

>  <SCORE>  (51) 
-8.974

>  <name>  (51) 
50

>  <ligand_id>  (51) 
50

>  <original_smiles>  (51) 
[H]C(=NC(=O)N1C([H])([H])C([H])([H])C([H])([H])C([H])(n2nc(-c3c([H])c([H])c(Oc4c([H])c([H])c(F)c([H])c4F)c([H])c3[H])c(C(=O)N([H])[H])c2N([H])[H])C1([H])[H])c1c([H])nc(N([H])C([H])([H])C([H])=C(C([H])([H])[H])C([H])([H])Oc2c([H])c([H])c3c(c2[H])C([H])([H])N(C(=O)C([H])(N([H])C(=O)C([H])(N([H])C([H])([H])[H])C([H])([H])[H])C(C([H])([H])[H])(C([H])([H])[H])C([H])([H])[H])C([H])(C(=O)N([H])C2([H])c4c([H])c([H])c([H])c([H])c4C([H])([H])C([H])([H])C2([H])[H])C3([H])[H])c([H])c1C([H])=C([H])[H]

>  <smiles>  (51) 
[H]C(=NC(=O)N1C([H])([H])C([H])([H])C([H])([H])C([H])(n2nc(-c3c([H])c([H])c(Oc4c([H])c([H])c(F)c([H])c4F)c([H])c3[H])c(C(=O)N([H])[H])c2N([H])[H])C1([H])[H])c1c([H])nc(N([H])C([H])([H])C([H])=C(C([H])([H])[H])C([H])([H])Oc2c([H])c([H])c3c(c2[H])C([H])([H])N(C(=O)C([H])(N([H])C(=O)C([H])(N([H])C([H])([H])[H])C([H])([H])[H])C(C([H])([H])[H])(C([H])([H])[H])C([H])([H])[H])C([H])(C(=O)N([H])C2([H])c4c([H])c([H])c([H])c([H])c4C([H])([H])C([H])([H])C2([H])[H])C3([H])[H])c([H])c1C([H])=C([H])[H]

$$$$
51:0:0
     RDKit          3D

 93101  0  0  1  0  0  0  0  0999 V2000
  -28.9040  -18.2430   20.1100 C   0  0  0  0  0  3  0  0  0  0  0  0
  -30.8590  -18.2310   21.4830 C   0  0  0  0  0  3  0  0  0  0  0  0
  -29.9550  -17.4640   20.6980 C   0  0  0  0  0  0  0  0  0  0  0  0
  -29.7360  -20.4350   20.9450 C   0  0  0  0  0  0  0  0  0  0  0  0
  -28.7950  -19.6660   20.2090 C   0  0  0  0  0  0  0  0  0  0  0  0
  -30.7490  -19.6590   21.5970 C   0  0  0  0  0  0  0  0  0  0  0  0
  -27.7700  -20.2820   19.5700 F   0  0  0  0  0  0  0  0  0  0  0  0
  -31.6740  -20.3180   22.3410 F   0  0  0  0  0  0  0  0  0  0  0  0
  -30.7780  -14.9620   20.9350 C   0  0  0  0  0  0  0  0  0  0  0  0
  -30.6900  -12.5900   20.1570 C   0  0  0  0  0  2  0  0  0  0  0  0
  -29.8860  -12.4670   18.8430 C   0  0  0  0  0  2  0  0  0  0  0  0
  -28.3700  -12.3810   19.1230 C   0  0  0  0  0  2  0  0  0  0  0  0
  -27.8610  -13.3730   20.2070 C   0  0  0  0  0  3  0  0  0  0  0  0
  -28.8040  -13.4380   21.4250 C   0  0  0  0  0  2  0  0  0  0  0  0
  -30.1480  -13.7350   20.9160 N   0  0  0  0  0  0  0  0  0  0  0  0
  -32.0110  -15.0040   20.9870 O   0  0  0  0  0  0  0  0  0  0  0  0
  -30.1050  -16.0250   20.3150 N   0  0  0  0  0  0  0  0  0  0  0  0
  -25.4250  -14.0020   20.7060 C   0  0  0  0  0  0  0  0  0  0  0  0
  -24.3200  -13.2430   20.9820 C   0  0  0  0  0  0  0  0  0  0  0  0
  -24.7710  -11.8890   21.0230 C   0  0  0  0  0  0  0  0  0  0  0  0
  -26.4770  -13.1080   20.5880 N   0  0  0  0  0  0  0  0  0  0  0  0
  -26.0850  -11.8350   20.8480 N   0  0  0  0  0  0  0  0  0  0  0  0
  -24.0170  -10.6360   21.1600 C   0  0  0  0  0  0  0  0  0  0  0  0
  -24.3620   -9.6660   22.1270 C   0  0  0  0  0  3  0  0  0  0  0  0
  -23.6110   -8.4780   22.2510 C   0  0  0  0  0  3  0  0  0  0  0  0
  -22.4990   -8.2500   21.4050 C   0  0  0  0  0  0  0  0  0  0  0  0
  -22.1740   -9.2070   20.4270 C   0  0  0  0  0  3  0  0  0  0  0  0
  -22.9260  -10.3870   20.3020 C   0  0  0  0  0  3  0  0  0  0  0  0
  -21.7270   -7.1130   21.4370 O   0  0  0  0  0  0  0  0  0  0  0  0
  -21.5920   -6.3670   22.5800 C   0  0  0  0  0  0  0  0  0  0  0  0
  -21.0310   -6.9060   23.7580 C   0  0  0  0  0  3  0  0  0  0  0  0
  -20.8460   -6.0850   24.8890 C   0  0  0  0  0  3  0  0  0  0  0  0
  -21.2140   -4.7270   24.8420 C   0  0  0  0  0  0  0  0  0  0  0  0
  -21.7690   -4.1880   23.6670 C   0  0  0  0  0  3  0  0  0  0  0  0
  -21.9550   -5.0060   22.5390 C   0  0  0  0  0  0  0  0  0  0  0  0
  -22.4700   -4.4770   21.4030 F   0  0  0  0  0  0  0  0  0  0  0  0
  -21.0300   -3.9360   25.9250 F   0  0  0  0  0  0  0  0  0  0  0  0
  -22.9070  -13.7360   21.1010 C   0  0  0  0  0  0  0  0  0  0  0  0
  -22.0920  -13.0720   21.9140 N   0  0  0  0  0  0  0  0  0  0  0  0
  -22.5320  -14.7480   20.5100 O   0  0  0  0  0  0  0  0  0  0  0  0
  -22.4050  -12.2550   22.4170 H   0  0  0  0  0  0  0  0  0  0  0  0
  -21.1410  -13.3890   22.0360 H   0  0  0  0  0  0  0  0  0  0  0  0
  -25.6210  -15.3670   20.5200 N   0  0  0  0  0  0  0  0  0  0  0  0
  -24.8580  -16.0340   20.5380 H   0  0  0  0  0  0  0  0  0  0  0  0
  -26.5130  -15.7890   20.2950 H   0  0  0  0  0  0  0  0  0  0  0  0
  -30.8970  -16.6070   18.0740 C   0  0  0  0  0  2  0  0  0  0  0  0
  -30.1010  -15.9100   18.9100 C   0  0  0  0  0  3  0  0  0  0  0  0
  -29.7350  -21.8800   21.1060 N   0  0  0  0  0  0  0  0  0  0  0  0
  -30.5570  -22.1990   21.6120 H   0  0  0  0  0  0  0  0  0  0  0  0
  -28.9970  -22.9780   20.3720 C   0  0  0  0  0  2  0  0  0  0  0  0
  -28.4410  -24.1380   21.2730 C   0  0  0  0  0  3  0  0  0  0  0  0
  -28.1550  -25.4940   21.1840 C   0  0  0  0  0  3  0  0  0  0  0  0
  -28.2570  -26.4940   20.1940 O   0  0  0  0  0  0  0  0  0  0  0  0
  -24.5610  -31.9480   23.2210 C   0  0  0  0  0  0  0  0  0  0  0  0
  -27.1880  -27.4050   20.1520 C   0  0  0  0  0  0  0  0  0  0  0  0
  -23.3550  -30.5350   21.5930 C   0  0  0  0  0  3  0  0  0  0  0  0
  -24.8110  -28.9960   20.1520 C   0  0  0  0  0  0  0  0  0  0  0  0
  -25.8890  -30.8780   21.3840 C   0  0  0  0  0  2  0  0  0  0  0  0
  -25.9810  -29.4980   20.7390 C   0  0  0  0  0  0  0  0  0  0  0  0
  -27.1770  -28.7130   20.7320 C   0  0  0  0  0  3  0  0  0  0  0  0
  -26.0000  -26.9580   19.5400 C   0  0  0  0  0  3  0  0  0  0  0  0
  -24.8220  -27.7320   19.5410 C   0  0  0  0  0  3  0  0  0  0  0  0
  -23.5620  -29.8560   20.2140 C   0  0  0  0  0  2  0  0  0  0  0  0
  -24.6200  -31.1380   22.1230 N   0  0  0  0  0  0  0  0  0  0  0  0
  -23.4800  -32.2170   23.7650 O   0  0  0  0  0  0  0  0  0  0  0  0
  -22.7100  -29.5160   22.5630 C   0  0  0  0  0  0  0  0  0  0  0  0
  -21.3920  -29.2940   22.4200 N   0  0  0  0  0  0  0  0  0  0  0  0
  -23.3960  -28.9270   23.4030 O   0  0  0  0  0  0  0  0  0  0  0  0
  -20.8970  -29.8210   21.7140 H   0  0  0  0  0  0  0  0  0  0  0  0
  -18.0460  -28.0090   22.9080 C   0  0  0  0  0  0  0  0  0  0  0  0
  -20.5930  -28.3440   23.1960 C   0  0  0  0  0  3  0  0  0  0  0  0
  -20.7400  -26.9080   22.6430 C   0  0  0  0  0  2  0  0  0  0  0  0
  -19.6560  -26.5420   21.6230 C   0  0  0  0  0  2  0  0  0  0  0  0
  -18.2650  -26.6570   22.2510 C   0  0  0  0  0  2  0  0  0  0  0  0
  -19.1380  -28.8080   23.3370 C   0  0  0  0  0  0  0  0  0  0  0  0
  -18.8770  -30.0720   23.9110 C   0  0  0  0  0  3  0  0  0  0  0  0
  -17.5570  -30.5380   24.0590 C   0  0  0  0  0  3  0  0  0  0  0  0
  -16.4790  -29.7370   23.6430 C   0  0  0  0  0  3  0  0  0  0  0  0
  -16.7240  -28.4730   23.0760 C   0  0  0  0  0  3  0  0  0  0  0  0
  -25.8440  -32.5940   23.8290 C   0  0  0  0  0  3  0  0  0  0  0  0
  -26.3950  -31.8150   25.0870 C   0  0  1  0  0  0  0  0  0  0  0  0
  -25.3160  -31.5200   26.1560 C   0  0  0  0  0  1  0  0  0  0  0  0
  -27.0200  -30.4640   24.6660 C   0  0  0  0  0  1  0  0  0  0  0  0
  -27.5250  -32.6330   25.7550 C   0  0  0  0  0  1  0  0  0  0  0  0
  -25.5170  -33.9830   24.1830 N   0  0  0  0  0  0  0  0  0  0  0  0
  -25.8250  -35.0520   23.4370 C   0  0  0  0  0  0  0  0  0  0  0  0
  -26.4830  -34.9740   22.3960 O   0  0  0  0  0  0  0  0  0  0  0  0
  -24.9320  -34.1160   24.9940 H   0  0  0  0  0  0  0  0  0  0  0  0
  -24.0810  -36.8360   23.1110 C   0  0  0  0  0  1  0  0  0  0  0  0
  -25.3230  -36.4250   23.9190 C   0  0  0  0  0  3  0  0  0  0  0  0
  -27.4400  -37.3220   24.7850 C   0  0  0  0  0  1  0  0  0  0  0  0
  -26.3470  -37.4900   23.8310 N   0  0  0  0  0  0  0  0  0  0  0  0
  -25.9300  -38.4050   23.9840 H   0  0  0  0  0  0  0  0  0  0  0  0
  1  5  2  0
  1  3  1  0
  2  6  1  0
  3  2  2  0
  4 48  1  0
  4  6  2  0
  5  4  1  0
  6  8  1  0
  7  5  1  0
  9 16  2  0
 10 15  1  0
 11 12  1  0
 11 10  1  0
 13 12  1  0
 13 21  1  0
 13 14  1  0
 15  9  1  0
 15 14  1  0
 17  3  1  0
 17  9  1  0
 18 19  2  0
 19 20  1  0
 19 38  1  0
 20 23  1  0
 21 18  1  0
 21 22  1  0
 22 20  2  0
 23 24  1  0
 24 25  2  0
 26 29  1  0
 26 25  1  0
 27 26  2  0
 28 27  1  0
 28 23  2  0
 29 30  1  0
 30 31  1  0
 31 32  2  0
 33 32  1  0
 33 37  1  0
 34 33  2  0
 35 30  2  0
 35 34  1  0
 36 35  1  0
 38 39  1  0
 39 42  1  0
 39 41  1  0
 40 38  2  0
 43 44  1  0
 43 18  1  0
 45 43  1  0
 46 47  2  0
 47 17  1  0
 48 49  1  0
 50 48  1  0
 50 51  1  0
 52 51  2  0
 53 52  1  0
 54 65  2  0
 55 53  1  0
 55 60  1  0
 56 64  1  0
 56 66  1  0
 57 63  1  0
 57 59  1  0
 58 64  1  0
 59 58  1  0
 60 59  2  0
 61 62  1  0
 61 55  2  0
 62 57  2  0
 63 56  1  0
 64 54  1  0
 66 68  2  0
 67 66  1  0
 69 67  1  0
 70 79  2  0
 70 75  1  0
 71 67  1  0
 71 75  1  0
 72 71  1  0
 73 74  1  0
 73 72  1  0
 74 70  1  0
 75 76  2  0
 76 77  1  0
 78 77  2  0
 79 78  1  0
 80 54  1  0
 80 85  1  0
 80 81  1  0
 81 84  1  1
 81 82  1  0
 83 81  1  0
 85 88  1  0
 86 90  1  0
 86 85  1  0
 87 86  2  0
 90 89  1  0
 92 90  1  0
 92 93  1  0
 92 91  1  0
M  ISO  4   9 100  17 100  52 101  53 101
M  END
>  <TORSDO>  (52) 
F 20

>  <SCORE>  (52) 
-13.704

>  <name>  (52) 
51

>  <ligand_id>  (52) 
51

>  <original_smiles>  (52) 
[H]C([H])=C([H])N(C(=O)N1C([H])([H])C([H])([H])C([H])([H])C([H])(n2nc(-c3c([H])c([H])c(Oc4c([H])c([H])c(F)c([H])c4F)c([H])c3[H])c(C(=O)N([H])[H])c2N([H])[H])C1([H])[H])c1c([H])c(F)c(N([H])C([H])([H])C([H])=C([H])Oc2c([H])c([H])c3c(c2[H])C([H])([H])N(C(=O)C([H])(N([H])C(=O)C([H])(N([H])C([H])([H])[H])C([H])([H])[H])C(C([H])([H])[H])(C([H])([H])[H])C([H])([H])[H])C([H])(C(=O)N([H])C2([H])c4c([H])c([H])c([H])c([H])c4C([H])([H])C([H])([H])C2([H])[H])C3([H])[H])c(F)c1[H]

>  <smiles>  (52) 
[H]C([H])=C([H])N(C(=O)N1C([H])([H])C([H])([H])C([H])([H])C([H])(n2nc(-c3c([H])c([H])c(Oc4c([H])c([H])c(F)c([H])c4F)c([H])c3[H])c(C(=O)N([H])[H])c2N([H])[H])C1([H])[H])c1c([H])c(F)c(N([H])C([H])([H])C([H])=C([H])Oc2c([H])c([H])c3c(c2[H])C([H])([H])N(C(=O)C([H])(N([H])C(=O)C([H])(N([H])C([H])([H])[H])C([H])([H])[H])C(C([H])([H])[H])(C([H])([H])[H])C([H])([H])[H])C([H])(C(=O)N([H])C2([H])c4c([H])c([H])c([H])c([H])c4C([H])([H])C([H])([H])C2([H])[H])C3([H])[H])c(F)c1[H]

$$$$
52:0:0
     RDKit          3D

 89 97  0  0  1  0  0  0  0  0999 V2000
  -28.9650  -22.2800   20.2300 C   0  0  0  0  0  3  0  0  0  0  0  0
  -29.8280  -21.2850   20.1230 N   0  0  0  0  0  0  0  0  0  0  0  0
  -28.3220  -19.2330   20.2950 C   0  0  0  0  0  3  0  0  0  0  0  0
  -28.4090  -17.7950   20.3810 C   0  0  0  0  0  0  0  0  0  0  0  0
  -29.5290  -19.8870   20.1800 C   0  0  0  0  0  0  0  0  0  0  0  0
  -29.6500  -17.2010   20.3290 C   0  0  0  0  0  0  0  0  0  0  0  0
  -27.3200  -17.0740   20.5100 F   0  0  0  0  0  0  0  0  0  0  0  0
  -30.7900  -18.5780   20.1590 S   0  0  0  0  0  0  0  0  0  0  0  0
  -30.6360  -14.8040   19.9730 C   0  0  0  0  0  0  0  0  0  0  0  0
  -30.4550  -12.5290   18.9380 C   0  0  0  0  0  2  0  0  0  0  0  0
  -29.4270  -12.5990   17.7810 C   0  0  0  0  0  2  0  0  0  0  0  0
  -27.9870  -12.4120   18.3010 C   0  0  0  0  0  2  0  0  0  0  0  0
  -27.6870  -13.2840   19.5490 C   0  0  0  0  0  3  0  0  0  0  0  0
  -28.8150  -13.1520   20.5980 C   0  0  0  0  0  2  0  0  0  0  0  0
  -30.0770  -13.5440   19.9440 N   0  0  0  0  0  0  0  0  0  0  0  0
  -31.7630  -15.0060   19.5090 O   0  0  0  0  0  0  0  0  0  0  0  0
  -29.7960  -15.8050   20.4200 N   0  0  0  0  0  0  0  0  0  0  0  0
  -28.9700  -15.3890   20.8210 H   0  0  0  0  0  0  0  0  0  0  0  0
  -25.3510  -13.8720   20.4450 C   0  0  0  0  0  0  0  0  0  0  0  0
  -24.3050  -13.0940   20.8560 C   0  0  0  0  0  0  0  0  0  0  0  0
  -24.7510  -11.7430   20.7480 C   0  0  0  0  0  0  0  0  0  0  0  0
  -26.3720  -12.9930   20.1150 N   0  0  0  0  0  0  0  0  0  0  0  0
  -26.0190  -11.7050   20.3540 N   0  0  0  0  0  0  0  0  0  0  0  0
  -24.0260  -10.4810   20.9410 C   0  0  0  0  0  0  0  0  0  0  0  0
  -24.4620   -9.5130   21.8710 C   0  0  0  0  0  3  0  0  0  0  0  0
  -23.7360   -8.3150   22.0510 C   0  0  0  0  0  3  0  0  0  0  0  0
  -22.5610   -8.0790   21.3010 C   0  0  0  0  0  0  0  0  0  0  0  0
  -22.1430   -9.0360   20.3600 C   0  0  0  0  0  3  0  0  0  0  0  0
  -22.8690  -10.2250   20.1780 C   0  0  0  0  0  3  0  0  0  0  0  0
  -21.8050   -6.9340   21.3900 O   0  0  0  0  0  0  0  0  0  0  0  0
  -21.6950   -6.2370   22.5660 C   0  0  0  0  0  0  0  0  0  0  0  0
  -21.1750   -6.8290   23.7370 C   0  0  0  0  0  3  0  0  0  0  0  0
  -21.0130   -6.0570   24.9050 C   0  0  0  0  0  3  0  0  0  0  0  0
  -21.3600   -4.6930   24.9010 C   0  0  0  0  0  0  0  0  0  0  0  0
  -21.8720   -4.1000   23.7340 C   0  0  0  0  0  3  0  0  0  0  0  0
  -22.0360   -4.8700   22.5690 C   0  0  0  0  0  0  0  0  0  0  0  0
  -22.5110   -4.2880   21.4420 F   0  0  0  0  0  0  0  0  0  0  0  0
  -21.1980   -3.9480   26.0190 F   0  0  0  0  0  0  0  0  0  0  0  0
  -22.9350  -13.5740   21.2410 C   0  0  0  0  0  0  0  0  0  0  0  0
  -22.2630  -12.8580   22.1360 N   0  0  0  0  0  0  0  0  0  0  0  0
  -22.4690  -14.6190   20.7850 O   0  0  0  0  0  0  0  0  0  0  0  0
  -22.6540  -12.0140   22.5280 H   0  0  0  0  0  0  0  0  0  0  0  0
  -21.3490  -13.1620   22.4370 H   0  0  0  0  0  0  0  0  0  0  0  0
  -25.5100  -15.2460   20.3080 N   0  0  0  0  0  0  0  0  0  0  0  0
  -24.7650  -15.8930   20.5420 H   0  0  0  0  0  0  0  0  0  0  0  0
  -26.3790  -15.7170   20.0910 H   0  0  0  0  0  0  0  0  0  0  0  0
  -29.2900  -23.8520   20.2900 C   0  0  0  0  0  3  0  0  0  0  0  0
  -28.1230  -24.9520   20.0670 C   0  0  0  0  0  3  0  0  0  0  0  0
  -28.3570  -26.4350   20.2240 O   0  0  0  0  0  0  0  0  0  0  0  0
  -24.6310  -31.8820   23.2750 C   0  0  0  0  0  0  0  0  0  0  0  0
  -27.2520  -27.3220   20.1770 C   0  0  0  0  0  0  0  0  0  0  0  0
  -23.4380  -30.5100   21.6070 C   0  0  0  0  0  3  0  0  0  0  0  0
  -24.8960  -28.9730   20.1700 C   0  0  0  0  0  0  0  0  0  0  0  0
  -25.9840  -30.8140   21.4510 C   0  0  0  0  0  2  0  0  0  0  0  0
  -26.0660  -29.4420   20.7810 C   0  0  0  0  0  0  0  0  0  0  0  0
  -27.2470  -28.6310   20.7710 C   0  0  0  0  0  3  0  0  0  0  0  0
  -26.0540  -26.9210   19.5420 C   0  0  0  0  0  3  0  0  0  0  0  0
  -24.8950  -27.7210   19.5400 C   0  0  0  0  0  3  0  0  0  0  0  0
  -23.6620  -29.8540   20.2200 C   0  0  0  0  0  2  0  0  0  0  0  0
  -24.7040  -31.0860   22.1680 N   0  0  0  0  0  0  0  0  0  0  0  0
  -23.5430  -32.1560   23.8030 O   0  0  0  0  0  0  0  0  0  0  0  0
  -22.7620  -29.4840   22.5470 C   0  0  0  0  0  0  0  0  0  0  0  0
  -21.4370  -29.3090   22.4040 N   0  0  0  0  0  0  0  0  0  0  0  0
  -23.4310  -28.8470   23.3660 O   0  0  0  0  0  0  0  0  0  0  0  0
  -20.9570  -29.8740   21.7180 H   0  0  0  0  0  0  0  0  0  0  0  0
  -18.0490  -28.1290   22.8810 C   0  0  0  0  0  0  0  0  0  0  0  0
  -20.6100  -28.3620   23.1550 C   0  0  0  0  0  3  0  0  0  0  0  0
  -20.6990  -26.9420   22.5490 C   0  0  0  0  0  2  0  0  0  0  0  0
  -19.5950  -26.6490   21.5290 C   0  0  0  0  0  2  0  0  0  0  0  0
  -18.2140  -26.7910   22.1760 C   0  0  0  0  0  2  0  0  0  0  0  0
  -19.1740  -28.8720   23.3260 C   0  0  0  0  0  0  0  0  0  0  0  0
  -18.9650  -30.1230   23.9460 C   0  0  0  0  0  3  0  0  0  0  0  0
  -17.6640  -30.6310   24.1240 C   0  0  0  0  0  3  0  0  0  0  0  0
  -16.5540  -29.8840   23.6930 C   0  0  0  0  0  3  0  0  0  0  0  0
  -16.7470  -28.6340   23.0780 C   0  0  0  0  0  3  0  0  0  0  0  0
  -25.9090  -32.5040   23.9180 C   0  0  0  0  0  3  0  0  0  0  0  0
  -26.3970  -31.7270   25.2030 C   0  0  1  0  0  0  0  0  0  0  0  0
  -25.2830  -31.4940   26.2500 C   0  0  0  0  0  1  0  0  0  0  0  0
  -26.9810  -30.3470   24.8210 C   0  0  0  0  0  1  0  0  0  0  0  0
  -27.5400  -32.5150   25.8860 C   0  0  0  0  0  1  0  0  0  0  0  0
  -25.6030  -33.9040   24.2470 N   0  0  0  0  0  0  0  0  0  0  0  0
  -25.9240  -34.9540   23.4800 C   0  0  0  0  0  0  0  0  0  0  0  0
  -26.5760  -34.8460   22.4380 O   0  0  0  0  0  0  0  0  0  0  0  0
  -25.0200  -34.0610   25.0550 H   0  0  0  0  0  0  0  0  0  0  0  0
  -24.1750  -36.7380   23.1690 C   0  0  0  0  0  1  0  0  0  0  0  0
  -25.4460  -36.3450   23.9400 C   0  0  0  0  0  3  0  0  0  0  0  0
  -27.5980  -37.2570   24.6950 C   0  0  0  0  0  1  0  0  0  0  0  0
  -26.4690  -37.4020   23.7790 N   0  0  0  0  0  0  0  0  0  0  0  0
  -26.0630  -38.3240   23.9210 H   0  0  0  0  0  0  0  0  0  0  0  0
  1 47  1  0
  2  5  1  0
  2  1  2  0
  3  4  1  0
  4  7  1  0
  5  3  2  0
  6  4  2  0
  6 17  1  0
  8  5  1  0
  8  6  1  0
  9 17  1  0
 10 15  1  0
 11 12  1  0
 11 10  1  0
 13 12  1  0
 13 22  1  0
 13 14  1  0
 15  9  1  0
 15 14  1  0
 16  9  2  0
 17 18  1  0
 19 20  2  0
 20 39  1  0
 21 20  1  0
 21 24  1  0
 22 23  1  0
 22 19  1  0
 23 21  2  0
 24 25  1  0
 25 26  2  0
 27 30  1  0
 27 26  1  0
 28 27  2  0
 29 28  1  0
 29 24  2  0
 30 31  1  0
 31 36  2  0
 31 32  1  0
 32 33  2  0
 34 33  1  0
 34 38  1  0
 35 34  2  0
 36 35  1  0
 37 36  1  0
 39 40  1  0
 40 43  1  0
 40 42  1  0
 41 39  2  0
 44 19  1  0
 44 45  1  0
 46 44  1  0
 48 49  1  0
 48 47  2  0
 50 61  2  0
 51 49  1  0
 51 56  1  0
 52 60  1  0
 52 62  1  0
 53 59  1  0
 53 55  1  0
 54 60  1  0
 55 54  1  0
 56 55  2  0
 57 51  2  0
 58 57  1  0
 58 53  2  0
 59 52  1  0
 60 50  1  0
 62 64  2  0
 63 62  1  0
 65 63  1  0
 66 75  2  0
 66 71  1  0
 67 63  1  0
 67 71  1  0
 68 67  1  0
 69 70  1  0
 69 68  1  0
 70 66  1  0
 71 72  2  0
 72 73  1  0
 74 73  2  0
 75 74  1  0
 76 50  1  0
 76 81  1  0
 76 77  1  0
 77 80  1  1
 77 78  1  0
 79 77  1  0
 81 84  1  0
 82 86  1  0
 82 81  1  0
 83 82  2  0
 86 85  1  0
 88 89  1  0
 88 86  1  0
 88 87  1  0
M  ISO  4   9 100  17 100  48 101  49 101
M  END
>  <TORSDO>  (53) 
F 19

>  <SCORE>  (53) 
-14.218

>  <name>  (53) 
52

>  <ligand_id>  (53) 
52

>  <original_smiles>  (53) 
[H]C(=Nc1sc(N([H])C(=O)N2C([H])([H])C([H])([H])C([H])([H])C([H])(n3nc(-c4c([H])c([H])c(Oc5c([H])c([H])c(F)c([H])c5F)c([H])c4[H])c(C(=O)N([H])[H])c3N([H])[H])C2([H])[H])c(F)c1[H])C([H])([H])C([H])([H])Oc1c([H])c([H])c2c(c1[H])C([H])([H])N(C(=O)C([H])(N([H])C(=O)C([H])(N([H])C([H])([H])[H])C([H])([H])[H])C(C([H])([H])[H])(C([H])([H])[H])C([H])([H])[H])C([H])(C(=O)N([H])C1([H])c3c([H])c([H])c([H])c([H])c3C([H])([H])C([H])([H])C1([H])[H])C2([H])[H]

>  <smiles>  (53) 
[H]C(=Nc1sc(N([H])C(=O)N2C([H])([H])C([H])([H])C([H])([H])C([H])(n3nc(-c4c([H])c([H])c(Oc5c([H])c([H])c(F)c([H])c5F)c([H])c4[H])c(C(=O)N([H])[H])c3N([H])[H])C2([H])[H])c(F)c1[H])C([H])([H])C([H])([H])Oc1c([H])c([H])c2c(c1[H])C([H])([H])N(C(=O)C([H])(N([H])C(=O)C([H])(N([H])C([H])([H])[H])C([H])([H])[H])C(C([H])([H])[H])(C([H])([H])[H])C([H])([H])[H])C([H])(C(=O)N([H])C1([H])c3c([H])c([H])c([H])c([H])c3C([H])([H])C([H])([H])C1([H])[H])C2([H])[H]

$$$$
53:0:0
     RDKit          3D

 96104  0  0  1  0  0  0  0  0999 V2000
  -30.2400  -18.4890   20.4840 C   0  0  0  0  0  3  0  0  0  0  0  0
  -31.3050  -18.4680   23.0490 C   0  0  0  0  0  3  0  0  0  0  0  0
  -30.3470  -17.2390   21.1620 C   0  0  0  0  0  0  0  0  0  0  0  0
  -30.9030  -17.2410   22.4710 C   0  0  0  0  0  0  0  0  0  0  0  0
  -30.5910  -19.7220   21.0740 C   0  0  0  0  0  0  0  0  0  0  0  0
  -31.1370  -19.6970   22.3800 C   0  0  0  0  0  0  0  0  0  0  0  0
  -31.5050  -20.8390   23.0080 F   0  0  0  0  0  0  0  0  0  0  0  0
  -31.0310  -16.0850   23.2570 N   0  0  0  0  0  0  0  0  0  0  0  0
  -31.2490  -16.1810   24.2450 H   0  0  0  0  0  0  0  0  0  0  0  0
  -30.4780  -15.2590   23.0690 H   0  0  0  0  0  0  0  0  0  0  0  0
  -29.7000  -16.0510   20.4990 C   0  0  0  0  0  3  0  0  0  0  0  0
  -28.5190  -16.2080   20.0660 N   0  0  0  0  0  2  0  0  0  0  0  0
  -28.2530  -15.3720   19.5650 H   0  0  0  0  0  0  0  0  0  0  0  0
  -30.5240  -14.7590   20.2410 C   0  0  0  0  0  0  0  0  0  0  0  0
  -30.2290  -12.5570   19.1460 C   0  0  0  0  0  2  0  0  0  0  0  0
  -29.2370  -12.6630   17.9690 C   0  0  0  0  0  2  0  0  0  0  0  0
  -27.7960  -12.4190   18.4590 C   0  0  0  0  0  2  0  0  0  0  0  0
  -27.4470  -13.2950   19.6820 C   0  0  0  0  0  3  0  0  0  0  0  0
  -28.5530  -13.2240   20.7670 C   0  0  0  0  0  2  0  0  0  0  0  0
  -29.8450  -13.5670   20.1460 N   0  0  0  0  0  0  0  0  0  0  0  0
  -31.6930  -14.8730   19.8610 O   0  0  0  0  0  0  0  0  0  0  0  0
  -25.0990  -13.8860   20.5450 C   0  0  0  0  0  0  0  0  0  0  0  0
  -24.0490  -13.0980   20.9310 C   0  0  0  0  0  0  0  0  0  0  0  0
  -24.5190  -11.7530   20.8380 C   0  0  0  0  0  0  0  0  0  0  0  0
  -26.1300  -13.0110   20.2310 N   0  0  0  0  0  0  0  0  0  0  0  0
  -25.7920  -11.7250   20.4750 N   0  0  0  0  0  0  0  0  0  0  0  0
  -23.8170  -10.4810   21.0150 C   0  0  0  0  0  0  0  0  0  0  0  0
  -24.2870   -9.5000   21.9150 C   0  0  0  0  0  3  0  0  0  0  0  0
  -23.5860   -8.2880   22.0800 C   0  0  0  0  0  3  0  0  0  0  0  0
  -22.4010   -8.0500   21.3420 C   0  0  0  0  0  0  0  0  0  0  0  0
  -21.9540   -9.0190   20.4250 C   0  0  0  0  0  3  0  0  0  0  0  0
  -22.6560  -10.2240   20.2610 C   0  0  0  0  0  3  0  0  0  0  0  0
  -21.6650   -6.8920   21.4210 O   0  0  0  0  0  0  0  0  0  0  0  0
  -21.6380   -6.1310   22.5610 C   0  0  0  0  0  0  0  0  0  0  0  0
  -21.1970   -6.6540   23.7980 C   0  0  0  0  0  3  0  0  0  0  0  0
  -21.1210   -5.8170   24.9270 C   0  0  0  0  0  3  0  0  0  0  0  0
  -21.4740   -4.4570   24.8230 C   0  0  0  0  0  0  0  0  0  0  0  0
  -21.9050   -3.9350   23.5910 C   0  0  0  0  0  3  0  0  0  0  0  0
  -21.9860   -4.7710   22.4630 C   0  0  0  0  0  0  0  0  0  0  0  0
  -22.3810   -4.2580   21.2730 F   0  0  0  0  0  0  0  0  0  0  0  0
  -21.3950   -3.6490   25.9040 F   0  0  0  0  0  0  0  0  0  0  0  0
  -22.6620  -13.5520   21.2710 C   0  0  0  0  0  0  0  0  0  0  0  0
  -21.9750  -12.8180   22.1370 N   0  0  0  0  0  0  0  0  0  0  0  0
  -22.1950  -14.5930   20.8080 O   0  0  0  0  0  0  0  0  0  0  0  0
  -22.3630  -11.9700   22.5250 H   0  0  0  0  0  0  0  0  0  0  0  0
  -21.0430  -13.0990   22.4080 H   0  0  0  0  0  0  0  0  0  0  0  0
  -25.2580  -15.2640   20.4150 N   0  0  0  0  0  0  0  0  0  0  0  0
  -24.5120  -15.9200   20.6170 H   0  0  0  0  0  0  0  0  0  0  0  0
  -26.1390  -15.7270   20.2090 H   0  0  0  0  0  0  0  0  0  0  0  0
  -30.3590  -20.8650   20.3200 O   0  0  0  0  0  0  0  0  0  0  0  0
  -30.2430  -22.1550   20.9510 C   0  0  0  0  0  2  0  0  0  0  0  0
  -29.4400  -23.1150   20.0420 C   0  0  0  0  0  0  0  0  0  0  0  0
  -28.6810  -22.6660   19.1760 O   0  0  0  0  0  0  0  0  0  0  0  0
  -29.5940  -24.6430   20.2360 C   0  0  0  0  0  2  0  0  0  0  0  0
  -28.3700  -25.4590   19.7300 C   0  0  0  0  0  2  0  0  0  0  0  0
  -28.4010  -26.8580   20.0880 O   0  0  0  0  0  0  0  0  0  0  0  0
  -24.5420  -31.9710   23.2450 C   0  0  0  0  0  0  0  0  0  0  0  0
  -27.2050  -27.5690   20.0840 C   0  0  0  0  0  0  0  0  0  0  0  0
  -23.3290  -30.5730   21.6010 C   0  0  0  0  0  3  0  0  0  0  0  0
  -24.7800  -29.0550   20.1520 C   0  0  0  0  0  0  0  0  0  0  0  0
  -25.8500  -30.9520   21.3800 C   0  0  0  0  0  2  0  0  0  0  0  0
  -25.9430  -29.5870   20.7240 C   0  0  0  0  0  0  0  0  0  0  0  0
  -27.1530  -28.8520   20.6840 C   0  0  0  0  0  3  0  0  0  0  0  0
  -26.0170  -27.0580   19.5070 C   0  0  0  0  0  3  0  0  0  0  0  0
  -24.8140  -27.7880   19.5440 C   0  0  0  0  0  3  0  0  0  0  0  0
  -23.5300  -29.9050   20.2160 C   0  0  0  0  0  2  0  0  0  0  0  0
  -24.5920  -31.1790   22.1350 N   0  0  0  0  0  0  0  0  0  0  0  0
  -23.4660  -32.2300   23.7980 O   0  0  0  0  0  0  0  0  0  0  0  0
  -22.6930  -29.5420   22.5600 C   0  0  0  0  0  0  0  0  0  0  0  0
  -21.3700  -29.3440   22.4360 N   0  0  0  0  0  0  0  0  0  0  0  0
  -23.3870  -28.9220   23.3700 O   0  0  0  0  0  0  0  0  0  0  0  0
  -20.8710  -29.8970   21.7530 H   0  0  0  0  0  0  0  0  0  0  0  0
  -18.0160  -28.1010   22.9370 C   0  0  0  0  0  0  0  0  0  0  0  0
  -20.5690  -28.3920   23.2050 C   0  0  0  0  0  3  0  0  0  0  0  0
  -20.6890  -26.9650   22.6240 C   0  0  0  0  0  2  0  0  0  0  0  0
  -19.5920  -26.6310   21.6080 C   0  0  0  0  0  2  0  0  0  0  0  0
  -18.2090  -26.7560   22.2560 C   0  0  0  0  0  2  0  0  0  0  0  0
  -19.1240  -28.8760   23.3670 C   0  0  0  0  0  0  0  0  0  0  0  0
  -18.8910  -30.1350   23.9640 C   0  0  0  0  0  3  0  0  0  0  0  0
  -17.5790  -30.6190   24.1300 C   0  0  0  0  0  3  0  0  0  0  0  0
  -16.4850  -29.8400   23.7160 C   0  0  0  0  0  3  0  0  0  0  0  0
  -16.7030  -28.5820   23.1260 C   0  0  0  0  0  3  0  0  0  0  0  0
  -25.8330  -32.6040   23.8550 C   0  0  0  0  0  3  0  0  0  0  0  0
  -25.5270  -34.0010   24.1870 N   0  0  0  0  0  0  0  0  0  0  0  0
  -25.8600  -35.0530   23.4270 C   0  0  0  0  0  0  0  0  0  0  0  0
  -26.5300  -34.9470   22.3960 O   0  0  0  0  0  0  0  0  0  0  0  0
  -24.9350  -34.1550   24.9900 H   0  0  0  0  0  0  0  0  0  0  0  0
  -24.1410  -36.8480   23.0580 C   0  0  0  0  0  1  0  0  0  0  0  0
  -25.3720  -36.4410   23.8820 C   0  0  0  0  0  3  0  0  0  0  0  0
  -27.5000  -37.3170   24.7390 C   0  0  0  0  0  1  0  0  0  0  0  0
  -26.4100  -37.4900   23.7830 N   0  0  0  0  0  0  0  0  0  0  0  0
  -26.0050  -38.4120   23.9290 H   0  0  0  0  0  0  0  0  0  0  0  0
  -26.3650  -31.8320   25.1250 C   0  0  1  0  0  0  0  0  0  0  0  0
  -25.2810  -31.5880   26.2020 C   0  0  0  0  0  1  0  0  0  0  0  0
  -26.9470  -30.4570   24.7230 C   0  0  0  0  0  1  0  0  0  0  0  0
  -27.5180  -32.6280   25.7780 C   0  0  0  0  0  1  0  0  0  0  0  0
  1  5  2  0
  1  3  1  0
  3  4  2  0
  4  2  1  0
  4  8  1  0
  5  6  1  0
  6  7  1  0
  6  2  2  0
  8  9  1  0
 10  8  1  0
 11 12  1  0
 11  3  1  0
 13 12  1  0
 14 11  1  0
 15 20  1  0
 16 17  1  0
 16 15  1  0
 18 17  1  0
 18 25  1  0
 18 19  1  0
 20 14  1  0
 20 19  1  0
 21 14  2  0
 22 23  2  0
 23 42  1  0
 24 23  1  0
 24 27  1  0
 25 26  1  0
 25 22  1  0
 26 24  2  0
 27 28  1  0
 28 29  2  0
 30 33  1  0
 30 29  1  0
 31 30  2  0
 32 31  1  0
 32 27  2  0
 33 34  1  0
 34 35  1  0
 35 36  2  0
 37 36  1  0
 37 41  1  0
 38 37  2  0
 39 34  2  0
 39 38  1  0
 40 39  1  0
 42 43  1  0
 43 46  1  0
 43 45  1  0
 44 42  2  0
 47 22  1  0
 47 48  1  0
 49 47  1  0
 50 51  1  0
 50  5  1  0
 52 54  1  0
 52 51  1  0
 53 52  2  0
 55 56  1  0
 55 54  1  0
 57 68  2  0
 58 56  1  0
 58 63  1  0
 59 67  1  0
 59 69  1  0
 60 66  1  0
 60 62  1  0
 61 67  1  0
 62 61  1  0
 63 62  2  0
 64 65  1  0
 64 58  2  0
 65 60  2  0
 66 59  1  0
 67 57  1  0
 69 71  2  0
 70 69  1  0
 72 70  1  0
 73 82  2  0
 73 78  1  0
 74 70  1  0
 74 78  1  0
 75 74  1  0
 76 77  1  0
 76 75  1  0
 77 73  1  0
 78 79  2  0
 79 80  1  0
 81 80  2  0
 82 81  1  0
 83 57  1  0
 83 84  1  0
 83 93  1  0
 84 87  1  0
 85 89  1  0
 85 84  1  0
 86 85  2  0
 89 88  1  0
 91 89  1  0
 91 92  1  0
 91 90  1  0
 93 96  1  1
 93 94  1  0
 95 93  1  0
M  ISO  4  11 100  14 100  55 101  56 101
M  END
>  <TORSDO>  (54) 
F 23

>  <SCORE>  (54) 
-12.219

>  <name>  (54) 
53

>  <ligand_id>  (54) 
53

>  <original_smiles>  (54) 
[H]N=C(C(=O)N1C([H])([H])C([H])([H])C([H])([H])C([H])(n2nc(-c3c([H])c([H])c(Oc4c([H])c([H])c(F)c([H])c4F)c([H])c3[H])c(C(=O)N([H])[H])c2N([H])[H])C1([H])[H])c1c([H])c(OC([H])([H])C(=O)C([H])([H])C([H])([H])Oc2c([H])c([H])c3c(c2[H])C([H])([H])N(C(=O)C([H])(N([H])C(=O)C([H])(N([H])C([H])([H])[H])C([H])([H])[H])C(C([H])([H])[H])(C([H])([H])[H])C([H])([H])[H])C([H])(C(=O)N([H])C2([H])c4c([H])c([H])c([H])c([H])c4C([H])([H])C([H])([H])C2([H])[H])C3([H])[H])c(F)c([H])c1N([H])[H]

>  <smiles>  (54) 
[H]N=C(C(=O)N1C([H])([H])C([H])([H])C([H])([H])C([H])(n2nc(-c3c([H])c([H])c(Oc4c([H])c([H])c(F)c([H])c4F)c([H])c3[H])c(C(=O)N([H])[H])c2N([H])[H])C1([H])[H])c1c([H])c(OC([H])([H])C(=O)C([H])([H])C([H])([H])Oc2c([H])c([H])c3c(c2[H])C([H])([H])N(C(=O)C([H])(N([H])C(=O)C([H])(N([H])C([H])([H])[H])C([H])([H])[H])C(C([H])([H])[H])(C([H])([H])[H])C([H])([H])[H])C([H])(C(=O)N([H])C2([H])c4c([H])c([H])c([H])c([H])c4C([H])([H])C([H])([H])C2([H])[H])C3([H])[H])c(F)c([H])c1N([H])[H]

$$$$
54:0:0
     RDKit          3D

 99108  0  0  1  0  0  0  0  0999 V2000
  -30.3560  -24.4840   20.6730 C   0  0  0  0  0  3  0  0  0  0  0  0
  -29.2750  -23.9900   20.0240 C   0  0  0  0  0  0  0  0  0  0  0  0
  -31.4750  -23.6790   21.1850 C   0  0  0  0  0  0  0  0  0  0  0  0
  -31.1990  -22.5730   22.2090 C   0  0  0  0  0  2  0  0  0  0  0  0
  -29.9230  -21.7580   21.9450 C   0  0  0  0  0  2  0  0  0  0  0  0
  -29.0470  -22.4480   19.7000 C   0  0  0  0  0  3  0  0  0  0  0  0
  -29.2770  -22.1620   18.2070 C   0  0  0  0  0  1  0  0  0  0  0  0
  -29.7660  -21.4260   20.5320 N   0  0  0  0  0  0  0  0  0  0  0  0
  -32.6410  -23.8960   20.8450 O   0  0  0  0  0  0  0  0  0  0  0  0
  -31.0530  -17.8340   20.1860 C   0  0  0  0  0  3  0  0  0  0  0  0
  -28.6530  -17.7940   20.3430 C   0  0  0  0  0  3  0  0  0  0  0  0
  -31.0270  -19.2660   20.2010 C   0  0  0  0  0  0  0  0  0  0  0  0
  -29.8000  -20.0000   20.3050 C   0  0  0  0  0  0  0  0  0  0  0  0
  -29.8670  -17.0610   20.2850 C   0  0  0  0  0  0  0  0  0  0  0  0
  -28.6120  -19.2170   20.3490 C   0  0  0  0  0  0  0  0  0  0  0  0
  -32.3690  -19.9770   20.1130 C   0  0  0  0  0  1  0  0  0  0  0  0
  -30.5690  -14.5740   19.9100 C   0  0  0  0  0  0  0  0  0  0  0  0
  -30.2410  -12.3710   18.8080 C   0  0  0  0  0  2  0  0  0  0  0  0
  -29.1940  -12.5500   17.6850 C   0  0  0  0  0  2  0  0  0  0  0  0
  -27.7600  -12.4030   18.2380 C   0  0  0  0  0  2  0  0  0  0  0  0
  -27.5260  -13.2340   19.5280 C   0  0  0  0  0  3  0  0  0  0  0  0
  -28.6770  -13.0210   20.5400 C   0  0  0  0  0  2  0  0  0  0  0  0
  -29.9400  -13.3590   19.8600 N   0  0  0  0  0  0  0  0  0  0  0  0
  -31.6940  -14.7420   19.4290 O   0  0  0  0  0  0  0  0  0  0  0  0
  -29.7860  -15.6020   20.3530 N   0  0  0  0  0  0  0  0  0  0  0  0
  -28.9040  -15.2580   20.6980 H   0  0  0  0  0  0  0  0  0  0  0  0
  -25.2230  -13.8530   20.4900 C   0  0  0  0  0  0  0  0  0  0  0  0
  -24.1750  -13.0880   20.9230 C   0  0  0  0  0  0  0  0  0  0  0  0
  -24.5950  -11.7290   20.7860 C   0  0  0  0  0  0  0  0  0  0  0  0
  -26.2180  -12.9620   20.1190 N   0  0  0  0  0  0  0  0  0  0  0  0
  -25.8510  -11.6770   20.3590 N   0  0  0  0  0  0  0  0  0  0  0  0
  -23.8560  -10.4770   20.9850 C   0  0  0  0  0  0  0  0  0  0  0  0
  -24.3170   -9.4820   21.8760 C   0  0  0  0  0  3  0  0  0  0  0  0
  -23.5810   -8.2920   22.0630 C   0  0  0  0  0  3  0  0  0  0  0  0
  -22.3700   -8.0890   21.3580 C   0  0  0  0  0  0  0  0  0  0  0  0
  -21.9270   -9.0720   20.4560 C   0  0  0  0  0  3  0  0  0  0  0  0
  -22.6640  -10.2540   20.2680 C   0  0  0  0  0  3  0  0  0  0  0  0
  -21.6010   -6.9550   21.4580 O   0  0  0  0  0  0  0  0  0  0  0  0
  -21.5540   -6.2150   22.6130 C   0  0  0  0  0  0  0  0  0  0  0  0
  -21.1430   -6.7750   23.8410 C   0  0  0  0  0  3  0  0  0  0  0  0
  -21.0450   -5.9610   24.9870 C   0  0  0  0  0  3  0  0  0  0  0  0
  -21.3490   -4.5880   24.9050 C   0  0  0  0  0  0  0  0  0  0  0  0
  -21.7530   -4.0290   23.6810 C   0  0  0  0  0  3  0  0  0  0  0  0
  -21.8550   -4.8400   22.5370 C   0  0  0  0  0  0  0  0  0  0  0  0
  -22.2250   -4.2910   21.3540 F   0  0  0  0  0  0  0  0  0  0  0  0
  -21.2470   -3.8030   26.0030 F   0  0  0  0  0  0  0  0  0  0  0  0
  -22.8210  -13.5830   21.3440 C   0  0  0  0  0  0  0  0  0  0  0  0
  -22.1570  -12.8630   22.2400 N   0  0  0  0  0  0  0  0  0  0  0  0
  -22.3630  -14.6400   20.9110 O   0  0  0  0  0  0  0  0  0  0  0  0
  -22.5420  -12.0060   22.6120 H   0  0  0  0  0  0  0  0  0  0  0  0
  -21.2510  -13.1730   22.5630 H   0  0  0  0  0  0  0  0  0  0  0  0
  -25.4040  -15.2260   20.3560 N   0  0  0  0  0  0  0  0  0  0  0  0
  -24.6470  -15.8780   20.5370 H   0  0  0  0  0  0  0  0  0  0  0  0
  -26.1930  -15.6560   19.8920 H   0  0  0  0  0  0  0  0  0  0  0  0
  -27.3800  -19.8600   20.4580 N   0  0  0  0  0  0  0  0  0  0  0  0
  -26.6140  -19.3530   20.8830 H   0  0  0  0  0  0  0  0  0  0  0  0
  -27.4550  -20.8200   20.7780 H   0  0  0  0  0  0  0  0  0  0  0  0
  -28.1510  -24.9880   19.5690 C   0  0  0  0  0  2  0  0  0  0  0  0
  -28.2690  -26.4230   19.9270 O   0  0  0  0  0  0  0  0  0  0  0  0
  -24.4200  -31.6550   23.0810 C   0  0  0  0  0  0  0  0  0  0  0  0
  -27.1130  -27.2260   19.9020 C   0  0  0  0  0  0  0  0  0  0  0  0
  -23.2290  -30.2590   21.4280 C   0  0  0  0  0  3  0  0  0  0  0  0
  -24.6980  -28.7700   19.9570 C   0  0  0  0  0  0  0  0  0  0  0  0
  -25.7580  -30.6410   21.2230 C   0  0  0  0  0  2  0  0  0  0  0  0
  -25.8620  -29.2780   20.5490 C   0  0  0  0  0  0  0  0  0  0  0  0
  -27.0670  -28.5160   20.5160 C   0  0  0  0  0  3  0  0  0  0  0  0
  -25.9220  -26.7720   19.2850 C   0  0  0  0  0  3  0  0  0  0  0  0
  -24.7300  -27.5220   19.3190 C   0  0  0  0  0  3  0  0  0  0  0  0
  -23.4420  -29.6120   20.0340 C   0  0  0  0  0  2  0  0  0  0  0  0
  -24.4890  -30.8690   21.9670 N   0  0  0  0  0  0  0  0  0  0  0  0
  -23.3370  -31.9010   23.6320 O   0  0  0  0  0  0  0  0  0  0  0  0
  -22.5990  -29.2130   22.3770 C   0  0  0  0  0  0  0  0  0  0  0  0
  -21.2780  -28.9990   22.2500 N   0  0  0  0  0  0  0  0  0  0  0  0
  -23.2970  -28.5980   23.1870 O   0  0  0  0  0  0  0  0  0  0  0  0
  -20.7730  -29.5490   21.5700 H   0  0  0  0  0  0  0  0  0  0  0  0
  -17.9400  -27.6910   22.7290 C   0  0  0  0  0  0  0  0  0  0  0  0
  -20.4880  -28.0280   23.0100 C   0  0  0  0  0  3  0  0  0  0  0  0
  -20.6370  -26.6060   22.4220 C   0  0  0  0  0  2  0  0  0  0  0  0
  -19.5500  -26.2600   21.4010 C   0  0  0  0  0  2  0  0  0  0  0  0
  -18.1610  -26.3550   22.0400 C   0  0  0  0  0  2  0  0  0  0  0  0
  -19.0320  -28.4830   23.1700 C   0  0  0  0  0  0  0  0  0  0  0  0
  -18.7720  -29.7330   23.7730 C   0  0  0  0  0  3  0  0  0  0  0  0
  -17.4520  -30.1910   23.9390 C   0  0  0  0  0  3  0  0  0  0  0  0
  -16.3730  -29.3950   23.5160 C   0  0  0  0  0  3  0  0  0  0  0  0
  -16.6180  -28.1460   22.9180 C   0  0  0  0  0  3  0  0  0  0  0  0
  -25.6960  -32.3020   23.7020 C   0  0  0  0  0  3  0  0  0  0  0  0
  -26.2450  -31.5190   24.9580 C   0  0  1  0  0  0  0  0  0  0  0  0
  -25.1680  -31.2420   26.0330 C   0  0  0  0  0  1  0  0  0  0  0  0
  -26.8500  -30.1620   24.5360 C   0  0  0  0  0  1  0  0  0  0  0  0
  -27.3870  -32.3240   25.6210 C   0  0  0  0  0  1  0  0  0  0  0  0
  -25.3640  -33.6890   24.0610 N   0  0  0  0  0  0  0  0  0  0  0  0
  -25.6610  -34.7610   23.3130 C   0  0  0  0  0  0  0  0  0  0  0  0
  -26.3100  -34.6870   22.2640 O   0  0  0  0  0  0  0  0  0  0  0  0
  -24.7880  -33.8220   24.8790 H   0  0  0  0  0  0  0  0  0  0  0  0
  -23.8760  -36.5090   23.0370 C   0  0  0  0  0  1  0  0  0  0  0  0
  -25.1550  -36.1310   23.8010 C   0  0  0  0  0  3  0  0  0  0  0  0
  -27.2910  -37.0630   24.5760 C   0  0  0  0  0  1  0  0  0  0  0  0
  -26.1550  -37.2120   23.6680 N   0  0  0  0  0  0  0  0  0  0  0  0
  -25.7300  -38.1180   23.8380 H   0  0  0  0  0  0  0  0  0  0  0  0
  1  3  1  0
  2  1  2  0
  3  4  1  0
  5  4  1  0
  6  7  1  0
  6  2  1  0
  6  8  1  0
  8  5  1  0
  9  3  2  0
 10 12  2  0
 10 14  1  0
 11 15  1  0
 12 13  1  0
 13 15  2  0
 13  8  1  0
 14 11  2  0
 14 25  1  0
 15 55  1  0
 16 12  1  0
 17 25  1  0
 18 23  1  0
 19 20  1  0
 19 18  1  0
 21 20  1  0
 21 30  1  0
 21 22  1  0
 23 17  1  0
 23 22  1  0
 24 17  2  0
 25 26  1  0
 27 28  2  0
 28 47  1  0
 29 28  1  0
 29 32  1  0
 30 31  1  0
 30 27  1  0
 31 29  2  0
 32 33  1  0
 33 34  2  0
 35 38  1  0
 35 34  1  0
 36 35  2  0
 37 36  1  0
 37 32  2  0
 38 39  1  0
 39 40  1  0
 40 41  2  0
 42 41  1  0
 42 46  1  0
 43 42  2  0
 44 39  2  0
 44 43  1  0
 45 44  1  0
 47 48  1  0
 48 51  1  0
 48 50  1  0
 49 47  2  0
 52 27  1  0
 52 53  1  0
 54 52  1  0
 55 57  1  0
 55 56  1  0
 58 59  1  0
 58  2  1  0
 60 71  2  0
 61 59  1  0
 61 66  1  0
 62 70  1  0
 62 72  1  0
 63 69  1  0
 63 65  1  0
 64 70  1  0
 65 64  1  0
 66 65  2  0
 67 68  1  0
 67 61  2  0
 68 63  2  0
 69 62  1  0
 70 60  1  0
 72 74  2  0
 73 72  1  0
 75 73  1  0
 76 85  2  0
 76 81  1  0
 77 73  1  0
 77 81  1  0
 78 77  1  0
 79 80  1  0
 79 78  1  0
 80 76  1  0
 81 82  2  0
 82 83  1  0
 84 83  2  0
 85 84  1  0
 86 60  1  0
 86 91  1  0
 86 87  1  0
 87 90  1  1
 87 88  1  0
 89 87  1  0
 91 94  1  0
 92 96  1  0
 92 91  1  0
 93 92  2  0
 96 95  1  0
 98 96  1  0
 98 99  1  0
 98 97  1  0
M  ISO  4  17 100  25 100  58 101  59 101
M  END
>  <TORSDO>  (55) 
F 19

>  <SCORE>  (55) 
-13.342

>  <name>  (55) 
54

>  <ligand_id>  (55) 
54

>  <original_smiles>  (55) 
[H]C1=C(C([H])([H])Oc2c([H])c([H])c3c(c2[H])C([H])([H])N(C(=O)C([H])(N([H])C(=O)C([H])(N([H])C([H])([H])[H])C([H])([H])[H])C(C([H])([H])[H])(C([H])([H])[H])C([H])([H])[H])C([H])(C(=O)N([H])C2([H])c4c([H])c([H])c([H])c([H])c4C([H])([H])C([H])([H])C2([H])[H])C3([H])[H])C([H])(C([H])([H])[H])N(c2c(N([H])[H])c([H])c(N([H])C(=O)N3C([H])([H])C([H])([H])C([H])([H])C([H])(n4nc(-c5c([H])c([H])c(Oc6c([H])c([H])c(F)c([H])c6F)c([H])c5[H])c(C(=O)N([H])[H])c4N([H])[H])C3([H])[H])c([H])c2C([H])([H])[H])C([H])([H])C([H])([H])C1=O

>  <smiles>  (55) 
[H]C1=C(C([H])([H])Oc2c([H])c([H])c3c(c2[H])C([H])([H])N(C(=O)C([H])(N([H])C(=O)C([H])(N([H])C([H])([H])[H])C([H])([H])[H])C(C([H])([H])[H])(C([H])([H])[H])C([H])([H])[H])C([H])(C(=O)N([H])C2([H])c4c([H])c([H])c([H])c([H])c4C([H])([H])C([H])([H])C2([H])[H])C3([H])[H])C([H])(C([H])([H])[H])N(c2c(N([H])[H])c([H])c(N([H])C(=O)N3C([H])([H])C([H])([H])C([H])([H])C([H])(n4nc(-c5c([H])c([H])c(Oc6c([H])c([H])c(F)c([H])c6F)c([H])c5[H])c(C(=O)N([H])[H])c4N([H])[H])C3([H])[H])c([H])c2C([H])([H])[H])C([H])([H])C([H])([H])C1=O

$$$$
55:0:0
     RDKit          3D

 99107  0  0  1  0  0  0  0  0999 V2000
  -28.4210  -18.9460   20.3570 C   0  0  0  0  0  3  0  0  0  0  0  0
  -30.2040  -21.0590   20.7920 C   0  0  0  0  0  3  0  0  0  0  0  0
  -29.7050  -18.5850   20.8420 C   0  0  0  0  0  0  0  0  0  0  0  0
  -30.6030  -19.6950   21.0540 C   0  0  0  0  0  0  0  0  0  0  0  0
  -28.0490  -20.2960   20.0810 C   0  0  0  0  0  0  0  0  0  0  0  0
  -28.9180  -21.4000   20.2940 C   0  0  0  0  0  0  0  0  0  0  0  0
  -30.7590  -14.8660   20.7220 C   0  0  0  0  0  0  0  0  0  0  0  0
  -30.5960  -12.5630   19.7950 C   0  0  0  0  0  2  0  0  0  0  0  0
  -29.7400  -12.5840   18.5120 C   0  0  0  0  0  2  0  0  0  0  0  0
  -28.2480  -12.4170   18.8580 C   0  0  0  0  0  2  0  0  0  0  0  0
  -27.7880  -13.3460   20.0150 C   0  0  0  0  0  3  0  0  0  0  0  0
  -28.7790  -13.3410   21.1970 C   0  0  0  0  0  2  0  0  0  0  0  0
  -30.1020  -13.6600   20.6520 N   0  0  0  0  0  0  0  0  0  0  0  0
  -31.9870  -14.8920   20.6040 O   0  0  0  0  0  0  0  0  0  0  0  0
  -30.0210  -17.1180   21.2940 C   0  0  0  0  0  0  0  0  0  0  0  0
  -30.0440  -16.0260   20.4330 N   0  0  0  0  0  0  0  0  0  0  0  0
  -30.2470  -16.9770   22.5010 O   0  0  0  0  0  0  0  0  0  0  0  0
  -25.3620  -13.9420   20.5880 C   0  0  0  0  0  0  0  0  0  0  0  0
  -24.2770  -13.1700   20.9000 C   0  0  0  0  0  0  0  0  0  0  0  0
  -24.7460  -11.8210   20.9230 C   0  0  0  0  0  0  0  0  0  0  0  0
  -26.4200  -13.0630   20.4330 N   0  0  0  0  0  0  0  0  0  0  0  0
  -26.0540  -11.7840   20.6990 N   0  0  0  0  0  0  0  0  0  0  0  0
  -24.0150  -10.5580   21.0870 C   0  0  0  0  0  0  0  0  0  0  0  0
  -24.3980   -9.6040   22.0560 C   0  0  0  0  0  3  0  0  0  0  0  0
  -23.6680   -8.4060   22.2070 C   0  0  0  0  0  3  0  0  0  0  0  0
  -22.5400   -8.1540   21.3890 C   0  0  0  0  0  0  0  0  0  0  0  0
  -22.1770   -9.0970   20.4120 C   0  0  0  0  0  3  0  0  0  0  0  0
  -22.9090  -10.2870   20.2580 C   0  0  0  0  0  3  0  0  0  0  0  0
  -21.7850   -7.0070   21.4490 O   0  0  0  0  0  0  0  0  0  0  0  0
  -21.6730   -6.2790   22.6060 C   0  0  0  0  0  0  0  0  0  0  0  0
  -21.1650   -6.8450   23.7960 C   0  0  0  0  0  3  0  0  0  0  0  0
  -21.0020   -6.0420   24.9420 C   0  0  0  0  0  3  0  0  0  0  0  0
  -21.3350   -4.6750   24.8990 C   0  0  0  0  0  0  0  0  0  0  0  0
  -21.8360   -4.1090   23.7140 C   0  0  0  0  0  3  0  0  0  0  0  0
  -22.0010   -4.9090   22.5700 C   0  0  0  0  0  0  0  0  0  0  0  0
  -22.4640   -4.3540   21.4240 F   0  0  0  0  0  0  0  0  0  0  0  0
  -21.1710   -3.9030   25.9990 F   0  0  0  0  0  0  0  0  0  0  0  0
  -22.8630  -13.6440   21.0720 C   0  0  0  0  0  0  0  0  0  0  0  0
  -22.0810  -12.9550   21.8960 N   0  0  0  0  0  0  0  0  0  0  0  0
  -22.4570  -14.6620   20.5100 O   0  0  0  0  0  0  0  0  0  0  0  0
  -22.4200  -12.1330   22.3730 H   0  0  0  0  0  0  0  0  0  0  0  0
  -21.1300  -13.2560   22.0540 H   0  0  0  0  0  0  0  0  0  0  0  0
  -25.5330  -15.3100   20.4020 N   0  0  0  0  0  0  0  0  0  0  0  0
  -24.7610  -15.9670   20.4580 H   0  0  0  0  0  0  0  0  0  0  0  0
  -26.4090  -15.7450   20.1530 H   0  0  0  0  0  0  0  0  0  0  0  0
  -28.8550  -16.5140   18.3490 C   0  0  0  0  0  2  0  0  0  0  0  0
  -29.9800  -16.3040   19.0570 C   0  0  0  0  0  3  0  0  0  0  0  0
  -26.7710  -20.5540   19.5950 N   0  0  0  0  0  0  0  0  0  0  0  0
  -26.3020  -19.8240   19.0690 H   0  0  0  0  0  0  0  0  0  0  0  0
  -26.6360  -21.4780   19.1930 H   0  0  0  0  0  0  0  0  0  0  0  0
  -31.9940  -19.4620   21.5520 C   0  0  0  0  0  0  0  0  0  0  0  0
  -32.6680  -18.5070   21.1510 O   0  0  0  0  0  0  0  0  0  0  0  0
  -33.8240  -20.4390   22.8880 C   0  0  0  0  0  2  0  0  0  0  0  0
  -32.5250  -20.4230   22.5380 C   0  0  0  0  0  3  0  0  0  0  0  0
  -28.4470  -22.6960   19.9540 O   0  0  0  0  0  0  0  0  0  0  0  0
  -29.0230  -23.9870   20.3830 C   0  0  0  0  0  2  0  0  0  0  0  0
  -28.3990  -25.2140   19.5830 C   0  0  0  0  0  0  0  0  0  0  0  0
  -28.0000  -25.0030   18.4330 O   0  0  0  0  0  0  0  0  0  0  0  0
  -28.3260  -26.5250   20.2080 O   0  0  0  0  0  0  0  0  0  0  0  0
  -24.5550  -31.9320   23.1950 C   0  0  0  0  0  0  0  0  0  0  0  0
  -27.2150  -27.3960   20.1070 C   0  0  0  0  0  0  0  0  0  0  0  0
  -23.3650  -30.5210   21.5600 C   0  0  0  0  0  3  0  0  0  0  0  0
  -24.8290  -29.0010   20.1200 C   0  0  0  0  0  0  0  0  0  0  0  0
  -25.9030  -30.8690   21.3690 C   0  0  0  0  0  2  0  0  0  0  0  0
  -25.9990  -29.4940   20.7110 C   0  0  0  0  0  0  0  0  0  0  0  0
  -27.1920  -28.7040   20.6970 C   0  0  0  0  0  3  0  0  0  0  0  0
  -26.0050  -26.9620   19.5080 C   0  0  0  0  0  3  0  0  0  0  0  0
  -24.8360  -27.7410   19.5110 C   0  0  0  0  0  3  0  0  0  0  0  0
  -23.5820  -29.8590   20.1760 C   0  0  0  0  0  2  0  0  0  0  0  0
  -24.6270  -31.1240   22.0980 N   0  0  0  0  0  0  0  0  0  0  0  0
  -23.4690  -32.1940   23.7340 O   0  0  0  0  0  0  0  0  0  0  0  0
  -22.7190  -29.4910   22.5180 C   0  0  0  0  0  0  0  0  0  0  0  0
  -21.3930  -29.3040   22.4040 N   0  0  0  0  0  0  0  0  0  0  0  0
  -23.4110  -28.8660   23.3260 O   0  0  0  0  0  0  0  0  0  0  0  0
  -20.8940  -29.8610   21.7250 H   0  0  0  0  0  0  0  0  0  0  0  0
  -18.0290  -28.0850   22.9360 C   0  0  0  0  0  0  0  0  0  0  0  0
  -20.5880  -28.3580   23.1780 C   0  0  0  0  0  3  0  0  0  0  0  0
  -20.6920  -26.9300   22.5920 C   0  0  0  0  0  2  0  0  0  0  0  0
  -19.5810  -26.6070   21.5890 C   0  0  0  0  0  2  0  0  0  0  0  0
  -18.2060  -26.7400   22.2500 C   0  0  0  0  0  2  0  0  0  0  0  0
  -19.1480  -28.8510   23.3570 C   0  0  0  0  0  0  0  0  0  0  0  0
  -18.9290  -30.1080   23.9600 C   0  0  0  0  0  3  0  0  0  0  0  0
  -17.6230  -30.6010   24.1450 C   0  0  0  0  0  3  0  0  0  0  0  0
  -16.5190  -29.8310   23.7390 C   0  0  0  0  0  3  0  0  0  0  0  0
  -16.7220  -28.5750   23.1410 C   0  0  0  0  0  3  0  0  0  0  0  0
  -25.8300  -32.5830   23.8130 C   0  0  0  0  0  3  0  0  0  0  0  0
  -25.5020  -33.9770   24.1440 N   0  0  0  0  0  0  0  0  0  0  0  0
  -25.8300  -35.0370   23.3930 C   0  0  0  0  0  0  0  0  0  0  0  0
  -26.5110  -34.9440   22.3680 O   0  0  0  0  0  0  0  0  0  0  0  0
  -24.8970  -34.1210   24.9400 H   0  0  0  0  0  0  0  0  0  0  0  0
  -24.1010  -36.8240   23.0120 C   0  0  0  0  0  1  0  0  0  0  0  0
  -25.3240  -36.4180   23.8500 C   0  0  0  0  0  3  0  0  0  0  0  0
  -27.4290  -37.3080   24.7460 C   0  0  0  0  0  1  0  0  0  0  0  0
  -26.3520  -37.4770   23.7740 N   0  0  0  0  0  0  0  0  0  0  0  0
  -25.9370  -38.3940   23.9170 H   0  0  0  0  0  0  0  0  0  0  0  0
  -26.3590  -31.8200   25.0900 C   0  0  1  0  0  0  0  0  0  0  0  0
  -25.2710  -31.5690   26.1600 C   0  0  0  0  0  1  0  0  0  0  0  0
  -26.9580  -30.4480   24.7000 C   0  0  0  0  0  1  0  0  0  0  0  0
  -27.5000  -32.6290   25.7480 C   0  0  0  0  0  1  0  0  0  0  0  0
  1  3  1  0
  2  4  1  0
  3  4  2  0
  3 15  1  0
  4 51  1  0
  5  6  1  0
  5  1  2  0
  6  2  2  0
  8 13  1  0
  9 10  1  0
  9  8  1  0
 11 10  1  0
 11 21  1  0
 11 12  1  0
 13  7  1  0
 13 12  1  0
 14  7  2  0
 15 17  2  0
 16  7  1  0
 16 15  1  0
 18 19  2  0
 19 20  1  0
 19 38  1  0
 20 23  1  0
 21 18  1  0
 21 22  1  0
 22 20  2  0
 23 24  1  0
 24 25  2  0
 26 29  1  0
 26 25  1  0
 27 26  2  0
 28 27  1  0
 28 23  2  0
 29 30  1  0
 30 31  1  0
 31 32  2  0
 33 32  1  0
 33 37  1  0
 34 33  2  0
 35 30  2  0
 35 34  1  0
 36 35  1  0
 38 39  1  0
 39 42  1  0
 39 41  1  0
 40 38  2  0
 43 44  1  0
 43 18  1  0
 45 43  1  0
 46 47  2  0
 47 16  1  0
 48  5  1  0
 49 48  1  0
 50 48  1  0
 51 54  1  0
 52 51  2  0
 54 53  2  0
 55  6  1  0
 55 56  1  0
 57 59  1  0
 57 56  1  0
 58 57  2  0
 60 71  2  0
 61 59  1  0
 61 66  1  0
 62 70  1  0
 62 72  1  0
 63 69  1  0
 63 65  1  0
 64 70  1  0
 65 64  1  0
 66 65  2  0
 67 68  1  0
 67 61  2  0
 68 63  2  0
 69 62  1  0
 70 60  1  0
 72 74  2  0
 73 72  1  0
 75 73  1  0
 76 85  2  0
 76 81  1  0
 77 73  1  0
 77 81  1  0
 78 77  1  0
 79 80  1  0
 79 78  1  0
 80 76  1  0
 81 82  2  0
 82 83  1  0
 84 83  2  0
 85 84  1  0
 86 60  1  0
 86 87  1  0
 86 96  1  0
 87 90  1  0
 88 92  1  0
 88 87  1  0
 89 88  2  0
 92 91  1  0
 94 92  1  0
 94 95  1  0
 94 93  1  0
 96 99  1  1
 96 97  1  0
 98 96  1  0
M  ISO  4   7 100  16 100  57 101  59 101
M  END
>  <TORSDO>  (56) 
F 23

>  <SCORE>  (56) 
-13.233

>  <name>  (56) 
55

>  <ligand_id>  (56) 
55

>  <original_smiles>  (56) 
[H]C([H])=C([H])C(=O)c1c([H])c(OC([H])([H])C(=O)Oc2c([H])c([H])c3c(c2[H])C([H])([H])N(C(=O)C([H])(N([H])C(=O)C([H])(N([H])C([H])([H])[H])C([H])([H])[H])C(C([H])([H])[H])(C([H])([H])[H])C([H])([H])[H])C([H])(C(=O)N([H])C2([H])c4c([H])c([H])c([H])c([H])c4C([H])([H])C([H])([H])C2([H])[H])C3([H])[H])c(N([H])[H])c([H])c1C(=O)N(C(=O)N1C([H])([H])C([H])([H])C([H])([H])C([H])(n2nc(-c3c([H])c([H])c(Oc4c([H])c([H])c(F)c([H])c4F)c([H])c3[H])c(C(=O)N([H])[H])c2N([H])[H])C1([H])[H])C([H])=C([H])[H]

>  <smiles>  (56) 
[H]C([H])=C([H])C(=O)c1c([H])c(OC([H])([H])C(=O)Oc2c([H])c([H])c3c(c2[H])C([H])([H])N(C(=O)C([H])(N([H])C(=O)C([H])(N([H])C([H])([H])[H])C([H])([H])[H])C(C([H])([H])[H])(C([H])([H])[H])C([H])([H])[H])C([H])(C(=O)N([H])C2([H])c4c([H])c([H])c([H])c([H])c4C([H])([H])C([H])([H])C2([H])[H])C3([H])[H])c(N([H])[H])c([H])c1C(=O)N(C(=O)N1C([H])([H])C([H])([H])C([H])([H])C([H])(n2nc(-c3c([H])c([H])c(Oc4c([H])c([H])c(F)c([H])c4F)c([H])c3[H])c(C(=O)N([H])[H])c2N([H])[H])C1([H])[H])C([H])=C([H])[H]

$$$$
56:0:0
     RDKit          3D

 95103  0  0  1  0  0  0  0  0999 V2000
  -29.0850  -19.2770   19.4950 C   0  0  0  0  0  3  0  0  0  0  0  0
  -28.8620  -20.6430   19.2590 C   0  0  0  0  0  3  0  0  0  0  0  0
  -30.5080  -19.8300   21.4040 C   0  0  0  0  0  3  0  0  0  0  0  0
  -29.9280  -18.8760   20.5500 C   0  0  0  0  0  0  0  0  0  0  0  0
  -29.4750  -21.6060   20.0840 C   0  0  0  0  0  0  0  0  0  0  0  0
  -30.2660  -21.1980   21.1860 C   0  0  0  0  0  0  0  0  0  0  0  0
  -30.2530  -23.6700   19.5510 C   0  0  0  0  0  3  0  0  0  0  0  0
  -29.2450  -22.9470   19.8290 N   0  0  0  0  0  0  0  0  0  0  0  0
  -30.1900  -25.1750   19.3980 C   0  0  0  0  0  2  0  0  0  0  0  0
  -28.7750  -25.7260   19.1310 C   0  0  0  0  0  2  0  0  0  0  0  0
  -28.6060  -26.9000   19.9060 O   0  0  0  0  0  0  0  0  0  0  0  0
  -24.5390  -31.7460   23.0900 C   0  0  0  0  0  0  0  0  0  0  0  0
  -27.3650  -27.4910   19.9300 C   0  0  0  0  0  0  0  0  0  0  0  0
  -23.3890  -30.3310   21.4160 C   0  0  0  0  0  3  0  0  0  0  0  0
  -24.9000  -28.8670   19.9820 C   0  0  0  0  0  0  0  0  0  0  0  0
  -25.8990  -30.7840   21.2410 C   0  0  0  0  0  2  0  0  0  0  0  0
  -26.0310  -29.4290   20.5850 C   0  0  0  0  0  0  0  0  0  0  0  0
  -27.2610  -28.7430   20.5670 C   0  0  0  0  0  3  0  0  0  0  0  0
  -26.2100  -26.9240   19.3380 C   0  0  0  0  0  3  0  0  0  0  0  0
  -24.9810  -27.6060   19.3660 C   0  0  0  0  0  3  0  0  0  0  0  0
  -23.6280  -29.6800   20.0280 C   0  0  0  0  0  2  0  0  0  0  0  0
  -24.6260  -30.9690   21.9740 N   0  0  0  0  0  0  0  0  0  0  0  0
  -23.4470  -31.9740   23.6270 O   0  0  0  0  0  0  0  0  0  0  0  0
  -22.7670  -29.2730   22.3530 C   0  0  0  0  0  0  0  0  0  0  0  0
  -21.4500  -29.0540   22.2130 N   0  0  0  0  0  0  0  0  0  0  0  0
  -23.4670  -28.6540   23.1600 O   0  0  0  0  0  0  0  0  0  0  0  0
  -20.9500  -29.6060   21.5310 H   0  0  0  0  0  0  0  0  0  0  0  0
  -18.1110  -27.7590   22.6690 C   0  0  0  0  0  0  0  0  0  0  0  0
  -20.6580  -28.0770   22.9600 C   0  0  0  0  0  3  0  0  0  0  0  0
  -20.8040  -26.6620   22.3550 C   0  0  0  0  0  2  0  0  0  0  0  0
  -19.7130  -26.3290   21.3310 C   0  0  0  0  0  2  0  0  0  0  0  0
  -18.3250  -26.4270   21.9700 C   0  0  0  0  0  2  0  0  0  0  0  0
  -19.2070  -28.5420   23.1190 C   0  0  0  0  0  0  0  0  0  0  0  0
  -18.9520  -29.7880   23.7310 C   0  0  0  0  0  3  0  0  0  0  0  0
  -17.6340  -30.2530   23.8980 C   0  0  0  0  0  3  0  0  0  0  0  0
  -16.5520  -29.4670   23.4630 C   0  0  0  0  0  3  0  0  0  0  0  0
  -16.7920  -28.2210   22.8540 C   0  0  0  0  0  3  0  0  0  0  0  0
  -25.8020  -32.4040   23.7290 C   0  0  0  0  0  3  0  0  0  0  0  0
  -25.4440  -33.7790   24.0940 N   0  0  0  0  0  0  0  0  0  0  0  0
  -25.7230  -34.8600   23.3520 C   0  0  0  0  0  0  0  0  0  0  0  0
  -26.3810  -34.8060   22.3090 O   0  0  0  0  0  0  0  0  0  0  0  0
  -24.8550  -33.8940   24.9060 H   0  0  0  0  0  0  0  0  0  0  0  0
  -23.9110  -36.5800   23.0630 C   0  0  0  0  0  1  0  0  0  0  0  0
  -25.1850  -36.2160   23.8430 C   0  0  0  0  0  3  0  0  0  0  0  0
  -27.2940  -37.1790   24.6490 C   0  0  0  0  0  1  0  0  0  0  0  0
  -26.1680  -37.3150   23.7290 N   0  0  0  0  0  0  0  0  0  0  0  0
  -25.7250  -38.2140   23.8980 H   0  0  0  0  0  0  0  0  0  0  0  0
  -26.3480  -31.6150   24.9820 C   0  0  1  0  0  0  0  0  0  0  0  0
  -25.2640  -31.3030   26.0380 C   0  0  0  0  0  1  0  0  0  0  0  0
  -26.9860  -30.2740   24.5480 C   0  0  0  0  0  1  0  0  0  0  0  0
  -27.4660  -32.4340   25.6710 C   0  0  0  0  0  1  0  0  0  0  0  0
  -30.2120  -17.4760   20.7460 C   0  0  0  0  0  0  0  0  0  0  0  0
  -30.4860  -16.2920   20.8400 C   0  0  0  0  0  0  0  0  0  0  0  0
  -30.9920  -14.3240   19.7370 C   0  0  0  0  0  0  0  0  0  0  0  0
  -30.3480  -12.4050   18.3310 C   0  0  0  0  0  2  0  0  0  0  0  0
  -29.2470  -12.7720   17.3190 C   0  0  0  0  0  2  0  0  0  0  0  0
  -27.8520  -12.6190   17.9500 C   0  0  0  0  0  2  0  0  0  0  0  0
  -27.7420  -13.3390   19.3190 C   0  0  0  0  0  3  0  0  0  0  0  0
  -28.9260  -12.9580   20.2320 C   0  0  0  0  0  2  0  0  0  0  0  0
  -30.1910  -13.2470   19.5240 N   0  0  0  0  0  0  0  0  0  0  0  0
  -31.8410  -14.7030   18.9220 O   0  0  0  0  0  0  0  0  0  0  0  0
  -30.7830  -14.9760   20.9010 N   0  0  0  0  0  0  0  0  0  0  0  0
  -25.4920  -13.9430   20.4230 C   0  0  0  0  0  0  0  0  0  0  0  0
  -24.4580  -13.1680   20.8730 C   0  0  0  0  0  0  0  0  0  0  0  0
  -24.8510  -11.8150   20.6470 C   0  0  0  0  0  0  0  0  0  0  0  0
  -26.4580  -13.0610   19.9610 N   0  0  0  0  0  0  0  0  0  0  0  0
  -26.0800  -11.7690   20.1470 N   0  0  0  0  0  0  0  0  0  0  0  0
  -24.1120  -10.5590   20.8240 C   0  0  0  0  0  0  0  0  0  0  0  0
  -24.6080   -9.5170   21.6410 C   0  0  0  0  0  3  0  0  0  0  0  0
  -23.8680   -8.3260   21.8110 C   0  0  0  0  0  3  0  0  0  0  0  0
  -22.6180   -8.1700   21.1650 C   0  0  0  0  0  0  0  0  0  0  0  0
  -22.1400   -9.1990   20.3360 C   0  0  0  0  0  3  0  0  0  0  0  0
  -22.8810  -10.3800   20.1630 C   0  0  0  0  0  3  0  0  0  0  0  0
  -21.8440   -7.0380   21.2520 O   0  0  0  0  0  0  0  0  0  0  0  0
  -21.8470   -6.2470   22.3720 C   0  0  0  0  0  0  0  0  0  0  0  0
  -21.5320   -6.7620   23.6500 C   0  0  0  0  0  3  0  0  0  0  0  0
  -21.4800   -5.8980   24.7610 C   0  0  0  0  0  3  0  0  0  0  0  0
  -21.7330   -4.5230   24.5990 C   0  0  0  0  0  0  0  0  0  0  0  0
  -22.0430   -4.0090   23.3270 C   0  0  0  0  0  3  0  0  0  0  0  0
  -22.0980   -4.8690   22.2170 C   0  0  0  0  0  0  0  0  0  0  0  0
  -22.3740   -4.3650   20.9900 F   0  0  0  0  0  0  0  0  0  0  0  0
  -21.6780   -3.6930   25.6660 F   0  0  0  0  0  0  0  0  0  0  0  0
  -23.1370  -13.6530   21.4000 C   0  0  0  0  0  0  0  0  0  0  0  0
  -22.5300  -12.9030   22.3130 N   0  0  0  0  0  0  0  0  0  0  0  0
  -22.6580  -14.7240   21.0340 O   0  0  0  0  0  0  0  0  0  0  0  0
  -22.9320  -12.0290   22.6180 H   0  0  0  0  0  0  0  0  0  0  0  0
  -21.6460  -13.1980   22.7040 H   0  0  0  0  0  0  0  0  0  0  0  0
  -25.6860  -15.3190   20.3530 N   0  0  0  0  0  0  0  0  0  0  0  0
  -24.9820  -15.9860   20.6480 H   0  0  0  0  0  0  0  0  0  0  0  0
  -26.5150  -15.7580   19.9740 H   0  0  0  0  0  0  0  0  0  0  0  0
  -31.4160  -15.0240   23.2820 C   0  0  0  0  0  2  0  0  0  0  0  0
  -31.2240  -14.3910   22.1060 C   0  0  0  0  0  3  0  0  0  0  0  0
  -30.7870  -22.1250   22.0510 O   0  0  0  0  0  0  0  0  0  0  0  0
  -29.8400  -23.9150   23.3530 C   0  0  0  0  0  1  0  0  0  0  0  0
  -29.9310  -22.4010   23.1560 C   0  0  0  0  0  2  0  0  0  0  0  0
  1  4  1  0
  2  1  2  0
  2  5  1  0
  4 52  1  0
  4  3  2  0
  5  6  2  0
  6  3  1  0
  6 93  1  0
  7  8  2  0
  8  5  1  0
  9  7  1  0
 10  9  1  0
 10 11  1  0
 11 13  1  0
 12 23  2  0
 13 18  1  0
 14 22  1  0
 14 24  1  0
 15 21  1  0
 15 17  1  0
 16 22  1  0
 17 16  1  0
 18 17  2  0
 19 20  1  0
 19 13  2  0
 20 15  2  0
 21 14  1  0
 22 12  1  0
 24 26  2  0
 25 24  1  0
 27 25  1  0
 28 37  2  0
 28 33  1  0
 29 25  1  0
 29 33  1  0
 30 29  1  0
 31 32  1  0
 31 30  1  0
 32 28  1  0
 33 34  2  0
 34 35  1  0
 36 35  2  0
 37 36  1  0
 38 12  1  0
 38 39  1  0
 38 48  1  0
 39 42  1  0
 40 44  1  0
 40 39  1  0
 41 40  2  0
 44 43  1  0
 46 44  1  0
 46 47  1  0
 46 45  1  0
 48 51  1  1
 48 49  1  0
 50 48  1  0
 52 53  3  0
 53 62  1  0
 54 62  1  0
 55 60  1  0
 56 57  1  0
 56 55  1  0
 58 57  1  0
 58 66  1  0
 58 59  1  0
 60 54  1  0
 60 59  1  0
 61 54  2  0
 62 92  1  0
 63 64  2  0
 64 83  1  0
 65 68  1  0
 65 64  1  0
 66 67  1  0
 66 63  1  0
 67 65  2  0
 68 69  1  0
 69 70  2  0
 71 74  1  0
 71 70  1  0
 72 71  2  0
 73 72  1  0
 73 68  2  0
 74 75  1  0
 75 76  1  0
 76 77  2  0
 78 77  1  0
 78 82  1  0
 79 78  2  0
 80 75  2  0
 80 79  1  0
 81 80  1  0
 83 84  1  0
 84 86  1  0
 84 87  1  0
 85 83  2  0
 88 63  1  0
 88 89  1  0
 90 88  1  0
 92 91  2  0
 93 95  1  0
 95 94  1  0
M  ISO  4  10 101  11 101  54 100  62 100
M  END
>  <TORSDO>  (57) 
F 23

>  <SCORE>  (57) 
-8.823

>  <name>  (57) 
56

>  <ligand_id>  (57) 
56

>  <original_smiles>  (57) 
[H]C(=Nc1c([H])c([H])c(C#CN(C(=O)N2C([H])([H])C([H])([H])C([H])([H])C([H])(n3nc(-c4c([H])c([H])c(Oc5c([H])c([H])c(F)c([H])c5F)c([H])c4[H])c(C(=O)N([H])[H])c3N([H])[H])C2([H])[H])C([H])=C([H])[H])c([H])c1OC([H])([H])C([H])([H])[H])C([H])([H])C([H])([H])Oc1c([H])c([H])c2c(c1[H])C([H])([H])N(C(=O)C([H])(N([H])C(=O)C([H])(N([H])C([H])([H])[H])C([H])([H])[H])C(C([H])([H])[H])(C([H])([H])[H])C([H])([H])[H])C([H])(C(=O)N([H])C1([H])c3c([H])c([H])c([H])c([H])c3C([H])([H])C([H])([H])C1([H])[H])C2([H])[H]

>  <smiles>  (57) 
[H]C(=Nc1c([H])c([H])c(C#CN(C(=O)N2C([H])([H])C([H])([H])C([H])([H])C([H])(n3nc(-c4c([H])c([H])c(Oc5c([H])c([H])c(F)c([H])c5F)c([H])c4[H])c(C(=O)N([H])[H])c3N([H])[H])C2([H])[H])C([H])=C([H])[H])c([H])c1OC([H])([H])C([H])([H])[H])C([H])([H])C([H])([H])Oc1c([H])c([H])c2c(c1[H])C([H])([H])N(C(=O)C([H])(N([H])C(=O)C([H])(N([H])C([H])([H])[H])C([H])([H])[H])C(C([H])([H])[H])(C([H])([H])[H])C([H])([H])[H])C([H])(C(=O)N([H])C1([H])c3c([H])c([H])c([H])c([H])c3C([H])([H])C([H])([H])C1([H])[H])C2([H])[H]

$$$$
57:0:0
     RDKit          3D

 93101  0  0  1  0  0  0  0  0999 V2000
  -31.1050  -18.4430   19.9130 C   0  0  0  0  0  3  0  0  0  0  0  0
  -29.9650  -17.6320   20.1820 C   0  0  0  0  0  3  0  0  0  0  0  0
  -31.0650  -19.9020   19.8320 C   0  0  0  0  0  0  0  0  0  0  0  0
  -29.8460  -20.6700   20.0150 C   0  0  0  0  0  0  0  0  0  0  0  0
  -28.7990  -18.4930   20.2510 C   0  0  0  0  0  0  0  0  0  0  0  0
  -28.7300  -19.8830   20.1690 N   0  0  0  0  0  0  0  0  0  0  0  0
  -27.5500  -17.9200   20.4260 N   0  0  0  0  0  0  0  0  0  0  0  0
  -26.7970  -18.5270   20.7210 H   0  0  0  0  0  0  0  0  0  0  0  0
  -27.5240  -16.9960   20.8330 H   0  0  0  0  0  0  0  0  0  0  0  0
  -30.6490  -14.9780   19.9600 C   0  0  0  0  0  0  0  0  0  0  0  0
  -30.4410  -12.6730   18.8850 C   0  0  0  0  0  2  0  0  0  0  0  0
  -29.4100  -12.6780   17.7280 C   0  0  0  0  0  2  0  0  0  0  0  0
  -27.9740  -12.4770   18.2520 C   0  0  0  0  0  2  0  0  0  0  0  0
  -27.6810  -13.3440   19.5020 C   0  0  0  0  0  3  0  0  0  0  0  0
  -28.8120  -13.2210   20.5350 C   0  0  0  0  0  2  0  0  0  0  0  0
  -30.0430  -13.7110   19.8870 N   0  0  0  0  0  0  0  0  0  0  0  0
  -31.7640  -15.0840   19.4320 O   0  0  0  0  0  0  0  0  0  0  0  0
  -29.6580  -15.9260   21.9540 C   0  0  0  0  0  1  0  0  0  0  0  0
  -29.9920  -16.1210   20.5330 N   0  0  0  0  0  0  0  0  0  0  0  0
  -25.3710  -13.9450   20.4290 C   0  0  0  0  0  0  0  0  0  0  0  0
  -24.3200  -13.1800   20.8490 C   0  0  0  0  0  0  0  0  0  0  0  0
  -24.7500  -11.8220   20.7400 C   0  0  0  0  0  0  0  0  0  0  0  0
  -26.3750  -13.0570   20.0810 N   0  0  0  0  0  0  0  0  0  0  0  0
  -26.0140  -11.7720   20.3330 N   0  0  0  0  0  0  0  0  0  0  0  0
  -24.0130  -10.5680   20.9410 C   0  0  0  0  0  0  0  0  0  0  0  0
  -24.4570   -9.5870   21.8560 C   0  0  0  0  0  3  0  0  0  0  0  0
  -23.7180   -8.3990   22.0460 C   0  0  0  0  0  3  0  0  0  0  0  0
  -22.5240   -8.1820   21.3210 C   0  0  0  0  0  0  0  0  0  0  0  0
  -22.0990   -9.1510   20.3940 C   0  0  0  0  0  3  0  0  0  0  0  0
  -22.8370  -10.3310   20.2020 C   0  0  0  0  0  3  0  0  0  0  0  0
  -21.7560   -7.0480   21.4200 O   0  0  0  0  0  0  0  0  0  0  0  0
  -21.6990   -6.3170   22.5800 C   0  0  0  0  0  0  0  0  0  0  0  0
  -21.2410   -6.8770   23.7910 C   0  0  0  0  0  3  0  0  0  0  0  0
  -21.1340   -6.0710   24.9430 C   0  0  0  0  0  3  0  0  0  0  0  0
  -21.4740   -4.7070   24.8830 C   0  0  0  0  0  0  0  0  0  0  0  0
  -21.9240   -4.1460   23.6750 C   0  0  0  0  0  3  0  0  0  0  0  0
  -22.0330   -4.9490   22.5260 C   0  0  0  0  0  0  0  0  0  0  0  0
  -22.4480   -4.3980   21.3600 F   0  0  0  0  0  0  0  0  0  0  0  0
  -21.3630   -3.9320   25.9860 F   0  0  0  0  0  0  0  0  0  0  0  0
  -22.9560  -13.6740   21.2380 C   0  0  0  0  0  0  0  0  0  0  0  0
  -22.2760  -12.9640   22.1310 N   0  0  0  0  0  0  0  0  0  0  0  0
  -22.5050  -14.7250   20.7840 O   0  0  0  0  0  0  0  0  0  0  0  0
  -22.6570  -12.1150   22.5230 H   0  0  0  0  0  0  0  0  0  0  0  0
  -21.3640  -13.2780   22.4320 H   0  0  0  0  0  0  0  0  0  0  0  0
  -25.5480  -15.3190   20.2900 N   0  0  0  0  0  0  0  0  0  0  0  0
  -24.7940  -15.9740   20.4660 H   0  0  0  0  0  0  0  0  0  0  0  0
  -26.3750  -15.7680   19.9170 H   0  0  0  0  0  0  0  0  0  0  0  0
  -29.9460  -22.2840   20.1090 C   0  0  0  0  0  0  0  0  0  0  0  0
  -29.4340  -23.6240   20.1080 C   0  0  0  0  0  3  0  0  0  0  0  0
  -28.1440  -24.6070   19.9230 C   0  0  0  0  0  2  0  0  0  0  0  0
  -28.3180  -26.1610   20.0250 O   0  0  0  0  0  0  0  0  0  0  0  0
  -24.5760  -31.7740   23.0310 C   0  0  0  0  0  0  0  0  0  0  0  0
  -27.2230  -27.1030   19.9850 C   0  0  0  0  0  0  0  0  0  0  0  0
  -23.3870  -30.3520   21.4050 C   0  0  0  0  0  3  0  0  0  0  0  0
  -24.8520  -28.7970   19.9740 C   0  0  0  0  0  0  0  0  0  0  0  0
  -25.9340  -30.6650   21.2160 C   0  0  0  0  0  2  0  0  0  0  0  0
  -26.0280  -29.2730   20.5660 C   0  0  0  0  0  0  0  0  0  0  0  0
  -27.2130  -28.4440   20.5490 C   0  0  0  0  0  3  0  0  0  0  0  0
  -26.0130  -26.7220   19.3660 C   0  0  0  0  0  3  0  0  0  0  0  0
  -24.8560  -27.5340   19.3600 C   0  0  0  0  0  3  0  0  0  0  0  0
  -23.6080  -29.6700   20.0280 C   0  0  0  0  0  2  0  0  0  0  0  0
  -24.6530  -30.9540   21.9370 N   0  0  0  0  0  0  0  0  0  0  0  0
  -23.4900  -32.0400   23.5680 O   0  0  0  0  0  0  0  0  0  0  0  0
  -22.7340  -29.3380   22.3780 C   0  0  0  0  0  0  0  0  0  0  0  0
  -21.4050  -29.1620   22.2790 N   0  0  0  0  0  0  0  0  0  0  0  0
  -23.4260  -28.7110   23.1840 O   0  0  0  0  0  0  0  0  0  0  0  0
  -20.9010  -29.7180   21.6020 H   0  0  0  0  0  0  0  0  0  0  0  0
  -18.0390  -27.9540   22.8610 C   0  0  0  0  0  0  0  0  0  0  0  0
  -20.6040  -28.2170   23.0620 C   0  0  0  0  0  3  0  0  0  0  0  0
  -20.6910  -26.7910   22.4710 C   0  0  0  0  0  2  0  0  0  0  0  0
  -19.5630  -26.4770   21.4830 C   0  0  0  0  0  2  0  0  0  0  0  0
  -18.1990  -26.6130   22.1660 C   0  0  0  0  0  2  0  0  0  0  0  0
  -19.1680  -28.7140   23.2680 C   0  0  0  0  0  0  0  0  0  0  0  0
  -18.9630  -29.9700   23.8810 C   0  0  0  0  0  3  0  0  0  0  0  0
  -17.6610  -30.4650   24.0900 C   0  0  0  0  0  3  0  0  0  0  0  0
  -16.5480  -29.7030   23.6990 C   0  0  0  0  0  3  0  0  0  0  0  0
  -16.7380  -28.4490   23.0900 C   0  0  0  0  0  3  0  0  0  0  0  0
  -25.8480  -32.4360   23.6460 C   0  0  0  0  0  3  0  0  0  0  0  0
  -26.4170  -31.6470   24.8890 C   0  0  1  0  0  0  0  0  0  0  0  0
  -25.3560  -31.3420   25.9730 C   0  0  0  0  0  1  0  0  0  0  0  0
  -27.0390  -30.3000   24.4530 C   0  0  0  0  0  1  0  0  0  0  0  0
  -27.5530  -32.4620   25.5510 C   0  0  0  0  0  1  0  0  0  0  0  0
  -25.4970  -33.8120   24.0300 N   0  0  0  0  0  0  0  0  0  0  0  0
  -25.7960  -34.9050   23.3150 C   0  0  0  0  0  0  0  0  0  0  0  0
  -26.4620  -34.8630   22.2770 O   0  0  0  0  0  0  0  0  0  0  0  0
  -24.9030  -33.9180   24.8380 H   0  0  0  0  0  0  0  0  0  0  0  0
  -24.0290  -36.6760   23.0340 C   0  0  0  0  0  1  0  0  0  0  0  0
  -25.2760  -36.2600   23.8330 C   0  0  0  0  0  3  0  0  0  0  0  0
  -27.3780  -37.1620   24.7270 C   0  0  0  0  0  1  0  0  0  0  0  0
  -26.2840  -37.3410   23.7760 N   0  0  0  0  0  0  0  0  0  0  0  0
  -25.8540  -38.2450   23.9530 H   0  0  0  0  0  0  0  0  0  0  0  0
  -33.4260  -19.9460   19.2840 C   0  0  0  0  0  1  0  0  0  0  0  0
  -32.2220  -20.6310   19.6140 O   0  0  0  0  0  0  0  0  0  0  0  0
  1  2  1  0
  2  5  1  0
  2 19  1  0
  3  1  2  0
  3  4  1  0
  4 48  2  0
  4  6  1  0
  5  7  1  0
  6  5  2  0
  7  8  1  0
  7  9  1  0
 10 19  1  0
 11 16  1  0
 12 13  1  0
 12 11  1  0
 14 13  1  0
 14 23  1  0
 14 15  1  0
 16 10  1  0
 16 15  1  0
 17 10  2  0
 19 18  1  0
 20 21  2  0
 21 40  1  0
 22 21  1  0
 22 25  1  0
 23 24  1  0
 23 20  1  0
 24 22  2  0
 25 26  1  0
 26 27  2  0
 28 31  1  0
 28 27  1  0
 29 28  2  0
 30 29  1  0
 30 25  2  0
 31 32  1  0
 32 33  1  0
 33 34  2  0
 35 34  1  0
 35 39  1  0
 36 35  2  0
 37 32  2  0
 37 36  1  0
 38 37  1  0
 40 41  1  0
 41 44  1  0
 41 43  1  0
 42 40  2  0
 45 20  1  0
 45 46  1  0
 47 45  1  0
 49 48  2  0
 50 51  1  0
 50 49  1  0
 52 63  2  0
 53 51  1  0
 53 58  1  0
 54 62  1  0
 54 64  1  0
 55 61  1  0
 55 57  1  0
 56 62  1  0
 57 56  1  0
 58 57  2  0
 59 53  2  0
 60 59  1  0
 60 55  2  0
 61 54  1  0
 62 52  1  0
 64 66  2  0
 65 64  1  0
 67 65  1  0
 68 77  2  0
 68 73  1  0
 69 65  1  0
 69 73  1  0
 70 69  1  0
 71 72  1  0
 71 70  1  0
 72 68  1  0
 73 74  2  0
 74 75  1  0
 76 75  2  0
 77 76  1  0
 78 52  1  0
 78 83  1  0
 78 79  1  0
 79 82  1  1
 79 80  1  0
 81 79  1  0
 83 86  1  0
 84 88  1  0
 84 83  1  0
 85 84  2  0
 88 87  1  0
 90 88  1  0
 90 91  1  0
 90 89  1  0
 92 93  1  0
 93  3  1  0
M  ISO  4  10 100  19 100  50 101  51 101
M  END
>  <TORSDO>  (58) 
F 19

>  <SCORE>  (58) 
-13.678

>  <name>  (58) 
57

>  <ligand_id>  (58) 
57

>  <original_smiles>  (58) 
[H]C(=C([H])C([H])([H])Oc1c([H])c([H])c2c(c1[H])C([H])([H])N(C(=O)C([H])(N([H])C(=O)C([H])(N([H])C([H])([H])[H])C([H])([H])[H])C(C([H])([H])[H])(C([H])([H])[H])C([H])([H])[H])C([H])(C(=O)N([H])C1([H])c3c([H])c([H])c([H])c([H])c3C([H])([H])C([H])([H])C1([H])[H])C2([H])[H])c1nc(N([H])[H])c(N(C(=O)N2C([H])([H])C([H])([H])C([H])([H])C([H])(n3nc(-c4c([H])c([H])c(Oc5c([H])c([H])c(F)c([H])c5F)c([H])c4[H])c(C(=O)N([H])[H])c3N([H])[H])C2([H])[H])C([H])([H])[H])c([H])c1OC([H])([H])[H]

>  <smiles>  (58) 
[H]C(=C([H])C([H])([H])Oc1c([H])c([H])c2c(c1[H])C([H])([H])N(C(=O)C([H])(N([H])C(=O)C([H])(N([H])C([H])([H])[H])C([H])([H])[H])C(C([H])([H])[H])(C([H])([H])[H])C([H])([H])[H])C([H])(C(=O)N([H])C1([H])c3c([H])c([H])c([H])c([H])c3C([H])([H])C([H])([H])C1([H])[H])C2([H])[H])c1nc(N([H])[H])c(N(C(=O)N2C([H])([H])C([H])([H])C([H])([H])C([H])(n3nc(-c4c([H])c([H])c(Oc5c([H])c([H])c(F)c([H])c5F)c([H])c4[H])c(C(=O)N([H])[H])c3N([H])[H])C2([H])[H])C([H])([H])[H])c([H])c1OC([H])([H])[H]

$$$$
58:0:0
     RDKit          3D

 89 97  0  0  1  0  0  0  0  0999 V2000
  -29.4650  -20.3310   20.1860 C   0  0  0  0  0  2  0  0  0  0  0  0
  -27.9930  -16.7050   19.9700 C   0  0  0  0  0  3  0  0  0  0  0  0
  -27.0310  -17.7390   19.9480 C   0  0  0  0  0  0  0  0  0  0  0  0
  -29.2120  -17.3190   20.0280 C   0  0  0  0  0  0  0  0  0  0  0  0
  -25.5380  -17.6210   20.0210 C   0  0  0  0  0  1  0  0  0  0  0  0
  -27.5680  -18.9360   19.9120 N   0  0  0  0  0  0  0  0  0  0  0  0
  -28.9120  -18.8280   19.9950 N   0  0  0  0  0  0  0  0  0  0  0  0
  -30.8460  -15.1400   20.6070 C   0  0  0  0  0  0  0  0  0  0  0  0
  -30.8850  -12.5950   20.3630 C   0  0  0  0  0  2  0  0  0  0  0  0
  -30.1590  -12.0430   19.1140 C   0  0  0  0  0  2  0  0  0  0  0  0
  -28.6680  -11.8280   19.4150 C   0  0  0  0  0  2  0  0  0  0  0  0
  -28.0470  -13.0260   20.1810 C   0  0  0  0  0  3  0  0  0  0  0  0
  -28.9300  -13.4780   21.3660 C   0  0  0  0  0  2  0  0  0  0  0  0
  -30.2130  -13.8850   20.7700 N   0  0  0  0  0  0  0  0  0  0  0  0
  -32.0800  -15.0520   20.6210 O   0  0  0  0  0  0  0  0  0  0  0  0
  -30.3660  -16.4560   20.1810 N   0  0  0  0  0  0  0  0  0  0  0  0
  -31.1970  -16.9980   20.0080 H   0  0  0  0  0  0  0  0  0  0  0  0
  -25.6170  -13.6640   20.6210 C   0  0  0  0  0  0  0  0  0  0  0  0
  -24.5070  -12.9320   20.9270 C   0  0  0  0  0  0  0  0  0  0  0  0
  -24.9430  -11.5750   21.0120 C   0  0  0  0  0  0  0  0  0  0  0  0
  -26.6650  -12.7660   20.5600 N   0  0  0  0  0  0  0  0  0  0  0  0
  -26.2620  -11.5020   20.8540 N   0  0  0  0  0  0  0  0  0  0  0  0
  -24.1690  -10.3380   21.1730 C   0  0  0  0  0  0  0  0  0  0  0  0
  -24.5310   -9.3620   22.1260 C   0  0  0  0  0  3  0  0  0  0  0  0
  -23.7570   -8.1900   22.2780 C   0  0  0  0  0  3  0  0  0  0  0  0
  -22.6070   -7.9900   21.4770 C   0  0  0  0  0  0  0  0  0  0  0  0
  -22.2640   -8.9550   20.5140 C   0  0  0  0  0  3  0  0  0  0  0  0
  -23.0400  -10.1170   20.3600 C   0  0  0  0  0  3  0  0  0  0  0  0
  -21.8110   -6.8720   21.5400 O   0  0  0  0  0  0  0  0  0  0  0  0
  -21.7270   -6.1120   22.6790 C   0  0  0  0  0  0  0  0  0  0  0  0
  -21.3270   -6.6660   23.9150 C   0  0  0  0  0  3  0  0  0  0  0  0
  -21.1830   -5.8360   25.0450 C   0  0  0  0  0  3  0  0  0  0  0  0
  -21.4320   -4.4550   24.9410 C   0  0  0  0  0  0  0  0  0  0  0  0
  -21.8220   -3.9000   23.7090 C   0  0  0  0  0  3  0  0  0  0  0  0
  -21.9660   -4.7260   22.5810 C   0  0  0  0  0  0  0  0  0  0  0  0
  -22.3230   -4.1850   21.3920 F   0  0  0  0  0  0  0  0  0  0  0  0
  -21.2880   -3.6560   26.0230 F   0  0  0  0  0  0  0  0  0  0  0  0
  -23.1020  -13.4510   21.0270 C   0  0  0  0  0  0  0  0  0  0  0  0
  -22.2810  -12.8300   21.8670 N   0  0  0  0  0  0  0  0  0  0  0  0
  -22.7410  -14.4470   20.4010 O   0  0  0  0  0  0  0  0  0  0  0  0
  -22.5860  -12.0250   22.3940 H   0  0  0  0  0  0  0  0  0  0  0  0
  -21.3340  -13.1610   21.9800 H   0  0  0  0  0  0  0  0  0  0  0  0
  -25.8150  -15.0100   20.3500 N   0  0  0  0  0  0  0  0  0  0  0  0
  -25.0420  -15.6620   20.2890 H   0  0  0  0  0  0  0  0  0  0  0  0
  -26.7050  -15.4240   20.1060 H   0  0  0  0  0  0  0  0  0  0  0  0
  -28.7050  -21.7090   19.5730 C   0  0  0  0  0  3  0  0  0  0  0  0
  -28.3460  -23.1140   19.7230 C   0  0  0  0  0  3  0  0  0  0  0  0
  -28.3460  -24.4710   20.7010 C   0  0  0  0  0  2  0  0  0  0  0  0
  -28.4100  -26.0110   20.2780 O   0  0  0  0  0  0  0  0  0  0  0  0
  -24.6890  -31.7830   23.2320 C   0  0  0  0  0  0  0  0  0  0  0  0
  -27.3380  -27.0020   20.2980 C   0  0  0  0  0  0  0  0  0  0  0  0
  -23.5370  -30.3850   21.5620 C   0  0  0  0  0  3  0  0  0  0  0  0
  -25.0200  -28.7890   20.1890 C   0  0  0  0  0  0  0  0  0  0  0  0
  -26.0970  -30.6340   21.4670 C   0  0  0  0  0  2  0  0  0  0  0  0
  -26.1880  -29.2300   20.8260 C   0  0  0  0  0  0  0  0  0  0  0  0
  -27.3490  -28.3570   20.8520 C   0  0  0  0  0  3  0  0  0  0  0  0
  -26.1430  -26.6730   19.6280 C   0  0  0  0  0  3  0  0  0  0  0  0
  -25.0140  -27.5260   19.5740 C   0  0  0  0  0  3  0  0  0  0  0  0
  -23.7980  -29.7010   20.1940 C   0  0  0  0  0  2  0  0  0  0  0  0
  -24.7930  -30.9580   22.1420 N   0  0  0  0  0  0  0  0  0  0  0  0
  -23.5890  -32.0660   23.7320 O   0  0  0  0  0  0  0  0  0  0  0  0
  -22.8300  -29.3820   22.5100 C   0  0  0  0  0  0  0  0  0  0  0  0
  -21.5000  -29.2320   22.3710 N   0  0  0  0  0  0  0  0  0  0  0  0
  -23.4830  -28.7390   23.3370 O   0  0  0  0  0  0  0  0  0  0  0  0
  -21.0280  -29.8060   21.6880 H   0  0  0  0  0  0  0  0  0  0  0  0
  -18.0990  -28.0680   22.8490 C   0  0  0  0  0  0  0  0  0  0  0  0
  -20.6620  -28.2900   23.1220 C   0  0  0  0  0  3  0  0  0  0  0  0
  -20.7400  -26.8660   22.5220 C   0  0  0  0  0  2  0  0  0  0  0  0
  -19.6350  -26.5800   21.5000 C   0  0  0  0  0  2  0  0  0  0  0  0
  -18.2560  -26.7330   22.1420 C   0  0  0  0  0  2  0  0  0  0  0  0
  -19.2300  -28.8080   23.2920 C   0  0  0  0  0  0  0  0  0  0  0  0
  -19.0270  -30.0620   23.9090 C   0  0  0  0  0  3  0  0  0  0  0  0
  -17.7290  -30.5770   24.0850 C   0  0  0  0  0  3  0  0  0  0  0  0
  -16.6140  -29.8380   23.6530 C   0  0  0  0  0  3  0  0  0  0  0  0
  -16.8010  -28.5840   23.0430 C   0  0  0  0  0  3  0  0  0  0  0  0
  -25.9480  -32.4220   23.8950 C   0  0  0  0  0  3  0  0  0  0  0  0
  -26.4120  -31.6690   25.2030 C   0  0  1  0  0  0  0  0  0  0  0  0
  -25.2800  -31.4560   26.2350 C   0  0  0  0  0  1  0  0  0  0  0  0
  -27.0010  -30.2820   24.8600 C   0  0  0  0  0  1  0  0  0  0  0  0
  -27.5450  -32.4680   25.8920 C   0  0  0  0  0  1  0  0  0  0  0  0
  -25.6290  -33.8270   24.2020 N   0  0  0  0  0  0  0  0  0  0  0  0
  -25.9800  -34.8760   23.4470 C   0  0  0  0  0  0  0  0  0  0  0  0
  -26.6690  -34.7630   22.4310 O   0  0  0  0  0  0  0  0  0  0  0  0
  -25.0140  -33.9860   24.9860 H   0  0  0  0  0  0  0  0  0  0  0  0
  -24.2560  -36.6710   23.0600 C   0  0  0  0  0  1  0  0  0  0  0  0
  -25.4890  -36.2710   23.8850 C   0  0  0  0  0  3  0  0  0  0  0  0
  -27.6160  -37.1660   24.7290 C   0  0  0  0  0  1  0  0  0  0  0  0
  -26.5230  -37.3230   23.7720 N   0  0  0  0  0  0  0  0  0  0  0  0
  -26.1150  -38.2450   23.9030 H   0  0  0  0  0  0  0  0  0  0  0  0
  2  4  2  0
  3  2  1  0
  3  5  1  0
  4 16  1  0
  6  3  2  0
  6  7  1  0
  7  4  1  0
  7  1  1  0
  8 15  2  0
  8 14  1  0
  9 14  1  0
 10 11  1  0
 10  9  1  0
 12 11  1  0
 12 21  1  0
 12 13  1  0
 14 13  1  0
 16  8  1  0
 17 16  1  0
 18 19  2  0
 19 20  1  0
 19 38  1  0
 20 23  1  0
 21 18  1  0
 21 22  1  0
 22 20  2  0
 23 24  1  0
 24 25  2  0
 26 29  1  0
 26 25  1  0
 27 26  2  0
 28 27  1  0
 28 23  2  0
 29 30  1  0
 30 31  1  0
 31 32  2  0
 33 32  1  0
 33 37  1  0
 34 33  2  0
 35 30  2  0
 35 34  1  0
 36 35  1  0
 38 39  1  0
 39 42  1  0
 39 41  1  0
 40 38  2  0
 43 18  1  0
 44 43  1  0
 45 43  1  0
 46 47  2  0
 46  1  1  0
 47 48  1  0
 49 51  1  0
 49 48  1  0
 50 61  2  0
 51 56  1  0
 52 60  1  0
 52 62  1  0
 53 59  1  0
 53 55  1  0
 54 60  1  0
 55 56  2  0
 55 54  1  0
 57 51  2  0
 58 57  1  0
 58 53  2  0
 59 52  1  0
 60 50  1  0
 62 64  2  0
 63 62  1  0
 65 63  1  0
 66 75  2  0
 66 71  1  0
 67 63  1  0
 67 71  1  0
 68 67  1  0
 69 70  1  0
 69 68  1  0
 70 66  1  0
 71 72  2  0
 72 73  1  0
 74 73  2  0
 75 74  1  0
 76 50  1  0
 76 81  1  0
 76 77  1  0
 77 80  1  1
 77 78  1  0
 79 77  1  0
 81 84  1  0
 82 86  1  0
 82 81  1  0
 83 82  2  0
 86 85  1  0
 88 86  1  0
 88 89  1  0
 88 87  1  0
M  ISO  4   8 100  16 100  48 101  49 101
M  END
>  <TORSDO>  (59) 
F 19

>  <SCORE>  (59) 
-13.599

>  <name>  (59) 
58

>  <ligand_id>  (59) 
58

>  <original_smiles>  (59) 
[H]C(=C([H])C([H])([H])n1nc(C([H])([H])[H])c([H])c1N([H])C(=O)N1C([H])([H])C([H])([H])C([H])([H])C([H])(n2nc(-c3c([H])c([H])c(Oc4c([H])c([H])c(F)c([H])c4F)c([H])c3[H])c(C(=O)N([H])[H])c2N([H])[H])C1([H])[H])C([H])([H])Oc1c([H])c([H])c2c(c1[H])C([H])([H])N(C(=O)C([H])(N([H])C(=O)C([H])(N([H])C([H])([H])[H])C([H])([H])[H])C(C([H])([H])[H])(C([H])([H])[H])C([H])([H])[H])C([H])(C(=O)N([H])C1([H])c3c([H])c([H])c([H])c([H])c3C([H])([H])C([H])([H])C1([H])[H])C2([H])[H]

>  <smiles>  (59) 
[H]C(=C([H])C([H])([H])n1nc(C([H])([H])[H])c([H])c1N([H])C(=O)N1C([H])([H])C([H])([H])C([H])([H])C([H])(n2nc(-c3c([H])c([H])c(Oc4c([H])c([H])c(F)c([H])c4F)c([H])c3[H])c(C(=O)N([H])[H])c2N([H])[H])C1([H])[H])C([H])([H])Oc1c([H])c([H])c2c(c1[H])C([H])([H])N(C(=O)C([H])(N([H])C(=O)C([H])(N([H])C([H])([H])[H])C([H])([H])[H])C(C([H])([H])[H])(C([H])([H])[H])C([H])([H])[H])C([H])(C(=O)N([H])C1([H])c3c([H])c([H])c([H])c([H])c3C([H])([H])C([H])([H])C1([H])[H])C2([H])[H]

$$$$
59:0:0
     RDKit          3D

 94102  0  0  1  0  0  0  0  0999 V2000
  -31.1740  -17.9160   20.2040 C   0  0  0  0  0  3  0  0  0  0  0  0
  -28.8150  -19.3400   19.7730 C   0  0  0  0  0  3  0  0  0  0  0  0
  -29.9800  -17.1500   20.1730 C   0  0  0  0  0  0  0  0  0  0  0  0
  -28.7760  -17.9100   19.9340 C   0  0  0  0  0  0  0  0  0  0  0  0
  -31.1980  -19.3330   20.0620 C   0  0  0  0  0  0  0  0  0  0  0  0
  -30.0160  -20.0920   19.8530 C   0  0  0  0  0  0  0  0  0  0  0  0
  -32.5330  -20.0460   20.1770 C   0  0  0  0  0  1  0  0  0  0  0  0
  -29.9950  -15.6410   20.5400 C   0  0  0  0  0  0  0  0  0  0  0  0
  -29.7320  -15.2950   21.7340 N   0  0  0  0  0  0  0  0  0  0  0  0
  -29.5210  -16.1080   22.3030 H   0  0  0  0  0  0  0  0  0  0  0  0
  -30.4090  -14.5410   19.4950 C   0  0  0  0  0  0  0  0  0  0  0  0
  -30.0590  -12.2930   18.4670 C   0  0  0  0  0  2  0  0  0  0  0  0
  -28.9410  -12.3550   17.4020 C   0  0  0  0  0  2  0  0  0  0  0  0
  -27.5570  -12.1480   18.0450 C   0  0  0  0  0  2  0  0  0  0  0  0
  -27.3590  -13.0320   19.3020 C   0  0  0  0  0  3  0  0  0  0  0  0
  -28.5690  -12.9280   20.2540 C   0  0  0  0  0  2  0  0  0  0  0  0
  -29.7800  -13.3130   19.5060 N   0  0  0  0  0  0  0  0  0  0  0  0
  -31.3440  -14.7610   18.7170 O   0  0  0  0  0  0  0  0  0  0  0  0
  -25.1320  -13.5830   20.4620 C   0  0  0  0  0  0  0  0  0  0  0  0
  -24.1370  -12.7890   20.9590 C   0  0  0  0  0  0  0  0  0  0  0  0
  -24.5670  -11.4410   20.7560 C   0  0  0  0  0  0  0  0  0  0  0  0
  -26.1080  -12.7200   19.9880 N   0  0  0  0  0  0  0  0  0  0  0  0
  -25.7820  -11.4230   20.2210 N   0  0  0  0  0  0  0  0  0  0  0  0
  -23.8690  -10.1700   20.9870 C   0  0  0  0  0  0  0  0  0  0  0  0
  -24.3900   -9.1880   21.8590 C   0  0  0  0  0  3  0  0  0  0  0  0
  -23.6900   -7.9820   22.0750 C   0  0  0  0  0  3  0  0  0  0  0  0
  -22.4570   -7.7490   21.4210 C   0  0  0  0  0  0  0  0  0  0  0  0
  -21.9550   -8.7200   20.5360 C   0  0  0  0  0  3  0  0  0  0  0  0
  -22.6540   -9.9190   20.3180 C   0  0  0  0  0  3  0  0  0  0  0  0
  -21.7190   -6.5970   21.5530 O   0  0  0  0  0  0  0  0  0  0  0  0
  -21.6970   -5.8860   22.7260 C   0  0  0  0  0  0  0  0  0  0  0  0
  -21.2670   -6.4640   23.9400 C   0  0  0  0  0  3  0  0  0  0  0  0
  -21.1940   -5.6780   25.1070 C   0  0  0  0  0  3  0  0  0  0  0  0
  -21.5420   -4.3160   25.0620 C   0  0  0  0  0  0  0  0  0  0  0  0
  -21.9680   -3.7360   23.8540 C   0  0  0  0  0  3  0  0  0  0  0  0
  -22.0430   -4.5190   22.6890 C   0  0  0  0  0  0  0  0  0  0  0  0
  -22.4320   -3.9510   21.5220 F   0  0  0  0  0  0  0  0  0  0  0  0
  -21.4660   -3.5590   26.1830 F   0  0  0  0  0  0  0  0  0  0  0  0
  -22.8160  -13.2480   21.5090 C   0  0  0  0  0  0  0  0  0  0  0  0
  -22.2490  -12.4990   22.4470 N   0  0  0  0  0  0  0  0  0  0  0  0
  -22.3020  -14.3030   21.1380 O   0  0  0  0  0  0  0  0  0  0  0  0
  -22.6810  -11.6420   22.7630 H   0  0  0  0  0  0  0  0  0  0  0  0
  -21.3710  -12.7850   22.8580 H   0  0  0  0  0  0  0  0  0  0  0  0
  -25.2830  -14.9630   20.3520 N   0  0  0  0  0  0  0  0  0  0  0  0
  -24.5720  -15.6150   20.6590 H   0  0  0  0  0  0  0  0  0  0  0  0
  -26.0760  -15.4210   19.9220 H   0  0  0  0  0  0  0  0  0  0  0  0
  -26.2420  -17.8170   20.0120 C   0  0  0  0  0  2  0  0  0  0  0  0
  -27.4520  -17.2360   19.9240 C   0  0  0  0  0  3  0  0  0  0  0  0
  -30.1140  -21.5010   19.8350 O   0  0  0  0  0  0  0  0  0  0  0  0
  -29.0570  -22.4110   19.3940 C   0  0  0  0  0  2  0  0  0  0  0  0
  -29.2980  -23.9430   19.8080 C   0  0  0  0  0  2  0  0  0  0  0  0
  -28.6360  -25.1320   17.6480 C   0  0  0  0  0  1  0  0  0  0  0  0
  -28.3710  -25.0740   19.1690 C   0  0  0  0  0  3  0  0  0  0  0  0
  -28.4750  -26.4690   19.6900 O   0  0  0  0  0  0  0  0  0  0  0  0
  -24.6260  -31.6220   23.0220 C   0  0  0  0  0  0  0  0  0  0  0  0
  -27.3330  -27.2990   19.6960 C   0  0  0  0  0  0  0  0  0  0  0  0
  -23.4510  -30.2810   21.3200 C   0  0  0  0  0  3  0  0  0  0  0  0
  -24.9300  -28.8660   19.7960 C   0  0  0  0  0  0  0  0  0  0  0  0
  -25.9840  -30.6770   21.1430 C   0  0  0  0  0  2  0  0  0  0  0  0
  -26.0930  -29.3430   20.4080 C   0  0  0  0  0  0  0  0  0  0  0  0
  -27.2990  -28.5750   20.3450 C   0  0  0  0  0  3  0  0  0  0  0  0
  -26.1270  -26.8790   19.0840 C   0  0  0  0  0  3  0  0  0  0  0  0
  -24.9500  -27.6400   19.1230 C   0  0  0  0  0  3  0  0  0  0  0  0
  -23.6700  -29.7000   19.9010 C   0  0  0  0  0  2  0  0  0  0  0  0
  -24.7060  -30.8730   21.8830 N   0  0  0  0  0  0  0  0  0  0  0  0
  -23.5380  -31.8420   23.5730 O   0  0  0  0  0  0  0  0  0  0  0  0
  -22.8230  -29.1920   22.2230 C   0  0  0  0  0  0  0  0  0  0  0  0
  -21.4970  -29.0110   22.1200 N   0  0  0  0  0  0  0  0  0  0  0  0
  -23.5310  -28.5220   22.9800 O   0  0  0  0  0  0  0  0  0  0  0  0
  -20.9890  -29.6030   21.4770 H   0  0  0  0  0  0  0  0  0  0  0  0
  -18.1430  -27.7620   22.6440 C   0  0  0  0  0  0  0  0  0  0  0  0
  -20.7070  -28.0160   22.8460 C   0  0  0  0  0  3  0  0  0  0  0  0
  -20.7950  -26.6300   22.1680 C   0  0  0  0  0  2  0  0  0  0  0  0
  -19.6610  -26.3710   21.1710 C   0  0  0  0  0  2  0  0  0  0  0  0
  -18.3020  -26.4650   21.8700 C   0  0  0  0  0  2  0  0  0  0  0  0
  -19.2720  -28.4970   23.0880 C   0  0  0  0  0  0  0  0  0  0  0  0
  -19.0700  -29.7160   23.7720 C   0  0  0  0  0  3  0  0  0  0  0  0
  -17.7700  -30.1980   24.0140 C   0  0  0  0  0  3  0  0  0  0  0  0
  -16.6560  -29.4550   23.5910 C   0  0  0  0  0  3  0  0  0  0  0  0
  -16.8420  -28.2380   22.9100 C   0  0  0  0  0  3  0  0  0  0  0  0
  -25.8950  -32.2550   23.6660 C   0  0  0  0  0  3  0  0  0  0  0  0
  -25.5560  -33.6310   24.0560 N   0  0  0  0  0  0  0  0  0  0  0  0
  -25.8660  -34.7230   23.3450 C   0  0  0  0  0  0  0  0  0  0  0  0
  -26.5450  -34.6810   22.3160 O   0  0  0  0  0  0  0  0  0  0  0  0
  -24.9550  -33.7360   24.8600 H   0  0  0  0  0  0  0  0  0  0  0  0
  -24.1030  -36.4930   23.0590 C   0  0  0  0  0  1  0  0  0  0  0  0
  -25.3450  -36.0780   23.8630 C   0  0  0  0  0  3  0  0  0  0  0  0
  -27.4510  -36.9700   24.7570 C   0  0  0  0  0  1  0  0  0  0  0  0
  -26.3560  -37.1580   23.8070 N   0  0  0  0  0  0  0  0  0  0  0  0
  -25.9270  -38.0600   23.9950 H   0  0  0  0  0  0  0  0  0  0  0  0
  -26.4330  -31.4460   24.9090 C   0  0  1  0  0  0  0  0  0  0  0  0
  -25.3520  -31.1470   25.9730 C   0  0  0  0  0  1  0  0  0  0  0  0
  -27.0410  -30.0930   24.4680 C   0  0  0  0  0  1  0  0  0  0  0  0
  -27.5770  -32.2390   25.5850 C   0  0  0  0  0  1  0  0  0  0  0  0
  2  6  2  0
  2  4  1  0
  3  1  1  0
  3  8  1  0
  4  3  2  0
  5  7  1  0
  5  1  2  0
  6  5  1  0
  8  9  2  0
  9 10  1  0
 11 17  1  0
 11  8  1  0
 12 17  1  0
 13 14  1  0
 13 12  1  0
 15 14  1  0
 15 22  1  0
 15 16  1  0
 17 16  1  0
 18 11  2  0
 19 20  2  0
 20 39  1  0
 21 20  1  0
 21 24  1  0
 22 23  1  0
 22 19  1  0
 23 21  2  0
 24 25  1  0
 25 26  2  0
 27 30  1  0
 27 26  1  0
 28 27  2  0
 29 28  1  0
 29 24  2  0
 30 31  1  0
 31 32  1  0
 32 33  2  0
 34 33  1  0
 34 38  1  0
 35 34  2  0
 36 31  2  0
 36 35  1  0
 37 36  1  0
 39 40  1  0
 40 42  1  0
 40 43  1  0
 41 39  2  0
 44 19  1  0
 44 45  1  0
 46 44  1  0
 48  4  1  0
 48 47  2  0
 49  6  1  0
 50 51  1  0
 50 49  1  0
 53 52  1  0
 53 54  1  0
 53 51  1  0
 54 56  1  0
 55 66  2  0
 56 61  1  0
 57 65  1  0
 57 67  1  0
 58 64  1  0
 58 60  1  0
 59 65  1  0
 60 59  1  0
 61 60  2  0
 62 63  1  0
 62 56  2  0
 63 58  2  0
 64 57  1  0
 65 55  1  0
 67 69  2  0
 68 67  1  0
 70 68  1  0
 71 80  2  0
 71 76  1  0
 72 68  1  0
 72 76  1  0
 73 72  1  0
 74 75  1  0
 74 73  1  0
 75 71  1  0
 76 77  2  0
 77 78  1  0
 79 78  2  0
 80 79  1  0
 81 55  1  0
 81 82  1  0
 81 91  1  0
 82 85  1  0
 83 87  1  0
 83 82  1  0
 84 83  2  0
 87 86  1  0
 89 87  1  0
 89 90  1  0
 89 88  1  0
 91 94  1  1
 91 92  1  0
 93 91  1  0
M  ISO  4   8 100  11 100  53 101  54 101
M  END
>  <TORSDO>  (60) 
F 22

>  <SCORE>  (60) 
-12.096

>  <name>  (60) 
59

>  <ligand_id>  (60) 
59

>  <original_smiles>  (60) 
[H]N=C(C(=O)N1C([H])([H])C([H])([H])C([H])([H])C([H])(n2nc(-c3c([H])c([H])c(Oc4c([H])c([H])c(F)c([H])c4F)c([H])c3[H])c(C(=O)N([H])[H])c2N([H])[H])C1([H])[H])c1c([H])c(C([H])([H])[H])c(OC([H])([H])C([H])([H])C([H])(Oc2c([H])c([H])c3c(c2[H])C([H])([H])N(C(=O)C([H])(N([H])C(=O)C([H])(N([H])C([H])([H])[H])C([H])([H])[H])C(C([H])([H])[H])(C([H])([H])[H])C([H])([H])[H])C([H])(C(=O)N([H])C2([H])c4c([H])c([H])c([H])c([H])c4C([H])([H])C([H])([H])C2([H])[H])C3([H])[H])C([H])([H])[H])c([H])c1C([H])=C([H])[H]

>  <smiles>  (60) 
[H]N=C(C(=O)N1C([H])([H])C([H])([H])C([H])([H])C([H])(n2nc(-c3c([H])c([H])c(Oc4c([H])c([H])c(F)c([H])c4F)c([H])c3[H])c(C(=O)N([H])[H])c2N([H])[H])C1([H])[H])c1c([H])c(C([H])([H])[H])c(OC([H])([H])C([H])([H])C([H])(Oc2c([H])c([H])c3c(c2[H])C([H])([H])N(C(=O)C([H])(N([H])C(=O)C([H])(N([H])C([H])([H])[H])C([H])([H])[H])C(C([H])([H])[H])(C([H])([H])[H])C([H])([H])[H])C([H])(C(=O)N([H])C2([H])c4c([H])c([H])c([H])c([H])c4C([H])([H])C([H])([H])C2([H])[H])C3([H])[H])C([H])([H])[H])c([H])c1C([H])=C([H])[H]

$$$$
60:0:0
     RDKit          3D

 93101  0  0  1  0  0  0  0  0999 V2000
  -29.3640  -17.8300   21.1920 C   0  0  0  0  0  3  0  0  0  0  0  0
  -29.1510  -19.2030   21.5080 C   0  0  0  0  0  3  0  0  0  0  0  0
  -30.0550  -17.4570   20.0130 C   0  0  0  0  0  0  0  0  0  0  0  0
  -29.6160  -20.2340   20.6580 C   0  0  0  0  0  0  0  0  0  0  0  0
  -30.5710  -18.5700   19.2760 C   0  0  0  0  0  0  0  0  0  0  0  0
  -30.3600  -19.8870   19.5760 N   0  0  0  0  0  0  0  0  0  0  0  0
  -29.9760  -16.0250   19.4620 C   0  0  0  0  0  0  0  0  0  0  0  0
  -29.2620  -15.8890   18.4220 N   0  0  0  0  0  0  0  0  0  0  0  0
  -28.8080  -16.7500   18.1450 H   0  0  0  0  0  0  0  0  0  0  0  0
  -30.8190  -14.7940   19.9960 C   0  0  0  0  0  0  0  0  0  0  0  0
  -30.5560  -12.5060   19.0680 C   0  0  0  0  0  2  0  0  0  0  0  0
  -29.5550  -12.5580   17.8910 C   0  0  0  0  0  2  0  0  0  0  0  0
  -28.1030  -12.4010   18.3940 C   0  0  0  0  0  2  0  0  0  0  0  0
  -27.7770  -13.2970   19.6170 C   0  0  0  0  0  3  0  0  0  0  0  0
  -28.9030  -13.2670   20.6740 C   0  0  0  0  0  2  0  0  0  0  0  0
  -30.1790  -13.5750   20.0100 N   0  0  0  0  0  0  0  0  0  0  0  0
  -32.0420  -14.8710   19.8700 O   0  0  0  0  0  0  0  0  0  0  0  0
  -25.4530  -13.9220   20.4920 C   0  0  0  0  0  0  0  0  0  0  0  0
  -24.3930  -13.1570   20.8900 C   0  0  0  0  0  0  0  0  0  0  0  0
  -24.8320  -11.8010   20.8040 C   0  0  0  0  0  0  0  0  0  0  0  0
  -26.4660  -13.0260   20.1830 N   0  0  0  0  0  0  0  0  0  0  0  0
  -26.1050  -11.7470   20.4350 N   0  0  0  0  0  0  0  0  0  0  0  0
  -24.1010  -10.5450   20.9910 C   0  0  0  0  0  0  0  0  0  0  0  0
  -24.5360   -9.5700   21.9150 C   0  0  0  0  0  3  0  0  0  0  0  0
  -23.8050   -8.3770   22.0910 C   0  0  0  0  0  3  0  0  0  0  0  0
  -22.6260   -8.1500   21.3420 C   0  0  0  0  0  0  0  0  0  0  0  0
  -22.2100   -9.1150   20.4070 C   0  0  0  0  0  3  0  0  0  0  0  0
  -22.9420  -10.3000   20.2280 C   0  0  0  0  0  3  0  0  0  0  0  0
  -21.8660   -7.0100   21.4300 O   0  0  0  0  0  0  0  0  0  0  0  0
  -21.7900   -6.2850   22.5910 C   0  0  0  0  0  0  0  0  0  0  0  0
  -21.2830   -6.8420   23.7850 C   0  0  0  0  0  3  0  0  0  0  0  0
  -21.1580   -6.0400   24.9380 C   0  0  0  0  0  3  0  0  0  0  0  0
  -21.5310   -4.6830   24.8960 C   0  0  0  0  0  0  0  0  0  0  0  0
  -22.0310   -4.1260   23.7060 C   0  0  0  0  0  3  0  0  0  0  0  0
  -22.1580   -4.9240   22.5560 C   0  0  0  0  0  0  0  0  0  0  0  0
  -22.6210   -4.3790   21.4060 F   0  0  0  0  0  0  0  0  0  0  0  0
  -21.4020   -3.9100   26.0010 F   0  0  0  0  0  0  0  0  0  0  0  0
  -23.0160  -13.6480   21.2350 C   0  0  0  0  0  0  0  0  0  0  0  0
  -22.3160  -12.9370   22.1100 N   0  0  0  0  0  0  0  0  0  0  0  0
  -22.5740  -14.6950   20.7640 O   0  0  0  0  0  0  0  0  0  0  0  0
  -22.6880  -12.0900   22.5140 H   0  0  0  0  0  0  0  0  0  0  0  0
  -21.3930  -13.2460   22.3850 H   0  0  0  0  0  0  0  0  0  0  0  0
  -25.6320  -15.2960   20.3420 N   0  0  0  0  0  0  0  0  0  0  0  0
  -24.8820  -15.9610   20.4940 H   0  0  0  0  0  0  0  0  0  0  0  0
  -26.4670  -15.7180   19.9530 H   0  0  0  0  0  0  0  0  0  0  0  0
  -31.3050  -18.4070   18.1080 N   0  0  0  0  0  0  0  0  0  0  0  0
  -31.3920  -19.2000   17.4840 H   0  0  0  0  0  0  0  0  0  0  0  0
  -31.2620  -17.5100   17.6360 H   0  0  0  0  0  0  0  0  0  0  0  0
  -29.2710  -22.6270   20.2170 C   0  0  0  0  0  3  0  0  0  0  0  0
  -29.3220  -21.5960   21.0070 N   0  0  0  0  0  0  0  0  0  0  0  0
  -28.9320  -24.0900   20.7050 C   0  0  0  0  0  3  0  0  0  0  0  0
  -28.7660  -25.2470   19.6300 C   0  0  0  0  0  3  0  0  0  0  0  0
  -28.6200  -26.6370   20.1220 O   0  0  0  0  0  0  0  0  0  0  0  0
  -24.6310  -31.7860   23.1660 C   0  0  0  0  0  0  0  0  0  0  0  0
  -27.4350  -27.3840   20.0580 C   0  0  0  0  0  0  0  0  0  0  0  0
  -23.4990  -30.4050   21.4590 C   0  0  0  0  0  3  0  0  0  0  0  0
  -25.0190  -28.9240   20.0330 C   0  0  0  0  0  0  0  0  0  0  0  0
  -26.0310  -30.7900   21.3460 C   0  0  0  0  0  2  0  0  0  0  0  0
  -26.1580  -29.4310   20.6690 C   0  0  0  0  0  0  0  0  0  0  0  0
  -27.3630  -28.6730   20.6720 C   0  0  0  0  0  3  0  0  0  0  0  0
  -26.2650  -26.9170   19.4140 C   0  0  0  0  0  3  0  0  0  0  0  0
  -25.0740  -27.6720   19.4000 C   0  0  0  0  0  3  0  0  0  0  0  0
  -23.7610  -29.7670   20.0690 C   0  0  0  0  0  2  0  0  0  0  0  0
  -24.7370  -31.0100   22.0490 N   0  0  0  0  0  0  0  0  0  0  0  0
  -23.5280  -32.0240   23.6810 O   0  0  0  0  0  0  0  0  0  0  0  0
  -22.8370  -29.3490   22.3770 C   0  0  0  0  0  0  0  0  0  0  0  0
  -21.5130  -29.1690   22.2320 N   0  0  0  0  0  0  0  0  0  0  0  0
  -23.5130  -28.6970   23.1760 O   0  0  0  0  0  0  0  0  0  0  0  0
  -21.0270  -29.7490   21.5620 H   0  0  0  0  0  0  0  0  0  0  0  0
  -18.1300  -27.9810   22.7020 C   0  0  0  0  0  0  0  0  0  0  0  0
  -20.6930  -28.2000   22.9600 C   0  0  0  0  0  3  0  0  0  0  0  0
  -20.7750  -26.8000   22.3070 C   0  0  0  0  0  2  0  0  0  0  0  0
  -19.6600  -26.5440   21.2880 C   0  0  0  0  0  2  0  0  0  0  0  0
  -18.2860  -26.6690   21.9530 C   0  0  0  0  0  2  0  0  0  0  0  0
  -19.2600  -28.7090   23.1610 C   0  0  0  0  0  0  0  0  0  0  0  0
  -19.0600  -29.9400   23.8210 C   0  0  0  0  0  3  0  0  0  0  0  0
  -17.7620  -30.4450   24.0260 C   0  0  0  0  0  3  0  0  0  0  0  0
  -16.6460  -29.7140   23.5830 C   0  0  0  0  0  3  0  0  0  0  0  0
  -16.8310  -28.4840   22.9270 C   0  0  0  0  0  3  0  0  0  0  0  0
  -25.8840  -32.4280   23.8380 C   0  0  0  0  0  3  0  0  0  0  0  0
  -25.5500  -33.8230   24.1580 N   0  0  0  0  0  0  0  0  0  0  0  0
  -25.8950  -34.8800   23.4110 C   0  0  0  0  0  0  0  0  0  0  0  0
  -26.5960  -34.7830   22.3990 O   0  0  0  0  0  0  0  0  0  0  0  0
  -24.9300  -33.9710   24.9420 H   0  0  0  0  0  0  0  0  0  0  0  0
  -24.1670  -36.6600   22.9970 C   0  0  0  0  0  1  0  0  0  0  0  0
  -25.3810  -36.2630   23.8530 C   0  0  0  0  0  3  0  0  0  0  0  0
  -27.4660  -37.1720   24.7750 C   0  0  0  0  0  1  0  0  0  0  0  0
  -26.4090  -37.3240   23.7800 N   0  0  0  0  0  0  0  0  0  0  0  0
  -25.9890  -38.2420   23.9010 H   0  0  0  0  0  0  0  0  0  0  0  0
  -26.3570  -31.6590   25.1330 C   0  0  1  0  0  0  0  0  0  0  0  0
  -25.2250  -31.4110   26.1580 C   0  0  0  0  0  1  0  0  0  0  0  0
  -26.9660  -30.2870   24.7620 C   0  0  0  0  0  1  0  0  0  0  0  0
  -27.4750  -32.4610   25.8400 C   0  0  0  0  0  1  0  0  0  0  0  0
  1  2  2  0
  3  1  1  0
  4 50  1  0
  4  2  1  0
  5  6  1  0
  5  3  2  0
  6  4  2  0
  7 10  1  0
  7  3  1  0
  8  7  2  0
  9  8  1  0
 10 16  1  0
 11 16  1  0
 12 13  1  0
 12 11  1  0
 14 13  1  0
 14 21  1  0
 14 15  1  0
 16 15  1  0
 17 10  2  0
 18 19  2  0
 19 38  1  0
 20 19  1  0
 20 23  1  0
 21 22  1  0
 21 18  1  0
 22 20  2  0
 23 24  1  0
 24 25  2  0
 26 29  1  0
 26 25  1  0
 27 26  2  0
 28 27  1  0
 28 23  2  0
 29 30  1  0
 30 31  1  0
 31 32  2  0
 33 32  1  0
 33 37  1  0
 34 33  2  0
 35 30  2  0
 35 34  1  0
 36 35  1  0
 38 39  1  0
 39 42  1  0
 39 41  1  0
 40 38  2  0
 43 18  1  0
 43 44  1  0
 45 43  1  0
 46  5  1  0
 47 46  1  0
 48 46  1  0
 49 51  1  0
 49 50  2  0
 52 53  1  0
 52 51  2  0
 54 65  2  0
 55 53  1  0
 55 60  1  0
 56 64  1  0
 56 66  1  0
 57 63  1  0
 57 59  1  0
 58 64  1  0
 59 60  2  0
 59 58  1  0
 61 55  2  0
 62 61  1  0
 62 57  2  0
 63 56  1  0
 64 54  1  0
 66 68  2  0
 67 66  1  0
 69 67  1  0
 70 79  2  0
 70 75  1  0
 71 67  1  0
 71 75  1  0
 72 71  1  0
 73 74  1  0
 73 72  1  0
 74 70  1  0
 75 76  2  0
 76 77  1  0
 78 77  2  0
 79 78  1  0
 80 54  1  0
 80 81  1  0
 80 90  1  0
 81 84  1  0
 82 86  1  0
 82 81  1  0
 83 82  2  0
 86 85  1  0
 88 86  1  0
 88 89  1  0
 88 87  1  0
 90 93  1  1
 90 91  1  0
 92 90  1  0
M  ISO  4   7 100  10 100  52 101  53 101
M  END
>  <TORSDO>  (61) 
F 21

>  <SCORE>  (61) 
-12.534

>  <name>  (61) 
60

>  <ligand_id>  (61) 
60

>  <original_smiles>  (61) 
[H]N=C(C(=O)N1C([H])([H])C([H])([H])C([H])([H])C([H])(n2nc(-c3c([H])c([H])c(Oc4c([H])c([H])c(F)c([H])c4F)c([H])c3[H])c(C(=O)N([H])[H])c2N([H])[H])C1([H])[H])c1c(N([H])[H])nc(N=C([H])C([H])([H])C([H])([H])Oc2c([H])c([H])c3c(c2[H])C([H])([H])N(C(=O)C([H])(N([H])C(=O)C([H])(N([H])C([H])([H])[H])C([H])([H])[H])C(C([H])([H])[H])(C([H])([H])[H])C([H])([H])[H])C([H])(C(=O)N([H])C2([H])c4c([H])c([H])c([H])c([H])c4C([H])([H])C([H])([H])C2([H])[H])C3([H])[H])c([H])c1[H]

>  <smiles>  (61) 
[H]N=C(C(=O)N1C([H])([H])C([H])([H])C([H])([H])C([H])(n2nc(-c3c([H])c([H])c(Oc4c([H])c([H])c(F)c([H])c4F)c([H])c3[H])c(C(=O)N([H])[H])c2N([H])[H])C1([H])[H])c1c(N([H])[H])nc(N=C([H])C([H])([H])C([H])([H])Oc2c([H])c([H])c3c(c2[H])C([H])([H])N(C(=O)C([H])(N([H])C(=O)C([H])(N([H])C([H])([H])[H])C([H])([H])[H])C(C([H])([H])[H])(C([H])([H])[H])C([H])([H])[H])C([H])(C(=O)N([H])C2([H])c4c([H])c([H])c([H])c([H])c4C([H])([H])C([H])([H])C2([H])[H])C3([H])[H])c([H])c1[H]

$$$$
61:0:0
     RDKit          3D

 94103  0  0  1  0  0  0  0  0999 V2000
  -29.1970  -24.2400   19.8350 C   0  0  0  0  0  0  0  0  0  0  0  0
  -28.7080  -25.4510   20.3280 C   0  0  0  0  0  3  0  0  0  0  0  0
  -29.8880  -24.0590   18.5050 C   0  0  0  0  0  2  0  0  0  0  0  0
  -30.4290  -22.6040   18.4620 C   0  0  0  0  0  2  0  0  0  0  0  0
  -29.1390  -22.7820   20.4650 C   0  0  0  0  0  3  0  0  0  0  0  0
  -29.7930  -21.8080   19.5190 N   0  0  0  0  0  0  0  0  0  0  0  0
  -31.2180  -19.7420   19.1590 C   0  0  0  0  0  3  0  0  0  0  0  0
  -31.3030  -18.3030   19.3050 C   0  0  0  0  0  3  0  0  0  0  0  0
  -30.0740  -20.3650   19.6240 C   0  0  0  0  0  0  0  0  0  0  0  0
  -30.2250  -17.6790   19.8980 C   0  0  0  0  0  0  0  0  0  0  0  0
  -29.0680  -19.0240   20.2820 S   0  0  0  0  0  0  0  0  0  0  0  0
  -30.8450  -15.1860   20.0660 C   0  0  0  0  0  0  0  0  0  0  0  0
  -30.7360  -12.8070   19.2940 C   0  0  0  0  0  2  0  0  0  0  0  0
  -29.8010  -12.7150   18.0670 C   0  0  0  0  0  2  0  0  0  0  0  0
  -28.3360  -12.5390   18.5100 C   0  0  0  0  0  2  0  0  0  0  0  0
  -27.9250  -13.5320   19.6290 C   0  0  0  0  0  3  0  0  0  0  0  0
  -28.9810  -13.5940   20.7550 C   0  0  0  0  0  2  0  0  0  0  0  0
  -30.2650  -13.9360   20.1300 N   0  0  0  0  0  0  0  0  0  0  0  0
  -32.0330  -15.2840   19.7450 O   0  0  0  0  0  0  0  0  0  0  0  0
  -30.0160  -16.3050   20.1620 N   0  0  0  0  0  0  0  0  0  0  0  0
  -29.0630  -16.0650   20.3930 H   0  0  0  0  0  0  0  0  0  0  0  0
  -25.5650  -14.1400   20.4270 C   0  0  0  0  0  0  0  0  0  0  0  0
  -24.4930  -13.3720   20.7970 C   0  0  0  0  0  0  0  0  0  0  0  0
  -24.9340  -12.0150   20.7180 C   0  0  0  0  0  0  0  0  0  0  0  0
  -26.5880  -13.2510   20.1420 N   0  0  0  0  0  0  0  0  0  0  0  0
  -26.2180  -11.9670   20.3810 N   0  0  0  0  0  0  0  0  0  0  0  0
  -24.1900  -10.7590   20.8840 C   0  0  0  0  0  0  0  0  0  0  0  0
  -24.5740   -9.7960   21.8430 C   0  0  0  0  0  3  0  0  0  0  0  0
  -23.8300   -8.6050   21.9990 C   0  0  0  0  0  3  0  0  0  0  0  0
  -22.6900   -8.3710   21.1940 C   0  0  0  0  0  0  0  0  0  0  0  0
  -22.3270   -9.3230   20.2250 C   0  0  0  0  0  3  0  0  0  0  0  0
  -23.0710  -10.5040   20.0670 C   0  0  0  0  0  3  0  0  0  0  0  0
  -21.9220   -7.2330   21.2570 O   0  0  0  0  0  0  0  0  0  0  0  0
  -21.6930   -6.5840   22.4440 C   0  0  0  0  0  0  0  0  0  0  0  0
  -21.0570   -7.2210   23.5310 C   0  0  0  0  0  3  0  0  0  0  0  0
  -20.7790   -6.4960   24.7070 C   0  0  0  0  0  3  0  0  0  0  0  0
  -21.1290   -5.1350   24.7950 C   0  0  0  0  0  0  0  0  0  0  0  0
  -21.7560   -4.4970   23.7110 C   0  0  0  0  0  3  0  0  0  0  0  0
  -22.0360   -5.2190   22.5380 C   0  0  0  0  0  0  0  0  0  0  0  0
  -22.6220   -4.5940   21.4880 F   0  0  0  0  0  0  0  0  0  0  0  0
  -20.8550   -4.4360   25.9210 F   0  0  0  0  0  0  0  0  0  0  0  0
  -23.1100  -13.8630   21.1110 C   0  0  0  0  0  0  0  0  0  0  0  0
  -22.4000  -13.1720   21.9950 N   0  0  0  0  0  0  0  0  0  0  0  0
  -22.6700  -14.8950   20.6060 O   0  0  0  0  0  0  0  0  0  0  0  0
  -22.7700  -12.3370   22.4240 H   0  0  0  0  0  0  0  0  0  0  0  0
  -21.4730  -13.4830   22.2480 H   0  0  0  0  0  0  0  0  0  0  0  0
  -25.7450  -15.5120   20.2840 N   0  0  0  0  0  0  0  0  0  0  0  0
  -24.9860  -16.1700   20.4220 H   0  0  0  0  0  0  0  0  0  0  0  0
  -26.5800  -15.9480   19.9140 H   0  0  0  0  0  0  0  0  0  0  0  0
  -29.8300  -22.7780   21.8460 C   0  0  0  0  0  0  0  0  0  0  0  0
  -30.5330  -23.7080   22.2550 O   0  0  0  0  0  0  0  0  0  0  0  0
  -30.9670  -20.9410   23.2150 C   0  0  0  0  0  1  0  0  0  0  0  0
  -29.6380  -21.5350   22.7160 C   0  0  0  0  0  2  0  0  0  0  0  0
  -28.7640  -26.7730   19.7750 O   0  0  0  0  0  0  0  0  0  0  0  0
  -24.7160  -31.7120   23.3040 C   0  0  0  0  0  0  0  0  0  0  0  0
  -27.6150  -27.6040   19.8380 C   0  0  0  0  0  0  0  0  0  0  0  0
  -23.5980  -30.3670   21.5630 C   0  0  0  0  0  3  0  0  0  0  0  0
  -25.1420  -29.0620   19.9890 C   0  0  0  0  0  0  0  0  0  0  0  0
  -26.1070  -30.8880   21.3820 C   0  0  0  0  0  2  0  0  0  0  0  0
  -26.2830  -29.5750   20.6180 C   0  0  0  0  0  0  0  0  0  0  0  0
  -27.5250  -28.8590   20.5340 C   0  0  0  0  0  3  0  0  0  0  0  0
  -26.4470  -27.1680   19.1760 C   0  0  0  0  0  3  0  0  0  0  0  0
  -25.2270  -27.8670   19.2560 C   0  0  0  0  0  3  0  0  0  0  0  0
  -23.8420  -29.8330   20.1270 C   0  0  0  0  0  2  0  0  0  0  0  0
  -24.8270  -31.0040   22.1400 N   0  0  0  0  0  0  0  0  0  0  0  0
  -23.6230  -31.8540   23.8730 O   0  0  0  0  0  0  0  0  0  0  0  0
  -23.0330  -29.2220   22.4400 C   0  0  0  0  0  0  0  0  0  0  0  0
  -21.7350  -28.9170   22.2810 N   0  0  0  0  0  0  0  0  0  0  0  0
  -23.7650  -28.6150   23.2270 O   0  0  0  0  0  0  0  0  0  0  0  0
  -21.1970  -29.4640   21.6230 H   0  0  0  0  0  0  0  0  0  0  0  0
  -18.5070  -27.3120   22.6130 C   0  0  0  0  0  0  0  0  0  0  0  0
  -21.0120  -27.8480   22.9730 C   0  0  0  0  0  3  0  0  0  0  0  0
  -21.2920  -26.4730   22.3220 C   0  0  0  0  0  2  0  0  0  0  0  0
  -20.2590  -26.0880   21.2570 C   0  0  0  0  0  2  0  0  0  0  0  0
  -18.8550  -26.0350   21.8680 C   0  0  0  0  0  2  0  0  0  0  0  0
  -19.5190  -28.1720   23.1190 C   0  0  0  0  0  0  0  0  0  0  0  0
  -19.1400  -29.3630   23.7740 C   0  0  0  0  0  3  0  0  0  0  0  0
  -17.7810  -29.6970   23.9310 C   0  0  0  0  0  3  0  0  0  0  0  0
  -16.7840  -28.8360   23.4420 C   0  0  0  0  0  3  0  0  0  0  0  0
  -17.1480  -27.6450   22.7890 C   0  0  0  0  0  3  0  0  0  0  0  0
  -25.9520  -32.3940   23.9640 C   0  0  0  0  0  3  0  0  0  0  0  0
  -26.4770  -31.6280   25.2410 C   0  0  1  0  0  0  0  0  0  0  0  0
  -25.3730  -31.3230   26.2810 C   0  0  0  0  0  1  0  0  0  0  0  0
  -27.1300  -30.2830   24.8430 C   0  0  0  0  0  1  0  0  0  0  0  0
  -27.5770  -32.4630   25.9390 C   0  0  0  0  0  1  0  0  0  0  0  0
  -25.5710  -33.7710   24.3100 N   0  0  0  0  0  0  0  0  0  0  0  0
  -25.8540  -34.8490   23.5680 C   0  0  0  0  0  0  0  0  0  0  0  0
  -26.5320  -34.7930   22.5380 O   0  0  0  0  0  0  0  0  0  0  0  0
  -24.9630  -33.8840   25.1080 H   0  0  0  0  0  0  0  0  0  0  0  0
  -24.0400  -36.5600   23.2330 C   0  0  0  0  0  1  0  0  0  0  0  0
  -25.2980  -36.2050   24.0430 C   0  0  0  0  0  3  0  0  0  0  0  0
  -27.3780  -37.1870   24.9040 C   0  0  0  0  0  1  0  0  0  0  0  0
  -26.2770  -37.3100   23.9510 N   0  0  0  0  0  0  0  0  0  0  0  0
  -25.8230  -38.2060   24.1070 H   0  0  0  0  0  0  0  0  0  0  0  0
  1  2  2  0
  1  5  1  0
  3  1  1  0
  4  3  1  0
  4  6  1  0
  5 50  1  0
  6  9  1  0
  6  5  1  0
  7  8  1  0
  7  9  2  0
  8 10  2  0
  9 11  1  0
 10 20  1  0
 10 11  1  0
 12 18  1  0
 12 20  1  0
 13 18  1  0
 14 15  1  0
 14 13  1  0
 16 15  1  0
 16 25  1  0
 16 17  1  0
 18 17  1  0
 19 12  2  0
 20 21  1  0
 22 23  2  0
 23 42  1  0
 24 23  1  0
 24 27  1  0
 25 26  1  0
 25 22  1  0
 26 24  2  0
 27 28  1  0
 28 29  2  0
 30 33  1  0
 30 29  1  0
 31 30  2  0
 32 31  1  0
 32 27  2  0
 33 34  1  0
 34 39  2  0
 34 35  1  0
 35 36  2  0
 36 37  1  0
 37 41  1  0
 38 37  2  0
 39 38  1  0
 40 39  1  0
 42 43  1  0
 43 46  1  0
 43 45  1  0
 44 42  2  0
 47 48  1  0
 47 22  1  0
 49 47  1  0
 50 51  2  0
 50 53  1  0
 53 52  1  0
 54 56  1  0
 54  2  1  0
 55 66  2  0
 56 61  1  0
 57 65  1  0
 57 67  1  0
 58 64  1  0
 58 60  1  0
 59 65  1  0
 60 59  1  0
 61 60  2  0
 62 63  1  0
 62 56  2  0
 63 58  2  0
 64 57  1  0
 65 55  1  0
 67 69  2  0
 68 67  1  0
 70 68  1  0
 71 80  2  0
 71 76  1  0
 72 68  1  0
 72 76  1  0
 73 72  1  0
 74 75  1  0
 74 73  1  0
 75 71  1  0
 76 77  2  0
 77 78  1  0
 79 78  2  0
 80 79  1  0
 81 55  1  0
 81 86  1  0
 81 82  1  0
 82 85  1  1
 82 83  1  0
 84 82  1  0
 86 89  1  0
 87 91  1  0
 87 86  1  0
 88 87  2  0
 91 90  1  0
 93 91  1  0
 93 94  1  0
 93 92  1  0
M  ISO  4   2 101  12 100  20 100  54 101
M  END
>  <TORSDO>  (62) 
F 19

>  <SCORE>  (62) 
-13.328

>  <name>  (62) 
61

>  <ligand_id>  (62) 
61

>  <original_smiles>  (62) 
[H]C(Oc1c([H])c([H])c2c(c1[H])C([H])([H])N(C(=O)C([H])(N([H])C(=O)C([H])(N([H])C([H])([H])[H])C([H])([H])[H])C(C([H])([H])[H])(C([H])([H])[H])C([H])([H])[H])C([H])(C(=O)N([H])C1([H])c3c([H])c([H])c([H])c([H])c3C([H])([H])C([H])([H])C1([H])[H])C2([H])[H])=C1C([H])(C(=O)C([H])([H])C([H])([H])[H])N(c2sc(N([H])C(=O)N3C([H])([H])C([H])([H])C([H])([H])C([H])(n4nc(-c5c([H])c([H])c(Oc6c([H])c([H])c(F)c([H])c6F)c([H])c5[H])c(C(=O)N([H])[H])c4N([H])[H])C3([H])[H])c([H])c2[H])C([H])([H])C1([H])[H]

>  <smiles>  (62) 
[H]C(Oc1c([H])c([H])c2c(c1[H])C([H])([H])N(C(=O)C([H])(N([H])C(=O)C([H])(N([H])C([H])([H])[H])C([H])([H])[H])C(C([H])([H])[H])(C([H])([H])[H])C([H])([H])[H])C([H])(C(=O)N([H])C1([H])c3c([H])c([H])c([H])c([H])c3C([H])([H])C([H])([H])C1([H])[H])C2([H])[H])=C1C([H])(C(=O)C([H])([H])C([H])([H])[H])N(c2sc(N([H])C(=O)N3C([H])([H])C([H])([H])C([H])([H])C([H])(n4nc(-c5c([H])c([H])c(Oc6c([H])c([H])c(F)c([H])c6F)c([H])c5[H])c(C(=O)N([H])[H])c4N([H])[H])C3([H])[H])c([H])c2[H])C([H])([H])C1([H])[H]

$$$$
62:0:0
     RDKit          3D

 92100  0  0  1  0  0  0  0  0999 V2000
  -31.3310  -20.1370   20.0740 C   0  0  0  0  0  3  0  0  0  0  0  0
  -31.8350  -17.9720   20.0110 C   0  0  0  0  0  3  0  0  0  0  0  0
  -30.1360  -19.5080   20.3130 C   0  0  0  0  0  0  0  0  0  0  0  0
  -30.4810  -17.9730   20.2620 C   0  0  0  0  0  0  0  0  0  0  0  0
  -32.3460  -19.2380   19.8980 N   0  0  0  0  0  0  0  0  0  0  0  0
  -30.5130  -15.1890   20.2440 C   0  0  0  0  0  0  0  0  0  0  0  0
  -30.2970  -12.8220   19.2920 C   0  0  0  0  0  2  0  0  0  0  0  0
  -29.3450  -12.7380   18.0770 C   0  0  0  0  0  2  0  0  0  0  0  0
  -27.9020  -12.5070   18.5500 C   0  0  0  0  0  2  0  0  0  0  0  0
  -27.5140  -13.4370   19.7290 C   0  0  0  0  0  3  0  0  0  0  0  0
  -28.5990  -13.5130   20.8270 C   0  0  0  0  0  2  0  0  0  0  0  0
  -29.8370  -13.9520   20.1690 N   0  0  0  0  0  0  0  0  0  0  0  0
  -31.7170  -15.0760   19.9950 O   0  0  0  0  0  0  0  0  0  0  0  0
  -29.8900  -16.5110   20.3860 N   0  0  0  0  0  0  0  0  0  0  0  0
  -28.8950  -16.4700   20.5500 H   0  0  0  0  0  0  0  0  0  0  0  0
  -25.1630  -13.9960   20.5480 C   0  0  0  0  0  0  0  0  0  0  0  0
  -24.1070  -13.2160   20.9290 C   0  0  0  0  0  0  0  0  0  0  0  0
  -24.5690  -11.8650   20.8670 C   0  0  0  0  0  0  0  0  0  0  0  0
  -26.1970  -13.1220   20.2670 N   0  0  0  0  0  0  0  0  0  0  0  0
  -25.8530  -11.8330   20.5280 N   0  0  0  0  0  0  0  0  0  0  0  0
  -23.8420  -10.6020   21.0530 C   0  0  0  0  0  0  0  0  0  0  0  0
  -24.2830   -9.6210   21.9670 C   0  0  0  0  0  3  0  0  0  0  0  0
  -23.5550   -8.4260   22.1440 C   0  0  0  0  0  3  0  0  0  0  0  0
  -22.3690   -8.2020   21.4050 C   0  0  0  0  0  0  0  0  0  0  0  0
  -21.9460   -9.1700   20.4790 C   0  0  0  0  0  3  0  0  0  0  0  0
  -22.6750  -10.3580   20.3000 C   0  0  0  0  0  3  0  0  0  0  0  0
  -21.6100   -7.0590   21.4920 O   0  0  0  0  0  0  0  0  0  0  0  0
  -21.5710   -6.3060   22.6380 C   0  0  0  0  0  0  0  0  0  0  0  0
  -21.1440   -6.8470   23.8700 C   0  0  0  0  0  3  0  0  0  0  0  0
  -21.0520   -6.0200   25.0080 C   0  0  0  0  0  3  0  0  0  0  0  0
  -21.3780   -4.6540   24.9140 C   0  0  0  0  0  0  0  0  0  0  0  0
  -21.7980   -4.1130   23.6870 C   0  0  0  0  0  3  0  0  0  0  0  0
  -21.8910   -4.9370   22.5520 C   0  0  0  0  0  0  0  0  0  0  0  0
  -22.2760   -4.4050   21.3660 F   0  0  0  0  0  0  0  0  0  0  0  0
  -21.2830   -3.8580   26.0050 F   0  0  0  0  0  0  0  0  0  0  0  0
  -22.7170  -13.6930   21.2330 C   0  0  0  0  0  0  0  0  0  0  0  0
  -22.0020  -12.9850   22.0990 N   0  0  0  0  0  0  0  0  0  0  0  0
  -22.2750  -14.7300   20.7390 O   0  0  0  0  0  0  0  0  0  0  0  0
  -22.3740  -12.1470   22.5210 H   0  0  0  0  0  0  0  0  0  0  0  0
  -21.0700  -13.2850   22.3460 H   0  0  0  0  0  0  0  0  0  0  0  0
  -25.3250  -15.3690   20.3870 N   0  0  0  0  0  0  0  0  0  0  0  0
  -24.5610  -16.0230   20.5270 H   0  0  0  0  0  0  0  0  0  0  0  0
  -26.1630  -15.8100   20.0310 H   0  0  0  0  0  0  0  0  0  0  0  0
  -29.0200  -20.6790   20.5420 C   0  0  0  0  0  3  0  0  0  0  0  0
  -29.0620  -22.1370   20.4480 C   0  0  0  0  0  3  0  0  0  0  0  0
  -27.7240  -24.6840   20.7230 C   0  0  0  0  0  3  0  0  0  0  0  0
  -27.9680  -23.2420   20.7690 C   0  0  0  0  0  0  0  0  0  0  0  0
  -26.7510  -22.5170   21.3460 C   0  0  0  0  0  1  0  0  0  0  0  0
  -28.2220  -26.0470   20.3740 O   0  0  0  0  0  0  0  0  0  0  0  0
  -24.6780  -31.9660   23.2590 C   0  0  0  0  0  0  0  0  0  0  0  0
  -27.2580  -27.1530   20.2910 C   0  0  0  0  0  0  0  0  0  0  0  0
  -23.4930  -30.5560   21.6250 C   0  0  0  0  0  3  0  0  0  0  0  0
  -24.9530  -28.9680   20.2160 C   0  0  0  0  0  0  0  0  0  0  0  0
  -26.0540  -30.7960   21.4860 C   0  0  0  0  0  2  0  0  0  0  0  0
  -26.1320  -29.3910   20.8450 C   0  0  0  0  0  0  0  0  0  0  0  0
  -27.2840  -28.4980   20.8730 C   0  0  0  0  0  3  0  0  0  0  0  0
  -26.0640  -26.8760   19.5860 C   0  0  0  0  0  3  0  0  0  0  0  0
  -24.9370  -27.7270   19.5680 C   0  0  0  0  0  3  0  0  0  0  0  0
  -23.7270  -29.8730   20.2520 C   0  0  0  0  0  2  0  0  0  0  0  0
  -24.7620  -31.1300   22.1770 N   0  0  0  0  0  0  0  0  0  0  0  0
  -23.5860  -32.2560   23.7740 O   0  0  0  0  0  0  0  0  0  0  0  0
  -22.8020  -29.5580   22.5910 C   0  0  0  0  0  0  0  0  0  0  0  0
  -21.4750  -29.3840   22.4560 N   0  0  0  0  0  0  0  0  0  0  0  0
  -23.4670  -28.9430   23.4290 O   0  0  0  0  0  0  0  0  0  0  0  0
  -20.9950  -29.9310   21.7550 H   0  0  0  0  0  0  0  0  0  0  0  0
  -18.0930  -28.1750   22.9480 C   0  0  0  0  0  0  0  0  0  0  0  0
  -20.6500  -28.4520   23.2310 C   0  0  0  0  0  3  0  0  0  0  0  0
  -20.7600  -27.0140   22.6730 C   0  0  0  0  0  2  0  0  0  0  0  0
  -19.6670  -26.6760   21.6530 C   0  0  0  0  0  2  0  0  0  0  0  0
  -18.2800  -26.8200   22.2860 C   0  0  0  0  0  2  0  0  0  0  0  0
  -19.2050  -28.9480   23.3780 C   0  0  0  0  0  0  0  0  0  0  0  0
  -18.9740  -30.2120   23.9610 C   0  0  0  0  0  3  0  0  0  0  0  0
  -17.6640  -30.7070   24.1160 C   0  0  0  0  0  3  0  0  0  0  0  0
  -16.5670  -29.9310   23.7010 C   0  0  0  0  0  3  0  0  0  0  0  0
  -16.7820  -28.6680   23.1230 C   0  0  0  0  0  3  0  0  0  0  0  0
  -25.9480  -32.6110   23.8900 C   0  0  0  0  0  3  0  0  0  0  0  0
  -26.4590  -31.8480   25.1740 C   0  0  1  0  0  0  0  0  0  0  0  0
  -25.3590  -31.6090   26.2350 C   0  0  0  0  0  1  0  0  0  0  0  0
  -27.0510  -30.4690   24.7970 C   0  0  0  0  0  1  0  0  0  0  0  0
  -27.6020  -32.6490   25.8400 C   0  0  0  0  0  1  0  0  0  0  0  0
  -25.6260  -34.0090   24.2220 N   0  0  0  0  0  0  0  0  0  0  0  0
  -25.9340  -35.0680   23.4620 C   0  0  0  0  0  0  0  0  0  0  0  0
  -26.5850  -34.9730   22.4190 O   0  0  0  0  0  0  0  0  0  0  0  0
  -25.0440  -34.1560   25.0350 H   0  0  0  0  0  0  0  0  0  0  0  0
  -24.1770  -36.8460   23.1540 C   0  0  0  0  0  1  0  0  0  0  0  0
  -25.4440  -36.4540   23.9310 C   0  0  0  0  0  3  0  0  0  0  0  0
  -27.5880  -37.3670   24.7080 C   0  0  0  0  0  1  0  0  0  0  0  0
  -26.4620  -37.5180   23.7900 N   0  0  0  0  0  0  0  0  0  0  0  0
  -26.0490  -38.4340   23.9430 H   0  0  0  0  0  0  0  0  0  0  0  0
  -33.7440  -19.5680   19.6660 C   0  0  0  0  0  2  0  0  0  0  0  0
  -34.6060  -21.6200   18.4630 C   0  0  0  0  0  2  0  0  0  0  0  0
  -33.9400  -20.4550   18.4520 C   0  0  0  0  0  3  0  0  0  0  0  0
  1  3  2  0
  2  4  2  0
  3 44  1  0
  4  3  1  0
  4 14  1  0
  5  2  1  0
  5  1  1  0
  6 14  1  0
  7 12  1  0
  8  9  1  0
  8  7  1  0
 10  9  1  0
 10 19  1  0
 10 11  1  0
 12  6  1  0
 12 11  1  0
 13  6  2  0
 14 15  1  0
 16 17  2  0
 17 36  1  0
 18 17  1  0
 18 21  1  0
 19 20  1  0
 19 16  1  0
 20 18  2  0
 21 22  1  0
 22 23  2  0
 24 27  1  0
 24 23  1  0
 25 24  2  0
 26 25  1  0
 26 21  2  0
 27 28  1  0
 28 29  1  0
 29 30  2  0
 31 30  1  0
 31 35  1  0
 32 31  2  0
 33 28  2  0
 33 32  1  0
 34 33  1  0
 36 37  1  0
 37 40  1  0
 37 39  1  0
 38 36  2  0
 41 42  1  0
 41 16  1  0
 43 41  1  0
 45 44  2  0
 45 47  1  0
 46 47  2  0
 47 48  1  0
 49 46  1  0
 50 61  2  0
 51 49  1  0
 51 56  1  0
 52 60  1  0
 52 62  1  0
 53 59  1  0
 53 55  1  0
 54 60  1  0
 55 56  2  0
 55 54  1  0
 57 51  2  0
 58 57  1  0
 58 53  2  0
 59 52  1  0
 60 50  1  0
 62 64  2  0
 63 62  1  0
 65 63  1  0
 66 75  2  0
 66 71  1  0
 67 63  1  0
 67 71  1  0
 68 67  1  0
 69 70  1  0
 69 68  1  0
 70 66  1  0
 71 72  2  0
 72 73  1  0
 74 73  2  0
 75 74  1  0
 76 50  1  0
 76 81  1  0
 76 77  1  0
 77 80  1  1
 77 78  1  0
 79 77  1  0
 81 84  1  0
 82 86  1  0
 82 81  1  0
 83 82  2  0
 86 85  1  0
 88 86  1  0
 88 89  1  0
 88 87  1  0
 90  5  1  0
 92 91  2  0
 92 90  1  0
M  ISO  4   6 100  14 100  46 101  49 101
M  END
>  <TORSDO>  (63) 
F 20

>  <SCORE>  (63) 
-13.656

>  <name>  (63) 
62

>  <ligand_id>  (63) 
62

>  <original_smiles>  (63) 
[H]C([H])=C([H])C([H])([H])n1c([H])c(C([H])=C([H])C(=C([H])Oc2c([H])c([H])c3c(c2[H])C([H])([H])N(C(=O)C([H])(N([H])C(=O)C([H])(N([H])C([H])([H])[H])C([H])([H])[H])C(C([H])([H])[H])(C([H])([H])[H])C([H])([H])[H])C([H])(C(=O)N([H])C2([H])c4c([H])c([H])c([H])c([H])c4C([H])([H])C([H])([H])C2([H])[H])C3([H])[H])C([H])([H])[H])c(N([H])C(=O)N2C([H])([H])C([H])([H])C([H])([H])C([H])(n3nc(-c4c([H])c([H])c(Oc5c([H])c([H])c(F)c([H])c5F)c([H])c4[H])c(C(=O)N([H])[H])c3N([H])[H])C2([H])[H])c1[H]

>  <smiles>  (63) 
[H]C([H])=C([H])C([H])([H])n1c([H])c(C([H])=C([H])C(=C([H])Oc2c([H])c([H])c3c(c2[H])C([H])([H])N(C(=O)C([H])(N([H])C(=O)C([H])(N([H])C([H])([H])[H])C([H])([H])[H])C(C([H])([H])[H])(C([H])([H])[H])C([H])([H])[H])C([H])(C(=O)N([H])C2([H])c4c([H])c([H])c([H])c([H])c4C([H])([H])C([H])([H])C2([H])[H])C3([H])[H])C([H])([H])[H])c(N([H])C(=O)N2C([H])([H])C([H])([H])C([H])([H])C([H])(n3nc(-c4c([H])c([H])c(Oc5c([H])c([H])c(F)c([H])c5F)c([H])c4[H])c(C(=O)N([H])[H])c3N([H])[H])C2([H])[H])c1[H]

$$$$
63:0:0
     RDKit          3D

 98106  0  0  1  0  0  0  0  0999 V2000
  -29.3190  -19.8000   20.5950 C   0  0  0  0  0  3  0  0  0  0  0  0
  -29.4910  -18.4030   20.7910 C   0  0  0  0  0  0  0  0  0  0  0  0
  -30.8120  -17.8980   20.9770 C   0  0  0  0  0  0  0  0  0  0  0  0
  -30.4400  -20.6490   20.6250 C   0  0  0  0  0  0  0  0  0  0  0  0
  -31.8760  -18.8480   20.9750 C   0  0  0  0  0  0  0  0  0  0  0  0
  -31.6780  -20.1740   20.7990 N   0  0  0  0  0  0  0  0  0  0  0  0
  -30.3910  -22.0400   20.4940 N   0  0  0  0  0  0  0  0  0  0  0  0
  -31.2370  -22.5760   20.6610 H   0  0  0  0  0  0  0  0  0  0  0  0
  -30.8270  -14.4180   20.0150 C   0  0  0  0  0  0  0  0  0  0  0  0
  -30.2600  -12.3850   18.7380 C   0  0  0  0  0  2  0  0  0  0  0  0
  -29.2360  -12.6800   17.6270 C   0  0  0  0  0  2  0  0  0  0  0  0
  -27.8040  -12.5590   18.1790 C   0  0  0  0  0  2  0  0  0  0  0  0
  -27.6000  -13.3440   19.5040 C   0  0  0  0  0  3  0  0  0  0  0  0
  -28.7410  -13.0690   20.5090 C   0  0  0  0  0  2  0  0  0  0  0  0
  -30.0130  -13.3450   19.8250 N   0  0  0  0  0  0  0  0  0  0  0  0
  -31.9220  -14.4990   19.4500 O   0  0  0  0  0  0  0  0  0  0  0  0
  -31.1140  -16.4300   21.2340 C   0  0  0  0  0  0  0  0  0  0  0  0
  -30.3260  -15.4740   20.6930 N   0  0  0  0  0  0  0  0  0  0  0  0
  -32.1400  -16.1490   21.8660 O   0  0  0  0  0  0  0  0  0  0  0  0
  -29.3350  -15.6290   20.6220 H   0  0  0  0  0  0  0  0  0  0  0  0
  -25.2830  -13.9650   20.4280 C   0  0  0  0  0  0  0  0  0  0  0  0
  -24.2310  -13.2000   20.8520 C   0  0  0  0  0  0  0  0  0  0  0  0
  -24.6580  -11.8410   20.7370 C   0  0  0  0  0  0  0  0  0  0  0  0
  -26.2870  -13.0740   20.0840 N   0  0  0  0  0  0  0  0  0  0  0  0
  -25.9200  -11.7890   20.3280 N   0  0  0  0  0  0  0  0  0  0  0  0
  -23.9200  -10.5870   20.9370 C   0  0  0  0  0  0  0  0  0  0  0  0
  -24.3570   -9.6110   21.8600 C   0  0  0  0  0  3  0  0  0  0  0  0
  -23.6200   -8.4230   22.0480 C   0  0  0  0  0  3  0  0  0  0  0  0
  -22.4310   -8.2000   21.3120 C   0  0  0  0  0  0  0  0  0  0  0  0
  -22.0140   -9.1640   20.3770 C   0  0  0  0  0  3  0  0  0  0  0  0
  -22.7520  -10.3450   20.1870 C   0  0  0  0  0  3  0  0  0  0  0  0
  -21.6650   -7.0640   21.4110 O   0  0  0  0  0  0  0  0  0  0  0  0
  -21.5730   -6.3560   22.5830 C   0  0  0  0  0  0  0  0  0  0  0  0
  -21.1130   -6.9500   23.7780 C   0  0  0  0  0  3  0  0  0  0  0  0
  -20.9690   -6.1690   24.9430 C   0  0  0  0  0  3  0  0  0  0  0  0
  -21.2760   -4.7950   24.9120 C   0  0  0  0  0  0  0  0  0  0  0  0
  -21.7290   -4.2010   23.7210 C   0  0  0  0  0  3  0  0  0  0  0  0
  -21.8740   -4.9790   22.5590 C   0  0  0  0  0  0  0  0  0  0  0  0
  -22.2920   -4.3970   21.4090 F   0  0  0  0  0  0  0  0  0  0  0  0
  -21.1290   -4.0430   26.0270 F   0  0  0  0  0  0  0  0  0  0  0  0
  -22.8700  -13.6930   21.2490 C   0  0  0  0  0  0  0  0  0  0  0  0
  -22.2090  -12.9980   22.1680 N   0  0  0  0  0  0  0  0  0  0  0  0
  -22.4040  -14.7300   20.7780 O   0  0  0  0  0  0  0  0  0  0  0  0
  -22.5990  -12.1590   22.5700 H   0  0  0  0  0  0  0  0  0  0  0  0
  -21.2980  -13.3110   22.4740 H   0  0  0  0  0  0  0  0  0  0  0  0
  -25.4620  -15.3370   20.2850 N   0  0  0  0  0  0  0  0  0  0  0  0
  -24.7180  -15.9990   20.4780 H   0  0  0  0  0  0  0  0  0  0  0  0
  -26.2940  -15.7760   19.9130 H   0  0  0  0  0  0  0  0  0  0  0  0
  -34.3000  -19.4590   21.1230 C   0  0  0  0  0  1  0  0  0  0  0  0
  -33.2230  -18.4760   21.1390 N   0  0  0  0  0  0  0  0  0  0  0  0
  -33.4500  -17.5200   21.4020 H   0  0  0  0  0  0  0  0  0  0  0  0
  -27.2560  -17.6360   19.9410 C   0  0  0  0  0  2  0  0  0  0  0  0
  -28.3050  -17.5190   20.7720 C   0  0  0  0  0  3  0  0  0  0  0  0
  -29.1430  -22.7970   20.4960 C   0  0  0  0  0  2  0  0  0  0  0  0
  -29.3800  -24.3190   20.4990 C   0  0  0  0  0  0  0  0  0  0  0  0
  -30.4320  -24.8050   20.9320 O   0  0  0  0  0  0  0  0  0  0  0  0
  -28.2600  -25.1840   19.9060 C   0  0  0  0  0  2  0  0  0  0  0  0
  -28.4330  -26.5990   20.1300 O   0  0  0  0  0  0  0  0  0  0  0  0
  -24.5120  -31.7720   23.0800 C   0  0  0  0  0  0  0  0  0  0  0  0
  -27.2620  -27.3360   20.0730 C   0  0  0  0  0  0  0  0  0  0  0  0
  -23.3510  -30.3330   21.4430 C   0  0  0  0  0  3  0  0  0  0  0  0
  -24.8470  -28.8170   20.0450 C   0  0  0  0  0  0  0  0  0  0  0  0
  -25.8750  -30.7330   21.2700 C   0  0  0  0  0  2  0  0  0  0  0  0
  -25.9920  -29.3590   20.6410 C   0  0  0  0  0  0  0  0  0  0  0  0
  -27.2040  -28.6270   20.6510 C   0  0  0  0  0  3  0  0  0  0  0  0
  -26.0930  -26.8230   19.4590 C   0  0  0  0  0  3  0  0  0  0  0  0
  -24.8940  -27.5490   19.4510 C   0  0  0  0  0  3  0  0  0  0  0  0
  -23.5880  -29.6510   20.0700 C   0  0  0  0  0  2  0  0  0  0  0  0
  -24.5970  -30.9610   21.9890 N   0  0  0  0  0  0  0  0  0  0  0  0
  -23.4190  -32.0290   23.6060 O   0  0  0  0  0  0  0  0  0  0  0  0
  -22.7110  -29.3040   22.4040 C   0  0  0  0  0  0  0  0  0  0  0  0
  -21.3890  -29.1050   22.2740 N   0  0  0  0  0  0  0  0  0  0  0  0
  -23.4000  -28.6900   23.2220 O   0  0  0  0  0  0  0  0  0  0  0  0
  -20.8940  -29.6530   21.5840 H   0  0  0  0  0  0  0  0  0  0  0  0
  -18.0190  -27.9100   22.8020 C   0  0  0  0  0  0  0  0  0  0  0  0
  -20.5810  -28.1630   23.0480 C   0  0  0  0  0  3  0  0  0  0  0  0
  -20.6750  -26.7360   22.4600 C   0  0  0  0  0  2  0  0  0  0  0  0
  -19.5610  -26.4230   21.4560 C   0  0  0  0  0  2  0  0  0  0  0  0
  -18.1860  -26.5650   22.1160 C   0  0  0  0  0  2  0  0  0  0  0  0
  -19.1440  -28.6670   23.2250 C   0  0  0  0  0  0  0  0  0  0  0  0
  -18.9350  -29.9280   23.8260 C   0  0  0  0  0  3  0  0  0  0  0  0
  -17.6330  -30.4310   24.0090 C   0  0  0  0  0  3  0  0  0  0  0  0
  -16.5220  -29.6700   23.6040 C   0  0  0  0  0  3  0  0  0  0  0  0
  -16.7170  -28.4120   23.0060 C   0  0  0  0  0  3  0  0  0  0  0  0
  -25.7790  -32.4350   23.7060 C   0  0  0  0  0  3  0  0  0  0  0  0
  -25.4210  -33.8110   24.0760 N   0  0  0  0  0  0  0  0  0  0  0  0
  -25.7180  -34.8950   23.3480 C   0  0  0  0  0  0  0  0  0  0  0  0
  -26.3930  -34.8450   22.3160 O   0  0  0  0  0  0  0  0  0  0  0  0
  -24.8200  -33.9210   24.8790 H   0  0  0  0  0  0  0  0  0  0  0  0
  -23.9360  -36.6400   23.0250 C   0  0  0  0  0  1  0  0  0  0  0  0
  -25.1790  -36.2510   23.8420 C   0  0  0  0  0  3  0  0  0  0  0  0
  -27.2710  -37.1760   24.7330 C   0  0  0  0  0  1  0  0  0  0  0  0
  -26.1770  -37.3400   23.7790 N   0  0  0  0  0  0  0  0  0  0  0  0
  -25.7390  -38.2410   23.9510 H   0  0  0  0  0  0  0  0  0  0  0  0
  -26.3400  -31.6480   24.9530 C   0  0  1  0  0  0  0  0  0  0  0  0
  -25.2620  -31.3080   26.0090 C   0  0  0  0  0  1  0  0  0  0  0  0
  -27.0010  -30.3210   24.5110 C   0  0  0  0  0  1  0  0  0  0  0  0
  -27.4440  -32.4820   25.6460 C   0  0  0  0  0  1  0  0  0  0  0  0
  1  4  2  0
  1  2  1  0
  2  3  2  0
  3 17  1  0
  4  6  1  0
  5  3  1  0
  5 50  1  0
  6  5  2  0
  7 54  1  0
  7  4  1  0
  7  8  1  0
  9 18  1  0
 10 15  1  0
 11 12  1  0
 11 10  1  0
 13 12  1  0
 13 24  1  0
 13 14  1  0
 15  9  1  0
 15 14  1  0
 16  9  2  0
 17 19  2  0
 18 17  1  0
 20 18  1  0
 21 22  2  0
 22 41  1  0
 23 22  1  0
 23 26  1  0
 24 25  1  0
 24 21  1  0
 25 23  2  0
 26 27  1  0
 27 28  2  0
 29 32  1  0
 29 28  1  0
 30 29  2  0
 31 30  1  0
 31 26  2  0
 32 33  1  0
 33 34  1  0
 34 35  2  0
 36 35  1  0
 36 40  1  0
 37 36  2  0
 38 33  2  0
 38 37  1  0
 39 38  1  0
 41 42  1  0
 42 45  1  0
 42 44  1  0
 43 41  2  0
 46 21  1  0
 46 47  1  0
 48 46  1  0
 49 50  1  0
 50 51  1  0
 52 53  2  0
 53  2  1  0
 54 55  1  0
 55 56  2  0
 57 58  1  0
 57 55  1  0
 59 70  2  0
 60 58  1  0
 60 65  1  0
 61 69  1  0
 61 71  1  0
 62 68  1  0
 62 64  1  0
 63 69  1  0
 64 65  2  0
 64 63  1  0
 66 60  2  0
 67 66  1  0
 67 62  2  0
 68 61  1  0
 69 59  1  0
 71 73  2  0
 72 71  1  0
 74 72  1  0
 75 84  2  0
 75 80  1  0
 76 72  1  0
 76 80  1  0
 77 76  1  0
 78 79  1  0
 78 77  1  0
 79 75  1  0
 80 81  2  0
 81 82  1  0
 83 82  2  0
 84 83  1  0
 85 59  1  0
 85 86  1  0
 85 95  1  0
 86 89  1  0
 87 91  1  0
 87 86  1  0
 88 87  2  0
 91 90  1  0
 93 91  1  0
 93 94  1  0
 93 92  1  0
 95 98  1  1
 95 96  1  0
 97 95  1  0
M  ISO  4   9 100  18 100  57 101  58 101
M  END
>  <TORSDO>  (64) 
F 21

>  <SCORE>  (64) 
-12.775

>  <name>  (64) 
63

>  <ligand_id>  (64) 
63

>  <original_smiles>  (64) 
[H]C([H])=C([H])c1c([H])c(N([H])C([H])([H])C(=O)C([H])([H])Oc2c([H])c([H])c3c(c2[H])C([H])([H])N(C(=O)C([H])(N([H])C(=O)C([H])(N([H])C([H])([H])[H])C([H])([H])[H])C(C([H])([H])[H])(C([H])([H])[H])C([H])([H])[H])C([H])(C(=O)N([H])C2([H])c4c([H])c([H])c([H])c([H])c4C([H])([H])C([H])([H])C2([H])[H])C3([H])[H])nc(N([H])C([H])([H])[H])c1C(=O)N([H])C(=O)N1C([H])([H])C([H])([H])C([H])([H])C([H])(n2nc(-c3c([H])c([H])c(Oc4c([H])c([H])c(F)c([H])c4F)c([H])c3[H])c(C(=O)N([H])[H])c2N([H])[H])C1([H])[H]

>  <smiles>  (64) 
[H]C([H])=C([H])c1c([H])c(N([H])C([H])([H])C(=O)C([H])([H])Oc2c([H])c([H])c3c(c2[H])C([H])([H])N(C(=O)C([H])(N([H])C(=O)C([H])(N([H])C([H])([H])[H])C([H])([H])[H])C(C([H])([H])[H])(C([H])([H])[H])C([H])([H])[H])C([H])(C(=O)N([H])C2([H])c4c([H])c([H])c([H])c([H])c4C([H])([H])C([H])([H])C2([H])[H])C3([H])[H])nc(N([H])C([H])([H])[H])c1C(=O)N([H])C(=O)N1C([H])([H])C([H])([H])C([H])([H])C([H])(n2nc(-c3c([H])c([H])c(Oc4c([H])c([H])c(F)c([H])c4F)c([H])c3[H])c(C(=O)N([H])[H])c2N([H])[H])C1([H])[H]

$$$$
64:0:0
     RDKit          3D

 90 98  0  0  1  0  0  0  0  0999 V2000
  -31.0670  -19.3280   19.7390 C   0  0  0  0  0  3  0  0  0  0  0  0
  -31.0800  -17.9110   19.9100 C   0  0  0  0  0  3  0  0  0  0  0  0
  -28.7150  -19.3910   20.1730 C   0  0  0  0  0  3  0  0  0  0  0  0
  -28.7160  -17.9710   20.3600 C   0  0  0  0  0  0  0  0  0  0  0  0
  -29.8920  -20.1200   19.8600 C   0  0  0  0  0  0  0  0  0  0  0  0
  -29.9040  -17.1820   20.2290 C   0  0  0  0  0  0  0  0  0  0  0  0
  -27.3810  -17.3320   20.7150 C   0  0  0  0  0  1  0  0  0  0  0  0
  -30.6260  -14.6720   19.9730 C   0  0  0  0  0  0  0  0  0  0  0  0
  -30.3760  -12.4100   18.9630 C   0  0  0  0  0  2  0  0  0  0  0  0
  -29.3690  -12.5120   17.7950 C   0  0  0  0  0  2  0  0  0  0  0  0
  -27.9200  -12.3570   18.3020 C   0  0  0  0  0  2  0  0  0  0  0  0
  -27.6240  -13.2430   19.5410 C   0  0  0  0  0  3  0  0  0  0  0  0
  -28.7380  -13.1060   20.6040 C   0  0  0  0  0  2  0  0  0  0  0  0
  -30.0160  -13.4430   19.9560 N   0  0  0  0  0  0  0  0  0  0  0  0
  -31.7610  -14.8240   19.5100 O   0  0  0  0  0  0  0  0  0  0  0  0
  -29.8440  -15.7200   20.3940 N   0  0  0  0  0  0  0  0  0  0  0  0
  -28.9870  -15.3970   20.8130 H   0  0  0  0  0  0  0  0  0  0  0  0
  -25.2820  -13.8600   20.4020 C   0  0  0  0  0  0  0  0  0  0  0  0
  -24.2300  -13.0950   20.8240 C   0  0  0  0  0  0  0  0  0  0  0  0
  -24.6700  -11.7390   20.7440 C   0  0  0  0  0  0  0  0  0  0  0  0
  -26.3010  -12.9700   20.0960 N   0  0  0  0  0  0  0  0  0  0  0  0
  -25.9400  -11.6890   20.3610 N   0  0  0  0  0  0  0  0  0  0  0  0
  -23.9380  -10.4830   20.9530 C   0  0  0  0  0  0  0  0  0  0  0  0
  -24.3680   -9.5260   21.8980 C   0  0  0  0  0  3  0  0  0  0  0  0
  -23.6360   -8.3360   22.0950 C   0  0  0  0  0  3  0  0  0  0  0  0
  -22.4600   -8.0940   21.3480 C   0  0  0  0  0  0  0  0  0  0  0  0
  -22.0480   -9.0400   20.3920 C   0  0  0  0  0  3  0  0  0  0  0  0
  -22.7800  -10.2220   20.1930 C   0  0  0  0  0  3  0  0  0  0  0  0
  -21.6990   -6.9550   21.4530 O   0  0  0  0  0  0  0  0  0  0  0  0
  -21.6140   -6.2530   22.6280 C   0  0  0  0  0  0  0  0  0  0  0  0
  -21.1110   -6.8380   23.8110 C   0  0  0  0  0  3  0  0  0  0  0  0
  -20.9760   -6.0600   24.9790 C   0  0  0  0  0  3  0  0  0  0  0  0
  -21.3340   -4.7000   24.9650 C   0  0  0  0  0  0  0  0  0  0  0  0
  -21.8300   -4.1140   23.7860 C   0  0  0  0  0  3  0  0  0  0  0  0
  -21.9670   -4.8880   22.6210 C   0  0  0  0  0  0  0  0  0  0  0  0
  -22.4250   -4.3140   21.4830 F   0  0  0  0  0  0  0  0  0  0  0  0
  -21.1970   -3.9500   26.0830 F   0  0  0  0  0  0  0  0  0  0  0  0
  -22.8570  -13.5870   21.1830 C   0  0  0  0  0  0  0  0  0  0  0  0
  -22.1740  -12.8920   22.0860 N   0  0  0  0  0  0  0  0  0  0  0  0
  -22.4020  -14.6230   20.7000 O   0  0  0  0  0  0  0  0  0  0  0  0
  -22.5560  -12.0540   22.4980 H   0  0  0  0  0  0  0  0  0  0  0  0
  -21.2550  -13.2020   22.3680 H   0  0  0  0  0  0  0  0  0  0  0  0
  -25.4510  -15.2280   20.2250 N   0  0  0  0  0  0  0  0  0  0  0  0
  -24.6830  -15.8780   20.3560 H   0  0  0  0  0  0  0  0  0  0  0  0
  -26.2550  -15.6510   19.7820 H   0  0  0  0  0  0  0  0  0  0  0  0
  -29.0490  -22.4440   19.7520 C   0  0  0  0  0  3  0  0  0  0  0  0
  -30.0000  -21.5530   19.7340 N   0  0  0  0  0  0  0  0  0  0  0  0
  -29.2950  -24.0080   19.7330 C   0  0  0  0  0  3  0  0  0  0  0  0
  -28.0760  -24.9860   19.4300 C   0  0  0  0  0  3  0  0  0  0  0  0
  -28.2630  -26.4510   19.6000 O   0  0  0  0  0  0  0  0  0  0  0  0
  -24.5230  -31.6070   23.0020 C   0  0  0  0  0  0  0  0  0  0  0  0
  -27.1220  -27.2710   19.6290 C   0  0  0  0  0  0  0  0  0  0  0  0
  -23.2920  -30.2700   21.3320 C   0  0  0  0  0  3  0  0  0  0  0  0
  -24.7230  -28.8280   19.7810 C   0  0  0  0  0  0  0  0  0  0  0  0
  -25.8170  -30.6530   21.0810 C   0  0  0  0  0  2  0  0  0  0  0  0
  -25.9020  -29.3120   20.3610 C   0  0  0  0  0  0  0  0  0  0  0  0
  -27.1040  -28.5470   20.2740 C   0  0  0  0  0  3  0  0  0  0  0  0
  -25.9140  -26.8390   19.0320 C   0  0  0  0  0  3  0  0  0  0  0  0
  -24.7300  -27.5970   19.1080 C   0  0  0  0  0  3  0  0  0  0  0  0
  -23.4720  -29.6700   19.9130 C   0  0  0  0  0  2  0  0  0  0  0  0
  -24.5640  -30.8580   21.8620 N   0  0  0  0  0  0  0  0  0  0  0  0
  -23.4530  -31.8340   23.5860 O   0  0  0  0  0  0  0  0  0  0  0  0
  -22.6820  -29.1910   22.2590 C   0  0  0  0  0  0  0  0  0  0  0  0
  -21.3560  -28.9900   22.1640 N   0  0  0  0  0  0  0  0  0  0  0  0
  -23.3980  -28.5410   23.0240 O   0  0  0  0  0  0  0  0  0  0  0  0
  -20.8350  -29.5700   21.5210 H   0  0  0  0  0  0  0  0  0  0  0  0
  -18.0220  -27.6960   22.7020 C   0  0  0  0  0  0  0  0  0  0  0  0
  -20.5810  -27.9980   22.9100 C   0  0  0  0  0  3  0  0  0  0  0  0
  -20.6950  -26.5990   22.2630 C   0  0  0  0  0  2  0  0  0  0  0  0
  -19.5700  -26.3010   21.2660 C   0  0  0  0  0  2  0  0  0  0  0  0
  -18.2050  -26.3860   21.9560 C   0  0  0  0  0  2  0  0  0  0  0  0
  -19.1360  -28.4610   23.1360 C   0  0  0  0  0  0  0  0  0  0  0  0
  -18.9090  -29.6890   23.7950 C   0  0  0  0  0  3  0  0  0  0  0  0
  -17.5990  -30.1530   24.0230 C   0  0  0  0  0  3  0  0  0  0  0  0
  -16.4990  -29.3850   23.6040 C   0  0  0  0  0  3  0  0  0  0  0  0
  -16.7110  -28.1570   22.9500 C   0  0  0  0  0  3  0  0  0  0  0  0
  -25.8130  -32.2340   23.6150 C   0  0  0  0  0  3  0  0  0  0  0  0
  -26.3830  -31.4130   24.8360 C   0  0  1  0  0  0  0  0  0  0  0  0
  -25.3320  -31.1190   25.9310 C   0  0  0  0  0  1  0  0  0  0  0  0
  -26.9620  -30.0600   24.3630 C   0  0  0  0  0  1  0  0  0  0  0  0
  -27.5510  -32.1880   25.4900 C   0  0  0  0  0  1  0  0  0  0  0  0
  -25.4900  -33.6090   24.0210 N   0  0  0  0  0  0  0  0  0  0  0  0
  -25.7940  -34.7040   23.3130 C   0  0  0  0  0  0  0  0  0  0  0  0
  -26.4460  -34.6640   22.2660 O   0  0  0  0  0  0  0  0  0  0  0  0
  -24.9090  -33.7130   24.8410 H   0  0  0  0  0  0  0  0  0  0  0  0
  -24.0450  -36.4950   23.0710 C   0  0  0  0  0  1  0  0  0  0  0  0
  -25.2960  -36.0600   23.8500 C   0  0  0  0  0  3  0  0  0  0  0  0
  -27.4210  -36.9290   24.7230 C   0  0  0  0  0  1  0  0  0  0  0  0
  -26.3170  -37.1290   23.7870 N   0  0  0  0  0  0  0  0  0  0  0  0
  -25.9000  -38.0360   23.9770 H   0  0  0  0  0  0  0  0  0  0  0  0
  1  5  2  0
  1  2  1  0
  2  6  2  0
  3  4  2  0
  4  7  1  0
  5  3  1  0
  6  4  1  0
  6 16  1  0
  8 16  1  0
  9 14  1  0
 10 11  1  0
 10  9  1  0
 12 11  1  0
 12 21  1  0
 12 13  1  0
 14  8  1  0
 14 13  1  0
 15  8  2  0
 16 17  1  0
 18 19  2  0
 19 38  1  0
 20 19  1  0
 20 23  1  0
 21 22  1  0
 21 18  1  0
 22 20  2  0
 23 24  1  0
 24 25  2  0
 26 29  1  0
 26 25  1  0
 27 26  2  0
 28 27  1  0
 28 23  2  0
 29 30  1  0
 30 31  1  0
 31 32  2  0
 33 32  1  0
 33 37  1  0
 34 33  2  0
 35 30  2  0
 35 34  1  0
 36 35  1  0
 38 39  1  0
 39 42  1  0
 39 41  1  0
 40 38  2  0
 43 44  1  0
 43 18  1  0
 45 43  1  0
 47 46  2  0
 47  5  1  0
 48 46  1  0
 49 50  1  0
 49 48  2  0
 50 52  1  0
 51 62  2  0
 52 57  1  0
 53 61  1  0
 53 63  1  0
 54 60  1  0
 54 56  1  0
 55 61  1  0
 56 55  1  0
 57 56  2  0
 58 59  1  0
 58 52  2  0
 59 54  2  0
 60 53  1  0
 61 51  1  0
 63 65  2  0
 64 63  1  0
 66 64  1  0
 67 76  2  0
 67 72  1  0
 68 64  1  0
 68 72  1  0
 69 68  1  0
 70 71  1  0
 70 69  1  0
 71 67  1  0
 72 73  2  0
 73 74  1  0
 75 74  2  0
 76 75  1  0
 77 51  1  0
 77 82  1  0
 77 78  1  0
 78 81  1  1
 78 79  1  0
 80 78  1  0
 82 85  1  0
 83 87  1  0
 83 82  1  0
 84 83  2  0
 87 86  1  0
 89 87  1  0
 89 90  1  0
 89 88  1  0
M  ISO  4   8 100  16 100  49 101  50 101
M  END
>  <TORSDO>  (65) 
F 19

>  <SCORE>  (65) 
-13.278

>  <name>  (65) 
64

>  <ligand_id>  (65) 
64

>  <original_smiles>  (65) 
[H]C(=Nc1c([H])c([H])c(N([H])C(=O)N2C([H])([H])C([H])([H])C([H])([H])C([H])(n3nc(-c4c([H])c([H])c(Oc5c([H])c([H])c(F)c([H])c5F)c([H])c4[H])c(C(=O)N([H])[H])c3N([H])[H])C2([H])[H])c(C([H])([H])[H])c1[H])C([H])([H])C([H])([H])Oc1c([H])c([H])c2c(c1[H])C([H])([H])N(C(=O)C([H])(N([H])C(=O)C([H])(N([H])C([H])([H])[H])C([H])([H])[H])C(C([H])([H])[H])(C([H])([H])[H])C([H])([H])[H])C([H])(C(=O)N([H])C1([H])c3c([H])c([H])c([H])c([H])c3C([H])([H])C([H])([H])C1([H])[H])C2([H])[H]

>  <smiles>  (65) 
[H]C(=Nc1c([H])c([H])c(N([H])C(=O)N2C([H])([H])C([H])([H])C([H])([H])C([H])(n3nc(-c4c([H])c([H])c(Oc5c([H])c([H])c(F)c([H])c5F)c([H])c4[H])c(C(=O)N([H])[H])c3N([H])[H])C2([H])[H])c(C([H])([H])[H])c1[H])C([H])([H])C([H])([H])Oc1c([H])c([H])c2c(c1[H])C([H])([H])N(C(=O)C([H])(N([H])C(=O)C([H])(N([H])C([H])([H])[H])C([H])([H])[H])C(C([H])([H])[H])(C([H])([H])[H])C([H])([H])[H])C([H])(C(=O)N([H])C1([H])c3c([H])c([H])c([H])c([H])c3C([H])([H])C([H])([H])C1([H])[H])C2([H])[H]

$$$$
65:0:0
     RDKit          3D

 94102  0  0  1  0  0  0  0  0999 V2000
  -27.9840  -19.4770   20.2180 C   0  0  0  0  0  3  0  0  0  0  0  0
  -30.0570  -18.3370   20.8340 C   0  0  0  0  0  3  0  0  0  0  0  0
  -28.1260  -17.0370   20.1550 C   0  0  0  0  0  3  0  0  0  0  0  0
  -29.2890  -19.6090   20.7180 C   0  0  0  0  0  0  0  0  0  0  0  0
  -27.3780  -18.2260   20.0100 C   0  0  0  0  0  0  0  0  0  0  0  0
  -29.4940  -17.0010   20.5180 C   0  0  0  0  0  0  0  0  0  0  0  0
  -30.6570  -14.5170   20.0290 C   0  0  0  0  0  0  0  0  0  0  0  0
  -30.4490  -12.1930   19.0320 C   0  0  0  0  0  2  0  0  0  0  0  0
  -29.4340  -12.2250   17.8600 C   0  0  0  0  0  2  0  0  0  0  0  0
  -27.9870  -12.0790   18.3710 C   0  0  0  0  0  2  0  0  0  0  0  0
  -27.6950  -12.9880   19.5920 C   0  0  0  0  0  3  0  0  0  0  0  0
  -28.8100  -12.8710   20.6560 C   0  0  0  0  0  2  0  0  0  0  0  0
  -30.0780  -13.2520   20.0100 N   0  0  0  0  0  0  0  0  0  0  0  0
  -31.7680  -14.6710   19.5040 O   0  0  0  0  0  0  0  0  0  0  0  0
  -29.9280  -15.5450   20.6500 N   0  0  0  0  0  0  0  0  0  0  0  0
  -29.2140  -15.0480   21.1610 H   0  0  0  0  0  0  0  0  0  0  0  0
  -25.3710  -13.6640   20.4460 C   0  0  0  0  0  0  0  0  0  0  0  0
  -24.2970  -12.9320   20.8700 C   0  0  0  0  0  0  0  0  0  0  0  0
  -24.6990  -11.5630   20.7890 C   0  0  0  0  0  0  0  0  0  0  0  0
  -26.3650  -12.7470   20.1450 N   0  0  0  0  0  0  0  0  0  0  0  0
  -25.9690  -11.4750   20.4090 N   0  0  0  0  0  0  0  0  0  0  0  0
  -23.9280  -10.3310   21.0010 C   0  0  0  0  0  0  0  0  0  0  0  0
  -24.3720   -9.3290   21.8900 C   0  0  0  0  0  3  0  0  0  0  0  0
  -23.6040   -8.1640   22.0970 C   0  0  0  0  0  3  0  0  0  0  0  0
  -22.3760   -7.9920   21.4130 C   0  0  0  0  0  0  0  0  0  0  0  0
  -21.9500   -8.9850   20.5130 C   0  0  0  0  0  3  0  0  0  0  0  0
  -22.7190  -10.1410   20.3050 C   0  0  0  0  0  3  0  0  0  0  0  0
  -21.5790   -6.8780   21.5270 O   0  0  0  0  0  0  0  0  0  0  0  0
  -21.5550   -6.1230   22.6720 C   0  0  0  0  0  0  0  0  0  0  0  0
  -21.2220   -6.6830   23.9250 C   0  0  0  0  0  3  0  0  0  0  0  0
  -21.1380   -5.8590   25.0640 C   0  0  0  0  0  3  0  0  0  0  0  0
  -21.3810   -4.4760   24.9540 C   0  0  0  0  0  0  0  0  0  0  0  0
  -21.7080   -3.9160   23.7060 C   0  0  0  0  0  3  0  0  0  0  0  0
  -21.7920   -4.7370   22.5680 C   0  0  0  0  0  0  0  0  0  0  0  0
  -22.0830   -4.1890   21.3650 F   0  0  0  0  0  0  0  0  0  0  0  0
  -21.2940   -3.6830   26.0470 F   0  0  0  0  0  0  0  0  0  0  0  0
  -22.9400  -13.4650   21.2270 C   0  0  0  0  0  0  0  0  0  0  0  0
  -22.2450  -12.7960   22.1360 N   0  0  0  0  0  0  0  0  0  0  0  0
  -22.5110  -14.5090   20.7350 O   0  0  0  0  0  0  0  0  0  0  0  0
  -22.6110  -11.9500   22.5500 H   0  0  0  0  0  0  0  0  0  0  0  0
  -21.3380  -13.1310   22.4260 H   0  0  0  0  0  0  0  0  0  0  0  0
  -25.5800  -15.0280   20.2710 N   0  0  0  0  0  0  0  0  0  0  0  0
  -24.8660  -15.7120   20.4950 H   0  0  0  0  0  0  0  0  0  0  0  0
  -26.4060  -15.4360   19.8590 H   0  0  0  0  0  0  0  0  0  0  0  0
  -25.9120  -18.1970   19.6790 C   0  0  0  0  0  0  0  0  0  0  0  0
  -25.1790  -17.2980   20.3210 N   0  0  0  0  0  0  0  0  0  0  0  0
  -25.4040  -19.0270   18.9270 O   0  0  0  0  0  0  0  0  0  0  0  0
  -25.6020  -16.6650   20.9820 H   0  0  0  0  0  0  0  0  0  0  0  0
  -24.1780  -17.2840   20.1960 H   0  0  0  0  0  0  0  0  0  0  0  0
  -29.5450  -21.0820   21.2300 C   0  0  0  0  0  2  0  0  0  0  0  0
  -28.9880  -22.3320   20.8760 C   0  0  0  0  0  3  0  0  0  0  0  0
  -28.9150  -23.5930   21.7520 C   0  0  0  0  0  3  0  0  0  0  0  0
  -28.5430  -24.9580   21.7360 C   0  0  0  0  0  2  0  0  0  0  0  0
  -28.2350  -25.9540   20.7660 O   0  0  0  0  0  0  0  0  0  0  0  0
  -24.5510  -31.8310   23.3970 C   0  0  0  0  0  0  0  0  0  0  0  0
  -27.1960  -26.9290   20.8290 C   0  0  0  0  0  0  0  0  0  0  0  0
  -23.4100  -30.3560   21.7790 C   0  0  0  0  0  3  0  0  0  0  0  0
  -24.8990  -28.6630   20.5610 C   0  0  0  0  0  0  0  0  0  0  0  0
  -25.9710  -30.5730   21.7430 C   0  0  0  0  0  2  0  0  0  0  0  0
  -26.0510  -29.1370   21.2090 C   0  0  0  0  0  0  0  0  0  0  0  0
  -27.2070  -28.2830   21.3340 C   0  0  0  0  0  3  0  0  0  0  0  0
  -26.0200  -26.5340   20.1590 C   0  0  0  0  0  3  0  0  0  0  0  0
  -24.8910  -27.3660   20.0280 C   0  0  0  0  0  3  0  0  0  0  0  0
  -23.6940  -29.5810   20.4640 C   0  0  0  0  0  2  0  0  0  0  0  0
  -24.6610  -30.9450   22.3610 N   0  0  0  0  0  0  0  0  0  0  0  0
  -23.4430  -32.1730   23.8400 O   0  0  0  0  0  0  0  0  0  0  0  0
  -22.6550  -29.4300   22.7630 C   0  0  0  0  0  0  0  0  0  0  0  0
  -21.3340  -29.2790   22.5680 N   0  0  0  0  0  0  0  0  0  0  0  0
  -23.2620  -28.8470   23.6660 O   0  0  0  0  0  0  0  0  0  0  0  0
  -20.9090  -29.7930   21.8100 H   0  0  0  0  0  0  0  0  0  0  0  0
  -17.8930  -28.2220   22.9630 C   0  0  0  0  0  0  0  0  0  0  0  0
  -20.4430  -28.4120   23.3430 C   0  0  0  0  0  3  0  0  0  0  0  0
  -20.5220  -26.9490   22.8480 C   0  0  0  0  0  2  0  0  0  0  0  0
  -19.4590  -26.6080   21.8020 C   0  0  0  0  0  2  0  0  0  0  0  0
  -18.0530  -26.8350   22.3670 C   0  0  0  0  0  2  0  0  0  0  0  0
  -19.0150  -28.9710   23.4060 C   0  0  0  0  0  0  0  0  0  0  0  0
  -18.8110  -30.2690   23.9240 C   0  0  0  0  0  3  0  0  0  0  0  0
  -17.5160  -30.8170   24.0000 C   0  0  0  0  0  3  0  0  0  0  0  0
  -16.4080  -30.0660   23.5710 C   0  0  0  0  0  3  0  0  0  0  0  0
  -16.5970  -28.7700   23.0590 C   0  0  0  0  0  3  0  0  0  0  0  0
  -25.8110  -32.4720   24.0560 C   0  0  0  0  0  3  0  0  0  0  0  0
  -25.5110  -33.8910   24.3010 N   0  0  0  0  0  0  0  0  0  0  0  0
  -25.8900  -34.8990   23.5040 C   0  0  0  0  0  0  0  0  0  0  0  0
  -26.5950  -34.7310   22.5040 O   0  0  0  0  0  0  0  0  0  0  0  0
  -24.8910  -34.0950   25.0700 H   0  0  0  0  0  0  0  0  0  0  0  0
  -24.2010  -36.6970   23.0080 C   0  0  0  0  0  1  0  0  0  0  0  0
  -25.4150  -36.3190   23.8730 C   0  0  0  0  0  3  0  0  0  0  0  0
  -27.5410  -37.2170   24.7100 C   0  0  0  0  0  1  0  0  0  0  0  0
  -26.4670  -37.3480   23.7280 N   0  0  0  0  0  0  0  0  0  0  0  0
  -26.0730  -38.2810   23.8090 H   0  0  0  0  0  0  0  0  0  0  0  0
  -26.2380  -31.7580   25.3960 C   0  0  1  0  0  0  0  0  0  0  0  0
  -25.0760  -31.5700   26.4000 C   0  0  0  0  0  1  0  0  0  0  0  0
  -26.8400  -30.3630   25.1070 C   0  0  0  0  0  1  0  0  0  0  0  0
  -27.3460  -32.5780   26.0950 C   0  0  0  0  0  1  0  0  0  0  0  0
  1  4  1  0
  3  6  2  0
  4  2  2  0
  4 50  1  0
  5  3  1  0
  5  1  2  0
  6 15  1  0
  6  2  1  0
  7 15  1  0
  8 13  1  0
  9 10  1  0
  9  8  1  0
 11 10  1  0
 11 20  1  0
 11 12  1  0
 13  7  1  0
 13 12  1  0
 14  7  2  0
 15 16  1  0
 17 18  2  0
 18 37  1  0
 19 18  1  0
 19 22  1  0
 20 21  1  0
 20 17  1  0
 21 19  2  0
 22 23  1  0
 23 24  2  0
 25 28  1  0
 25 24  1  0
 26 25  2  0
 27 26  1  0
 27 22  2  0
 28 29  1  0
 29 30  1  0
 30 31  2  0
 32 31  1  0
 32 36  1  0
 33 32  2  0
 34 29  2  0
 34 33  1  0
 35 34  1  0
 37 38  1  0
 38 41  1  0
 38 40  1  0
 39 37  2  0
 42 17  1  0
 42 43  1  0
 44 42  1  0
 45  5  1  0
 45 46  1  0
 46 48  1  0
 47 45  2  0
 49 46  1  0
 51 50  1  0
 51 52  2  0
 53 52  1  0
 54 56  1  0
 54 53  1  0
 55 66  2  0
 56 61  1  0
 57 65  1  0
 57 67  1  0
 58 60  1  0
 59 65  1  0
 60 61  2  0
 60 59  1  0
 62 56  2  0
 63 62  1  0
 63 58  2  0
 64 58  1  0
 64 57  1  0
 65 55  1  0
 67 69  2  0
 68 67  1  0
 70 68  1  0
 71 80  2  0
 71 76  1  0
 72 68  1  0
 72 76  1  0
 73 72  1  0
 74 75  1  0
 74 73  1  0
 75 71  1  0
 76 77  2  0
 77 78  1  0
 79 78  2  0
 80 79  1  0
 81 55  1  0
 81 82  1  0
 81 91  1  0
 82 85  1  0
 83 87  1  0
 83 82  1  0
 84 83  2  0
 87 86  1  0
 89 90  1  0
 89 87  1  0
 89 88  1  0
 91 94  1  1
 91 92  1  0
 93 91  1  0
M  ISO  4   7 100  15 100  53 101  54 101
M  END
>  <TORSDO>  (66) 
F 19

>  <SCORE>  (66) 
-13.485

>  <name>  (66) 
65

>  <ligand_id>  (66) 
65

>  <original_smiles>  (66) 
[H]C(Oc1c([H])c([H])c2c(c1[H])C([H])([H])N(C(=O)C([H])(N([H])C(=O)C([H])(N([H])C([H])([H])[H])C([H])([H])[H])C(C([H])([H])[H])(C([H])([H])[H])C([H])([H])[H])C([H])(C(=O)N([H])C1([H])c3c([H])c([H])c([H])c([H])c3C([H])([H])C([H])([H])C1([H])[H])C2([H])[H])=C([H])C([H])=C([H])c1c([H])c(C(=O)N([H])[H])c([H])c(N([H])C(=O)N2C([H])([H])C([H])([H])C([H])([H])C([H])(n3nc(-c4c([H])c([H])c(Oc5c([H])c([H])c(F)c([H])c5F)c([H])c4[H])c(C(=O)N([H])[H])c3N([H])[H])C2([H])[H])c1[H]

>  <smiles>  (66) 
[H]C(Oc1c([H])c([H])c2c(c1[H])C([H])([H])N(C(=O)C([H])(N([H])C(=O)C([H])(N([H])C([H])([H])[H])C([H])([H])[H])C(C([H])([H])[H])(C([H])([H])[H])C([H])([H])[H])C([H])(C(=O)N([H])C1([H])c3c([H])c([H])c([H])c([H])c3C([H])([H])C([H])([H])C1([H])[H])C2([H])[H])=C([H])C([H])=C([H])c1c([H])c(C(=O)N([H])[H])c([H])c(N([H])C(=O)N2C([H])([H])C([H])([H])C([H])([H])C([H])(n3nc(-c4c([H])c([H])c(Oc5c([H])c([H])c(F)c([H])c5F)c([H])c4[H])c(C(=O)N([H])[H])c3N([H])[H])C2([H])[H])c1[H]

$$$$
66:0:0
     RDKit          3D

 95103  0  0  1  0  0  0  0  0999 V2000
  -29.9880  -20.4910   21.9520 C   0  0  0  0  0  3  0  0  0  0  0  0
  -28.8430  -19.8600   19.9310 C   0  0  0  0  0  3  0  0  0  0  0  0
  -30.1540  -18.1510   21.1480 C   0  0  0  0  0  0  0  0  0  0  0  0
  -30.4720  -19.1640   22.1150 C   0  0  0  0  0  0  0  0  0  0  0  0
  -29.2200  -20.8820   20.8310 C   0  0  0  0  0  0  0  0  0  0  0  0
  -29.2960  -18.5250   20.0810 C   0  0  0  0  0  0  0  0  0  0  0  0
  -28.9410  -17.6200   19.1350 F   0  0  0  0  0  0  0  0  0  0  0  0
  -30.7740  -14.6240   20.1090 C   0  0  0  0  0  0  0  0  0  0  0  0
  -30.3480  -12.5100   18.9000 C   0  0  0  0  0  2  0  0  0  0  0  0
  -29.3390  -12.7380   17.7620 C   0  0  0  0  0  2  0  0  0  0  0  0
  -27.8980  -12.5870   18.2820 C   0  0  0  0  0  2  0  0  0  0  0  0
  -27.6390  -13.3890   19.5860 C   0  0  0  0  0  3  0  0  0  0  0  0
  -28.7650  -13.1610   20.6210 C   0  0  0  0  0  2  0  0  0  0  0  0
  -30.0410  -13.4820   19.9680 N   0  0  0  0  0  0  0  0  0  0  0  0
  -31.8550  -14.7420   19.5250 O   0  0  0  0  0  0  0  0  0  0  0  0
  -30.8760  -16.8040   21.1100 C   0  0  0  0  0  0  0  0  0  0  0  0
  -30.2090  -15.6640   20.7750 N   0  0  0  0  0  0  0  0  0  0  0  0
  -32.0840  -16.7930   21.3730 O   0  0  0  0  0  0  0  0  0  0  0  0
  -29.2170  -15.6300   20.9270 H   0  0  0  0  0  0  0  0  0  0  0  0
  -25.2940  -13.9660   20.4680 C   0  0  0  0  0  0  0  0  0  0  0  0
  -24.2440  -13.1830   20.8680 C   0  0  0  0  0  0  0  0  0  0  0  0
  -24.6960  -11.8320   20.7550 C   0  0  0  0  0  0  0  0  0  0  0  0
  -26.3170  -13.0940   20.1360 N   0  0  0  0  0  0  0  0  0  0  0  0
  -25.9660  -11.8020   20.3670 N   0  0  0  0  0  0  0  0  0  0  0  0
  -23.9760  -10.5640   20.9430 C   0  0  0  0  0  0  0  0  0  0  0  0
  -24.4140   -9.5990   21.8770 C   0  0  0  0  0  3  0  0  0  0  0  0
  -23.6940   -8.3970   22.0560 C   0  0  0  0  0  3  0  0  0  0  0  0
  -22.5260   -8.1510   21.2970 C   0  0  0  0  0  0  0  0  0  0  0  0
  -22.1070   -9.1040   20.3510 C   0  0  0  0  0  3  0  0  0  0  0  0
  -22.8260  -10.2980   20.1720 C   0  0  0  0  0  3  0  0  0  0  0  0
  -21.7810   -7.0000   21.3840 O   0  0  0  0  0  0  0  0  0  0  0  0
  -21.6640   -6.3010   22.5600 C   0  0  0  0  0  0  0  0  0  0  0  0
  -21.1290   -6.8930   23.7250 C   0  0  0  0  0  3  0  0  0  0  0  0
  -20.9640   -6.1220   24.8930 C   0  0  0  0  0  3  0  0  0  0  0  0
  -21.3230   -4.7590   24.8950 C   0  0  0  0  0  0  0  0  0  0  0  0
  -21.8510   -4.1680   23.7330 C   0  0  0  0  0  3  0  0  0  0  0  0
  -22.0170   -4.9370   22.5680 C   0  0  0  0  0  0  0  0  0  0  0  0
  -22.5070   -4.3580   21.4440 F   0  0  0  0  0  0  0  0  0  0  0  0
  -21.1540   -4.0150   26.0130 F   0  0  0  0  0  0  0  0  0  0  0  0
  -22.8690  -13.6540   21.2450 C   0  0  0  0  0  0  0  0  0  0  0  0
  -22.1900  -12.9230   22.1210 N   0  0  0  0  0  0  0  0  0  0  0  0
  -22.4080  -14.7040   20.7980 O   0  0  0  0  0  0  0  0  0  0  0  0
  -22.5810  -12.0750   22.5050 H   0  0  0  0  0  0  0  0  0  0  0  0
  -21.2660  -13.2120   22.4090 H   0  0  0  0  0  0  0  0  0  0  0  0
  -25.4600  -15.3420   20.3450 N   0  0  0  0  0  0  0  0  0  0  0  0
  -24.7310  -16.0020   20.5980 H   0  0  0  0  0  0  0  0  0  0  0  0
  -26.2870  -15.7930   19.9740 H   0  0  0  0  0  0  0  0  0  0  0  0
  -29.7070  -23.1580   20.6110 C   0  0  0  0  0  3  0  0  0  0  0  0
  -28.8200  -22.2240   20.5950 N   0  0  0  0  0  0  0  0  0  0  0  0
  -29.6130  -24.6760   20.3680 C   0  0  0  0  0  0  0  0  0  0  0  0
  -30.6270  -25.3800   20.4820 O   0  0  0  0  0  0  0  0  0  0  0  0
  -28.2720  -25.3430   19.9640 C   0  0  0  0  0  2  0  0  0  0  0  0
  -28.3620  -26.7990   19.9880 O   0  0  0  0  0  0  0  0  0  0  0  0
  -24.5010  -31.9190   23.1250 C   0  0  0  0  0  0  0  0  0  0  0  0
  -27.1810  -27.5270   19.9760 C   0  0  0  0  0  0  0  0  0  0  0  0
  -23.3020  -30.5370   21.4630 C   0  0  0  0  0  3  0  0  0  0  0  0
  -24.7690  -29.0270   20.0150 C   0  0  0  0  0  0  0  0  0  0  0  0
  -25.8280  -30.9180   21.2630 C   0  0  0  0  0  2  0  0  0  0  0  0
  -25.9270  -29.5570   20.5970 C   0  0  0  0  0  0  0  0  0  0  0  0
  -27.1370  -28.8190   20.5650 C   0  0  0  0  0  3  0  0  0  0  0  0
  -25.9990  -27.0170   19.3940 C   0  0  0  0  0  3  0  0  0  0  0  0
  -24.8000  -27.7560   19.4160 C   0  0  0  0  0  3  0  0  0  0  0  0
  -23.5190  -29.8770   20.0730 C   0  0  0  0  0  2  0  0  0  0  0  0
  -24.5620  -31.1390   22.0100 N   0  0  0  0  0  0  0  0  0  0  0  0
  -23.4190  -32.1720   23.6730 O   0  0  0  0  0  0  0  0  0  0  0  0
  -22.6590  -29.4970   22.4070 C   0  0  0  0  0  0  0  0  0  0  0  0
  -21.3400  -29.2860   22.2640 N   0  0  0  0  0  0  0  0  0  0  0  0
  -23.3470  -28.8810   23.2270 O   0  0  0  0  0  0  0  0  0  0  0  0
  -20.8470  -29.8310   21.5670 H   0  0  0  0  0  0  0  0  0  0  0  0
  -17.9910  -28.0050   22.6990 C   0  0  0  0  0  0  0  0  0  0  0  0
  -20.5340  -28.3270   23.0200 C   0  0  0  0  0  3  0  0  0  0  0  0
  -20.6850  -26.9000   22.4410 C   0  0  0  0  0  2  0  0  0  0  0  0
  -19.6120  -26.5570   21.4030 C   0  0  0  0  0  2  0  0  0  0  0  0
  -18.2160  -26.6640   22.0220 C   0  0  0  0  0  2  0  0  0  0  0  0
  -19.0810  -28.7920   23.1550 C   0  0  0  0  0  0  0  0  0  0  0  0
  -18.8190  -30.0470   23.7490 C   0  0  0  0  0  3  0  0  0  0  0  0
  -17.4980  -30.5120   23.8940 C   0  0  0  0  0  3  0  0  0  0  0  0
  -16.4220  -29.7220   23.4540 C   0  0  0  0  0  3  0  0  0  0  0  0
  -16.6690  -28.4720   22.8610 C   0  0  0  0  0  3  0  0  0  0  0  0
  -25.7820  -32.5510   23.7520 C   0  0  0  0  0  3  0  0  0  0  0  0
  -26.3140  -31.7620   25.0110 C   0  0  1  0  0  0  0  0  0  0  0  0
  -25.2260  -31.4800   26.0720 C   0  0  0  0  0  1  0  0  0  0  0  0
  -26.9240  -30.4050   24.5910 C   0  0  0  0  0  1  0  0  0  0  0  0
  -27.4470  -32.5630   25.6930 C   0  0  0  0  0  1  0  0  0  0  0  0
  -25.4630  -33.9400   24.1100 N   0  0  0  0  0  0  0  0  0  0  0  0
  -25.7770  -35.0090   23.3660 C   0  0  0  0  0  0  0  0  0  0  0  0
  -26.4360  -34.9310   22.3260 O   0  0  0  0  0  0  0  0  0  0  0  0
  -24.8740  -34.0730   24.9190 H   0  0  0  0  0  0  0  0  0  0  0  0
  -24.0230  -36.7850   23.0640 C   0  0  0  0  0  1  0  0  0  0  0  0
  -25.2800  -36.3830   23.8530 C   0  0  0  0  0  3  0  0  0  0  0  0
  -27.4140  -37.2820   24.6710 C   0  0  0  0  0  1  0  0  0  0  0  0
  -26.2980  -37.4520   23.7450 N   0  0  0  0  0  0  0  0  0  0  0  0
  -25.8800  -38.3610   23.9180 H   0  0  0  0  0  0  0  0  0  0  0  0
  -30.6760  -18.0440   24.4060 C   0  0  0  0  0  1  0  0  0  0  0  0
  -31.3560  -18.9100   23.3370 C   0  0  0  0  0  2  0  0  0  0  0  0
  1  4  1  0
  2  6  2  0
  2  5  1  0
  3  4  2  0
  4 95  1  0
  5  1  2  0
  6  3  1  0
  7  6  1  0
  8 17  1  0
  9 14  1  0
 10 11  1  0
 10  9  1  0
 12 11  1  0
 12 23  1  0
 12 13  1  0
 14  8  1  0
 14 13  1  0
 15  8  2  0
 16  3  1  0
 16 18  2  0
 17 19  1  0
 17 16  1  0
 20 21  2  0
 21 40  1  0
 22 21  1  0
 22 25  1  0
 23 24  1  0
 23 20  1  0
 24 22  2  0
 25 26  1  0
 26 27  2  0
 28 31  1  0
 28 27  1  0
 29 28  2  0
 30 29  1  0
 30 25  2  0
 31 32  1  0
 32 37  2  0
 32 33  1  0
 33 34  2  0
 34 35  1  0
 35 39  1  0
 36 35  2  0
 37 36  1  0
 38 37  1  0
 40 41  1  0
 41 44  1  0
 41 43  1  0
 42 40  2  0
 45 20  1  0
 45 46  1  0
 47 45  1  0
 49 48  2  0
 49  5  1  0
 50 51  2  0
 50 48  1  0
 52 53  1  0
 52 50  1  0
 54 65  2  0
 55 53  1  0
 55 60  1  0
 56 64  1  0
 56 66  1  0
 57 63  1  0
 57 59  1  0
 58 64  1  0
 59 58  1  0
 60 59  2  0
 61 62  1  0
 61 55  2  0
 62 57  2  0
 63 56  1  0
 64 54  1  0
 66 68  2  0
 67 66  1  0
 69 67  1  0
 70 79  2  0
 70 75  1  0
 71 67  1  0
 71 75  1  0
 72 71  1  0
 73 74  1  0
 73 72  1  0
 74 70  1  0
 75 76  2  0
 76 77  1  0
 78 77  2  0
 79 78  1  0
 80 54  1  0
 80 85  1  0
 80 81  1  0
 81 84  1  1
 81 82  1  0
 83 81  1  0
 85 88  1  0
 86 90  1  0
 86 85  1  0
 87 86  2  0
 90 89  1  0
 92 90  1  0
 92 93  1  0
 92 91  1  0
 95 94  1  0
M  ISO  4   8 100  17 100  52 101  53 101
M  END
>  <TORSDO>  (67) 
F 20

>  <SCORE>  (67) 
-12.334

>  <name>  (67) 
66

>  <ligand_id>  (67) 
66

>  <original_smiles>  (67) 
[H]C(=Nc1c([H])c(F)c(C(=O)N([H])C(=O)N2C([H])([H])C([H])([H])C([H])([H])C([H])(n3nc(-c4c([H])c([H])c(Oc5c([H])c([H])c(F)c([H])c5F)c([H])c4[H])c(C(=O)N([H])[H])c3N([H])[H])C2([H])[H])c(C([H])([H])C([H])([H])[H])c1[H])C(=O)C([H])([H])Oc1c([H])c([H])c2c(c1[H])C([H])([H])N(C(=O)C([H])(N([H])C(=O)C([H])(N([H])C([H])([H])[H])C([H])([H])[H])C(C([H])([H])[H])(C([H])([H])[H])C([H])([H])[H])C([H])(C(=O)N([H])C1([H])c3c([H])c([H])c([H])c([H])c3C([H])([H])C([H])([H])C1([H])[H])C2([H])[H]

>  <smiles>  (67) 
[H]C(=Nc1c([H])c(F)c(C(=O)N([H])C(=O)N2C([H])([H])C([H])([H])C([H])([H])C([H])(n3nc(-c4c([H])c([H])c(Oc5c([H])c([H])c(F)c([H])c5F)c([H])c4[H])c(C(=O)N([H])[H])c3N([H])[H])C2([H])[H])c(C([H])([H])C([H])([H])[H])c1[H])C(=O)C([H])([H])Oc1c([H])c([H])c2c(c1[H])C([H])([H])N(C(=O)C([H])(N([H])C(=O)C([H])(N([H])C([H])([H])[H])C([H])([H])[H])C(C([H])([H])[H])(C([H])([H])[H])C([H])([H])[H])C([H])(C(=O)N([H])C1([H])c3c([H])c([H])c([H])c([H])c3C([H])([H])C([H])([H])C1([H])[H])C2([H])[H]

$$$$
67:0:0
     RDKit          3D

 97106  0  0  1  0  0  0  0  0999 V2000
  -28.3880  -24.4140   18.9830 C   0  0  0  0  0  0  0  0  0  0  0  0
  -28.3580  -25.7780   19.0710 C   0  0  0  0  0  3  0  0  0  0  0  0
  -28.3070  -20.7540   19.6540 C   0  0  0  0  0  0  0  0  0  0  0  0
  -28.8570  -23.7000   17.7470 C   0  0  0  0  0  2  0  0  0  0  0  0
  -28.0840  -23.2930   19.9930 C   0  0  0  0  0  2  0  0  0  0  0  0
  -29.4830  -22.3960   18.2630 C   0  0  0  0  0  2  0  0  0  0  0  0
  -28.7410  -22.0430   19.4750 N   0  0  0  0  0  0  0  0  0  0  0  0
  -27.1090  -20.4890   19.7720 O   0  0  0  0  0  0  0  0  0  0  0  0
  -30.4730  -19.9500   20.6490 C   0  0  0  0  0  3  0  0  0  0  0  0
  -29.1220  -18.2590   19.5220 C   0  0  0  0  0  3  0  0  0  0  0  0
  -29.3340  -19.6380   19.8810 C   0  0  0  0  0  0  0  0  0  0  0  0
  -31.3620  -18.9450   21.0940 C   0  0  0  0  0  0  0  0  0  0  0  0
  -30.0520  -17.2200   19.8810 C   0  0  0  0  0  0  0  0  0  0  0  0
  -31.1600  -17.5950   20.6950 C   0  0  0  0  0  0  0  0  0  0  0  0
  -30.6070  -14.7290   19.3770 C   0  0  0  0  0  0  0  0  0  0  0  0
  -30.3020  -12.4200   18.4740 C   0  0  0  0  0  2  0  0  0  0  0  0
  -29.2220  -12.4560   17.3680 C   0  0  0  0  0  2  0  0  0  0  0  0
  -27.8080  -12.3260   17.9730 C   0  0  0  0  0  2  0  0  0  0  0  0
  -27.5850  -13.2790   19.1770 C   0  0  0  0  0  3  0  0  0  0  0  0
  -28.7640  -13.2060   20.1710 C   0  0  0  0  0  2  0  0  0  0  0  0
  -29.9890  -13.5080   19.4180 N   0  0  0  0  0  0  0  0  0  0  0  0
  -31.7520  -14.8490   18.9310 O   0  0  0  0  0  0  0  0  0  0  0  0
  -29.7810  -15.8130   19.5710 N   0  0  0  0  0  0  0  0  0  0  0  0
  -28.8050  -15.5700   19.5580 H   0  0  0  0  0  0  0  0  0  0  0  0
  -25.3530  -13.9520   20.2420 C   0  0  0  0  0  0  0  0  0  0  0  0
  -24.3050  -13.2130   20.7190 C   0  0  0  0  0  0  0  0  0  0  0  0
  -24.6860  -11.8450   20.5650 C   0  0  0  0  0  0  0  0  0  0  0  0
  -26.3070  -13.0370   19.8330 N   0  0  0  0  0  0  0  0  0  0  0  0
  -25.9230  -11.7610   20.0930 N   0  0  0  0  0  0  0  0  0  0  0  0
  -23.9270  -10.6080   20.7950 C   0  0  0  0  0  0  0  0  0  0  0  0
  -24.3800   -9.6220   21.7010 C   0  0  0  0  0  3  0  0  0  0  0  0
  -23.6240   -8.4500   21.9190 C   0  0  0  0  0  3  0  0  0  0  0  0
  -22.4020   -8.2550   21.2330 C   0  0  0  0  0  0  0  0  0  0  0  0
  -21.9670   -9.2300   20.3190 C   0  0  0  0  0  3  0  0  0  0  0  0
  -22.7220  -10.3940   20.0980 C   0  0  0  0  0  3  0  0  0  0  0  0
  -21.6140   -7.1380   21.3640 O   0  0  0  0  0  0  0  0  0  0  0  0
  -21.5510   -6.4380   22.5420 C   0  0  0  0  0  0  0  0  0  0  0  0
  -21.1380   -7.0400   23.7490 C   0  0  0  0  0  3  0  0  0  0  0  0
  -21.0230   -6.2650   24.9200 C   0  0  0  0  0  3  0  0  0  0  0  0
  -21.3080   -4.8870   24.8840 C   0  0  0  0  0  0  0  0  0  0  0  0
  -21.7160   -4.2830   23.6810 C   0  0  0  0  0  3  0  0  0  0  0  0
  -21.8340   -5.0560   22.5110 C   0  0  0  0  0  0  0  0  0  0  0  0
  -22.2050   -4.4650   21.3510 F   0  0  0  0  0  0  0  0  0  0  0  0
  -21.1900   -4.1410   26.0070 F   0  0  0  0  0  0  0  0  0  0  0  0
  -22.9830  -13.7380   21.1970 C   0  0  0  0  0  0  0  0  0  0  0  0
  -22.3450  -13.0320   22.1250 N   0  0  0  0  0  0  0  0  0  0  0  0
  -22.5290  -14.8040   20.7830 O   0  0  0  0  0  0  0  0  0  0  0  0
  -22.7250  -12.1590   22.4670 H   0  0  0  0  0  0  0  0  0  0  0  0
  -21.4720  -13.3660   22.5030 H   0  0  0  0  0  0  0  0  0  0  0  0
  -25.5630  -15.3220   20.0910 N   0  0  0  0  0  0  0  0  0  0  0  0
  -24.8410  -16.0080   20.2890 H   0  0  0  0  0  0  0  0  0  0  0  0
  -26.3510  -15.7200   19.5990 H   0  0  0  0  0  0  0  0  0  0  0  0
  -32.4610  -20.3450   22.8900 C   0  0  0  0  0  2  0  0  0  0  0  0
  -32.4140  -19.2590   22.0940 C   0  0  0  0  0  3  0  0  0  0  0  0
  -31.6170  -16.0790   22.4150 C   0  0  0  0  0  1  0  0  0  0  0  0
  -32.0190  -16.6360   21.1700 O   0  0  0  0  0  0  0  0  0  0  0  0
  -28.0510  -26.5840   20.1560 O   0  0  0  0  0  0  0  0  0  0  0  0
  -24.4140  -31.8670   23.3250 C   0  0  0  0  0  0  0  0  0  0  0  0
  -26.9530  -27.4360   20.0950 C   0  0  0  0  0  0  0  0  0  0  0  0
  -23.1830  -30.5400   21.6470 C   0  0  0  0  0  3  0  0  0  0  0  0
  -24.6080  -29.0400   20.1540 C   0  0  0  0  0  0  0  0  0  0  0  0
  -25.7210  -30.8590   21.4460 C   0  0  0  0  0  2  0  0  0  0  0  0
  -25.7840  -29.5080   20.7520 C   0  0  0  0  0  0  0  0  0  0  0  0
  -26.9640  -28.7160   20.7200 C   0  0  0  0  0  3  0  0  0  0  0  0
  -25.7570  -27.0020   19.4890 C   0  0  0  0  0  3  0  0  0  0  0  0
  -24.5930  -27.7920   19.5100 C   0  0  0  0  0  3  0  0  0  0  0  0
  -23.3800  -29.9240   20.2380 C   0  0  0  0  0  2  0  0  0  0  0  0
  -24.4610  -31.0990   22.1990 N   0  0  0  0  0  0  0  0  0  0  0  0
  -23.3390  -32.1350   23.8790 O   0  0  0  0  0  0  0  0  0  0  0  0
  -22.5220  -29.4920   22.5700 C   0  0  0  0  0  0  0  0  0  0  0  0
  -21.2030  -29.2890   22.4060 N   0  0  0  0  0  0  0  0  0  0  0  0
  -23.1940  -28.8660   23.3950 O   0  0  0  0  0  0  0  0  0  0  0  0
  -20.7160  -29.8540   21.7230 H   0  0  0  0  0  0  0  0  0  0  0  0
  -17.8560  -27.9610   22.7330 C   0  0  0  0  0  0  0  0  0  0  0  0
  -20.3820  -28.3250   23.1390 C   0  0  0  0  0  3  0  0  0  0  0  0
  -20.5710  -26.8890   22.5900 C   0  0  0  0  0  2  0  0  0  0  0  0
  -19.5420  -26.5160   21.5180 C   0  0  0  0  0  2  0  0  0  0  0  0
  -18.1230  -26.6140   22.0820 C   0  0  0  0  0  2  0  0  0  0  0  0
  -18.9190  -28.7710   23.2140 C   0  0  0  0  0  0  0  0  0  0  0  0
  -18.6190  -30.0340   23.7750 C   0  0  0  0  0  3  0  0  0  0  0  0
  -17.2890  -30.4860   23.8560 C   0  0  0  0  0  3  0  0  0  0  0  0
  -16.2410  -29.6730   23.3920 C   0  0  0  0  0  3  0  0  0  0  0  0
  -16.5230  -28.4130   22.8360 C   0  0  0  0  0  3  0  0  0  0  0  0
  -25.7100  -32.4680   23.9540 C   0  0  0  0  0  3  0  0  0  0  0  0
  -26.1710  -31.7060   25.2590 C   0  0  1  0  0  0  0  0  0  0  0  0
  -25.0510  -31.5280   26.3100 C   0  0  0  0  0  1  0  0  0  0  0  0
  -26.7140  -30.3010   24.9050 C   0  0  0  0  0  1  0  0  0  0  0  0
  -27.3310  -32.4720   25.9320 C   0  0  0  0  0  1  0  0  0  0  0  0
  -25.4480  -33.8850   24.2440 N   0  0  0  0  0  0  0  0  0  0  0  0
  -25.8290  -34.9020   23.4610 C   0  0  0  0  0  0  0  0  0  0  0  0
  -26.5100  -34.7430   22.4440 O   0  0  0  0  0  0  0  0  0  0  0  0
  -24.8490  -34.0810   25.0330 H   0  0  0  0  0  0  0  0  0  0  0  0
  -24.1840  -36.7520   23.0190 C   0  0  0  0  0  1  0  0  0  0  0  0
  -25.3870  -36.3190   23.8730 C   0  0  0  0  0  3  0  0  0  0  0  0
  -27.5370  -37.1420   24.7310 C   0  0  0  0  0  1  0  0  0  0  0  0
  -26.4640  -37.3280   23.7590 N   0  0  0  0  0  0  0  0  0  0  0  0
  -26.0910  -38.2670   23.8760 H   0  0  0  0  0  0  0  0  0  0  0  0
  1  2  2  0
  1  5  1  0
  2 57  1  0
  3  8  2  0
  3 11  1  0
  4  6  1  0
  4  1  1  0
  6  7  1  0
  7  3  1  0
  7  5  1  0
  9 12  1  0
 10 13  2  0
 10 11  1  0
 11  9  2  0
 12 54  1  0
 13 14  1  0
 14 12  2  0
 14 56  1  0
 15 21  1  0
 15 23  1  0
 16 21  1  0
 17 18  1  0
 17 16  1  0
 19 18  1  0
 19 28  1  0
 19 20  1  0
 21 20  1  0
 22 15  2  0
 23 13  1  0
 24 23  1  0
 25 26  2  0
 26 45  1  0
 27 26  1  0
 27 30  1  0
 28 29  1  0
 28 25  1  0
 29 27  2  0
 30 31  1  0
 31 32  2  0
 33 36  1  0
 33 32  1  0
 34 33  2  0
 35 34  1  0
 35 30  2  0
 36 37  1  0
 37 38  1  0
 38 39  2  0
 40 39  1  0
 40 44  1  0
 41 40  2  0
 42 37  2  0
 42 41  1  0
 43 42  1  0
 45 46  1  0
 46 48  1  0
 46 49  1  0
 47 45  2  0
 50 25  1  0
 50 51  1  0
 52 50  1  0
 54 53  2  0
 56 55  1  0
 58 69  2  0
 59 57  1  0
 59 64  1  0
 60 68  1  0
 60 70  1  0
 61 67  1  0
 61 63  1  0
 62 68  1  0
 63 62  1  0
 64 63  2  0
 65 66  1  0
 65 59  2  0
 66 61  2  0
 67 60  1  0
 68 58  1  0
 70 72  2  0
 71 70  1  0
 73 71  1  0
 74 83  2  0
 74 79  1  0
 75 71  1  0
 75 79  1  0
 76 75  1  0
 77 78  1  0
 77 76  1  0
 78 74  1  0
 79 80  2  0
 80 81  1  0
 82 81  2  0
 83 82  1  0
 84 58  1  0
 84 89  1  0
 84 85  1  0
 85 88  1  1
 85 86  1  0
 87 85  1  0
 89 92  1  0
 90 94  1  0
 90 89  1  0
 91 90  2  0
 94 93  1  0
 96 94  1  0
 96 97  1  0
 96 95  1  0
M  ISO  4   2 101  15 100  23 100  57 101
M  END
>  <TORSDO>  (68) 
F 19

>  <SCORE>  (68) 
-12.480

>  <name>  (68) 
67

>  <ligand_id>  (68) 
67

>  <original_smiles>  (68) 
[H]C([H])=C([H])c1c([H])c(C(=O)N2C([H])([H])C(=C([H])Oc3c([H])c([H])c4c(c3[H])C([H])([H])N(C(=O)C([H])(N([H])C(=O)C([H])(N([H])C([H])([H])[H])C([H])([H])[H])C(C([H])([H])[H])(C([H])([H])[H])C([H])([H])[H])C([H])(C(=O)N([H])C3([H])c5c([H])c([H])c([H])c([H])c5C([H])([H])C([H])([H])C3([H])[H])C4([H])[H])C([H])([H])C2([H])[H])c([H])c(N([H])C(=O)N2C([H])([H])C([H])([H])C([H])([H])C([H])(n3nc(-c4c([H])c([H])c(Oc5c([H])c([H])c(F)c([H])c5F)c([H])c4[H])c(C(=O)N([H])[H])c3N([H])[H])C2([H])[H])c1OC([H])([H])[H]

>  <smiles>  (68) 
[H]C([H])=C([H])c1c([H])c(C(=O)N2C([H])([H])C(=C([H])Oc3c([H])c([H])c4c(c3[H])C([H])([H])N(C(=O)C([H])(N([H])C(=O)C([H])(N([H])C([H])([H])[H])C([H])([H])[H])C(C([H])([H])[H])(C([H])([H])[H])C([H])([H])[H])C([H])(C(=O)N([H])C3([H])c5c([H])c([H])c([H])c([H])c5C([H])([H])C([H])([H])C3([H])[H])C4([H])[H])C([H])([H])C2([H])[H])c([H])c(N([H])C(=O)N2C([H])([H])C([H])([H])C([H])([H])C([H])(n3nc(-c4c([H])c([H])c(Oc5c([H])c([H])c(F)c([H])c5F)c([H])c4[H])c(C(=O)N([H])[H])c3N([H])[H])C2([H])[H])c1OC([H])([H])[H]

$$$$
68:0:0
     RDKit          3D

 92100  0  0  1  0  0  0  0  0999 V2000
  -29.0740  -19.6670   19.8900 C   0  0  0  0  0  3  0  0  0  0  0  0
  -31.3800  -19.9010   19.5750 C   0  0  0  0  0  3  0  0  0  0  0  0
  -29.2370  -18.2280   20.0400 C   0  0  0  0  0  0  0  0  0  0  0  0
  -30.5180  -17.5240   20.0190 C   0  0  0  0  0  0  0  0  0  0  0  0
  -30.1240  -20.5970   19.6440 C   0  0  0  0  0  0  0  0  0  0  0  0
  -31.5770  -18.4670   19.7630 C   0  0  0  0  0  0  0  0  0  0  0  0
  -32.8490  -18.0050   19.6970 F   0  0  0  0  0  0  0  0  0  0  0  0
  -30.6650  -15.9370   20.3850 C   0  0  0  0  0  0  0  0  0  0  0  0
  -30.4110  -15.6170   21.5870 N   0  0  0  0  0  0  0  0  0  0  0  0
  -30.1230  -16.4280   22.1230 H   0  0  0  0  0  0  0  0  0  0  0  0
  -31.1870  -14.6680   19.4780 C   0  0  0  0  0  0  0  0  0  0  0  0
  -30.8650  -12.3470   18.5020 C   0  0  0  0  0  2  0  0  0  0  0  0
  -29.7840  -12.3700   17.3940 C   0  0  0  0  0  2  0  0  0  0  0  0
  -28.3780  -12.1910   17.9950 C   0  0  0  0  0  2  0  0  0  0  0  0
  -28.1550  -13.0990   19.2300 C   0  0  0  0  0  3  0  0  0  0  0  0
  -29.3350  -13.0150   20.2210 C   0  0  0  0  0  2  0  0  0  0  0  0
  -30.5570  -13.4170   19.4990 N   0  0  0  0  0  0  0  0  0  0  0  0
  -32.2330  -14.7640   18.8250 O   0  0  0  0  0  0  0  0  0  0  0  0
  -25.9010  -13.7390   20.2680 C   0  0  0  0  0  0  0  0  0  0  0  0
  -24.8650  -12.9890   20.7540 C   0  0  0  0  0  0  0  0  0  0  0  0
  -25.2740  -11.6250   20.6330 C   0  0  0  0  0  0  0  0  0  0  0  0
  -26.8750  -12.8350   19.8790 N   0  0  0  0  0  0  0  0  0  0  0  0
  -26.5130  -11.5560   20.1600 N   0  0  0  0  0  0  0  0  0  0  0  0
  -24.5330  -10.3830   20.8850 C   0  0  0  0  0  0  0  0  0  0  0  0
  -24.8980   -9.5020   21.9280 C   0  0  0  0  0  3  0  0  0  0  0  0
  -24.1570   -8.3240   22.1620 C   0  0  0  0  0  3  0  0  0  0  0  0
  -23.0380   -8.0150   21.3540 C   0  0  0  0  0  0  0  0  0  0  0  0
  -22.6920   -8.8840   20.3030 C   0  0  0  0  0  3  0  0  0  0  0  0
  -23.4330  -10.0540   20.0670 C   0  0  0  0  0  3  0  0  0  0  0  0
  -22.2770   -6.8800   21.4920 O   0  0  0  0  0  0  0  0  0  0  0  0
  -21.9230   -6.3970   22.7270 C   0  0  0  0  0  0  0  0  0  0  0  0
  -21.1890   -7.1740   23.6490 C   0  0  0  0  0  3  0  0  0  0  0  0
  -20.7860   -6.6150   24.8770 C   0  0  0  0  0  3  0  0  0  0  0  0
  -21.1050   -5.2780   25.1820 C   0  0  0  0  0  0  0  0  0  0  0  0
  -21.8280   -4.5000   24.2620 C   0  0  0  0  0  3  0  0  0  0  0  0
  -22.2340   -5.0570   23.0360 C   0  0  0  0  0  0  0  0  0  0  0  0
  -22.9140   -4.2970   22.1450 F   0  0  0  0  0  0  0  0  0  0  0  0
  -20.7110   -4.7380   26.3590 F   0  0  0  0  0  0  0  0  0  0  0  0
  -23.5310  -13.5030   21.2120 C   0  0  0  0  0  0  0  0  0  0  0  0
  -22.9300  -12.8530   22.2010 N   0  0  0  0  0  0  0  0  0  0  0  0
  -23.0370  -14.5190   20.7250 O   0  0  0  0  0  0  0  0  0  0  0  0
  -23.3470  -12.0320   22.6160 H   0  0  0  0  0  0  0  0  0  0  0  0
  -22.0410  -13.1810   22.5520 H   0  0  0  0  0  0  0  0  0  0  0  0
  -26.0870  -15.1090   20.1030 N   0  0  0  0  0  0  0  0  0  0  0  0
  -25.3580  -15.7780   20.3250 H   0  0  0  0  0  0  0  0  0  0  0  0
  -26.8910  -15.5320   19.6590 H   0  0  0  0  0  0  0  0  0  0  0  0
  -26.8490  -17.9510   20.7920 C   0  0  0  0  0  2  0  0  0  0  0  0
  -27.9720  -17.4800   20.2190 C   0  0  0  0  0  3  0  0  0  0  0  0
  -29.5930  -23.1500   19.8790 C   0  0  0  0  0  3  0  0  0  0  0  0
  -29.9150  -22.0180   19.2270 N   0  0  0  0  0  0  0  0  0  0  0  0
  -29.0640  -24.5700   19.2000 C   0  0  0  0  0  2  0  0  0  0  0  0
  -29.3170  -26.0230   19.6860 O   0  0  0  0  0  0  0  0  0  0  0  0
  -25.5020  -31.1980   23.2540 C   0  0  0  0  0  0  0  0  0  0  0  0
  -28.2480  -26.9920   19.6910 C   0  0  0  0  0  0  0  0  0  0  0  0
  -24.3610  -29.9940   21.4300 C   0  0  0  0  0  3  0  0  0  0  0  0
  -25.8710  -28.6610   19.8360 C   0  0  0  0  0  0  0  0  0  0  0  0
  -26.9090  -30.3440   21.3460 C   0  0  0  0  0  2  0  0  0  0  0  0
  -27.0270  -29.0520   20.5230 C   0  0  0  0  0  0  0  0  0  0  0  0
  -28.2140  -28.2320   20.4430 C   0  0  0  0  0  3  0  0  0  0  0  0
  -27.0690  -26.7210   18.9550 C   0  0  0  0  0  3  0  0  0  0  0  0
  -25.9060  -27.5100   19.0380 C   0  0  0  0  0  3  0  0  0  0  0  0
  -24.6170  -29.5070   19.9790 C   0  0  0  0  0  2  0  0  0  0  0  0
  -25.6090  -30.5260   22.0660 N   0  0  0  0  0  0  0  0  0  0  0  0
  -24.4020  -31.3850   23.7950 O   0  0  0  0  0  0  0  0  0  0  0  0
  -23.6990  -28.8530   22.2430 C   0  0  0  0  0  0  0  0  0  0  0  0
  -22.3910  -28.6260   22.0270 N   0  0  0  0  0  0  0  0  0  0  0  0
  -24.3650  -28.1790   23.0330 O   0  0  0  0  0  0  0  0  0  0  0  0
  -21.9090  -29.2240   21.3710 H   0  0  0  0  0  0  0  0  0  0  0  0
  -19.0640  -27.2050   22.2180 C   0  0  0  0  0  0  0  0  0  0  0  0
  -21.5880  -27.5700   22.6510 C   0  0  0  0  0  3  0  0  0  0  0  0
  -21.8000  -26.2130   21.9400 C   0  0  0  0  0  2  0  0  0  0  0  0
  -20.7700  -25.9410   20.8400 C   0  0  0  0  0  2  0  0  0  0  0  0
  -19.3510  -25.9460   21.4170 C   0  0  0  0  0  2  0  0  0  0  0  0
  -20.1150  -27.9760   22.7840 C   0  0  0  0  0  0  0  0  0  0  0  0
  -19.7930  -29.1550   23.4920 C   0  0  0  0  0  3  0  0  0  0  0  0
  -18.4550  -29.5640   23.6380 C   0  0  0  0  0  3  0  0  0  0  0  0
  -17.4190  -28.7890   23.0890 C   0  0  0  0  0  3  0  0  0  0  0  0
  -17.7240  -27.6110   22.3840 C   0  0  0  0  0  3  0  0  0  0  0  0
  -26.7540  -31.7800   23.9760 C   0  0  0  0  0  3  0  0  0  0  0  0
  -27.3860  -30.7810   25.0220 C   0  0  1  0  0  0  0  0  0  0  0  0
  -26.3510  -30.1540   25.9860 C   0  0  0  0  0  1  0  0  0  0  0  0
  -28.1190  -29.6250   24.3030 C   0  0  0  0  0  1  0  0  0  0  0  0
  -28.4500  -31.5180   25.8690 C   0  0  0  0  0  1  0  0  0  0  0  0
  -26.3470  -33.0280   24.6400 N   0  0  0  0  0  0  0  0  0  0  0  0
  -26.5920  -34.2590   24.1710 C   0  0  0  0  0  0  0  0  0  0  0  0
  -27.2510  -34.4650   23.1480 O   0  0  0  0  0  0  0  0  0  0  0  0
  -25.7590  -32.9340   25.4550 H   0  0  0  0  0  0  0  0  0  0  0  0
  -24.7520  -35.9730   24.2610 C   0  0  0  0  0  1  0  0  0  0  0  0
  -26.0170  -35.4520   24.9620 C   0  0  0  0  0  3  0  0  0  0  0  0
  -28.0820  -36.2310   26.0390 C   0  0  0  0  0  1  0  0  0  0  0  0
  -26.9800  -36.5610   25.1380 N   0  0  0  0  0  0  0  0  0  0  0  0
  -26.5130  -37.3880   25.4990 H   0  0  0  0  0  0  0  0  0  0  0  0
  1  3  1  0
  2  5  1  0
  2  6  2  0
  3 48  1  0
  4  3  2  0
  4  8  1  0
  5  1  2  0
  6  4  1  0
  7  6  1  0
  8  9  2  0
  9 10  1  0
 11 17  1  0
 11  8  1  0
 12 17  1  0
 13 14  1  0
 13 12  1  0
 15 14  1  0
 15 22  1  0
 15 16  1  0
 17 16  1  0
 18 11  2  0
 19 20  2  0
 20 39  1  0
 21 20  1  0
 21 24  1  0
 22 23  1  0
 22 19  1  0
 23 21  2  0
 24 25  1  0
 25 26  2  0
 27 30  1  0
 27 26  1  0
 28 27  2  0
 29 28  1  0
 29 24  2  0
 30 31  1  0
 31 36  2  0
 31 32  1  0
 32 33  2  0
 33 34  1  0
 34 38  1  0
 35 34  2  0
 36 35  1  0
 37 36  1  0
 39 40  1  0
 40 43  1  0
 40 42  1  0
 41 39  2  0
 44 19  1  0
 44 45  1  0
 46 44  1  0
 48 47  2  0
 50  5  1  0
 50 49  2  0
 51 52  1  0
 51 49  1  0
 52 54  1  0
 53 64  2  0
 54 59  1  0
 55 63  1  0
 55 65  1  0
 56 62  1  0
 56 58  1  0
 57 63  1  0
 58 57  1  0
 59 58  2  0
 60 61  1  0
 60 54  2  0
 61 56  2  0
 62 55  1  0
 63 53  1  0
 65 67  2  0
 66 65  1  0
 68 66  1  0
 69 78  2  0
 69 74  1  0
 70 66  1  0
 70 74  1  0
 71 70  1  0
 72 73  1  0
 72 71  1  0
 73 69  1  0
 74 75  2  0
 75 76  1  0
 77 76  2  0
 78 77  1  0
 79 53  1  0
 79 84  1  0
 79 80  1  0
 80 83  1  1
 80 81  1  0
 82 80  1  0
 84 87  1  0
 85 84  1  0
 85 89  1  0
 86 85  2  0
 89 88  1  0
 89 91  1  0
 91 92  1  0
 91 90  1  0
M  ISO  4   8 100  11 100  51 101  52 101
M  END
>  <TORSDO>  (69) 
F 20

>  <SCORE>  (69) 
-8.932

>  <name>  (69) 
68

>  <ligand_id>  (69) 
68

>  <original_smiles>  (69) 
[H]N=C(C(=O)N1C([H])([H])C([H])([H])C([H])([H])C([H])(n2nc(-c3c([H])c([H])c(Oc4c([H])c([H])c(F)c([H])c4F)c([H])c3[H])c(C(=O)N([H])[H])c2N([H])[H])C1([H])[H])c1c(F)c([H])c(N=C([H])C([H])([H])Oc2c([H])c([H])c3c(c2[H])C([H])([H])N(C(=O)C([H])(N([H])C(=O)C([H])(N([H])C([H])([H])[H])C([H])([H])[H])C(C([H])([H])[H])(C([H])([H])[H])C([H])([H])[H])C([H])(C(=O)N([H])C2([H])c4c([H])c([H])c([H])c([H])c4C([H])([H])C([H])([H])C2([H])[H])C3([H])[H])c([H])c1C([H])=C([H])[H]

>  <smiles>  (69) 
[H]N=C(C(=O)N1C([H])([H])C([H])([H])C([H])([H])C([H])(n2nc(-c3c([H])c([H])c(Oc4c([H])c([H])c(F)c([H])c4F)c([H])c3[H])c(C(=O)N([H])[H])c2N([H])[H])C1([H])[H])c1c(F)c([H])c(N=C([H])C([H])([H])Oc2c([H])c([H])c3c(c2[H])C([H])([H])N(C(=O)C([H])(N([H])C(=O)C([H])(N([H])C([H])([H])[H])C([H])([H])[H])C(C([H])([H])[H])(C([H])([H])[H])C([H])([H])[H])C([H])(C(=O)N([H])C2([H])c4c([H])c([H])c([H])c([H])c4C([H])([H])C([H])([H])C2([H])[H])C3([H])[H])c([H])c1C([H])=C([H])[H]

$$$$
69:0:0
     RDKit          3D

 98106  0  0  1  0  0  0  0  0999 V2000
  -28.0230  -17.5360   19.4310 C   0  0  0  0  0  3  0  0  0  0  0  0
  -27.9630  -20.2310   20.0260 C   0  0  0  0  0  3  0  0  0  0  0  0
  -29.1470  -18.0670   20.1190 C   0  0  0  0  0  0  0  0  0  0  0  0
  -26.8700  -19.6610   19.3600 C   0  0  0  0  0  0  0  0  0  0  0  0
  -26.9120  -18.2970   19.0410 C   0  0  0  0  0  0  0  0  0  0  0  0
  -29.1270  -19.5010   20.4000 C   0  0  0  0  0  0  0  0  0  0  0  0
  -25.8890  -17.6900   18.3130 N   0  0  0  0  0  0  0  0  0  0  0  0
  -25.7910  -16.6790   18.3290 H   0  0  0  0  0  0  0  0  0  0  0  0
  -25.0090  -18.1770   18.1960 H   0  0  0  0  0  0  0  0  0  0  0  0
  -26.0670  -21.4150   17.7330 C   0  0  0  0  0  1  0  0  0  0  0  0
  -25.7150  -20.5690   18.9620 C   0  0  0  0  0  2  0  0  0  0  0  0
  -30.2230  -16.9980   20.3510 C   0  0  0  0  0  2  0  0  0  0  0  0
  -29.9360  -15.7390   20.5810 N   0  0  0  0  0  2  0  0  0  0  0  0
  -30.8090  -14.6670   20.2610 C   0  0  0  0  0  0  0  0  0  0  0  0
  -30.4700  -12.5750   18.9740 C   0  0  0  0  0  2  0  0  0  0  0  0
  -29.4660  -12.9140   17.8480 C   0  0  0  0  0  2  0  0  0  0  0  0
  -28.0110  -12.7470   18.3310 C   0  0  0  0  0  2  0  0  0  0  0  0
  -27.7580  -13.4330   19.7000 C   0  0  0  0  0  3  0  0  0  0  0  0
  -28.8730  -13.1040   20.7150 C   0  0  0  0  0  2  0  0  0  0  0  0
  -30.1690  -13.4620   20.1130 N   0  0  0  0  0  0  0  0  0  0  0  0
  -31.9810  -14.7870   19.8980 O   0  0  0  0  0  0  0  0  0  0  0  0
  -25.4020  -14.0310   20.5330 C   0  0  0  0  0  0  0  0  0  0  0  0
  -24.3370  -13.2550   20.9030 C   0  0  0  0  0  0  0  0  0  0  0  0
  -24.7860  -11.9030   20.8090 C   0  0  0  0  0  0  0  0  0  0  0  0
  -26.4270  -13.1480   20.2270 N   0  0  0  0  0  0  0  0  0  0  0  0
  -26.0630  -11.8610   20.4530 N   0  0  0  0  0  0  0  0  0  0  0  0
  -24.0560  -10.6410   20.9840 C   0  0  0  0  0  0  0  0  0  0  0  0
  -24.4660   -9.6790   21.9330 C   0  0  0  0  0  3  0  0  0  0  0  0
  -23.7390   -8.4800   22.0960 C   0  0  0  0  0  3  0  0  0  0  0  0
  -22.5880   -8.2370   21.3090 C   0  0  0  0  0  0  0  0  0  0  0  0
  -22.1970   -9.1880   20.3500 C   0  0  0  0  0  3  0  0  0  0  0  0
  -22.9250  -10.3790   20.1850 C   0  0  0  0  0  3  0  0  0  0  0  0
  -21.8330   -7.0910   21.3800 O   0  0  0  0  0  0  0  0  0  0  0  0
  -21.6920   -6.3930   22.5520 C   0  0  0  0  0  0  0  0  0  0  0  0
  -21.1340   -6.9840   23.7080 C   0  0  0  0  0  3  0  0  0  0  0  0
  -20.9430   -6.2120   24.8720 C   0  0  0  0  0  3  0  0  0  0  0  0
  -21.2990   -4.8490   24.8790 C   0  0  0  0  0  0  0  0  0  0  0  0
  -21.8500   -4.2590   23.7280 C   0  0  0  0  0  3  0  0  0  0  0  0
  -22.0420   -5.0280   22.5680 C   0  0  0  0  0  0  0  0  0  0  0  0
  -22.5540   -4.4490   21.4550 F   0  0  0  0  0  0  0  0  0  0  0  0
  -21.1080   -4.1050   25.9920 F   0  0  0  0  0  0  0  0  0  0  0  0
  -22.9550  -13.7340   21.2410 C   0  0  0  0  0  0  0  0  0  0  0  0
  -22.2550  -13.0220   22.1170 N   0  0  0  0  0  0  0  0  0  0  0  0
  -22.5050  -14.7750   20.7640 O   0  0  0  0  0  0  0  0  0  0  0  0
  -22.6300  -12.1780   22.5240 H   0  0  0  0  0  0  0  0  0  0  0  0
  -21.3280  -13.3230   22.3800 H   0  0  0  0  0  0  0  0  0  0  0  0
  -25.5760  -15.4050   20.4180 N   0  0  0  0  0  0  0  0  0  0  0  0
  -24.8320  -16.0660   20.6080 H   0  0  0  0  0  0  0  0  0  0  0  0
  -26.4570  -15.8530   20.2070 H   0  0  0  0  0  0  0  0  0  0  0  0
  -30.1710  -20.2580   20.9520 O   0  0  0  0  0  0  0  0  0  0  0  0
  -29.9370  -21.5720   21.4080 C   0  0  0  0  0  3  0  0  0  0  0  0
  -30.0230  -22.7250   20.6710 C   0  0  0  0  0  0  0  0  0  0  0  0
  -30.3780  -22.6650   19.3810 O   0  0  0  0  0  0  0  0  0  0  0  0
  -30.5490  -21.7520   19.1840 H   0  0  0  0  0  0  0  0  0  0  0  0
  -29.7260  -24.1120   21.2290 C   0  0  0  0  0  0  0  0  0  0  0  0
  -29.7060  -24.3240   22.4460 O   0  0  0  0  0  0  0  0  0  0  0  0
  -29.3930  -25.3120   20.2640 C   0  0  0  0  0  2  0  0  0  0  0  0
  -29.0910  -26.5960   20.9260 O   0  0  0  0  0  0  0  0  0  0  0  0
  -24.7640  -31.7610   23.3940 C   0  0  0  0  0  0  0  0  0  0  0  0
  -27.8940  -27.2970   20.7320 C   0  0  0  0  0  0  0  0  0  0  0  0
  -23.7890  -30.2570   21.6930 C   0  0  0  0  0  3  0  0  0  0  0  0
  -25.4450  -28.7480   20.4590 C   0  0  0  0  0  0  0  0  0  0  0  0
  -26.3100  -30.7160   21.7230 C   0  0  0  0  0  2  0  0  0  0  0  0
  -26.5200  -29.3240   21.1450 C   0  0  0  0  0  0  0  0  0  0  0  0
  -27.7400  -28.6050   21.2780 C   0  0  0  0  0  3  0  0  0  0  0  0
  -26.7900  -26.7590   20.0260 C   0  0  0  0  0  3  0  0  0  0  0  0
  -25.5810  -27.4690   19.8940 C   0  0  0  0  0  3  0  0  0  0  0  0
  -24.1630  -29.5480   20.3630 C   0  0  0  0  0  2  0  0  0  0  0  0
  -24.9680  -30.9300   22.3300 N   0  0  0  0  0  0  0  0  0  0  0  0
  -23.6220  -31.9950   23.8190 O   0  0  0  0  0  0  0  0  0  0  0  0
  -23.0910  -29.2350   22.6200 C   0  0  0  0  0  0  0  0  0  0  0  0
  -21.7860  -29.0070   22.3910 N   0  0  0  0  0  0  0  0  0  0  0  0
  -23.7250  -28.6480   23.5000 O   0  0  0  0  0  0  0  0  0  0  0  0
  -21.3330  -29.5370   21.6590 H   0  0  0  0  0  0  0  0  0  0  0  0
  -18.4150  -27.7300   22.6660 C   0  0  0  0  0  0  0  0  0  0  0  0
  -20.9410  -28.0550   23.1120 C   0  0  0  0  0  3  0  0  0  0  0  0
  -21.1180  -26.6210   22.5590 C   0  0  0  0  0  2  0  0  0  0  0  0
  -20.0980  -26.2640   21.4730 C   0  0  0  0  0  2  0  0  0  0  0  0
  -18.6710  -26.3800   22.0160 C   0  0  0  0  0  2  0  0  0  0  0  0
  -19.4820  -28.5230   23.1660 C   0  0  0  0  0  0  0  0  0  0  0  0
  -19.1920  -29.7860   23.7270 C   0  0  0  0  0  3  0  0  0  0  0  0
  -17.8670  -30.2570   23.7940 C   0  0  0  0  0  3  0  0  0  0  0  0
  -16.8130  -29.4600   23.3130 C   0  0  0  0  0  3  0  0  0  0  0  0
  -17.0880  -28.1990   22.7550 C   0  0  0  0  0  3  0  0  0  0  0  0
  -25.9500  -32.4740   24.1150 C   0  0  0  0  0  3  0  0  0  0  0  0
  -25.5530  -33.8690   24.3530 N   0  0  0  0  0  0  0  0  0  0  0  0
  -25.8980  -34.9010   23.5710 C   0  0  0  0  0  0  0  0  0  0  0  0
  -26.6510  -34.7830   22.6010 O   0  0  0  0  0  0  0  0  0  0  0  0
  -24.8850  -34.0300   25.0920 H   0  0  0  0  0  0  0  0  0  0  0  0
  -24.1120  -36.5820   23.0110 C   0  0  0  0  0  1  0  0  0  0  0  0
  -25.3140  -36.2840   23.9210 C   0  0  0  0  0  3  0  0  0  0  0  0
  -27.3390  -37.3230   24.8440 C   0  0  0  0  0  1  0  0  0  0  0  0
  -26.3010  -37.3820   23.8190 N   0  0  0  0  0  0  0  0  0  0  0  0
  -25.8420  -38.2860   23.8830 H   0  0  0  0  0  0  0  0  0  0  0  0
  -26.3630  -31.7750   25.4690 C   0  0  1  0  0  0  0  0  0  0  0  0
  -25.1760  -31.5220   26.4260 C   0  0  0  0  0  1  0  0  0  0  0  0
  -27.0440  -30.4160   25.1900 C   0  0  0  0  0  1  0  0  0  0  0  0
  -27.4010  -32.6470   26.2150 C   0  0  0  0  0  1  0  0  0  0  0  0
  1  3  1  0
  2  6  1  0
  3 12  1  0
  3  6  2  0
  4  2  2  0
  5  4  1  0
  5  1  2  0
  6 50  1  0
  7  8  1  0
  7  5  1  0
  9  7  1  0
 10 11  1  0
 11  4  1  0
 12 13  1  0
 14 13  1  0
 15 20  1  0
 16 17  1  0
 16 15  1  0
 18 17  1  0
 18 25  1  0
 18 19  1  0
 20 14  1  0
 20 19  1  0
 21 14  2  0
 22 23  2  0
 23 42  1  0
 24 23  1  0
 24 27  1  0
 25 26  1  0
 25 22  1  0
 26 24  2  0
 27 28  1  0
 28 29  2  0
 30 33  1  0
 30 29  1  0
 31 30  2  0
 32 31  1  0
 32 27  2  0
 33 34  1  0
 34 39  2  0
 34 35  1  0
 35 36  2  0
 36 37  1  0
 37 41  1  0
 38 37  2  0
 39 38  1  0
 40 39  1  0
 42 43  1  0
 43 46  1  0
 43 45  1  0
 44 42  2  0
 47 22  1  0
 47 48  1  0
 49 47  1  0
 50 51  1  0
 52 55  1  0
 52 51  2  0
 53 52  1  0
 54 53  1  0
 55 56  2  0
 57 58  1  0
 57 55  1  0
 59 70  2  0
 60 58  1  0
 60 65  1  0
 61 69  1  0
 61 71  1  0
 62 64  1  0
 63 69  1  0
 64 65  2  0
 64 63  1  0
 66 60  2  0
 67 66  1  0
 67 62  2  0
 68 62  1  0
 68 61  1  0
 69 59  1  0
 71 73  2  0
 72 71  1  0
 74 72  1  0
 75 84  2  0
 75 80  1  0
 76 72  1  0
 76 80  1  0
 77 76  1  0
 78 79  1  0
 78 77  1  0
 79 75  1  0
 80 81  2  0
 81 82  1  0
 83 82  2  0
 84 83  1  0
 85 59  1  0
 85 86  1  0
 85 95  1  0
 86 89  1  0
 87 91  1  0
 87 86  1  0
 88 87  2  0
 91 90  1  0
 93 94  1  0
 93 91  1  0
 93 92  1  0
 95 98  1  1
 95 96  1  0
 97 95  1  0
M  ISO  4  13 100  14 100  57 101  58 101
M  END
>  <TORSDO>  (70) 
F 24

>  <SCORE>  (70) 
-10.377

>  <name>  (70) 
69

>  <ligand_id>  (70) 
69

>  <original_smiles>  (70) 
[H]OC(C(=O)C([H])([H])Oc1c([H])c([H])c2c(c1[H])C([H])([H])N(C(=O)C([H])(N([H])C(=O)C([H])(N([H])C([H])([H])[H])C([H])([H])[H])C(C([H])([H])[H])(C([H])([H])[H])C([H])([H])[H])C([H])(C(=O)N([H])C1([H])c3c([H])c([H])c([H])c([H])c3C([H])([H])C([H])([H])C1([H])[H])C2([H])[H])=C([H])Oc1c([H])c(C([H])([H])C([H])([H])[H])c(N([H])[H])c([H])c1C([H])=NC(=O)N1C([H])([H])C([H])([H])C([H])([H])C([H])(n2nc(-c3c([H])c([H])c(Oc4c([H])c([H])c(F)c([H])c4F)c([H])c3[H])c(C(=O)N([H])[H])c2N([H])[H])C1([H])[H]

>  <smiles>  (70) 
[H]OC(C(=O)C([H])([H])Oc1c([H])c([H])c2c(c1[H])C([H])([H])N(C(=O)C([H])(N([H])C(=O)C([H])(N([H])C([H])([H])[H])C([H])([H])[H])C(C([H])([H])[H])(C([H])([H])[H])C([H])([H])[H])C([H])(C(=O)N([H])C1([H])c3c([H])c([H])c([H])c([H])c3C([H])([H])C([H])([H])C1([H])[H])C2([H])[H])=C([H])Oc1c([H])c(C([H])([H])C([H])([H])[H])c(N([H])[H])c([H])c1C([H])=NC(=O)N1C([H])([H])C([H])([H])C([H])([H])C([H])(n2nc(-c3c([H])c([H])c(Oc4c([H])c([H])c(F)c([H])c4F)c([H])c3[H])c(C(=O)N([H])[H])c2N([H])[H])C1([H])[H]

$$$$
70:0:0
     RDKit          3D

 96104  0  0  1  0  0  0  0  0999 V2000
  -32.3970  -21.6560   20.3180 C   0  0  0  0  0  3  0  0  0  0  0  0
  -32.0880  -23.0420   20.3350 C   0  0  0  0  0  0  0  0  0  0  0  0
  -30.7680  -23.4340   20.6620 C   0  0  0  0  0  0  0  0  0  0  0  0
  -31.3720  -20.7300   20.6820 C   0  0  0  0  0  0  0  0  0  0  0  0
  -29.8310  -22.4470   21.0180 C   0  0  0  0  0  0  0  0  0  0  0  0
  -33.1230  -24.1190   20.0080 C   0  0  0  0  0  1  0  0  0  0  0  0
  -30.1290  -21.1370   21.0350 N   0  0  0  0  0  0  0  0  0  0  0  0
  -33.7740  -21.1960   19.9690 C   0  0  0  0  0  0  0  0  0  0  0  0
  -34.2440  -21.4270   18.5370 C   0  0  0  0  0  1  0  0  0  0  0  0
  -34.5160  -20.6160   20.7620 O   0  0  0  0  0  0  0  0  0  0  0  0
  -27.5690  -21.8030   21.5420 C   0  0  0  0  0  1  0  0  0  0  0  0
  -28.5410  -22.8260   21.3300 O   0  0  0  0  0  0  0  0  0  0  0  0
  -31.5600  -19.2480   20.6260 C   0  0  0  0  0  3  0  0  0  0  0  0
  -30.7140  -18.3330   20.9310 N   0  0  0  0  0  2  0  0  0  0  0  0
  -31.2180  -17.0030   20.6380 C   0  0  0  0  0  2  0  0  0  0  0  0
  -30.2260  -15.8370   20.8990 C   0  0  0  0  0  2  0  0  0  0  0  0
  -30.7780  -14.5500   20.2480 C   0  0  0  0  0  0  0  0  0  0  0  0
  -30.3460  -12.4270   19.0980 C   0  0  0  0  0  2  0  0  0  0  0  0
  -29.3910  -12.6870   17.9180 C   0  0  0  0  0  2  0  0  0  0  0  0
  -27.9310  -12.5550   18.3870 C   0  0  0  0  0  2  0  0  0  0  0  0
  -27.6340  -13.3850   19.6650 C   0  0  0  0  0  3  0  0  0  0  0  0
  -28.7220  -13.1810   20.7460 C   0  0  0  0  0  2  0  0  0  0  0  0
  -30.0350  -13.4190   20.1380 N   0  0  0  0  0  0  0  0  0  0  0  0
  -31.8880  -14.6310   19.7150 O   0  0  0  0  0  0  0  0  0  0  0  0
  -25.2520  -13.9740   20.4430 C   0  0  0  0  0  0  0  0  0  0  0  0
  -24.1990  -13.1930   20.8370 C   0  0  0  0  0  0  0  0  0  0  0  0
  -24.6670  -11.8450   20.7910 C   0  0  0  0  0  0  0  0  0  0  0  0
  -26.2970  -13.1010   20.1830 N   0  0  0  0  0  0  0  0  0  0  0  0
  -25.9490  -11.8150   20.4520 N   0  0  0  0  0  0  0  0  0  0  0  0
  -23.9530  -10.5780   20.9940 C   0  0  0  0  0  0  0  0  0  0  0  0
  -24.3990   -9.6210   21.9350 C   0  0  0  0  0  3  0  0  0  0  0  0
  -23.6840   -8.4200   22.1270 C   0  0  0  0  0  3  0  0  0  0  0  0
  -22.5110   -8.1640   21.3770 C   0  0  0  0  0  0  0  0  0  0  0  0
  -22.0840   -9.1090   20.4270 C   0  0  0  0  0  3  0  0  0  0  0  0
  -22.7990  -10.3020   20.2340 C   0  0  0  0  0  3  0  0  0  0  0  0
  -21.7680   -7.0120   21.4780 O   0  0  0  0  0  0  0  0  0  0  0  0
  -21.7180   -6.2850   22.6410 C   0  0  0  0  0  0  0  0  0  0  0  0
  -21.2620   -6.8490   23.8530 C   0  0  0  0  0  3  0  0  0  0  0  0
  -21.1640   -6.0490   25.0080 C   0  0  0  0  0  3  0  0  0  0  0  0
  -21.5070   -4.6850   24.9530 C   0  0  0  0  0  0  0  0  0  0  0  0
  -21.9550   -4.1210   23.7460 C   0  0  0  0  0  3  0  0  0  0  0  0
  -22.0580   -4.9180   22.5920 C   0  0  0  0  0  0  0  0  0  0  0  0
  -22.4690   -4.3640   21.4260 F   0  0  0  0  0  0  0  0  0  0  0  0
  -21.4050   -3.9130   26.0590 F   0  0  0  0  0  0  0  0  0  0  0  0
  -22.8050  -13.6610   21.1470 C   0  0  0  0  0  0  0  0  0  0  0  0
  -22.1030  -12.9540   22.0270 N   0  0  0  0  0  0  0  0  0  0  0  0
  -22.3500  -14.6880   20.6470 O   0  0  0  0  0  0  0  0  0  0  0  0
  -22.4860  -12.1230   22.4520 H   0  0  0  0  0  0  0  0  0  0  0  0
  -21.1700  -13.2510   22.2790 H   0  0  0  0  0  0  0  0  0  0  0  0
  -25.4050  -15.3450   20.2660 N   0  0  0  0  0  0  0  0  0  0  0  0
  -24.6400  -15.9960   20.4040 H   0  0  0  0  0  0  0  0  0  0  0  0
  -26.2530  -15.7930   19.9410 H   0  0  0  0  0  0  0  0  0  0  0  0
  -30.3800  -24.7500   20.6240 O   0  0  0  0  0  0  0  0  0  0  0  0
  -30.1300  -25.2480   19.3110 C   0  0  0  0  0  2  0  0  0  0  0  0
  -28.6720  -25.7080   19.2170 C   0  0  0  0  0  2  0  0  0  0  0  0
  -28.5410  -26.8920   19.9920 O   0  0  0  0  0  0  0  0  0  0  0  0
  -24.6660  -31.8560   23.2380 C   0  0  0  0  0  0  0  0  0  0  0  0
  -27.3260  -27.5380   20.0150 C   0  0  0  0  0  0  0  0  0  0  0  0
  -23.4540  -30.4850   21.5710 C   0  0  0  0  0  3  0  0  0  0  0  0
  -24.9060  -28.9930   20.1000 C   0  0  0  0  0  0  0  0  0  0  0  0
  -25.9740  -30.8710   21.3620 C   0  0  0  0  0  2  0  0  0  0  0  0
  -26.0610  -29.5170   20.6930 C   0  0  0  0  0  0  0  0  0  0  0  0
  -27.2690  -28.7930   20.6560 C   0  0  0  0  0  3  0  0  0  0  0  0
  -26.1500  -27.0120   19.4300 C   0  0  0  0  0  3  0  0  0  0  0  0
  -24.9440  -27.7360   19.4730 C   0  0  0  0  0  3  0  0  0  0  0  0
  -23.6550  -29.8350   20.1750 C   0  0  0  0  0  2  0  0  0  0  0  0
  -24.7170  -31.0830   22.1150 N   0  0  0  0  0  0  0  0  0  0  0  0
  -23.5880  -32.1070   23.7940 O   0  0  0  0  0  0  0  0  0  0  0  0
  -22.8210  -29.4360   22.5110 C   0  0  0  0  0  0  0  0  0  0  0  0
  -21.4960  -29.2510   22.3920 N   0  0  0  0  0  0  0  0  0  0  0  0
  -23.5170  -28.7910   23.2990 O   0  0  0  0  0  0  0  0  0  0  0  0
  -20.9960  -29.8230   21.7270 H   0  0  0  0  0  0  0  0  0  0  0  0
  -18.1330  -28.0350   22.8890 C   0  0  0  0  0  0  0  0  0  0  0  0
  -20.6910  -28.2890   23.1450 C   0  0  0  0  0  3  0  0  0  0  0  0
  -20.7910  -26.8750   22.5280 C   0  0  0  0  0  2  0  0  0  0  0  0
  -19.6820  -26.5790   21.5160 C   0  0  0  0  0  2  0  0  0  0  0  0
  -18.3070  -26.7040   22.1750 C   0  0  0  0  0  2  0  0  0  0  0  0
  -19.2540  -28.7860   23.3300 C   0  0  0  0  0  0  0  0  0  0  0  0
  -19.0390  -30.0340   23.9540 C   0  0  0  0  0  3  0  0  0  0  0  0
  -17.7340  -30.5280   24.1450 C   0  0  0  0  0  3  0  0  0  0  0  0
  -16.6270  -29.7720   23.7230 C   0  0  0  0  0  3  0  0  0  0  0  0
  -16.8280  -28.5270   23.1000 C   0  0  0  0  0  3  0  0  0  0  0  0
  -25.9540  -32.4770   23.8620 C   0  0  0  0  0  3  0  0  0  0  0  0
  -25.6470  -33.8690   24.2160 N   0  0  0  0  0  0  0  0  0  0  0  0
  -25.9700  -34.9320   23.4670 C   0  0  0  0  0  0  0  0  0  0  0  0
  -26.6350  -34.8450   22.4320 O   0  0  0  0  0  0  0  0  0  0  0  0
  -25.0560  -34.0120   25.0220 H   0  0  0  0  0  0  0  0  0  0  0  0
  -24.2430  -36.7300   23.1310 C   0  0  0  0  0  1  0  0  0  0  0  0
  -25.4800  -36.3130   23.9440 C   0  0  0  0  0  3  0  0  0  0  0  0
  -27.6070  -37.1900   24.8050 C   0  0  0  0  0  1  0  0  0  0  0  0
  -26.5130  -37.3680   23.8530 N   0  0  0  0  0  0  0  0  0  0  0  0
  -26.1060  -38.2860   24.0070 H   0  0  0  0  0  0  0  0  0  0  0  0
  -26.4810  -31.6840   25.1220 C   0  0  1  0  0  0  0  0  0  0  0  0
  -25.3960  -31.4290   26.1920 C   0  0  0  0  0  1  0  0  0  0  0  0
  -27.0590  -30.3110   24.7030 C   0  0  0  0  0  1  0  0  0  0  0  0
  -27.6370  -32.4650   25.7900 C   0  0  0  0  0  1  0  0  0  0  0  0
  1  8  1  0
  1  2  1  0
  1  4  1  0
  2  3  2  0
  3  5  1  0
  4  7  1  0
  5  7  2  0
  5 12  1  0
  6  2  1  0
  8 10  2  0
  9  8  1  0
 12 11  1  0
 13  4  2  0
 13 14  1  0
 15 16  1  0
 15 14  1  0
 17 16  1  0
 18 23  1  0
 19 20  1  0
 19 18  1  0
 21 20  1  0
 21 28  1  0
 21 22  1  0
 23 17  1  0
 23 22  1  0
 24 17  2  0
 25 26  2  0
 26 45  1  0
 27 26  1  0
 27 30  1  0
 28 25  1  0
 28 29  1  0
 29 27  2  0
 30 31  1  0
 31 32  2  0
 33 36  1  0
 33 32  1  0
 34 33  2  0
 35 34  1  0
 35 30  2  0
 36 37  1  0
 37 38  1  0
 38 39  2  0
 40 39  1  0
 40 44  1  0
 41 40  2  0
 42 37  2  0
 42 41  1  0
 43 42  1  0
 45 46  1  0
 46 49  1  0
 46 48  1  0
 47 45  2  0
 50 51  1  0
 50 25  1  0
 52 50  1  0
 53  3  1  0
 54 53  1  0
 55 54  1  0
 55 56  1  0
 56 58  1  0
 57 68  2  0
 58 63  1  0
 59 67  1  0
 59 69  1  0
 60 66  1  0
 60 62  1  0
 61 67  1  0
 62 61  1  0
 63 62  2  0
 64 65  1  0
 64 58  2  0
 65 60  2  0
 66 59  1  0
 67 57  1  0
 69 71  2  0
 70 69  1  0
 72 70  1  0
 73 82  2  0
 73 78  1  0
 74 70  1  0
 74 78  1  0
 75 74  1  0
 76 77  1  0
 76 75  1  0
 77 73  1  0
 78 79  2  0
 79 80  1  0
 81 80  2  0
 82 81  1  0
 83 57  1  0
 83 84  1  0
 83 93  1  0
 84 87  1  0
 85 89  1  0
 85 84  1  0
 86 85  2  0
 89 88  1  0
 91 89  1  0
 91 92  1  0
 91 90  1  0
 93 96  1  1
 93 94  1  0
 95 93  1  0
M  ISO  4  16 100  17 100  55 101  56 101
M  END
>  <TORSDO>  (71) 
F 24

>  <SCORE>  (71) 
-12.280

>  <name>  (71) 
70

>  <ligand_id>  (71) 
70

>  <original_smiles>  (71) 
[H]C(=NC([H])([H])C([H])([H])C(=O)N1C([H])([H])C([H])([H])C([H])([H])C([H])(n2nc(-c3c([H])c([H])c(Oc4c([H])c([H])c(F)c([H])c4F)c([H])c3[H])c(C(=O)N([H])[H])c2N([H])[H])C1([H])[H])c1nc(OC([H])([H])[H])c(OC([H])([H])C([H])([H])Oc2c([H])c([H])c3c(c2[H])C([H])([H])N(C(=O)C([H])(N([H])C(=O)C([H])(N([H])C([H])([H])[H])C([H])([H])[H])C(C([H])([H])[H])(C([H])([H])[H])C([H])([H])[H])C([H])(C(=O)N([H])C2([H])c4c([H])c([H])c([H])c([H])c4C([H])([H])C([H])([H])C2([H])[H])C3([H])[H])c(C([H])([H])[H])c1C(=O)C([H])([H])[H]

>  <smiles>  (71) 
[H]C(=NC([H])([H])C([H])([H])C(=O)N1C([H])([H])C([H])([H])C([H])([H])C([H])(n2nc(-c3c([H])c([H])c(Oc4c([H])c([H])c(F)c([H])c4F)c([H])c3[H])c(C(=O)N([H])[H])c2N([H])[H])C1([H])[H])c1nc(OC([H])([H])[H])c(OC([H])([H])C([H])([H])Oc2c([H])c([H])c3c(c2[H])C([H])([H])N(C(=O)C([H])(N([H])C(=O)C([H])(N([H])C([H])([H])[H])C([H])([H])[H])C(C([H])([H])[H])(C([H])([H])[H])C([H])([H])[H])C([H])(C(=O)N([H])C2([H])c4c([H])c([H])c([H])c([H])c4C([H])([H])C([H])([H])C2([H])[H])C3([H])[H])c(C([H])([H])[H])c1C(=O)C([H])([H])[H]

$$$$
71:0:0
     RDKit          3D

 94102  0  0  1  0  0  0  0  0999 V2000
  -30.4310  -19.7860   19.5950 C   0  0  0  0  0  3  0  0  0  0  0  0
  -30.5480  -19.7460   21.9870 C   0  0  0  0  0  3  0  0  0  0  0  0
  -30.5380  -17.5720   20.7540 C   0  0  0  0  0  0  0  0  0  0  0  0
  -30.5100  -18.3550   19.5530 C   0  0  0  0  0  0  0  0  0  0  0  0
  -30.4190  -20.5190   20.8110 C   0  0  0  0  0  0  0  0  0  0  0  0
  -30.6030  -18.3270   21.9650 C   0  0  0  0  0  0  0  0  0  0  0  0
  -30.6780  -17.6880   23.1610 F   0  0  0  0  0  0  0  0  0  0  0  0
  -30.2230  -16.0670   20.8780 C   0  0  0  0  0  0  0  0  0  0  0  0
  -29.1780  -15.8420   21.5660 N   0  0  0  0  0  0  0  0  0  0  0  0
  -28.7810  -16.6960   21.9340 H   0  0  0  0  0  0  0  0  0  0  0  0
  -31.0900  -14.8900   20.2210 C   0  0  0  0  0  0  0  0  0  0  0  0
  -30.8800  -12.7450   18.9390 C   0  0  0  0  0  2  0  0  0  0  0  0
  -29.8500  -12.9370   17.7930 C   0  0  0  0  0  2  0  0  0  0  0  0
  -28.3900  -12.7720   18.2770 C   0  0  0  0  0  2  0  0  0  0  0  0
  -28.1260  -13.4860   19.6260 C   0  0  0  0  0  3  0  0  0  0  0  0
  -29.2470  -13.1350   20.6280 C   0  0  0  0  0  2  0  0  0  0  0  0
  -30.5030  -13.6440   20.0540 N   0  0  0  0  0  0  0  0  0  0  0  0
  -32.2160  -15.1060   19.7540 O   0  0  0  0  0  0  0  0  0  0  0  0
  -25.7610  -14.0670   20.4690 C   0  0  0  0  0  0  0  0  0  0  0  0
  -24.7100  -13.2770   20.8480 C   0  0  0  0  0  0  0  0  0  0  0  0
  -25.1710  -11.9300   20.7350 C   0  0  0  0  0  0  0  0  0  0  0  0
  -26.7980  -13.1960   20.1530 N   0  0  0  0  0  0  0  0  0  0  0  0
  -26.4440  -11.9030   20.3640 N   0  0  0  0  0  0  0  0  0  0  0  0
  -24.4590  -10.6580   20.9080 C   0  0  0  0  0  0  0  0  0  0  0  0
  -24.8690   -9.7180   21.8760 C   0  0  0  0  0  3  0  0  0  0  0  0
  -24.1620   -8.5070   22.0380 C   0  0  0  0  0  3  0  0  0  0  0  0
  -23.0320   -8.2310   21.2320 C   0  0  0  0  0  0  0  0  0  0  0  0
  -22.6430   -9.1620   20.2530 C   0  0  0  0  0  3  0  0  0  0  0  0
  -23.3500  -10.3640   20.0890 C   0  0  0  0  0  3  0  0  0  0  0  0
  -22.3050   -7.0680   21.2990 O   0  0  0  0  0  0  0  0  0  0  0  0
  -22.0890   -6.4240   22.4910 C   0  0  0  0  0  0  0  0  0  0  0  0
  -21.4500   -7.0580   23.5790 C   0  0  0  0  0  3  0  0  0  0  0  0
  -21.1820   -6.3330   24.7580 C   0  0  0  0  0  3  0  0  0  0  0  0
  -21.5460   -4.9760   24.8480 C   0  0  0  0  0  0  0  0  0  0  0  0
  -22.1810   -4.3440   23.7630 C   0  0  0  0  0  3  0  0  0  0  0  0
  -22.4470   -5.0660   22.5870 C   0  0  0  0  0  0  0  0  0  0  0  0
  -23.0380   -4.4480   21.5360 F   0  0  0  0  0  0  0  0  0  0  0  0
  -21.2870   -4.2730   25.9760 F   0  0  0  0  0  0  0  0  0  0  0  0
  -23.3270  -13.7380   21.2130 C   0  0  0  0  0  0  0  0  0  0  0  0
  -22.6540  -13.0090   22.0950 N   0  0  0  0  0  0  0  0  0  0  0  0
  -22.8510  -14.7770   20.7530 O   0  0  0  0  0  0  0  0  0  0  0  0
  -23.0460  -12.1630   22.4840 H   0  0  0  0  0  0  0  0  0  0  0  0
  -21.7310  -13.3000   22.3850 H   0  0  0  0  0  0  0  0  0  0  0  0
  -25.9210  -15.4450   20.3520 N   0  0  0  0  0  0  0  0  0  0  0  0
  -25.2110  -16.0930   20.6760 H   0  0  0  0  0  0  0  0  0  0  0  0
  -26.8430  -15.8620   20.2960 H   0  0  0  0  0  0  0  0  0  0  0  0
  -29.6280  -22.7910   20.3980 C   0  0  0  0  0  3  0  0  0  0  0  0
  -30.4800  -21.9470   20.8950 N   0  0  0  0  0  0  0  0  0  0  0  0
  -29.7920  -24.3510   20.5180 C   0  0  0  0  0  3  0  0  0  0  0  0
  -28.5720  -25.2800   20.1170 C   0  0  0  0  0  3  0  0  0  0  0  0
  -28.7030  -26.7310   20.3710 O   0  0  0  0  0  0  0  0  0  0  0  0
  -24.8300  -31.9850   23.4190 C   0  0  0  0  0  0  0  0  0  0  0  0
  -27.5500  -27.5280   20.3230 C   0  0  0  0  0  0  0  0  0  0  0  0
  -23.6660  -30.5930   21.7460 C   0  0  0  0  0  3  0  0  0  0  0  0
  -25.1530  -29.0830   20.3150 C   0  0  0  0  0  0  0  0  0  0  0  0
  -26.2010  -30.9560   21.5940 C   0  0  0  0  0  2  0  0  0  0  0  0
  -26.3060  -29.5900   20.9280 C   0  0  0  0  0  0  0  0  0  0  0  0
  -27.5060  -28.8250   20.9170 C   0  0  0  0  0  3  0  0  0  0  0  0
  -26.3700  -27.0660   19.6960 C   0  0  0  0  0  3  0  0  0  0  0  0
  -25.1840  -27.8270   19.6910 C   0  0  0  0  0  3  0  0  0  0  0  0
  -23.9030  -29.9370   20.3600 C   0  0  0  0  0  2  0  0  0  0  0  0
  -24.9170  -31.1930   22.3100 N   0  0  0  0  0  0  0  0  0  0  0  0
  -23.7380  -32.2410   23.9470 O   0  0  0  0  0  0  0  0  0  0  0  0
  -23.0070  -29.5550   22.6860 C   0  0  0  0  0  0  0  0  0  0  0  0
  -21.6960  -29.3260   22.5060 N   0  0  0  0  0  0  0  0  0  0  0  0
  -23.6760  -28.9630   23.5360 O   0  0  0  0  0  0  0  0  0  0  0  0
  -21.2190  -29.8580   21.7930 H   0  0  0  0  0  0  0  0  0  0  0  0
  -18.3460  -28.0140   22.8800 C   0  0  0  0  0  0  0  0  0  0  0  0
  -20.8810  -28.3600   23.2460 C   0  0  0  0  0  3  0  0  0  0  0  0
  -21.0540  -26.9320   22.6750 C   0  0  0  0  0  2  0  0  0  0  0  0
  -20.0010  -26.5730   21.6220 C   0  0  0  0  0  2  0  0  0  0  0  0
  -18.5920  -26.6710   22.2130 C   0  0  0  0  0  2  0  0  0  0  0  0
  -19.4190  -28.8150   23.3500 C   0  0  0  0  0  0  0  0  0  0  0  0
  -19.1350  -30.0710   23.9280 C   0  0  0  0  0  3  0  0  0  0  0  0
  -17.8080  -30.5230   24.0490 C   0  0  0  0  0  3  0  0  0  0  0  0
  -16.7470  -29.7210   23.5950 C   0  0  0  0  0  3  0  0  0  0  0  0
  -17.0170  -28.4680   23.0150 C   0  0  0  0  0  3  0  0  0  0  0  0
  -26.0990  -32.6240   24.0650 C   0  0  0  0  0  3  0  0  0  0  0  0
  -25.7890  -34.0320   24.3520 N   0  0  0  0  0  0  0  0  0  0  0  0
  -26.1190  -35.0610   23.5610 C   0  0  0  0  0  0  0  0  0  0  0  0
  -26.7860  -34.9250   22.5310 O   0  0  0  0  0  0  0  0  0  0  0  0
  -25.1950  -34.2090   25.1490 H   0  0  0  0  0  0  0  0  0  0  0  0
  -24.3710  -36.8300   23.1770 C   0  0  0  0  0  1  0  0  0  0  0  0
  -25.6340  -36.4640   23.9740 C   0  0  0  0  0  3  0  0  0  0  0  0
  -27.7770  -37.4010   24.7260 C   0  0  0  0  0  1  0  0  0  0  0  0
  -26.6570  -37.5190   23.7950 N   0  0  0  0  0  0  0  0  0  0  0  0
  -26.2470  -38.4420   23.9070 H   0  0  0  0  0  0  0  0  0  0  0  0
  -26.5660  -31.8810   25.3760 C   0  0  1  0  0  0  0  0  0  0  0  0
  -25.4340  -31.6590   26.4080 C   0  0  0  0  0  1  0  0  0  0  0  0
  -27.1660  -30.4970   25.0350 C   0  0  0  0  0  1  0  0  0  0  0  0
  -27.6870  -32.6940   26.0640 C   0  0  0  0  0  1  0  0  0  0  0  0
  -30.6340  -17.7290   18.1690 C   0  0  0  0  0  2  0  0  0  0  0  0
  -30.2300  -18.0940   15.7240 C   0  0  0  0  0  1  0  0  0  0  0  0
  -29.6220  -18.2090   17.1250 C   0  0  0  0  0  2  0  0  0  0  0  0
  1  5  1  0
  3  8  1  0
  3  6  2  0
  4  1  2  0
  4  3  1  0
  5 48  1  0
  5  2  2  0
  6  2  1  0
  6  7  1  0
  8  9  2  0
  9 10  1  0
 11  8  1  0
 12 17  1  0
 13 14  1  0
 13 12  1  0
 15 14  1  0
 15 22  1  0
 15 16  1  0
 17 11  1  0
 17 16  1  0
 18 11  2  0
 19 20  2  0
 20 39  1  0
 21 20  1  0
 21 24  1  0
 22 23  1  0
 22 19  1  0
 23 21  2  0
 24 25  1  0
 25 26  2  0
 27 30  1  0
 27 26  1  0
 28 27  2  0
 29 28  1  0
 29 24  2  0
 30 31  1  0
 31 36  2  0
 31 32  1  0
 32 33  2  0
 33 34  1  0
 34 38  1  0
 35 34  2  0
 36 35  1  0
 37 36  1  0
 39 40  1  0
 40 43  1  0
 40 42  1  0
 41 39  2  0
 44 19  1  0
 44 45  1  0
 46 44  1  0
 47 49  1  0
 47 48  2  0
 50 51  1  0
 50 49  2  0
 52 63  2  0
 53 51  1  0
 53 58  1  0
 54 62  1  0
 54 64  1  0
 55 61  1  0
 55 57  1  0
 56 62  1  0
 57 56  1  0
 58 57  2  0
 59 53  2  0
 60 59  1  0
 60 55  2  0
 61 54  1  0
 62 52  1  0
 64 66  2  0
 65 64  1  0
 67 65  1  0
 68 77  2  0
 68 73  1  0
 69 65  1  0
 69 73  1  0
 70 69  1  0
 71 72  1  0
 71 70  1  0
 72 68  1  0
 73 74  2  0
 74 75  1  0
 76 75  2  0
 77 76  1  0
 78 52  1  0
 78 79  1  0
 78 88  1  0
 79 82  1  0
 80 84  1  0
 80 79  1  0
 81 80  2  0
 84 83  1  0
 86 87  1  0
 86 84  1  0
 86 85  1  0
 88 91  1  1
 88 89  1  0
 90 88  1  0
 92  4  1  0
 93 94  1  0
 94 92  1  0
M  ISO  4   8 100  11 100  50 101  51 101
M  END
>  <TORSDO>  (72) 
F 22

>  <SCORE>  (72) 
-12.054

>  <name>  (72) 
71

>  <ligand_id>  (72) 
71

>  <original_smiles>  (72) 
[H]N=C(C(=O)N1C([H])([H])C([H])([H])C([H])([H])C([H])(n2nc(-c3c([H])c([H])c(Oc4c([H])c([H])c(F)c([H])c4F)c([H])c3[H])c(C(=O)N([H])[H])c2N([H])[H])C1([H])[H])c1c(F)c([H])c(N=C([H])C([H])([H])C([H])([H])Oc2c([H])c([H])c3c(c2[H])C([H])([H])N(C(=O)C([H])(N([H])C(=O)C([H])(N([H])C([H])([H])[H])C([H])([H])[H])C(C([H])([H])[H])(C([H])([H])[H])C([H])([H])[H])C([H])(C(=O)N([H])C2([H])c4c([H])c([H])c([H])c([H])c4C([H])([H])C([H])([H])C2([H])[H])C3([H])[H])c([H])c1C([H])([H])C([H])([H])C([H])([H])[H]

>  <smiles>  (72) 
[H]N=C(C(=O)N1C([H])([H])C([H])([H])C([H])([H])C([H])(n2nc(-c3c([H])c([H])c(Oc4c([H])c([H])c(F)c([H])c4F)c([H])c3[H])c(C(=O)N([H])[H])c2N([H])[H])C1([H])[H])c1c(F)c([H])c(N=C([H])C([H])([H])C([H])([H])Oc2c([H])c([H])c3c(c2[H])C([H])([H])N(C(=O)C([H])(N([H])C(=O)C([H])(N([H])C([H])([H])[H])C([H])([H])[H])C(C([H])([H])[H])(C([H])([H])[H])C([H])([H])[H])C([H])(C(=O)N([H])C2([H])c4c([H])c([H])c([H])c([H])c4C([H])([H])C([H])([H])C2([H])[H])C3([H])[H])c([H])c1C([H])([H])C([H])([H])C([H])([H])[H]

$$$$
72:0:0
     RDKit          3D

 92100  0  0  1  0  0  0  0  0999 V2000
  -30.3040  -19.8440   21.7650 C   0  0  0  0  0  3  0  0  0  0  0  0
  -29.2550  -18.6010   19.9750 C   0  0  0  0  0  3  0  0  0  0  0  0
  -30.8480  -17.4460   21.4130 C   0  0  0  0  0  0  0  0  0  0  0  0
  -30.9960  -18.6550   22.1390 C   0  0  0  0  0  0  0  0  0  0  0  0
  -30.0420  -17.4060   20.2520 C   0  0  0  0  0  0  0  0  0  0  0  0
  -29.3640  -19.8610   20.7030 C   0  0  0  0  0  0  0  0  0  0  0  0
  -31.8340  -18.6590   23.4070 C   0  0  0  0  0  1  0  0  0  0  0  0
  -30.7160  -15.0230   19.3420 C   0  0  0  0  0  0  0  0  0  0  0  0
  -30.4180  -12.7950   18.2340 C   0  0  0  0  0  2  0  0  0  0  0  0
  -29.2960  -12.8810   17.1750 C   0  0  0  0  0  2  0  0  0  0  0  0
  -27.9140  -12.6830   17.8280 C   0  0  0  0  0  2  0  0  0  0  0  0
  -27.7180  -13.5630   19.0890 C   0  0  0  0  0  3  0  0  0  0  0  0
  -28.9190  -13.4200   20.0490 C   0  0  0  0  0  2  0  0  0  0  0  0
  -30.1150  -13.7900   19.2850 N   0  0  0  0  0  0  0  0  0  0  0  0
  -31.8550  -15.1880   18.9060 O   0  0  0  0  0  0  0  0  0  0  0  0
  -29.8520  -16.0850   19.5990 N   0  0  0  0  0  0  0  0  0  0  0  0
  -28.9040  -15.7590   19.6690 H   0  0  0  0  0  0  0  0  0  0  0  0
  -25.4740  -14.1870   20.1690 C   0  0  0  0  0  0  0  0  0  0  0  0
  -24.4570  -13.4180   20.6650 C   0  0  0  0  0  0  0  0  0  0  0  0
  -24.8770  -12.0610   20.5200 C   0  0  0  0  0  0  0  0  0  0  0  0
  -26.4500  -13.2910   19.7570 N   0  0  0  0  0  0  0  0  0  0  0  0
  -26.1060  -12.0090   20.0260 N   0  0  0  0  0  0  0  0  0  0  0  0
  -24.1590  -10.8050   20.7610 C   0  0  0  0  0  0  0  0  0  0  0  0
  -24.6360   -9.8450   21.6810 C   0  0  0  0  0  3  0  0  0  0  0  0
  -23.9180   -8.6500   21.9080 C   0  0  0  0  0  3  0  0  0  0  0  0
  -22.7110   -8.4080   21.2110 C   0  0  0  0  0  0  0  0  0  0  0  0
  -22.2500   -9.3560   20.2790 C   0  0  0  0  0  3  0  0  0  0  0  0
  -22.9690  -10.5400   20.0510 C   0  0  0  0  0  3  0  0  0  0  0  0
  -21.9580   -7.2670   21.3480 O   0  0  0  0  0  0  0  0  0  0  0  0
  -21.8540   -6.6150   22.5510 C   0  0  0  0  0  0  0  0  0  0  0  0
  -21.3890   -7.2640   23.7140 C   0  0  0  0  0  3  0  0  0  0  0  0
  -21.2330   -6.5360   24.9140 C   0  0  0  0  0  3  0  0  0  0  0  0
  -21.5350   -5.1610   24.9440 C   0  0  0  0  0  0  0  0  0  0  0  0
  -21.9940   -4.5120   23.7860 C   0  0  0  0  0  3  0  0  0  0  0  0
  -22.1510   -5.2390   22.5900 C   0  0  0  0  0  0  0  0  0  0  0  0
  -22.5740   -4.6010   21.4720 F   0  0  0  0  0  0  0  0  0  0  0  0
  -21.3780   -4.4600   26.0940 F   0  0  0  0  0  0  0  0  0  0  0  0
  -23.1200  -13.9110   21.1510 C   0  0  0  0  0  0  0  0  0  0  0  0
  -22.5250  -13.2140   22.1140 N   0  0  0  0  0  0  0  0  0  0  0  0
  -22.6240  -14.9450   20.7140 O   0  0  0  0  0  0  0  0  0  0  0  0
  -22.9410  -12.3760   22.4880 H   0  0  0  0  0  0  0  0  0  0  0  0
  -21.6390  -13.5300   22.4820 H   0  0  0  0  0  0  0  0  0  0  0  0
  -25.6470  -15.5570   20.0110 N   0  0  0  0  0  0  0  0  0  0  0  0
  -24.9060  -16.2170   20.2200 H   0  0  0  0  0  0  0  0  0  0  0  0
  -26.4220  -15.9820   19.5220 H   0  0  0  0  0  0  0  0  0  0  0  0
  -30.8020  -15.3880   22.7730 C   0  0  0  0  0  2  0  0  0  0  0  0
  -31.4600  -16.2020   21.9310 C   0  0  0  0  0  3  0  0  0  0  0  0
  -28.5530  -21.0090   20.4090 O   0  0  0  0  0  0  0  0  0  0  0  0
  -28.8320  -22.4070   20.8780 C   0  0  0  0  0  2  0  0  0  0  0  0
  -28.0140  -23.7140   20.3200 C   0  0  0  0  0  3  0  0  0  0  0  0
  -28.6730  -25.1900   20.4050 C   0  0  0  0  0  3  0  0  0  0  0  0
  -28.2070  -26.5100   19.7990 O   0  0  0  0  0  0  0  0  0  0  0  0
  -24.5240  -31.9290   23.1960 C   0  0  0  0  0  0  0  0  0  0  0  0
  -27.0240  -27.2860   20.0290 C   0  0  0  0  0  0  0  0  0  0  0  0
  -23.2390  -30.5420   21.6080 C   0  0  0  0  0  3  0  0  0  0  0  0
  -24.6270  -28.9480   20.1420 C   0  0  0  0  0  0  0  0  0  0  0  0
  -25.7680  -30.8300   21.2950 C   0  0  0  0  0  2  0  0  0  0  0  0
  -25.8310  -29.4270   20.6740 C   0  0  0  0  0  0  0  0  0  0  0  0
  -27.0250  -28.6140   20.5950 C   0  0  0  0  0  3  0  0  0  0  0  0
  -25.7800  -26.8660   19.5050 C   0  0  0  0  0  3  0  0  0  0  0  0
  -24.6130  -27.6720   19.5530 C   0  0  0  0  0  3  0  0  0  0  0  0
  -23.4000  -29.8580   20.2210 C   0  0  0  0  0  2  0  0  0  0  0  0
  -24.5340  -31.1210   22.0930 N   0  0  0  0  0  0  0  0  0  0  0  0
  -23.4670  -32.2070   23.7840 O   0  0  0  0  0  0  0  0  0  0  0  0
  -22.6180  -29.5240   22.5970 C   0  0  0  0  0  0  0  0  0  0  0  0
  -21.3190  -29.2300   22.4300 N   0  0  0  0  0  0  0  0  0  0  0  0
  -23.3050  -29.0020   23.4770 O   0  0  0  0  0  0  0  0  0  0  0  0
  -20.8130  -29.7210   21.7040 H   0  0  0  0  0  0  0  0  0  0  0  0
  -18.0730  -27.6590   22.7490 C   0  0  0  0  0  0  0  0  0  0  0  0
  -20.5450  -28.2600   23.2120 C   0  0  0  0  0  3  0  0  0  0  0  0
  -20.8680  -26.8100   22.7860 C   0  0  0  0  0  2  0  0  0  0  0  0
  -19.9150  -26.2670   21.7160 C   0  0  0  0  0  2  0  0  0  0  0  0
  -18.4700  -26.2900   22.2230 C   0  0  0  0  0  2  0  0  0  0  0  0
  -19.0460  -28.5900   23.1970 C   0  0  0  0  0  0  0  0  0  0  0  0
  -18.6250  -29.8610   23.6460 C   0  0  0  0  0  3  0  0  0  0  0  0
  -17.2620  -30.2050   23.6530 C   0  0  0  0  0  3  0  0  0  0  0  0
  -16.3010  -29.2770   23.2210 C   0  0  0  0  0  3  0  0  0  0  0  0
  -16.7050  -28.0060   22.7740 C   0  0  0  0  0  3  0  0  0  0  0  0
  -25.8360  -32.5560   23.7650 C   0  0  0  0  0  3  0  0  0  0  0  0
  -25.5480  -33.9560   24.1100 N   0  0  0  0  0  0  0  0  0  0  0  0
  -25.8640  -35.0100   23.3420 C   0  0  0  0  0  0  0  0  0  0  0  0
  -26.4950  -34.9040   22.2880 O   0  0  0  0  0  0  0  0  0  0  0  0
  -24.9890  -34.1120   24.9320 H   0  0  0  0  0  0  0  0  0  0  0  0
  -24.1470  -36.8270   23.0560 C   0  0  0  0  0  1  0  0  0  0  0  0
  -25.4090  -36.4000   23.8230 C   0  0  0  0  0  3  0  0  0  0  0  0
  -27.5810  -37.2600   24.5800 C   0  0  0  0  0  1  0  0  0  0  0  0
  -26.4480  -37.4430   23.6800 N   0  0  0  0  0  0  0  0  0  0  0  0
  -26.0550  -38.3660   23.8550 H   0  0  0  0  0  0  0  0  0  0  0  0
  -26.4000  -31.7840   25.0180 C   0  0  1  0  0  0  0  0  0  0  0  0
  -25.3430  -31.5140   26.1190 C   0  0  0  0  0  1  0  0  0  0  0  0
  -27.0000  -30.4250   24.5860 C   0  0  0  0  0  1  0  0  0  0  0  0
  -27.5500  -32.5960   25.6620 C   0  0  0  0  0  1  0  0  0  0  0  0
  1  4  1  0
  2  5  2  0
  2  6  1  0
  3 47  1  0
  3  4  2  0
  4  7  1  0
  5  3  1  0
  6  1  2  0
  8 16  1  0
  9 14  1  0
 10 11  1  0
 10  9  1  0
 12 11  1  0
 12 21  1  0
 12 13  1  0
 14  8  1  0
 14 13  1  0
 15  8  2  0
 16 17  1  0
 16  5  1  0
 18 19  2  0
 19 38  1  0
 20 19  1  0
 20 23  1  0
 21 22  1  0
 21 18  1  0
 22 20  2  0
 23 24  1  0
 24 25  2  0
 26 29  1  0
 26 25  1  0
 27 26  2  0
 28 27  1  0
 28 23  2  0
 29 30  1  0
 30 35  2  0
 30 31  1  0
 31 32  2  0
 32 33  1  0
 33 37  1  0
 34 33  2  0
 35 34  1  0
 36 35  1  0
 38 39  1  0
 39 42  1  0
 39 41  1  0
 40 38  2  0
 43 18  1  0
 43 44  1  0
 45 43  1  0
 47 46  2  0
 48  6  1  0
 48 49  1  0
 50 51  2  0
 50 49  1  0
 52 54  1  0
 52 51  1  0
 53 64  2  0
 54 59  1  0
 55 63  1  0
 55 65  1  0
 56 62  1  0
 56 58  1  0
 57 63  1  0
 58 57  1  0
 59 58  2  0
 60 61  1  0
 60 54  2  0
 61 56  2  0
 62 55  1  0
 63 53  1  0
 65 67  2  0
 66 65  1  0
 68 66  1  0
 69 78  2  0
 69 74  1  0
 70 66  1  0
 71 70  1  0
 72 73  1  0
 72 71  1  0
 73 69  1  0
 74 70  1  0
 74 75  2  0
 75 76  1  0
 77 76  2  0
 78 77  1  0
 79 53  1  0
 79 80  1  0
 79 89  1  0
 80 83  1  0
 81 85  1  0
 81 80  1  0
 82 81  2  0
 85 84  1  0
 87 85  1  0
 87 88  1  0
 87 86  1  0
 89 92  1  1
 89 90  1  0
 91 89  1  0
M  ISO  4   8 100  16 100  51 101  52 101
M  END
>  <TORSDO>  (73) 
F 21

>  <SCORE>  (73) 
-9.521

>  <name>  (73) 
72

>  <ligand_id>  (73) 
72

>  <original_smiles>  (73) 
[H]C([H])=C([H])c1c(N([H])C(=O)N2C([H])([H])C([H])([H])C([H])([H])C([H])(n3nc(-c4c([H])c([H])c(Oc5c([H])c([H])c(F)c([H])c5F)c([H])c4[H])c(C(=O)N([H])[H])c3N([H])[H])C2([H])[H])c([H])c(OC([H])([H])C([H])([H])C([H])([H])Oc2c([H])c([H])c3c(c2[H])C([H])([H])N(C(=O)C([H])(N([H])C(=O)C([H])(N([H])C([H])([H])[H])C([H])([H])[H])C(C([H])([H])[H])(C([H])([H])[H])C([H])([H])[H])C([H])(C(=O)N([H])C2([H])c4c([H])c([H])c([H])c([H])c4C([H])([H])C([H])([H])C2([H])[H])C3([H])[H])c([H])c1C([H])([H])[H]

>  <smiles>  (73) 
[H]C([H])=C([H])c1c(N([H])C(=O)N2C([H])([H])C([H])([H])C([H])([H])C([H])(n3nc(-c4c([H])c([H])c(Oc5c([H])c([H])c(F)c([H])c5F)c([H])c4[H])c(C(=O)N([H])[H])c3N([H])[H])C2([H])[H])c([H])c(OC([H])([H])C([H])([H])C([H])([H])Oc2c([H])c([H])c3c(c2[H])C([H])([H])N(C(=O)C([H])(N([H])C(=O)C([H])(N([H])C([H])([H])[H])C([H])([H])[H])C(C([H])([H])[H])(C([H])([H])[H])C([H])([H])[H])C([H])(C(=O)N([H])C2([H])c4c([H])c([H])c([H])c([H])c4C([H])([H])C([H])([H])C2([H])[H])C3([H])[H])c([H])c1C([H])([H])[H]

$$$$
73:0:0
     RDKit          3D

 94102  0  0  1  0  0  0  0  0999 V2000
  -31.2910  -18.0150   19.3040 C   0  0  0  0  0  3  0  0  0  0  0  0
  -29.1820  -19.6500   20.2170 C   0  0  0  0  0  0  0  0  0  0  0  0
  -30.2230  -20.2830   19.4630 C   0  0  0  0  0  0  0  0  0  0  0  0
  -30.2580  -17.3810   20.0380 C   0  0  0  0  0  0  0  0  0  0  0  0
  -29.1950  -18.2300   20.4630 C   0  0  0  0  0  0  0  0  0  0  0  0
  -31.2680  -19.4150   19.0210 C   0  0  0  0  0  0  0  0  0  0  0  0
  -28.0650  -20.5130   20.8050 C   0  0  0  0  0  1  0  0  0  0  0  0
  -32.2980  -19.9420   18.3140 F   0  0  0  0  0  0  0  0  0  0  0  0
  -30.9340  -14.8530   19.9960 C   0  0  0  0  0  0  0  0  0  0  0  0
  -30.7150  -12.4920   19.2280 C   0  0  0  0  0  2  0  0  0  0  0  0
  -29.7720  -12.4590   18.0040 C   0  0  0  0  0  2  0  0  0  0  0  0
  -28.2980  -12.3650   18.4450 C   0  0  0  0  0  2  0  0  0  0  0  0
  -27.9440  -13.3840   19.5580 C   0  0  0  0  0  3  0  0  0  0  0  0
  -28.9980  -13.3690   20.6890 C   0  0  0  0  0  2  0  0  0  0  0  0
  -30.3130  -13.6320   20.0810 N   0  0  0  0  0  0  0  0  0  0  0  0
  -32.0740  -14.9560   19.5350 O   0  0  0  0  0  0  0  0  0  0  0  0
  -30.1800  -15.9420   20.3430 N   0  0  0  0  0  0  0  0  0  0  0  0
  -29.3550  -15.6960   20.8620 H   0  0  0  0  0  0  0  0  0  0  0  0
  -25.6140  -14.1200   20.3610 C   0  0  0  0  0  0  0  0  0  0  0  0
  -24.5070  -13.4090   20.7360 C   0  0  0  0  0  0  0  0  0  0  0  0
  -24.8740  -12.0300   20.6470 C   0  0  0  0  0  0  0  0  0  0  0  0
  -26.5890  -13.1790   20.0680 N   0  0  0  0  0  0  0  0  0  0  0  0
  -26.1500  -11.9150   20.3000 N   0  0  0  0  0  0  0  0  0  0  0  0
  -24.0680  -10.8140   20.8170 C   0  0  0  0  0  0  0  0  0  0  0  0
  -24.4720   -9.7750   21.6830 C   0  0  0  0  0  3  0  0  0  0  0  0
  -23.6700   -8.6250   21.8450 C   0  0  0  0  0  3  0  0  0  0  0  0
  -22.4490   -8.5060   21.1390 C   0  0  0  0  0  0  0  0  0  0  0  0
  -22.0630   -9.5330   20.2600 C   0  0  0  0  0  3  0  0  0  0  0  0
  -22.8640  -10.6760   20.0970 C   0  0  0  0  0  3  0  0  0  0  0  0
  -21.6190   -7.4120   21.2120 O   0  0  0  0  0  0  0  0  0  0  0  0
  -21.5900   -6.6040   22.3200 C   0  0  0  0  0  0  0  0  0  0  0  0
  -21.2690   -7.1050   23.6000 C   0  0  0  0  0  3  0  0  0  0  0  0
  -21.1840   -6.2260   24.6980 C   0  0  0  0  0  3  0  0  0  0  0  0
  -21.4090   -4.8490   24.5180 C   0  0  0  0  0  0  0  0  0  0  0  0
  -21.7240   -4.3470   23.2420 C   0  0  0  0  0  3  0  0  0  0  0  0
  -21.8110   -5.2220   22.1460 C   0  0  0  0  0  0  0  0  0  0  0  0
  -22.0930   -4.7320   20.9160 F   0  0  0  0  0  0  0  0  0  0  0  0
  -21.3190   -4.0030   25.5700 F   0  0  0  0  0  0  0  0  0  0  0  0
  -23.1540  -13.9690   21.0640 C   0  0  0  0  0  0  0  0  0  0  0  0
  -22.4020  -13.2930   21.9250 N   0  0  0  0  0  0  0  0  0  0  0  0
  -22.7740  -15.0410   20.5930 O   0  0  0  0  0  0  0  0  0  0  0  0
  -22.7230  -12.4250   22.3280 H   0  0  0  0  0  0  0  0  0  0  0  0
  -21.4930  -13.6490   22.1870 H   0  0  0  0  0  0  0  0  0  0  0  0
  -25.8690  -15.4810   20.2220 N   0  0  0  0  0  0  0  0  0  0  0  0
  -25.1470  -16.1790   20.3650 H   0  0  0  0  0  0  0  0  0  0  0  0
  -26.7240  -15.8710   19.8470 H   0  0  0  0  0  0  0  0  0  0  0  0
  -28.1350  -17.6400   21.1570 N   0  0  0  0  0  0  0  0  0  0  0  0
  -27.3160  -18.2250   21.2730 H   0  0  0  0  0  0  0  0  0  0  0  0
  -27.8630  -16.7020   20.8950 H   0  0  0  0  0  0  0  0  0  0  0  0
  -29.4330  -22.5780   18.9570 C   0  0  0  0  0  3  0  0  0  0  0  0
  -30.3610  -21.7120   19.2570 N   0  0  0  0  0  0  0  0  0  0  0  0
  -29.6620  -24.1440   18.8290 C   0  0  0  0  0  3  0  0  0  0  0  0
  -28.4250  -25.0850   18.4770 C   0  0  0  0  0  3  0  0  0  0  0  0
  -28.5270  -26.5470   18.7300 O   0  0  0  0  0  0  0  0  0  0  0  0
  -24.6330  -31.1020   22.7440 C   0  0  0  0  0  0  0  0  0  0  0  0
  -27.3470  -27.3030   18.8580 C   0  0  0  0  0  0  0  0  0  0  0  0
  -23.4250  -29.9130   20.9490 C   0  0  0  0  0  3  0  0  0  0  0  0
  -24.8850  -28.7230   19.2200 C   0  0  0  0  0  0  0  0  0  0  0  0
  -25.9230  -30.4370   20.7030 C   0  0  0  0  0  2  0  0  0  0  0  0
  -26.0530  -29.1920   19.8350 C   0  0  0  0  0  0  0  0  0  0  0  0
  -27.2850  -28.4960   19.6440 C   0  0  0  0  0  3  0  0  0  0  0  0
  -26.1500  -26.8890   18.2290 C   0  0  0  0  0  3  0  0  0  0  0  0
  -24.9360  -27.5800   18.4060 C   0  0  0  0  0  3  0  0  0  0  0  0
  -23.5990  -29.4860   19.4700 C   0  0  0  0  0  2  0  0  0  0  0  0
  -24.6810  -30.4940   21.5230 N   0  0  0  0  0  0  0  0  0  0  0  0
  -23.5700  -31.2090   23.3690 O   0  0  0  0  0  0  0  0  0  0  0  0
  -22.8820  -28.7080   21.7550 C   0  0  0  0  0  0  0  0  0  0  0  0
  -21.5620  -28.4710   21.6720 N   0  0  0  0  0  0  0  0  0  0  0  0
  -23.6440  -27.9990   22.4170 O   0  0  0  0  0  0  0  0  0  0  0  0
  -21.0010  -29.1010   21.1160 H   0  0  0  0  0  0  0  0  0  0  0  0
  -18.2900  -27.0050   22.1540 C   0  0  0  0  0  0  0  0  0  0  0  0
  -20.8450  -27.3670   22.3120 C   0  0  0  0  0  3  0  0  0  0  0  0
  -20.9770  -26.0650   21.4890 C   0  0  0  0  0  2  0  0  0  0  0  0
  -19.8240  -25.8580   20.5010 C   0  0  0  0  0  2  0  0  0  0  0  0
  -18.4840  -25.8070   21.2420 C   0  0  0  0  0  2  0  0  0  0  0  0
  -19.3970  -27.7460   22.6440 C   0  0  0  0  0  0  0  0  0  0  0  0
  -19.1600  -28.8720   23.4630 C   0  0  0  0  0  3  0  0  0  0  0  0
  -17.8470  -29.2590   23.7920 C   0  0  0  0  0  3  0  0  0  0  0  0
  -16.7550  -28.5130   23.3170 C   0  0  0  0  0  3  0  0  0  0  0  0
  -16.9770  -27.3860   22.5050 C   0  0  0  0  0  3  0  0  0  0  0  0
  -25.9100  -31.7110   23.4030 C   0  0  0  0  0  3  0  0  0  0  0  0
  -26.5190  -30.7960   24.5350 C   0  0  1  0  0  0  0  0  0  0  0  0
  -25.4860  -30.3530   25.5970 C   0  0  0  0  0  1  0  0  0  0  0  0
  -27.1510  -29.5210   23.9280 C   0  0  0  0  0  1  0  0  0  0  0  0
  -27.6590  -31.5490   25.2610 C   0  0  0  0  0  1  0  0  0  0  0  0
  -25.5440  -33.0270   23.9440 N   0  0  0  0  0  0  0  0  0  0  0  0
  -25.7980  -34.1970   23.3430 C   0  0  0  0  0  0  0  0  0  0  0  0
  -26.4340  -34.2810   22.2890 O   0  0  0  0  0  0  0  0  0  0  0  0
  -24.9700  -33.0300   24.7750 H   0  0  0  0  0  0  0  0  0  0  0  0
  -23.9680  -35.9220   23.3160 C   0  0  0  0  0  1  0  0  0  0  0  0
  -25.2620  -35.4760   24.0130 C   0  0  0  0  0  3  0  0  0  0  0  0
  -27.3810  -36.3550   24.8890 C   0  0  0  0  0  1  0  0  0  0  0  0
  -26.2350  -36.5920   24.0160 N   0  0  0  0  0  0  0  0  0  0  0  0
  -25.7890  -37.4570   24.3050 H   0  0  0  0  0  0  0  0  0  0  0  0
  1  4  1  0
  2  5  1  0
  2  7  1  0
  3  2  2  0
  4 17  1  0
  4  5  2  0
  5 47  1  0
  6  1  2  0
  6  3  1  0
  8  6  1  0
  9 15  1  0
  9 17  1  0
 10 15  1  0
 11 12  1  0
 11 10  1  0
 13 12  1  0
 13 22  1  0
 13 14  1  0
 15 14  1  0
 16  9  2  0
 17 18  1  0
 19 20  2  0
 20 39  1  0
 21 20  1  0
 21 24  1  0
 22 23  1  0
 22 19  1  0
 23 21  2  0
 24 25  1  0
 25 26  2  0
 27 30  1  0
 27 26  1  0
 28 27  2  0
 29 28  1  0
 29 24  2  0
 30 31  1  0
 31 32  1  0
 32 33  2  0
 34 33  1  0
 34 38  1  0
 35 34  2  0
 36 31  2  0
 36 35  1  0
 37 36  1  0
 39 40  1  0
 40 43  1  0
 40 42  1  0
 41 39  2  0
 44 19  1  0
 44 45  1  0
 46 44  1  0
 47 48  1  0
 49 47  1  0
 50 51  2  0
 51  3  1  0
 52 50  1  0
 53 54  1  0
 53 52  2  0
 54 56  1  0
 55 66  2  0
 56 61  1  0
 57 65  1  0
 57 67  1  0
 58 64  1  0
 58 60  1  0
 59 65  1  0
 60 59  1  0
 61 60  2  0
 62 63  1  0
 62 56  2  0
 63 58  2  0
 64 57  1  0
 65 55  1  0
 67 69  2  0
 68 67  1  0
 70 68  1  0
 71 80  2  0
 71 76  1  0
 72 68  1  0
 72 76  1  0
 73 72  1  0
 74 75  1  0
 74 73  1  0
 75 71  1  0
 76 77  2  0
 77 78  1  0
 79 78  2  0
 80 79  1  0
 81 55  1  0
 81 86  1  0
 81 82  1  0
 82 85  1  1
 82 83  1  0
 84 82  1  0
 86 89  1  0
 87 86  1  0
 87 91  1  0
 88 87  2  0
 91 90  1  0
 91 93  1  0
 93 94  1  0
 93 92  1  0
M  ISO  4   9 100  17 100  53 101  54 101
M  END
>  <TORSDO>  (74) 
F 20

>  <SCORE>  (74) 
-10.949

>  <name>  (74) 
73

>  <ligand_id>  (74) 
73

>  <original_smiles>  (74) 
[H]C(=Nc1c(F)c([H])c(N([H])C(=O)N2C([H])([H])C([H])([H])C([H])([H])C([H])(n3nc(-c4c([H])c([H])c(Oc5c([H])c([H])c(F)c([H])c5F)c([H])c4[H])c(C(=O)N([H])[H])c3N([H])[H])C2([H])[H])c(N([H])[H])c1C([H])([H])[H])C([H])([H])C([H])([H])Oc1c([H])c([H])c2c(c1[H])C([H])([H])N(C(=O)C([H])(N([H])C(=O)C([H])(N([H])C([H])([H])[H])C([H])([H])[H])C(C([H])([H])[H])(C([H])([H])[H])C([H])([H])[H])C([H])(C(=O)N([H])C1([H])c3c([H])c([H])c([H])c([H])c3C([H])([H])C([H])([H])C1([H])[H])C2([H])[H]

>  <smiles>  (74) 
[H]C(=Nc1c(F)c([H])c(N([H])C(=O)N2C([H])([H])C([H])([H])C([H])([H])C([H])(n3nc(-c4c([H])c([H])c(Oc5c([H])c([H])c(F)c([H])c5F)c([H])c4[H])c(C(=O)N([H])[H])c3N([H])[H])C2([H])[H])c(N([H])[H])c1C([H])([H])[H])C([H])([H])C([H])([H])Oc1c([H])c([H])c2c(c1[H])C([H])([H])N(C(=O)C([H])(N([H])C(=O)C([H])(N([H])C([H])([H])[H])C([H])([H])[H])C(C([H])([H])[H])(C([H])([H])[H])C([H])([H])[H])C([H])(C(=O)N([H])C1([H])c3c([H])c([H])c([H])c([H])c3C([H])([H])C([H])([H])C1([H])[H])C2([H])[H]

$$$$
74:0:0
     RDKit          3D

 96103  0  0  1  0  0  0  0  0999 V2000
  -24.1110  -14.5950   19.7790 C   0  0  0  0  0  3  0  0  0  0  0  0
  -27.2560  -14.3440   22.0610 C   0  0  0  0  0  2  0  0  0  0  0  0
  -24.2310  -12.9190   20.0380 C   0  0  0  0  0  3  0  0  0  0  0  0
  -26.7840  -12.7000   21.8870 C   0  0  0  0  0  2  0  0  0  0  0  0
  -25.1860  -15.7630   20.3920 C   0  0  0  0  0  0  0  0  0  0  0  0
  -26.6090  -15.6980   21.2790 C   0  0  0  0  0  3  0  0  0  0  0  0
  -23.7150  -17.4390   19.4890 C   0  0  0  0  0  1  0  0  0  0  0  0
  -24.9850  -17.0710   20.0030 O   0  0  0  0  0  0  0  0  0  0  0  0
  -27.9990  -10.9750   23.4060 C   0  0  0  0  0  1  0  0  0  0  0  0
  -28.0550  -11.5880   22.0020 C   0  0  0  0  0  3  0  0  0  0  0  0
  -30.4790  -11.4050   20.6220 C   0  0  0  0  0  0  0  0  0  0  0  0
  -30.0420   -9.8540   18.6680 C   0  0  0  0  0  2  0  0  0  0  0  0
  -29.0480   -9.9890   17.4730 C   0  0  0  0  0  2  0  0  0  0  0  0
  -27.6490  -10.3500   17.9850 C   0  0  0  0  0  2  0  0  0  0  0  0
  -27.7830  -11.6900   18.5980 C   0  0  0  0  0  3  0  0  0  0  0  0
  -29.0820  -11.9610   19.1980 C   0  0  0  0  0  2  0  0  0  0  0  0
  -29.7200  -10.8160   19.7350 N   0  0  0  0  0  0  0  0  0  0  0  0
  -31.6840  -11.6150   20.3030 O   0  0  0  0  0  0  0  0  0  0  0  0
  -29.6210  -11.8330   21.6930 N   0  0  0  0  0  0  0  0  0  0  0  0
  -30.0990  -12.3810   22.3920 H   0  0  0  0  0  0  0  0  0  0  0  0
  -26.4060  -13.7100   19.6420 C   0  0  0  0  0  2  0  0  0  0  0  0
  -24.7270  -13.4140   21.2310 C   0  0  0  0  0  3  0  0  0  0  0  0
  -24.8220  -11.6240   21.3630 C   0  0  0  0  0  3  0  0  0  0  0  0
  -26.8400  -12.0540   19.4880 N   0  0  0  0  0  0  0  0  0  0  0  0
  -25.9850  -11.0070   20.4460 N   0  0  0  0  0  2  0  0  0  0  0  0
  -23.8030  -10.5150   21.6740 C   0  0  0  0  0  0  0  0  0  0  0  0
  -24.1900   -9.2930   22.2880 C   0  0  0  0  0  3  0  0  0  0  0  0
  -23.2540   -8.2750   22.6220 C   0  0  0  0  0  3  0  0  0  0  0  0
  -21.8790   -8.4220   22.3200 C   0  0  0  0  0  0  0  0  0  0  0  0
  -21.4940   -9.5730   21.6010 C   0  0  0  0  0  3  0  0  0  0  0  0
  -22.4340  -10.5870   21.2770 C   0  0  0  0  0  3  0  0  0  0  0  0
  -20.9070   -7.4900   22.6440 O   0  0  0  0  0  0  0  0  0  0  0  0
  -21.1260   -6.4860   23.5670 C   0  0  0  0  0  0  0  0  0  0  0  0
  -21.4350   -6.7640   24.9180 C   0  0  0  0  0  3  0  0  0  0  0  0
  -21.6050   -5.7110   25.8410 C   0  0  0  0  0  3  0  0  0  0  0  0
  -21.4600   -4.3740   25.4230 C   0  0  0  0  0  0  0  0  0  0  0  0
  -21.1370   -4.0910   24.0850 C   0  0  0  0  0  3  0  0  0  0  0  0
  -20.9650   -5.1410   23.1630 C   0  0  0  0  0  0  0  0  0  0  0  0
  -20.6310   -4.8520   21.8830 F   0  0  0  0  0  0  0  0  0  0  0  0
  -21.6260   -3.3610   26.3080 F   0  0  0  0  0  0  0  0  0  0  0  0
  -23.3460  -13.9260   21.6540 C   0  0  0  0  0  0  0  0  0  0  0  0
  -22.7610  -13.2910   22.6540 N   0  0  0  0  0  0  0  0  0  0  0  0
  -22.6890  -14.7610   21.0550 O   0  0  0  0  0  0  0  0  0  0  0  0
  -23.2330  -12.5640   23.1690 H   0  0  0  0  0  0  0  0  0  0  0  0
  -21.8250  -13.5560   22.9280 H   0  0  0  0  0  0  0  0  0  0  0  0
  -27.0430  -14.5900   18.7960 N   0  0  0  0  0  0  0  0  0  0  0  0
  -26.7440  -15.5500   18.7030 H   0  0  0  0  0  0  0  0  0  0  0  0
  -27.6820  -14.3060   18.0680 H   0  0  0  0  0  0  0  0  0  0  0  0
  -22.6250  -12.4020   18.1790 C   0  0  0  0  0  2  0  0  0  0  0  0
  -23.4100  -11.9930   19.1900 C   0  0  0  0  0  3  0  0  0  0  0  0
  -27.4970  -16.9510   21.1550 O   0  0  0  0  0  0  0  0  0  0  0  0
  -28.5370  -17.5590   20.0260 C   0  0  0  0  0  3  0  0  0  0  0  0
  -29.5920  -19.0440   19.9500 C   0  0  0  0  0  3  0  0  0  0  0  0
  -30.9830  -19.6280   18.9300 C   0  0  0  0  0  3  0  0  0  0  0  0
  -31.9110  -21.1880   18.8070 C   0  0  0  0  0  3  0  0  0  0  0  0
  -33.2660  -21.8240   18.0510 O   0  0  0  0  0  0  0  0  0  0  0  0
  -35.5660  -28.4930   20.3860 C   0  0  0  0  0  0  0  0  0  0  0  0
  -33.4230  -23.2700   17.8320 C   0  0  0  0  0  0  0  0  0  0  0  0
  -33.3130  -28.1610   19.4720 C   0  0  0  0  0  3  0  0  0  0  0  0
  -32.9610  -26.1280   17.9460 C   0  0  0  0  0  0  0  0  0  0  0  0
  -35.2780  -26.7870   18.5260 C   0  0  0  0  0  2  0  0  0  0  0  0
  -34.2690  -25.6710   18.1520 C   0  0  0  0  0  0  0  0  0  0  0  0
  -34.5180  -24.2320   18.0770 C   0  0  0  0  0  3  0  0  0  0  0  0
  -32.2390  -23.8650   17.3980 C   0  0  0  0  0  3  0  0  0  0  0  0
  -31.9780  -25.2360   17.5140 C   0  0  0  0  0  3  0  0  0  0  0  0
  -32.6240  -27.5830   18.2100 C   0  0  0  0  0  2  0  0  0  0  0  0
  -34.7710  -27.8230   19.4950 N   0  0  0  0  0  0  0  0  0  0  0  0
  -35.1010  -29.3480   21.1570 O   0  0  0  0  0  0  0  0  0  0  0  0
  -32.5630  -27.6940   20.7480 C   0  0  0  0  0  0  0  0  0  0  0  0
  -31.4040  -28.3090   21.0480 N   0  0  0  0  0  0  0  0  0  0  0  0
  -33.0240  -26.7840   21.4440 O   0  0  0  0  0  0  0  0  0  0  0  0
  -31.0930  -29.0560   20.4420 H   0  0  0  0  0  0  0  0  0  0  0  0
  -28.2980  -29.1860   22.6970 C   0  0  0  0  0  0  0  0  0  0  0  0
  -30.5360  -27.9910   22.1850 C   0  0  0  0  0  3  0  0  0  0  0  0
  -29.6790  -26.7370   21.8980 C   0  0  0  0  0  2  0  0  0  0  0  0
  -28.3030  -27.0680   21.3120 C   0  0  0  0  0  2  0  0  0  0  0  0
  -27.5100  -27.9590   22.2730 C   0  0  0  0  0  2  0  0  0  0  0  0
  -29.7180  -29.2070   22.6420 C   0  0  0  0  0  0  0  0  0  0  0  0
  -30.4000  -30.3830   23.0190 C   0  0  0  0  0  3  0  0  0  0  0  0
  -29.6900  -31.5220   23.4450 C   0  0  0  0  0  3  0  0  0  0  0  0
  -28.2860  -31.4920   23.5090 C   0  0  0  0  0  3  0  0  0  0  0  0
  -27.5940  -30.3250   23.1400 C   0  0  0  0  0  3  0  0  0  0  0  0
  -37.0990  -28.2340   20.4620 C   0  0  0  0  0  3  0  0  0  0  0  0
  -37.7650  -29.5370   20.6280 N   0  0  0  0  0  0  0  0  0  0  0  0
  -38.3320  -30.2410   19.6400 C   0  0  0  0  0  0  0  0  0  0  0  0
  -38.4050  -29.8220   18.4820 O   0  0  0  0  0  0  0  0  0  0  0  0
  -37.6920  -29.9680   21.5380 H   0  0  0  0  0  0  0  0  0  0  0  0
  -37.9260  -32.7260   19.5650 C   0  0  0  0  0  1  0  0  0  0  0  0
  -38.9130  -31.6270   19.9900 C   0  0  0  0  0  3  0  0  0  0  0  0
  -41.3020  -31.0590   19.9310 C   0  0  0  0  0  1  0  0  0  0  0  0
  -40.2330  -31.8840   19.3750 N   0  0  0  0  0  0  0  0  0  0  0  0
  -40.4980  -32.8600   19.4840 H   0  0  0  0  0  0  0  0  0  0  0  0
  -37.5020  -27.2640   21.6410 C   0  0  1  0  0  0  0  0  0  0  0  0
  -36.9310  -27.6810   23.0160 C   0  0  0  0  0  1  0  0  0  0  0  0
  -37.0310  -25.8180   21.3620 C   0  0  0  0  0  1  0  0  0  0  0  0
  -39.0430  -27.2050   21.7640 C   0  0  0  0  0  1  0  0  0  0  0  0
  1  3  1  0
  1  5  2  0
  3 50  1  0
  3 22  1  0
  4 10  1  0
  4  2  1  0
  5  6  1  0
  6 51  1  0
  6  2  1  0
  7  8  1  0
  8  5  1  0
 10  9  1  0
 11 19  1  0
 12 17  1  0
 13 14  1  0
 13 12  1  0
 15 14  1  0
 15 16  1  0
 15 24  1  0
 16 17  1  0
 17 11  1  0
 18 11  2  0
 19 10  1  0
 19 20  1  0
 22 23  1  0
 22 41  1  0
 23 26  1  0
 24 21  1  0
 24 25  1  0
 25 23  1  0
 26 27  1  0
 27 28  2  0
 29 28  1  0
 29 32  1  0
 30 29  2  0
 31 30  1  0
 31 26  2  0
 32 33  1  0
 33 34  1  0
 34 35  2  0
 36 35  1  0
 36 40  1  0
 37 36  2  0
 38 33  2  0
 38 37  1  0
 39 38  1  0
 41 42  1  0
 42 45  1  0
 42 44  1  0
 43 41  2  0
 46 21  1  0
 47 46  1  0
 48 46  1  0
 49 50  2  0
 52 51  1  0
 53 52  2  0
 54 53  1  0
 55 54  2  0
 56 55  1  0
 57 68  2  0
 58 56  1  0
 58 63  1  0
 59 67  1  0
 59 69  1  0
 60 62  1  0
 60 66  1  0
 61 67  1  0
 62 61  1  0
 63 62  2  0
 64 65  1  0
 64 58  2  0
 65 60  2  0
 66 59  1  0
 67 57  1  0
 69 70  1  0
 69 71  2  0
 72 70  1  0
 73 82  1  0
 74 70  1  0
 74 78  1  0
 75 74  1  0
 76 75  1  0
 76 77  1  0
 77 73  1  0
 78 73  2  0
 78 79  1  0
 79 80  2  0
 80 81  1  0
 82 81  2  0
 83 57  1  0
 83 84  1  0
 83 93  1  0
 84 87  1  0
 85 89  1  0
 85 84  1  0
 86 85  2  0
 89 88  1  0
 91 92  1  0
 91 90  1  0
 91 89  1  0
 93 96  1  1
 93 94  1  0
 95 93  1  0
M  ISO  4  11 100  19 100  55 101  56 101
M  END
>  <TORSDO>  (75) 
F 24

>  <SCORE>  (75) 
5.411

>  <name>  (75) 
74

>  <ligand_id>  (75) 
74

>  <original_smiles>  (75) 
[H]C([H])=C([H])c1c([H])c(OC([H])([H])[H])c(OC([H])([H])C([H])([H])C([H])([H])C([H])([H])Oc2c([H])c([H])c3c(c2[H])C([H])([H])N(C(=O)C([H])(N([H])C(=O)C([H])(N([H])C([H])([H])[H])C([H])([H])[H])C(C([H])([H])[H])(C([H])([H])[H])C([H])([H])[H])C([H])(C(=O)N([H])C2([H])c4c([H])c([H])c([H])c([H])c4C([H])([H])C([H])([H])C2([H])[H])C3([H])[H])c([H])c1C([H])(N([H])C(=O)N1C([H])([H])C([H])([H])C([H])([H])C([H])(n2nc(-c3c([H])c([H])c(Oc4c([H])c([H])c(F)c([H])c4F)c([H])c3[H])c(C(=O)N([H])[H])c2N([H])[H])C1([H])[H])C([H])([H])[H]

>  <smiles>  (75) 
[H]C([H])=C([H])c1c([H])c(OC([H])([H])[H])c(OC([H])([H])C([H])([H])C([H])([H])C([H])([H])Oc2c([H])c([H])c3c(c2[H])C([H])([H])N(C(=O)C([H])(N([H])C(=O)C([H])(N([H])C([H])([H])[H])C([H])([H])[H])C(C([H])([H])[H])(C([H])([H])[H])C([H])([H])[H])C([H])(C(=O)N([H])C2([H])c4c([H])c([H])c([H])c([H])c4C([H])([H])C([H])([H])C2([H])[H])C3([H])[H])c([H])c1C([H])(N([H])C(=O)N1C([H])([H])C([H])([H])C([H])([H])C([H])(n2nc(-c3c([H])c([H])c(Oc4c([H])c([H])c(F)c([H])c4F)c([H])c3[H])c(C(=O)N([H])[H])c2N([H])[H])C1([H])[H])C([H])([H])[H]

$$$$
75:0:0
     RDKit          3D

 92100  0  0  1  0  0  0  0  0999 V2000
  -30.8680  -17.9200   21.3190 C   0  0  0  0  0  3  0  0  0  0  0  0
  -30.4700  -17.3340   20.0750 C   0  0  0  0  0  0  0  0  0  0  0  0
  -29.6090  -18.2800   19.3580 C   0  0  0  0  0  0  0  0  0  0  0  0
  -30.0220  -18.8850   21.9130 C   0  0  0  0  0  0  0  0  0  0  0  0
  -28.5300  -18.6900   20.1780 C   0  0  0  0  0  0  0  0  0  0  0  0
  -30.4780  -19.8790   22.9760 C   0  0  0  0  0  1  0  0  0  0  0  0
  -27.0870  -18.3950   19.8020 C   0  0  0  0  0  1  0  0  0  0  0  0
  -28.7690  -19.0880   21.4450 N   0  0  0  0  0  0  0  0  0  0  0  0
  -31.0400  -14.7070   20.0500 C   0  0  0  0  0  0  0  0  0  0  0  0
  -30.8050  -12.3760   19.1590 C   0  0  0  0  0  2  0  0  0  0  0  0
  -29.8960  -12.4700   17.9210 C   0  0  0  0  0  2  0  0  0  0  0  0
  -28.4050  -12.3860   18.3230 C   0  0  0  0  0  2  0  0  0  0  0  0
  -28.0530  -13.3040   19.5210 C   0  0  0  0  0  3  0  0  0  0  0  0
  -29.0950  -13.1750   20.6410 C   0  0  0  0  0  2  0  0  0  0  0  0
  -30.4000  -13.4860   20.0460 N   0  0  0  0  0  0  0  0  0  0  0  0
  -32.2510  -14.7590   19.8380 O   0  0  0  0  0  0  0  0  0  0  0  0
  -30.2400  -15.8530   20.0010 N   0  0  0  0  0  0  0  0  0  0  0  0
  -29.2650  -15.6170   19.9140 H   0  0  0  0  0  0  0  0  0  0  0  0
  -25.7120  -14.0390   20.2470 C   0  0  0  0  0  0  0  0  0  0  0  0
  -24.6050  -13.3520   20.6140 C   0  0  0  0  0  0  0  0  0  0  0  0
  -24.9640  -11.9660   20.5630 C   0  0  0  0  0  0  0  0  0  0  0  0
  -26.6960  -13.0990   19.9990 N   0  0  0  0  0  0  0  0  0  0  0  0
  -26.2490  -11.8410   20.2530 N   0  0  0  0  0  0  0  0  0  0  0  0
  -24.1500  -10.7610   20.7430 C   0  0  0  0  0  0  0  0  0  0  0  0
  -24.5250   -9.7410   21.6480 C   0  0  0  0  0  3  0  0  0  0  0  0
  -23.7120   -8.6030   21.8220 C   0  0  0  0  0  3  0  0  0  0  0  0
  -22.5100   -8.4660   21.0870 C   0  0  0  0  0  0  0  0  0  0  0  0
  -22.1510   -9.4720   20.1720 C   0  0  0  0  0  3  0  0  0  0  0  0
  -22.9630  -10.6020   19.9950 C   0  0  0  0  0  3  0  0  0  0  0  0
  -21.6740   -7.3800   21.1660 O   0  0  0  0  0  0  0  0  0  0  0  0
  -21.5940   -6.6140   22.3010 C   0  0  0  0  0  0  0  0  0  0  0  0
  -21.2510   -7.1660   23.5540 C   0  0  0  0  0  3  0  0  0  0  0  0
  -21.1200   -6.3270   24.6800 C   0  0  0  0  0  3  0  0  0  0  0  0
  -21.3170   -4.9400   24.5520 C   0  0  0  0  0  0  0  0  0  0  0  0
  -21.6500   -4.3880   23.3030 C   0  0  0  0  0  3  0  0  0  0  0  0
  -21.7860   -5.2230   22.1800 C   0  0  0  0  0  0  0  0  0  0  0  0
  -22.0880   -4.6800   20.9750 F   0  0  0  0  0  0  0  0  0  0  0  0
  -21.1770   -4.1340   25.6310 F   0  0  0  0  0  0  0  0  0  0  0  0
  -23.2400  -13.9170   20.9010 C   0  0  0  0  0  0  0  0  0  0  0  0
  -22.4780  -13.2830   21.7780 N   0  0  0  0  0  0  0  0  0  0  0  0
  -22.8670  -14.9720   20.3770 O   0  0  0  0  0  0  0  0  0  0  0  0
  -22.7850  -12.4200   22.2150 H   0  0  0  0  0  0  0  0  0  0  0  0
  -21.5610  -13.6490   22.0030 H   0  0  0  0  0  0  0  0  0  0  0  0
  -25.9570  -15.3970   20.0480 N   0  0  0  0  0  0  0  0  0  0  0  0
  -25.1560  -16.0160   20.0160 H   0  0  0  0  0  0  0  0  0  0  0  0
  -26.7000  -15.6700   19.4230 H   0  0  0  0  0  0  0  0  0  0  0  0
  -30.1030  -19.3430   18.5350 O   0  0  0  0  0  0  0  0  0  0  0  0
  -30.5320  -20.6970   19.0320 C   0  0  0  0  0  2  0  0  0  0  0  0
  -29.8040  -23.3250   19.0470 C   0  0  0  0  0  3  0  0  0  0  0  0
  -29.5380  -21.9500   19.0410 C   0  0  0  0  0  3  0  0  0  0  0  0
  -28.7300  -24.5140   19.1460 C   0  0  0  0  0  2  0  0  0  0  0  0
  -29.0420  -25.9990   19.3690 O   0  0  0  0  0  0  0  0  0  0  0  0
  -25.0490  -31.0750   22.9880 C   0  0  0  0  0  0  0  0  0  0  0  0
  -27.9510  -26.9210   19.4560 C   0  0  0  0  0  0  0  0  0  0  0  0
  -23.9760  -29.8100   21.1810 C   0  0  0  0  0  3  0  0  0  0  0  0
  -25.5420  -28.5240   19.6150 C   0  0  0  0  0  0  0  0  0  0  0  0
  -26.5140  -30.2480   21.1150 C   0  0  0  0  0  2  0  0  0  0  0  0
  -26.6940  -28.9500   20.2890 C   0  0  0  0  0  0  0  0  0  0  0  0
  -27.9180  -28.1680   20.1920 C   0  0  0  0  0  3  0  0  0  0  0  0
  -26.7530  -26.5910   18.7780 C   0  0  0  0  0  3  0  0  0  0  0  0
  -25.5840  -27.3570   18.8520 C   0  0  0  0  0  3  0  0  0  0  0  0
  -24.2830  -29.3500   19.7280 C   0  0  0  0  0  2  0  0  0  0  0  0
  -25.2000  -30.3800   21.8230 N   0  0  0  0  0  0  0  0  0  0  0  0
  -23.9330  -31.2410   23.5040 O   0  0  0  0  0  0  0  0  0  0  0  0
  -23.3260  -28.6500   21.9770 C   0  0  0  0  0  0  0  0  0  0  0  0
  -22.0100  -28.4590   21.8040 N   0  0  0  0  0  0  0  0  0  0  0  0
  -24.0120  -27.9430   22.7090 O   0  0  0  0  0  0  0  0  0  0  0  0
  -21.5080  -29.1240   21.2260 H   0  0  0  0  0  0  0  0  0  0  0  0
  -18.6580  -27.0970   22.0600 C   0  0  0  0  0  0  0  0  0  0  0  0
  -21.2020  -27.3930   22.4150 C   0  0  0  0  0  3  0  0  0  0  0  0
  -21.3680  -26.0480   21.6530 C   0  0  0  0  0  2  0  0  0  0  0  0
  -20.2660  -25.8210   20.6020 C   0  0  0  0  0  2  0  0  0  0  0  0
  -18.8740  -25.8280   21.2610 C   0  0  0  0  0  2  0  0  0  0  0  0
  -19.7400  -27.8320   22.5970 C   0  0  0  0  0  0  0  0  0  0  0  0
  -19.4750  -29.0130   23.3250 C   0  0  0  0  0  3  0  0  0  0  0  0
  -18.1550  -29.4460   23.5380 C   0  0  0  0  0  3  0  0  0  0  0  0
  -17.0730  -28.7050   23.0340 C   0  0  0  0  0  3  0  0  0  0  0  0
  -17.3320  -27.5340   22.3040 C   0  0  0  0  0  3  0  0  0  0  0  0
  -26.2640  -31.7040   23.7270 C   0  0  0  0  0  3  0  0  0  0  0  0
  -26.7720  -30.8300   24.9460 C   0  0  1  0  0  0  0  0  0  0  0  0
  -25.6430  -30.4300   25.9280 C   0  0  0  0  0  1  0  0  0  0  0  0
  -27.4300  -29.5270   24.4340 C   0  0  0  0  0  1  0  0  0  0  0  0
  -27.8520  -31.6040   25.7410 C   0  0  0  0  0  1  0  0  0  0  0  0
  -25.8510  -33.0400   24.1930 N   0  0  0  0  0  0  0  0  0  0  0  0
  -26.1730  -34.1890   23.5900 C   0  0  0  0  0  0  0  0  0  0  0  0
  -26.9060  -34.2400   22.5990 O   0  0  0  0  0  0  0  0  0  0  0  0
  -25.2060  -33.0770   24.9700 H   0  0  0  0  0  0  0  0  0  0  0  0
  -24.3840  -35.9450   23.3500 C   0  0  0  0  0  1  0  0  0  0  0  0
  -25.5970  -35.4940   24.1780 C   0  0  0  0  0  3  0  0  0  0  0  0
  -27.6370  -36.3670   25.2310 C   0  0  0  0  0  1  0  0  0  0  0  0
  -26.5780  -36.5990   24.2510 N   0  0  0  0  0  0  0  0  0  0  0  0
  -26.1220  -37.4790   24.4820 H   0  0  0  0  0  0  0  0  0  0  0  0
  1  4  1  0
  2  1  2  0
  3  2  1  0
  3  5  2  3
  4  6  1  0
  5  8  1  0
  7  5  1  0
  8  4  2  0
 10 15  1  0
 11 12  1  0
 11 10  1  0
 13 12  1  0
 13 22  1  0
 13 14  1  0
 15  9  1  0
 15 14  1  0
 16  9  2  0
 17  9  1  0
 17  2  1  0
 18 17  1  0
 19 20  2  0
 20 39  1  0
 21 20  1  0
 21 24  1  0
 22 19  1  0
 22 23  1  0
 23 21  2  0
 24 25  1  0
 25 26  2  0
 27 30  1  0
 27 26  1  0
 28 27  2  0
 29 28  1  0
 29 24  2  0
 30 31  1  0
 31 32  1  0
 32 33  2  0
 34 33  1  0
 34 38  1  0
 35 34  2  0
 36 31  2  0
 36 35  1  0
 37 36  1  0
 39 40  1  0
 40 43  1  0
 40 42  1  0
 41 39  2  0
 44 19  1  0
 45 44  1  0
 46 44  1  0
 47 48  1  0
 47  3  1  0
 48 50  1  0
 49 51  1  0
 50 49  2  0
 51 52  1  0
 52 54  1  0
 53 64  2  0
 54 59  1  0
 55 63  1  0
 55 65  1  0
 56 62  1  0
 56 58  1  0
 57 63  1  0
 58 57  1  0
 59 58  2  0
 60 61  1  0
 60 54  2  0
 61 56  2  0
 62 55  1  0
 63 53  1  0
 65 67  2  0
 66 65  1  0
 68 66  1  0
 69 78  2  0
 69 74  1  0
 70 66  1  0
 70 74  1  0
 71 70  1  0
 72 73  1  0
 72 71  1  0
 73 69  1  0
 74 75  2  0
 75 76  1  0
 77 76  2  0
 78 77  1  0
 79 53  1  0
 79 84  1  0
 79 80  1  0
 80 83  1  1
 80 81  1  0
 82 80  1  0
 84 87  1  0
 85 89  1  0
 85 84  1  0
 86 85  2  0
 89 88  1  0
 89 91  1  0
 91 92  1  0
 91 90  1  0
M  ISO  4   9 100  17 100  51 101  52 101
M  END
>  <TORSDO>  (76) 
F 20

>  <SCORE>  (76) 
-10.217

>  <name>  (76) 
75

>  <ligand_id>  (76) 
75

>  <original_smiles>  (76) 
[H]C(=C([H])C([H])([H])Oc1c(C([H])([H])[H])nc(C([H])([H])[H])c([H])c1N([H])C(=O)N1C([H])([H])C([H])([H])C([H])([H])C([H])(n2nc(-c3c([H])c([H])c(Oc4c([H])c([H])c(F)c([H])c4F)c([H])c3[H])c(C(=O)N([H])[H])c2N([H])[H])C1([H])[H])C([H])([H])Oc1c([H])c([H])c2c(c1[H])C([H])([H])N(C(=O)C([H])(N([H])C(=O)C([H])(N([H])C([H])([H])[H])C([H])([H])[H])C(C([H])([H])[H])(C([H])([H])[H])C([H])([H])[H])C([H])(C(=O)N([H])C1([H])c3c([H])c([H])c([H])c([H])c3C([H])([H])C([H])([H])C1([H])[H])C2([H])[H]

>  <smiles>  (76) 
[H]C(=C([H])C([H])([H])Oc1c(C([H])([H])[H])nc(C([H])([H])[H])c([H])c1N([H])C(=O)N1C([H])([H])C([H])([H])C([H])([H])C([H])(n2nc(-c3c([H])c([H])c(Oc4c([H])c([H])c(F)c([H])c4F)c([H])c3[H])c(C(=O)N([H])[H])c2N([H])[H])C1([H])[H])C([H])([H])Oc1c([H])c([H])c2c(c1[H])C([H])([H])N(C(=O)C([H])(N([H])C(=O)C([H])(N([H])C([H])([H])[H])C([H])([H])[H])C(C([H])([H])[H])(C([H])([H])[H])C([H])([H])[H])C([H])(C(=O)N([H])C1([H])c3c([H])c([H])c([H])c([H])c3C([H])([H])C([H])([H])C1([H])[H])C2([H])[H]

$$$$
76:0:0
     RDKit          3D

 95103  0  0  1  0  0  0  0  0999 V2000
  -30.5670  -19.4720   18.6900 C   0  0  0  0  0  3  0  0  0  0  0  0
  -30.9580  -17.0790   18.5410 C   0  0  0  0  0  3  0  0  0  0  0  0
  -29.8400  -18.0060   20.5100 C   0  0  0  0  0  0  0  0  0  0  0  0
  -29.9410  -19.3280   19.9590 C   0  0  0  0  0  0  0  0  0  0  0  0
  -31.0720  -18.3650   17.9910 C   0  0  0  0  0  0  0  0  0  0  0  0
  -30.3560  -16.8700   19.8080 C   0  0  0  0  0  0  0  0  0  0  0  0
  -29.1630  -17.7870   21.8610 C   0  0  0  0  0  1  0  0  0  0  0  0
  -30.9120  -14.4360   19.9520 C   0  0  0  0  0  0  0  0  0  0  0  0
  -30.4910  -12.3030   18.8180 C   0  0  0  0  0  2  0  0  0  0  0  0
  -29.4700  -12.5720   17.6920 C   0  0  0  0  0  2  0  0  0  0  0  0
  -28.0300  -12.4410   18.2280 C   0  0  0  0  0  2  0  0  0  0  0  0
  -27.8020  -13.2370   19.5420 C   0  0  0  0  0  3  0  0  0  0  0  0
  -28.9380  -12.9840   20.5590 C   0  0  0  0  0  2  0  0  0  0  0  0
  -30.2180  -13.2680   19.8940 N   0  0  0  0  0  0  0  0  0  0  0  0
  -32.0600  -14.5410   19.5120 O   0  0  0  0  0  0  0  0  0  0  0  0
  -30.2070  -15.5290   20.3270 N   0  0  0  0  0  0  0  0  0  0  0  0
  -29.3620  -15.3450   20.8470 H   0  0  0  0  0  0  0  0  0  0  0  0
  -25.4800  -13.8420   20.4640 C   0  0  0  0  0  0  0  0  0  0  0  0
  -24.4310  -13.0670   20.8850 C   0  0  0  0  0  0  0  0  0  0  0  0
  -24.8680  -11.7120   20.7640 C   0  0  0  0  0  0  0  0  0  0  0  0
  -26.4880  -12.9580   20.1150 N   0  0  0  0  0  0  0  0  0  0  0  0
  -26.1290  -11.6710   20.3540 N   0  0  0  0  0  0  0  0  0  0  0  0
  -24.1390  -10.4530   20.9600 C   0  0  0  0  0  0  0  0  0  0  0  0
  -24.5890   -9.4720   21.8700 C   0  0  0  0  0  3  0  0  0  0  0  0
  -23.8610   -8.2770   22.0550 C   0  0  0  0  0  3  0  0  0  0  0  0
  -22.6680   -8.0530   21.3260 C   0  0  0  0  0  0  0  0  0  0  0  0
  -22.2370   -9.0220   20.4040 C   0  0  0  0  0  3  0  0  0  0  0  0
  -22.9650  -10.2100   20.2180 C   0  0  0  0  0  3  0  0  0  0  0  0
  -21.9100   -6.9120   21.4210 O   0  0  0  0  0  0  0  0  0  0  0  0
  -21.8380   -6.1900   22.5850 C   0  0  0  0  0  0  0  0  0  0  0  0
  -21.3550   -6.7560   23.7850 C   0  0  0  0  0  3  0  0  0  0  0  0
  -21.2330   -5.9580   24.9400 C   0  0  0  0  0  3  0  0  0  0  0  0
  -21.5830   -4.5960   24.8970 C   0  0  0  0  0  0  0  0  0  0  0  0
  -22.0590   -4.0290   23.7010 C   0  0  0  0  0  3  0  0  0  0  0  0
  -22.1830   -4.8230   22.5480 C   0  0  0  0  0  0  0  0  0  0  0  0
  -22.6210   -4.2670   21.3930 F   0  0  0  0  0  0  0  0  0  0  0  0
  -21.4590   -3.8270   26.0040 F   0  0  0  0  0  0  0  0  0  0  0  0
  -23.0670  -13.5500   21.2850 C   0  0  0  0  0  0  0  0  0  0  0  0
  -22.3980  -12.8280   22.1760 N   0  0  0  0  0  0  0  0  0  0  0  0
  -22.6050  -14.6020   20.8430 O   0  0  0  0  0  0  0  0  0  0  0  0
  -22.7860  -11.9760   22.5540 H   0  0  0  0  0  0  0  0  0  0  0  0
  -21.4860  -13.1310   22.4870 H   0  0  0  0  0  0  0  0  0  0  0  0
  -25.6500  -15.2160   20.3280 N   0  0  0  0  0  0  0  0  0  0  0  0
  -24.9010  -15.8730   20.5160 H   0  0  0  0  0  0  0  0  0  0  0  0
  -26.4700  -15.6560   19.9310 H   0  0  0  0  0  0  0  0  0  0  0  0
  -31.6730  -18.5400   16.7430 N   0  0  0  0  0  0  0  0  0  0  0  0
  -31.9830  -19.4670   16.4680 H   0  0  0  0  0  0  0  0  0  0  0  0
  -32.2590  -17.7990   16.3690 H   0  0  0  0  0  0  0  0  0  0  0  0
  -29.5480  -21.6710   20.3350 C   0  0  0  0  0  3  0  0  0  0  0  0
  -29.3880  -20.4330   20.6640 N   0  0  0  0  0  0  0  0  0  0  0  0
  -28.9360  -22.8940   21.0090 C   0  0  0  0  0  0  0  0  0  0  0  0
  -28.2410  -22.7580   22.0250 O   0  0  0  0  0  0  0  0  0  0  0  0
  -29.1820  -24.2370   20.4090 C   0  0  0  0  0  3  0  0  0  0  0  0
  -28.5230  -25.3370   20.8400 C   0  0  0  0  0  3  0  0  0  0  0  0
  -28.6820  -26.6040   20.3140 O   0  0  0  0  0  0  0  0  0  0  0  0
  -24.6500  -31.7440   23.1770 C   0  0  0  0  0  0  0  0  0  0  0  0
  -27.5310  -27.3580   20.2380 C   0  0  0  0  0  0  0  0  0  0  0  0
  -23.5540  -30.3140   21.4820 C   0  0  0  0  0  3  0  0  0  0  0  0
  -25.1100  -28.8120   20.1270 C   0  0  0  0  0  0  0  0  0  0  0  0
  -26.0780  -30.7320   21.4020 C   0  0  0  0  0  2  0  0  0  0  0  0
  -26.2270  -29.3630   20.7680 C   0  0  0  0  0  0  0  0  0  0  0  0
  -27.4450  -28.6440   20.8200 C   0  0  0  0  0  3  0  0  0  0  0  0
  -26.4000  -26.8250   19.5840 C   0  0  0  0  0  3  0  0  0  0  0  0
  -25.1900  -27.5430   19.5300 C   0  0  0  0  0  3  0  0  0  0  0  0
  -23.8440  -29.6400   20.1150 C   0  0  0  0  0  2  0  0  0  0  0  0
  -24.7760  -30.9450   22.0800 N   0  0  0  0  0  0  0  0  0  0  0  0
  -23.5390  -31.9910   23.6660 O   0  0  0  0  0  0  0  0  0  0  0  0
  -22.8820  -29.2780   22.4140 C   0  0  0  0  0  0  0  0  0  0  0  0
  -21.5610  -29.0970   22.2530 N   0  0  0  0  0  0  0  0  0  0  0  0
  -23.5480  -28.6420   23.2350 O   0  0  0  0  0  0  0  0  0  0  0  0
  -21.0870  -29.6630   21.5660 H   0  0  0  0  0  0  0  0  0  0  0  0
  -18.1690  -27.9320   22.6940 C   0  0  0  0  0  0  0  0  0  0  0  0
  -20.7280  -28.1480   22.9920 C   0  0  0  0  0  3  0  0  0  0  0  0
  -20.8160  -26.7330   22.3750 C   0  0  0  0  0  2  0  0  0  0  0  0
  -19.7180  -26.4550   21.3440 C   0  0  0  0  0  2  0  0  0  0  0  0
  -18.3330  -26.6000   21.9820 C   0  0  0  0  0  2  0  0  0  0  0  0
  -19.2950  -28.6660   23.1540 C   0  0  0  0  0  0  0  0  0  0  0  0
  -19.0890  -29.9160   23.7790 C   0  0  0  0  0  3  0  0  0  0  0  0
  -17.7900  -30.4300   23.9500 C   0  0  0  0  0  3  0  0  0  0  0  0
  -16.6780  -29.6930   23.5070 C   0  0  0  0  0  3  0  0  0  0  0  0
  -16.8690  -28.4450   22.8850 C   0  0  0  0  0  3  0  0  0  0  0  0
  -25.8920  -32.4050   23.8550 C   0  0  0  0  0  3  0  0  0  0  0  0
  -26.3710  -31.6440   25.1510 C   0  0  1  0  0  0  0  0  0  0  0  0
  -25.2370  -31.3750   26.1680 C   0  0  0  0  0  1  0  0  0  0  0  0
  -27.0070  -30.2840   24.7830 C   0  0  0  0  0  1  0  0  0  0  0  0
  -27.4680  -32.4670   25.8670 C   0  0  0  0  0  1  0  0  0  0  0  0
  -25.5380  -33.7950   24.1670 N   0  0  0  0  0  0  0  0  0  0  0  0
  -25.8690  -34.8520   23.4130 C   0  0  0  0  0  0  0  0  0  0  0  0
  -26.5740  -34.7610   22.4050 O   0  0  0  0  0  0  0  0  0  0  0  0
  -24.9120  -33.9390   24.9460 H   0  0  0  0  0  0  0  0  0  0  0  0
  -24.1030  -36.5950   22.9960 C   0  0  0  0  0  1  0  0  0  0  0  0
  -25.3300  -36.2290   23.8460 C   0  0  0  0  0  3  0  0  0  0  0  0
  -27.4080  -37.1810   24.7420 C   0  0  0  0  0  1  0  0  0  0  0  0
  -26.3360  -37.3090   23.7570 N   0  0  0  0  0  0  0  0  0  0  0  0
  -25.9000  -38.2200   23.8820 H   0  0  0  0  0  0  0  0  0  0  0  0
  1  4  1  0
  2  6  2  0
  3  7  1  0
  4  3  2  0
  4 50  1  0
  5  2  1  0
  5  1  2  0
  6 16  1  0
  6  3  1  0
  8 16  1  0
  9 14  1  0
 10 11  1  0
 10  9  1  0
 12 11  1  0
 12 21  1  0
 12 13  1  0
 14  8  1  0
 14 13  1  0
 15  8  2  0
 16 17  1  0
 18 19  2  0
 19 38  1  0
 20 19  1  0
 20 23  1  0
 21 22  1  0
 21 18  1  0
 22 20  2  0
 23 24  1  0
 24 25  2  0
 26 29  1  0
 26 25  1  0
 27 26  2  0
 28 27  1  0
 28 23  2  0
 29 30  1  0
 30 31  1  0
 31 32  2  0
 33 32  1  0
 33 37  1  0
 34 33  2  0
 35 30  2  0
 35 34  1  0
 36 35  1  0
 38 39  1  0
 39 42  1  0
 39 41  1  0
 40 38  2  0
 43 18  1  0
 43 44  1  0
 45 43  1  0
 46  5  1  0
 47 46  1  0
 48 46  1  0
 49 50  2  0
 49 51  1  0
 51 52  2  0
 53 54  2  0
 53 51  1  0
 55 54  1  0
 56 67  2  0
 57 55  1  0
 57 62  1  0
 58 66  1  0
 58 68  1  0
 59 61  1  0
 60 66  1  0
 61 62  2  0
 61 60  1  0
 63 57  2  0
 64 63  1  0
 64 59  2  0
 65 59  1  0
 65 58  1  0
 66 56  1  0
 68 70  2  0
 69 68  1  0
 71 69  1  0
 72 81  2  0
 72 77  1  0
 73 69  1  0
 73 77  1  0
 74 73  1  0
 75 76  1  0
 75 74  1  0
 76 72  1  0
 77 78  2  0
 78 79  1  0
 80 79  2  0
 81 80  1  0
 82 56  1  0
 82 87  1  0
 82 83  1  0
 83 86  1  1
 83 84  1  0
 85 83  1  0
 87 90  1  0
 88 92  1  0
 88 87  1  0
 89 88  2  0
 92 91  1  0
 94 92  1  0
 94 95  1  0
 94 93  1  0
M  ISO  4   8 100  16 100  54 101  55 101
M  END
>  <TORSDO>  (77) 
F 20

>  <SCORE>  (77) 
-12.835

>  <name>  (77) 
76

>  <ligand_id>  (77) 
76

>  <original_smiles>  (77) 
[H]C(=Nc1c([H])c(N([H])[H])c([H])c(N([H])C(=O)N2C([H])([H])C([H])([H])C([H])([H])C([H])(n3nc(-c4c([H])c([H])c(Oc5c([H])c([H])c(F)c([H])c5F)c([H])c4[H])c(C(=O)N([H])[H])c3N([H])[H])C2([H])[H])c1C([H])([H])[H])C(=O)C([H])=C([H])Oc1c([H])c([H])c2c(c1[H])C([H])([H])N(C(=O)C([H])(N([H])C(=O)C([H])(N([H])C([H])([H])[H])C([H])([H])[H])C(C([H])([H])[H])(C([H])([H])[H])C([H])([H])[H])C([H])(C(=O)N([H])C1([H])c3c([H])c([H])c([H])c([H])c3C([H])([H])C([H])([H])C1([H])[H])C2([H])[H]

>  <smiles>  (77) 
[H]C(=Nc1c([H])c(N([H])[H])c([H])c(N([H])C(=O)N2C([H])([H])C([H])([H])C([H])([H])C([H])(n3nc(-c4c([H])c([H])c(Oc5c([H])c([H])c(F)c([H])c5F)c([H])c4[H])c(C(=O)N([H])[H])c3N([H])[H])C2([H])[H])c1C([H])([H])[H])C(=O)C([H])=C([H])Oc1c([H])c([H])c2c(c1[H])C([H])([H])N(C(=O)C([H])(N([H])C(=O)C([H])(N([H])C([H])([H])[H])C([H])([H])[H])C(C([H])([H])[H])(C([H])([H])[H])C([H])([H])[H])C([H])(C(=O)N([H])C1([H])c3c([H])c([H])c([H])c([H])c3C([H])([H])C([H])([H])C1([H])[H])C2([H])[H]

$$$$
77:0:0
     RDKit          3D

 95103  0  0  1  0  0  0  0  0999 V2000
  -29.6730  -20.3280   21.6460 C   0  0  0  0  0  3  0  0  0  0  0  0
  -30.3160  -21.6520   19.2590 C   0  0  0  0  0  3  0  0  0  0  0  0
  -29.1990  -21.6420   21.4170 C   0  0  0  0  0  0  0  0  0  0  0  0
  -30.4780  -19.6640   20.6960 C   0  0  0  0  0  0  0  0  0  0  0  0
  -29.5230  -22.3290   20.2190 C   0  0  0  0  0  0  0  0  0  0  0  0
  -30.7880  -20.3380   19.4940 C   0  0  0  0  0  0  0  0  0  0  0  0
  -28.3600  -22.3150   22.4900 C   0  0  0  0  0  1  0  0  0  0  0  0
  -31.5550  -19.7270   18.5590 F   0  0  0  0  0  0  0  0  0  0  0  0
  -29.0210  -23.6390   20.0250 N   0  0  0  0  0  0  0  0  0  0  0  0
  -28.4250  -24.0070   20.7610 H   0  0  0  0  0  0  0  0  0  0  0  0
  -29.7510  -24.6610   19.2670 C   0  0  0  0  0  2  0  0  0  0  0  0
  -29.5230  -26.6260   17.6620 C   0  0  0  0  0  1  0  0  0  0  0  0
  -28.8420  -25.8240   18.7780 C   0  0  0  0  0  3  0  0  0  0  0  0
  -28.5490  -26.7660   19.8330 O   0  0  0  0  0  0  0  0  0  0  0  0
  -24.5740  -31.6910   23.1510 C   0  0  0  0  0  0  0  0  0  0  0  0
  -27.3470  -27.4620   19.8400 C   0  0  0  0  0  0  0  0  0  0  0  0
  -23.4090  -30.3310   21.4490 C   0  0  0  0  0  3  0  0  0  0  0  0
  -24.9030  -28.9090   19.9510 C   0  0  0  0  0  0  0  0  0  0  0  0
  -25.9270  -30.7660   21.2690 C   0  0  0  0  0  2  0  0  0  0  0  0
  -26.0510  -29.4300   20.5600 C   0  0  0  0  0  0  0  0  0  0  0  0
  -27.2700  -28.7110   20.5070 C   0  0  0  0  0  3  0  0  0  0  0  0
  -26.1650  -26.9540   19.2500 C   0  0  0  0  0  3  0  0  0  0  0  0
  -24.9550  -27.6680   19.3000 C   0  0  0  0  0  3  0  0  0  0  0  0
  -23.6360  -29.7280   20.0380 C   0  0  0  0  0  2  0  0  0  0  0  0
  -24.6550  -30.9420   22.0150 N   0  0  0  0  0  0  0  0  0  0  0  0
  -23.4860  -31.9050   23.7020 O   0  0  0  0  0  0  0  0  0  0  0  0
  -22.7910  -29.2440   22.3600 C   0  0  0  0  0  0  0  0  0  0  0  0
  -21.4740  -29.0250   22.2220 N   0  0  0  0  0  0  0  0  0  0  0  0
  -23.4950  -28.6040   23.1440 O   0  0  0  0  0  0  0  0  0  0  0  0
  -20.9660  -29.5970   21.5620 H   0  0  0  0  0  0  0  0  0  0  0  0
  -18.1380  -27.7040   22.6650 C   0  0  0  0  0  0  0  0  0  0  0  0
  -20.6880  -28.0280   22.9480 C   0  0  0  0  0  3  0  0  0  0  0  0
  -20.8320  -26.6290   22.3050 C   0  0  0  0  0  2  0  0  0  0  0  0
  -19.7390  -26.3200   21.2770 C   0  0  0  0  0  2  0  0  0  0  0  0
  -18.3550  -26.3940   21.9270 C   0  0  0  0  0  2  0  0  0  0  0  0
  -19.2340  -28.4790   23.1290 C   0  0  0  0  0  0  0  0  0  0  0  0
  -18.9780  -29.7060   23.7780 C   0  0  0  0  0  3  0  0  0  0  0  0
  -17.6590  -30.1610   23.9650 C   0  0  0  0  0  3  0  0  0  0  0  0
  -16.5780  -29.3810   23.5190 C   0  0  0  0  0  3  0  0  0  0  0  0
  -16.8180  -28.1550   22.8750 C   0  0  0  0  0  3  0  0  0  0  0  0
  -25.8400  -32.3330   23.7980 C   0  0  0  0  0  3  0  0  0  0  0  0
  -25.5010  -33.7150   24.1610 N   0  0  0  0  0  0  0  0  0  0  0  0
  -25.8250  -34.7930   23.4340 C   0  0  0  0  0  0  0  0  0  0  0  0
  -26.5130  -34.7300   22.4120 O   0  0  0  0  0  0  0  0  0  0  0  0
  -24.8910  -33.8370   24.9570 H   0  0  0  0  0  0  0  0  0  0  0  0
  -24.0760  -36.5670   23.0910 C   0  0  0  0  0  1  0  0  0  0  0  0
  -25.3030  -36.1590   23.9210 C   0  0  0  0  0  3  0  0  0  0  0  0
  -27.3980  -37.0540   24.8360 C   0  0  0  0  0  1  0  0  0  0  0  0
  -26.3210  -37.2310   23.8660 N   0  0  0  0  0  0  0  0  0  0  0  0
  -25.8960  -38.1400   24.0260 H   0  0  0  0  0  0  0  0  0  0  0  0
  -26.3670  -31.5390   25.0570 C   0  0  1  0  0  0  0  0  0  0  0  0
  -25.2700  -31.2390   26.1050 C   0  0  0  0  0  1  0  0  0  0  0  0
  -26.9940  -30.1910   24.6310 C   0  0  0  0  0  1  0  0  0  0  0  0
  -27.4870  -32.3480   25.7540 C   0  0  0  0  0  1  0  0  0  0  0  0
  -31.0550  -18.2740   21.0080 C   0  0  0  0  0  2  0  0  0  0  0  0
  -30.2910  -17.0760   20.3820 C   0  0  0  0  0  2  0  0  0  0  0  0
  -30.5820  -15.7120   21.0390 C   0  0  0  0  0  0  0  0  0  0  0  0
  -30.3900  -15.5670   22.2850 N   0  0  0  0  0  0  0  0  0  0  0  0
  -30.0390  -16.4160   22.7110 H   0  0  0  0  0  0  0  0  0  0  0  0
  -31.1200  -14.5980   20.1330 C   0  0  0  0  0  0  0  0  0  0  0  0
  -30.7150  -12.4560   18.9730 C   0  0  0  0  0  2  0  0  0  0  0  0
  -29.7250  -12.6790   17.8100 C   0  0  0  0  0  2  0  0  0  0  0  0
  -28.2680  -12.5550   18.3000 C   0  0  0  0  0  2  0  0  0  0  0  0
  -28.0020  -13.3890   19.5810 C   0  0  0  0  0  3  0  0  0  0  0  0
  -29.0970  -13.1280   20.6370 C   0  0  0  0  0  2  0  0  0  0  0  0
  -30.4070  -13.4350   20.0320 N   0  0  0  0  0  0  0  0  0  0  0  0
  -32.1550  -14.8060   19.4890 O   0  0  0  0  0  0  0  0  0  0  0  0
  -25.6610  -14.0370   20.4330 C   0  0  0  0  0  0  0  0  0  0  0  0
  -24.5930  -13.2800   20.8350 C   0  0  0  0  0  0  0  0  0  0  0  0
  -25.0120  -11.9190   20.7350 C   0  0  0  0  0  0  0  0  0  0  0  0
  -26.6670  -13.1350   20.1170 N   0  0  0  0  0  0  0  0  0  0  0  0
  -26.2820  -11.8550   20.3540 N   0  0  0  0  0  0  0  0  0  0  0  0
  -24.2620  -10.6710   20.9240 C   0  0  0  0  0  0  0  0  0  0  0  0
  -24.6550   -9.7110   21.8820 C   0  0  0  0  0  3  0  0  0  0  0  0
  -23.9070   -8.5260   22.0570 C   0  0  0  0  0  3  0  0  0  0  0  0
  -22.7510   -8.2950   21.2730 C   0  0  0  0  0  0  0  0  0  0  0  0
  -22.3770   -9.2440   20.3050 C   0  0  0  0  0  3  0  0  0  0  0  0
  -23.1260  -10.4190   20.1290 C   0  0  0  0  0  3  0  0  0  0  0  0
  -21.9770   -7.1620   21.3570 O   0  0  0  0  0  0  0  0  0  0  0  0
  -21.7990   -6.4980   22.5440 C   0  0  0  0  0  0  0  0  0  0  0  0
  -21.2400   -7.1310   23.6760 C   0  0  0  0  0  3  0  0  0  0  0  0
  -21.0100   -6.3920   24.8540 C   0  0  0  0  0  3  0  0  0  0  0  0
  -21.3280   -5.0210   24.8980 C   0  0  0  0  0  0  0  0  0  0  0  0
  -21.8800   -4.3880   23.7700 C   0  0  0  0  0  3  0  0  0  0  0  0
  -22.1110   -5.1240   22.5950 C   0  0  0  0  0  0  0  0  0  0  0  0
  -22.6230   -4.5050   21.5050 F   0  0  0  0  0  0  0  0  0  0  0  0
  -21.1010   -4.3100   26.0270 F   0  0  0  0  0  0  0  0  0  0  0  0
  -23.2270  -13.7850   21.2000 C   0  0  0  0  0  0  0  0  0  0  0  0
  -22.5380  -13.0940   22.1010 N   0  0  0  0  0  0  0  0  0  0  0  0
  -22.7810  -14.8280   20.7210 O   0  0  0  0  0  0  0  0  0  0  0  0
  -22.9120  -12.2490   22.5080 H   0  0  0  0  0  0  0  0  0  0  0  0
  -21.6230  -13.4130   22.3880 H   0  0  0  0  0  0  0  0  0  0  0  0
  -25.8550  -15.4070   20.2930 N   0  0  0  0  0  0  0  0  0  0  0  0
  -25.1140  -16.0780   20.4680 H   0  0  0  0  0  0  0  0  0  0  0  0
  -26.7030  -15.8360   19.9450 H   0  0  0  0  0  0  0  0  0  0  0  0
  2  6  2  0
  2  5  1  0
  3  1  1  0
  3  7  1  0
  4 55  1  0
  4  1  2  0
  5  3  2  0
  6  4  1  0
  8  6  1  0
  9  5  1  0
  9 10  1  0
 11  9  1  0
 13 12  1  0
 13 11  1  0
 13 14  1  0
 14 16  1  0
 15 26  2  0
 16 21  1  0
 17 25  1  0
 17 27  1  0
 18 24  1  0
 18 20  1  0
 19 25  1  0
 20 19  1  0
 21 20  2  0
 22 23  1  0
 22 16  2  0
 23 18  2  0
 24 17  1  0
 25 15  1  0
 27 29  2  0
 28 27  1  0
 30 28  1  0
 31 40  2  0
 31 36  1  0
 32 28  1  0
 32 36  1  0
 33 32  1  0
 34 35  1  0
 34 33  1  0
 35 31  1  0
 36 37  2  0
 37 38  1  0
 39 38  2  0
 40 39  1  0
 41 15  1  0
 41 42  1  0
 41 51  1  0
 42 45  1  0
 43 47  1  0
 43 42  1  0
 44 43  2  0
 47 46  1  0
 49 47  1  0
 49 50  1  0
 49 48  1  0
 51 54  1  1
 51 52  1  0
 53 51  1  0
 56 55  1  0
 56 57  1  0
 57 58  2  0
 58 59  1  0
 60 57  1  0
 61 66  1  0
 62 63  1  0
 62 61  1  0
 64 63  1  0
 64 71  1  0
 64 65  1  0
 66 60  1  0
 66 65  1  0
 67 60  2  0
 68 69  2  0
 69 88  1  0
 70 69  1  0
 70 73  1  0
 71 72  1  0
 71 68  1  0
 72 70  2  0
 73 74  1  0
 74 75  2  0
 76 79  1  0
 76 75  1  0
 77 76  2  0
 78 77  1  0
 78 73  2  0
 79 80  1  0
 80 85  2  0
 80 81  1  0
 81 82  2  0
 82 83  1  0
 83 87  1  0
 84 83  2  0
 85 84  1  0
 86 85  1  0
 88 89  1  0
 89 92  1  0
 89 91  1  0
 90 88  2  0
 93 68  1  0
 93 94  1  0
 95 93  1  0
M  ISO  4  13 101  14 101  57 100  60 100
M  END
>  <TORSDO>  (78) 
F 22

>  <SCORE>  (78) 
-12.193

>  <name>  (78) 
77

>  <ligand_id>  (78) 
77

>  <original_smiles>  (78) 
[H]N=C(C(=O)N1C([H])([H])C([H])([H])C([H])([H])C([H])(n2nc(-c3c([H])c([H])c(Oc4c([H])c([H])c(F)c([H])c4F)c([H])c3[H])c(C(=O)N([H])[H])c2N([H])[H])C1([H])[H])C([H])([H])C([H])([H])c1c([H])c(C([H])([H])[H])c(N([H])C([H])([H])C([H])(Oc2c([H])c([H])c3c(c2[H])C([H])([H])N(C(=O)C([H])(N([H])C(=O)C([H])(N([H])C([H])([H])[H])C([H])([H])[H])C(C([H])([H])[H])(C([H])([H])[H])C([H])([H])[H])C([H])(C(=O)N([H])C2([H])c4c([H])c([H])c([H])c([H])c4C([H])([H])C([H])([H])C2([H])[H])C3([H])[H])C([H])([H])[H])c([H])c1F

>  <smiles>  (78) 
[H]N=C(C(=O)N1C([H])([H])C([H])([H])C([H])([H])C([H])(n2nc(-c3c([H])c([H])c(Oc4c([H])c([H])c(F)c([H])c4F)c([H])c3[H])c(C(=O)N([H])[H])c2N([H])[H])C1([H])[H])C([H])([H])C([H])([H])c1c([H])c(C([H])([H])[H])c(N([H])C([H])([H])C([H])(Oc2c([H])c([H])c3c(c2[H])C([H])([H])N(C(=O)C([H])(N([H])C(=O)C([H])(N([H])C([H])([H])[H])C([H])([H])[H])C(C([H])([H])[H])(C([H])([H])[H])C([H])([H])[H])C([H])(C(=O)N([H])C2([H])c4c([H])c([H])c([H])c([H])c4C([H])([H])C([H])([H])C2([H])[H])C3([H])[H])C([H])([H])[H])c([H])c1F

$$$$
78:0:0
     RDKit          3D

 93101  0  0  1  0  0  0  0  0999 V2000
  -28.2520  -17.0090   20.4350 C   0  0  0  0  0  3  0  0  0  0  0  0
  -27.3930  -18.0750   20.1450 C   0  0  0  0  0  3  0  0  0  0  0  0
  -30.1230  -18.5450   20.3930 C   0  0  0  0  0  3  0  0  0  0  0  0
  -29.2550  -19.7040   20.0900 C   0  0  0  0  0  0  0  0  0  0  0  0
  -29.6350  -17.1700   20.5740 C   0  0  0  0  0  0  0  0  0  0  0  0
  -27.8600  -19.3920   20.0150 C   0  0  0  0  0  0  0  0  0  0  0  0
  -30.8910  -14.8240   20.6240 C   0  0  0  0  0  0  0  0  0  0  0  0
  -30.7500  -12.4170   19.9120 C   0  0  0  0  0  2  0  0  0  0  0  0
  -29.9170  -12.3040   18.6140 C   0  0  0  0  0  2  0  0  0  0  0  0
  -28.4160  -12.1800   18.9370 C   0  0  0  0  0  2  0  0  0  0  0  0
  -27.9470  -13.2330   19.9760 C   0  0  0  0  0  3  0  0  0  0  0  0
  -28.9090  -13.3060   21.1890 C   0  0  0  0  0  2  0  0  0  0  0  0
  -30.2660  -13.5890   20.6880 N   0  0  0  0  0  0  0  0  0  0  0  0
  -32.0260  -14.9100   20.1510 O   0  0  0  0  0  0  0  0  0  0  0  0
  -30.2570  -15.9410   21.1510 N   0  0  0  0  0  0  0  0  0  0  0  0
  -29.6300  -15.5650   21.8450 H   0  0  0  0  0  0  0  0  0  0  0  0
  -25.5360  -13.9310   20.5360 C   0  0  0  0  0  0  0  0  0  0  0  0
  -24.4220  -13.2150   20.8680 C   0  0  0  0  0  0  0  0  0  0  0  0
  -24.8240  -11.8460   20.8670 C   0  0  0  0  0  0  0  0  0  0  0  0
  -26.5600  -13.0110   20.3810 N   0  0  0  0  0  0  0  0  0  0  0  0
  -26.1280  -11.7470   20.6350 N   0  0  0  0  0  0  0  0  0  0  0  0
  -24.0240  -10.6240   21.0130 C   0  0  0  0  0  0  0  0  0  0  0  0
  -24.3940   -9.6030   21.9150 C   0  0  0  0  0  3  0  0  0  0  0  0
  -23.5970   -8.4480   22.0530 C   0  0  0  0  0  3  0  0  0  0  0  0
  -22.4150   -8.3050   21.2870 C   0  0  0  0  0  0  0  0  0  0  0  0
  -22.0630   -9.3140   20.3740 C   0  0  0  0  0  3  0  0  0  0  0  0
  -22.8610  -10.4620   20.2350 C   0  0  0  0  0  3  0  0  0  0  0  0
  -21.5930   -7.2050   21.3360 O   0  0  0  0  0  0  0  0  0  0  0  0
  -21.5430   -6.3940   22.4410 C   0  0  0  0  0  0  0  0  0  0  0  0
  -21.1760   -6.8870   23.7110 C   0  0  0  0  0  3  0  0  0  0  0  0
  -21.0700   -6.0040   24.8050 C   0  0  0  0  0  3  0  0  0  0  0  0
  -21.3220   -4.6310   24.6290 C   0  0  0  0  0  0  0  0  0  0  0  0
  -21.6850   -4.1380   23.3630 C   0  0  0  0  0  3  0  0  0  0  0  0
  -21.7920   -5.0170   22.2710 C   0  0  0  0  0  0  0  0  0  0  0  0
  -22.1200   -4.5340   21.0490 F   0  0  0  0  0  0  0  0  0  0  0  0
  -21.2140   -3.7800   25.6770 F   0  0  0  0  0  0  0  0  0  0  0  0
  -23.0380  -13.7660   21.0610 C   0  0  0  0  0  0  0  0  0  0  0  0
  -22.2340  -13.1210   21.8960 N   0  0  0  0  0  0  0  0  0  0  0  0
  -22.6810  -14.8060   20.5090 O   0  0  0  0  0  0  0  0  0  0  0  0
  -22.5350  -12.2800   22.3670 H   0  0  0  0  0  0  0  0  0  0  0  0
  -21.3040  -13.4730   22.0690 H   0  0  0  0  0  0  0  0  0  0  0  0
  -25.7330  -15.2860   20.3200 N   0  0  0  0  0  0  0  0  0  0  0  0
  -24.9480  -15.9280   20.3270 H   0  0  0  0  0  0  0  0  0  0  0  0
  -26.5580  -15.6780   19.8870 H   0  0  0  0  0  0  0  0  0  0  0  0
  -26.8600  -20.3600   19.9170 N   0  0  0  0  0  0  0  0  0  0  0  0
  -25.9230  -20.0680   20.1710 H   0  0  0  0  0  0  0  0  0  0  0  0
  -27.0900  -21.2550   20.3290 H   0  0  0  0  0  0  0  0  0  0  0  0
  -29.0710  -22.1660   19.5330 C   0  0  0  0  0  3  0  0  0  0  0  0
  -29.7200  -21.1080   20.0160 N   0  0  0  0  0  0  0  0  0  0  0  0
  -30.6210  -24.0260   18.6610 C   0  0  0  0  0  1  0  0  0  0  0  0
  -29.4440  -23.7410   19.6070 C   0  0  0  0  0  3  0  0  0  0  0  0
  -28.2700  -24.8550   19.3590 C   0  0  0  0  0  2  0  0  0  0  0  0
  -28.4450  -26.3400   19.6150 O   0  0  0  0  0  0  0  0  0  0  0  0
  -24.6110  -31.5160   23.0110 C   0  0  0  0  0  0  0  0  0  0  0  0
  -27.3160  -27.2050   19.6240 C   0  0  0  0  0  0  0  0  0  0  0  0
  -23.4300  -30.1980   21.2930 C   0  0  0  0  0  3  0  0  0  0  0  0
  -24.9070  -28.7880   19.7450 C   0  0  0  0  0  0  0  0  0  0  0  0
  -25.9610  -30.5910   21.1060 C   0  0  0  0  0  2  0  0  0  0  0  0
  -26.0740  -29.2580   20.3610 C   0  0  0  0  0  0  0  0  0  0  0  0
  -27.2790  -28.4820   20.2870 C   0  0  0  0  0  3  0  0  0  0  0  0
  -26.1190  -26.8100   18.9820 C   0  0  0  0  0  3  0  0  0  0  0  0
  -24.9370  -27.5740   19.0440 C   0  0  0  0  0  3  0  0  0  0  0  0
  -23.6470  -29.6240   19.8680 C   0  0  0  0  0  2  0  0  0  0  0  0
  -24.6870  -30.7840   21.8600 N   0  0  0  0  0  0  0  0  0  0  0  0
  -23.5260  -31.7250   23.5750 O   0  0  0  0  0  0  0  0  0  0  0  0
  -22.8050  -29.1020   22.1910 C   0  0  0  0  0  0  0  0  0  0  0  0
  -21.4750  -28.9280   22.1040 N   0  0  0  0  0  0  0  0  0  0  0  0
  -23.5170  -28.4140   22.9270 O   0  0  0  0  0  0  0  0  0  0  0  0
  -20.9570  -29.5390   21.4870 H   0  0  0  0  0  0  0  0  0  0  0  0
  -18.1210  -27.6890   22.6630 C   0  0  0  0  0  0  0  0  0  0  0  0
  -20.6910  -27.9230   22.8240 C   0  0  0  0  0  3  0  0  0  0  0  0
  -20.7560  -26.5520   22.1130 C   0  0  0  0  0  2  0  0  0  0  0  0
  -19.6010  -26.3270   21.1300 C   0  0  0  0  0  2  0  0  0  0  0  0
  -18.2560  -26.4100   21.8560 C   0  0  0  0  0  2  0  0  0  0  0  0
  -19.2630  -28.4080   23.1050 C   0  0  0  0  0  0  0  0  0  0  0  0
  -19.0800  -29.6090   23.8240 C   0  0  0  0  0  3  0  0  0  0  0  0
  -17.7880  -30.0900   24.1060 C   0  0  0  0  0  3  0  0  0  0  0  0
  -16.6600  -29.3680   23.6790 C   0  0  0  0  0  3  0  0  0  0  0  0
  -16.8280  -28.1690   22.9630 C   0  0  0  0  0  3  0  0  0  0  0  0
  -25.8820  -32.1460   23.6620 C   0  0  0  0  0  3  0  0  0  0  0  0
  -26.4090  -31.3300   24.9060 C   0  0  1  0  0  0  0  0  0  0  0  0
  -25.3230  -31.0410   25.9690 C   0  0  0  0  0  1  0  0  0  0  0  0
  -27.0030  -29.9740   24.4610 C   0  0  0  0  0  1  0  0  0  0  0  0
  -27.5560  -32.1080   25.5950 C   0  0  0  0  0  1  0  0  0  0  0  0
  -25.5460  -33.5230   24.0540 N   0  0  0  0  0  0  0  0  0  0  0  0
  -25.8360  -34.6130   23.3320 C   0  0  0  0  0  0  0  0  0  0  0  0
  -26.4820  -34.5660   22.2820 O   0  0  0  0  0  0  0  0  0  0  0  0
  -24.9690  -33.6300   24.8750 H   0  0  0  0  0  0  0  0  0  0  0  0
  -24.0510  -36.3720   23.1050 C   0  0  0  0  0  1  0  0  0  0  0  0
  -25.3300  -35.9710   23.8570 C   0  0  0  0  0  3  0  0  0  0  0  0
  -27.4650  -36.8870   24.6540 C   0  0  0  0  0  1  0  0  0  0  0  0
  -26.3310  -37.0550   23.7490 N   0  0  0  0  0  0  0  0  0  0  0  0
  -25.9050  -37.9580   23.9370 H   0  0  0  0  0  0  0  0  0  0  0  0
  1  5  1  0
  2  1  2  0
  3  5  2  0
  4  3  1  0
  5 15  1  0
  6  4  2  0
  6  2  1  0
  7 13  1  0
  7 15  1  0
  8 13  1  0
  9 10  1  0
  9  8  1  0
 11 10  1  0
 11 20  1  0
 11 12  1  0
 13 12  1  0
 14  7  2  0
 15 16  1  0
 17 18  2  0
 18 37  1  0
 19 18  1  0
 19 22  1  0
 20 17  1  0
 20 21  1  0
 21 19  2  0
 22 23  1  0
 23 24  2  0
 25 28  1  0
 25 24  1  0
 26 25  2  0
 27 26  1  0
 27 22  2  0
 28 29  1  0
 29 30  1  0
 30 31  2  0
 32 31  1  0
 32 36  1  0
 33 32  2  0
 34 29  2  0
 34 33  1  0
 35 34  1  0
 37 38  1  0
 38 41  1  0
 38 40  1  0
 39 37  2  0
 42 43  1  0
 42 17  1  0
 44 42  1  0
 45  6  1  0
 45 46  1  0
 45 47  1  0
 48 51  1  0
 48 49  2  0
 49  4  1  0
 51 50  1  0
 52 51  1  0
 52 53  1  0
 53 55  1  0
 54 65  2  0
 55 60  1  0
 56 64  1  0
 56 66  1  0
 57 63  1  0
 57 59  1  0
 58 64  1  0
 59 58  1  0
 60 59  2  0
 61 62  1  0
 61 55  2  0
 62 57  2  0
 63 56  1  0
 64 54  1  0
 66 68  2  0
 67 66  1  0
 69 67  1  0
 70 79  2  0
 70 75  1  0
 71 67  1  0
 71 75  1  0
 72 71  1  0
 73 74  1  0
 73 72  1  0
 74 70  1  0
 75 76  2  0
 76 77  1  0
 78 77  2  0
 79 78  1  0
 80 54  1  0
 80 85  1  0
 80 81  1  0
 81 84  1  1
 81 82  1  0
 83 81  1  0
 85 88  1  0
 86 90  1  0
 86 85  1  0
 87 86  2  0
 90 89  1  0
 92 90  1  0
 92 93  1  0
 92 91  1  0
M  ISO  4   7 100  15 100  52 101  53 101
M  END
>  <TORSDO>  (79) 
F 20

>  <SCORE>  (79) 
-12.865

>  <name>  (79) 
78

>  <ligand_id>  (79) 
78

>  <original_smiles>  (79) 
[H]C(=Nc1c([H])c(N([H])C(=O)N2C([H])([H])C([H])([H])C([H])([H])C([H])(n3nc(-c4c([H])c([H])c(Oc5c([H])c([H])c(F)c([H])c5F)c([H])c4[H])c(C(=O)N([H])[H])c3N([H])[H])C2([H])[H])c([H])c([H])c1N([H])[H])C([H])(C([H])([H])[H])C([H])([H])Oc1c([H])c([H])c2c(c1[H])C([H])([H])N(C(=O)C([H])(N([H])C(=O)C([H])(N([H])C([H])([H])[H])C([H])([H])[H])C(C([H])([H])[H])(C([H])([H])[H])C([H])([H])[H])C([H])(C(=O)N([H])C1([H])c3c([H])c([H])c([H])c([H])c3C([H])([H])C([H])([H])C1([H])[H])C2([H])[H]

>  <smiles>  (79) 
[H]C(=Nc1c([H])c(N([H])C(=O)N2C([H])([H])C([H])([H])C([H])([H])C([H])(n3nc(-c4c([H])c([H])c(Oc5c([H])c([H])c(F)c([H])c5F)c([H])c4[H])c(C(=O)N([H])[H])c3N([H])[H])C2([H])[H])c([H])c([H])c1N([H])[H])C([H])(C([H])([H])[H])C([H])([H])Oc1c([H])c([H])c2c(c1[H])C([H])([H])N(C(=O)C([H])(N([H])C(=O)C([H])(N([H])C([H])([H])[H])C([H])([H])[H])C(C([H])([H])[H])(C([H])([H])[H])C([H])([H])[H])C([H])(C(=O)N([H])C1([H])c3c([H])c([H])c([H])c([H])c3C([H])([H])C([H])([H])C1([H])[H])C2([H])[H]

$$$$
79:0:0
     RDKit          3D

 94103  0  0  1  0  0  0  0  0999 V2000
  -28.6460  -23.2830   21.0190 C   0  0  0  0  0  0  0  0  0  0  0  0
  -28.5150  -20.5890   18.4900 C   0  0  0  0  0  2  0  0  0  0  0  0
  -28.2480  -22.0390   18.8590 C   0  0  0  0  0  2  0  0  0  0  0  0
  -28.7820  -20.8220   20.8650 C   0  0  0  0  0  2  0  0  0  0  0  0
  -28.3500  -19.8110   19.8000 C   0  0  0  0  0  3  0  0  0  0  0  0
  -28.5630  -22.1490   20.2880 N   0  0  0  0  0  0  0  0  0  0  0  0
  -28.8110  -23.2570   22.2440 O   0  0  0  0  0  0  0  0  0  0  0  0
  -29.2640  -17.5890   20.9280 C   0  0  0  0  0  3  0  0  0  0  0  0
  -29.1350  -18.5220   19.8590 C   0  0  0  0  0  0  0  0  0  0  0  0
  -30.0840  -16.6260   20.4110 C   0  0  0  0  0  0  0  0  0  0  0  0
  -31.1550  -16.3510   18.0190 C   0  0  0  0  0  1  0  0  0  0  0  0
  -29.8150  -18.1360   18.7900 N   0  0  0  0  0  0  0  0  0  0  0  0
  -30.4170  -16.9780   19.1030 N   0  0  0  0  0  0  0  0  0  0  0  0
  -31.1240  -14.4690   20.6520 C   0  0  0  0  0  0  0  0  0  0  0  0
  -30.8240  -12.3250   19.4940 C   0  0  0  0  0  2  0  0  0  0  0  0
  -29.9260  -12.5580   18.2600 C   0  0  0  0  0  2  0  0  0  0  0  0
  -28.4310  -12.5070   18.6320 C   0  0  0  0  0  2  0  0  0  0  0  0
  -28.0820  -13.3360   19.8970 C   0  0  0  0  0  3  0  0  0  0  0  0
  -29.0860  -13.0450   21.0360 C   0  0  0  0  0  2  0  0  0  0  0  0
  -30.4450  -13.3000   20.5240 N   0  0  0  0  0  0  0  0  0  0  0  0
  -32.2870  -14.6370   20.2720 O   0  0  0  0  0  0  0  0  0  0  0  0
  -30.3780  -15.4870   21.0880 N   0  0  0  0  0  0  0  0  0  0  0  0
  -29.6550  -15.2130   21.7360 H   0  0  0  0  0  0  0  0  0  0  0  0
  -25.6660  -14.0090   20.4870 C   0  0  0  0  0  0  0  0  0  0  0  0
  -24.5670  -13.2640   20.8210 C   0  0  0  0  0  0  0  0  0  0  0  0
  -25.0000  -11.9030   20.8340 C   0  0  0  0  0  0  0  0  0  0  0  0
  -26.7020  -13.1040   20.3200 N   0  0  0  0  0  0  0  0  0  0  0  0
  -26.3010  -11.8330   20.5860 N   0  0  0  0  0  0  0  0  0  0  0  0
  -24.2430  -10.6570   21.0130 C   0  0  0  0  0  0  0  0  0  0  0  0
  -24.6120   -9.7000   21.9840 C   0  0  0  0  0  3  0  0  0  0  0  0
  -23.8580   -8.5190   22.1490 C   0  0  0  0  0  3  0  0  0  0  0  0
  -22.7200   -8.2840   21.3420 C   0  0  0  0  0  0  0  0  0  0  0  0
  -22.3700   -9.2280   20.3610 C   0  0  0  0  0  3  0  0  0  0  0  0
  -23.1250  -10.4000   20.1940 C   0  0  0  0  0  3  0  0  0  0  0  0
  -21.9440   -7.1520   21.4130 O   0  0  0  0  0  0  0  0  0  0  0  0
  -21.7970   -6.4540   22.5840 C   0  0  0  0  0  0  0  0  0  0  0  0
  -21.2870   -7.0570   23.7550 C   0  0  0  0  0  3  0  0  0  0  0  0
  -21.0880   -6.2840   24.9160 C   0  0  0  0  0  3  0  0  0  0  0  0
  -21.3920   -4.9090   24.9070 C   0  0  0  0  0  0  0  0  0  0  0  0
  -21.8990   -4.3080   23.7430 C   0  0  0  0  0  3  0  0  0  0  0  0
  -22.0990   -5.0770   22.5850 C   0  0  0  0  0  0  0  0  0  0  0  0
  -22.5660   -4.4880   21.4580 F   0  0  0  0  0  0  0  0  0  0  0  0
  -21.1950   -4.1640   26.0210 F   0  0  0  0  0  0  0  0  0  0  0  0
  -23.1690  -13.7730   21.0260 C   0  0  0  0  0  0  0  0  0  0  0  0
  -22.3990  -13.1130   21.8860 N   0  0  0  0  0  0  0  0  0  0  0  0
  -22.7640  -14.7870   20.4610 O   0  0  0  0  0  0  0  0  0  0  0  0
  -22.7400  -12.2930   22.3620 H   0  0  0  0  0  0  0  0  0  0  0  0
  -21.4610  -13.4360   22.0720 H   0  0  0  0  0  0  0  0  0  0  0  0
  -25.8710  -15.3730   20.2960 N   0  0  0  0  0  0  0  0  0  0  0  0
  -25.1180  -16.0470   20.3650 H   0  0  0  0  0  0  0  0  0  0  0  0
  -26.7480  -15.7880   20.0080 H   0  0  0  0  0  0  0  0  0  0  0  0
  -28.5720  -24.5090   20.2380 C   0  0  0  0  0  3  0  0  0  0  0  0
  -28.4490  -25.7000   20.8320 C   0  0  0  0  0  3  0  0  0  0  0  0
  -28.4010  -26.8350   20.0840 O   0  0  0  0  0  0  0  0  0  0  0  0
  -24.5650  -31.8840   23.2290 C   0  0  0  0  0  0  0  0  0  0  0  0
  -27.2170  -27.5140   20.1180 C   0  0  0  0  0  0  0  0  0  0  0  0
  -23.3540  -30.4860   21.5830 C   0  0  0  0  0  3  0  0  0  0  0  0
  -24.8060  -28.9590   20.1510 C   0  0  0  0  0  0  0  0  0  0  0  0
  -25.8690  -30.8690   21.3690 C   0  0  0  0  0  2  0  0  0  0  0  0
  -25.9590  -29.5030   20.7320 C   0  0  0  0  0  0  0  0  0  0  0  0
  -27.1690  -28.7860   20.7120 C   0  0  0  0  0  3  0  0  0  0  0  0
  -26.0540  -26.9630   19.5400 C   0  0  0  0  0  3  0  0  0  0  0  0
  -24.8440  -27.6860   19.5520 C   0  0  0  0  0  3  0  0  0  0  0  0
  -23.5570  -29.8090   20.2010 C   0  0  0  0  0  2  0  0  0  0  0  0
  -24.6150  -31.0940   22.1190 N   0  0  0  0  0  0  0  0  0  0  0  0
  -23.4860  -32.1520   23.7740 O   0  0  0  0  0  0  0  0  0  0  0  0
  -22.7090  -29.4610   22.5420 C   0  0  0  0  0  0  0  0  0  0  0  0
  -21.3840  -29.2790   22.4150 N   0  0  0  0  0  0  0  0  0  0  0  0
  -23.3960  -28.8300   23.3490 O   0  0  0  0  0  0  0  0  0  0  0  0
  -20.8940  -29.8370   21.7300 H   0  0  0  0  0  0  0  0  0  0  0  0
  -18.0090  -28.1070   22.9260 C   0  0  0  0  0  0  0  0  0  0  0  0
  -20.5690  -28.3390   23.1820 C   0  0  0  0  0  3  0  0  0  0  0  0
  -20.6570  -26.9150   22.5860 C   0  0  0  0  0  2  0  0  0  0  0  0
  -19.5440  -26.6140   21.5770 C   0  0  0  0  0  2  0  0  0  0  0  0
  -18.1690  -26.7640   22.2340 C   0  0  0  0  0  2  0  0  0  0  0  0
  -19.1360  -28.8550   23.3570 C   0  0  0  0  0  0  0  0  0  0  0  0
  -18.9350  -30.1130   23.9610 C   0  0  0  0  0  3  0  0  0  0  0  0
  -17.6360  -30.6250   24.1420 C   0  0  0  0  0  3  0  0  0  0  0  0
  -16.5210  -29.8730   23.7300 C   0  0  0  0  0  3  0  0  0  0  0  0
  -16.7090  -28.6170   23.1260 C   0  0  0  0  0  3  0  0  0  0  0  0
  -25.8540  -32.5110   23.8460 C   0  0  0  0  0  3  0  0  0  0  0  0
  -25.5510  -33.9090   24.1800 N   0  0  0  0  0  0  0  0  0  0  0  0
  -25.8880  -34.9600   23.4210 C   0  0  0  0  0  0  0  0  0  0  0  0
  -26.5600  -34.8540   22.3900 O   0  0  0  0  0  0  0  0  0  0  0  0
  -24.9580  -34.0640   24.9820 H   0  0  0  0  0  0  0  0  0  0  0  0
  -24.1700  -36.7570   23.0550 C   0  0  0  0  0  1  0  0  0  0  0  0
  -25.4030  -36.3500   23.8760 C   0  0  0  0  0  3  0  0  0  0  0  0
  -27.5350  -37.2240   24.7250 C   0  0  0  0  0  1  0  0  0  0  0  0
  -26.4410  -37.3980   23.7710 N   0  0  0  0  0  0  0  0  0  0  0  0
  -26.0390  -38.3200   23.9160 H   0  0  0  0  0  0  0  0  0  0  0  0
  -26.3770  -31.7330   25.1160 C   0  0  1  0  0  0  0  0  0  0  0  0
  -25.2880  -31.4880   26.1870 C   0  0  0  0  0  1  0  0  0  0  0  0
  -26.9580  -30.3600   24.7100 C   0  0  0  0  0  1  0  0  0  0  0  0
  -27.5310  -32.5240   25.7760 C   0  0  0  0  0  1  0  0  0  0  0  0
  1  7  2  0
  2  3  1  0
  2  5  1  0
  3  6  1  0
  5  9  1  0
  5  4  1  0
  6  4  1  0
  6  1  1  0
  9  8  1  0
 10  8  2  0
 10 22  1  0
 11 13  1  0
 12 13  1  0
 12  9  2  0
 13 10  1  0
 14 22  1  0
 15 20  1  0
 16 17  1  0
 16 15  1  0
 18 17  1  0
 18 27  1  0
 18 19  1  0
 20 14  1  0
 20 19  1  0
 21 14  2  0
 22 23  1  0
 24 25  2  0
 25 26  1  0
 25 44  1  0
 26 29  1  0
 27 24  1  0
 27 28  1  0
 28 26  2  0
 29 30  1  0
 30 31  2  0
 32 35  1  0
 32 31  1  0
 33 32  2  0
 34 33  1  0
 34 29  2  0
 35 36  1  0
 36 41  2  0
 36 37  1  0
 37 38  2  0
 39 38  1  0
 39 43  1  0
 40 39  2  0
 41 40  1  0
 42 41  1  0
 44 45  1  0
 45 48  1  0
 45 47  1  0
 46 44  2  0
 49 50  1  0
 49 24  1  0
 51 49  1  0
 52 53  2  0
 52  1  1  0
 54 56  1  0
 54 53  1  0
 55 66  2  0
 56 61  1  0
 57 65  1  0
 57 67  1  0
 58 64  1  0
 58 60  1  0
 59 65  1  0
 60 59  1  0
 61 60  2  0
 62 63  1  0
 62 56  2  0
 63 58  2  0
 64 57  1  0
 65 55  1  0
 67 69  2  0
 68 67  1  0
 70 68  1  0
 71 80  2  0
 71 76  1  0
 72 68  1  0
 72 76  1  0
 73 72  1  0
 74 75  1  0
 74 73  1  0
 75 71  1  0
 76 77  2  0
 77 78  1  0
 79 78  2  0
 80 79  1  0
 81 55  1  0
 81 82  1  0
 81 91  1  0
 82 85  1  0
 83 87  1  0
 83 82  1  0
 84 83  2  0
 87 86  1  0
 89 87  1  0
 89 90  1  0
 89 88  1  0
 91 94  1  1
 91 92  1  0
 93 91  1  0
M  ISO  4  14 100  22 100  53 101  54 101
M  END
>  <TORSDO>  (80) 
F 18

>  <SCORE>  (80) 
-14.650

>  <name>  (80) 
79

>  <ligand_id>  (80) 
79

>  <original_smiles>  (80) 
[H]C(Oc1c([H])c([H])c2c(c1[H])C([H])([H])N(C(=O)C([H])(N([H])C(=O)C([H])(N([H])C([H])([H])[H])C([H])([H])[H])C(C([H])([H])[H])(C([H])([H])[H])C([H])([H])[H])C([H])(C(=O)N([H])C1([H])c3c([H])c([H])c([H])c([H])c3C([H])([H])C([H])([H])C1([H])[H])C2([H])[H])=C([H])C(=O)N1C([H])([H])C([H])([H])C([H])(c2nn(C([H])([H])[H])c(N([H])C(=O)N3C([H])([H])C([H])([H])C([H])([H])C([H])(n4nc(-c5c([H])c([H])c(Oc6c([H])c([H])c(F)c([H])c6F)c([H])c5[H])c(C(=O)N([H])[H])c4N([H])[H])C3([H])[H])c2[H])C1([H])[H]

>  <smiles>  (80) 
[H]C(Oc1c([H])c([H])c2c(c1[H])C([H])([H])N(C(=O)C([H])(N([H])C(=O)C([H])(N([H])C([H])([H])[H])C([H])([H])[H])C(C([H])([H])[H])(C([H])([H])[H])C([H])([H])[H])C([H])(C(=O)N([H])C1([H])c3c([H])c([H])c([H])c([H])c3C([H])([H])C([H])([H])C1([H])[H])C2([H])[H])=C([H])C(=O)N1C([H])([H])C([H])([H])C([H])(c2nn(C([H])([H])[H])c(N([H])C(=O)N3C([H])([H])C([H])([H])C([H])([H])C([H])(n4nc(-c5c([H])c([H])c(Oc6c([H])c([H])c(F)c([H])c6F)c([H])c5[H])c(C(=O)N([H])[H])c4N([H])[H])C3([H])[H])c2[H])C1([H])[H]

$$$$
80:0:0
     RDKit          3D

 96104  0  0  1  0  0  0  0  0999 V2000
  -28.8730  -19.9020   21.4330 C   0  0  0  0  0  3  0  0  0  0  0  0
  -28.9610  -20.0780   19.0230 C   0  0  0  0  0  3  0  0  0  0  0  0
  -29.9970  -18.1360   20.1260 C   0  0  0  0  0  0  0  0  0  0  0  0
  -29.5780  -18.6760   21.3770 C   0  0  0  0  0  0  0  0  0  0  0  0
  -28.5780  -20.6300   20.2630 C   0  0  0  0  0  0  0  0  0  0  0  0
  -29.6690  -18.8460   18.9250 C   0  0  0  0  0  0  0  0  0  0  0  0
  -29.9100  -17.9750   22.6920 C   0  0  0  0  0  1  0  0  0  0  0  0
  -30.9470  -14.5600   19.5530 C   0  0  0  0  0  0  0  0  0  0  0  0
  -30.4340  -12.4070   18.4670 C   0  0  0  0  0  2  0  0  0  0  0  0
  -29.3630  -12.6370   17.3860 C   0  0  0  0  0  2  0  0  0  0  0  0
  -27.9590  -12.4760   18.0020 C   0  0  0  0  0  2  0  0  0  0  0  0
  -27.7820  -13.3000   19.3100 C   0  0  0  0  0  3  0  0  0  0  0  0
  -28.9790  -13.1150   20.2720 C   0  0  0  0  0  2  0  0  0  0  0  0
  -30.2080  -13.4120   19.5200 N   0  0  0  0  0  0  0  0  0  0  0  0
  -32.0480  -14.6100   19.0010 O   0  0  0  0  0  0  0  0  0  0  0  0
  -30.9030  -16.9150   20.0900 C   0  0  0  0  0  0  0  0  0  0  0  0
  -30.3310  -15.6830   20.0010 N   0  0  0  0  0  0  0  0  0  0  0  0
  -32.1210  -17.1190   20.1400 O   0  0  0  0  0  0  0  0  0  0  0  0
  -29.3410  -15.6340   20.1590 H   0  0  0  0  0  0  0  0  0  0  0  0
  -25.5320  -13.8730   20.4150 C   0  0  0  0  0  0  0  0  0  0  0  0
  -24.5160  -13.0840   20.8790 C   0  0  0  0  0  0  0  0  0  0  0  0
  -24.9430  -11.7340   20.6870 C   0  0  0  0  0  0  0  0  0  0  0  0
  -26.5130  -13.0020   19.9650 N   0  0  0  0  0  0  0  0  0  0  0  0
  -26.1740  -11.7070   20.1910 N   0  0  0  0  0  0  0  0  0  0  0  0
  -24.2260  -10.4680   20.8920 C   0  0  0  0  0  0  0  0  0  0  0  0
  -24.6690   -9.5150   21.8350 C   0  0  0  0  0  3  0  0  0  0  0  0
  -23.9550   -8.3120   22.0250 C   0  0  0  0  0  3  0  0  0  0  0  0
  -22.7820   -8.0590   21.2730 C   0  0  0  0  0  0  0  0  0  0  0  0
  -22.3610   -9.0010   20.3170 C   0  0  0  0  0  3  0  0  0  0  0  0
  -23.0760  -10.1940   20.1250 C   0  0  0  0  0  3  0  0  0  0  0  0
  -22.0330   -6.9120   21.3780 O   0  0  0  0  0  0  0  0  0  0  0  0
  -21.8340   -6.2850   22.5820 C   0  0  0  0  0  0  0  0  0  0  0  0
  -21.2140   -6.9390   23.6690 C   0  0  0  0  0  3  0  0  0  0  0  0
  -20.9650   -6.2330   24.8640 C   0  0  0  0  0  3  0  0  0  0  0  0
  -21.3270   -4.8770   24.9730 C   0  0  0  0  0  0  0  0  0  0  0  0
  -21.9390   -4.2250   23.8900 C   0  0  0  0  0  3  0  0  0  0  0  0
  -22.1900   -4.9250   22.6970 C   0  0  0  0  0  0  0  0  0  0  0  0
  -22.7610   -4.2840   21.6490 F   0  0  0  0  0  0  0  0  0  0  0  0
  -21.0820   -4.2000   26.1190 F   0  0  0  0  0  0  0  0  0  0  0  0
  -23.1820  -13.5530   21.3850 C   0  0  0  0  0  0  0  0  0  0  0  0
  -22.5850  -12.8180   22.3140 N   0  0  0  0  0  0  0  0  0  0  0  0
  -22.6880  -14.6110   20.9940 O   0  0  0  0  0  0  0  0  0  0  0  0
  -23.0010  -11.9630   22.6510 H   0  0  0  0  0  0  0  0  0  0  0  0
  -21.6980  -13.1160   22.6940 H   0  0  0  0  0  0  0  0  0  0  0  0
  -25.6950  -15.2530   20.3100 N   0  0  0  0  0  0  0  0  0  0  0  0
  -24.9540  -15.9000   20.5520 H   0  0  0  0  0  0  0  0  0  0  0  0
  -26.4840  -15.7130   19.8770 H   0  0  0  0  0  0  0  0  0  0  0  0
  -29.5500  -18.9680   16.4230 C   0  0  0  0  0  1  0  0  0  0  0  0
  -30.0500  -18.3640   17.6530 N   0  0  0  0  0  0  0  0  0  0  0  0
  -30.5950  -17.5090   17.5460 H   0  0  0  0  0  0  0  0  0  0  0  0
  -28.4620  -22.9490   20.4580 C   0  0  0  0  0  3  0  0  0  0  0  0
  -27.8480  -21.8330   20.3160 N   0  0  0  0  0  0  0  0  0  0  0  0
  -26.5720  -24.3000   21.4850 C   0  0  0  0  0  1  0  0  0  0  0  0
  -27.7430  -24.3150   20.4680 C   0  0  0  0  0  3  0  0  0  0  0  0
  -28.6920  -25.5480   20.7000 C   0  0  0  0  0  2  0  0  0  0  0  0
  -28.5920  -26.6660   19.7830 O   0  0  0  0  0  0  0  0  0  0  0  0
  -24.7260  -31.6620   23.1140 C   0  0  0  0  0  0  0  0  0  0  0  0
  -27.4340  -27.4090   19.8370 C   0  0  0  0  0  0  0  0  0  0  0  0
  -23.5380  -30.2990   21.4270 C   0  0  0  0  0  3  0  0  0  0  0  0
  -25.0180  -28.8720   19.9200 C   0  0  0  0  0  0  0  0  0  0  0  0
  -26.0520  -30.7380   21.2170 C   0  0  0  0  0  2  0  0  0  0  0  0
  -26.1690  -29.3950   20.5230 C   0  0  0  0  0  0  0  0  0  0  0  0
  -27.3850  -28.6690   20.4810 C   0  0  0  0  0  3  0  0  0  0  0  0
  -26.2750  -26.9230   19.2020 C   0  0  0  0  0  3  0  0  0  0  0  0
  -25.0650  -27.6370   19.2580 C   0  0  0  0  0  3  0  0  0  0  0  0
  -23.7540  -29.6940   20.0140 C   0  0  0  0  0  2  0  0  0  0  0  0
  -24.7910  -30.9100   21.9790 N   0  0  0  0  0  0  0  0  0  0  0  0
  -23.6440  -31.8830   23.6720 O   0  0  0  0  0  0  0  0  0  0  0  0
  -22.9300  -29.2140   22.3450 C   0  0  0  0  0  0  0  0  0  0  0  0
  -21.6140  -28.9900   22.2160 N   0  0  0  0  0  0  0  0  0  0  0  0
  -23.6410  -28.5810   23.1330 O   0  0  0  0  0  0  0  0  0  0  0  0
  -21.1030  -29.5590   21.5570 H   0  0  0  0  0  0  0  0  0  0  0  0
  -18.2860  -27.6650   22.6810 C   0  0  0  0  0  0  0  0  0  0  0  0
  -20.8340  -27.9950   22.9520 C   0  0  0  0  0  3  0  0  0  0  0  0
  -20.9820  -26.5930   22.3170 C   0  0  0  0  0  2  0  0  0  0  0  0
  -19.8870  -26.2750   21.2960 C   0  0  0  0  0  2  0  0  0  0  0  0
  -18.5050  -26.3490   21.9520 C   0  0  0  0  0  2  0  0  0  0  0  0
  -19.3810  -28.4450   23.1360 C   0  0  0  0  0  0  0  0  0  0  0  0
  -19.1260  -29.6760   23.7770 C   0  0  0  0  0  3  0  0  0  0  0  0
  -17.8060  -30.1280   23.9700 C   0  0  0  0  0  3  0  0  0  0  0  0
  -16.7250  -29.3440   23.5310 C   0  0  0  0  0  3  0  0  0  0  0  0
  -16.9660  -28.1140   22.8930 C   0  0  0  0  0  3  0  0  0  0  0  0
  -26.0020  -32.3040   23.7440 C   0  0  0  0  0  3  0  0  0  0  0  0
  -26.5550  -31.4970   24.9830 C   0  0  1  0  0  0  0  0  0  0  0  0
  -25.4800  -31.1850   26.0500 C   0  0  0  0  0  1  0  0  0  0  0  0
  -27.1690  -30.1510   24.5270 C   0  0  0  0  0  1  0  0  0  0  0  0
  -27.6900  -32.2970   25.6670 C   0  0  0  0  0  1  0  0  0  0  0  0
  -25.6650  -33.6820   24.1260 N   0  0  0  0  0  0  0  0  0  0  0  0
  -25.9530  -34.7630   23.3910 C   0  0  0  0  0  0  0  0  0  0  0  0
  -26.6070  -34.7090   22.3460 O   0  0  0  0  0  0  0  0  0  0  0  0
  -25.0870  -33.7980   24.9470 H   0  0  0  0  0  0  0  0  0  0  0  0
  -24.1650  -36.5110   23.1250 C   0  0  0  0  0  1  0  0  0  0  0  0
  -25.4360  -36.1230   23.8990 C   0  0  0  0  0  3  0  0  0  0  0  0
  -27.5590  -37.0500   24.7150 C   0  0  0  0  0  1  0  0  0  0  0  0
  -26.4350  -37.2100   23.7950 N   0  0  0  0  0  0  0  0  0  0  0  0
  -26.0060  -38.1120   23.9760 H   0  0  0  0  0  0  0  0  0  0  0  0
  2  5  1  0
  3  4  2  0
  4  1  1  0
  4  7  1  0
  5 52  1  0
  5  1  2  0
  6  2  2  0
  6  3  1  0
  8 17  1  0
  9 14  1  0
 10 11  1  0
 10  9  1  0
 12 11  1  0
 12 23  1  0
 12 13  1  0
 14  8  1  0
 14 13  1  0
 15  8  2  0
 16  3  1  0
 16 18  2  0
 17 16  1  0
 17 19  1  0
 20 21  2  0
 21 40  1  0
 22 21  1  0
 22 25  1  0
 23 24  1  0
 23 20  1  0
 24 22  2  0
 25 26  1  0
 26 27  2  0
 28 31  1  0
 28 27  1  0
 29 28  2  0
 30 29  1  0
 30 25  2  0
 31 32  1  0
 32 37  2  0
 32 33  1  0
 33 34  2  0
 34 35  1  0
 35 39  1  0
 36 35  2  0
 37 36  1  0
 38 37  1  0
 40 41  1  0
 41 43  1  0
 41 44  1  0
 42 40  2  0
 45 20  1  0
 45 46  1  0
 47 45  1  0
 48 49  1  0
 49  6  1  0
 50 49  1  0
 51 54  1  0
 52 51  2  0
 54 55  1  0
 54 53  1  0
 56 58  1  0
 56 55  1  0
 57 68  2  0
 58 63  1  0
 59 67  1  0
 59 69  1  0
 60 66  1  0
 60 62  1  0
 61 67  1  0
 62 61  1  0
 63 62  2  0
 64 65  1  0
 64 58  2  0
 65 60  2  0
 66 59  1  0
 67 57  1  0
 69 71  2  0
 70 69  1  0
 72 70  1  0
 73 82  2  0
 73 78  1  0
 74 70  1  0
 74 78  1  0
 75 74  1  0
 76 77  1  0
 76 75  1  0
 77 73  1  0
 78 79  2  0
 79 80  1  0
 81 80  2  0
 82 81  1  0
 83 57  1  0
 83 88  1  0
 83 84  1  0
 84 87  1  1
 84 85  1  0
 86 84  1  0
 88 91  1  0
 89 93  1  0
 89 88  1  0
 90 89  2  0
 93 92  1  0
 95 93  1  0
 95 96  1  0
 95 94  1  0
M  ISO  4   8 100  17 100  55 101  56 101
M  END
>  <TORSDO>  (81) 
F 20

>  <SCORE>  (81) 
-11.024

>  <name>  (81) 
80

>  <ligand_id>  (81) 
80

>  <original_smiles>  (81) 
[H]C(=Nc1c([H])c(N([H])C([H])([H])[H])c(C(=O)N([H])C(=O)N2C([H])([H])C([H])([H])C([H])([H])C([H])(n3nc(-c4c([H])c([H])c(Oc5c([H])c([H])c(F)c([H])c5F)c([H])c4[H])c(C(=O)N([H])[H])c3N([H])[H])C2([H])[H])c(C([H])([H])[H])c1[H])C([H])(C([H])([H])[H])C([H])([H])Oc1c([H])c([H])c2c(c1[H])C([H])([H])N(C(=O)C([H])(N([H])C(=O)C([H])(N([H])C([H])([H])[H])C([H])([H])[H])C(C([H])([H])[H])(C([H])([H])[H])C([H])([H])[H])C([H])(C(=O)N([H])C1([H])c3c([H])c([H])c([H])c([H])c3C([H])([H])C([H])([H])C1([H])[H])C2([H])[H]

>  <smiles>  (81) 
[H]C(=Nc1c([H])c(N([H])C([H])([H])[H])c(C(=O)N([H])C(=O)N2C([H])([H])C([H])([H])C([H])([H])C([H])(n3nc(-c4c([H])c([H])c(Oc5c([H])c([H])c(F)c([H])c5F)c([H])c4[H])c(C(=O)N([H])[H])c3N([H])[H])C2([H])[H])c(C([H])([H])[H])c1[H])C([H])(C([H])([H])[H])C([H])([H])Oc1c([H])c([H])c2c(c1[H])C([H])([H])N(C(=O)C([H])(N([H])C(=O)C([H])(N([H])C([H])([H])[H])C([H])([H])[H])C(C([H])([H])[H])(C([H])([H])[H])C([H])([H])[H])C([H])(C(=O)N([H])C1([H])c3c([H])c([H])c([H])c([H])c3C([H])([H])C([H])([H])C1([H])[H])C2([H])[H]

$$$$
81:0:0
     RDKit          3D

 98107  0  0  1  0  0  0  0  0999 V2000
  -28.8620  -19.5660   20.1510 C   0  0  0  0  0  3  0  0  0  0  0  0
  -28.8150  -18.1490   20.2170 C   0  0  0  0  0  0  0  0  0  0  0  0
  -29.9940  -17.3640   20.3590 C   0  0  0  0  0  0  0  0  0  0  0  0
  -30.0840  -20.2530   20.2330 C   0  0  0  0  0  0  0  0  0  0  0  0
  -31.1880  -18.1310   20.4500 C   0  0  0  0  0  0  0  0  0  0  0  0
  -30.4800  -24.5930   19.7390 C   0  0  0  0  0  3  0  0  0  0  0  0
  -29.2590  -24.1600   20.1110 C   0  0  0  0  0  0  0  0  0  0  0  0
  -31.6400  -23.6900   19.6690 C   0  0  0  0  0  0  0  0  0  0  0  0
  -31.5220  -22.2560   20.2070 C   0  0  0  0  0  2  0  0  0  0  0  0
  -29.0250  -22.6360   20.4690 C   0  0  0  0  0  3  0  0  0  0  0  0
  -28.6380  -22.5020   21.9550 C   0  0  0  0  0  1  0  0  0  0  0  0
  -31.2180  -19.5080   20.3780 N   0  0  0  0  0  0  0  0  0  0  0  0
  -30.1640  -21.6970   20.1650 N   0  0  0  0  0  0  0  0  0  0  0  0
  -32.7200  -24.0560   19.1960 O   0  0  0  0  0  0  0  0  0  0  0  0
  -30.6840  -14.8450   20.1230 C   0  0  0  0  0  0  0  0  0  0  0  0
  -30.4570  -12.5860   19.0920 C   0  0  0  0  0  2  0  0  0  0  0  0
  -29.4630  -12.6780   17.9140 C   0  0  0  0  0  2  0  0  0  0  0  0
  -28.0130  -12.4890   18.4010 C   0  0  0  0  0  2  0  0  0  0  0  0
  -27.6790  -13.3580   19.6450 C   0  0  0  0  0  3  0  0  0  0  0  0
  -28.7920  -13.2540   20.7160 C   0  0  0  0  0  2  0  0  0  0  0  0
  -30.0710  -13.6170   20.0810 N   0  0  0  0  0  0  0  0  0  0  0  0
  -31.8210  -15.0050   19.6720 O   0  0  0  0  0  0  0  0  0  0  0  0
  -29.8930  -15.8970   20.5110 N   0  0  0  0  0  0  0  0  0  0  0  0
  -28.9780  -15.5770   20.7840 H   0  0  0  0  0  0  0  0  0  0  0  0
  -25.3060  -13.9000   20.4900 C   0  0  0  0  0  0  0  0  0  0  0  0
  -24.2720  -13.1120   20.9020 C   0  0  0  0  0  0  0  0  0  0  0  0
  -24.7480  -11.7710   20.8110 C   0  0  0  0  0  0  0  0  0  0  0  0
  -26.3560  -13.0450   20.1870 N   0  0  0  0  0  0  0  0  0  0  0  0
  -26.0220  -11.7540   20.4380 N   0  0  0  0  0  0  0  0  0  0  0  0
  -24.0380  -10.5030   20.9970 C   0  0  0  0  0  0  0  0  0  0  0  0
  -24.4910   -9.5320   21.9140 C   0  0  0  0  0  3  0  0  0  0  0  0
  -23.7770   -8.3280   22.0920 C   0  0  0  0  0  3  0  0  0  0  0  0
  -22.5940   -8.0910   21.3540 C   0  0  0  0  0  0  0  0  0  0  0  0
  -22.1580   -9.0520   20.4250 C   0  0  0  0  0  3  0  0  0  0  0  0
  -22.8750  -10.2470   20.2450 C   0  0  0  0  0  3  0  0  0  0  0  0
  -21.8490   -6.9400   21.4410 O   0  0  0  0  0  0  0  0  0  0  0  0
  -21.7840   -6.2150   22.6030 C   0  0  0  0  0  0  0  0  0  0  0  0
  -21.2980   -6.7750   23.8050 C   0  0  0  0  0  3  0  0  0  0  0  0
  -21.1830   -5.9740   24.9590 C   0  0  0  0  0  3  0  0  0  0  0  0
  -21.5420   -4.6140   24.9120 C   0  0  0  0  0  0  0  0  0  0  0  0
  -22.0190   -4.0540   23.7130 C   0  0  0  0  0  3  0  0  0  0  0  0
  -22.1360   -4.8510   22.5620 C   0  0  0  0  0  0  0  0  0  0  0  0
  -22.5780   -4.3020   21.4050 F   0  0  0  0  0  0  0  0  0  0  0  0
  -21.4230   -3.8420   26.0170 F   0  0  0  0  0  0  0  0  0  0  0  0
  -22.8890  -13.5790   21.2520 C   0  0  0  0  0  0  0  0  0  0  0  0
  -22.2120  -12.8710   22.1490 N   0  0  0  0  0  0  0  0  0  0  0  0
  -22.4200  -14.6100   20.7700 O   0  0  0  0  0  0  0  0  0  0  0  0
  -22.6040  -12.0370   22.5610 H   0  0  0  0  0  0  0  0  0  0  0  0
  -21.2880  -13.1660   22.4240 H   0  0  0  0  0  0  0  0  0  0  0  0
  -25.4020  -15.2690   20.3220 N   0  0  0  0  0  0  0  0  0  0  0  0
  -24.5810  -15.8540   20.4280 H   0  0  0  0  0  0  0  0  0  0  0  0
  -26.1340  -15.7080   19.7840 H   0  0  0  0  0  0  0  0  0  0  0  0
  -27.0830  -17.2370   18.6470 C   0  0  0  0  0  1  0  0  0  0  0  0
  -27.4540  -17.5100   20.1110 C   0  0  0  0  0  2  0  0  0  0  0  0
  -33.5730  -18.2360   20.7730 C   0  0  0  0  0  1  0  0  0  0  0  0
  -32.3740  -17.4750   20.6970 O   0  0  0  0  0  0  0  0  0  0  0  0
  -28.0320  -25.1480   20.0930 C   0  0  0  0  0  2  0  0  0  0  0  0
  -28.2650  -26.6200   20.0940 O   0  0  0  0  0  0  0  0  0  0  0  0
  -24.5730  -31.9890   23.2390 C   0  0  0  0  0  0  0  0  0  0  0  0
  -27.1350  -27.4630   20.0810 C   0  0  0  0  0  0  0  0  0  0  0  0
  -23.3340  -30.6030   21.6140 C   0  0  0  0  0  3  0  0  0  0  0  0
  -24.7580  -29.0710   20.1390 C   0  0  0  0  0  0  0  0  0  0  0  0
  -25.8690  -30.9300   21.3750 C   0  0  0  0  0  2  0  0  0  0  0  0
  -25.9390  -29.5550   20.7150 C   0  0  0  0  0  0  0  0  0  0  0  0
  -27.1280  -28.7630   20.6770 C   0  0  0  0  0  3  0  0  0  0  0  0
  -25.9250  -27.0360   19.4830 C   0  0  0  0  0  3  0  0  0  0  0  0
  -24.7540  -27.8160   19.5120 C   0  0  0  0  0  3  0  0  0  0  0  0
  -23.5180  -29.9400   20.2230 C   0  0  0  0  0  2  0  0  0  0  0  0
  -24.6120  -31.1910   22.1330 N   0  0  0  0  0  0  0  0  0  0  0  0
  -23.5010  -32.2600   23.8000 O   0  0  0  0  0  0  0  0  0  0  0  0
  -22.6910  -29.5770   22.5780 C   0  0  0  0  0  0  0  0  0  0  0  0
  -21.3750  -29.3530   22.4370 N   0  0  0  0  0  0  0  0  0  0  0  0
  -23.3790  -28.9840   23.4140 O   0  0  0  0  0  0  0  0  0  0  0  0
  -20.8780  -29.8850   21.7350 H   0  0  0  0  0  0  0  0  0  0  0  0
  -18.0430  -28.0050   22.8610 C   0  0  0  0  0  0  0  0  0  0  0  0
  -20.5750  -28.4010   23.2090 C   0  0  0  0  0  3  0  0  0  0  0  0
  -20.7690  -26.9590   22.6840 C   0  0  0  0  0  2  0  0  0  0  0  0
  -19.7200  -26.5520   21.6440 C   0  0  0  0  0  2  0  0  0  0  0  0
  -18.3110  -26.6460   22.2340 C   0  0  0  0  0  2  0  0  0  0  0  0
  -19.1080  -28.8340   23.3040 C   0  0  0  0  0  0  0  0  0  0  0  0
  -18.8050  -30.1000   23.8510 C   0  0  0  0  0  3  0  0  0  0  0  0
  -17.4710  -30.5390   23.9550 C   0  0  0  0  0  3  0  0  0  0  0  0
  -16.4240  -29.7070   23.5280 C   0  0  0  0  0  3  0  0  0  0  0  0
  -16.7090  -28.4400   22.9880 C   0  0  0  0  0  3  0  0  0  0  0  0
  -25.8690  -32.6150   23.8410 C   0  0  0  0  0  3  0  0  0  0  0  0
  -26.4070  -31.8350   25.1030 C   0  0  1  0  0  0  0  0  0  0  0  0
  -25.3300  -31.5820   26.1830 C   0  0  0  0  0  1  0  0  0  0  0  0
  -26.9900  -30.4640   24.6870 C   0  0  0  0  0  1  0  0  0  0  0  0
  -27.5640  -32.6280   25.7550 C   0  0  0  0  0  1  0  0  0  0  0  0
  -25.5690  -34.0120   24.1900 N   0  0  0  0  0  0  0  0  0  0  0  0
  -25.8850  -35.0690   23.4270 C   0  0  0  0  0  0  0  0  0  0  0  0
  -26.5260  -34.9690   22.3770 O   0  0  0  0  0  0  0  0  0  0  0  0
  -25.0030  -34.1640   25.0100 H   0  0  0  0  0  0  0  0  0  0  0  0
  -24.1550  -36.8660   23.1160 C   0  0  0  0  0  1  0  0  0  0  0  0
  -25.4120  -36.4550   23.9020 C   0  0  0  0  0  3  0  0  0  0  0  0
  -27.5630  -37.3270   24.6970 C   0  0  0  0  0  1  0  0  0  0  0  0
  -26.4450  -37.5050   23.7750 N   0  0  0  0  0  0  0  0  0  0  0  0
  -26.0460  -38.4250   23.9380 H   0  0  0  0  0  0  0  0  0  0  0  0
  1  2  1  0
  1  4  2  0
  2  3  2  0
  3  5  1  0
  3 23  1  0
  4 12  1  0
  5 56  1  0
  6  7  2  0
  7 10  1  0
  8  6  1  0
  8  9  1  0
 10 11  1  0
 12  5  2  0
 13  9  1  0
 13  4  1  0
 13 10  1  0
 14  8  2  0
 15 23  1  0
 16 21  1  0
 17 18  1  0
 17 16  1  0
 19 18  1  0
 19 28  1  0
 19 20  1  0
 21 15  1  0
 21 20  1  0
 22 15  2  0
 23 24  1  0
 25 26  2  0
 26 45  1  0
 27 26  1  0
 27 30  1  0
 28 29  1  0
 28 25  1  0
 29 27  2  0
 30 31  1  0
 31 32  2  0
 33 36  1  0
 33 32  1  0
 34 33  2  0
 35 34  1  0
 35 30  2  0
 36 37  1  0
 37 38  1  0
 38 39  2  0
 40 39  1  0
 40 44  1  0
 41 40  2  0
 42 37  2  0
 42 41  1  0
 43 42  1  0
 45 46  1  0
 46 49  1  0
 46 48  1  0
 47 45  2  0
 50 51  1  0
 50 25  1  0
 52 50  1  0
 53 54  1  0
 54  2  1  0
 56 55  1  0
 57 58  1  0
 57  7  1  0
 59 70  2  0
 60 58  1  0
 60 65  1  0
 61 69  1  0
 61 71  1  0
 62 68  1  0
 62 64  1  0
 63 69  1  0
 64 63  1  0
 65 64  2  0
 66 67  1  0
 66 60  2  0
 67 62  2  0
 68 61  1  0
 69 59  1  0
 71 73  2  0
 72 71  1  0
 74 72  1  0
 75 84  2  0
 75 80  1  0
 76 72  1  0
 76 80  1  0
 77 76  1  0
 78 79  1  0
 78 77  1  0
 79 75  1  0
 80 81  2  0
 81 82  1  0
 83 82  2  0
 84 83  1  0
 85 59  1  0
 85 90  1  0
 85 86  1  0
 86 89  1  1
 86 87  1  0
 88 86  1  0
 90 93  1  0
 91 95  1  0
 91 90  1  0
 92 91  2  0
 95 94  1  0
 97 95  1  0
 97 98  1  0
 97 96  1  0
M  ISO  4  15 100  23 100  57 101  58 101
M  END
>  <TORSDO>  (82) 
F 19

>  <SCORE>  (82) 
-14.290

>  <name>  (82) 
81

>  <ligand_id>  (82) 
81

>  <original_smiles>  (82) 
[H]C1=C(C([H])([H])Oc2c([H])c([H])c3c(c2[H])C([H])([H])N(C(=O)C([H])(N([H])C(=O)C([H])(N([H])C([H])([H])[H])C([H])([H])[H])C(C([H])([H])[H])(C([H])([H])[H])C([H])([H])[H])C([H])(C(=O)N([H])C2([H])c4c([H])c([H])c([H])c([H])c4C([H])([H])C([H])([H])C2([H])[H])C3([H])[H])C([H])(C([H])([H])[H])N(c2nc(OC([H])([H])[H])c(N([H])C(=O)N3C([H])([H])C([H])([H])C([H])([H])C([H])(n4nc(-c5c([H])c([H])c(Oc6c([H])c([H])c(F)c([H])c6F)c([H])c5[H])c(C(=O)N([H])[H])c4N([H])[H])C3([H])[H])c(C([H])([H])C([H])([H])[H])c2[H])C([H])([H])C1=O

>  <smiles>  (82) 
[H]C1=C(C([H])([H])Oc2c([H])c([H])c3c(c2[H])C([H])([H])N(C(=O)C([H])(N([H])C(=O)C([H])(N([H])C([H])([H])[H])C([H])([H])[H])C(C([H])([H])[H])(C([H])([H])[H])C([H])([H])[H])C([H])(C(=O)N([H])C2([H])c4c([H])c([H])c([H])c([H])c4C([H])([H])C([H])([H])C2([H])[H])C3([H])[H])C([H])(C([H])([H])[H])N(c2nc(OC([H])([H])[H])c(N([H])C(=O)N3C([H])([H])C([H])([H])C([H])([H])C([H])(n4nc(-c5c([H])c([H])c(Oc6c([H])c([H])c(F)c([H])c6F)c([H])c5[H])c(C(=O)N([H])[H])c4N([H])[H])C3([H])[H])c(C([H])([H])C([H])([H])[H])c2[H])C([H])([H])C1=O

$$$$
82:0:0
     RDKit          3D

 92100  0  0  1  0  0  0  0  0999 V2000
  -29.4860  -20.5980   21.8320 C   0  0  0  0  0  0  0  0  0  0  0  0
  -29.7230  -20.7480   23.0350 O   0  0  0  0  0  0  0  0  0  0  0  0
  -29.5100  -18.8990   19.8920 C   0  0  0  0  0  3  0  0  0  0  0  0
  -29.8150  -17.5310   19.6340 C   0  0  0  0  0  0  0  0  0  0  0  0
  -29.7510  -19.2970   21.1770 C   0  0  0  0  0  0  0  0  0  0  0  0
  -30.3370  -16.8840   20.7430 C   0  0  0  0  0  0  0  0  0  0  0  0
  -29.5040  -16.9570   18.2820 C   0  0  0  0  0  1  0  0  0  0  0  0
  -30.4260  -17.9850   22.1060 S   0  0  0  0  0  0  0  0  0  0  0  0
  -31.2140  -14.7100   20.0910 C   0  0  0  0  0  0  0  0  0  0  0  0
  -30.8900  -12.5550   18.9320 C   0  0  0  0  0  2  0  0  0  0  0  0
  -29.8830  -12.7470   17.7780 C   0  0  0  0  0  2  0  0  0  0  0  0
  -28.4320  -12.6110   18.2810 C   0  0  0  0  0  2  0  0  0  0  0  0
  -28.1580  -13.4630   19.5500 C   0  0  0  0  0  3  0  0  0  0  0  0
  -29.2580  -13.2100   20.6020 C   0  0  0  0  0  2  0  0  0  0  0  0
  -30.5670  -13.5190   19.9930 N   0  0  0  0  0  0  0  0  0  0  0  0
  -32.2340  -14.9860   19.4480 O   0  0  0  0  0  0  0  0  0  0  0  0
  -30.6400  -15.5740   20.9430 N   0  0  0  0  0  0  0  0  0  0  0  0
  -30.0550  -15.1290   21.6370 H   0  0  0  0  0  0  0  0  0  0  0  0
  -25.8230  -14.1120   20.4240 C   0  0  0  0  0  0  0  0  0  0  0  0
  -24.7560  -13.3550   20.8240 C   0  0  0  0  0  0  0  0  0  0  0  0
  -25.1720  -11.9930   20.7060 C   0  0  0  0  0  0  0  0  0  0  0  0
  -26.8250  -13.2110   20.0910 N   0  0  0  0  0  0  0  0  0  0  0  0
  -26.4400  -11.9300   20.3160 N   0  0  0  0  0  0  0  0  0  0  0  0
  -24.4230  -10.7430   20.8870 C   0  0  0  0  0  0  0  0  0  0  0  0
  -24.7950   -9.7920   21.8630 C   0  0  0  0  0  3  0  0  0  0  0  0
  -24.0470   -8.6070   22.0270 C   0  0  0  0  0  3  0  0  0  0  0  0
  -22.9150   -8.3640   21.2130 C   0  0  0  0  0  0  0  0  0  0  0  0
  -22.5630   -9.3030   20.2290 C   0  0  0  0  0  3  0  0  0  0  0  0
  -23.3130  -10.4790   20.0620 C   0  0  0  0  0  3  0  0  0  0  0  0
  -22.1450   -7.2290   21.2840 O   0  0  0  0  0  0  0  0  0  0  0  0
  -21.8840   -6.6080   22.4800 C   0  0  0  0  0  0  0  0  0  0  0  0
  -21.2240   -7.2740   23.5360 C   0  0  0  0  0  3  0  0  0  0  0  0
  -20.9120   -6.5790   24.7220 C   0  0  0  0  0  3  0  0  0  0  0  0
  -21.2520   -5.2190   24.8520 C   0  0  0  0  0  0  0  0  0  0  0  0
  -21.9040   -4.5530   23.8000 C   0  0  0  0  0  3  0  0  0  0  0  0
  -22.2180   -5.2460   22.6170 C   0  0  0  0  0  0  0  0  0  0  0  0
  -22.8270   -4.5920   21.5990 F   0  0  0  0  0  0  0  0  0  0  0  0
  -20.9470   -4.5490   25.9870 F   0  0  0  0  0  0  0  0  0  0  0  0
  -23.3930  -13.8570   21.2040 C   0  0  0  0  0  0  0  0  0  0  0  0
  -22.7040  -13.1510   22.0940 N   0  0  0  0  0  0  0  0  0  0  0  0
  -22.9500  -14.9110   20.7490 O   0  0  0  0  0  0  0  0  0  0  0  0
  -23.0740  -12.2970   22.4860 H   0  0  0  0  0  0  0  0  0  0  0  0
  -21.7930  -13.4690   22.3870 H   0  0  0  0  0  0  0  0  0  0  0  0
  -26.0180  -15.4860   20.3040 N   0  0  0  0  0  0  0  0  0  0  0  0
  -25.2790  -16.1530   20.5030 H   0  0  0  0  0  0  0  0  0  0  0  0
  -26.8770  -15.9230   19.9960 H   0  0  0  0  0  0  0  0  0  0  0  0
  -28.4780  -22.6130   21.4030 C   0  0  0  0  0  3  0  0  0  0  0  0
  -28.9650  -21.5290   20.9480 N   0  0  0  0  0  0  0  0  0  0  0  0
  -27.9370  -23.6730   20.4670 C   0  0  0  0  0  2  0  0  0  0  0  0
  -28.8040  -24.9450   20.4670 C   0  0  0  0  0  2  0  0  0  0  0  0
  -28.7430  -25.7370   19.1470 C   0  0  0  0  0  2  0  0  0  0  0  0
  -28.5790  -27.1260   19.4190 O   0  0  0  0  0  0  0  0  0  0  0  0
  -24.4940  -31.6300   23.0820 C   0  0  0  0  0  0  0  0  0  0  0  0
  -27.3160  -27.6650   19.5490 C   0  0  0  0  0  0  0  0  0  0  0  0
  -23.3140  -30.2570   21.3940 C   0  0  0  0  0  3  0  0  0  0  0  0
  -24.8060  -28.9490   19.7960 C   0  0  0  0  0  0  0  0  0  0  0  0
  -25.7880  -30.8370   21.1060 C   0  0  0  0  0  2  0  0  0  0  0  0
  -25.9450  -29.5250   20.3670 C   0  0  0  0  0  0  0  0  0  0  0  0
  -27.1990  -28.8910   20.2390 C   0  0  0  0  0  3  0  0  0  0  0  0
  -26.1470  -27.0850   18.9950 C   0  0  0  0  0  3  0  0  0  0  0  0
  -24.8990  -27.7280   19.1110 C   0  0  0  0  0  3  0  0  0  0  0  0
  -23.5050  -29.7010   19.9590 C   0  0  0  0  0  2  0  0  0  0  0  0
  -24.5530  -30.9180   21.9210 N   0  0  0  0  0  0  0  0  0  0  0  0
  -23.4230  -31.7750   23.6900 O   0  0  0  0  0  0  0  0  0  0  0  0
  -22.7940  -29.1210   22.3030 C   0  0  0  0  0  0  0  0  0  0  0  0
  -21.4920  -28.8110   22.1950 N   0  0  0  0  0  0  0  0  0  0  0  0
  -23.5590  -28.5200   23.0610 O   0  0  0  0  0  0  0  0  0  0  0  0
  -20.9230  -29.3600   21.5650 H   0  0  0  0  0  0  0  0  0  0  0  0
  -18.2840  -27.2220   22.6360 C   0  0  0  0  0  0  0  0  0  0  0  0
  -20.7960  -27.7510   22.9220 C   0  0  0  0  0  3  0  0  0  0  0  0
  -21.0570  -26.3650   22.2820 C   0  0  0  0  0  2  0  0  0  0  0  0
  -19.9940  -25.9740   21.2470 C   0  0  0  0  0  2  0  0  0  0  0  0
  -18.6030  -25.9360   21.8880 C   0  0  0  0  0  2  0  0  0  0  0  0
  -19.3110  -28.0820   23.1050 C   0  0  0  0  0  0  0  0  0  0  0  0
  -18.9560  -29.2830   23.7620 C   0  0  0  0  0  3  0  0  0  0  0  0
  -17.6040  -29.6260   23.9490 C   0  0  0  0  0  3  0  0  0  0  0  0
  -16.5910  -28.7630   23.4970 C   0  0  0  0  0  3  0  0  0  0  0  0
  -16.9340  -27.5630   22.8490 C   0  0  0  0  0  3  0  0  0  0  0  0
  -25.7580  -32.3180   23.6870 C   0  0  0  0  0  3  0  0  0  0  0  0
  -25.3830  -33.6890   24.0570 N   0  0  0  0  0  0  0  0  0  0  0  0
  -25.6440  -34.7740   23.3160 C   0  0  0  0  0  0  0  0  0  0  0  0
  -26.3000  -34.7300   22.2730 O   0  0  0  0  0  0  0  0  0  0  0  0
  -24.7940  -33.7930   24.8710 H   0  0  0  0  0  0  0  0  0  0  0  0
  -23.8200  -36.4810   23.0260 C   0  0  0  0  0  1  0  0  0  0  0  0
  -25.0920  -36.1230   23.8120 C   0  0  0  0  0  3  0  0  0  0  0  0
  -27.1830  -37.1040   24.6420 C   0  0  0  0  0  1  0  0  0  0  0  0
  -26.0660  -37.2310   23.7110 N   0  0  0  0  0  0  0  0  0  0  0  0
  -25.6110  -38.1240   23.8790 H   0  0  0  0  0  0  0  0  0  0  0  0
  -26.3480  -31.5460   24.9300 C   0  0  1  0  0  0  0  0  0  0  0  0
  -25.2940  -31.2080   26.0090 C   0  0  0  0  0  1  0  0  0  0  0  0
  -27.0140  -30.2230   24.4850 C   0  0  0  0  0  1  0  0  0  0  0  0
  -27.4560  -32.3970   25.5950 C   0  0  0  0  0  1  0  0  0  0  0  0
  1  2  2  0
  3  5  2  0
  4  3  1  0
  4  6  2  0
  5  1  1  0
  5  8  1  0
  6 17  1  0
  6  8  1  0
  7  4  1  0
  9 17  1  0
 10 15  1  0
 11 12  1  0
 11 10  1  0
 13 12  1  0
 13 22  1  0
 13 14  1  0
 15  9  1  0
 15 14  1  0
 16  9  2  0
 17 18  1  0
 19 20  2  0
 20 39  1  0
 21 20  1  0
 21 24  1  0
 22 23  1  0
 22 19  1  0
 23 21  2  0
 24 25  1  0
 25 26  2  0
 27 30  1  0
 27 26  1  0
 28 27  2  0
 29 28  1  0
 29 24  2  0
 30 31  1  0
 31 36  2  0
 31 32  1  0
 32 33  2  0
 33 34  1  0
 34 38  1  0
 35 34  2  0
 36 35  1  0
 37 36  1  0
 39 40  1  0
 40 43  1  0
 40 42  1  0
 41 39  2  0
 44 19  1  0
 44 45  1  0
 46 44  1  0
 48 47  2  0
 48  1  1  0
 49 47  1  0
 50 49  1  0
 51 52  1  0
 51 50  1  0
 52 54  1  0
 53 64  2  0
 54 59  1  0
 55 63  1  0
 55 65  1  0
 56 62  1  0
 56 58  1  0
 57 63  1  0
 58 57  1  0
 59 58  2  0
 60 61  1  0
 60 54  2  0
 61 56  2  0
 62 55  1  0
 63 53  1  0
 65 67  2  0
 66 65  1  0
 68 66  1  0
 69 78  2  0
 69 74  1  0
 70 66  1  0
 70 74  1  0
 71 70  1  0
 72 73  1  0
 72 71  1  0
 73 69  1  0
 74 75  2  0
 75 76  1  0
 77 76  2  0
 78 77  1  0
 79 53  1  0
 79 80  1  0
 79 89  1  0
 80 83  1  0
 81 85  1  0
 81 80  1  0
 82 81  2  0
 85 84  1  0
 87 85  1  0
 87 88  1  0
 87 86  1  0
 89 92  1  1
 89 90  1  0
 91 89  1  0
M  ISO  4   9 100  17 100  51 101  52 101
M  END
>  <TORSDO>  (83) 
F 21

>  <SCORE>  (83) 
-11.035

>  <name>  (83) 
82

>  <ligand_id>  (83) 
82

>  <original_smiles>  (83) 
[H]C(=NC(=O)c1sc(N([H])C(=O)N2C([H])([H])C([H])([H])C([H])([H])C([H])(n3nc(-c4c([H])c([H])c(Oc5c([H])c([H])c(F)c([H])c5F)c([H])c4[H])c(C(=O)N([H])[H])c3N([H])[H])C2([H])[H])c(C([H])([H])[H])c1[H])C([H])([H])C([H])([H])C([H])([H])Oc1c([H])c([H])c2c(c1[H])C([H])([H])N(C(=O)C([H])(N([H])C(=O)C([H])(N([H])C([H])([H])[H])C([H])([H])[H])C(C([H])([H])[H])(C([H])([H])[H])C([H])([H])[H])C([H])(C(=O)N([H])C1([H])c3c([H])c([H])c([H])c([H])c3C([H])([H])C([H])([H])C1([H])[H])C2([H])[H]

>  <smiles>  (83) 
[H]C(=NC(=O)c1sc(N([H])C(=O)N2C([H])([H])C([H])([H])C([H])([H])C([H])(n3nc(-c4c([H])c([H])c(Oc5c([H])c([H])c(F)c([H])c5F)c([H])c4[H])c(C(=O)N([H])[H])c3N([H])[H])C2([H])[H])c(C([H])([H])[H])c1[H])C([H])([H])C([H])([H])C([H])([H])Oc1c([H])c([H])c2c(c1[H])C([H])([H])N(C(=O)C([H])(N([H])C(=O)C([H])(N([H])C([H])([H])[H])C([H])([H])[H])C(C([H])([H])[H])(C([H])([H])[H])C([H])([H])[H])C([H])(C(=O)N([H])C1([H])c3c([H])c([H])c([H])c([H])c3C([H])([H])C([H])([H])C1([H])[H])C2([H])[H]

$$$$
83:0:0
     RDKit          3D

 94102  0  0  1  0  0  0  0  0999 V2000
  -29.6760  -19.5660   18.6620 C   0  0  0  0  0  3  0  0  0  0  0  0
  -29.6700  -18.4820   20.8370 C   0  0  0  0  0  3  0  0  0  0  0  0
  -29.5640  -19.6830   20.0600 C   0  0  0  0  0  0  0  0  0  0  0  0
  -29.9950  -17.1450   18.8120 C   0  0  0  0  0  0  0  0  0  0  0  0
  -29.8880  -18.3300   18.0410 C   0  0  0  0  0  0  0  0  0  0  0  0
  -29.9000  -17.1950   20.2390 C   0  0  0  0  0  0  0  0  0  0  0  0
  -30.1440  -15.8230   18.0800 C   0  0  0  0  0  1  0  0  0  0  0  0
  -30.7230  -14.9230   21.0800 C   0  0  0  0  0  0  0  0  0  0  0  0
  -30.7160  -12.5810   20.2860 C   0  0  0  0  0  2  0  0  0  0  0  0
  -29.9230  -12.4810   18.9640 C   0  0  0  0  0  2  0  0  0  0  0  0
  -28.3970  -12.4160   19.2030 C   0  0  0  0  0  2  0  0  0  0  0  0
  -27.8720  -13.3630   20.3210 C   0  0  0  0  0  3  0  0  0  0  0  0
  -28.8020  -13.3470   21.5540 C   0  0  0  0  0  2  0  0  0  0  0  0
  -30.1550  -13.6800   21.0900 N   0  0  0  0  0  0  0  0  0  0  0  0
  -31.9330  -15.0820   20.9040 O   0  0  0  0  0  0  0  0  0  0  0  0
  -29.8580  -15.9790   21.0540 N   0  0  0  0  0  0  0  0  0  0  0  0
  -28.9390  -15.7500   21.3990 H   0  0  0  0  0  0  0  0  0  0  0  0
  -25.4000  -13.9130   20.7840 C   0  0  0  0  0  0  0  0  0  0  0  0
  -24.3200  -13.1150   21.0540 C   0  0  0  0  0  0  0  0  0  0  0  0
  -24.8190  -11.7780   21.0990 C   0  0  0  0  0  0  0  0  0  0  0  0
  -26.4860  -13.0570   20.6770 N   0  0  0  0  0  0  0  0  0  0  0  0
  -26.1350  -11.7710   20.9320 N   0  0  0  0  0  0  0  0  0  0  0  0
  -24.1090  -10.4980   21.2330 C   0  0  0  0  0  0  0  0  0  0  0  0
  -24.4630   -9.5580   22.2260 C   0  0  0  0  0  3  0  0  0  0  0  0
  -23.7560   -8.3430   22.3450 C   0  0  0  0  0  3  0  0  0  0  0  0
  -22.6820   -8.0580   21.4700 C   0  0  0  0  0  0  0  0  0  0  0  0
  -22.3480   -8.9860   20.4680 C   0  0  0  0  0  3  0  0  0  0  0  0
  -23.0570  -10.1930   20.3460 C   0  0  0  0  0  3  0  0  0  0  0  0
  -21.9540   -6.8920   21.4960 O   0  0  0  0  0  0  0  0  0  0  0  0
  -21.7850   -6.1770   22.6540 C   0  0  0  0  0  0  0  0  0  0  0  0
  -21.1440   -6.7280   23.7840 C   0  0  0  0  0  3  0  0  0  0  0  0
  -20.9250   -5.9350   24.9280 C   0  0  0  0  0  3  0  0  0  0  0  0
  -21.3420   -4.5890   24.9420 C   0  0  0  0  0  0  0  0  0  0  0  0
  -21.9740   -4.0360   23.8140 C   0  0  0  0  0  3  0  0  0  0  0  0
  -22.1930   -4.8270   22.6720 C   0  0  0  0  0  0  0  0  0  0  0  0
  -22.7830   -4.2820   21.5830 F   0  0  0  0  0  0  0  0  0  0  0  0
  -21.1270   -3.8250   26.0370 F   0  0  0  0  0  0  0  0  0  0  0  0
  -22.8890  -13.5570   21.1660 C   0  0  0  0  0  0  0  0  0  0  0  0
  -22.0910  -12.8600   21.9680 N   0  0  0  0  0  0  0  0  0  0  0  0
  -22.4820  -14.5570   20.5790 O   0  0  0  0  0  0  0  0  0  0  0  0
  -22.4290  -12.0490   22.4650 H   0  0  0  0  0  0  0  0  0  0  0  0
  -21.1290  -13.1440   22.0840 H   0  0  0  0  0  0  0  0  0  0  0  0
  -25.5430  -15.2850   20.5980 N   0  0  0  0  0  0  0  0  0  0  0  0
  -24.7440  -15.9080   20.6060 H   0  0  0  0  0  0  0  0  0  0  0  0
  -26.4020  -15.7490   20.3360 H   0  0  0  0  0  0  0  0  0  0  0  0
  -29.9590  -18.3190   16.6470 N   0  0  0  0  0  0  0  0  0  0  0  0
  -29.5880  -19.1100   16.1300 H   0  0  0  0  0  0  0  0  0  0  0  0
  -29.8140  -17.4390   16.1660 H   0  0  0  0  0  0  0  0  0  0  0  0
  -29.3290  -21.0600   20.6110 C   0  0  0  0  0  3  0  0  0  0  0  0
  -28.7070  -22.0780   19.9450 C   0  0  0  0  0  3  0  0  0  0  0  0
  -28.5680  -23.5620   20.3590 C   0  0  0  0  0  2  0  0  0  0  0  0
  -28.5420  -24.4920   19.1300 C   0  0  0  0  0  3  0  0  0  0  0  0
  -28.3410  -25.8350   19.0220 C   0  0  0  0  0  3  0  0  0  0  0  0
  -28.1670  -26.7590   20.0340 O   0  0  0  0  0  0  0  0  0  0  0  0
  -24.5380  -31.9560   23.3600 C   0  0  0  0  0  0  0  0  0  0  0  0
  -27.0500  -27.5860   20.0220 C   0  0  0  0  0  0  0  0  0  0  0  0
  -23.2830  -30.6440   21.6830 C   0  0  0  0  0  3  0  0  0  0  0  0
  -24.6870  -29.1570   20.1530 C   0  0  0  0  0  0  0  0  0  0  0  0
  -25.8130  -30.9700   21.4530 C   0  0  0  0  0  2  0  0  0  0  0  0
  -25.8670  -29.6260   20.7420 C   0  0  0  0  0  0  0  0  0  0  0  0
  -27.0510  -28.8460   20.6770 C   0  0  0  0  0  3  0  0  0  0  0  0
  -25.8460  -27.1390   19.4340 C   0  0  0  0  0  3  0  0  0  0  0  0
  -24.6720  -27.9160   19.4930 C   0  0  0  0  0  3  0  0  0  0  0  0
  -23.4570  -30.0300   20.2690 C   0  0  0  0  0  2  0  0  0  0  0  0
  -24.5640  -31.2040   22.2230 N   0  0  0  0  0  0  0  0  0  0  0  0
  -23.4710  -32.2160   23.9340 O   0  0  0  0  0  0  0  0  0  0  0  0
  -22.6350  -29.5890   22.6100 C   0  0  0  0  0  0  0  0  0  0  0  0
  -21.3130  -29.4030   22.4780 N   0  0  0  0  0  0  0  0  0  0  0  0
  -23.3230  -28.9430   23.4050 O   0  0  0  0  0  0  0  0  0  0  0  0
  -20.8190  -29.9770   21.8080 H   0  0  0  0  0  0  0  0  0  0  0  0
  -17.9520  -28.1430   22.9130 C   0  0  0  0  0  0  0  0  0  0  0  0
  -20.5010  -28.4360   23.2190 C   0  0  0  0  0  3  0  0  0  0  0  0
  -20.6350  -27.0200   22.6130 C   0  0  0  0  0  2  0  0  0  0  0  0
  -19.5500  -26.7020   21.5790 C   0  0  0  0  0  2  0  0  0  0  0  0
  -18.1580  -26.8120   22.2090 C   0  0  0  0  0  2  0  0  0  0  0  0
  -19.0520  -28.9130   23.3720 C   0  0  0  0  0  0  0  0  0  0  0  0
  -18.8070  -30.1590   23.9870 C   0  0  0  0  0  3  0  0  0  0  0  0
  -17.4920  -30.6370   24.1470 C   0  0  0  0  0  3  0  0  0  0  0  0
  -16.4050  -29.8630   23.7040 C   0  0  0  0  0  3  0  0  0  0  0  0
  -16.6350  -28.6170   23.0930 C   0  0  0  0  0  3  0  0  0  0  0  0
  -25.8450  -32.5450   23.9800 C   0  0  0  0  0  3  0  0  0  0  0  0
  -26.3700  -31.7210   25.2200 C   0  0  1  0  0  0  0  0  0  0  0  0
  -25.2900  -31.4630   26.2950 C   0  0  0  0  0  1  0  0  0  0  0  0
  -26.9240  -30.3500   24.7680 C   0  0  0  0  0  1  0  0  0  0  0  0
  -27.5440  -32.4730   25.8900 C   0  0  0  0  0  1  0  0  0  0  0  0
  -25.5680  -33.9360   24.3610 N   0  0  0  0  0  0  0  0  0  0  0  0
  -25.9550  -35.0090   23.6570 C   0  0  0  0  0  0  0  0  0  0  0  0
  -26.6520  -34.9280   22.6420 O   0  0  0  0  0  0  0  0  0  0  0  0
  -24.9540  -34.0760   25.1500 H   0  0  0  0  0  0  0  0  0  0  0  0
  -24.3250  -36.8900   23.2980 C   0  0  0  0  0  1  0  0  0  0  0  0
  -25.4940  -36.3900   24.1600 C   0  0  0  0  0  3  0  0  0  0  0  0
  -27.6020  -37.1400   25.1730 C   0  0  0  0  0  1  0  0  0  0  0  0
  -26.5720  -37.4020   24.1720 N   0  0  0  0  0  0  0  0  0  0  0  0
  -26.1920  -38.3300   24.3440 H   0  0  0  0  0  0  0  0  0  0  0  0
  1  3  1  0
  3 49  1  0
  3  2  2  0
  4  6  2  0
  5  1  2  0
  5  4  1  0
  6  2  1  0
  6 16  1  0
  7  4  1  0
  8 14  1  0
  9 14  1  0
 10 11  1  0
 10  9  1  0
 12 11  1  0
 12 21  1  0
 12 13  1  0
 14 13  1  0
 15  8  2  0
 16  8  1  0
 16 17  1  0
 18 19  2  0
 19 20  1  0
 19 38  1  0
 20 23  1  0
 21 18  1  0
 21 22  1  0
 22 20  2  0
 23 24  1  0
 24 25  2  0
 26 29  1  0
 26 25  1  0
 27 26  2  0
 28 27  1  0
 28 23  2  0
 29 30  1  0
 30 35  2  0
 30 31  1  0
 31 32  2  0
 32 33  1  0
 33 37  1  0
 34 33  2  0
 35 34  1  0
 36 35  1  0
 38 39  1  0
 39 42  1  0
 39 41  1  0
 40 38  2  0
 43 44  1  0
 43 18  1  0
 45 43  1  0
 46  5  1  0
 47 46  1  0
 48 46  1  0
 50 51  1  0
 50 49  2  0
 52 51  1  0
 53 52  2  0
 53 54  1  0
 55 66  2  0
 56 54  1  0
 56 61  1  0
 57 65  1  0
 57 67  1  0
 58 64  1  0
 58 60  1  0
 59 65  1  0
 60 59  1  0
 61 60  2  0
 62 63  1  0
 62 56  2  0
 63 58  2  0
 64 57  1  0
 65 55  1  0
 67 69  2  0
 68 67  1  0
 70 68  1  0
 71 80  2  0
 71 76  1  0
 72 68  1  0
 72 76  1  0
 73 72  1  0
 74 75  1  0
 74 73  1  0
 75 71  1  0
 76 77  2  0
 77 78  1  0
 79 78  2  0
 80 79  1  0
 81 55  1  0
 81 86  1  0
 81 82  1  0
 82 85  1  1
 82 83  1  0
 84 82  1  0
 86 89  1  0
 87 91  1  0
 87 86  1  0
 88 87  2  0
 91 90  1  0
 91 93  1  0
 93 94  1  0
 93 92  1  0
M  ISO  4   8 100  16 100  53 101  54 101
M  END
>  <TORSDO>  (84) 
F 20

>  <SCORE>  (84) 
-12.881

>  <name>  (84) 
83

>  <ligand_id>  (84) 
83

>  <original_smiles>  (84) 
[H]C(Oc1c([H])c([H])c2c(c1[H])C([H])([H])N(C(=O)C([H])(N([H])C(=O)C([H])(N([H])C([H])([H])[H])C([H])([H])[H])C(C([H])([H])[H])(C([H])([H])[H])C([H])([H])[H])C([H])(C(=O)N([H])C1([H])c3c([H])c([H])c([H])c([H])c3C([H])([H])C([H])([H])C1([H])[H])C2([H])[H])=C([H])C([H])([H])C([H])=C([H])c1c([H])c(N([H])[H])c(C([H])([H])[H])c(N([H])C(=O)N2C([H])([H])C([H])([H])C([H])([H])C([H])(n3nc(-c4c([H])c([H])c(Oc5c([H])c([H])c(F)c([H])c5F)c([H])c4[H])c(C(=O)N([H])[H])c3N([H])[H])C2([H])[H])c1[H]

>  <smiles>  (84) 
[H]C(Oc1c([H])c([H])c2c(c1[H])C([H])([H])N(C(=O)C([H])(N([H])C(=O)C([H])(N([H])C([H])([H])[H])C([H])([H])[H])C(C([H])([H])[H])(C([H])([H])[H])C([H])([H])[H])C([H])(C(=O)N([H])C1([H])c3c([H])c([H])c([H])c([H])c3C([H])([H])C([H])([H])C1([H])[H])C2([H])[H])=C([H])C([H])([H])C([H])=C([H])c1c([H])c(N([H])[H])c(C([H])([H])[H])c(N([H])C(=O)N2C([H])([H])C([H])([H])C([H])([H])C([H])(n3nc(-c4c([H])c([H])c(Oc5c([H])c([H])c(F)c([H])c5F)c([H])c4[H])c(C(=O)N([H])[H])c3N([H])[H])C2([H])[H])c1[H]

$$$$
84:0:0
     RDKit          3D

 90 98  0  0  1  0  0  0  0  0999 V2000
  -31.0670  -19.3280   19.7390 C   0  0  0  0  0  3  0  0  0  0  0  0
  -31.0800  -17.9110   19.9100 C   0  0  0  0  0  3  0  0  0  0  0  0
  -28.7150  -19.3910   20.1730 C   0  0  0  0  0  3  0  0  0  0  0  0
  -28.7160  -17.9710   20.3600 C   0  0  0  0  0  0  0  0  0  0  0  0
  -29.8920  -20.1200   19.8600 C   0  0  0  0  0  0  0  0  0  0  0  0
  -29.9040  -17.1820   20.2290 C   0  0  0  0  0  0  0  0  0  0  0  0
  -27.3810  -17.3320   20.7150 C   0  0  0  0  0  1  0  0  0  0  0  0
  -30.6260  -14.6720   19.9730 C   0  0  0  0  0  0  0  0  0  0  0  0
  -30.3760  -12.4100   18.9630 C   0  0  0  0  0  2  0  0  0  0  0  0
  -29.3690  -12.5120   17.7950 C   0  0  0  0  0  2  0  0  0  0  0  0
  -27.9200  -12.3570   18.3020 C   0  0  0  0  0  2  0  0  0  0  0  0
  -27.6240  -13.2430   19.5410 C   0  0  0  0  0  3  0  0  0  0  0  0
  -28.7380  -13.1060   20.6040 C   0  0  0  0  0  2  0  0  0  0  0  0
  -30.0160  -13.4430   19.9560 N   0  0  0  0  0  0  0  0  0  0  0  0
  -31.7610  -14.8240   19.5100 O   0  0  0  0  0  0  0  0  0  0  0  0
  -29.8440  -15.7200   20.3940 N   0  0  0  0  0  0  0  0  0  0  0  0
  -28.9870  -15.3970   20.8130 H   0  0  0  0  0  0  0  0  0  0  0  0
  -25.2820  -13.8600   20.4020 C   0  0  0  0  0  0  0  0  0  0  0  0
  -24.2300  -13.0950   20.8240 C   0  0  0  0  0  0  0  0  0  0  0  0
  -24.6700  -11.7390   20.7440 C   0  0  0  0  0  0  0  0  0  0  0  0
  -26.3010  -12.9700   20.0960 N   0  0  0  0  0  0  0  0  0  0  0  0
  -25.9400  -11.6890   20.3610 N   0  0  0  0  0  0  0  0  0  0  0  0
  -23.9380  -10.4830   20.9530 C   0  0  0  0  0  0  0  0  0  0  0  0
  -24.3680   -9.5260   21.8980 C   0  0  0  0  0  3  0  0  0  0  0  0
  -23.6360   -8.3360   22.0950 C   0  0  0  0  0  3  0  0  0  0  0  0
  -22.4600   -8.0940   21.3480 C   0  0  0  0  0  0  0  0  0  0  0  0
  -22.0480   -9.0400   20.3920 C   0  0  0  0  0  3  0  0  0  0  0  0
  -22.7800  -10.2220   20.1930 C   0  0  0  0  0  3  0  0  0  0  0  0
  -21.6990   -6.9550   21.4530 O   0  0  0  0  0  0  0  0  0  0  0  0
  -21.6140   -6.2530   22.6280 C   0  0  0  0  0  0  0  0  0  0  0  0
  -21.1110   -6.8380   23.8110 C   0  0  0  0  0  3  0  0  0  0  0  0
  -20.9760   -6.0600   24.9790 C   0  0  0  0  0  3  0  0  0  0  0  0
  -21.3340   -4.7000   24.9650 C   0  0  0  0  0  0  0  0  0  0  0  0
  -21.8300   -4.1140   23.7860 C   0  0  0  0  0  3  0  0  0  0  0  0
  -21.9670   -4.8880   22.6210 C   0  0  0  0  0  0  0  0  0  0  0  0
  -22.4250   -4.3140   21.4830 F   0  0  0  0  0  0  0  0  0  0  0  0
  -21.1970   -3.9500   26.0830 F   0  0  0  0  0  0  0  0  0  0  0  0
  -22.8570  -13.5870   21.1830 C   0  0  0  0  0  0  0  0  0  0  0  0
  -22.1740  -12.8920   22.0860 N   0  0  0  0  0  0  0  0  0  0  0  0
  -22.4020  -14.6230   20.7000 O   0  0  0  0  0  0  0  0  0  0  0  0
  -22.5560  -12.0540   22.4980 H   0  0  0  0  0  0  0  0  0  0  0  0
  -21.2550  -13.2020   22.3680 H   0  0  0  0  0  0  0  0  0  0  0  0
  -25.4510  -15.2280   20.2250 N   0  0  0  0  0  0  0  0  0  0  0  0
  -24.6830  -15.8780   20.3560 H   0  0  0  0  0  0  0  0  0  0  0  0
  -26.2550  -15.6510   19.7820 H   0  0  0  0  0  0  0  0  0  0  0  0
  -29.0490  -22.4440   19.7520 C   0  0  0  0  0  3  0  0  0  0  0  0
  -30.0000  -21.5530   19.7340 N   0  0  0  0  0  0  0  0  0  0  0  0
  -29.2950  -24.0080   19.7330 C   0  0  0  0  0  3  0  0  0  0  0  0
  -28.0760  -24.9860   19.4300 C   0  0  0  0  0  3  0  0  0  0  0  0
  -28.2630  -26.4510   19.6000 O   0  0  0  0  0  0  0  0  0  0  0  0
  -24.5230  -31.6070   23.0020 C   0  0  0  0  0  0  0  0  0  0  0  0
  -27.1220  -27.2710   19.6290 C   0  0  0  0  0  0  0  0  0  0  0  0
  -23.2920  -30.2700   21.3320 C   0  0  0  0  0  3  0  0  0  0  0  0
  -24.7230  -28.8280   19.7810 C   0  0  0  0  0  0  0  0  0  0  0  0
  -25.8170  -30.6530   21.0810 C   0  0  0  0  0  2  0  0  0  0  0  0
  -25.9020  -29.3120   20.3610 C   0  0  0  0  0  0  0  0  0  0  0  0
  -27.1040  -28.5470   20.2740 C   0  0  0  0  0  3  0  0  0  0  0  0
  -25.9140  -26.8390   19.0320 C   0  0  0  0  0  3  0  0  0  0  0  0
  -24.7300  -27.5970   19.1080 C   0  0  0  0  0  3  0  0  0  0  0  0
  -23.4720  -29.6700   19.9130 C   0  0  0  0  0  2  0  0  0  0  0  0
  -24.5640  -30.8580   21.8620 N   0  0  0  0  0  0  0  0  0  0  0  0
  -23.4530  -31.8340   23.5860 O   0  0  0  0  0  0  0  0  0  0  0  0
  -22.6820  -29.1910   22.2590 C   0  0  0  0  0  0  0  0  0  0  0  0
  -21.3560  -28.9900   22.1640 N   0  0  0  0  0  0  0  0  0  0  0  0
  -23.3980  -28.5410   23.0240 O   0  0  0  0  0  0  0  0  0  0  0  0
  -20.8350  -29.5700   21.5210 H   0  0  0  0  0  0  0  0  0  0  0  0
  -18.0220  -27.6960   22.7020 C   0  0  0  0  0  0  0  0  0  0  0  0
  -20.5810  -27.9980   22.9100 C   0  0  0  0  0  3  0  0  0  0  0  0
  -20.6950  -26.5990   22.2630 C   0  0  0  0  0  2  0  0  0  0  0  0
  -19.5700  -26.3010   21.2660 C   0  0  0  0  0  2  0  0  0  0  0  0
  -18.2050  -26.3860   21.9560 C   0  0  0  0  0  2  0  0  0  0  0  0
  -19.1360  -28.4610   23.1360 C   0  0  0  0  0  0  0  0  0  0  0  0
  -18.9090  -29.6890   23.7950 C   0  0  0  0  0  3  0  0  0  0  0  0
  -17.5990  -30.1530   24.0230 C   0  0  0  0  0  3  0  0  0  0  0  0
  -16.4990  -29.3850   23.6040 C   0  0  0  0  0  3  0  0  0  0  0  0
  -16.7110  -28.1570   22.9500 C   0  0  0  0  0  3  0  0  0  0  0  0
  -25.8130  -32.2340   23.6150 C   0  0  0  0  0  3  0  0  0  0  0  0
  -26.3830  -31.4130   24.8360 C   0  0  1  0  0  0  0  0  0  0  0  0
  -25.3320  -31.1190   25.9310 C   0  0  0  0  0  1  0  0  0  0  0  0
  -26.9620  -30.0600   24.3630 C   0  0  0  0  0  1  0  0  0  0  0  0
  -27.5510  -32.1880   25.4900 C   0  0  0  0  0  1  0  0  0  0  0  0
  -25.4900  -33.6090   24.0210 N   0  0  0  0  0  0  0  0  0  0  0  0
  -25.7940  -34.7040   23.3130 C   0  0  0  0  0  0  0  0  0  0  0  0
  -26.4460  -34.6640   22.2660 O   0  0  0  0  0  0  0  0  0  0  0  0
  -24.9090  -33.7130   24.8410 H   0  0  0  0  0  0  0  0  0  0  0  0
  -24.0450  -36.4950   23.0710 C   0  0  0  0  0  1  0  0  0  0  0  0
  -25.2960  -36.0600   23.8500 C   0  0  0  0  0  3  0  0  0  0  0  0
  -27.4210  -36.9290   24.7230 C   0  0  0  0  0  1  0  0  0  0  0  0
  -26.3170  -37.1290   23.7870 N   0  0  0  0  0  0  0  0  0  0  0  0
  -25.9000  -38.0360   23.9770 H   0  0  0  0  0  0  0  0  0  0  0  0
  1  5  2  0
  1  2  1  0
  2  6  2  0
  3  4  2  0
  4  7  1  0
  5  3  1  0
  6  4  1  0
  6 16  1  0
  8 16  1  0
  9 14  1  0
 10 11  1  0
 10  9  1  0
 12 11  1  0
 12 21  1  0
 12 13  1  0
 14  8  1  0
 14 13  1  0
 15  8  2  0
 16 17  1  0
 18 19  2  0
 19 38  1  0
 20 19  1  0
 20 23  1  0
 21 22  1  0
 21 18  1  0
 22 20  2  0
 23 24  1  0
 24 25  2  0
 26 29  1  0
 26 25  1  0
 27 26  2  0
 28 27  1  0
 28 23  2  0
 29 30  1  0
 30 31  1  0
 31 32  2  0
 33 32  1  0
 33 37  1  0
 34 33  2  0
 35 30  2  0
 35 34  1  0
 36 35  1  0
 38 39  1  0
 39 42  1  0
 39 41  1  0
 40 38  2  0
 43 44  1  0
 43 18  1  0
 45 43  1  0
 47 46  2  0
 47  5  1  0
 48 46  1  0
 49 50  1  0
 49 48  2  0
 50 52  1  0
 51 62  2  0
 52 57  1  0
 53 61  1  0
 53 63  1  0
 54 60  1  0
 54 56  1  0
 55 61  1  0
 56 55  1  0
 57 56  2  0
 58 59  1  0
 58 52  2  0
 59 54  2  0
 60 53  1  0
 61 51  1  0
 63 65  2  0
 64 63  1  0
 66 64  1  0
 67 76  2  0
 67 72  1  0
 68 64  1  0
 68 72  1  0
 69 68  1  0
 70 71  1  0
 70 69  1  0
 71 67  1  0
 72 73  2  0
 73 74  1  0
 75 74  2  0
 76 75  1  0
 77 51  1  0
 77 82  1  0
 77 78  1  0
 78 81  1  1
 78 79  1  0
 80 78  1  0
 82 85  1  0
 83 87  1  0
 83 82  1  0
 84 83  2  0
 87 86  1  0
 89 87  1  0
 89 90  1  0
 89 88  1  0
M  ISO  4   8 100  16 100  49 101  50 101
M  END
>  <TORSDO>  (85) 
F 19

>  <SCORE>  (85) 
-13.278

>  <name>  (85) 
84

>  <ligand_id>  (85) 
84

>  <original_smiles>  (85) 
[H]C(=Nc1c([H])c([H])c(N([H])C(=O)N2C([H])([H])C([H])([H])C([H])([H])C([H])(n3nc(-c4c([H])c([H])c(Oc5c([H])c([H])c(F)c([H])c5F)c([H])c4[H])c(C(=O)N([H])[H])c3N([H])[H])C2([H])[H])c(C([H])([H])[H])c1[H])C([H])([H])C([H])([H])Oc1c([H])c([H])c2c(c1[H])C([H])([H])N(C(=O)C([H])(N([H])C(=O)C([H])(N([H])C([H])([H])[H])C([H])([H])[H])C(C([H])([H])[H])(C([H])([H])[H])C([H])([H])[H])C([H])(C(=O)N([H])C1([H])c3c([H])c([H])c([H])c([H])c3C([H])([H])C([H])([H])C1([H])[H])C2([H])[H]

>  <smiles>  (85) 
[H]C(=Nc1c([H])c([H])c(N([H])C(=O)N2C([H])([H])C([H])([H])C([H])([H])C([H])(n3nc(-c4c([H])c([H])c(Oc5c([H])c([H])c(F)c([H])c5F)c([H])c4[H])c(C(=O)N([H])[H])c3N([H])[H])C2([H])[H])c(C([H])([H])[H])c1[H])C([H])([H])C([H])([H])Oc1c([H])c([H])c2c(c1[H])C([H])([H])N(C(=O)C([H])(N([H])C(=O)C([H])(N([H])C([H])([H])[H])C([H])([H])[H])C(C([H])([H])[H])(C([H])([H])[H])C([H])([H])[H])C([H])(C(=O)N([H])C1([H])c3c([H])c([H])c([H])c([H])c3C([H])([H])C([H])([H])C1([H])[H])C2([H])[H]

$$$$
85:0:0
     RDKit          3D

 89 97  0  0  1  0  0  0  0  0999 V2000
  -29.3500  -22.7110   20.2920 C   0  0  0  0  0  3  0  0  0  0  0  0
  -30.1150  -21.8790   19.6640 N   0  0  0  0  0  0  0  0  0  0  0  0
  -30.6080  -18.2020   19.2600 C   0  0  0  0  0  3  0  0  0  0  0  0
  -30.6030  -19.5850   18.8540 C   0  0  0  0  0  3  0  0  0  0  0  0
  -30.1210  -18.0060   20.5250 C   0  0  0  0  0  0  0  0  0  0  0  0
  -30.1110  -20.4820   19.7790 C   0  0  0  0  0  0  0  0  0  0  0  0
  -29.6090  -19.5640   21.2020 S   0  0  0  0  0  0  0  0  0  0  0  0
  -29.9860  -16.7980   21.3310 C   0  0  0  0  0  3  0  0  0  0  0  0
  -30.1860  -15.4440   21.2840 C   0  0  0  0  0  3  0  0  0  0  0  0
  -30.7230  -14.5650   20.2280 C   0  0  0  0  0  0  0  0  0  0  0  0
  -30.3800  -12.4500   18.9480 C   0  0  0  0  0  2  0  0  0  0  0  0
  -29.3740  -12.6740   17.8000 C   0  0  0  0  0  2  0  0  0  0  0  0
  -27.9230  -12.5100   18.2910 C   0  0  0  0  0  2  0  0  0  0  0  0
  -27.6500  -13.3000   19.5980 C   0  0  0  0  0  3  0  0  0  0  0  0
  -28.7500  -13.0140   20.6410 C   0  0  0  0  0  2  0  0  0  0  0  0
  -30.0500  -13.3830   20.0440 N   0  0  0  0  0  0  0  0  0  0  0  0
  -31.7440  -14.8270   19.5850 O   0  0  0  0  0  0  0  0  0  0  0  0
  -25.2880  -13.9100   20.4160 C   0  0  0  0  0  0  0  0  0  0  0  0
  -24.2310  -13.1390   20.8200 C   0  0  0  0  0  0  0  0  0  0  0  0
  -24.6820  -11.7850   20.7520 C   0  0  0  0  0  0  0  0  0  0  0  0
  -26.3150  -13.0250   20.1280 N   0  0  0  0  0  0  0  0  0  0  0  0
  -25.9570  -11.7410   20.3860 N   0  0  0  0  0  0  0  0  0  0  0  0
  -23.9570  -10.5250   20.9590 C   0  0  0  0  0  0  0  0  0  0  0  0
  -24.4090   -9.5550   21.8810 C   0  0  0  0  0  3  0  0  0  0  0  0
  -23.6840   -8.3580   22.0730 C   0  0  0  0  0  3  0  0  0  0  0  0
  -22.4950   -8.1240   21.3450 C   0  0  0  0  0  0  0  0  0  0  0  0
  -22.0620   -9.0820   20.4110 C   0  0  0  0  0  3  0  0  0  0  0  0
  -22.7870  -10.2700   20.2160 C   0  0  0  0  0  3  0  0  0  0  0  0
  -21.7410   -6.9790   21.4470 O   0  0  0  0  0  0  0  0  0  0  0  0
  -21.6940   -6.2500   22.6080 C   0  0  0  0  0  0  0  0  0  0  0  0
  -21.2780   -6.8210   23.8300 C   0  0  0  0  0  3  0  0  0  0  0  0
  -21.1780   -6.0180   24.9830 C   0  0  0  0  0  3  0  0  0  0  0  0
  -21.4840   -4.6450   24.9170 C   0  0  0  0  0  0  0  0  0  0  0  0
  -21.8950   -4.0740   23.6990 C   0  0  0  0  0  3  0  0  0  0  0  0
  -21.9960   -4.8750   22.5470 C   0  0  0  0  0  0  0  0  0  0  0  0
  -22.3720   -4.3150   21.3710 F   0  0  0  0  0  0  0  0  0  0  0  0
  -21.3810   -3.8720   26.0220 F   0  0  0  0  0  0  0  0  0  0  0  0
  -22.8500  -13.6210   21.1590 C   0  0  0  0  0  0  0  0  0  0  0  0
  -22.1560  -12.9170   22.0480 N   0  0  0  0  0  0  0  0  0  0  0  0
  -22.3950  -14.6550   20.6730 O   0  0  0  0  0  0  0  0  0  0  0  0
  -22.5370  -12.0790   22.4630 H   0  0  0  0  0  0  0  0  0  0  0  0
  -21.2310  -13.2220   22.3180 H   0  0  0  0  0  0  0  0  0  0  0  0
  -25.4540  -15.2820   20.2500 N   0  0  0  0  0  0  0  0  0  0  0  0
  -24.7050  -15.9450   20.4100 H   0  0  0  0  0  0  0  0  0  0  0  0
  -26.3080  -15.7180   19.9240 H   0  0  0  0  0  0  0  0  0  0  0  0
  -30.6310  -24.7190   19.2890 C   0  0  0  0  0  1  0  0  0  0  0  0
  -29.5230  -24.2750   20.2660 C   0  0  0  0  0  3  0  0  0  0  0  0
  -28.2180  -25.1190   20.0120 C   0  0  0  0  0  2  0  0  0  0  0  0
  -28.3590  -26.5700   20.1890 O   0  0  0  0  0  0  0  0  0  0  0  0
  -24.5740  -31.8610   23.2400 C   0  0  0  0  0  0  0  0  0  0  0  0
  -27.2060  -27.3580   20.1580 C   0  0  0  0  0  0  0  0  0  0  0  0
  -23.3720  -30.4660   21.5950 C   0  0  0  0  0  3  0  0  0  0  0  0
  -24.8230  -28.9260   20.1660 C   0  0  0  0  0  0  0  0  0  0  0  0
  -25.9060  -30.8040   21.4070 C   0  0  0  0  0  2  0  0  0  0  0  0
  -25.9890  -29.4300   20.7570 C   0  0  0  0  0  0  0  0  0  0  0  0
  -27.1830  -28.6580   20.7430 C   0  0  0  0  0  3  0  0  0  0  0  0
  -26.0140  -26.8920   19.5570 C   0  0  0  0  0  3  0  0  0  0  0  0
  -24.8350  -27.6610   19.5610 C   0  0  0  0  0  3  0  0  0  0  0  0
  -23.5840  -29.7930   20.2140 C   0  0  0  0  0  2  0  0  0  0  0  0
  -24.6360  -31.0600   22.1380 N   0  0  0  0  0  0  0  0  0  0  0  0
  -23.4910  -32.1350   23.7770 O   0  0  0  0  0  0  0  0  0  0  0  0
  -22.7130  -29.4440   22.5530 C   0  0  0  0  0  0  0  0  0  0  0  0
  -21.3890  -29.2610   22.4200 N   0  0  0  0  0  0  0  0  0  0  0  0
  -23.3930  -28.8180   23.3710 O   0  0  0  0  0  0  0  0  0  0  0  0
  -20.9020  -29.8180   21.7320 H   0  0  0  0  0  0  0  0  0  0  0  0
  -18.0140  -28.0580   22.9040 C   0  0  0  0  0  0  0  0  0  0  0  0
  -20.5700  -28.3210   23.1860 C   0  0  0  0  0  3  0  0  0  0  0  0
  -20.6770  -26.8900   22.6090 C   0  0  0  0  0  2  0  0  0  0  0  0
  -19.5800  -26.5670   21.5910 C   0  0  0  0  0  2  0  0  0  0  0  0
  -18.1960  -26.7090   22.2290 C   0  0  0  0  0  2  0  0  0  0  0  0
  -19.1290  -28.8220   23.3390 C   0  0  0  0  0  0  0  0  0  0  0  0
  -18.9060  -30.0840   23.9310 C   0  0  0  0  0  3  0  0  0  0  0  0
  -17.5990  -30.5840   24.0900 C   0  0  0  0  0  3  0  0  0  0  0  0
  -16.4980  -29.8170   23.6710 C   0  0  0  0  0  3  0  0  0  0  0  0
  -16.7060  -28.5550   23.0840 C   0  0  0  0  0  3  0  0  0  0  0  0
  -25.8580  -32.4920   23.8640 C   0  0  0  0  0  3  0  0  0  0  0  0
  -26.3730  -31.7180   25.1390 C   0  0  1  0  0  0  0  0  0  0  0  0
  -25.2790  -31.4780   26.2060 C   0  0  0  0  0  1  0  0  0  0  0  0
  -26.9560  -30.3420   24.7450 C   0  0  0  0  0  1  0  0  0  0  0  0
  -27.5230  -32.5100   25.8040 C   0  0  0  0  0  1  0  0  0  0  0  0
  -25.5480  -33.8900   24.1960 N   0  0  0  0  0  0  0  0  0  0  0  0
  -25.8810  -34.9430   23.4390 C   0  0  0  0  0  0  0  0  0  0  0  0
  -26.5510  -34.8400   22.4070 O   0  0  0  0  0  0  0  0  0  0  0  0
  -24.9520  -34.0420   24.9960 H   0  0  0  0  0  0  0  0  0  0  0  0
  -24.1540  -36.7360   23.0860 C   0  0  0  0  0  1  0  0  0  0  0  0
  -25.3930  -36.3310   23.8970 C   0  0  0  0  0  3  0  0  0  0  0  0
  -27.5270  -37.2140   24.7320 C   0  0  0  0  0  1  0  0  0  0  0  0
  -26.4260  -37.3840   23.7880 N   0  0  0  0  0  0  0  0  0  0  0  0
  -26.0210  -38.3030   23.9350 H   0  0  0  0  0  0  0  0  0  0  0  0
  2  6  1  0
  2  1  2  0
  3  5  2  0
  4  3  1  0
  4  6  2  0
  5  7  1  0
  5  8  1  0
  6  7  1  0
  9  8  2  0
 10  9  1  0
 11 16  1  0
 12 13  1  0
 12 11  1  0
 14 13  1  0
 14 21  1  0
 14 15  1  0
 16 10  1  0
 16 15  1  0
 17 10  2  0
 18 19  2  0
 19 38  1  0
 20 19  1  0
 20 23  1  0
 21 22  1  0
 21 18  1  0
 22 20  2  0
 23 24  1  0
 24 25  2  0
 26 29  1  0
 26 25  1  0
 27 26  2  0
 28 27  1  0
 28 23  2  0
 29 30  1  0
 30 31  1  0
 31 32  2  0
 33 32  1  0
 33 37  1  0
 34 33  2  0
 35 30  2  0
 35 34  1  0
 36 35  1  0
 38 39  1  0
 39 42  1  0
 39 41  1  0
 40 38  2  0
 43 44  1  0
 43 18  1  0
 45 43  1  0
 47 46  1  0
 47  1  1  0
 48 49  1  0
 48 47  1  0
 50 61  2  0
 51 49  1  0
 51 56  1  0
 52 60  1  0
 52 62  1  0
 53 59  1  0
 53 55  1  0
 54 60  1  0
 55 54  1  0
 56 55  2  0
 57 58  1  0
 57 51  2  0
 58 53  2  0
 59 52  1  0
 60 50  1  0
 62 64  2  0
 63 62  1  0
 65 63  1  0
 66 75  2  0
 66 71  1  0
 67 63  1  0
 67 71  1  0
 68 67  1  0
 69 70  1  0
 69 68  1  0
 70 66  1  0
 71 72  2  0
 72 73  1  0
 74 73  2  0
 75 74  1  0
 76 50  1  0
 76 81  1  0
 76 77  1  0
 77 80  1  1
 77 78  1  0
 79 77  1  0
 81 84  1  0
 82 86  1  0
 82 81  1  0
 83 82  2  0
 86 85  1  0
 88 86  1  0
 88 89  1  0
 88 87  1  0
M  ISO  4   9 100  10 100  48 101  49 101
M  END
>  <TORSDO>  (86) 
F 20

>  <SCORE>  (86) 
-13.606

>  <name>  (86) 
85

>  <ligand_id>  (86) 
85

>  <original_smiles>  (86) 
[H]C(=Nc1sc(C([H])=C([H])C(=O)N2C([H])([H])C([H])([H])C([H])([H])C([H])(n3nc(-c4c([H])c([H])c(Oc5c([H])c([H])c(F)c([H])c5F)c([H])c4[H])c(C(=O)N([H])[H])c3N([H])[H])C2([H])[H])c([H])c1[H])C([H])(C([H])([H])[H])C([H])([H])Oc1c([H])c([H])c2c(c1[H])C([H])([H])N(C(=O)C([H])(N([H])C(=O)C([H])(N([H])C([H])([H])[H])C([H])([H])[H])C(C([H])([H])[H])(C([H])([H])[H])C([H])([H])[H])C([H])(C(=O)N([H])C1([H])c3c([H])c([H])c([H])c([H])c3C([H])([H])C([H])([H])C1([H])[H])C2([H])[H]

>  <smiles>  (86) 
[H]C(=Nc1sc(C([H])=C([H])C(=O)N2C([H])([H])C([H])([H])C([H])([H])C([H])(n3nc(-c4c([H])c([H])c(Oc5c([H])c([H])c(F)c([H])c5F)c([H])c4[H])c(C(=O)N([H])[H])c3N([H])[H])C2([H])[H])c([H])c1[H])C([H])(C([H])([H])[H])C([H])([H])Oc1c([H])c([H])c2c(c1[H])C([H])([H])N(C(=O)C([H])(N([H])C(=O)C([H])(N([H])C([H])([H])[H])C([H])([H])[H])C(C([H])([H])[H])(C([H])([H])[H])C([H])([H])[H])C([H])(C(=O)N([H])C1([H])c3c([H])c([H])c([H])c([H])c3C([H])([H])C([H])([H])C1([H])[H])C2([H])[H]

$$$$
86:0:0
     RDKit          3D

 99108  0  0  1  0  0  0  0  0999 V2000
  -30.4050  -19.2850   19.8290 C   0  0  0  0  0  3  0  0  0  0  0  0
  -28.6160  -17.1650   20.1820 C   0  0  0  0  0  3  0  0  0  0  0  0
  -30.9020  -17.9630   19.9490 C   0  0  0  0  0  0  0  0  0  0  0  0
  -30.0010  -16.8710   20.1820 C   0  0  0  0  0  0  0  0  0  0  0  0
  -28.1350  -18.4810   20.0300 C   0  0  0  0  0  0  0  0  0  0  0  0
  -29.0220  -19.5620   19.8930 C   0  0  0  0  0  0  0  0  0  0  0  0
  -31.0120  -14.5150   19.8250 C   0  0  0  0  0  0  0  0  0  0  0  0
  -30.7780  -12.2310   18.9090 C   0  0  0  0  0  2  0  0  0  0  0  0
  -29.7560  -12.2540   17.7520 C   0  0  0  0  0  2  0  0  0  0  0  0
  -28.3120  -12.1260   18.2800 C   0  0  0  0  0  2  0  0  0  0  0  0
  -28.0200  -13.0990   19.4550 C   0  0  0  0  0  3  0  0  0  0  0  0
  -29.1290  -12.9910   20.5210 C   0  0  0  0  0  2  0  0  0  0  0  0
  -30.4140  -13.2910   19.8610 N   0  0  0  0  0  0  0  0  0  0  0  0
  -32.1080  -14.6930   19.2920 O   0  0  0  0  0  0  0  0  0  0  0  0
  -30.2760  -15.4770   20.4210 N   0  0  0  0  0  0  0  0  0  0  0  0
  -29.5870  -15.0560   21.0230 H   0  0  0  0  0  0  0  0  0  0  0  0
  -25.7270  -13.7900   20.3940 C   0  0  0  0  0  0  0  0  0  0  0  0
  -24.6550  -13.0550   20.8280 C   0  0  0  0  0  0  0  0  0  0  0  0
  -25.0410  -11.6870   20.7030 C   0  0  0  0  0  0  0  0  0  0  0  0
  -26.6990  -12.8700   20.0370 N   0  0  0  0  0  0  0  0  0  0  0  0
  -26.2950  -11.5970   20.2780 N   0  0  0  0  0  0  0  0  0  0  0  0
  -24.2740  -10.4540   20.9070 C   0  0  0  0  0  0  0  0  0  0  0  0
  -24.6760   -9.4800   21.8460 C   0  0  0  0  0  3  0  0  0  0  0  0
  -23.9080   -8.3100   22.0370 C   0  0  0  0  0  3  0  0  0  0  0  0
  -22.7250   -8.1090   21.2890 C   0  0  0  0  0  0  0  0  0  0  0  0
  -22.3400   -9.0740   20.3410 C   0  0  0  0  0  3  0  0  0  0  0  0
  -23.1070  -10.2350   20.1490 C   0  0  0  0  0  3  0  0  0  0  0  0
  -21.9280   -6.9930   21.3940 O   0  0  0  0  0  0  0  0  0  0  0  0
  -21.7780   -6.3200   22.5780 C   0  0  0  0  0  0  0  0  0  0  0  0
  -21.2500   -6.9450   23.7310 C   0  0  0  0  0  3  0  0  0  0  0  0
  -21.0480   -6.1970   24.9060 C   0  0  0  0  0  3  0  0  0  0  0  0
  -21.3650   -4.8250   24.9330 C   0  0  0  0  0  0  0  0  0  0  0  0
  -21.8820   -4.2000   23.7850 C   0  0  0  0  0  3  0  0  0  0  0  0
  -22.0870   -4.9450   22.6110 C   0  0  0  0  0  0  0  0  0  0  0  0
  -22.5670   -4.3300   21.5020 F   0  0  0  0  0  0  0  0  0  0  0  0
  -21.1620   -4.1050   26.0610 F   0  0  0  0  0  0  0  0  0  0  0  0
  -23.3150  -13.5890   21.2420 C   0  0  0  0  0  0  0  0  0  0  0  0
  -22.6450  -12.9160   22.1700 N   0  0  0  0  0  0  0  0  0  0  0  0
  -22.8720  -14.6380   20.7760 O   0  0  0  0  0  0  0  0  0  0  0  0
  -23.0180  -12.0710   22.5760 H   0  0  0  0  0  0  0  0  0  0  0  0
  -21.7450  -13.2540   22.4790 H   0  0  0  0  0  0  0  0  0  0  0  0
  -25.9450  -15.1560   20.2570 N   0  0  0  0  0  0  0  0  0  0  0  0
  -25.2280  -15.8420   20.4650 H   0  0  0  0  0  0  0  0  0  0  0  0
  -26.7990  -15.5660   19.9000 H   0  0  0  0  0  0  0  0  0  0  0  0
  -32.9940  -17.3320   18.7570 C   0  0  0  0  0  3  0  0  0  0  0  0
  -32.3590  -17.8760   19.7960 C   0  0  0  0  0  3  0  0  0  0  0  0
  -34.4910  -17.3790   18.8850 C   0  0  0  0  0  3  0  0  0  0  0  0
  -33.3360  -18.4300   20.8030 C   0  0  0  0  0  3  0  0  0  0  0  0
  -34.7300  -18.1570   20.1960 C   0  0  0  0  0  3  0  0  0  0  0  0
  -26.7660  -18.7440   20.0250 N   0  0  0  0  0  0  0  0  0  0  0  0
  -26.4980  -19.7100   20.1900 H   0  0  0  0  0  0  0  0  0  0  0  0
  -26.1330  -18.0690   20.4370 H   0  0  0  0  0  0  0  0  0  0  0  0
  -28.4410  -20.8090   19.7730 O   0  0  0  0  0  0  0  0  0  0  0  0
  -29.1420  -22.0070   20.1000 C   0  0  0  0  0  2  0  0  0  0  0  0
  -28.4970  -23.1280   19.2570 C   0  0  0  0  0  2  0  0  0  0  0  0
  -28.5060  -24.5340   19.8650 C   0  0  0  0  0  0  0  0  0  0  0  0
  -28.5680  -24.7190   21.0860 O   0  0  0  0  0  0  0  0  0  0  0  0
  -28.4130  -25.7000   18.8690 C   0  0  0  0  0  2  0  0  0  0  0  0
  -28.2610  -26.9550   19.5390 O   0  0  0  0  0  0  0  0  0  0  0  0
  -24.5030  -31.7450   23.1630 C   0  0  0  0  0  0  0  0  0  0  0  0
  -27.0380  -27.5890   19.6270 C   0  0  0  0  0  0  0  0  0  0  0  0
  -23.2350  -30.4860   21.4480 C   0  0  0  0  0  3  0  0  0  0  0  0
  -24.6360  -29.0770   19.8470 C   0  0  0  0  0  0  0  0  0  0  0  0
  -25.7510  -30.8680   21.1910 C   0  0  0  0  0  2  0  0  0  0  0  0
  -25.8100  -29.5540   20.4380 C   0  0  0  0  0  0  0  0  0  0  0  0
  -27.0070  -28.8160   20.3240 C   0  0  0  0  0  3  0  0  0  0  0  0
  -25.8360  -27.1150   19.0430 C   0  0  0  0  0  3  0  0  0  0  0  0
  -24.6430  -27.8570   19.1510 C   0  0  0  0  0  3  0  0  0  0  0  0
  -23.3950  -29.9260   20.0080 C   0  0  0  0  0  2  0  0  0  0  0  0
  -24.5160  -31.0440   21.9930 N   0  0  0  0  0  0  0  0  0  0  0  0
  -23.4420  -31.9740   23.7600 O   0  0  0  0  0  0  0  0  0  0  0  0
  -22.6150  -29.3860   22.3410 C   0  0  0  0  0  0  0  0  0  0  0  0
  -21.2850  -29.2210   22.2490 N   0  0  0  0  0  0  0  0  0  0  0  0
  -23.3270  -28.6880   23.0670 O   0  0  0  0  0  0  0  0  0  0  0  0
  -20.7780  -29.8430   21.6370 H   0  0  0  0  0  0  0  0  0  0  0  0
  -17.9230  -28.0010   22.7550 C   0  0  0  0  0  0  0  0  0  0  0  0
  -20.4900  -28.2260   22.9660 C   0  0  0  0  0  3  0  0  0  0  0  0
  -20.5660  -26.8480   22.2730 C   0  0  0  0  0  2  0  0  0  0  0  0
  -19.4320  -26.6140   21.2710 C   0  0  0  0  0  2  0  0  0  0  0  0
  -18.0700  -26.7100   21.9670 C   0  0  0  0  0  2  0  0  0  0  0  0
  -19.0600  -28.7210   23.2090 C   0  0  0  0  0  0  0  0  0  0  0  0
  -18.8680  -29.9320   23.9080 C   0  0  0  0  0  3  0  0  0  0  0  0
  -17.5740  -30.4240   24.1570 C   0  0  0  0  0  3  0  0  0  0  0  0
  -16.4510  -29.6990   23.7200 C   0  0  0  0  0  3  0  0  0  0  0  0
  -16.6260  -28.4890   23.0240 C   0  0  0  0  0  3  0  0  0  0  0  0
  -25.8160  -32.3180   23.7890 C   0  0  0  0  0  3  0  0  0  0  0  0
  -25.5620  -33.7210   24.1440 N   0  0  0  0  0  0  0  0  0  0  0  0
  -25.9360  -34.7720   23.4010 C   0  0  0  0  0  0  0  0  0  0  0  0
  -26.6020  -34.6590   22.3690 O   0  0  0  0  0  0  0  0  0  0  0  0
  -24.9730  -33.8880   24.9470 H   0  0  0  0  0  0  0  0  0  0  0  0
  -24.2700  -36.6270   23.0750 C   0  0  0  0  0  1  0  0  0  0  0  0
  -25.4970  -36.1690   23.8810 C   0  0  0  0  0  3  0  0  0  0  0  0
  -27.6560  -36.9650   24.7330 C   0  0  0  0  0  1  0  0  0  0  0  0
  -26.5670  -37.1850   23.7850 N   0  0  0  0  0  0  0  0  0  0  0  0
  -26.1930  -38.1160   23.9470 H   0  0  0  0  0  0  0  0  0  0  0  0
  -26.3160  -31.5080   25.0480 C   0  0  1  0  0  0  0  0  0  0  0  0
  -25.2290  -31.3040   26.1290 C   0  0  0  0  0  1  0  0  0  0  0  0
  -26.8350  -30.1130   24.6290 C   0  0  0  0  0  1  0  0  0  0  0  0
  -27.5130  -32.2420   25.7010 C   0  0  0  0  0  1  0  0  0  0  0  0
  1  6  2  0
  1  3  1  0
  2  4  1  0
  3  4  2  0
  4 15  1  0
  5  2  2  0
  6  5  1  0
  7 13  1  0
  7 15  1  0
  8 13  1  0
  9 10  1  0
  9  8  1  0
 11 10  1  0
 11 20  1  0
 11 12  1  0
 13 12  1  0
 14  7  2  0
 15 16  1  0
 17 18  2  0
 18 37  1  0
 19 18  1  0
 19 22  1  0
 20 21  1  0
 20 17  1  0
 21 19  2  0
 22 23  1  0
 23 24  2  0
 25 28  1  0
 25 24  1  0
 26 25  2  0
 27 26  1  0
 27 22  2  0
 28 29  1  0
 29 34  2  0
 29 30  1  0
 30 31  2  0
 31 32  1  0
 32 36  1  0
 33 32  2  0
 34 33  1  0
 35 34  1  0
 37 38  1  0
 38 41  1  0
 38 40  1  0
 39 37  2  0
 42 17  1  0
 42 43  1  0
 44 42  1  0
 45 47  2  0
 45 46  1  0
 46  3  1  0
 46 48  1  0
 47 49  1  0
 49 48  2  0
 50  5  1  0
 50 51  1  0
 50 52  1  0
 53  6  1  0
 53 54  1  0
 55 56  1  0
 55 54  1  0
 56 57  2  0
 58 59  1  0
 58 56  1  0
 59 61  1  0
 60 71  2  0
 61 66  1  0
 62 70  1  0
 62 72  1  0
 63 69  1  0
 63 65  1  0
 64 70  1  0
 65 64  1  0
 66 65  2  0
 67 68  1  0
 67 61  2  0
 68 63  2  0
 69 62  1  0
 70 60  1  0
 72 74  2  0
 73 72  1  0
 75 73  1  0
 76 85  2  0
 76 81  1  0
 77 73  1  0
 77 81  1  0
 78 77  1  0
 79 80  1  0
 79 78  1  0
 80 76  1  0
 81 82  2  0
 82 83  1  0
 84 83  2  0
 85 84  1  0
 86 60  1  0
 86 87  1  0
 86 96  1  0
 87 90  1  0
 88 92  1  0
 88 87  1  0
 89 88  2  0
 92 91  1  0
 94 92  1  0
 94 95  1  0
 94 93  1  0
 96 99  1  1
 96 97  1  0
 98 96  1  0
M  ISO  4   7 100  15 100  58 101  59 101
M  END
>  <TORSDO>  (87) 
F 23

>  <SCORE>  (87) 
-12.419

>  <name>  (87) 
86

>  <ligand_id>  (87) 
86

>  <original_smiles>  (87) 
[H]C1=C(c2c([H])c(OC([H])([H])C([H])([H])C(=O)C([H])([H])Oc3c([H])c([H])c4c(c3[H])C([H])([H])N(C(=O)C([H])(N([H])C(=O)C([H])(N([H])C([H])([H])[H])C([H])([H])[H])C(C([H])([H])[H])(C([H])([H])[H])C([H])([H])[H])C([H])(C(=O)N([H])C3([H])c5c([H])c([H])c([H])c([H])c5C([H])([H])C([H])([H])C3([H])[H])C4([H])[H])c(N([H])[H])c([H])c2N([H])C(=O)N2C([H])([H])C([H])([H])C([H])([H])C([H])(n3nc(-c4c([H])c([H])c(Oc5c([H])c([H])c(F)c([H])c5F)c([H])c4[H])c(C(=O)N([H])[H])c3N([H])[H])C2([H])[H])C([H])([H])C([H])([H])C1([H])[H]

>  <smiles>  (87) 
[H]C1=C(c2c([H])c(OC([H])([H])C([H])([H])C(=O)C([H])([H])Oc3c([H])c([H])c4c(c3[H])C([H])([H])N(C(=O)C([H])(N([H])C(=O)C([H])(N([H])C([H])([H])[H])C([H])([H])[H])C(C([H])([H])[H])(C([H])([H])[H])C([H])([H])[H])C([H])(C(=O)N([H])C3([H])c5c([H])c([H])c([H])c([H])c5C([H])([H])C([H])([H])C3([H])[H])C4([H])[H])c(N([H])[H])c([H])c2N([H])C(=O)N2C([H])([H])C([H])([H])C([H])([H])C([H])(n3nc(-c4c([H])c([H])c(Oc5c([H])c([H])c(F)c([H])c5F)c([H])c4[H])c(C(=O)N([H])[H])c3N([H])[H])C2([H])[H])C([H])([H])C([H])([H])C1([H])[H]

$$$$
87:0:0
     RDKit          3D

 97105  0  0  1  0  0  0  0  0999 V2000
  -30.2750  -18.6800   20.0800 C   0  0  0  0  0  3  0  0  0  0  0  0
  -28.9540  -19.8070   18.3970 C   0  0  0  0  0  3  0  0  0  0  0  0
  -29.6870  -17.3630   19.7880 C   0  0  0  0  0  0  0  0  0  0  0  0
  -28.5680  -17.4230   18.8760 C   0  0  0  0  0  0  0  0  0  0  0  0
  -29.8620  -19.9480   19.4660 C   0  0  0  0  0  0  0  0  0  0  0  0
  -28.3210  -18.5940   18.1000 C   0  0  0  0  0  0  0  0  0  0  0  0
  -27.4030  -18.6340   17.0410 N   0  0  0  0  0  0  0  0  0  0  0  0
  -27.2290  -17.7830   16.5140 H   0  0  0  0  0  0  0  0  0  0  0  0
  -27.3690  -19.4580   16.4490 H   0  0  0  0  0  0  0  0  0  0  0  0
  -29.9420  -16.0190   20.6020 C   0  0  0  0  0  0  0  0  0  0  0  0
  -29.5770  -16.0200   21.8180 N   0  0  0  0  0  0  0  0  0  0  0  0
  -29.1660  -16.9000   22.0970 H   0  0  0  0  0  0  0  0  0  0  0  0
  -30.6700  -14.6600   20.1170 C   0  0  0  0  0  0  0  0  0  0  0  0
  -30.8790  -12.1490   19.9940 C   0  0  0  0  0  2  0  0  0  0  0  0
  -30.0410  -11.5720   18.8290 C   0  0  0  0  0  2  0  0  0  0  0  0
  -28.5740  -11.3570   19.2480 C   0  0  0  0  0  2  0  0  0  0  0  0
  -27.9930  -12.5780   20.0110 C   0  0  0  0  0  3  0  0  0  0  0  0
  -28.9700  -13.0230   21.1220 C   0  0  0  0  0  2  0  0  0  0  0  0
  -30.2290  -13.3960   20.4780 N   0  0  0  0  0  0  0  0  0  0  0  0
  -31.7650  -14.7560   19.5450 O   0  0  0  0  0  0  0  0  0  0  0  0
  -25.6210  -13.1960   20.7800 C   0  0  0  0  0  0  0  0  0  0  0  0
  -24.5560  -12.4360   21.1710 C   0  0  0  0  0  0  0  0  0  0  0  0
  -24.9950  -11.0780   21.1080 C   0  0  0  0  0  0  0  0  0  0  0  0
  -26.6530  -12.3060   20.5240 N   0  0  0  0  0  0  0  0  0  0  0  0
  -26.2780  -11.0240   20.7690 N   0  0  0  0  0  0  0  0  0  0  0  0
  -24.2480   -9.8260   21.2900 C   0  0  0  0  0  0  0  0  0  0  0  0
  -24.6460   -8.8570   22.2380 C   0  0  0  0  0  3  0  0  0  0  0  0
  -23.8960   -7.6730   22.4060 C   0  0  0  0  0  3  0  0  0  0  0  0
  -22.7370   -7.4470   21.6250 C   0  0  0  0  0  0  0  0  0  0  0  0
  -22.3610   -8.4050   20.6670 C   0  0  0  0  0  3  0  0  0  0  0  0
  -23.1090   -9.5800   20.4960 C   0  0  0  0  0  3  0  0  0  0  0  0
  -21.9620   -6.3160   21.7040 O   0  0  0  0  0  0  0  0  0  0  0  0
  -21.8230   -5.6190   22.8780 C   0  0  0  0  0  0  0  0  0  0  0  0
  -21.2160   -6.1920   24.0180 C   0  0  0  0  0  3  0  0  0  0  0  0
  -21.0290   -5.4180   25.1800 C   0  0  0  0  0  3  0  0  0  0  0  0
  -21.4410   -4.0720   25.2050 C   0  0  0  0  0  0  0  0  0  0  0  0
  -22.0400   -3.4990   24.0690 C   0  0  0  0  0  3  0  0  0  0  0  0
  -22.2280   -4.2690   22.9080 C   0  0  0  0  0  0  0  0  0  0  0  0
  -22.7870   -3.7060   21.8100 F   0  0  0  0  0  0  0  0  0  0  0  0
  -21.2540   -3.3260   26.3170 F   0  0  0  0  0  0  0  0  0  0  0  0
  -23.1780  -12.9380   21.4940 C   0  0  0  0  0  0  0  0  0  0  0  0
  -22.4720  -12.2500   22.3830 N   0  0  0  0  0  0  0  0  0  0  0  0
  -22.7400  -13.9730   20.9960 O   0  0  0  0  0  0  0  0  0  0  0  0
  -22.8440  -11.4120   22.8030 H   0  0  0  0  0  0  0  0  0  0  0  0
  -21.5490  -12.5650   22.6470 H   0  0  0  0  0  0  0  0  0  0  0  0
  -25.7890  -14.5640   20.5940 N   0  0  0  0  0  0  0  0  0  0  0  0
  -25.0330  -15.2250   20.7280 H   0  0  0  0  0  0  0  0  0  0  0  0
  -26.6680  -15.0020   20.3540 H   0  0  0  0  0  0  0  0  0  0  0  0
  -29.5690  -22.4160   19.7500 C   0  0  0  0  0  3  0  0  0  0  0  0
  -30.2860  -21.2990   19.8750 N   0  0  0  0  0  0  0  0  0  0  0  0
  -29.8520  -23.9170   20.2620 C   0  0  0  0  0  3  0  0  0  0  0  0
  -28.7880  -25.1070   19.9250 C   0  0  0  0  0  3  0  0  0  0  0  0
  -28.9000  -26.5420   20.4060 O   0  0  0  0  0  0  0  0  0  0  0  0
  -24.6570  -31.6650   23.3930 C   0  0  0  0  0  0  0  0  0  0  0  0
  -27.7630  -27.3910   20.3160 C   0  0  0  0  0  0  0  0  0  0  0  0
  -23.6810  -30.3240   21.5670 C   0  0  0  0  0  3  0  0  0  0  0  0
  -25.3330  -28.9360   20.1920 C   0  0  0  0  0  0  0  0  0  0  0  0
  -26.2110  -30.7590   21.6410 C   0  0  0  0  0  2  0  0  0  0  0  0
  -26.4240  -29.4250   20.9210 C   0  0  0  0  0  0  0  0  0  0  0  0
  -27.6420  -28.6680   20.9690 C   0  0  0  0  0  3  0  0  0  0  0  0
  -26.6410  -26.9770   19.5620 C   0  0  0  0  0  3  0  0  0  0  0  0
  -25.4490  -27.7220   19.5020 C   0  0  0  0  0  3  0  0  0  0  0  0
  -24.0560  -29.7530   20.1760 C   0  0  0  0  0  2  0  0  0  0  0  0
  -24.8630  -30.9300   22.2590 N   0  0  0  0  0  0  0  0  0  0  0  0
  -23.5160  -31.8580   23.8390 O   0  0  0  0  0  0  0  0  0  0  0  0
  -22.9850  -29.2180   22.3970 C   0  0  0  0  0  0  0  0  0  0  0  0
  -21.6670  -29.0450   22.1940 N   0  0  0  0  0  0  0  0  0  0  0  0
  -23.6310  -28.5220   23.1840 O   0  0  0  0  0  0  0  0  0  0  0  0
  -21.2050  -29.6600   21.5370 H   0  0  0  0  0  0  0  0  0  0  0  0
  -18.2660  -27.8470   22.5040 C   0  0  0  0  0  0  0  0  0  0  0  0
  -20.8240  -28.0350   22.8350 C   0  0  0  0  0  3  0  0  0  0  0  0
  -20.9170  -26.6820   22.0920 C   0  0  0  0  0  2  0  0  0  0  0  0
  -19.8250  -26.5020   21.0310 C   0  0  0  0  0  2  0  0  0  0  0  0
  -18.4360  -26.5880   21.6710 C   0  0  0  0  0  2  0  0  0  0  0  0
  -19.3880  -28.5350   23.0380 C   0  0  0  0  0  0  0  0  0  0  0  0
  -19.1770  -29.7180   23.7790 C   0  0  0  0  0  3  0  0  0  0  0  0
  -17.8760  -30.2150   23.9860 C   0  0  0  0  0  3  0  0  0  0  0  0
  -16.7690  -29.5210   23.4690 C   0  0  0  0  0  3  0  0  0  0  0  0
  -16.9640  -28.3380   22.7350 C   0  0  0  0  0  3  0  0  0  0  0  0
  -25.8420  -32.3160   24.1700 C   0  0  0  0  0  3  0  0  0  0  0  0
  -25.4520  -33.6920   24.5110 N   0  0  0  0  0  0  0  0  0  0  0  0
  -25.8150  -34.7800   23.8200 C   0  0  0  0  0  0  0  0  0  0  0  0
  -26.5790  -34.7350   22.8530 O   0  0  0  0  0  0  0  0  0  0  0  0
  -24.7850  -33.8010   25.2610 H   0  0  0  0  0  0  0  0  0  0  0  0
  -24.0400  -36.5070   23.3800 C   0  0  0  0  0  1  0  0  0  0  0  0
  -25.2370  -36.1350   24.2710 C   0  0  0  0  0  3  0  0  0  0  0  0
  -27.2590  -37.0910   25.2840 C   0  0  0  0  0  1  0  0  0  0  0  0
  -26.2280  -37.2330   24.2570 N   0  0  0  0  0  0  0  0  0  0  0  0
  -25.7710  -38.1310   24.3900 H   0  0  0  0  0  0  0  0  0  0  0  0
  -26.2430  -31.5170   25.4700 C   0  0  1  0  0  0  0  0  0  0  0  0
  -25.0490  -31.2110   26.4040 C   0  0  0  0  0  1  0  0  0  0  0  0
  -26.9110  -30.1740   25.1010 C   0  0  0  0  0  1  0  0  0  0  0  0
  -27.2910  -32.3200   26.2780 C   0  0  0  0  0  1  0  0  0  0  0  0
  -27.5000  -16.3610   18.8160 C   0  0  0  0  0  0  0  0  0  0  0  0
  -27.7120  -15.1780   18.5810 O   0  0  0  0  0  0  0  0  0  0  0  0
  -25.5470  -16.9000   20.2100 C   0  0  0  0  0  2  0  0  0  0  0  0
  -26.1210  -16.8430   18.9960 C   0  0  0  0  0  3  0  0  0  0  0  0
  2  5  1  0
  3  1  1  0
  3 10  1  0
  4  3  2  0
  5 50  1  0
  5  1  2  0
  6  2  2  0
  6  4  1  0
  7  6  1  0
  8  7  1  0
  9  7  1  0
 10 11  2  0
 11 12  1  0
 13 19  1  0
 13 10  1  0
 14 19  1  0
 15 16  1  0
 15 14  1  0
 17 16  1  0
 17 24  1  0
 17 18  1  0
 19 18  1  0
 20 13  2  0
 21 22  2  0
 22 41  1  0
 23 22  1  0
 23 26  1  0
 24 25  1  0
 24 21  1  0
 25 23  2  0
 26 27  1  0
 27 28  2  0
 29 32  1  0
 29 28  1  0
 30 29  2  0
 31 30  1  0
 31 26  2  0
 32 33  1  0
 33 38  2  0
 33 34  1  0
 34 35  2  0
 35 36  1  0
 36 40  1  0
 37 36  2  0
 38 37  1  0
 39 38  1  0
 41 42  1  0
 42 45  1  0
 42 44  1  0
 43 41  2  0
 46 47  1  0
 46 21  1  0
 48 46  1  0
 49 50  2  0
 49 51  1  0
 52 51  2  0
 52 53  1  0
 54 65  2  0
 55 53  1  0
 55 60  1  0
 56 64  1  0
 56 66  1  0
 57 59  1  0
 58 64  1  0
 59 60  2  0
 59 58  1  0
 61 55  2  0
 62 61  1  0
 62 57  2  0
 63 57  1  0
 63 56  1  0
 64 54  1  0
 66 68  2  0
 67 66  1  0
 69 67  1  0
 70 79  2  0
 70 75  1  0
 71 67  1  0
 71 75  1  0
 72 71  1  0
 73 74  1  0
 73 72  1  0
 74 70  1  0
 75 76  2  0
 76 77  1  0
 78 77  2  0
 79 78  1  0
 80 54  1  0
 80 81  1  0
 80 90  1  0
 81 84  1  0
 82 86  1  0
 82 81  1  0
 83 82  2  0
 86 85  1  0
 88 86  1  0
 88 89  1  0
 88 87  1  0
 90 93  1  1
 90 91  1  0
 92 90  1  0
 94  4  1  0
 94 97  1  0
 95 94  2  0
 97 96  2  0
M  ISO  4  10 100  13 100  52 101  53 101
M  END
>  <TORSDO>  (88) 
F 23

>  <SCORE>  (88) 
-9.876

>  <name>  (88) 
87

>  <ligand_id>  (88) 
87

>  <original_smiles>  (88) 
[H]N=C(C(=O)N1C([H])([H])C([H])([H])C([H])([H])C([H])(n2nc(-c3c([H])c([H])c(Oc4c([H])c([H])c(F)c([H])c4F)c([H])c3[H])c(C(=O)N([H])[H])c2N([H])[H])C1([H])[H])c1c([H])c(N=C([H])C([H])([H])C([H])([H])Oc2c([H])c([H])c3c(c2[H])C([H])([H])N(C(=O)C([H])(N([H])C(=O)C([H])(N([H])C([H])([H])[H])C([H])([H])[H])C(C([H])([H])[H])(C([H])([H])[H])C([H])([H])[H])C([H])(C(=O)N([H])C2([H])c4c([H])c([H])c([H])c([H])c4C([H])([H])C([H])([H])C2([H])[H])C3([H])[H])c([H])c(N([H])[H])c1C(=O)C([H])=C([H])[H]

>  <smiles>  (88) 
[H]N=C(C(=O)N1C([H])([H])C([H])([H])C([H])([H])C([H])(n2nc(-c3c([H])c([H])c(Oc4c([H])c([H])c(F)c([H])c4F)c([H])c3[H])c(C(=O)N([H])[H])c2N([H])[H])C1([H])[H])c1c([H])c(N=C([H])C([H])([H])C([H])([H])Oc2c([H])c([H])c3c(c2[H])C([H])([H])N(C(=O)C([H])(N([H])C(=O)C([H])(N([H])C([H])([H])[H])C([H])([H])[H])C(C([H])([H])[H])(C([H])([H])[H])C([H])([H])[H])C([H])(C(=O)N([H])C2([H])c4c([H])c([H])c([H])c([H])c4C([H])([H])C([H])([H])C2([H])[H])C3([H])[H])c([H])c(N([H])[H])c1C(=O)C([H])=C([H])[H]

$$$$
88:0:0
     RDKit          3D

 94102  0  0  1  0  0  0  0  0999 V2000
  -29.5090  -18.4950   18.5700 C   0  0  0  0  0  3  0  0  0  0  0  0
  -29.6730  -18.3220   21.3410 C   0  0  0  0  0  3  0  0  0  0  0  0
  -29.7890  -17.2510   19.1640 C   0  0  0  0  0  0  0  0  0  0  0  0
  -29.8820  -17.1280   20.5830 C   0  0  0  0  0  0  0  0  0  0  0  0
  -29.3120  -19.6680   19.3260 C   0  0  0  0  0  0  0  0  0  0  0  0
  -29.3870  -19.5910   20.7410 C   0  0  0  0  0  0  0  0  0  0  0  0
  -30.8480  -14.8150   21.0670 C   0  0  0  0  0  0  0  0  0  0  0  0
  -30.8060  -12.5190   20.1390 C   0  0  0  0  0  2  0  0  0  0  0  0
  -30.0050  -12.5080   18.8170 C   0  0  0  0  0  2  0  0  0  0  0  0
  -28.4750  -12.4820   19.0580 C   0  0  0  0  0  2  0  0  0  0  0  0
  -27.9800  -13.3790   20.2320 C   0  0  0  0  0  3  0  0  0  0  0  0
  -28.9090  -13.2470   21.4580 C   0  0  0  0  0  2  0  0  0  0  0  0
  -30.2720  -13.5780   21.0140 N   0  0  0  0  0  0  0  0  0  0  0  0
  -32.0410  -15.0020   20.8080 O   0  0  0  0  0  0  0  0  0  0  0  0
  -29.9750  -15.8440   21.2590 N   0  0  0  0  0  0  0  0  0  0  0  0
  -29.0990  -15.5250   21.6410 H   0  0  0  0  0  0  0  0  0  0  0  0
  -25.5150  -13.9940   20.6360 C   0  0  0  0  0  0  0  0  0  0  0  0
  -24.4170  -13.2270   20.9120 C   0  0  0  0  0  0  0  0  0  0  0  0
  -24.8880  -11.8810   20.9970 C   0  0  0  0  0  0  0  0  0  0  0  0
  -26.5840  -13.1150   20.5660 N   0  0  0  0  0  0  0  0  0  0  0  0
  -26.2040  -11.8440   20.8440 N   0  0  0  0  0  0  0  0  0  0  0  0
  -24.1550  -10.6190   21.1560 C   0  0  0  0  0  0  0  0  0  0  0  0
  -24.5250   -9.6710   22.1340 C   0  0  0  0  0  3  0  0  0  0  0  0
  -23.7980   -8.4710   22.2790 C   0  0  0  0  0  3  0  0  0  0  0  0
  -22.6830   -8.2140   21.4460 C   0  0  0  0  0  0  0  0  0  0  0  0
  -22.3340   -9.1500   20.4580 C   0  0  0  0  0  3  0  0  0  0  0  0
  -23.0630  -10.3410   20.3100 C   0  0  0  0  0  3  0  0  0  0  0  0
  -21.9300   -7.0670   21.4990 O   0  0  0  0  0  0  0  0  0  0  0  0
  -21.7860   -6.3550   22.6620 C   0  0  0  0  0  0  0  0  0  0  0  0
  -21.1890   -6.9170   23.8110 C   0  0  0  0  0  3  0  0  0  0  0  0
  -20.9970   -6.1280   24.9620 C   0  0  0  0  0  3  0  0  0  0  0  0
  -21.3960   -4.7770   24.9640 C   0  0  0  0  0  0  0  0  0  0  0  0
  -21.9860   -4.2150   23.8180 C   0  0  0  0  0  3  0  0  0  0  0  0
  -22.1760   -5.0020   22.6690 C   0  0  0  0  0  0  0  0  0  0  0  0
  -22.7240   -4.4490   21.5600 F   0  0  0  0  0  0  0  0  0  0  0  0
  -21.2060   -4.0140   26.0660 F   0  0  0  0  0  0  0  0  0  0  0  0
  -22.9940  -13.6980   20.9990 C   0  0  0  0  0  0  0  0  0  0  0  0
  -22.1760  -13.0260   21.8010 N   0  0  0  0  0  0  0  0  0  0  0  0
  -22.6130  -14.6960   20.3890 O   0  0  0  0  0  0  0  0  0  0  0  0
  -22.4940  -12.2160   22.3120 H   0  0  0  0  0  0  0  0  0  0  0  0
  -21.2170  -13.3250   21.8990 H   0  0  0  0  0  0  0  0  0  0  0  0
  -25.6890  -15.3590   20.4190 N   0  0  0  0  0  0  0  0  0  0  0  0
  -24.9130  -16.0120   20.4410 H   0  0  0  0  0  0  0  0  0  0  0  0
  -26.5600  -15.7970   20.1490 H   0  0  0  0  0  0  0  0  0  0  0  0
  -28.9260  -20.9650   17.3110 C   0  0  0  0  0  1  0  0  0  0  0  0
  -29.0700  -20.8840   18.7240 O   0  0  0  0  0  0  0  0  0  0  0  0
  -31.3790  -15.9200   17.7070 C   0  0  0  0  0  1  0  0  0  0  0  0
  -29.9360  -16.1020   18.1870 C   0  0  0  0  0  2  0  0  0  0  0  0
  -29.2280  -20.7040   21.5660 O   0  0  0  0  0  0  0  0  0  0  0  0
  -28.3520  -21.8030   21.1970 C   0  0  0  0  0  3  0  0  0  0  0  0
  -29.0690  -23.1210   20.7450 C   0  0  0  0  0  3  0  0  0  0  0  0
  -28.1690  -24.3970   20.6250 C   0  0  0  0  0  2  0  0  0  0  0  0
  -28.7410  -25.5060   19.6850 C   0  0  0  0  0  2  0  0  0  0  0  0
  -28.5940  -26.8690   20.1340 O   0  0  0  0  0  0  0  0  0  0  0  0
  -24.6760  -31.8070   23.4100 C   0  0  0  0  0  0  0  0  0  0  0  0
  -27.3840  -27.5390   20.1240 C   0  0  0  0  0  0  0  0  0  0  0  0
  -23.4820  -30.4530   21.7180 C   0  0  0  0  0  3  0  0  0  0  0  0
  -24.9530  -29.0050   20.2130 C   0  0  0  0  0  0  0  0  0  0  0  0
  -26.0000  -30.8680   21.5160 C   0  0  0  0  0  2  0  0  0  0  0  0
  -26.1040  -29.5270   20.8140 C   0  0  0  0  0  0  0  0  0  0  0  0
  -27.3180  -28.8030   20.7600 C   0  0  0  0  0  3  0  0  0  0  0  0
  -26.2110  -27.0300   19.5200 C   0  0  0  0  0  3  0  0  0  0  0  0
  -25.0030  -27.7590   19.5610 C   0  0  0  0  0  3  0  0  0  0  0  0
  -23.6930  -29.8360   20.3080 C   0  0  0  0  0  2  0  0  0  0  0  0
  -24.7370  -31.0560   22.2720 N   0  0  0  0  0  0  0  0  0  0  0  0
  -23.5970  -32.0340   23.9720 O   0  0  0  0  0  0  0  0  0  0  0  0
  -22.8600  -29.3800   22.6410 C   0  0  0  0  0  0  0  0  0  0  0  0
  -21.5620  -29.0990   22.4440 N   0  0  0  0  0  0  0  0  0  0  0  0
  -23.5440  -28.8050   23.4910 O   0  0  0  0  0  0  0  0  0  0  0  0
  -21.0690  -29.6190   21.7310 H   0  0  0  0  0  0  0  0  0  0  0  0
  -18.2920  -27.5770   22.6820 C   0  0  0  0  0  0  0  0  0  0  0  0
  -20.7780  -28.0950   23.1630 C   0  0  0  0  0  3  0  0  0  0  0  0
  -21.0720  -26.6740   22.6280 C   0  0  0  0  0  2  0  0  0  0  0  0
  -20.0980  -26.2280   21.5340 C   0  0  0  0  0  2  0  0  0  0  0  0
  -18.6580  -26.2430   22.0540 C   0  0  0  0  0  2  0  0  0  0  0  0
  -19.2880  -28.4540   23.1880 C   0  0  0  0  0  0  0  0  0  0  0  0
  -18.8950  -29.6990   23.7260 C   0  0  0  0  0  3  0  0  0  0  0  0
  -17.5380  -30.0690   23.7690 C   0  0  0  0  0  3  0  0  0  0  0  0
  -16.5550  -29.1890   23.2840 C   0  0  0  0  0  3  0  0  0  0  0  0
  -16.9320  -27.9470   22.7450 C   0  0  0  0  0  3  0  0  0  0  0  0
  -25.9560  -32.4350   24.0450 C   0  0  0  0  0  3  0  0  0  0  0  0
  -25.6590  -33.8440   24.3370 N   0  0  0  0  0  0  0  0  0  0  0  0
  -25.9760  -34.8710   23.5380 C   0  0  0  0  0  0  0  0  0  0  0  0
  -26.6200  -34.7340   22.4940 O   0  0  0  0  0  0  0  0  0  0  0  0
  -25.0880  -34.0270   25.1490 H   0  0  0  0  0  0  0  0  0  0  0  0
  -24.2150  -36.6360   23.2020 C   0  0  0  0  0  1  0  0  0  0  0  0
  -25.5000  -36.2740   23.9630 C   0  0  0  0  0  3  0  0  0  0  0  0
  -27.6570  -37.2210   24.6580 C   0  0  0  0  0  1  0  0  0  0  0  0
  -26.5160  -37.3280   23.7520 N   0  0  0  0  0  0  0  0  0  0  0  0
  -26.1070  -38.2510   23.8610 H   0  0  0  0  0  0  0  0  0  0  0  0
  -26.4370  -31.6850   25.3480 C   0  0  1  0  0  0  0  0  0  0  0  0
  -25.3100  -31.4370   26.3760 C   0  0  0  0  0  1  0  0  0  0  0  0
  -27.0660  -30.3160   24.9940 C   0  0  0  0  0  1  0  0  0  0  0  0
  -27.5400  -32.5130   26.0510 C   0  0  0  0  0  1  0  0  0  0  0  0
  1  3  2  0
  1  5  1  0
  3  4  1  0
  4 15  1  0
  4  2  2  0
  5  6  2  0
  6  2  1  0
  6 49  1  0
  7 15  1  0
  8 13  1  0
  9 10  1  0
  9  8  1  0
 11 10  1  0
 11 20  1  0
 11 12  1  0
 13  7  1  0
 13 12  1  0
 14  7  2  0
 15 16  1  0
 17 18  2  0
 18 19  1  0
 18 37  1  0
 19 22  1  0
 20 17  1  0
 20 21  1  0
 21 19  2  0
 22 23  1  0
 23 24  2  0
 25 28  1  0
 25 24  1  0
 26 25  2  0
 27 26  1  0
 27 22  2  0
 28 29  1  0
 29 34  2  0
 29 30  1  0
 30 31  2  0
 31 32  1  0
 32 36  1  0
 33 32  2  0
 34 33  1  0
 35 34  1  0
 37 38  1  0
 38 41  1  0
 38 40  1  0
 39 37  2  0
 42 43  1  0
 42 17  1  0
 44 42  1  0
 45 46  1  0
 46  5  1  0
 47 48  1  0
 48  3  1  0
 50 49  1  0
 51 50  2  0
 52 51  1  0
 53 54  1  0
 53 52  1  0
 55 66  2  0
 56 54  1  0
 56 61  1  0
 57 65  1  0
 57 67  1  0
 58 64  1  0
 58 60  1  0
 59 65  1  0
 60 59  1  0
 61 60  2  0
 62 63  1  0
 62 56  2  0
 63 58  2  0
 64 57  1  0
 65 55  1  0
 67 69  2  0
 68 67  1  0
 70 68  1  0
 71 80  2  0
 71 76  1  0
 72 68  1  0
 72 76  1  0
 73 72  1  0
 74 75  1  0
 74 73  1  0
 75 71  1  0
 76 77  2  0
 77 78  1  0
 79 78  2  0
 80 79  1  0
 81 55  1  0
 81 82  1  0
 81 91  1  0
 82 85  1  0
 83 87  1  0
 83 82  1  0
 84 83  2  0
 87 86  1  0
 89 90  1  0
 89 87  1  0
 89 88  1  0
 91 94  1  1
 91 92  1  0
 93 91  1  0
M  ISO  4   7 100  15 100  53 101  54 101
M  END
>  <TORSDO>  (89) 
F 23

>  <SCORE>  (89) 
-11.601

>  <name>  (89) 
88

>  <ligand_id>  (89) 
88

>  <original_smiles>  (89) 
[H]c1c([H])c([H])c2c(c1[H])C([H])([H])C([H])([H])C([H])([H])C2([H])N([H])C(=O)C1([H])N(C(=O)C([H])(N([H])C(=O)C([H])(N([H])C([H])([H])[H])C([H])([H])[H])C(C([H])([H])[H])(C([H])([H])[H])C([H])([H])[H])C([H])([H])c2c([H])c(OC([H])([H])C([H])([H])C([H])([H])C([H])([H])Oc3c([H])c(N([H])C(=O)N4C([H])([H])C([H])([H])C([H])([H])C([H])(n5nc(-c6c([H])c([H])c(Oc7c([H])c([H])c(F)c([H])c7F)c([H])c6[H])c(C(=O)N([H])[H])c5N([H])[H])C4([H])[H])c(C([H])([H])C([H])([H])[H])c([H])c3OC([H])([H])[H])c([H])c([H])c2C1([H])[H]

>  <smiles>  (89) 
[H]c1c([H])c([H])c2c(c1[H])C([H])([H])C([H])([H])C([H])([H])C2([H])N([H])C(=O)C1([H])N(C(=O)C([H])(N([H])C(=O)C([H])(N([H])C([H])([H])[H])C([H])([H])[H])C(C([H])([H])[H])(C([H])([H])[H])C([H])([H])[H])C([H])([H])c2c([H])c(OC([H])([H])C([H])([H])C([H])([H])C([H])([H])Oc3c([H])c(N([H])C(=O)N4C([H])([H])C([H])([H])C([H])([H])C([H])(n5nc(-c6c([H])c([H])c(Oc7c([H])c([H])c(F)c([H])c7F)c([H])c6[H])c(C(=O)N([H])[H])c5N([H])[H])C4([H])[H])c(C([H])([H])C([H])([H])[H])c([H])c3OC([H])([H])[H])c([H])c([H])c2C1([H])[H]

$$$$
89:0:0
     RDKit          3D

 92100  0  0  1  0  0  0  0  0999 V2000
  -29.5370  -17.3290   18.8610 C   0  0  0  0  0  3  0  0  0  0  0  0
  -29.1810  -19.7590   18.8820 C   0  0  0  0  0  3  0  0  0  0  0  0
  -29.6770  -18.5760   20.9430 C   0  0  0  0  0  3  0  0  0  0  0  0
  -29.2400  -18.5300   18.1810 C   0  0  0  0  0  0  0  0  0  0  0  0
  -29.7650  -17.2850   20.2540 C   0  0  0  0  0  0  0  0  0  0  0  0
  -29.3890  -19.8520   20.2780 C   0  0  0  0  0  0  0  0  0  0  0  0
  -30.6320  -14.8180   20.4190 C   0  0  0  0  0  0  0  0  0  0  0  0
  -30.4440  -12.5530   19.3730 C   0  0  0  0  0  2  0  0  0  0  0  0
  -29.5170  -12.6650   18.1420 C   0  0  0  0  0  2  0  0  0  0  0  0
  -28.0440  -12.4740   18.5560 C   0  0  0  0  0  2  0  0  0  0  0  0
  -27.6660  -13.3160   19.8050 C   0  0  0  0  0  3  0  0  0  0  0  0
  -28.7180  -13.2040   20.9280 C   0  0  0  0  0  2  0  0  0  0  0  0
  -30.0210  -13.5800   20.3590 N   0  0  0  0  0  0  0  0  0  0  0  0
  -31.7840  -14.9420   19.9870 O   0  0  0  0  0  0  0  0  0  0  0  0
  -29.9160  -15.9270   20.8670 N   0  0  0  0  0  0  0  0  0  0  0  0
  -29.1650  -15.6810   21.4960 H   0  0  0  0  0  0  0  0  0  0  0  0
  -25.2690  -13.8780   20.5210 C   0  0  0  0  0  0  0  0  0  0  0  0
  -24.2080  -13.0940   20.8890 C   0  0  0  0  0  0  0  0  0  0  0  0
  -24.6850  -11.7470   20.8560 C   0  0  0  0  0  0  0  0  0  0  0  0
  -26.3200  -13.0100   20.2830 N   0  0  0  0  0  0  0  0  0  0  0  0
  -25.9750  -11.7220   20.5440 N   0  0  0  0  0  0  0  0  0  0  0  0
  -23.9680  -10.4780   21.0430 C   0  0  0  0  0  0  0  0  0  0  0  0
  -24.4060   -9.5100   21.9750 C   0  0  0  0  0  3  0  0  0  0  0  0
  -23.6870   -8.3090   22.1520 C   0  0  0  0  0  3  0  0  0  0  0  0
  -22.5160   -8.0650   21.3960 C   0  0  0  0  0  0  0  0  0  0  0  0
  -22.0970   -9.0190   20.4520 C   0  0  0  0  0  3  0  0  0  0  0  0
  -22.8180  -10.2120   20.2730 C   0  0  0  0  0  3  0  0  0  0  0  0
  -21.7700   -6.9130   21.4800 O   0  0  0  0  0  0  0  0  0  0  0  0
  -21.7240   -6.1680   22.6310 C   0  0  0  0  0  0  0  0  0  0  0  0
  -21.2760   -6.7130   23.8540 C   0  0  0  0  0  3  0  0  0  0  0  0
  -21.1760   -5.8920   24.9960 C   0  0  0  0  0  3  0  0  0  0  0  0
  -21.5150   -4.5290   24.9150 C   0  0  0  0  0  0  0  0  0  0  0  0
  -21.9590   -3.9850   23.6970 C   0  0  0  0  0  3  0  0  0  0  0  0
  -22.0580   -4.8020   22.5570 C   0  0  0  0  0  0  0  0  0  0  0  0
  -22.4640   -4.2670   21.3810 F   0  0  0  0  0  0  0  0  0  0  0  0
  -21.4130   -3.7400   26.0100 F   0  0  0  0  0  0  0  0  0  0  0  0
  -22.8070  -13.5590   21.1610 C   0  0  0  0  0  0  0  0  0  0  0  0
  -22.0810  -12.8520   22.0200 N   0  0  0  0  0  0  0  0  0  0  0  0
  -22.3610  -14.5850   20.6470 O   0  0  0  0  0  0  0  0  0  0  0  0
  -22.4510  -12.0240   22.4610 H   0  0  0  0  0  0  0  0  0  0  0  0
  -21.1400  -13.1460   22.2410 H   0  0  0  0  0  0  0  0  0  0  0  0
  -25.4210  -15.2510   20.3530 N   0  0  0  0  0  0  0  0  0  0  0  0
  -24.6540  -15.9030   20.4690 H   0  0  0  0  0  0  0  0  0  0  0  0
  -26.2680  -15.6990   20.0270 H   0  0  0  0  0  0  0  0  0  0  0  0
  -28.2070  -19.3700   16.0550 C   0  0  0  0  0  2  0  0  0  0  0  0
  -28.9140  -18.4570   16.7460 C   0  0  0  0  0  3  0  0  0  0  0  0
  -29.3780  -21.1470   20.9070 O   0  0  0  0  0  0  0  0  0  0  0  0
  -28.4630  -22.2810   20.4910 C   0  0  0  0  0  2  0  0  0  0  0  0
  -28.0350  -24.9140   20.5330 C   0  0  0  0  0  3  0  0  0  0  0  0
  -28.9110  -23.8280   20.5460 C   0  0  0  0  0  0  0  0  0  0  0  0
  -30.4100  -24.0470   20.5670 C   0  0  0  0  0  1  0  0  0  0  0  0
  -28.2950  -26.3330   20.4690 O   0  0  0  0  0  0  0  0  0  0  0  0
  -24.5970  -31.9550   23.2690 C   0  0  0  0  0  0  0  0  0  0  0  0
  -27.2280  -27.2690   20.3600 C   0  0  0  0  0  0  0  0  0  0  0  0
  -23.4200  -30.5380   21.6280 C   0  0  0  0  0  3  0  0  0  0  0  0
  -24.8920  -28.9570   20.2460 C   0  0  0  0  0  0  0  0  0  0  0  0
  -25.9690  -30.8210   21.4980 C   0  0  0  0  0  2  0  0  0  0  0  0
  -26.0520  -29.4240   20.8770 C   0  0  0  0  0  0  0  0  0  0  0  0
  -27.2190  -28.5900   20.9300 C   0  0  0  0  0  3  0  0  0  0  0  0
  -26.0590  -26.8950   19.6560 C   0  0  0  0  0  3  0  0  0  0  0  0
  -24.9060  -27.7020   19.6170 C   0  0  0  0  0  3  0  0  0  0  0  0
  -23.6610  -29.8440   20.2600 C   0  0  0  0  0  2  0  0  0  0  0  0
  -24.6800  -31.1250   22.1880 N   0  0  0  0  0  0  0  0  0  0  0  0
  -23.5040  -32.2470   23.7770 O   0  0  0  0  0  0  0  0  0  0  0  0
  -22.7280  -29.5420   22.5900 C   0  0  0  0  0  0  0  0  0  0  0  0
  -21.4020  -29.3750   22.4460 N   0  0  0  0  0  0  0  0  0  0  0  0
  -23.3870  -28.9210   23.4300 O   0  0  0  0  0  0  0  0  0  0  0  0
  -20.9270  -29.9250   21.7440 H   0  0  0  0  0  0  0  0  0  0  0  0
  -18.0050  -28.2250   22.9310 C   0  0  0  0  0  0  0  0  0  0  0  0
  -20.5640  -28.4550   23.2190 C   0  0  0  0  0  3  0  0  0  0  0  0
  -20.6510  -27.0160   22.6560 C   0  0  0  0  0  2  0  0  0  0  0  0
  -19.5530  -26.6990   21.6360 C   0  0  0  0  0  2  0  0  0  0  0  0
  -18.1680  -26.8680   22.2660 C   0  0  0  0  0  2  0  0  0  0  0  0
  -19.1290  -28.9760   23.3640 C   0  0  0  0  0  0  0  0  0  0  0  0
  -18.9200  -30.2460   23.9440 C   0  0  0  0  0  3  0  0  0  0  0  0
  -17.6190  -30.7640   24.0960 C   0  0  0  0  0  3  0  0  0  0  0  0
  -16.5080  -30.0100   23.6770 C   0  0  0  0  0  3  0  0  0  0  0  0
  -16.7030  -28.7420   23.0990 C   0  0  0  0  0  3  0  0  0  0  0  0
  -25.8680  -32.5940   23.9060 C   0  0  0  0  0  3  0  0  0  0  0  0
  -26.3590  -31.8370   25.2010 C   0  0  1  0  0  0  0  0  0  0  0  0
  -25.2420  -31.6060   26.2480 C   0  0  0  0  0  1  0  0  0  0  0  0
  -26.9490  -30.4560   24.8380 C   0  0  0  0  0  1  0  0  0  0  0  0
  -27.4960  -32.6370   25.8750 C   0  0  0  0  0  1  0  0  0  0  0  0
  -25.5550  -33.9960   24.2160 N   0  0  0  0  0  0  0  0  0  0  0  0
  -25.8940  -35.0430   23.4500 C   0  0  0  0  0  0  0  0  0  0  0  0
  -26.5740  -34.9280   22.4260 O   0  0  0  0  0  0  0  0  0  0  0  0
  -24.9500  -34.1600   25.0080 H   0  0  0  0  0  0  0  0  0  0  0  0
  -24.1740  -36.8370   23.0590 C   0  0  0  0  0  1  0  0  0  0  0  0
  -25.4060  -36.4370   23.8880 C   0  0  0  0  0  3  0  0  0  0  0  0
  -27.5320  -37.3280   24.7320 C   0  0  0  0  0  1  0  0  0  0  0  0
  -26.4400  -37.4870   23.7750 N   0  0  0  0  0  0  0  0  0  0  0  0
  -26.0350  -38.4100   23.9080 H   0  0  0  0  0  0  0  0  0  0  0  0
  1  5  1  0
  2  6  2  0
  4  1  2  0
  4  2  1  0
  5 15  1  0
  5  3  2  0
  6 47  1  0
  6  3  1  0
  7 15  1  0
  8 13  1  0
  9 10  1  0
  9  8  1  0
 11 10  1  0
 11 20  1  0
 11 12  1  0
 13  7  1  0
 13 12  1  0
 14  7  2  0
 15 16  1  0
 17 18  2  0
 18 37  1  0
 19 18  1  0
 19 22  1  0
 20 17  1  0
 20 21  1  0
 21 19  2  0
 22 23  1  0
 23 24  2  0
 25 28  1  0
 25 24  1  0
 26 25  2  0
 27 26  1  0
 27 22  2  0
 28 29  1  0
 29 30  1  0
 30 31  2  0
 32 31  1  0
 32 36  1  0
 33 32  2  0
 34 29  2  0
 34 33  1  0
 35 34  1  0
 37 38  1  0
 38 41  1  0
 38 40  1  0
 39 37  2  0
 42 43  1  0
 42 17  1  0
 44 42  1  0
 45 46  2  0
 46  4  1  0
 48 50  1  0
 48 47  1  0
 49 50  2  0
 50 51  1  0
 52 49  1  0
 53 64  2  0
 54 52  1  0
 54 59  1  0
 55 63  1  0
 55 65  1  0
 56 62  1  0
 56 58  1  0
 57 63  1  0
 58 59  2  0
 58 57  1  0
 60 54  2  0
 61 60  1  0
 61 56  2  0
 62 55  1  0
 63 53  1  0
 65 67  2  0
 66 65  1  0
 68 66  1  0
 69 78  2  0
 69 74  1  0
 70 66  1  0
 70 74  1  0
 71 70  1  0
 72 73  1  0
 72 71  1  0
 73 69  1  0
 74 75  2  0
 75 76  1  0
 77 76  2  0
 78 77  1  0
 79 53  1  0
 79 84  1  0
 79 80  1  0
 80 83  1  1
 80 81  1  0
 82 80  1  0
 84 87  1  0
 85 89  1  0
 85 84  1  0
 86 85  2  0
 89 88  1  0
 91 89  1  0
 91 92  1  0
 91 90  1  0
M  ISO  4   7 100  15 100  49 101  52 101
M  END
>  <TORSDO>  (90) 
F 20

>  <SCORE>  (90) 
-14.006

>  <name>  (90) 
89

>  <ligand_id>  (90) 
89

>  <original_smiles>  (90) 
[H]C([H])=C([H])c1c([H])c(OC([H])([H])C(=C([H])Oc2c([H])c([H])c3c(c2[H])C([H])([H])N(C(=O)C([H])(N([H])C(=O)C([H])(N([H])C([H])([H])[H])C([H])([H])[H])C(C([H])([H])[H])(C([H])([H])[H])C([H])([H])[H])C([H])(C(=O)N([H])C2([H])c4c([H])c([H])c([H])c([H])c4C([H])([H])C([H])([H])C2([H])[H])C3([H])[H])C([H])([H])[H])c([H])c(N([H])C(=O)N2C([H])([H])C([H])([H])C([H])([H])C([H])(n3nc(-c4c([H])c([H])c(Oc5c([H])c([H])c(F)c([H])c5F)c([H])c4[H])c(C(=O)N([H])[H])c3N([H])[H])C2([H])[H])c1[H]

>  <smiles>  (90) 
[H]C([H])=C([H])c1c([H])c(OC([H])([H])C(=C([H])Oc2c([H])c([H])c3c(c2[H])C([H])([H])N(C(=O)C([H])(N([H])C(=O)C([H])(N([H])C([H])([H])[H])C([H])([H])[H])C(C([H])([H])[H])(C([H])([H])[H])C([H])([H])[H])C([H])(C(=O)N([H])C2([H])c4c([H])c([H])c([H])c([H])c4C([H])([H])C([H])([H])C2([H])[H])C3([H])[H])C([H])([H])[H])c([H])c(N([H])C(=O)N2C([H])([H])C([H])([H])C([H])([H])C([H])(n3nc(-c4c([H])c([H])c(Oc5c([H])c([H])c(F)c([H])c5F)c([H])c4[H])c(C(=O)N([H])[H])c3N([H])[H])C2([H])[H])c1[H]

$$$$
90:0:0
     RDKit          3D

 91 99  0  0  1  0  0  0  0  0999 V2000
  -30.5020  -15.1800   20.3790 C   0  0  0  0  0  0  0  0  0  0  0  0
  -30.4070  -12.7930   19.4440 C   0  0  0  0  0  2  0  0  0  0  0  0
  -29.4980  -12.7170   18.1960 C   0  0  0  0  0  2  0  0  0  0  0  0
  -28.0370  -12.4680   18.6130 C   0  0  0  0  0  2  0  0  0  0  0  0
  -27.5970  -13.3870   19.7810 C   0  0  0  0  0  3  0  0  0  0  0  0
  -28.6380  -13.4520   20.9200 C   0  0  0  0  0  2  0  0  0  0  0  0
  -29.9020  -13.9050   20.3200 N   0  0  0  0  0  0  0  0  0  0  0  0
  -31.7090  -15.1770   20.1100 O   0  0  0  0  0  0  0  0  0  0  0  0
  -29.1420  -19.1020   20.6350 C   0  0  0  0  0  3  0  0  0  0  0  0
  -29.4880  -20.4820   20.4110 C   0  0  0  0  0  0  0  0  0  0  0  0
  -30.0720  -17.8950   20.3520 C   0  0  0  0  0  0  0  0  0  0  0  0
  -30.8540  -20.6380   19.8880 C   0  0  0  0  0  0  0  0  0  0  0  0
  -32.9340  -19.6290   19.0780 C   0  0  0  0  0  1  0  0  0  0  0  0
  -31.2500  -18.1440   19.8670 N   0  0  0  0  0  0  0  0  0  0  0  0
  -31.5780  -19.4880   19.6320 N   0  0  0  0  0  0  0  0  0  0  0  0
  -29.7450  -16.4150   20.5530 N   0  0  0  0  0  0  0  0  0  0  0  0
  -31.3700  -21.7410   19.6790 O   0  0  0  0  0  0  0  0  0  0  0  0
  -28.7870  -16.2300   20.8030 H   0  0  0  0  0  0  0  0  0  0  0  0
  -25.2090  -13.9380   20.4950 C   0  0  0  0  0  0  0  0  0  0  0  0
  -24.1460  -13.1570   20.8570 C   0  0  0  0  0  0  0  0  0  0  0  0
  -24.6230  -11.8090   20.8410 C   0  0  0  0  0  0  0  0  0  0  0  0
  -26.2610  -13.0690   20.2680 N   0  0  0  0  0  0  0  0  0  0  0  0
  -25.9190  -11.7830   20.5440 N   0  0  0  0  0  0  0  0  0  0  0  0
  -23.9040  -10.5420   21.0310 C   0  0  0  0  0  0  0  0  0  0  0  0
  -24.3330   -9.5810   21.9730 C   0  0  0  0  0  3  0  0  0  0  0  0
  -23.6100   -8.3800   22.1520 C   0  0  0  0  0  3  0  0  0  0  0  0
  -22.4450   -8.1330   21.3890 C   0  0  0  0  0  0  0  0  0  0  0  0
  -22.0340   -9.0850   20.4390 C   0  0  0  0  0  3  0  0  0  0  0  0
  -22.7560  -10.2750   20.2560 C   0  0  0  0  0  3  0  0  0  0  0  0
  -21.6960   -6.9840   21.4740 O   0  0  0  0  0  0  0  0  0  0  0  0
  -21.6440   -6.2450   22.6290 C   0  0  0  0  0  0  0  0  0  0  0  0
  -21.1890   -6.7960   23.8460 C   0  0  0  0  0  3  0  0  0  0  0  0
  -21.0830   -5.9810   24.9910 C   0  0  0  0  0  3  0  0  0  0  0  0
  -21.4240   -4.6170   24.9200 C   0  0  0  0  0  0  0  0  0  0  0  0
  -21.8750   -4.0660   23.7070 C   0  0  0  0  0  3  0  0  0  0  0  0
  -21.9800   -4.8780   22.5640 C   0  0  0  0  0  0  0  0  0  0  0  0
  -22.3930   -4.3370   21.3930 F   0  0  0  0  0  0  0  0  0  0  0  0
  -21.3190   -3.8330   26.0190 F   0  0  0  0  0  0  0  0  0  0  0  0
  -22.7410  -13.6270   21.1030 C   0  0  0  0  0  0  0  0  0  0  0  0
  -22.0060  -12.9390   21.9690 N   0  0  0  0  0  0  0  0  0  0  0  0
  -22.3020  -14.6420   20.5660 O   0  0  0  0  0  0  0  0  0  0  0  0
  -22.3710  -12.1220   22.4320 H   0  0  0  0  0  0  0  0  0  0  0  0
  -21.0640  -13.2400   22.1780 H   0  0  0  0  0  0  0  0  0  0  0  0
  -25.3620  -15.3070   20.3060 N   0  0  0  0  0  0  0  0  0  0  0  0
  -24.5820  -15.9500   20.3910 H   0  0  0  0  0  0  0  0  0  0  0  0
  -26.2020  -15.7470   19.9510 H   0  0  0  0  0  0  0  0  0  0  0  0
  -28.5600  -21.8240   20.6690 C   0  0  0  0  0  0  0  0  0  0  0  0
  -27.4400  -21.5840   21.1300 O   0  0  0  0  0  0  0  0  0  0  0  0
  -28.8580  -23.4330   20.4380 C   0  0  0  0  0  3  0  0  0  0  0  0
  -28.0230  -24.6100   20.5460 C   0  0  0  0  0  3  0  0  0  0  0  0
  -28.2720  -26.0820   20.3800 O   0  0  0  0  0  0  0  0  0  0  0  0
  -24.6590  -31.9470   23.2770 C   0  0  0  0  0  0  0  0  0  0  0  0
  -27.2380  -27.1170   20.3350 C   0  0  0  0  0  0  0  0  0  0  0  0
  -23.4750  -30.5380   21.6420 C   0  0  0  0  0  3  0  0  0  0  0  0
  -24.9330  -28.9310   20.2500 C   0  0  0  0  0  0  0  0  0  0  0  0
  -26.0380  -30.7680   21.5080 C   0  0  0  0  0  2  0  0  0  0  0  0
  -26.1110  -29.3600   20.8740 C   0  0  0  0  0  0  0  0  0  0  0  0
  -27.2620  -28.4690   20.8970 C   0  0  0  0  0  3  0  0  0  0  0  0
  -26.0350  -26.8130   19.6590 C   0  0  0  0  0  3  0  0  0  0  0  0
  -24.9120  -27.6750   19.6250 C   0  0  0  0  0  3  0  0  0  0  0  0
  -23.7120  -29.8430   20.2740 C   0  0  0  0  0  2  0  0  0  0  0  0
  -24.7450  -31.1100   22.1960 N   0  0  0  0  0  0  0  0  0  0  0  0
  -23.5650  -32.2390   23.7860 O   0  0  0  0  0  0  0  0  0  0  0  0
  -22.7810  -29.5450   22.6080 C   0  0  0  0  0  0  0  0  0  0  0  0
  -21.4530  -29.3750   22.4700 N   0  0  0  0  0  0  0  0  0  0  0  0
  -23.4400  -28.9260   23.4470 O   0  0  0  0  0  0  0  0  0  0  0  0
  -20.9780  -29.9250   21.7670 H   0  0  0  0  0  0  0  0  0  0  0  0
  -18.0600  -28.1900   22.9590 C   0  0  0  0  0  0  0  0  0  0  0  0
  -20.6200  -28.4480   23.2420 C   0  0  0  0  0  3  0  0  0  0  0  0
  -20.7200  -27.0110   22.6750 C   0  0  0  0  0  2  0  0  0  0  0  0
  -19.6220  -26.6860   21.6560 C   0  0  0  0  0  2  0  0  0  0  0  0
  -18.2370  -26.8380   22.2900 C   0  0  0  0  0  2  0  0  0  0  0  0
  -19.1780  -28.9540   23.3900 C   0  0  0  0  0  0  0  0  0  0  0  0
  -18.9550  -30.2190   23.9760 C   0  0  0  0  0  3  0  0  0  0  0  0
  -17.6490  -30.7220   24.1320 C   0  0  0  0  0  3  0  0  0  0  0  0
  -16.5480  -29.9560   23.7140 C   0  0  0  0  0  3  0  0  0  0  0  0
  -16.7530  -28.6920   23.1340 C   0  0  0  0  0  3  0  0  0  0  0  0
  -25.9280  -32.5900   23.9140 C   0  0  0  0  0  3  0  0  0  0  0  0
  -25.6100  -33.9930   24.2350 N   0  0  0  0  0  0  0  0  0  0  0  0
  -25.9310  -35.0430   23.4670 C   0  0  0  0  0  0  0  0  0  0  0  0
  -26.5910  -34.9320   22.4290 O   0  0  0  0  0  0  0  0  0  0  0  0
  -25.0210  -34.1510   25.0390 H   0  0  0  0  0  0  0  0  0  0  0  0
  -24.1860  -36.8260   23.1340 C   0  0  0  0  0  1  0  0  0  0  0  0
  -25.4480  -36.4360   23.9200 C   0  0  0  0  0  3  0  0  0  0  0  0
  -27.5960  -37.3450   24.6910 C   0  0  0  0  0  1  0  0  0  0  0  0
  -26.4730  -37.4930   23.7700 N   0  0  0  0  0  0  0  0  0  0  0  0
  -26.0660  -38.4140   23.9100 H   0  0  0  0  0  0  0  0  0  0  0  0
  -26.4170  -31.8340   25.2110 C   0  0  1  0  0  0  0  0  0  0  0  0
  -25.3040  -31.6170   26.2640 C   0  0  0  0  0  1  0  0  0  0  0  0
  -27.0000  -30.4480   24.8520 C   0  0  0  0  0  1  0  0  0  0  0  0
  -27.5630  -32.6300   25.8790 C   0  0  0  0  0  1  0  0  0  0  0  0
  1 16  1  0
  2  7  1  0
  3  4  1  0
  3  2  1  0
  5  4  1  0
  5 22  1  0
  5  6  1  0
  7  1  1  0
  7  6  1  0
  8  1  2  0
 10  9  2  0
 10 47  1  0
 11 16  1  0
 11  9  1  0
 12 10  1  0
 13 15  1  0
 14 11  2  0
 15 14  1  0
 15 12  1  0
 16 18  1  0
 17 12  2  0
 19 20  2  0
 20 39  1  0
 21 20  1  0
 21 24  1  0
 22 19  1  0
 22 23  1  0
 23 21  2  0
 24 25  1  0
 25 26  2  0
 27 30  1  0
 27 26  1  0
 28 27  2  0
 29 28  1  0
 29 24  2  0
 30 31  1  0
 31 32  1  0
 32 33  2  0
 34 33  1  0
 34 38  1  0
 35 34  2  0
 36 31  2  0
 36 35  1  0
 37 36  1  0
 39 40  1  0
 40 43  1  0
 40 42  1  0
 41 39  2  0
 44 45  1  0
 44 19  1  0
 46 44  1  0
 47 48  2  0
 49 50  2  0
 49 47  1  0
 51 50  1  0
 52 63  2  0
 53 51  1  0
 53 58  1  0
 54 62  1  0
 54 64  1  0
 55 61  1  0
 55 57  1  0
 56 62  1  0
 57 58  2  0
 57 56  1  0
 59 53  2  0
 60 59  1  0
 60 55  2  0
 61 54  1  0
 62 52  1  0
 64 66  2  0
 65 64  1  0
 67 65  1  0
 68 77  2  0
 68 73  1  0
 69 65  1  0
 69 73  1  0
 70 69  1  0
 71 72  1  0
 71 70  1  0
 72 68  1  0
 73 74  2  0
 74 75  1  0
 76 75  2  0
 77 76  1  0
 78 52  1  0
 78 79  1  0
 78 88  1  0
 79 82  1  0
 80 84  1  0
 80 79  1  0
 81 80  2  0
 84 83  1  0
 86 87  1  0
 86 84  1  0
 86 85  1  0
 88 91  1  1
 88 89  1  0
 90 88  1  0
M  ISO  4   1 100  16 100  50 101  51 101
M  END
>  <TORSDO>  (91) 
F 17

>  <SCORE>  (91) 
-14.979

>  <name>  (91) 
90

>  <ligand_id>  (91) 
90

>  <original_smiles>  (91) 
[H]C(Oc1c([H])c([H])c2c(c1[H])C([H])([H])N(C(=O)C([H])(N([H])C(=O)C([H])(N([H])C([H])([H])[H])C([H])([H])[H])C(C([H])([H])[H])(C([H])([H])[H])C([H])([H])[H])C([H])(C(=O)N([H])C1([H])c3c([H])c([H])c([H])c([H])c3C([H])([H])C([H])([H])C1([H])[H])C2([H])[H])=C([H])C(=O)c1c([H])c(N([H])C(=O)N2C([H])([H])C([H])([H])C([H])([H])C([H])(n3nc(-c4c([H])c([H])c(Oc5c([H])c([H])c(F)c([H])c5F)c([H])c4[H])c(C(=O)N([H])[H])c3N([H])[H])C2([H])[H])nn(C([H])([H])[H])c1=O

>  <smiles>  (91) 
[H]C(Oc1c([H])c([H])c2c(c1[H])C([H])([H])N(C(=O)C([H])(N([H])C(=O)C([H])(N([H])C([H])([H])[H])C([H])([H])[H])C(C([H])([H])[H])(C([H])([H])[H])C([H])([H])[H])C([H])(C(=O)N([H])C1([H])c3c([H])c([H])c([H])c([H])c3C([H])([H])C([H])([H])C1([H])[H])C2([H])[H])=C([H])C(=O)c1c([H])c(N([H])C(=O)N2C([H])([H])C([H])([H])C([H])([H])C([H])(n3nc(-c4c([H])c([H])c(Oc5c([H])c([H])c(F)c([H])c5F)c([H])c4[H])c(C(=O)N([H])[H])c3N([H])[H])C2([H])[H])nn(C([H])([H])[H])c1=O

$$$$
91:0:0
     RDKit          3D

 92100  0  0  1  0  0  0  0  0999 V2000
  -28.4250  -21.1460   20.3670 C   0  0  0  0  0  2  0  0  0  0  0  0
  -31.3130  -17.9580   21.3460 C   0  0  0  0  0  3  0  0  0  0  0  0
  -29.1590  -18.5350   20.4790 C   0  0  0  0  0  3  0  0  0  0  0  0
  -30.1040  -17.4700   20.7830 C   0  0  0  0  0  0  0  0  0  0  0  0
  -31.5240  -19.3490   21.5490 C   0  0  0  0  0  0  0  0  0  0  0  0
  -29.4440  -19.9530   20.6770 C   0  0  0  0  0  0  0  0  0  0  0  0
  -32.8010  -19.8380   22.2220 C   0  0  0  0  0  1  0  0  0  0  0  0
  -30.6290  -20.3160   21.2140 N   0  0  0  0  0  0  0  0  0  0  0  0
  -30.5870  -14.8700   20.3420 C   0  0  0  0  0  0  0  0  0  0  0  0
  -30.3960  -12.5870   19.2890 C   0  0  0  0  0  2  0  0  0  0  0  0
  -29.4400  -12.6020   18.0730 C   0  0  0  0  0  2  0  0  0  0  0  0
  -27.9770  -12.4040   18.5170 C   0  0  0  0  0  2  0  0  0  0  0  0
  -27.6030  -13.3070   19.7220 C   0  0  0  0  0  3  0  0  0  0  0  0
  -28.6700  -13.2580   20.8380 C   0  0  0  0  0  2  0  0  0  0  0  0
  -29.9560  -13.6430   20.2390 N   0  0  0  0  0  0  0  0  0  0  0  0
  -31.7660  -14.9610   19.9810 O   0  0  0  0  0  0  0  0  0  0  0  0
  -29.8160  -16.0030   20.6430 N   0  0  0  0  0  0  0  0  0  0  0  0
  -28.8410  -15.7760   20.7550 H   0  0  0  0  0  0  0  0  0  0  0  0
  -25.2250  -13.8770   20.5020 C   0  0  0  0  0  0  0  0  0  0  0  0
  -24.1760  -13.0940   20.8910 C   0  0  0  0  0  0  0  0  0  0  0  0
  -24.6460  -11.7450   20.8430 C   0  0  0  0  0  0  0  0  0  0  0  0
  -26.2700  -13.0050   20.2360 N   0  0  0  0  0  0  0  0  0  0  0  0
  -25.9310  -11.7190   20.5120 N   0  0  0  0  0  0  0  0  0  0  0  0
  -23.9320  -10.4770   21.0390 C   0  0  0  0  0  0  0  0  0  0  0  0
  -24.3830   -9.5050   21.9580 C   0  0  0  0  0  3  0  0  0  0  0  0
  -23.6620   -8.3060   22.1420 C   0  0  0  0  0  3  0  0  0  0  0  0
  -22.4810   -8.0660   21.4010 C   0  0  0  0  0  0  0  0  0  0  0  0
  -22.0520   -9.0230   20.4680 C   0  0  0  0  0  3  0  0  0  0  0  0
  -22.7720  -10.2160   20.2840 C   0  0  0  0  0  3  0  0  0  0  0  0
  -21.7350   -6.9170   21.4890 O   0  0  0  0  0  0  0  0  0  0  0  0
  -21.6930   -6.1720   22.6380 C   0  0  0  0  0  0  0  0  0  0  0  0
  -21.2550   -6.7160   23.8640 C   0  0  0  0  0  3  0  0  0  0  0  0
  -21.1690   -5.8980   25.0070 C   0  0  0  0  0  3  0  0  0  0  0  0
  -21.5070   -4.5330   24.9260 C   0  0  0  0  0  0  0  0  0  0  0  0
  -21.9300   -3.9870   23.7020 C   0  0  0  0  0  3  0  0  0  0  0  0
  -22.0220   -4.8030   22.5610 C   0  0  0  0  0  0  0  0  0  0  0  0
  -22.4150   -4.2650   21.3820 F   0  0  0  0  0  0  0  0  0  0  0  0
  -21.4130   -3.7450   26.0220 F   0  0  0  0  0  0  0  0  0  0  0  0
  -22.7790  -13.5610   21.1900 C   0  0  0  0  0  0  0  0  0  0  0  0
  -22.0780  -12.8500   22.0650 N   0  0  0  0  0  0  0  0  0  0  0  0
  -22.3260  -14.5900   20.6900 O   0  0  0  0  0  0  0  0  0  0  0  0
  -22.4660  -12.0180   22.4800 H   0  0  0  0  0  0  0  0  0  0  0  0
  -21.1470  -13.1430   22.3330 H   0  0  0  0  0  0  0  0  0  0  0  0
  -25.3760  -15.2490   20.3250 N   0  0  0  0  0  0  0  0  0  0  0  0
  -24.5980  -15.8920   20.4360 H   0  0  0  0  0  0  0  0  0  0  0  0
  -26.1910  -15.6830   19.9100 H   0  0  0  0  0  0  0  0  0  0  0  0
  -28.8750  -22.6270   20.3000 N   0  0  0  0  0  4  0  0  0  0  0  0
  -29.8120  -22.6120   20.6750 H   0  0  0  0  0  0  0  0  0  0  0  0
  -28.9510  -22.8300   19.3210 H   0  0  0  0  0  0  0  0  0  0  0  0
  -28.0430  -23.7450   21.0230 C   0  0  0  0  0  3  0  0  0  0  0  0
  -27.8200  -25.1310   21.0160 C   0  0  0  0  0  3  0  0  0  0  0  0
  -28.2190  -26.3070   20.3080 O   0  0  0  0  0  0  0  0  0  0  0  0
  -24.5910  -31.8960   23.2470 C   0  0  0  0  0  0  0  0  0  0  0  0
  -27.2050  -27.2950   20.2090 C   0  0  0  0  0  0  0  0  0  0  0  0
  -23.3990  -30.4950   21.6060 C   0  0  0  0  0  3  0  0  0  0  0  0
  -24.8590  -28.9560   20.1620 C   0  0  0  0  0  0  0  0  0  0  0  0
  -25.9410  -30.8040   21.4370 C   0  0  0  0  0  2  0  0  0  0  0  0
  -26.0300  -29.4270   20.7800 C   0  0  0  0  0  0  0  0  0  0  0  0
  -27.2070  -28.6050   20.8010 C   0  0  0  0  0  3  0  0  0  0  0  0
  -26.0280  -26.9110   19.5340 C   0  0  0  0  0  3  0  0  0  0  0  0
  -24.8670  -27.7090   19.5210 C   0  0  0  0  0  3  0  0  0  0  0  0
  -23.6210  -29.8350   20.2180 C   0  0  0  0  0  2  0  0  0  0  0  0
  -24.6620  -31.0840   22.1550 N   0  0  0  0  0  0  0  0  0  0  0  0
  -23.5020  -32.1780   23.7730 O   0  0  0  0  0  0  0  0  0  0  0  0
  -22.7360  -29.4720   22.5610 C   0  0  0  0  0  0  0  0  0  0  0  0
  -21.4090  -29.2990   22.4250 N   0  0  0  0  0  0  0  0  0  0  0  0
  -23.4110  -28.8430   23.3810 O   0  0  0  0  0  0  0  0  0  0  0  0
  -20.9320  -29.8410   21.7180 H   0  0  0  0  0  0  0  0  0  0  0  0
  -18.0260  -28.1220   22.9400 C   0  0  0  0  0  0  0  0  0  0  0  0
  -20.5870  -28.3660   23.1960 C   0  0  0  0  0  3  0  0  0  0  0  0
  -20.6820  -26.9380   22.6080 C   0  0  0  0  0  2  0  0  0  0  0  0
  -19.5710  -26.6250   21.5970 C   0  0  0  0  0  2  0  0  0  0  0  0
  -18.1940  -26.7750   22.2540 C   0  0  0  0  0  2  0  0  0  0  0  0
  -19.1510  -28.8760   23.3700 C   0  0  0  0  0  0  0  0  0  0  0  0
  -18.9440  -30.1360   23.9690 C   0  0  0  0  0  3  0  0  0  0  0  0
  -17.6420  -30.6420   24.1470 C   0  0  0  0  0  3  0  0  0  0  0  0
  -16.5310  -29.8840   23.7390 C   0  0  0  0  0  3  0  0  0  0  0  0
  -16.7240  -28.6270   23.1410 C   0  0  0  0  0  3  0  0  0  0  0  0
  -25.8680  -32.5320   23.8750 C   0  0  0  0  0  3  0  0  0  0  0  0
  -26.3640  -31.7730   25.1670 C   0  0  1  0  0  0  0  0  0  0  0  0
  -25.2550  -31.5560   26.2220 C   0  0  0  0  0  1  0  0  0  0  0  0
  -26.9490  -30.3890   24.8030 C   0  0  0  0  0  1  0  0  0  0  0  0
  -27.5070  -32.5700   25.8390 C   0  0  0  0  0  1  0  0  0  0  0  0
  -25.5590  -33.9340   24.1900 N   0  0  0  0  0  0  0  0  0  0  0  0
  -25.8970  -34.9840   23.4280 C   0  0  0  0  0  0  0  0  0  0  0  0
  -26.5770  -34.8740   22.4030 O   0  0  0  0  0  0  0  0  0  0  0  0
  -24.9650  -34.0990   24.9900 H   0  0  0  0  0  0  0  0  0  0  0  0
  -24.1840  -36.7830   23.0350 C   0  0  0  0  0  1  0  0  0  0  0  0
  -25.4100  -36.3770   23.8700 C   0  0  0  0  0  3  0  0  0  0  0  0
  -27.5310  -37.2630   24.7320 C   0  0  0  0  0  1  0  0  0  0  0  0
  -26.4480  -37.4270   23.7660 N   0  0  0  0  0  0  0  0  0  0  0  0
  -26.0420  -38.3480   23.8970 H   0  0  0  0  0  0  0  0  0  0  0  0
  1  6  1  0
  2  5  1  0
  3  6  2  0
  3  4  1  0
  4  2  2  0
  5  7  1  0
  6  8  1  0
  8  5  2  0
  9 17  1  0
 10 15  1  0
 11 12  1  0
 11 10  1  0
 13 12  1  0
 13 22  1  0
 13 14  1  0
 15  9  1  0
 15 14  1  0
 16  9  2  0
 17 18  1  0
 17  4  1  0
 19 20  2  0
 20 39  1  0
 21 20  1  0
 21 24  1  0
 22 19  1  0
 22 23  1  0
 23 21  2  0
 24 25  1  0
 25 26  2  0
 27 30  1  0
 27 26  1  0
 28 27  2  0
 29 28  1  0
 29 24  2  0
 30 31  1  0
 31 32  1  0
 32 33  2  0
 34 33  1  0
 34 38  1  0
 35 34  2  0
 36 31  2  0
 36 35  1  0
 37 36  1  0
 39 40  1  0
 40 43  1  0
 40 42  1  0
 41 39  2  0
 44 45  1  0
 44 19  1  0
 46 44  1  0
 47  1  1  0
 47 48  1  0
 47 50  1  0
 49 47  1  0
 51 50  2  0
 52 51  1  0
 53 64  2  0
 54 52  1  0
 54 59  1  0
 55 63  1  0
 55 65  1  0
 56 62  1  0
 56 58  1  0
 57 63  1  0
 58 59  2  0
 58 57  1  0
 60 54  2  0
 61 60  1  0
 61 56  2  0
 62 55  1  0
 63 53  1  0
 65 67  2  0
 66 65  1  0
 68 66  1  0
 69 78  2  0
 69 74  1  0
 70 66  1  0
 70 74  1  0
 71 70  1  0
 72 73  1  0
 72 71  1  0
 73 69  1  0
 74 75  2  0
 75 76  1  0
 77 76  2  0
 78 77  1  0
 79 53  1  0
 79 84  1  0
 79 80  1  0
 80 83  1  1
 80 81  1  0
 82 80  1  0
 84 87  1  0
 85 89  1  0
 85 84  1  0
 86 85  2  0
 89 88  1  0
 91 89  1  0
 91 92  1  0
 91 90  1  0
M  ISO  4   9 100  17 100  51 101  52 101
M  END
>  <TORSDO>  (92) 
F 19

>  <SCORE>  (92) 
-14.541

>  <name>  (92) 
91

>  <ligand_id>  (92) 
91

>  <original_smiles>  (92) 
[H]C(Oc1c([H])c([H])c2c(c1[H])C([H])([H])N(C(=O)C([H])(N([H])C(=O)C([H])(N([H])C([H])([H])[H])C([H])([H])[H])C(C([H])([H])[H])(C([H])([H])[H])C([H])([H])[H])C([H])(C(=O)N([H])C1([H])c3c([H])c([H])c([H])c([H])c3C([H])([H])C([H])([H])C1([H])[H])C2([H])[H])=C([H])[N+]([H])([H])C([H])([H])c1nc(C([H])([H])[H])c([H])c(N([H])C(=O)N2C([H])([H])C([H])([H])C([H])([H])C([H])(n3nc(-c4c([H])c([H])c(Oc5c([H])c([H])c(F)c([H])c5F)c([H])c4[H])c(C(=O)N([H])[H])c3N([H])[H])C2([H])[H])c1[H]

>  <smiles>  (92) 
[H]C(Oc1c([H])c([H])c2c(c1[H])C([H])([H])N(C(=O)C([H])(N([H])C(=O)C([H])(N([H])C([H])([H])[H])C([H])([H])[H])C(C([H])([H])[H])(C([H])([H])[H])C([H])([H])[H])C([H])(C(=O)N([H])C1([H])c3c([H])c([H])c([H])c([H])c3C([H])([H])C([H])([H])C1([H])[H])C2([H])[H])=C([H])[N+]([H])([H])C([H])([H])c1nc(C([H])([H])[H])c([H])c(N([H])C(=O)N2C([H])([H])C([H])([H])C([H])([H])C([H])(n3nc(-c4c([H])c([H])c(Oc5c([H])c([H])c(F)c([H])c5F)c([H])c4[H])c(C(=O)N([H])[H])c3N([H])[H])C2([H])[H])c1[H]

$$$$
92:0:0
     RDKit          3D

 91 99  0  0  1  0  0  0  0  0999 V2000
  -28.7670  -22.2730   20.4170 C   0  0  0  0  0  0  0  0  0  0  0  0
  -29.7280  -21.2750   20.4510 N   0  0  0  0  0  0  0  0  0  0  0  0
  -27.5700  -21.9800   20.3960 O   0  0  0  0  0  0  0  0  0  0  0  0
  -30.6770  -21.6080   20.5610 H   0  0  0  0  0  0  0  0  0  0  0  0
  -28.7210  -17.6580   20.0890 C   0  0  0  0  0  3  0  0  0  0  0  0
  -28.5310  -19.0910   20.0100 C   0  0  0  0  0  3  0  0  0  0  0  0
  -29.9510  -17.2480   20.5540 C   0  0  0  0  0  0  0  0  0  0  0  0
  -29.6060  -19.8760   20.3950 C   0  0  0  0  0  0  0  0  0  0  0  0
  -30.9130  -18.7270   20.8300 S   0  0  0  0  0  0  0  0  0  0  0  0
  -30.3330  -15.8660   21.0450 C   0  0  0  0  0  0  0  0  0  0  0  0
  -30.2910  -15.6470   22.2930 N   0  0  0  0  0  0  0  0  0  0  0  0
  -29.9840  -16.4730   22.7940 H   0  0  0  0  0  0  0  0  0  0  0  0
  -30.8260  -14.7210   20.0790 C   0  0  0  0  0  0  0  0  0  0  0  0
  -30.4530  -12.5240   18.9320 C   0  0  0  0  0  2  0  0  0  0  0  0
  -29.4530  -12.6940   17.7670 C   0  0  0  0  0  2  0  0  0  0  0  0
  -28.0010  -12.5590   18.2650 C   0  0  0  0  0  2  0  0  0  0  0  0
  -27.7310  -13.3750   19.5560 C   0  0  0  0  0  3  0  0  0  0  0  0
  -28.8480  -13.1740   20.6070 C   0  0  0  0  0  2  0  0  0  0  0  0
  -30.1350  -13.5260   19.9820 N   0  0  0  0  0  0  0  0  0  0  0  0
  -31.8690  -14.8960   19.4420 O   0  0  0  0  0  0  0  0  0  0  0  0
  -25.3880  -13.9700   20.4260 C   0  0  0  0  0  0  0  0  0  0  0  0
  -24.3370  -13.2000   20.8420 C   0  0  0  0  0  0  0  0  0  0  0  0
  -24.7820  -11.8430   20.7480 C   0  0  0  0  0  0  0  0  0  0  0  0
  -26.4070  -13.0890   20.1080 N   0  0  0  0  0  0  0  0  0  0  0  0
  -26.0520  -11.8020   20.3600 N   0  0  0  0  0  0  0  0  0  0  0  0
  -24.0530  -10.5820   20.9480 C   0  0  0  0  0  0  0  0  0  0  0  0
  -24.5120   -9.5990   21.8540 C   0  0  0  0  0  3  0  0  0  0  0  0
  -23.7810   -8.4070   22.0450 C   0  0  0  0  0  3  0  0  0  0  0  0
  -22.5810   -8.1860   21.3300 C   0  0  0  0  0  0  0  0  0  0  0  0
  -22.1390   -9.1580   20.4160 C   0  0  0  0  0  3  0  0  0  0  0  0
  -22.8700  -10.3420   20.2230 C   0  0  0  0  0  3  0  0  0  0  0  0
  -21.8230   -7.0420   21.4300 O   0  0  0  0  0  0  0  0  0  0  0  0
  -21.7840   -6.3030   22.5840 C   0  0  0  0  0  0  0  0  0  0  0  0
  -21.3990   -6.8700   23.8200 C   0  0  0  0  0  3  0  0  0  0  0  0
  -21.3040   -6.0600   24.9670 C   0  0  0  0  0  3  0  0  0  0  0  0
  -21.5850   -4.6830   24.8820 C   0  0  0  0  0  0  0  0  0  0  0  0
  -21.9660   -4.1150   23.6540 C   0  0  0  0  0  3  0  0  0  0  0  0
  -22.0610   -4.9230   22.5070 C   0  0  0  0  0  0  0  0  0  0  0  0
  -22.4060   -4.3670   21.3210 F   0  0  0  0  0  0  0  0  0  0  0  0
  -21.4860   -3.9030   25.9840 F   0  0  0  0  0  0  0  0  0  0  0  0
  -22.9620  -13.6820   21.1990 C   0  0  0  0  0  0  0  0  0  0  0  0
  -22.2810  -12.9840   22.0990 N   0  0  0  0  0  0  0  0  0  0  0  0
  -22.5040  -14.7180   20.7130 O   0  0  0  0  0  0  0  0  0  0  0  0
  -22.6670  -12.1470   22.5100 H   0  0  0  0  0  0  0  0  0  0  0  0
  -21.3610  -13.2930   22.3820 H   0  0  0  0  0  0  0  0  0  0  0  0
  -25.5510  -15.3420   20.2640 N   0  0  0  0  0  0  0  0  0  0  0  0
  -24.7840  -15.9890   20.4060 H   0  0  0  0  0  0  0  0  0  0  0  0
  -26.3210  -15.7520   19.7540 H   0  0  0  0  0  0  0  0  0  0  0  0
  -29.1390  -23.8320   20.4610 C   0  0  0  0  0  3  0  0  0  0  0  0
  -28.0580  -24.9300   19.9800 C   0  0  0  0  0  3  0  0  0  0  0  0
  -28.2540  -26.3990   20.2310 O   0  0  0  0  0  0  0  0  0  0  0  0
  -24.5560  -31.8810   23.2150 C   0  0  0  0  0  0  0  0  0  0  0  0
  -27.1420  -27.2710   20.1720 C   0  0  0  0  0  0  0  0  0  0  0  0
  -23.3460  -30.4720   21.5940 C   0  0  0  0  0  3  0  0  0  0  0  0
  -24.7830  -28.9160   20.1600 C   0  0  0  0  0  0  0  0  0  0  0  0
  -25.8880  -30.7790   21.3960 C   0  0  0  0  0  2  0  0  0  0  0  0
  -25.9610  -29.4000   20.7450 C   0  0  0  0  0  0  0  0  0  0  0  0
  -27.1430  -28.5920   20.7330 C   0  0  0  0  0  3  0  0  0  0  0  0
  -25.9320  -26.8440   19.5780 C   0  0  0  0  0  3  0  0  0  0  0  0
  -24.7740  -27.6430   19.5680 C   0  0  0  0  0  3  0  0  0  0  0  0
  -23.5530  -29.8000   20.2130 C   0  0  0  0  0  2  0  0  0  0  0  0
  -24.6160  -31.0640   22.1230 N   0  0  0  0  0  0  0  0  0  0  0  0
  -23.4730  -32.1620   23.7520 O   0  0  0  0  0  0  0  0  0  0  0  0
  -22.6940  -29.4550   22.5620 C   0  0  0  0  0  0  0  0  0  0  0  0
  -21.3680  -29.2720   22.4460 N   0  0  0  0  0  0  0  0  0  0  0  0
  -23.3790  -28.8390   23.3830 O   0  0  0  0  0  0  0  0  0  0  0  0
  -20.8730  -29.8230   21.7580 H   0  0  0  0  0  0  0  0  0  0  0  0
  -17.9980  -28.0600   22.9740 C   0  0  0  0  0  0  0  0  0  0  0  0
  -20.5550  -28.3370   23.2280 C   0  0  0  0  0  3  0  0  0  0  0  0
  -20.6630  -26.9010   22.6680 C   0  0  0  0  0  2  0  0  0  0  0  0
  -19.5570  -26.5620   21.6610 C   0  0  0  0  0  2  0  0  0  0  0  0
  -18.1780  -26.7050   22.3100 C   0  0  0  0  0  2  0  0  0  0  0  0
  -19.1140  -28.8340   23.3900 C   0  0  0  0  0  0  0  0  0  0  0  0
  -18.8890  -30.1010   23.9720 C   0  0  0  0  0  3  0  0  0  0  0  0
  -17.5810  -30.5920   24.1420 C   0  0  0  0  0  3  0  0  0  0  0  0
  -16.4810  -29.8170   23.7380 C   0  0  0  0  0  3  0  0  0  0  0  0
  -16.6890  -28.5520   23.1620 C   0  0  0  0  0  3  0  0  0  0  0  0
  -25.8420  -32.5200   23.8270 C   0  0  0  0  0  3  0  0  0  0  0  0
  -26.3730  -31.7550   25.1040 C   0  0  1  0  0  0  0  0  0  0  0  0
  -25.2910  -31.5170   26.1830 C   0  0  0  0  0  1  0  0  0  0  0  0
  -26.9600  -30.3790   24.7140 C   0  0  0  0  0  1  0  0  0  0  0  0
  -27.5230  -32.5600   25.7530 C   0  0  0  0  0  1  0  0  0  0  0  0
  -25.5260  -33.9170   24.1590 N   0  0  0  0  0  0  0  0  0  0  0  0
  -25.8410  -34.9720   23.3970 C   0  0  0  0  0  0  0  0  0  0  0  0
  -26.5000  -34.8740   22.3580 O   0  0  0  0  0  0  0  0  0  0  0  0
  -24.9400  -34.0710   24.9660 H   0  0  0  0  0  0  0  0  0  0  0  0
  -24.0960  -36.7540   23.0630 C   0  0  0  0  0  1  0  0  0  0  0  0
  -25.3500  -36.3570   23.8610 C   0  0  0  0  0  3  0  0  0  0  0  0
  -27.4880  -37.2550   24.6630 C   0  0  0  0  0  1  0  0  0  0  0  0
  -26.3730  -37.4170   23.7340 N   0  0  0  0  0  0  0  0  0  0  0  0
  -25.9610  -38.3330   23.8880 H   0  0  0  0  0  0  0  0  0  0  0  0
  1  2  1  0
  1 49  1  0
  2  4  1  0
  3  1  2  0
  5  7  2  0
  6  5  1  0
  6  8  2  0
  7  9  1  0
  7 10  1  0
  8  2  1  0
  8  9  1  0
 10 11  2  0
 11 12  1  0
 13 10  1  0
 14 19  1  0
 15 16  1  0
 15 14  1  0
 17 16  1  0
 17 24  1  0
 17 18  1  0
 19 13  1  0
 19 18  1  0
 20 13  2  0
 21 22  2  0
 22 41  1  0
 23 22  1  0
 23 26  1  0
 24 25  1  0
 24 21  1  0
 25 23  2  0
 26 27  1  0
 27 28  2  0
 29 32  1  0
 29 28  1  0
 30 29  2  0
 31 30  1  0
 31 26  2  0
 32 33  1  0
 33 34  1  0
 34 35  2  0
 36 35  1  0
 36 40  1  0
 37 36  2  0
 38 33  2  0
 38 37  1  0
 39 38  1  0
 41 42  1  0
 42 45  1  0
 42 44  1  0
 43 41  2  0
 46 47  1  0
 46 21  1  0
 48 46  1  0
 50 51  1  0
 50 49  2  0
 52 63  2  0
 53 51  1  0
 53 58  1  0
 54 62  1  0
 54 64  1  0
 55 61  1  0
 55 57  1  0
 56 62  1  0
 57 56  1  0
 58 57  2  0
 59 53  2  0
 60 59  1  0
 60 55  2  0
 61 54  1  0
 62 52  1  0
 64 66  2  0
 65 64  1  0
 67 65  1  0
 68 77  2  0
 68 73  1  0
 69 65  1  0
 69 73  1  0
 70 69  1  0
 71 72  1  0
 71 70  1  0
 72 68  1  0
 73 74  2  0
 74 75  1  0
 76 75  2  0
 77 76  1  0
 78 52  1  0
 78 83  1  0
 78 79  1  0
 79 82  1  1
 79 80  1  0
 81 79  1  0
 83 86  1  0
 84 88  1  0
 84 83  1  0
 85 84  2  0
 88 87  1  0
 90 88  1  0
 90 91  1  0
 90 89  1  0
M  ISO  4  10 100  13 100  50 101  51 101
M  END
>  <TORSDO>  (93) 
F 20

>  <SCORE>  (93) 
-13.646

>  <name>  (93) 
92

>  <ligand_id>  (93) 
92

>  <original_smiles>  (93) 
[H]N=C(C(=O)N1C([H])([H])C([H])([H])C([H])([H])C([H])(n2nc(-c3c([H])c([H])c(Oc4c([H])c([H])c(F)c([H])c4F)c([H])c3[H])c(C(=O)N([H])[H])c2N([H])[H])C1([H])[H])c1sc(N([H])C(=O)C([H])([H])C([H])([H])Oc2c([H])c([H])c3c(c2[H])C([H])([H])N(C(=O)C([H])(N([H])C(=O)C([H])(N([H])C([H])([H])[H])C([H])([H])[H])C(C([H])([H])[H])(C([H])([H])[H])C([H])([H])[H])C([H])(C(=O)N([H])C2([H])c4c([H])c([H])c([H])c([H])c4C([H])([H])C([H])([H])C2([H])[H])C3([H])[H])c([H])c1[H]

>  <smiles>  (93) 
[H]N=C(C(=O)N1C([H])([H])C([H])([H])C([H])([H])C([H])(n2nc(-c3c([H])c([H])c(Oc4c([H])c([H])c(F)c([H])c4F)c([H])c3[H])c(C(=O)N([H])[H])c2N([H])[H])C1([H])[H])c1sc(N([H])C(=O)C([H])([H])C([H])([H])Oc2c([H])c([H])c3c(c2[H])C([H])([H])N(C(=O)C([H])(N([H])C(=O)C([H])(N([H])C([H])([H])[H])C([H])([H])[H])C(C([H])([H])[H])(C([H])([H])[H])C([H])([H])[H])C([H])(C(=O)N([H])C2([H])c4c([H])c([H])c([H])c([H])c4C([H])([H])C([H])([H])C2([H])[H])C3([H])[H])c([H])c1[H]

$$$$
93:0:0
     RDKit          3D

 94103  0  0  1  0  0  0  0  0999 V2000
  -27.6540  -22.6090   21.0370 C   0  0  0  0  0  3  0  0  0  0  0  0
  -28.0040  -21.2400   20.8060 C   0  0  0  0  0  3  0  0  0  0  0  0
  -29.6500  -23.3370   19.9480 C   0  0  0  0  0  3  0  0  0  0  0  0
  -30.0300  -21.9620   19.7310 C   0  0  0  0  0  0  0  0  0  0  0  0
  -28.4570  -23.7090   20.6190 C   0  0  0  0  0  0  0  0  0  0  0  0
  -29.1980  -20.8570   20.1380 C   0  0  0  0  0  0  0  0  0  0  0  0
  -30.6340  -14.7780   20.2040 C   0  0  0  0  0  0  0  0  0  0  0  0
  -30.4160  -12.5300   19.1570 C   0  0  0  0  0  2  0  0  0  0  0  0
  -29.4360  -12.6540   17.9660 C   0  0  0  0  0  2  0  0  0  0  0  0
  -27.9800  -12.4750   18.4360 C   0  0  0  0  0  2  0  0  0  0  0  0
  -27.6540  -13.3200   19.6970 C   0  0  0  0  0  3  0  0  0  0  0  0
  -28.7470  -13.1760   20.7810 C   0  0  0  0  0  2  0  0  0  0  0  0
  -30.0300  -13.5430   20.1650 N   0  0  0  0  0  0  0  0  0  0  0  0
  -31.7800  -14.9170   19.7590 O   0  0  0  0  0  0  0  0  0  0  0  0
  -29.9750  -17.5120   18.7140 C   0  0  0  0  0  3  0  0  0  0  0  0
  -29.6840  -18.8500   18.5690 C   0  0  0  0  0  0  0  0  0  0  0  0
  -29.8450  -17.2360   20.1010 C   0  0  0  0  0  0  0  0  0  0  0  0
  -29.5450  -19.5920   17.2760 C   0  0  0  0  0  1  0  0  0  0  0  0
  -29.5250  -18.3880   20.7610 N   0  0  0  0  0  0  0  0  0  0  0  0
  -29.4870  -19.4300   19.8270 N   0  0  0  0  0  0  0  0  0  0  0  0
  -29.8910  -15.8620   20.6290 N   0  0  0  0  0  0  0  0  0  0  0  0
  -29.1100  -15.6160   21.2170 H   0  0  0  0  0  0  0  0  0  0  0  0
  -25.2930  -13.8950   20.5200 C   0  0  0  0  0  0  0  0  0  0  0  0
  -24.2400  -13.1090   20.9070 C   0  0  0  0  0  0  0  0  0  0  0  0
  -24.7010  -11.7600   20.8280 C   0  0  0  0  0  0  0  0  0  0  0  0
  -26.3260  -13.0200   20.2210 N   0  0  0  0  0  0  0  0  0  0  0  0
  -25.9790  -11.7300   20.4690 N   0  0  0  0  0  0  0  0  0  0  0  0
  -23.9840  -10.4920   21.0170 C   0  0  0  0  0  0  0  0  0  0  0  0
  -24.4320   -9.5220   21.9410 C   0  0  0  0  0  3  0  0  0  0  0  0
  -23.7150   -8.3190   22.1210 C   0  0  0  0  0  3  0  0  0  0  0  0
  -22.5360   -8.0770   21.3770 C   0  0  0  0  0  0  0  0  0  0  0  0
  -22.1050   -9.0370   20.4440 C   0  0  0  0  0  3  0  0  0  0  0  0
  -22.8230  -10.2320   20.2620 C   0  0  0  0  0  3  0  0  0  0  0  0
  -21.7920   -6.9260   21.4630 O   0  0  0  0  0  0  0  0  0  0  0  0
  -21.7310   -6.1930   22.6220 C   0  0  0  0  0  0  0  0  0  0  0  0
  -21.2430   -6.7440   23.8260 C   0  0  0  0  0  3  0  0  0  0  0  0
  -21.1330   -5.9350   24.9750 C   0  0  0  0  0  3  0  0  0  0  0  0
  -21.5020   -4.5780   24.9200 C   0  0  0  0  0  0  0  0  0  0  0  0
  -21.9830   -4.0270   23.7200 C   0  0  0  0  0  3  0  0  0  0  0  0
  -22.0950   -4.8320   22.5730 C   0  0  0  0  0  0  0  0  0  0  0  0
  -22.5370   -4.2900   21.4120 F   0  0  0  0  0  0  0  0  0  0  0  0
  -21.3890   -3.7990   26.0220 F   0  0  0  0  0  0  0  0  0  0  0  0
  -22.8530  -13.5770   21.2410 C   0  0  0  0  0  0  0  0  0  0  0  0
  -22.1570  -12.8540   22.1120 N   0  0  0  0  0  0  0  0  0  0  0  0
  -22.3960  -14.6160   20.7670 O   0  0  0  0  0  0  0  0  0  0  0  0
  -22.5360  -12.0110   22.5150 H   0  0  0  0  0  0  0  0  0  0  0  0
  -21.2280  -13.1470   22.3770 H   0  0  0  0  0  0  0  0  0  0  0  0
  -25.4570  -15.2700   20.3840 N   0  0  0  0  0  0  0  0  0  0  0  0
  -24.7210  -15.9320   20.6070 H   0  0  0  0  0  0  0  0  0  0  0  0
  -26.3170  -15.7210   20.1010 H   0  0  0  0  0  0  0  0  0  0  0  0
  -31.8600  -22.4940   18.1060 C   0  0  0  0  0  2  0  0  0  0  0  0
  -31.3040  -21.7020   19.0390 C   0  0  0  0  0  3  0  0  0  0  0  0
  -28.0620  -25.1820   21.0820 C   0  0  0  0  0  2  0  0  0  0  0  0
  -28.3710  -26.4440   20.3450 O   0  0  0  0  0  0  0  0  0  0  0  0
  -24.6060  -31.9210   23.2760 C   0  0  0  0  0  0  0  0  0  0  0  0
  -27.3040  -27.3580   20.2880 C   0  0  0  0  0  0  0  0  0  0  0  0
  -23.4500  -30.5110   21.6130 C   0  0  0  0  0  3  0  0  0  0  0  0
  -24.9430  -28.9720   20.2170 C   0  0  0  0  0  0  0  0  0  0  0  0
  -25.9930  -30.8430   21.4870 C   0  0  0  0  0  2  0  0  0  0  0  0
  -26.0960  -29.4630   20.8430 C   0  0  0  0  0  0  0  0  0  0  0  0
  -27.2860  -28.6670   20.8680 C   0  0  0  0  0  3  0  0  0  0  0  0
  -26.1320  -26.9300   19.6330 C   0  0  0  0  0  3  0  0  0  0  0  0
  -24.9630  -27.7110   19.6020 C   0  0  0  0  0  3  0  0  0  0  0  0
  -23.7020  -29.8440   20.2350 C   0  0  0  0  0  2  0  0  0  0  0  0
  -24.7000  -31.1110   22.1820 N   0  0  0  0  0  0  0  0  0  0  0  0
  -23.5080  -32.1910   23.7870 O   0  0  0  0  0  0  0  0  0  0  0  0
  -22.7740  -29.4880   22.5590 C   0  0  0  0  0  0  0  0  0  0  0  0
  -21.4510  -29.3030   22.4080 N   0  0  0  0  0  0  0  0  0  0  0  0
  -23.4400  -28.8680   23.3920 O   0  0  0  0  0  0  0  0  0  0  0  0
  -20.9720  -29.8600   21.7150 H   0  0  0  0  0  0  0  0  0  0  0  0
  -18.0690  -28.1000   22.8560 C   0  0  0  0  0  0  0  0  0  0  0  0
  -20.6230  -28.3610   23.1620 C   0  0  0  0  0  3  0  0  0  0  0  0
  -20.7330  -26.9300   22.5830 C   0  0  0  0  0  2  0  0  0  0  0  0
  -19.6450  -26.6130   21.5520 C   0  0  0  0  0  2  0  0  0  0  0  0
  -18.2550  -26.7540   22.1780 C   0  0  0  0  0  2  0  0  0  0  0  0
  -19.1810  -28.8610   23.3050 C   0  0  0  0  0  0  0  0  0  0  0  0
  -18.9520  -30.1210   23.9000 C   0  0  0  0  0  3  0  0  0  0  0  0
  -17.6430  -30.6200   24.0500 C   0  0  0  0  0  3  0  0  0  0  0  0
  -16.5460  -29.8560   23.6150 C   0  0  0  0  0  3  0  0  0  0  0  0
  -16.7600  -28.5980   23.0240 C   0  0  0  0  0  3  0  0  0  0  0  0
  -25.8690  -32.5640   23.9240 C   0  0  0  0  0  3  0  0  0  0  0  0
  -25.5480  -33.9670   24.2240 N   0  0  0  0  0  0  0  0  0  0  0  0
  -25.9000  -35.0090   23.4600 C   0  0  0  0  0  0  0  0  0  0  0  0
  -26.5940  -34.8910   22.4470 O   0  0  0  0  0  0  0  0  0  0  0  0
  -24.9330  -34.1320   25.0070 H   0  0  0  0  0  0  0  0  0  0  0  0
  -24.1830  -36.7990   23.0300 C   0  0  0  0  0  1  0  0  0  0  0  0
  -25.3980  -36.4030   23.8850 C   0  0  0  0  0  3  0  0  0  0  0  0
  -27.5040  -37.3010   24.7750 C   0  0  0  0  0  1  0  0  0  0  0  0
  -26.4340  -37.4540   23.7920 N   0  0  0  0  0  0  0  0  0  0  0  0
  -26.0240  -38.3760   23.9090 H   0  0  0  0  0  0  0  0  0  0  0  0
  -26.3500  -31.8130   25.2270 C   0  0  1  0  0  0  0  0  0  0  0  0
  -25.2260  -31.5880   26.2660 C   0  0  0  0  0  1  0  0  0  0  0  0
  -26.9470  -30.4310   24.8750 C   0  0  0  0  0  1  0  0  0  0  0  0
  -27.4770  -32.6190   25.9120 C   0  0  0  0  0  1  0  0  0  0  0  0
  2  1  1  0
  3  5  1  0
  4  3  2  0
  4  6  1  0
  5  1  2  0
  5 53  1  0
  6  2  2  0
  7 21  1  0
  8 13  1  0
  9 10  1  0
  9  8  1  0
 11 10  1  0
 11 26  1  0
 11 12  1  0
 13  7  1  0
 13 12  1  0
 14  7  2  0
 15 17  1  0
 16 15  2  0
 16 20  1  0
 17 21  1  0
 17 19  2  0
 18 16  1  0
 20  6  1  0
 20 19  1  0
 21 22  1  0
 23 24  2  0
 24 43  1  0
 25 24  1  0
 25 28  1  0
 26 27  1  0
 26 23  1  0
 27 25  2  0
 28 29  1  0
 29 30  2  0
 31 34  1  0
 31 30  1  0
 32 31  2  0
 33 32  1  0
 33 28  2  0
 34 35  1  0
 35 36  1  0
 36 37  2  0
 38 37  1  0
 38 42  1  0
 39 38  2  0
 40 35  2  0
 40 39  1  0
 41 40  1  0
 43 44  1  0
 44 47  1  0
 44 46  1  0
 45 43  2  0
 48 23  1  0
 48 49  1  0
 50 48  1  0
 51 52  2  0
 52  4  1  0
 54 53  1  0
 55 66  2  0
 56 54  1  0
 56 61  1  0
 57 65  1  0
 57 67  1  0
 58 64  1  0
 58 60  1  0
 59 65  1  0
 60 61  2  0
 60 59  1  0
 62 56  2  0
 63 62  1  0
 63 58  2  0
 64 57  1  0
 65 55  1  0
 67 69  2  0
 68 67  1  0
 70 68  1  0
 71 80  2  0
 71 76  1  0
 72 68  1  0
 72 76  1  0
 73 72  1  0
 74 75  1  0
 74 73  1  0
 75 71  1  0
 76 77  2  0
 77 78  1  0
 79 78  2  0
 80 79  1  0
 81 55  1  0
 81 82  1  0
 81 91  1  0
 82 85  1  0
 83 87  1  0
 83 82  1  0
 84 83  2  0
 87 86  1  0
 89 87  1  0
 89 90  1  0
 89 88  1  0
 91 94  1  1
 91 92  1  0
 93 91  1  0
M  ISO  4   7 100  21 100  53 101  54 101
M  END
>  <TORSDO>  (94) 
F 18

>  <SCORE>  (94) 
-14.921

>  <name>  (94) 
93

>  <ligand_id>  (94) 
93

>  <original_smiles>  (94) 
[H]C([H])=C([H])c1c([H])c(C([H])([H])Oc2c([H])c([H])c3c(c2[H])C([H])([H])N(C(=O)C([H])(N([H])C(=O)C([H])(N([H])C([H])([H])[H])C([H])([H])[H])C(C([H])([H])[H])(C([H])([H])[H])C([H])([H])[H])C([H])(C(=O)N([H])C2([H])c4c([H])c([H])c([H])c([H])c4C([H])([H])C([H])([H])C2([H])[H])C3([H])[H])c([H])c([H])c1-n1nc(N([H])C(=O)N2C([H])([H])C([H])([H])C([H])([H])C([H])(n3nc(-c4c([H])c([H])c(Oc5c([H])c([H])c(F)c([H])c5F)c([H])c4[H])c(C(=O)N([H])[H])c3N([H])[H])C2([H])[H])c([H])c1C([H])([H])[H]

>  <smiles>  (94) 
[H]C([H])=C([H])c1c([H])c(C([H])([H])Oc2c([H])c([H])c3c(c2[H])C([H])([H])N(C(=O)C([H])(N([H])C(=O)C([H])(N([H])C([H])([H])[H])C([H])([H])[H])C(C([H])([H])[H])(C([H])([H])[H])C([H])([H])[H])C([H])(C(=O)N([H])C2([H])c4c([H])c([H])c([H])c([H])c4C([H])([H])C([H])([H])C2([H])[H])C3([H])[H])c([H])c([H])c1-n1nc(N([H])C(=O)N2C([H])([H])C([H])([H])C([H])([H])C([H])(n3nc(-c4c([H])c([H])c(Oc5c([H])c([H])c(F)c([H])c5F)c([H])c4[H])c(C(=O)N([H])[H])c3N([H])[H])C2([H])[H])c([H])c1C([H])([H])[H]

$$$$
94:0:0
     RDKit          3D

 89 97  0  0  1  0  0  0  0  0999 V2000
  -28.7770  -18.8750   20.3310 C   0  0  0  0  0  0  0  0  0  0  0  0
  -29.3630  -20.2620   20.2800 C   0  0  0  0  0  0  0  0  0  0  0  0
  -29.7850  -17.8500   20.3350 C   0  0  0  0  0  0  0  0  0  0  0  0
  -27.2970  -18.6200   20.3750 C   0  0  0  0  0  1  0  0  0  0  0  0
  -32.3210  -18.2170   20.3360 C   0  0  0  0  0  1  0  0  0  0  0  0
  -30.6840  -20.0170   20.2840 N   0  0  0  0  0  0  0  0  0  0  0  0
  -30.9370  -18.6430   20.3160 N   0  0  0  0  0  0  0  0  0  0  0  0
  -30.4620  -15.1860   20.1330 C   0  0  0  0  0  0  0  0  0  0  0  0
  -30.3480  -12.8260   19.1340 C   0  0  0  0  0  2  0  0  0  0  0  0
  -29.3620  -12.7550   17.9430 C   0  0  0  0  0  2  0  0  0  0  0  0
  -27.9290  -12.4960   18.4390 C   0  0  0  0  0  2  0  0  0  0  0  0
  -27.5560  -13.3910   19.6480 C   0  0  0  0  0  3  0  0  0  0  0  0
  -28.6600  -13.4200   20.7260 C   0  0  0  0  0  2  0  0  0  0  0  0
  -29.8840  -13.9030   20.0690 N   0  0  0  0  0  0  0  0  0  0  0  0
  -31.6550  -15.2260   19.8100 O   0  0  0  0  0  0  0  0  0  0  0  0
  -29.6670  -16.3800   20.3670 N   0  0  0  0  0  0  0  0  0  0  0  0
  -28.7260  -16.0990   20.5880 H   0  0  0  0  0  0  0  0  0  0  0  0
  -25.2110  -13.9220   20.5110 C   0  0  0  0  0  0  0  0  0  0  0  0
  -24.1710  -13.1300   20.9080 C   0  0  0  0  0  0  0  0  0  0  0  0
  -24.6430  -11.7850   20.8180 C   0  0  0  0  0  0  0  0  0  0  0  0
  -26.2480  -13.0610   20.1990 N   0  0  0  0  0  0  0  0  0  0  0  0
  -25.9190  -11.7670   20.4500 N   0  0  0  0  0  0  0  0  0  0  0  0
  -23.9290  -10.5130   21.0010 C   0  0  0  0  0  0  0  0  0  0  0  0
  -24.3710   -9.5450   21.9290 C   0  0  0  0  0  3  0  0  0  0  0  0
  -23.6560   -8.3410   22.1020 C   0  0  0  0  0  3  0  0  0  0  0  0
  -22.4850   -8.0960   21.3460 C   0  0  0  0  0  0  0  0  0  0  0  0
  -22.0650   -9.0520   20.4050 C   0  0  0  0  0  3  0  0  0  0  0  0
  -22.7800  -10.2470   20.2310 C   0  0  0  0  0  3  0  0  0  0  0  0
  -21.7420   -6.9430   21.4270 O   0  0  0  0  0  0  0  0  0  0  0  0
  -21.6500   -6.2270   22.5950 C   0  0  0  0  0  0  0  0  0  0  0  0
  -21.1100   -6.7880   23.7720 C   0  0  0  0  0  3  0  0  0  0  0  0
  -20.9710   -5.9950   24.9290 C   0  0  0  0  0  3  0  0  0  0  0  0
  -21.3610   -4.6440   24.9090 C   0  0  0  0  0  0  0  0  0  0  0  0
  -21.8940   -4.0820   23.7350 C   0  0  0  0  0  3  0  0  0  0  0  0
  -22.0350   -4.8710   22.5810 C   0  0  0  0  0  0  0  0  0  0  0  0
  -22.5300   -4.3200   21.4460 F   0  0  0  0  0  0  0  0  0  0  0  0
  -21.2200   -3.8800   26.0170 F   0  0  0  0  0  0  0  0  0  0  0  0
  -22.7850  -13.5910   21.2490 C   0  0  0  0  0  0  0  0  0  0  0  0
  -22.1010  -12.8760   22.1340 N   0  0  0  0  0  0  0  0  0  0  0  0
  -22.3180  -14.6230   20.7660 O   0  0  0  0  0  0  0  0  0  0  0  0
  -22.4920  -12.0410   22.5450 H   0  0  0  0  0  0  0  0  0  0  0  0
  -21.1720  -13.1660   22.4050 H   0  0  0  0  0  0  0  0  0  0  0  0
  -25.3520  -15.2970   20.3550 N   0  0  0  0  0  0  0  0  0  0  0  0
  -24.5580  -15.9190   20.4670 H   0  0  0  0  0  0  0  0  0  0  0  0
  -26.1300  -15.7310   19.8790 H   0  0  0  0  0  0  0  0  0  0  0  0
  -28.6000  -21.7280   20.2170 C   0  0  0  0  0  3  0  0  0  0  0  0
  -28.9010  -23.1450   20.2010 C   0  0  0  0  0  3  0  0  0  0  0  0
  -27.9210  -24.5170   20.0280 C   0  0  0  0  0  2  0  0  0  0  0  0
  -28.2420  -26.0700   20.2590 O   0  0  0  0  0  0  0  0  0  0  0  0
  -24.6050  -31.8680   23.2520 C   0  0  0  0  0  0  0  0  0  0  0  0
  -27.2140  -27.1190   20.1950 C   0  0  0  0  0  0  0  0  0  0  0  0
  -23.4290  -30.4940   21.5800 C   0  0  0  0  0  3  0  0  0  0  0  0
  -24.8970  -28.9290   20.1500 C   0  0  0  0  0  0  0  0  0  0  0  0
  -25.9920  -30.7380   21.4570 C   0  0  0  0  0  2  0  0  0  0  0  0
  -26.0730  -29.3470   20.7840 C   0  0  0  0  0  0  0  0  0  0  0  0
  -27.2300  -28.4620   20.7850 C   0  0  0  0  0  3  0  0  0  0  0  0
  -26.0080  -26.8300   19.5190 C   0  0  0  0  0  3  0  0  0  0  0  0
  -24.8830  -27.6870   19.4980 C   0  0  0  0  0  3  0  0  0  0  0  0
  -23.6700  -29.8340   20.1950 C   0  0  0  0  0  2  0  0  0  0  0  0
  -24.6960  -31.0580   22.1520 N   0  0  0  0  0  0  0  0  0  0  0  0
  -23.5100  -32.1470   23.7680 O   0  0  0  0  0  0  0  0  0  0  0  0
  -22.7310  -29.4790   22.5220 C   0  0  0  0  0  0  0  0  0  0  0  0
  -21.4030  -29.3130   22.3770 N   0  0  0  0  0  0  0  0  0  0  0  0
  -23.3900  -28.8420   23.3470 O   0  0  0  0  0  0  0  0  0  0  0  0
  -20.9250  -29.8800   21.6900 H   0  0  0  0  0  0  0  0  0  0  0  0
  -18.0090  -28.1260   22.8490 C   0  0  0  0  0  0  0  0  0  0  0  0
  -20.5720  -28.3650   23.1250 C   0  0  0  0  0  3  0  0  0  0  0  0
  -20.6620  -26.9450   22.5190 C   0  0  0  0  0  2  0  0  0  0  0  0
  -19.5600  -26.6540   21.4960 C   0  0  0  0  0  2  0  0  0  0  0  0
  -18.1780  -26.7930   22.1410 C   0  0  0  0  0  2  0  0  0  0  0  0
  -19.1340  -28.8710   23.2970 C   0  0  0  0  0  0  0  0  0  0  0  0
  -18.9210  -30.1210   23.9210 C   0  0  0  0  0  3  0  0  0  0  0  0
  -17.6180  -30.6230   24.1010 C   0  0  0  0  0  3  0  0  0  0  0  0
  -16.5100  -29.8750   23.6680 C   0  0  0  0  0  3  0  0  0  0  0  0
  -16.7060  -28.6290   23.0480 C   0  0  0  0  0  3  0  0  0  0  0  0
  -25.8710  -32.4980   23.9080 C   0  0  0  0  0  3  0  0  0  0  0  0
  -25.5620  -33.9020   24.2260 N   0  0  0  0  0  0  0  0  0  0  0  0
  -25.8890  -34.9520   23.4610 C   0  0  0  0  0  0  0  0  0  0  0  0
  -26.5470  -34.8410   22.4230 O   0  0  0  0  0  0  0  0  0  0  0  0
  -24.9740  -34.0620   25.0310 H   0  0  0  0  0  0  0  0  0  0  0  0
  -24.1500  -36.7440   23.1330 C   0  0  0  0  0  1  0  0  0  0  0  0
  -25.4120  -36.3460   23.9170 C   0  0  0  0  0  3  0  0  0  0  0  0
  -27.5580  -37.2520   24.6930 C   0  0  0  0  0  1  0  0  0  0  0  0
  -26.4400  -37.4000   23.7670 N   0  0  0  0  0  0  0  0  0  0  0  0
  -26.0320  -38.3210   23.9060 H   0  0  0  0  0  0  0  0  0  0  0  0
  -26.3390  -31.7340   25.2070 C   0  0  1  0  0  0  0  0  0  0  0  0
  -25.2120  -31.5180   26.2450 C   0  0  0  0  0  1  0  0  0  0  0  0
  -26.9220  -30.3480   24.8520 C   0  0  0  0  0  1  0  0  0  0  0  0
  -27.4740  -32.5280   25.8970 C   0  0  0  0  0  1  0  0  0  0  0  0
  1  3  2  0
  1  4  1  0
  2  6  2  0
  2  1  1  0
  3 16  1  0
  6  7  1  0
  7  3  1  0
  7  5  1  0
  8 16  1  0
  9 14  1  0
 10 11  1  0
 10  9  1  0
 12 11  1  0
 12 21  1  0
 12 13  1  0
 14  8  1  0
 14 13  1  0
 15  8  2  0
 16 17  1  0
 18 19  2  0
 19 38  1  0
 20 19  1  0
 20 23  1  0
 21 22  1  0
 21 18  1  0
 22 20  2  0
 23 24  1  0
 24 25  2  0
 26 29  1  0
 26 25  1  0
 27 26  2  0
 28 27  1  0
 28 23  2  0
 29 30  1  0
 30 31  1  0
 31 32  2  0
 33 32  1  0
 33 37  1  0
 34 33  2  0
 35 30  2  0
 35 34  1  0
 36 35  1  0
 38 39  1  0
 39 42  1  0
 39 41  1  0
 40 38  2  0
 43 44  1  0
 43 18  1  0
 45 43  1  0
 46  2  1  0
 47 46  2  0
 48 47  1  0
 48 49  1  0
 50 61  2  0
 51 49  1  0
 51 56  1  0
 52 60  1  0
 52 62  1  0
 53 59  1  0
 53 55  1  0
 54 60  1  0
 55 56  2  0
 55 54  1  0
 57 51  2  0
 58 57  1  0
 58 53  2  0
 59 52  1  0
 60 50  1  0
 62 64  2  0
 63 62  1  0
 65 63  1  0
 66 75  2  0
 66 71  1  0
 67 63  1  0
 67 71  1  0
 68 67  1  0
 69 70  1  0
 69 68  1  0
 70 66  1  0
 71 72  2  0
 72 73  1  0
 74 73  2  0
 75 74  1  0
 76 50  1  0
 76 77  1  0
 76 86  1  0
 77 80  1  0
 78 82  1  0
 78 77  1  0
 79 78  2  0
 82 81  1  0
 84 85  1  0
 84 82  1  0
 84 83  1  0
 86 89  1  1
 86 87  1  0
 88 86  1  0
M  ISO  4   8 100  16 100  48 101  49 101
M  END
>  <TORSDO>  (95) 
F 18

>  <SCORE>  (95) 
-15.243

>  <name>  (95) 
94

>  <ligand_id>  (95) 
94

>  <original_smiles>  (95) 
[H]C(=C([H])C([H])([H])Oc1c([H])c([H])c2c(c1[H])C([H])([H])N(C(=O)C([H])(N([H])C(=O)C([H])(N([H])C([H])([H])[H])C([H])([H])[H])C(C([H])([H])[H])(C([H])([H])[H])C([H])([H])[H])C([H])(C(=O)N([H])C1([H])c3c([H])c([H])c([H])c([H])c3C([H])([H])C([H])([H])C1([H])[H])C2([H])[H])c1nn(C([H])([H])[H])c(N([H])C(=O)N2C([H])([H])C([H])([H])C([H])([H])C([H])(n3nc(-c4c([H])c([H])c(Oc5c([H])c([H])c(F)c([H])c5F)c([H])c4[H])c(C(=O)N([H])[H])c3N([H])[H])C2([H])[H])c1C([H])([H])[H]

>  <smiles>  (95) 
[H]C(=C([H])C([H])([H])Oc1c([H])c([H])c2c(c1[H])C([H])([H])N(C(=O)C([H])(N([H])C(=O)C([H])(N([H])C([H])([H])[H])C([H])([H])[H])C(C([H])([H])[H])(C([H])([H])[H])C([H])([H])[H])C([H])(C(=O)N([H])C1([H])c3c([H])c([H])c([H])c([H])c3C([H])([H])C([H])([H])C1([H])[H])C2([H])[H])c1nn(C([H])([H])[H])c(N([H])C(=O)N2C([H])([H])C([H])([H])C([H])([H])C([H])(n3nc(-c4c([H])c([H])c(Oc5c([H])c([H])c(F)c([H])c5F)c([H])c4[H])c(C(=O)N([H])[H])c3N([H])[H])C2([H])[H])c1C([H])([H])[H]

$$$$
95:0:0
     RDKit          3D

 98106  0  0  1  0  0  0  0  0999 V2000
  -31.2470  -19.9750   17.4340 C   0  0  0  0  0  3  0  0  0  0  0  0
  -30.1480  -21.4340   19.0210 C   0  0  0  0  0  3  0  0  0  0  0  0
  -31.9120  -19.2700   18.4840 C   0  0  0  0  0  0  0  0  0  0  0  0
  -31.7380  -19.7470   19.8180 C   0  0  0  0  0  0  0  0  0  0  0  0
  -30.4160  -21.1020   17.6730 C   0  0  0  0  0  0  0  0  0  0  0  0
  -30.7900  -20.7660   20.0900 C   0  0  0  0  0  0  0  0  0  0  0  0
  -33.2360  -15.7250   18.1060 C   0  0  0  0  0  0  0  0  0  0  0  0
  -32.7630  -13.3800   17.4950 C   0  0  0  0  0  2  0  0  0  0  0  0
  -31.5490  -13.3580   16.5420 C   0  0  0  0  0  2  0  0  0  0  0  0
  -30.2240  -13.3200   17.3330 C   0  0  0  0  0  2  0  0  0  0  0  0
  -30.1770  -14.3600   18.4880 C   0  0  0  0  0  3  0  0  0  0  0  0
  -31.4860  -14.3440   19.3110 C   0  0  0  0  0  2  0  0  0  0  0  0
  -32.6030  -14.5470   18.3790 N   0  0  0  0  0  0  0  0  0  0  0  0
  -34.2760  -15.7370   17.4400 O   0  0  0  0  0  0  0  0  0  0  0  0
  -32.8800  -18.1470   18.1180 C   0  0  0  0  0  0  0  0  0  0  0  0
  -32.5580  -16.8590   18.4300 N   0  0  0  0  0  0  0  0  0  0  0  0
  -33.9060  -18.4780   17.5150 O   0  0  0  0  0  0  0  0  0  0  0  0
  -31.6860  -16.7230   18.9140 H   0  0  0  0  0  0  0  0  0  0  0  0
  -28.3310  -15.1010   20.1150 C   0  0  0  0  0  0  0  0  0  0  0  0
  -27.2520  -14.4410   20.6380 C   0  0  0  0  0  0  0  0  0  0  0  0
  -27.3170  -13.1080   20.1280 C   0  0  0  0  0  0  0  0  0  0  0  0
  -29.0000  -14.1730   19.3310 N   0  0  0  0  0  0  0  0  0  0  0  0
  -28.4080  -12.9510   19.3880 N   0  0  0  0  0  0  0  0  0  0  0  0
  -26.3710  -11.9920   20.2520 C   0  0  0  0  0  0  0  0  0  0  0  0
  -26.5680  -10.9580   21.1950 C   0  0  0  0  0  3  0  0  0  0  0  0
  -25.6330   -9.9060   21.3100 C   0  0  0  0  0  3  0  0  0  0  0  0
  -24.4870   -9.8820   20.4800 C   0  0  0  0  0  0  0  0  0  0  0  0
  -24.3070  -10.9010   19.5280 C   0  0  0  0  0  3  0  0  0  0  0  0
  -25.2410  -11.9430   19.4110 C   0  0  0  0  0  3  0  0  0  0  0  0
  -23.5390   -8.8850   20.5030 O   0  0  0  0  0  0  0  0  0  0  0  0
  -22.8080   -8.6150   21.6310 C   0  0  0  0  0  0  0  0  0  0  0  0
  -22.0000   -9.5960   22.2460 C   0  0  0  0  0  3  0  0  0  0  0  0
  -21.2070   -9.2570   23.3620 C   0  0  0  0  0  3  0  0  0  0  0  0
  -21.2140   -7.9400   23.8580 C   0  0  0  0  0  0  0  0  0  0  0  0
  -22.0160   -6.9610   23.2450 C   0  0  0  0  0  3  0  0  0  0  0  0
  -22.8050   -7.2980   22.1320 C   0  0  0  0  0  0  0  0  0  0  0  0
  -23.5590   -6.3460   21.5300 F   0  0  0  0  0  0  0  0  0  0  0  0
  -20.4480   -7.6120   24.9250 F   0  0  0  0  0  0  0  0  0  0  0  0
  -26.1640  -15.0380   21.4840 C   0  0  0  0  0  0  0  0  0  0  0  0
  -25.6020  -14.2570   22.4000 N   0  0  0  0  0  0  0  0  0  0  0  0
  -25.8420  -16.2200   21.3730 O   0  0  0  0  0  0  0  0  0  0  0  0
  -25.8780  -13.2920   22.5050 H   0  0  0  0  0  0  0  0  0  0  0  0
  -24.8820  -14.6280   23.0030 H   0  0  0  0  0  0  0  0  0  0  0  0
  -28.7830  -16.4140   20.2200 N   0  0  0  0  0  0  0  0  0  0  0  0
  -28.2750  -17.1130   20.7500 H   0  0  0  0  0  0  0  0  0  0  0  0
  -29.5750  -16.7920   19.7180 H   0  0  0  0  0  0  0  0  0  0  0  0
  -29.4270  -23.0320   16.7220 C   0  0  0  0  0  3  0  0  0  0  0  0
  -29.8770  -21.8310   16.5770 N   0  0  0  0  0  0  0  0  0  0  0  0
  -28.8310  -23.9140   15.6020 C   0  0  0  0  0  2  0  0  0  0  0  0
  -28.3630  -25.3260   16.0920 C   0  0  0  0  0  2  0  0  0  0  0  0
  -27.5590  -26.1250   15.1790 O   0  0  0  0  0  0  0  0  0  0  0  0
  -24.0530  -29.0480   20.7110 C   0  0  0  0  0  0  0  0  0  0  0  0
  -26.3730  -26.6310   15.6850 C   0  0  0  0  0  0  0  0  0  0  0  0
  -22.6630  -28.2150   18.8460 C   0  0  0  0  0  3  0  0  0  0  0  0
  -23.9170  -27.6160   16.7060 C   0  0  0  0  0  0  0  0  0  0  0  0
  -25.0520  -29.0330   18.4210 C   0  0  0  0  0  2  0  0  0  0  0  0
  -25.1250  -28.0540   17.2630 C   0  0  0  0  0  0  0  0  0  0  0  0
  -26.3560  -27.5740   16.7450 C   0  0  0  0  0  3  0  0  0  0  0  0
  -25.1420  -26.2160   15.1330 C   0  0  0  0  0  3  0  0  0  0  0  0
  -23.9210  -26.6990   15.6390 C   0  0  0  0  0  3  0  0  0  0  0  0
  -22.6390  -28.1700   17.2950 C   0  0  0  0  0  2  0  0  0  0  0  0
  -23.9530  -28.7610   19.3830 N   0  0  0  0  0  0  0  0  0  0  0  0
  -23.0900  -28.9020   21.4750 O   0  0  0  0  0  0  0  0  0  0  0  0
  -22.3190  -26.8100   19.3880 C   0  0  0  0  0  0  0  0  0  0  0  0
  -21.0600  -26.3840   19.1940 N   0  0  0  0  0  0  0  0  0  0  0  0
  -23.1790  -26.1200   19.9410 O   0  0  0  0  0  0  0  0  0  0  0  0
  -20.4100  -27.0120   18.7410 H   0  0  0  0  0  0  0  0  0  0  0  0
  -18.1560  -24.2400   18.9810 C   0  0  0  0  0  0  0  0  0  0  0  0
  -20.5290  -25.0750   19.5790 C   0  0  0  0  0  3  0  0  0  0  0  0
  -21.0470  -23.9630   18.6390 C   0  0  0  0  0  2  0  0  0  0  0  0
  -20.1040  -23.6760   17.4670 C   0  0  0  0  0  2  0  0  0  0  0  0
  -18.7230  -23.2500   17.9770 C   0  0  0  0  0  2  0  0  0  0  0  0
  -19.0020  -25.1070   19.7210 C   0  0  0  0  0  0  0  0  0  0  0  0
  -18.4180  -26.0340   20.6140 C   0  0  0  0  0  3  0  0  0  0  0  0
  -17.0220  -26.0990   20.7730 C   0  0  0  0  0  3  0  0  0  0  0  0
  -16.1920  -25.2280   20.0490 C   0  0  0  0  0  3  0  0  0  0  0  0
  -16.7590  -24.2990   19.1590 C   0  0  0  0  0  3  0  0  0  0  0  0
  -25.3770  -29.5930   21.3320 C   0  0  0  0  0  3  0  0  0  0  0  0
  -25.0100  -30.5190   22.4130 N   0  0  0  0  0  0  0  0  0  0  0  0
  -25.1700  -31.8490   22.3620 C   0  0  0  0  0  0  0  0  0  0  0  0
  -25.7140  -32.4220   21.4140 O   0  0  0  0  0  0  0  0  0  0  0  0
  -24.5050  -30.1240   23.1930 H   0  0  0  0  0  0  0  0  0  0  0  0
  -23.3090  -33.3360   23.1720 C   0  0  0  0  0  1  0  0  0  0  0  0
  -24.6430  -32.6750   23.5520 C   0  0  0  0  0  3  0  0  0  0  0  0
  -26.7800  -33.1490   24.6650 C   0  0  0  0  0  1  0  0  0  0  0  0
  -25.5950  -33.7070   24.0170 N   0  0  0  0  0  0  0  0  0  0  0  0
  -25.1470  -34.3420   24.6720 H   0  0  0  0  0  0  0  0  0  0  0  0
  -26.3250  -28.4540   21.8730 C   0  0  1  0  0  0  0  0  0  0  0  0
  -25.6240  -27.4560   22.8240 C   0  0  0  0  0  1  0  0  0  0  0  0
  -26.9240  -27.6420   20.7020 C   0  0  0  0  0  1  0  0  0  0  0  0
  -27.5170  -29.0810   22.6340 C   0  0  0  0  0  1  0  0  0  0  0  0
  -32.5690  -19.2620   20.9560 C   0  0  0  0  0  0  0  0  0  0  0  0
  -32.2630  -18.2580   21.6060 O   0  0  0  0  0  0  0  0  0  0  0  0
  -33.8720  -20.0380   21.3000 C   0  0  0  0  0  0  0  0  0  0  0  0
  -34.4010  -21.0650   20.3010 C   0  0  0  0  0  1  0  0  0  0  0  0
  -34.4890  -19.8200   22.3520 O   0  0  0  0  0  0  0  0  0  0  0  0
  -29.2950  -21.6210   21.7540 C   0  0  0  0  0  1  0  0  0  0  0  0
  -30.5760  -21.1180   21.4070 O   0  0  0  0  0  0  0  0  0  0  0  0
  1  5  2  0
  1  3  1  0
  2  6  2  0
  3  4  2  0
  4  6  1  0
  4 92  1  0
  5  2  1  0
  6 98  1  0
  7 13  1  0
  7 16  1  0
  8 13  1  0
  9 10  1  0
  9  8  1  0
 11 10  1  0
 11 12  1  0
 11 22  1  0
 13 12  1  0
 14  7  2  0
 15 16  1  0
 15  3  1  0
 16 18  1  0
 17 15  2  0
 19 44  1  0
 19 20  2  0
 20 39  1  0
 21 24  1  0
 21 20  1  0
 22 23  1  0
 22 19  1  0
 23 21  2  0
 24 25  1  0
 25 26  2  0
 27 30  1  0
 27 26  1  0
 28 27  2  0
 29 28  1  0
 29 24  2  0
 30 31  1  0
 31 36  2  0
 31 32  1  0
 32 33  2  0
 33 34  1  0
 34 38  1  0
 35 34  2  0
 36 35  1  0
 37 36  1  0
 39 40  1  0
 40 42  1  0
 40 43  1  0
 41 39  2  0
 44 45  1  0
 46 44  1  0
 48 47  2  0
 48  5  1  0
 49 50  1  0
 49 47  1  0
 51 53  1  0
 51 50  1  0
 52 63  2  0
 53 58  1  0
 54 62  1  0
 54 64  1  0
 55 57  1  0
 55 61  1  0
 56 62  1  0
 57 56  1  0
 58 57  2  0
 59 60  1  0
 59 53  2  0
 60 55  2  0
 61 54  1  0
 62 52  1  0
 64 66  2  0
 65 64  1  0
 67 65  1  0
 68 77  2  0
 68 73  1  0
 69 65  1  0
 69 73  1  0
 70 69  1  0
 71 72  1  0
 71 70  1  0
 72 68  1  0
 73 74  2  0
 74 75  1  0
 76 75  2  0
 77 76  1  0
 78 52  1  0
 78 88  1  0
 78 79  1  0
 79 82  1  0
 80 79  1  0
 80 84  1  0
 81 80  2  0
 84 83  1  0
 84 86  1  0
 86 85  1  0
 86 87  1  0
 88 91  1  1
 88 89  1  0
 90 88  1  0
 92 94  1  0
 92 93  2  0
 94 96  2  0
 95 94  1  0
 98 97  1  0
M  ISO  4   7 100  16 100  50 101  51 101
M  END
>  <TORSDO>  (96) 
F 22

>  <SCORE>  (96) 
-0.200

>  <name>  (96) 
95

>  <ligand_id>  (96) 
95

>  <original_smiles>  (96) 
[H]C(=Nc1c([H])c(OC([H])([H])[H])c(C(=O)C(=O)C([H])([H])[H])c(C(=O)N([H])C(=O)N2C([H])([H])C([H])([H])C([H])([H])C([H])(n3nc(-c4c([H])c([H])c(Oc5c([H])c([H])c(F)c([H])c5F)c([H])c4[H])c(C(=O)N([H])[H])c3N([H])[H])C2([H])[H])c1[H])C([H])([H])C([H])([H])Oc1c([H])c([H])c2c(c1[H])C([H])([H])N(C(=O)C([H])(N([H])C(=O)C([H])(N([H])C([H])([H])[H])C([H])([H])[H])C(C([H])([H])[H])(C([H])([H])[H])C([H])([H])[H])C([H])(C(=O)N([H])C1([H])c3c([H])c([H])c([H])c([H])c3C([H])([H])C([H])([H])C1([H])[H])C2([H])[H]

>  <smiles>  (96) 
[H]C(=Nc1c([H])c(OC([H])([H])[H])c(C(=O)C(=O)C([H])([H])[H])c(C(=O)N([H])C(=O)N2C([H])([H])C([H])([H])C([H])([H])C([H])(n3nc(-c4c([H])c([H])c(Oc5c([H])c([H])c(F)c([H])c5F)c([H])c4[H])c(C(=O)N([H])[H])c3N([H])[H])C2([H])[H])c1[H])C([H])([H])C([H])([H])Oc1c([H])c([H])c2c(c1[H])C([H])([H])N(C(=O)C([H])(N([H])C(=O)C([H])(N([H])C([H])([H])[H])C([H])([H])[H])C(C([H])([H])[H])(C([H])([H])[H])C([H])([H])[H])C([H])(C(=O)N([H])C1([H])c3c([H])c([H])c([H])c([H])c3C([H])([H])C([H])([H])C1([H])[H])C2([H])[H]

$$$$
96:0:0
     RDKit          3D

 93101  0  0  1  0  0  0  0  0999 V2000
  -29.2990  -21.9060   20.3430 C   0  0  0  0  0  0  0  0  0  0  0  0
  -29.7700  -20.8040   20.9900 N   0  0  0  0  0  0  0  0  0  0  0  0
  -28.8610  -21.8450   19.1900 O   0  0  0  0  0  0  0  0  0  0  0  0
  -29.9290  -20.8960   21.9840 H   0  0  0  0  0  0  0  0  0  0  0  0
  -29.9510  -18.2800   21.0460 C   0  0  0  0  0  3  0  0  0  0  0  0
  -30.7310  -19.5100   19.1190 C   0  0  0  0  0  3  0  0  0  0  0  0
  -30.1220  -19.5360   20.3900 C   0  0  0  0  0  0  0  0  0  0  0  0
  -30.3310  -17.0630   20.3970 C   0  0  0  0  0  0  0  0  0  0  0  0
  -30.8420  -17.1910   19.0740 C   0  0  0  0  0  0  0  0  0  0  0  0
  -31.0490  -16.0240   18.1280 C   0  0  0  0  0  1  0  0  0  0  0  0
  -31.0690  -18.3780   18.4800 N   0  0  0  0  0  0  0  0  0  0  0  0
  -30.8930  -14.6690   20.9500 C   0  0  0  0  0  0  0  0  0  0  0  0
  -30.7370  -12.4040   19.9920 C   0  0  0  0  0  2  0  0  0  0  0  0
  -29.9050  -12.4590   18.6920 C   0  0  0  0  0  2  0  0  0  0  0  0
  -28.3930  -12.3810   18.9860 C   0  0  0  0  0  2  0  0  0  0  0  0
  -27.9370  -13.2980   20.1530 C   0  0  0  0  0  3  0  0  0  0  0  0
  -28.8920  -13.1860   21.3630 C   0  0  0  0  0  2  0  0  0  0  0  0
  -30.2530  -13.4690   20.8870 N   0  0  0  0  0  0  0  0  0  0  0  0
  -32.1010  -14.7860   20.7320 O   0  0  0  0  0  0  0  0  0  0  0  0
  -30.0990  -15.7700   21.0240 N   0  0  0  0  0  0  0  0  0  0  0  0
  -29.1720  -15.6120   21.3920 H   0  0  0  0  0  0  0  0  0  0  0  0
  -25.4900  -13.9170   20.6490 C   0  0  0  0  0  0  0  0  0  0  0  0
  -24.3940  -13.1520   20.9450 C   0  0  0  0  0  0  0  0  0  0  0  0
  -24.8550  -11.8010   20.9890 C   0  0  0  0  0  0  0  0  0  0  0  0
  -26.5510  -13.0310   20.5310 N   0  0  0  0  0  0  0  0  0  0  0  0
  -26.1670  -11.7570   20.7980 N   0  0  0  0  0  0  0  0  0  0  0  0
  -24.1140  -10.5420   21.1450 C   0  0  0  0  0  0  0  0  0  0  0  0
  -24.4750   -9.5900   22.1210 C   0  0  0  0  0  3  0  0  0  0  0  0
  -23.7360   -8.3940   22.2650 C   0  0  0  0  0  3  0  0  0  0  0  0
  -22.6220   -8.1470   21.4300 C   0  0  0  0  0  0  0  0  0  0  0  0
  -22.2790   -9.0880   20.4430 C   0  0  0  0  0  3  0  0  0  0  0  0
  -23.0200  -10.2740   20.2990 C   0  0  0  0  0  3  0  0  0  0  0  0
  -21.8600   -7.0030   21.4800 O   0  0  0  0  0  0  0  0  0  0  0  0
  -21.7320   -6.2750   22.6360 C   0  0  0  0  0  0  0  0  0  0  0  0
  -21.2210   -6.8450   23.8230 C   0  0  0  0  0  3  0  0  0  0  0  0
  -21.0410   -6.0440   24.9680 C   0  0  0  0  0  3  0  0  0  0  0  0
  -21.3600   -4.6730   24.9260 C   0  0  0  0  0  0  0  0  0  0  0  0
  -21.8630   -4.1020   23.7440 C   0  0  0  0  0  3  0  0  0  0  0  0
  -22.0450   -4.9020   22.6010 C   0  0  0  0  0  0  0  0  0  0  0  0
  -22.5110   -4.3430   21.4580 F   0  0  0  0  0  0  0  0  0  0  0  0
  -21.1800   -3.9010   26.0230 F   0  0  0  0  0  0  0  0  0  0  0  0
  -22.9780  -13.6340   21.0810 C   0  0  0  0  0  0  0  0  0  0  0  0
  -22.1780  -12.9630   21.9030 N   0  0  0  0  0  0  0  0  0  0  0  0
  -22.5860  -14.6410   20.4920 O   0  0  0  0  0  0  0  0  0  0  0  0
  -22.5050  -12.1470   22.4000 H   0  0  0  0  0  0  0  0  0  0  0  0
  -21.2250  -13.2690   22.0380 H   0  0  0  0  0  0  0  0  0  0  0  0
  -25.6720  -15.2820   20.4460 N   0  0  0  0  0  0  0  0  0  0  0  0
  -24.8980  -15.9360   20.4520 H   0  0  0  0  0  0  0  0  0  0  0  0
  -26.5420  -15.7020   20.1460 H   0  0  0  0  0  0  0  0  0  0  0  0
  -28.7060  -24.2440   20.7930 C   0  0  0  0  0  0  0  0  0  0  0  0
  -29.3450  -23.1330   21.1490 C   0  0  0  0  0  3  0  0  0  0  0  0
  -27.9460  -25.3220   20.6540 C   0  0  0  0  0  3  0  0  0  0  0  0
  -28.1480  -26.5320   19.9930 O   0  0  0  0  0  0  0  0  0  0  0  0
  -24.5060  -31.8330   23.1250 C   0  0  0  0  0  0  0  0  0  0  0  0
  -27.0480  -27.3760   19.9560 C   0  0  0  0  0  0  0  0  0  0  0  0
  -23.2620  -30.4620   21.4880 C   0  0  0  0  0  3  0  0  0  0  0  0
  -24.6800  -28.9360   20.0100 C   0  0  0  0  0  0  0  0  0  0  0  0
  -25.7900  -30.7950   21.2540 C   0  0  0  0  0  2  0  0  0  0  0  0
  -25.8550  -29.4320   20.5890 C   0  0  0  0  0  0  0  0  0  0  0  0
  -27.0450  -28.6590   20.5600 C   0  0  0  0  0  3  0  0  0  0  0  0
  -25.8590  -26.9150   19.3490 C   0  0  0  0  0  3  0  0  0  0  0  0
  -24.6800  -27.6800   19.3800 C   0  0  0  0  0  3  0  0  0  0  0  0
  -23.4430  -29.8040   20.0940 C   0  0  0  0  0  2  0  0  0  0  0  0
  -24.5380  -31.0450   22.0130 N   0  0  0  0  0  0  0  0  0  0  0  0
  -23.4360  -32.1070   23.6880 O   0  0  0  0  0  0  0  0  0  0  0  0
  -22.6180  -29.4320   22.4460 C   0  0  0  0  0  0  0  0  0  0  0  0
  -21.2880  -29.2700   22.3490 N   0  0  0  0  0  0  0  0  0  0  0  0
  -23.3110  -28.7860   23.2350 O   0  0  0  0  0  0  0  0  0  0  0  0
  -20.7880  -29.8420   21.6820 H   0  0  0  0  0  0  0  0  0  0  0  0
  -17.9090  -28.1100   22.9110 C   0  0  0  0  0  0  0  0  0  0  0  0
  -20.4770  -28.3290   23.1230 C   0  0  0  0  0  3  0  0  0  0  0  0
  -20.5450  -26.9070   22.5190 C   0  0  0  0  0  2  0  0  0  0  0  0
  -19.4150  -26.6180   21.5280 C   0  0  0  0  0  2  0  0  0  0  0  0
  -18.0510  -26.7710   22.2080 C   0  0  0  0  0  2  0  0  0  0  0  0
  -19.0480  -28.8490   23.3260 C   0  0  0  0  0  0  0  0  0  0  0  0
  -18.8620  -30.1050   23.9440 C   0  0  0  0  0  3  0  0  0  0  0  0
  -17.5690  -30.6210   24.1490 C   0  0  0  0  0  3  0  0  0  0  0  0
  -16.4440  -29.8790   23.7510 C   0  0  0  0  0  3  0  0  0  0  0  0
  -16.6160  -28.6240   23.1370 C   0  0  0  0  0  3  0  0  0  0  0  0
  -25.8070  -32.4470   23.7310 C   0  0  0  0  0  3  0  0  0  0  0  0
  -26.3590  -31.6390   24.9680 C   0  0  1  0  0  0  0  0  0  0  0  0
  -25.2970  -31.3720   26.0600 C   0  0  0  0  0  1  0  0  0  0  0  0
  -26.9280  -30.2720   24.5200 C   0  0  0  0  0  1  0  0  0  0  0  0
  -27.5300  -32.4140   25.6190 C   0  0  0  0  0  1  0  0  0  0  0  0
  -25.5080  -33.8350   24.1070 N   0  0  0  0  0  0  0  0  0  0  0  0
  -25.8510  -34.9100   23.3840 C   0  0  0  0  0  0  0  0  0  0  0  0
  -26.5230  -34.8360   22.3510 O   0  0  0  0  0  0  0  0  0  0  0  0
  -24.9150  -33.9670   24.9130 H   0  0  0  0  0  0  0  0  0  0  0  0
  -24.1570  -36.7400   23.0630 C   0  0  0  0  0  1  0  0  0  0  0  0
  -25.3720  -36.2850   23.8870 C   0  0  0  0  0  3  0  0  0  0  0  0
  -27.4990  -37.1030   24.8030 C   0  0  0  0  0  1  0  0  0  0  0  0
  -26.4230  -37.3260   23.8410 N   0  0  0  0  0  0  0  0  0  0  0  0
  -26.0270  -38.2460   24.0160 H   0  0  0  0  0  0  0  0  0  0  0  0
  1  2  1  0
  1 51  1  0
  2  4  1  0
  3  1  2  0
  6  7  1  0
  7  2  1  0
  7  5  2  0
  8 20  1  0
  8  5  1  0
  9  8  2  0
 10  9  1  0
 11  9  1  0
 11  6  2  0
 12 20  1  0
 13 18  1  0
 14 15  1  0
 14 13  1  0
 16 15  1  0
 16 25  1  0
 16 17  1  0
 18 12  1  0
 18 17  1  0
 19 12  2  0
 20 21  1  0
 22 23  2  0
 23 24  1  0
 23 42  1  0
 24 27  1  0
 25 22  1  0
 25 26  1  0
 26 24  2  0
 27 28  1  0
 28 29  2  0
 30 33  1  0
 30 29  1  0
 31 30  2  0
 32 31  1  0
 32 27  2  0
 33 34  1  0
 34 35  1  0
 35 36  2  0
 37 36  1  0
 37 41  1  0
 38 37  2  0
 39 34  2  0
 39 38  1  0
 40 39  1  0
 42 43  1  0
 43 46  1  0
 43 45  1  0
 44 42  2  0
 47 48  1  0
 47 22  1  0
 49 47  1  0
 50 51  2  0
 52 50  2  0
 53 52  1  0
 54 65  2  0
 55 53  1  0
 55 60  1  0
 56 64  1  0
 56 66  1  0
 57 63  1  0
 57 59  1  0
 58 64  1  0
 59 58  1  0
 60 59  2  0
 61 62  1  0
 61 55  2  0
 62 57  2  0
 63 56  1  0
 64 54  1  0
 66 68  2  0
 67 66  1  0
 69 67  1  0
 70 79  2  0
 70 75  1  0
 71 67  1  0
 71 75  1  0
 72 71  1  0
 73 74  1  0
 73 72  1  0
 74 70  1  0
 75 76  2  0
 76 77  1  0
 78 77  2  0
 79 78  1  0
 80 54  1  0
 80 85  1  0
 80 81  1  0
 81 84  1  1
 81 82  1  0
 83 81  1  0
 85 88  1  0
 86 90  1  0
 86 85  1  0
 87 86  2  0
 90 89  1  0
 92 90  1  0
 92 93  1  0
 92 91  1  0
M  ISO  4  12 100  20 100  52 101  53 101
M  END
>  <TORSDO>  (97) 
F 18

>  <SCORE>  (97) 
-14.215

>  <name>  (97) 
96

>  <ligand_id>  (97) 
96

>  <original_smiles>  (97) 
[H]C(=C=C([H])C(=O)N([H])c1c([H])nc(C([H])([H])[H])c(N([H])C(=O)N2C([H])([H])C([H])([H])C([H])([H])C([H])(n3nc(-c4c([H])c([H])c(Oc5c([H])c([H])c(F)c([H])c5F)c([H])c4[H])c(C(=O)N([H])[H])c3N([H])[H])C2([H])[H])c1[H])Oc1c([H])c([H])c2c(c1[H])C([H])([H])N(C(=O)C([H])(N([H])C(=O)C([H])(N([H])C([H])([H])[H])C([H])([H])[H])C(C([H])([H])[H])(C([H])([H])[H])C([H])([H])[H])C([H])(C(=O)N([H])C1([H])c3c([H])c([H])c([H])c([H])c3C([H])([H])C([H])([H])C1([H])[H])C2([H])[H]

>  <smiles>  (97) 
[H]C(=C=C([H])C(=O)N([H])c1c([H])nc(C([H])([H])[H])c(N([H])C(=O)N2C([H])([H])C([H])([H])C([H])([H])C([H])(n3nc(-c4c([H])c([H])c(Oc5c([H])c([H])c(F)c([H])c5F)c([H])c4[H])c(C(=O)N([H])[H])c3N([H])[H])C2([H])[H])c1[H])Oc1c([H])c([H])c2c(c1[H])C([H])([H])N(C(=O)C([H])(N([H])C(=O)C([H])(N([H])C([H])([H])[H])C([H])([H])[H])C(C([H])([H])[H])(C([H])([H])[H])C([H])([H])[H])C([H])(C(=O)N([H])C1([H])c3c([H])c([H])c([H])c([H])c3C([H])([H])C([H])([H])C1([H])[H])C2([H])[H]

$$$$
