0:0:0
     RDKit          3D

 89 97  0  0  1  0  0  0  0  0999 V2000
  -29.2730  -19.7810   20.7140 C   0  0  0  0  0  3  0  0  0  0  0  0
  -31.0340  -18.6220   19.5160 C   0  0  0  0  0  3  0  0  0  0  0  0
  -30.7210  -21.0730   19.2840 C   0  0  0  0  0  3  0  0  0  0  0  0
  -29.9610  -18.5310   20.4220 C   0  0  0  0  0  0  0  0  0  0  0  0
  -29.6140  -21.0770   20.1600 C   0  0  0  0  0  0  0  0  0  0  0  0
  -31.4080  -19.8720   18.9590 C   0  0  0  0  0  0  0  0  0  0  0  0
  -32.5640  -19.9310   17.9810 C   0  0  0  0  0  1  0  0  0  0  0  0
  -29.5270  -17.2130   21.0790 C   0  0  0  0  0  3  0  0  0  0  0  0
  -29.7120  -15.8280   21.1100 C   0  0  0  0  0  3  0  0  0  0  0  0
  -30.5430  -14.7680   20.4270 C   0  0  0  0  0  0  0  0  0  0  0  0
  -30.4030  -12.5180   19.3060 C   0  0  0  0  0  2  0  0  0  0  0  0
  -29.4410  -12.6200   18.0970 C   0  0  0  0  0  2  0  0  0  0  0  0
  -27.9670  -12.4440   18.5220 C   0  0  0  0  0  2  0  0  0  0  0  0
  -27.6120  -13.2780   19.7810 C   0  0  0  0  0  3  0  0  0  0  0  0
  -28.6760  -13.0630   20.8750 C   0  0  0  0  0  2  0  0  0  0  0  0
  -29.9710  -13.5080   20.3230 N   0  0  0  0  0  0  0  0  0  0  0  0
  -31.6680  -14.9580   19.9520 O   0  0  0  0  0  0  0  0  0  0  0  0
  -25.2190  -13.8810   20.4980 C   0  0  0  0  0  0  0  0  0  0  0  0
  -24.1500  -13.1110   20.8720 C   0  0  0  0  0  0  0  0  0  0  0  0
  -24.6110  -11.7590   20.8430 C   0  0  0  0  0  0  0  0  0  0  0  0
  -26.2610  -12.9990   20.2650 N   0  0  0  0  0  0  0  0  0  0  0  0
  -25.9010  -11.7170   20.5310 N   0  0  0  0  0  0  0  0  0  0  0  0
  -23.8840  -10.4970   21.0410 C   0  0  0  0  0  0  0  0  0  0  0  0
  -24.3280   -9.5260   21.9650 C   0  0  0  0  0  3  0  0  0  0  0  0
  -23.6010   -8.3290   22.1480 C   0  0  0  0  0  3  0  0  0  0  0  0
  -22.4160   -8.0970   21.4100 C   0  0  0  0  0  0  0  0  0  0  0  0
  -21.9910   -9.0590   20.4760 C   0  0  0  0  0  3  0  0  0  0  0  0
  -22.7180  -10.2460   20.2900 C   0  0  0  0  0  3  0  0  0  0  0  0
  -21.6600   -6.9530   21.5030 O   0  0  0  0  0  0  0  0  0  0  0  0
  -21.6360   -6.1970   22.6480 C   0  0  0  0  0  0  0  0  0  0  0  0
  -21.2540   -6.7450   23.8920 C   0  0  0  0  0  3  0  0  0  0  0  0
  -21.1760   -5.9160   25.0310 C   0  0  0  0  0  3  0  0  0  0  0  0
  -21.4700   -4.5430   24.9240 C   0  0  0  0  0  0  0  0  0  0  0  0
  -21.8450   -3.9970   23.6850 C   0  0  0  0  0  3  0  0  0  0  0  0
  -21.9250   -4.8220   22.5480 C   0  0  0  0  0  0  0  0  0  0  0  0
  -22.2660   -4.2860   21.3520 F   0  0  0  0  0  0  0  0  0  0  0  0
  -21.3880   -3.7450   26.0150 F   0  0  0  0  0  0  0  0  0  0  0  0
  -22.7540  -13.5910   21.1450 C   0  0  0  0  0  0  0  0  0  0  0  0
  -22.0280  -12.9010   22.0180 N   0  0  0  0  0  0  0  0  0  0  0  0
  -22.3150  -14.6140   20.6210 O   0  0  0  0  0  0  0  0  0  0  0  0
  -22.3950  -12.0740   22.4670 H   0  0  0  0  0  0  0  0  0  0  0  0
  -21.0910  -13.2070   22.2430 H   0  0  0  0  0  0  0  0  0  0  0  0
  -25.3870  -15.2520   20.3200 N   0  0  0  0  0  0  0  0  0  0  0  0
  -24.6280  -15.9150   20.4370 H   0  0  0  0  0  0  0  0  0  0  0  0
  -26.2470  -15.6880   20.0130 H   0  0  0  0  0  0  0  0  0  0  0  0
  -28.8250  -22.3800   20.4430 C   0  0  0  0  0  3  0  0  0  0  0  0
  -29.0020  -23.7100   20.0750 C   0  0  0  0  0  3  0  0  0  0  0  0
  -27.9590  -24.8860   20.3260 C   0  0  0  0  0  2  0  0  0  0  0  0
  -28.2920  -26.3550   20.2000 O   0  0  0  0  0  0  0  0  0  0  0  0
  -24.6150  -31.8890   23.2290 C   0  0  0  0  0  0  0  0  0  0  0  0
  -27.2000  -27.2680   20.1660 C   0  0  0  0  0  0  0  0  0  0  0  0
  -23.4050  -30.4920   21.5980 C   0  0  0  0  0  3  0  0  0  0  0  0
  -24.8480  -28.9380   20.1670 C   0  0  0  0  0  0  0  0  0  0  0  0
  -25.9520  -30.7840   21.4180 C   0  0  0  0  0  2  0  0  0  0  0  0
  -26.0250  -29.4020   20.7690 C   0  0  0  0  0  0  0  0  0  0  0  0
  -27.2020  -28.5800   20.7620 C   0  0  0  0  0  3  0  0  0  0  0  0
  -25.9980  -26.8930   19.5200 C   0  0  0  0  0  3  0  0  0  0  0  0
  -24.8420  -27.6910   19.5320 C   0  0  0  0  0  3  0  0  0  0  0  0
  -23.6160  -29.8210   20.2170 C   0  0  0  0  0  2  0  0  0  0  0  0
  -24.6760  -31.0740   22.1360 N   0  0  0  0  0  0  0  0  0  0  0  0
  -23.5340  -32.1730   23.7620 O   0  0  0  0  0  0  0  0  0  0  0  0
  -22.7400  -29.4760   22.5590 C   0  0  0  0  0  0  0  0  0  0  0  0
  -21.4140  -29.3000   22.4340 N   0  0  0  0  0  0  0  0  0  0  0  0
  -23.4180  -28.8530   23.3810 O   0  0  0  0  0  0  0  0  0  0  0  0
  -20.9250  -29.8550   21.7440 H   0  0  0  0  0  0  0  0  0  0  0  0
  -18.0380  -28.0980   22.9330 C   0  0  0  0  0  0  0  0  0  0  0  0
  -20.5940  -28.3670   23.2090 C   0  0  0  0  0  3  0  0  0  0  0  0
  -20.7020  -26.9300   22.6460 C   0  0  0  0  0  2  0  0  0  0  0  0
  -19.6050  -26.5960   21.6310 C   0  0  0  0  0  2  0  0  0  0  0  0
  -18.2210  -26.7430   22.2690 C   0  0  0  0  0  2  0  0  0  0  0  0
  -19.1520  -28.8660   23.3610 C   0  0  0  0  0  0  0  0  0  0  0  0
  -18.9260  -30.1330   23.9410 C   0  0  0  0  0  3  0  0  0  0  0  0
  -17.6180  -30.6300   24.1020 C   0  0  0  0  0  3  0  0  0  0  0  0
  -16.5190  -29.8570   23.6910 C   0  0  0  0  0  3  0  0  0  0  0  0
  -16.7290  -28.5940   23.1110 C   0  0  0  0  0  3  0  0  0  0  0  0
  -25.9000  -32.5230   23.8460 C   0  0  0  0  0  3  0  0  0  0  0  0
  -26.4220  -31.7500   25.1190 C   0  0  1  0  0  0  0  0  0  0  0  0
  -25.3330  -31.5130   26.1920 C   0  0  0  0  0  1  0  0  0  0  0  0
  -27.0010  -30.3710   24.7280 C   0  0  0  0  0  1  0  0  0  0  0  0
  -27.5770  -32.5420   25.7760 C   0  0  0  0  0  1  0  0  0  0  0  0
  -25.5880  -33.9190   24.1810 N   0  0  0  0  0  0  0  0  0  0  0  0
  -25.9120  -34.9770   23.4250 C   0  0  0  0  0  0  0  0  0  0  0  0
  -26.5730  -34.8780   22.3880 O   0  0  0  0  0  0  0  0  0  0  0  0
  -24.9970  -34.0700   24.9860 H   0  0  0  0  0  0  0  0  0  0  0  0
  -24.1770  -36.7700   23.0960 C   0  0  0  0  0  1  0  0  0  0  0  0
  -25.4260  -36.3620   23.8920 C   0  0  0  0  0  3  0  0  0  0  0  0
  -27.5680  -37.2480   24.7030 C   0  0  0  0  0  1  0  0  0  0  0  0
  -26.4550  -37.4170   23.7740 N   0  0  0  0  0  0  0  0  0  0  0  0
  -26.0470  -38.3360   23.9320 H   0  0  0  0  0  0  0  0  0  0  0  0
  2  4  2  0
  3  5  1  0
  4  1  1  0
  4  8  1  0
  5 46  1  0
  5  1  2  0
  6  3  2  0
  6  2  1  0
  7  6  1  0
  8  9  2  0
 10  9  1  0
 11 16  1  0
 12 13  1  0
 12 11  1  0
 14 13  1  0
 14 21  1  0
 14 15  1  0
 16 10  1  0
 16 15  1  0
 17 10  2  0
 18 19  2  0
 19 38  1  0
 20 19  1  0
 20 23  1  0
 21 18  1  0
 21 22  1  0
 22 20  2  0
 23 24  1  0
 24 25  2  0
 26 29  1  0
 26 25  1  0
 27 26  2  0
 28 27  1  0
 28 23  2  0
 29 30  1  0
 30 31  1  0
 31 32  2  0
 33 32  1  0
 33 37  1  0
 34 33  2  0
 35 30  2  0
 35 34  1  0
 36 35  1  0
 38 39  1  0
 39 42  1  0
 39 41  1  0
 40 38  2  0
 43 44  1  0
 43 18  1  0
 45 43  1  0
 47 48  1  0
 47 46  2  0
 49 48  1  0
 50 61  2  0
 51 49  1  0
 51 56  1  0
 52 60  1  0
 52 62  1  0
 53 59  1  0
 53 55  1  0
 54 60  1  0
 55 54  1  0
 56 55  2  0
 57 58  1  0
 57 51  2  0
 58 53  2  0
 59 52  1  0
 60 50  1  0
 62 64  2  0
 63 62  1  0
 65 63  1  0
 66 75  2  0
 66 71  1  0
 67 63  1  0
 67 71  1  0
 68 67  1  0
 69 70  1  0
 69 68  1  0
 70 66  1  0
 71 72  2  0
 72 73  1  0
 74 73  2  0
 75 74  1  0
 76 50  1  0
 76 81  1  0
 76 77  1  0
 77 80  1  1
 77 78  1  0
 79 77  1  0
 81 84  1  0
 82 86  1  0
 82 81  1  0
 83 82  2  0
 86 85  1  0
 88 86  1  0
 88 89  1  0
 88 87  1  0
M  ISO  4   9 100  10 100  48 101  49 101
M  END
>  <TORSDO>  (1) 
F 19

>  <SCORE>  (1) 
-14.287

>  <name>  (1) 
0

>  <ligand_id>  (1) 
0

>  <original_smiles>  (1) 
[H]C(C(=O)N1C([H])([H])C([H])([H])C([H])([H])C([H])(n2nc(-c3c([H])c([H])c(Oc4c([H])c([H])c(F)c([H])c4F)c([H])c3[H])c(C(=O)N([H])[H])c2N([H])[H])C1([H])[H])=C([H])c1c([H])c(C([H])=C([H])C([H])([H])Oc2c([H])c([H])c3c(c2[H])C([H])([H])N(C(=O)C([H])(N([H])C(=O)C([H])(N([H])C([H])([H])[H])C([H])([H])[H])C(C([H])([H])[H])(C([H])([H])[H])C([H])([H])[H])C([H])(C(=O)N([H])C2([H])c4c([H])c([H])c([H])c([H])c4C([H])([H])C([H])([H])C2([H])[H])C3([H])[H])c([H])c(C([H])([H])[H])c1[H]

>  <smiles>  (1) 
[H]C(C(=O)N1C([H])([H])C([H])([H])C([H])([H])C([H])(n2nc(-c3c([H])c([H])c(Oc4c([H])c([H])c(F)c([H])c4F)c([H])c3[H])c(C(=O)N([H])[H])c2N([H])[H])C1([H])[H])=C([H])c1c([H])c(C([H])=C([H])C([H])([H])Oc2c([H])c([H])c3c(c2[H])C([H])([H])N(C(=O)C([H])(N([H])C(=O)C([H])(N([H])C([H])([H])[H])C([H])([H])[H])C(C([H])([H])[H])(C([H])([H])[H])C([H])([H])[H])C([H])(C(=O)N([H])C2([H])c4c([H])c([H])c([H])c([H])c4C([H])([H])C([H])([H])C2([H])[H])C3([H])[H])c([H])c(C([H])([H])[H])c1[H]

$$$$
1:0:0
     RDKit          3D

 92100  0  0  1  0  0  0  0  0999 V2000
  -29.3870  -21.5210   21.7440 C   0  0  0  0  0  0  0  0  0  0  0  0
  -29.4160  -21.4550   22.9760 O   0  0  0  0  0  0  0  0  0  0  0  0
  -29.0940  -17.7390   19.7000 C   0  0  0  0  0  3  0  0  0  0  0  0
  -28.1850  -18.7630   19.3890 C   0  0  0  0  0  3  0  0  0  0  0  0
  -30.2410  -19.2020   21.2580 C   0  0  0  0  0  3  0  0  0  0  0  0
  -30.1520  -17.9450   20.6200 C   0  0  0  0  0  0  0  0  0  0  0  0
  -29.3070  -20.2310   20.9840 C   0  0  0  0  0  0  0  0  0  0  0  0
  -28.2840  -20.0160   20.0210 C   0  0  0  0  0  0  0  0  0  0  0  0
  -27.2590  -21.0870   19.6660 C   0  0  0  0  0  1  0  0  0  0  0  0
  -31.1700  -16.8900   20.8590 C   0  0  0  0  0  3  0  0  0  0  0  0
  -30.9930  -15.6280   20.4140 C   0  0  0  0  0  3  0  0  0  0  0  0
  -31.8990  -14.4930   20.5870 C   0  0  0  0  0  0  0  0  0  0  0  0
  -31.7430  -12.0190   20.5200 C   0  0  0  0  0  2  0  0  0  0  0  0
  -30.9630  -11.5920   19.2570 C   0  0  0  0  0  2  0  0  0  0  0  0
  -29.4370  -11.6180   19.4980 C   0  0  0  0  0  2  0  0  0  0  0  0
  -28.9650  -12.9430   20.1420 C   0  0  0  0  0  3  0  0  0  0  0  0
  -29.8450  -13.2530   21.3770 C   0  0  0  0  0  2  0  0  0  0  0  0
  -31.2470  -13.3420   20.9220 N   0  0  0  0  0  0  0  0  0  0  0  0
  -33.0990  -14.5130   20.2870 O   0  0  0  0  0  0  0  0  0  0  0  0
  -26.6430  -13.9610   20.6030 C   0  0  0  0  0  0  0  0  0  0  0  0
  -25.4320  -13.3790   20.8590 C   0  0  0  0  0  0  0  0  0  0  0  0
  -25.6690  -11.9710   20.8770 C   0  0  0  0  0  0  0  0  0  0  0  0
  -27.5470  -12.9150   20.4790 N   0  0  0  0  0  0  0  0  0  0  0  0
  -26.9590  -11.7150   20.7060 N   0  0  0  0  0  0  0  0  0  0  0  0
  -24.7370  -10.8450   20.9930 C   0  0  0  0  0  0  0  0  0  0  0  0
  -24.9560   -9.8010   21.9190 C   0  0  0  0  0  3  0  0  0  0  0  0
  -24.0390   -8.7320   22.0230 C   0  0  0  0  0  3  0  0  0  0  0  0
  -22.8870   -8.7050   21.2000 C   0  0  0  0  0  0  0  0  0  0  0  0
  -22.6870   -9.7350   20.2640 C   0  0  0  0  0  3  0  0  0  0  0  0
  -23.6030  -10.7940   20.1580 C   0  0  0  0  0  3  0  0  0  0  0  0
  -21.9530   -7.6970   21.2150 O   0  0  0  0  0  0  0  0  0  0  0  0
  -21.7190   -6.9480   22.3400 C   0  0  0  0  0  0  0  0  0  0  0  0
  -21.3620   -7.5430   23.5700 C   0  0  0  0  0  3  0  0  0  0  0  0
  -21.0600   -6.7340   24.6830 C   0  0  0  0  0  3  0  0  0  0  0  0
  -21.1060   -5.3310   24.5670 C   0  0  0  0  0  0  0  0  0  0  0  0
  -21.4560   -4.7370   23.3410 C   0  0  0  0  0  3  0  0  0  0  0  0
  -21.7580   -5.5440   22.2310 C   0  0  0  0  0  0  0  0  0  0  0  0
  -22.0730   -4.9660   21.0470 F   0  0  0  0  0  0  0  0  0  0  0  0
  -20.8090   -4.5520   25.6330 F   0  0  0  0  0  0  0  0  0  0  0  0
  -24.1090  -14.0760   20.9900 C   0  0  0  0  0  0  0  0  0  0  0  0
  -23.2060  -13.5260   21.7940 N   0  0  0  0  0  0  0  0  0  0  0  0
  -23.8850  -15.1420   20.4170 O   0  0  0  0  0  0  0  0  0  0  0  0
  -23.3990  -12.6640   22.2820 H   0  0  0  0  0  0  0  0  0  0  0  0
  -22.3080  -13.9700   21.9220 H   0  0  0  0  0  0  0  0  0  0  0  0
  -27.0490  -15.2840   20.4470 N   0  0  0  0  0  0  0  0  0  0  0  0
  -26.4000  -16.0610   20.5210 H   0  0  0  0  0  0  0  0  0  0  0  0
  -27.9950  -15.5830   20.2500 H   0  0  0  0  0  0  0  0  0  0  0  0
  -29.3020  -23.7850   21.5440 C   0  0  0  0  0  3  0  0  0  0  0  0
  -29.4020  -22.6590   20.9490 N   0  0  0  0  0  0  0  0  0  0  0  0
  -29.2940  -25.1070   20.8010 C   0  0  0  0  0  2  0  0  0  0  0  0
  -29.7900  -26.2760   21.6720 C   0  0  0  0  0  2  0  0  0  0  0  0
  -29.6980  -27.5110   20.9660 O   0  0  0  0  0  0  0  0  0  0  0  0
  -24.9450  -31.9970   23.7890 C   0  0  0  0  0  0  0  0  0  0  0  0
  -28.4440  -28.0600   20.9150 C   0  0  0  0  0  0  0  0  0  0  0  0
  -24.1060  -30.5210   21.9880 C   0  0  0  0  0  3  0  0  0  0  0  0
  -25.8860  -29.2220   20.7040 C   0  0  0  0  0  0  0  0  0  0  0  0
  -26.5680  -31.2000   22.0760 C   0  0  0  0  0  2  0  0  0  0  0  0
  -26.8940  -29.8730   21.4280 C   0  0  0  0  0  0  0  0  0  0  0  0
  -28.1770  -29.2960   21.5370 C   0  0  0  0  0  3  0  0  0  0  0  0
  -27.4260  -27.4120   20.1870 C   0  0  0  0  0  3  0  0  0  0  0  0
  -26.1430  -27.9850   20.0860 C   0  0  0  0  0  3  0  0  0  0  0  0
  -24.5460  -29.9200   20.6260 C   0  0  0  0  0  2  0  0  0  0  0  0
  -25.2160  -31.2550   22.6780 N   0  0  0  0  0  0  0  0  0  0  0  0
  -23.7880  -32.1130   24.2170 O   0  0  0  0  0  0  0  0  0  0  0  0
  -23.4870  -29.3940   22.8460 C   0  0  0  0  0  0  0  0  0  0  0  0
  -22.2260  -29.0410   22.5510 N   0  0  0  0  0  0  0  0  0  0  0  0
  -24.1450  -28.8410   23.7320 O   0  0  0  0  0  0  0  0  0  0  0  0
  -21.7560  -29.5390   21.8060 H   0  0  0  0  0  0  0  0  0  0  0  0
  -19.0000  -27.4170   22.6390 C   0  0  0  0  0  0  0  0  0  0  0  0
  -21.4590  -27.9800   23.2040 C   0  0  0  0  0  3  0  0  0  0  0  0
  -21.8060  -26.5950   22.6100 C   0  0  0  0  0  2  0  0  0  0  0  0
  -20.8710  -26.1740   21.4720 C   0  0  0  0  0  2  0  0  0  0  0  0
  -19.4200  -26.1230   21.9620 C   0  0  0  0  0  2  0  0  0  0  0  0
  -19.9590  -28.2940   23.2110 C   0  0  0  0  0  0  0  0  0  0  0  0
  -19.5170  -29.4950   23.8070 C   0  0  0  0  0  3  0  0  0  0  0  0
  -18.1480  -29.8240   23.8370 C   0  0  0  0  0  3  0  0  0  0  0  0
  -17.2030  -28.9460   23.2790 C   0  0  0  0  0  3  0  0  0  0  0  0
  -17.6280  -27.7440   22.6860 C   0  0  0  0  0  3  0  0  0  0  0  0
  -26.0710  -32.7540   24.5600 C   0  0  0  0  0  3  0  0  0  0  0  0
  -25.6630  -34.1600   24.6680 N   0  0  0  0  0  0  0  0  0  0  0  0
  -26.0770  -35.1360   23.8500 C   0  0  0  0  0  0  0  0  0  0  0  0
  -26.9110  -34.9560   22.9580 O   0  0  0  0  0  0  0  0  0  0  0  0
  -24.9360  -34.3690   25.3370 H   0  0  0  0  0  0  0  0  0  0  0  0
  -24.3550  -36.7710   23.0200 C   0  0  0  0  0  1  0  0  0  0  0  0
  -25.4690  -36.5390   24.0520 C   0  0  0  0  0  3  0  0  0  0  0  0
  -27.4270  -37.6220   25.0620 C   0  0  0  0  0  1  0  0  0  0  0  0
  -26.4650  -37.6290   23.9640 N   0  0  0  0  0  0  0  0  0  0  0  0
  -26.0060  -38.5360   23.9480 H   0  0  0  0  0  0  0  0  0  0  0  0
  -26.3680  -32.1450   25.9860 C   0  0  1  0  0  0  0  0  0  0  0  0
  -25.1000  -31.9030   26.8350 C   0  0  0  0  0  1  0  0  0  0  0  0
  -27.1160  -30.7970   25.8590 C   0  0  0  0  0  1  0  0  0  0  0  0
  -27.2990  -33.0940   26.7770 C   0  0  0  0  0  1  0  0  0  0  0  0
  1  2  2  0
  3  6  1  0
  4  3  2  0
  4  8  1  0
  6 10  1  0
  6  5  2  0
  7  5  1  0
  7  1  1  0
  8  7  2  0
  9  8  1  0
 11 12  1  0
 11 10  2  0
 12 18  1  0
 13 18  1  0
 14 15  1  0
 14 13  1  0
 16 15  1  0
 16 23  1  0
 16 17  1  0
 18 17  1  0
 19 12  2  0
 20 21  2  0
 21 22  1  0
 21 40  1  0
 22 25  1  0
 23 20  1  0
 23 24  1  0
 24 22  2  0
 25 26  1  0
 26 27  2  0
 28 31  1  0
 28 27  1  0
 29 28  2  0
 30 29  1  0
 30 25  2  0
 31 32  1  0
 32 33  1  0
 33 34  2  0
 35 34  1  0
 35 39  1  0
 36 35  2  0
 37 32  2  0
 37 36  1  0
 38 37  1  0
 40 41  1  0
 41 44  1  0
 41 43  1  0
 42 40  2  0
 45 46  1  0
 45 20  1  0
 47 45  1  0
 49 48  2  0
 49  1  1  0
 50 48  1  0
 50 51  1  0
 52 51  1  0
 53 64  2  0
 54 52  1  0
 54 59  1  0
 55 63  1  0
 55 65  1  0
 56 58  1  0
 57 63  1  0
 58 59  2  0
 58 57  1  0
 60 54  2  0
 61 60  1  0
 61 56  2  0
 62 56  1  0
 62 55  1  0
 63 53  1  0
 65 67  2  0
 66 65  1  0
 68 66  1  0
 69 78  2  0
 69 74  1  0
 70 66  1  0
 70 74  1  0
 71 70  1  0
 72 73  1  0
 72 71  1  0
 73 69  1  0
 74 75  2  0
 75 76  1  0
 77 76  2  0
 78 77  1  0
 79 53  1  0
 79 80  1  0
 79 89  1  0
 80 83  1  0
 81 85  1  0
 81 80  1  0
 82 81  2  0
 85 84  1  0
 87 85  1  0
 87 86  1  0
 88 87  1  0
 89 92  1  1
 89 90  1  0
 91 89  1  0
M  ISO  4  11 100  12 100  51 101  52 101
M  END
>  <TORSDO>  (2) 
F 21

>  <SCORE>  (2) 
-11.072

>  <name>  (2) 
1

>  <ligand_id>  (2) 
1

>  <original_smiles>  (2) 
[H]C(=NC(=O)c1c([H])c(C([H])=C([H])C(=O)N2C([H])([H])C([H])([H])C([H])([H])C([H])(n3nc(-c4c([H])c([H])c(Oc5c([H])c([H])c(F)c([H])c5F)c([H])c4[H])c(C(=O)N([H])[H])c3N([H])[H])C2([H])[H])c([H])c([H])c1C([H])([H])[H])C([H])([H])C([H])([H])Oc1c([H])c([H])c2c(c1[H])C([H])([H])N(C(=O)C([H])(N([H])C(=O)C([H])(N([H])C([H])([H])[H])C([H])([H])[H])C(C([H])([H])[H])(C([H])([H])[H])C([H])([H])[H])C([H])(C(=O)N([H])C1([H])c3c([H])c([H])c([H])c([H])c3C([H])([H])C([H])([H])C1([H])[H])C2([H])[H]

>  <smiles>  (2) 
[H]C(=NC(=O)c1c([H])c(C([H])=C([H])C(=O)N2C([H])([H])C([H])([H])C([H])([H])C([H])(n3nc(-c4c([H])c([H])c(Oc5c([H])c([H])c(F)c([H])c5F)c([H])c4[H])c(C(=O)N([H])[H])c3N([H])[H])C2([H])[H])c([H])c([H])c1C([H])([H])[H])C([H])([H])C([H])([H])Oc1c([H])c([H])c2c(c1[H])C([H])([H])N(C(=O)C([H])(N([H])C(=O)C([H])(N([H])C([H])([H])[H])C([H])([H])[H])C(C([H])([H])[H])(C([H])([H])[H])C([H])([H])[H])C([H])(C(=O)N([H])C1([H])c3c([H])c([H])c([H])c([H])c3C([H])([H])C([H])([H])C1([H])[H])C2([H])[H]

$$$$
2:0:0
     RDKit          3D

 94103  0  0  1  0  0  0  0  0999 V2000
  -29.4870  -24.1790   19.4630 C   0  0  0  0  0  0  0  0  0  0  0  0
  -28.7070  -25.1960   19.9400 C   0  0  0  0  0  2  0  0  0  0  0  0
  -30.5140  -20.5990   18.4520 C   0  0  0  0  0  0  0  0  0  0  0  0
  -30.7970  -24.3580   18.7600 C   0  0  0  0  0  3  0  0  0  0  0  0
  -29.2160  -22.6600   19.5350 C   0  0  0  0  0  3  0  0  0  0  0  0
  -31.1810  -22.9650   18.2250 C   0  0  0  0  0  3  0  0  0  0  0  0
  -30.2620  -21.9340   18.7550 N   0  0  0  0  0  0  0  0  0  0  0  0
  -31.4860  -20.3310   17.7350 O   0  0  0  0  0  0  0  0  0  0  0  0
  -28.2940  -19.4580   19.1020 C   0  0  0  0  0  3  0  0  0  0  0  0
  -30.3250  -18.0980   19.1860 C   0  0  0  0  0  3  0  0  0  0  0  0
  -28.1830  -17.1160   19.7700 C   0  0  0  0  0  3  0  0  0  0  0  0
  -29.6920  -19.3770   18.9100 C   0  0  0  0  0  0  0  0  0  0  0  0
  -27.5460  -18.3430   19.5160 C   0  0  0  0  0  0  0  0  0  0  0  0
  -29.5770  -16.9530   19.6220 C   0  0  0  0  0  0  0  0  0  0  0  0
  -26.0430  -18.4660   19.6680 C   0  0  0  0  0  1  0  0  0  0  0  0
  -30.8760  -14.6580   19.3960 C   0  0  0  0  0  0  0  0  0  0  0  0
  -30.9810  -12.2150   18.8970 C   0  0  0  0  0  2  0  0  0  0  0  0
  -29.9170  -11.8930   17.8210 C   0  0  0  0  0  2  0  0  0  0  0  0
  -28.5230  -11.6680   18.4460 C   0  0  0  0  0  2  0  0  0  0  0  0
  -28.1500  -12.7620   19.4800 C   0  0  0  0  0  3  0  0  0  0  0  0
  -29.3150  -12.9840   20.4700 C   0  0  0  0  0  2  0  0  0  0  0  0
  -30.5030  -13.3690   19.6790 N   0  0  0  0  0  0  0  0  0  0  0  0
  -31.8820  -14.9250   18.7300 O   0  0  0  0  0  0  0  0  0  0  0  0
  -30.0000  -15.5830   19.8800 N   0  0  0  0  0  0  0  0  0  0  0  0
  -29.3840  -15.1220   20.5310 H   0  0  0  0  0  0  0  0  0  0  0  0
  -25.9410  -13.3210   20.6770 C   0  0  0  0  0  0  0  0  0  0  0  0
  -24.9360  -12.5270   21.1610 C   0  0  0  0  0  0  0  0  0  0  0  0
  -25.3440  -11.1810   20.9140 C   0  0  0  0  0  0  0  0  0  0  0  0
  -26.8990  -12.4550   20.1710 N   0  0  0  0  0  0  0  0  0  0  0  0
  -26.5530  -11.1570   20.3690 N   0  0  0  0  0  0  0  0  0  0  0  0
  -24.6280   -9.9140   21.1130 C   0  0  0  0  0  0  0  0  0  0  0  0
  -25.0390   -8.9780   22.0870 C   0  0  0  0  0  3  0  0  0  0  0  0
  -24.3240   -7.7760   22.2710 C   0  0  0  0  0  3  0  0  0  0  0  0
  -23.1830   -7.4990   21.4800 C   0  0  0  0  0  0  0  0  0  0  0  0
  -22.7920   -8.4250   20.4950 C   0  0  0  0  0  3  0  0  0  0  0  0
  -23.5070   -9.6190   20.3100 C   0  0  0  0  0  3  0  0  0  0  0  0
  -22.4420   -6.3450   21.5710 O   0  0  0  0  0  0  0  0  0  0  0  0
  -22.1400   -5.7780   22.7830 C   0  0  0  0  0  0  0  0  0  0  0  0
  -21.4320   -6.4850   23.7800 C   0  0  0  0  0  3  0  0  0  0  0  0
  -21.0780   -5.8420   24.9820 C   0  0  0  0  0  3  0  0  0  0  0  0
  -21.4240   -4.4930   25.1880 C   0  0  0  0  0  0  0  0  0  0  0  0
  -22.1250   -3.7860   24.1950 C   0  0  0  0  0  3  0  0  0  0  0  0
  -22.4780   -4.4270   22.9940 C   0  0  0  0  0  0  0  0  0  0  0  0
  -23.1340   -3.7340   22.0320 F   0  0  0  0  0  0  0  0  0  0  0  0
  -21.0790   -3.8720   26.3410 F   0  0  0  0  0  0  0  0  0  0  0  0
  -23.6270  -12.9900   21.7360 C   0  0  0  0  0  0  0  0  0  0  0  0
  -23.0740  -12.2410   22.6840 N   0  0  0  0  0  0  0  0  0  0  0  0
  -23.1100  -14.0490   21.3800 O   0  0  0  0  0  0  0  0  0  0  0  0
  -23.5080  -11.3820   22.9890 H   0  0  0  0  0  0  0  0  0  0  0  0
  -22.2060  -12.5290   23.1110 H   0  0  0  0  0  0  0  0  0  0  0  0
  -26.1130  -14.7010   20.6080 N   0  0  0  0  0  0  0  0  0  0  0  0
  -25.4040  -15.3520   20.9270 H   0  0  0  0  0  0  0  0  0  0  0  0
  -26.9060  -15.1600   20.1790 H   0  0  0  0  0  0  0  0  0  0  0  0
  -29.0050  -26.5660   19.8940 O   0  0  0  0  0  0  0  0  0  0  0  0
  -25.6550  -31.4720   23.9710 C   0  0  0  0  0  0  0  0  0  0  0  0
  -27.9620  -27.4800   20.0470 C   0  0  0  0  0  0  0  0  0  0  0  0
  -24.3990  -30.6160   22.0220 C   0  0  0  0  0  3  0  0  0  0  0  0
  -25.7590  -29.2660   20.3280 C   0  0  0  0  0  0  0  0  0  0  0  0
  -26.9610  -30.6950   21.9860 C   0  0  0  0  0  2  0  0  0  0  0  0
  -26.9360  -29.4940   21.0530 C   0  0  0  0  0  0  0  0  0  0  0  0
  -28.0420  -28.6110   20.9080 C   0  0  0  0  0  3  0  0  0  0  0  0
  -26.7700  -27.2950   19.3130 C   0  0  0  0  0  3  0  0  0  0  0  0
  -25.6750  -28.1710   19.4520 C   0  0  0  0  0  3  0  0  0  0  0  0
  -24.6140  -30.2380   20.5320 C   0  0  0  0  0  2  0  0  0  0  0  0
  -25.6890  -30.9300   22.7200 N   0  0  0  0  0  0  0  0  0  0  0  0
  -24.5800  -31.7440   24.5260 O   0  0  0  0  0  0  0  0  0  0  0  0
  -23.5880  -29.4930   22.7090 C   0  0  0  0  0  0  0  0  0  0  0  0
  -22.2650  -29.4790   22.4800 N   0  0  0  0  0  0  0  0  0  0  0  0
  -24.1510  -28.6470   23.4100 O   0  0  0  0  0  0  0  0  0  0  0  0
  -21.8780  -30.2130   21.9020 H   0  0  0  0  0  0  0  0  0  0  0  0
  -18.7640  -28.5760   22.5740 C   0  0  0  0  0  0  0  0  0  0  0  0
  -21.3140  -28.4900   22.9890 C   0  0  0  0  0  3  0  0  0  0  0  0
  -21.3100  -27.2180   22.1110 C   0  0  0  0  0  2  0  0  0  0  0  0
  -20.2450  -27.2470   21.0100 C   0  0  0  0  0  2  0  0  0  0  0  0
  -18.8480  -27.3960   21.6200 C   0  0  0  0  0  2  0  0  0  0  0  0
  -19.9250  -29.0990   23.2040 C   0  0  0  0  0  0  0  0  0  0  0  0
  -19.7950  -30.2180   24.0560 C   0  0  0  0  0  3  0  0  0  0  0  0
  -18.5390  -30.8090   24.2830 C   0  0  0  0  0  3  0  0  0  0  0  0
  -17.3910  -30.2780   23.6670 C   0  0  0  0  0  3  0  0  0  0  0  0
  -17.5050  -29.1630   22.8190 C   0  0  0  0  0  3  0  0  0  0  0  0
  -26.9640  -31.8000   24.7560 C   0  0  0  0  0  3  0  0  0  0  0  0
  -26.7620  -33.0880   25.4340 N   0  0  0  0  0  0  0  0  0  0  0  0
  -27.1720  -34.2710   24.9580 C   0  0  0  0  0  0  0  0  0  0  0  0
  -27.8290  -34.3830   23.9200 O   0  0  0  0  0  0  0  0  0  0  0  0
  -26.1850  -33.0770   26.2610 H   0  0  0  0  0  0  0  0  0  0  0  0
  -25.5650  -36.1990   25.1250 C   0  0  0  0  0  1  0  0  0  0  0  0
  -26.7930  -35.5300   25.7620 C   0  0  0  0  0  3  0  0  0  0  0  0
  -29.0000  -36.0520   26.7050 C   0  0  0  0  0  1  0  0  0  0  0  0
  -27.8940  -36.5130   25.8700 N   0  0  0  0  0  0  0  0  0  0  0  0
  -27.5560  -37.3930   26.2500 H   0  0  0  0  0  0  0  0  0  0  0  0
  -27.3630  -30.6800   25.7950 C   0  0  1  0  0  0  0  0  0  0  0  0
  -26.2130  -30.2780   26.7470 C   0  0  0  0  0  1  0  0  0  0  0  0
  -27.8410  -29.4030   25.0650 C   0  0  0  0  0  1  0  0  0  0  0  0
  -28.5490  -31.1680   26.6590 C   0  0  0  0  0  1  0  0  0  0  0  0
  1  5  2  0
  1  2  1  0
  3  7  1  0
  3 12  1  0
  4  1  1  0
  6  7  1  0
  6  4  2  0
  7  5  1  0
  8  3  2  0
  9 13  1  0
 10 14  2  0
 12  9  2  0
 12 10  1  0
 13 15  1  0
 13 11  2  0
 14 11  1  0
 14 24  1  0
 16 22  1  0
 16 24  1  0
 17 22  1  0
 18 19  1  0
 18 17  1  0
 20 19  1  0
 20 29  1  0
 20 21  1  0
 22 21  1  0
 23 16  2  0
 24 25  1  0
 26 27  2  0
 27 46  1  0
 28 31  1  0
 28 27  1  0
 29 30  1  0
 29 26  1  0
 30 28  2  0
 31 32  1  0
 32 33  2  0
 34 37  1  0
 34 33  1  0
 35 34  2  0
 36 35  1  0
 36 31  2  0
 37 38  1  0
 38 43  2  0
 38 39  1  0
 39 40  2  0
 40 41  1  0
 41 45  1  0
 42 41  2  0
 43 42  1  0
 44 43  1  0
 46 47  1  0
 47 49  1  0
 47 50  1  0
 48 46  2  0
 51 26  1  0
 51 52  1  0
 53 51  1  0
 54  2  1  0
 54 56  1  0
 55 66  2  0
 56 61  1  0
 57 67  1  0
 57 65  1  0
 58 64  1  0
 58 60  1  0
 59 65  1  0
 60 59  1  0
 61 60  2  0
 62 63  1  0
 62 56  2  0
 63 58  2  0
 64 57  1  0
 65 55  1  0
 67 69  2  0
 68 67  1  0
 70 68  1  0
 71 80  2  0
 71 76  1  0
 72 68  1  0
 72 76  1  0
 73 72  1  0
 74 75  1  0
 74 73  1  0
 75 71  1  0
 76 77  2  0
 77 78  1  0
 79 78  2  0
 80 79  1  0
 81 55  1  0
 81 82  1  0
 81 91  1  0
 82 85  1  0
 83 82  1  0
 83 87  1  0
 84 83  2  0
 87 86  1  0
 87 89  1  0
 89 90  1  0
 89 88  1  0
 91 94  1  1
 91 92  1  0
 93 91  1  0
M  ISO  4   2 101  16 100  24 100  54 101
M  END
>  <TORSDO>  (3) 
F 17

>  <SCORE>  (3) 
-9.315

>  <name>  (3) 
2

>  <ligand_id>  (3) 
2

>  <original_smiles>  (3) 
[H]C(Oc1c([H])c([H])c2c(c1[H])C([H])([H])N(C(=O)C([H])(N([H])C(=O)C([H])(N([H])C([H])([H])[H])C([H])([H])[H])C(C([H])([H])[H])(C([H])([H])[H])C([H])([H])[H])C([H])(C(=O)N([H])C1([H])c3c([H])c([H])c([H])c([H])c3C([H])([H])C([H])([H])C1([H])[H])C2([H])[H])=C1C([H])([H])N(C(=O)c2c([H])c(N([H])C(=O)N3C([H])([H])C([H])([H])C([H])([H])C([H])(n4nc(-c5c([H])c([H])c(Oc6c([H])c([H])c(F)c([H])c6F)c([H])c5[H])c(C(=O)N([H])[H])c4N([H])[H])C3([H])[H])c([H])c(C([H])([H])[H])c2[H])C([H])([H])C1([H])[H]

>  <smiles>  (3) 
[H]C(Oc1c([H])c([H])c2c(c1[H])C([H])([H])N(C(=O)C([H])(N([H])C(=O)C([H])(N([H])C([H])([H])[H])C([H])([H])[H])C(C([H])([H])[H])(C([H])([H])[H])C([H])([H])[H])C([H])(C(=O)N([H])C1([H])c3c([H])c([H])c([H])c([H])c3C([H])([H])C([H])([H])C1([H])[H])C2([H])[H])=C1C([H])([H])N(C(=O)c2c([H])c(N([H])C(=O)N3C([H])([H])C([H])([H])C([H])([H])C([H])(n4nc(-c5c([H])c([H])c(Oc6c([H])c([H])c(F)c([H])c6F)c([H])c5[H])c(C(=O)N([H])[H])c4N([H])[H])C3([H])[H])c([H])c(C([H])([H])[H])c2[H])C([H])([H])C1([H])[H]

$$$$
3:0:0
     RDKit          3D

 93101  0  0  1  0  0  0  0  0999 V2000
  -27.6840  -17.9940   20.7280 C   0  0  0  0  0  3  0  0  0  0  0  0
  -28.5000  -19.1210   20.5820 C   0  0  0  0  0  3  0  0  0  0  0  0
  -30.4290  -17.6430   20.4560 C   0  0  0  0  0  3  0  0  0  0  0  0
  -28.2100  -16.6820   20.7790 C   0  0  0  0  0  0  0  0  0  0  0  0
  -29.6160  -16.4620   20.5900 C   0  0  0  0  0  0  0  0  0  0  0  0
  -29.8940  -18.9780   20.4840 C   0  0  0  0  0  0  0  0  0  0  0  0
  -30.2080  -15.0480   20.7460 C   0  0  0  0  0  0  0  0  0  0  0  0
  -30.4600  -14.6120   21.9120 N   0  0  0  0  0  0  0  0  0  0  0  0
  -30.2140  -15.3020   22.6120 H   0  0  0  0  0  0  0  0  0  0  0  0
  -30.5240  -14.1320   19.5230 C   0  0  0  0  0  0  0  0  0  0  0  0
  -30.0590  -12.0480   18.2300 C   0  0  0  0  0  2  0  0  0  0  0  0
  -28.9510  -12.2980   17.1830 C   0  0  0  0  0  2  0  0  0  0  0  0
  -27.5470  -12.1390   17.8010 C   0  0  0  0  0  2  0  0  0  0  0  0
  -27.4050  -12.8880   19.1530 C   0  0  0  0  0  3  0  0  0  0  0  0
  -28.6000  -12.5440   20.0730 C   0  0  0  0  0  2  0  0  0  0  0  0
  -29.8300  -12.9520   19.3780 N   0  0  0  0  0  0  0  0  0  0  0  0
  -31.4710  -14.4150   18.7800 O   0  0  0  0  0  0  0  0  0  0  0  0
  -25.0910  -13.4850   20.1100 C   0  0  0  0  0  0  0  0  0  0  0  0
  -24.0840  -12.7140   20.6230 C   0  0  0  0  0  0  0  0  0  0  0  0
  -24.5510  -11.3650   20.5580 C   0  0  0  0  0  0  0  0  0  0  0  0
  -26.1180  -12.6110   19.7870 N   0  0  0  0  0  0  0  0  0  0  0  0
  -25.7980  -11.3300   20.1040 N   0  0  0  0  0  0  0  0  0  0  0  0
  -23.8610  -10.1020   20.8500 C   0  0  0  0  0  0  0  0  0  0  0  0
  -24.3540   -9.1970   21.8130 C   0  0  0  0  0  3  0  0  0  0  0  0
  -23.6630   -7.9970   22.0890 C   0  0  0  0  0  3  0  0  0  0  0  0
  -22.4630   -7.6950   21.4010 C   0  0  0  0  0  0  0  0  0  0  0  0
  -21.9880   -8.5900   20.4260 C   0  0  0  0  0  3  0  0  0  0  0  0
  -22.6810   -9.7800   20.1490 C   0  0  0  0  0  3  0  0  0  0  0  0
  -21.7390   -6.5430   21.5850 O   0  0  0  0  0  0  0  0  0  0  0  0
  -21.6930   -5.9080   22.7990 C   0  0  0  0  0  0  0  0  0  0  0  0
  -21.2350   -6.5610   23.9650 C   0  0  0  0  0  3  0  0  0  0  0  0
  -21.1380   -5.8500   25.1780 C   0  0  0  0  0  3  0  0  0  0  0  0
  -21.4890   -4.4870   25.2270 C   0  0  0  0  0  0  0  0  0  0  0  0
  -21.9400   -3.8340   24.0660 C   0  0  0  0  0  3  0  0  0  0  0  0
  -22.0380   -4.5420   22.8560 C   0  0  0  0  0  0  0  0  0  0  0  0
  -22.4530   -3.9020   21.7360 F   0  0  0  0  0  0  0  0  0  0  0  0
  -21.3890   -3.8030   26.3900 F   0  0  0  0  0  0  0  0  0  0  0  0
  -22.7270  -13.1880   21.0570 C   0  0  0  0  0  0  0  0  0  0  0  0
  -22.1240  -12.5130   22.0290 N   0  0  0  0  0  0  0  0  0  0  0  0
  -22.2130  -14.1940   20.5690 O   0  0  0  0  0  0  0  0  0  0  0  0
  -22.5550  -11.7010   22.4450 H   0  0  0  0  0  0  0  0  0  0  0  0
  -21.2190  -12.8130   22.3630 H   0  0  0  0  0  0  0  0  0  0  0  0
  -25.2070  -14.8500   19.8700 N   0  0  0  0  0  0  0  0  0  0  0  0
  -24.4660  -15.5010   20.0990 H   0  0  0  0  0  0  0  0  0  0  0  0
  -26.0340  -15.3040   19.5060 H   0  0  0  0  0  0  0  0  0  0  0  0
  -25.9800  -15.7560   21.5280 C   0  0  0  0  0  2  0  0  0  0  0  0
  -27.2590  -15.6050   21.1420 C   0  0  0  0  0  3  0  0  0  0  0  0
  -30.7280  -20.1010   20.4670 O   0  0  0  0  0  0  0  0  0  0  0  0
  -30.2600  -21.4280   20.0510 C   0  0  0  0  0  2  0  0  0  0  0  0
  -29.8590  -22.4510   21.1780 C   0  0  0  0  0  2  0  0  0  0  0  0
  -29.9030  -24.0100   20.8770 C   0  0  0  0  0  3  0  0  0  0  0  0
  -28.6040  -24.7670   20.4180 C   0  0  0  0  0  3  0  0  0  0  0  0
  -28.6910  -26.2320   20.4530 O   0  0  0  0  0  0  0  0  0  0  0  0
  -24.5570  -31.4500   23.1680 C   0  0  0  0  0  0  0  0  0  0  0  0
  -27.5080  -26.9680   20.3530 C   0  0  0  0  0  0  0  0  0  0  0  0
  -23.4840  -29.9530   21.5210 C   0  0  0  0  0  3  0  0  0  0  0  0
  -25.0620  -28.4300   20.2080 C   0  0  0  0  0  0  0  0  0  0  0  0
  -26.0090  -30.3920   21.4270 C   0  0  0  0  0  2  0  0  0  0  0  0
  -26.1780  -29.0040   20.8280 C   0  0  0  0  0  0  0  0  0  0  0  0
  -27.4050  -28.2850   20.8880 C   0  0  0  0  0  3  0  0  0  0  0  0
  -26.3630  -26.4300   19.7200 C   0  0  0  0  0  3  0  0  0  0  0  0
  -25.1540  -27.1470   19.6470 C   0  0  0  0  0  3  0  0  0  0  0  0
  -23.7840  -29.2440   20.1740 C   0  0  0  0  0  2  0  0  0  0  0  0
  -24.6990  -30.6170   22.0960 N   0  0  0  0  0  0  0  0  0  0  0  0
  -23.4410  -31.6950   23.6500 O   0  0  0  0  0  0  0  0  0  0  0  0
  -22.8280  -28.9360   22.4840 C   0  0  0  0  0  0  0  0  0  0  0  0
  -21.5330  -28.6480   22.2670 N   0  0  0  0  0  0  0  0  0  0  0  0
  -23.4840  -28.4050   23.3840 O   0  0  0  0  0  0  0  0  0  0  0  0
  -21.0610  -29.1310   21.5160 H   0  0  0  0  0  0  0  0  0  0  0  0
  -18.2330  -27.1980   22.5490 C   0  0  0  0  0  0  0  0  0  0  0  0
  -20.7270  -27.6900   23.0230 C   0  0  0  0  0  3  0  0  0  0  0  0
  -20.9960  -26.2410   22.5530 C   0  0  0  0  0  2  0  0  0  0  0  0
  -20.0210  -25.7680   21.4700 C   0  0  0  0  0  2  0  0  0  0  0  0
  -18.5790  -25.8320   21.9810 C   0  0  0  0  0  2  0  0  0  0  0  0
  -19.2440  -28.0770   23.0240 C   0  0  0  0  0  0  0  0  0  0  0  0
  -18.8700  -29.3490   23.5100 C   0  0  0  0  0  3  0  0  0  0  0  0
  -17.5200  -29.7460   23.5280 C   0  0  0  0  0  3  0  0  0  0  0  0
  -16.5230  -28.8660   23.0710 C   0  0  0  0  0  3  0  0  0  0  0  0
  -16.8800  -27.5940   22.5880 C   0  0  0  0  0  3  0  0  0  0  0  0
  -25.7860  -32.1540   23.8230 C   0  0  0  0  0  3  0  0  0  0  0  0
  -25.4090  -33.5490   24.0900 N   0  0  0  0  0  0  0  0  0  0  0  0
  -25.7280  -34.5870   23.3060 C   0  0  0  0  0  0  0  0  0  0  0  0
  -26.4410  -34.4750   22.3050 O   0  0  0  0  0  0  0  0  0  0  0  0
  -24.7780  -33.7060   24.8620 H   0  0  0  0  0  0  0  0  0  0  0  0
  -23.9410  -36.2910   22.8250 C   0  0  0  0  0  1  0  0  0  0  0  0
  -25.1680  -35.9690   23.6940 C   0  0  0  0  0  3  0  0  0  0  0  0
  -27.2330  -36.9730   24.5640 C   0  0  0  0  0  1  0  0  0  0  0  0
  -26.1600  -37.0600   23.5770 N   0  0  0  0  0  0  0  0  0  0  0  0
  -25.7120  -37.9670   23.6760 H   0  0  0  0  0  0  0  0  0  0  0  0
  -26.2740  -31.4470   25.1460 C   0  0  1  0  0  0  0  0  0  0  0  0
  -25.1370  -31.1700   26.1590 C   0  0  0  0  0  1  0  0  0  0  0  0
  -26.9560  -30.0970   24.8250 C   0  0  0  0  0  1  0  0  0  0  0  0
  -27.3370  -32.3240   25.8490 C   0  0  0  0  0  1  0  0  0  0  0  0
  1  4  1  0
  2  1  2  0
  3  6  2  0
  3  5  1  0
  4 47  1  0
  5  7  1  0
  5  4  2  0
  6  2  1  0
  7  8  2  0
  8  9  1  0
 10  7  1  0
 11 16  1  0
 12 13  1  0
 12 11  1  0
 14 13  1  0
 14 21  1  0
 14 15  1  0
 16 10  1  0
 16 15  1  0
 17 10  2  0
 18 19  2  0
 19 38  1  0
 20 19  1  0
 20 23  1  0
 21 22  1  0
 21 18  1  0
 22 20  2  0
 23 24  1  0
 24 25  2  0
 26 29  1  0
 26 25  1  0
 27 26  2  0
 28 27  1  0
 28 23  2  0
 29 30  1  0
 30 35  2  0
 30 31  1  0
 31 32  2  0
 32 33  1  0
 33 37  1  0
 34 33  2  0
 35 34  1  0
 36 35  1  0
 38 39  1  0
 39 42  1  0
 39 41  1  0
 40 38  2  0
 43 44  1  0
 43 18  1  0
 45 43  1  0
 47 46  2  0
 48  6  1  0
 49 48  1  0
 49 50  1  0
 51 50  1  0
 52 53  1  0
 52 51  2  0
 54 65  2  0
 55 53  1  0
 55 60  1  0
 56 64  1  0
 56 66  1  0
 57 59  1  0
 58 64  1  0
 59 60  2  0
 59 58  1  0
 61 55  2  0
 62 61  1  0
 62 57  2  0
 63 57  1  0
 63 56  1  0
 64 54  1  0
 66 68  2  0
 67 66  1  0
 69 67  1  0
 70 79  2  0
 70 75  1  0
 71 67  1  0
 71 75  1  0
 72 71  1  0
 73 74  1  0
 73 72  1  0
 74 70  1  0
 75 76  2  0
 76 77  1  0
 78 77  2  0
 79 78  1  0
 80 54  1  0
 80 81  1  0
 80 90  1  0
 81 84  1  0
 82 86  1  0
 82 81  1  0
 83 82  2  0
 86 85  1  0
 88 89  1  0
 88 86  1  0
 88 87  1  0
 90 93  1  1
 90 91  1  0
 92 90  1  0
M  ISO  4   7 100  10 100  52 101  53 101
M  END
>  <TORSDO>  (4) 
F 23

>  <SCORE>  (4) 
-7.958

>  <name>  (4) 
3

>  <ligand_id>  (4) 
3

>  <original_smiles>  (4) 
[H]N=C(C(=O)N1C([H])([H])C([H])([H])C([H])([H])C([H])(n2nc(-c3c([H])c([H])c(Oc4c([H])c([H])c(F)c([H])c4F)c([H])c3[H])c(C(=O)N([H])[H])c2N([H])[H])C1([H])[H])c1c([H])c(OC([H])([H])C([H])([H])C([H])([H])C([H])([H])Oc2c([H])c([H])c3c(c2[H])C([H])([H])N(C(=O)C([H])(N([H])C(=O)C([H])(N([H])C([H])([H])[H])C([H])([H])[H])C(C([H])([H])[H])(C([H])([H])[H])C([H])([H])[H])C([H])(C(=O)N([H])C2([H])c4c([H])c([H])c([H])c([H])c4C([H])([H])C([H])([H])C2([H])[H])C3([H])[H])c([H])c([H])c1C([H])=C([H])[H]

>  <smiles>  (4) 
[H]N=C(C(=O)N1C([H])([H])C([H])([H])C([H])([H])C([H])(n2nc(-c3c([H])c([H])c(Oc4c([H])c([H])c(F)c([H])c4F)c([H])c3[H])c(C(=O)N([H])[H])c2N([H])[H])C1([H])[H])c1c([H])c(OC([H])([H])C([H])([H])C([H])([H])C([H])([H])Oc2c([H])c([H])c3c(c2[H])C([H])([H])N(C(=O)C([H])(N([H])C(=O)C([H])(N([H])C([H])([H])[H])C([H])([H])[H])C(C([H])([H])[H])(C([H])([H])[H])C([H])([H])[H])C([H])(C(=O)N([H])C2([H])c4c([H])c([H])c([H])c([H])c4C([H])([H])C([H])([H])C2([H])[H])C3([H])[H])c([H])c([H])c1C([H])=C([H])[H]

$$$$
4:0:0
     RDKit          3D

 95104  0  0  1  0  0  0  0  0999 V2000
  -29.3270  -25.2880   18.4540 C   0  0  0  0  0  0  0  0  0  0  0  0
  -28.8830  -26.5050   18.8030 C   0  0  0  0  0  3  0  0  0  0  0  0
  -31.2360  -22.4800   19.5660 C   0  0  0  0  0  0  0  0  0  0  0  0
  -30.0090  -24.9730   17.1610 C   0  0  0  0  0  2  0  0  0  0  0  0
  -29.3780  -24.0570   19.3270 C   0  0  0  0  0  2  0  0  0  0  0  0
  -31.0250  -23.9120   17.5750 C   0  0  0  0  0  2  0  0  0  0  0  0
  -30.4770  -23.2600   18.7740 N   0  0  0  0  0  0  0  0  0  0  0  0
  -32.3150  -22.8560   20.0330 O   0  0  0  0  0  0  0  0  0  0  0  0
  -30.1490  -18.8240   19.0370 C   0  0  0  0  0  3  0  0  0  0  0  0
  -30.8720  -20.5440   21.1260 C   0  0  0  0  0  3  0  0  0  0  0  0
  -30.3350  -18.2960   20.3280 C   0  0  0  0  0  0  0  0  0  0  0  0
  -30.7650  -21.0670   19.8150 C   0  0  0  0  0  3  0  0  0  0  0  0
  -30.3570  -20.1920   18.7650 C   0  0  0  0  0  0  0  0  0  0  0  0
  -30.6530  -19.1770   21.3860 C   0  0  0  0  0  0  0  0  0  0  0  0
  -30.2200  -20.6400   17.3160 C   0  0  0  0  0  1  0  0  0  0  0  0
  -30.8270  -18.6970   22.6420 F   0  0  0  0  0  0  0  0  0  0  0  0
  -30.3290  -16.8320   20.4800 C   0  0  0  0  0  0  0  0  0  0  0  0
  -30.1710  -15.6540   21.1330 C   0  0  0  0  0  3  0  0  0  0  0  0
  -30.8870  -14.5250   20.5510 C   0  0  0  0  0  0  0  0  0  0  0  0
  -30.5750  -12.4080   19.3510 C   0  0  0  0  0  2  0  0  0  0  0  0
  -29.6580  -12.6620   18.1340 C   0  0  0  0  0  2  0  0  0  0  0  0
  -28.1730  -12.5390   18.5310 C   0  0  0  0  0  2  0  0  0  0  0  0
  -27.8260  -13.3420   19.8130 C   0  0  0  0  0  3  0  0  0  0  0  0
  -28.8550  -13.0620   20.9300 C   0  0  0  0  0  2  0  0  0  0  0  0
  -30.1950  -13.3610   20.4050 N   0  0  0  0  0  0  0  0  0  0  0  0
  -32.0260  -14.6620   20.0930 O   0  0  0  0  0  0  0  0  0  0  0  0
  -25.4130  -13.9550   20.4590 C   0  0  0  0  0  0  0  0  0  0  0  0
  -24.3350  -13.1870   20.8060 C   0  0  0  0  0  0  0  0  0  0  0  0
  -24.7940  -11.8340   20.7960 C   0  0  0  0  0  0  0  0  0  0  0  0
  -26.4620  -13.0710   20.2600 N   0  0  0  0  0  0  0  0  0  0  0  0
  -26.0910  -11.7910   20.5190 N   0  0  0  0  0  0  0  0  0  0  0  0
  -24.0640  -10.5730   20.9790 C   0  0  0  0  0  0  0  0  0  0  0  0
  -24.4620   -9.6220   21.9440 C   0  0  0  0  0  3  0  0  0  0  0  0
  -23.7340   -8.4250   22.1130 C   0  0  0  0  0  3  0  0  0  0  0  0
  -22.5920   -8.1700   21.3160 C   0  0  0  0  0  0  0  0  0  0  0  0
  -22.2130   -9.1100   20.3430 C   0  0  0  0  0  3  0  0  0  0  0  0
  -22.9420  -10.2990   20.1720 C   0  0  0  0  0  3  0  0  0  0  0  0
  -21.8400   -7.0220   21.3900 O   0  0  0  0  0  0  0  0  0  0  0  0
  -21.7350   -6.3070   22.5560 C   0  0  0  0  0  0  0  0  0  0  0  0
  -21.2170   -6.8790   23.7380 C   0  0  0  0  0  3  0  0  0  0  0  0
  -21.0600   -6.0890   24.8940 C   0  0  0  0  0  3  0  0  0  0  0  0
  -21.4090   -4.7250   24.8680 C   0  0  0  0  0  0  0  0  0  0  0  0
  -21.9200   -4.1520   23.6900 C   0  0  0  0  0  3  0  0  0  0  0  0
  -22.0810   -4.9400   22.5380 C   0  0  0  0  0  0  0  0  0  0  0  0
  -22.5510   -4.3770   21.3990 F   0  0  0  0  0  0  0  0  0  0  0  0
  -21.2530   -3.9640   25.9770 F   0  0  0  0  0  0  0  0  0  0  0  0
  -22.9310  -13.6660   21.0420 C   0  0  0  0  0  0  0  0  0  0  0  0
  -22.1810  -12.9740   21.8930 N   0  0  0  0  0  0  0  0  0  0  0  0
  -22.5070  -14.6890   20.5080 O   0  0  0  0  0  0  0  0  0  0  0  0
  -22.5340  -12.1480   22.3510 H   0  0  0  0  0  0  0  0  0  0  0  0
  -21.2380  -13.2800   22.0910 H   0  0  0  0  0  0  0  0  0  0  0  0
  -25.5900  -15.3240   20.2770 N   0  0  0  0  0  0  0  0  0  0  0  0
  -24.8320  -15.9930   20.3680 H   0  0  0  0  0  0  0  0  0  0  0  0
  -26.4610  -15.7500   19.9880 H   0  0  0  0  0  0  0  0  0  0  0  0
  -28.3910  -26.7840   20.0450 O   0  0  0  0  0  0  0  0  0  0  0  0
  -24.5640  -31.8760   23.1920 C   0  0  0  0  0  0  0  0  0  0  0  0
  -27.2260  -27.5000   20.0710 C   0  0  0  0  0  0  0  0  0  0  0  0
  -23.3630  -30.4840   21.5350 C   0  0  0  0  0  3  0  0  0  0  0  0
  -24.8220  -28.9640   20.1020 C   0  0  0  0  0  0  0  0  0  0  0  0
  -25.8830  -30.8610   21.3430 C   0  0  0  0  0  2  0  0  0  0  0  0
  -25.9730  -29.4950   20.6990 C   0  0  0  0  0  0  0  0  0  0  0  0
  -27.1790  -28.7630   20.6930 C   0  0  0  0  0  3  0  0  0  0  0  0
  -26.0600  -26.9670   19.4830 C   0  0  0  0  0  3  0  0  0  0  0  0
  -24.8560  -27.6950   19.4960 C   0  0  0  0  0  3  0  0  0  0  0  0
  -23.5740  -29.8140   20.1510 C   0  0  0  0  0  2  0  0  0  0  0  0
  -24.6200  -31.0880   22.0810 N   0  0  0  0  0  0  0  0  0  0  0  0
  -23.4820  -32.1400   23.7340 O   0  0  0  0  0  0  0  0  0  0  0  0
  -22.7170  -29.4520   22.4850 C   0  0  0  0  0  0  0  0  0  0  0  0
  -21.3940  -29.2650   22.3530 N   0  0  0  0  0  0  0  0  0  0  0  0
  -23.4020  -28.8220   23.2950 O   0  0  0  0  0  0  0  0  0  0  0  0
  -20.9030  -29.8250   21.6710 H   0  0  0  0  0  0  0  0  0  0  0  0
  -18.0210  -28.0690   22.8410 C   0  0  0  0  0  0  0  0  0  0  0  0
  -20.5800  -28.3190   23.1140 C   0  0  0  0  0  3  0  0  0  0  0  0
  -20.6790  -26.8950   22.5190 C   0  0  0  0  0  2  0  0  0  0  0  0
  -19.5750  -26.5870   21.5030 C   0  0  0  0  0  2  0  0  0  0  0  0
  -18.1940  -26.7270   22.1490 C   0  0  0  0  0  2  0  0  0  0  0  0
  -19.1420  -28.8240   23.2790 C   0  0  0  0  0  0  0  0  0  0  0  0
  -18.9270  -30.0820   23.8830 C   0  0  0  0  0  3  0  0  0  0  0  0
  -17.6240  -30.5850   24.0550 C   0  0  0  0  0  3  0  0  0  0  0  0
  -16.5170  -29.8260   23.6360 C   0  0  0  0  0  3  0  0  0  0  0  0
  -16.7180  -28.5700   23.0340 C   0  0  0  0  0  3  0  0  0  0  0  0
  -25.8490  -32.5040   23.8170 C   0  0  0  0  0  3  0  0  0  0  0  0
  -25.5400  -33.8990   24.1570 N   0  0  0  0  0  0  0  0  0  0  0  0
  -25.8720  -34.9560   23.4020 C   0  0  0  0  0  0  0  0  0  0  0  0
  -26.5450  -34.8590   22.3720 O   0  0  0  0  0  0  0  0  0  0  0  0
  -24.9490  -34.0470   24.9600 H   0  0  0  0  0  0  0  0  0  0  0  0
  -24.1520  -36.7510   23.0370 C   0  0  0  0  0  1  0  0  0  0  0  0
  -25.3790  -36.3400   23.8650 C   0  0  0  0  0  3  0  0  0  0  0  0
  -27.5010  -37.2150   24.7400 C   0  0  0  0  0  1  0  0  0  0  0  0
  -26.4150  -37.3920   23.7790 N   0  0  0  0  0  0  0  0  0  0  0  0
  -26.0070  -38.3110   23.9280 H   0  0  0  0  0  0  0  0  0  0  0  0
  -26.3710  -31.7230   25.0850 C   0  0  1  0  0  0  0  0  0  0  0  0
  -25.2790  -31.4730   26.1510 C   0  0  0  0  0  1  0  0  0  0  0  0
  -26.9580  -30.3510   24.6760 C   0  0  0  0  0  1  0  0  0  0  0  0
  -27.5190  -32.5130   25.7540 C   0  0  0  0  0  1  0  0  0  0  0  0
  1  2  2  0
  1  5  1  0
  2 55  1  0
  3  8  2  0
  4  6  1  0
  4  1  1  0
  6  7  1  0
  7  5  1  0
  7  3  1  0
  9 11  1  0
 10 14  2  0
 11 17  2  0
 11 14  1  0
 12  3  1  0
 12 10  1  0
 13  9  2  0
 13 12  1  0
 14 16  1  0
 15 13  1  0
 17 18  2  0
 19 18  1  0
 20 25  1  0
 21 22  1  0
 21 20  1  0
 23 22  1  0
 23 30  1  0
 23 24  1  0
 25 19  1  0
 25 24  1  0
 26 19  2  0
 27 28  2  0
 28 47  1  0
 29 28  1  0
 29 32  1  0
 30 27  1  0
 30 31  1  0
 31 29  2  0
 32 33  1  0
 33 34  2  0
 35 38  1  0
 35 34  1  0
 36 35  2  0
 37 36  1  0
 37 32  2  0
 38 39  1  0
 39 40  1  0
 40 41  2  0
 42 41  1  0
 42 46  1  0
 43 42  2  0
 44 39  2  0
 44 43  1  0
 45 44  1  0
 47 48  1  0
 48 51  1  0
 48 50  1  0
 49 47  2  0
 52 53  1  0
 52 27  1  0
 54 52  1  0
 55 57  1  0
 56 67  2  0
 57 62  1  0
 58 66  1  0
 58 68  1  0
 59 65  1  0
 59 61  1  0
 60 66  1  0
 61 60  1  0
 62 61  2  0
 63 64  1  0
 63 57  2  0
 64 59  2  0
 65 58  1  0
 66 56  1  0
 68 70  2  0
 69 68  1  0
 71 69  1  0
 72 81  2  0
 72 77  1  0
 73 69  1  0
 73 77  1  0
 74 73  1  0
 75 76  1  0
 75 74  1  0
 76 72  1  0
 77 78  2  0
 78 79  1  0
 80 79  2  0
 81 80  1  0
 82 56  1  0
 82 83  1  0
 82 92  1  0
 83 86  1  0
 84 88  1  0
 84 83  1  0
 85 84  2  0
 88 87  1  0
 90 88  1  0
 90 91  1  0
 90 89  1  0
 92 95  1  1
 92 93  1  0
 94 92  1  0
M  ISO  4   2 101  18 100  19 100  55 101
M  END
>  <TORSDO>  (5) 
F 18

>  <SCORE>  (5) 
-14.813

>  <name>  (5) 
4

>  <ligand_id>  (5) 
4

>  <original_smiles>  (5) 
[H]C(Oc1c([H])c([H])c2c(c1[H])C([H])([H])N(C(=O)C([H])(N([H])C(=O)C([H])(N([H])C([H])([H])[H])C([H])([H])[H])C(C([H])([H])[H])(C([H])([H])[H])C([H])([H])[H])C([H])(C(=O)N([H])C1([H])c3c([H])c([H])c([H])c([H])c3C([H])([H])C([H])([H])C1([H])[H])C2([H])[H])=C1C([H])([H])N(C(=O)c2c([H])c(F)c(C([H])=C([H])C(=O)N3C([H])([H])C([H])([H])C([H])([H])C([H])(n4nc(-c5c([H])c([H])c(Oc6c([H])c([H])c(F)c([H])c6F)c([H])c5[H])c(C(=O)N([H])[H])c4N([H])[H])C3([H])[H])c([H])c2C([H])([H])[H])C([H])([H])C1([H])[H]

>  <smiles>  (5) 
[H]C(Oc1c([H])c([H])c2c(c1[H])C([H])([H])N(C(=O)C([H])(N([H])C(=O)C([H])(N([H])C([H])([H])[H])C([H])([H])[H])C(C([H])([H])[H])(C([H])([H])[H])C([H])([H])[H])C([H])(C(=O)N([H])C1([H])c3c([H])c([H])c([H])c([H])c3C([H])([H])C([H])([H])C1([H])[H])C2([H])[H])=C1C([H])([H])N(C(=O)c2c([H])c(F)c(C([H])=C([H])C(=O)N3C([H])([H])C([H])([H])C([H])([H])C([H])(n4nc(-c5c([H])c([H])c(Oc6c([H])c([H])c(F)c([H])c6F)c([H])c5[H])c(C(=O)N([H])[H])c4N([H])[H])C3([H])[H])c([H])c2C([H])([H])[H])C([H])([H])C1([H])[H]

$$$$
5:0:0
     RDKit          3D

 94102  0  0  1  0  0  0  0  0999 V2000
  -31.2200  -20.8870   21.7230 C   0  0  0  0  0  3  0  0  0  0  0  0
  -29.2160  -19.2080   20.7500 C   0  0  0  0  0  3  0  0  0  0  0  0
  -31.4600  -19.4980   21.6470 C   0  0  0  0  0  0  0  0  0  0  0  0
  -30.4750  -18.6500   21.0750 C   0  0  0  0  0  0  0  0  0  0  0  0
  -30.0050  -21.4620   21.2900 C   0  0  0  0  0  0  0  0  0  0  0  0
  -28.9560  -20.5980   20.8730 C   0  0  0  0  0  0  0  0  0  0  0  0
  -30.9180  -23.6560   20.8750 C   0  0  0  0  0  1  0  0  0  0  0  0
  -29.8330  -22.8320   21.2840 O   0  0  0  0  0  0  0  0  0  0  0  0
  -30.8180  -17.2370   20.7570 C   0  0  0  0  0  3  0  0  0  0  0  0
  -30.0680  -16.1100   20.6500 C   0  0  0  0  0  3  0  0  0  0  0  0
  -30.7360  -14.9090   20.1210 C   0  0  0  0  0  0  0  0  0  0  0  0
  -30.4070  -12.7190   19.0430 C   0  0  0  0  0  2  0  0  0  0  0  0
  -29.4170  -12.8590   17.8700 C   0  0  0  0  0  2  0  0  0  0  0  0
  -27.9780  -12.6600   18.3730 C   0  0  0  0  0  2  0  0  0  0  0  0
  -27.6550  -13.5270   19.6200 C   0  0  0  0  0  3  0  0  0  0  0  0
  -28.7620  -13.4160   20.6920 C   0  0  0  0  0  2  0  0  0  0  0  0
  -30.0460  -13.7320   20.0550 N   0  0  0  0  0  0  0  0  0  0  0  0
  -31.8520  -15.0030   19.6000 O   0  0  0  0  0  0  0  0  0  0  0  0
  -25.2900  -14.0510   20.4820 C   0  0  0  0  0  0  0  0  0  0  0  0
  -24.2590  -13.2410   20.8720 C   0  0  0  0  0  0  0  0  0  0  0  0
  -24.7440  -11.9010   20.7600 C   0  0  0  0  0  0  0  0  0  0  0  0
  -26.3380  -13.2030   20.1600 N   0  0  0  0  0  0  0  0  0  0  0  0
  -26.0170  -11.9040   20.3850 N   0  0  0  0  0  0  0  0  0  0  0  0
  -24.0540  -10.6160   20.9290 C   0  0  0  0  0  0  0  0  0  0  0  0
  -24.4660   -9.6810   21.9040 C   0  0  0  0  0  3  0  0  0  0  0  0
  -23.7750   -8.4620   22.0640 C   0  0  0  0  0  3  0  0  0  0  0  0
  -22.6580   -8.1660   21.2460 C   0  0  0  0  0  0  0  0  0  0  0  0
  -22.2660   -9.0900   20.2620 C   0  0  0  0  0  3  0  0  0  0  0  0
  -22.9570  -10.3030   20.1010 C   0  0  0  0  0  3  0  0  0  0  0  0
  -21.9440   -6.9940   21.3110 O   0  0  0  0  0  0  0  0  0  0  0  0
  -21.7340   -6.3440   22.5010 C   0  0  0  0  0  0  0  0  0  0  0  0
  -21.0500   -6.9580   23.5740 C   0  0  0  0  0  3  0  0  0  0  0  0
  -20.7960   -6.2310   24.7550 C   0  0  0  0  0  3  0  0  0  0  0  0
  -21.2120   -4.8910   24.8600 C   0  0  0  0  0  0  0  0  0  0  0  0
  -21.8880   -4.2770   23.7920 C   0  0  0  0  0  3  0  0  0  0  0  0
  -22.1450   -5.0010   22.6150 C   0  0  0  0  0  0  0  0  0  0  0  0
  -22.7780   -4.3970   21.5790 F   0  0  0  0  0  0  0  0  0  0  0  0
  -20.9600   -4.1890   25.9900 F   0  0  0  0  0  0  0  0  0  0  0  0
  -22.8680  -13.6770   21.2330 C   0  0  0  0  0  0  0  0  0  0  0  0
  -22.2010  -12.9310   22.1040 N   0  0  0  0  0  0  0  0  0  0  0  0
  -22.3840  -14.7140   20.7790 O   0  0  0  0  0  0  0  0  0  0  0  0
  -22.6110  -12.0970   22.4970 H   0  0  0  0  0  0  0  0  0  0  0  0
  -21.2690  -13.2000   22.3870 H   0  0  0  0  0  0  0  0  0  0  0  0
  -25.4180  -15.4300   20.3530 N   0  0  0  0  0  0  0  0  0  0  0  0
  -24.6460  -16.0600   20.5360 H   0  0  0  0  0  0  0  0  0  0  0  0
  -26.2360  -15.9040   19.9890 H   0  0  0  0  0  0  0  0  0  0  0  0
  -33.9470  -19.5980   22.0390 C   0  0  0  0  0  2  0  0  0  0  0  0
  -32.7640  -18.9630   22.0890 C   0  0  0  0  0  3  0  0  0  0  0  0
  -27.6820  -21.0110   20.5210 O   0  0  0  0  0  0  0  0  0  0  0  0
  -27.1730  -22.2760   20.9590 C   0  0  0  0  0  2  0  0  0  0  0  0
  -27.7430  -24.5940   20.0540 C   0  0  0  0  0  3  0  0  0  0  0  0
  -27.3050  -23.3330   19.8730 C   0  0  0  0  0  3  0  0  0  0  0  0
  -27.9210  -25.6000   18.9280 C   0  0  0  0  0  2  0  0  0  0  0  0
  -27.9080  -26.9520   19.3880 O   0  0  0  0  0  0  0  0  0  0  0  0
  -24.5260  -31.8450   23.2460 C   0  0  0  0  0  0  0  0  0  0  0  0
  -26.7260  -27.6470   19.5470 C   0  0  0  0  0  0  0  0  0  0  0  0
  -23.1280  -30.6550   21.5870 C   0  0  0  0  0  3  0  0  0  0  0  0
  -24.3900  -29.2110   19.9060 C   0  0  0  0  0  0  0  0  0  0  0  0
  -25.6370  -30.9420   21.2100 C   0  0  0  0  0  2  0  0  0  0  0  0
  -25.6100  -29.6380   20.4420 C   0  0  0  0  0  0  0  0  0  0  0  0
  -26.7730  -28.8580   20.2730 C   0  0  0  0  0  3  0  0  0  0  0  0
  -25.4860  -27.2250   19.0140 C   0  0  0  0  0  3  0  0  0  0  0  0
  -24.3200  -27.9940   19.2030 C   0  0  0  0  0  3  0  0  0  0  0  0
  -23.1970  -30.1130   20.1340 C   0  0  0  0  0  2  0  0  0  0  0  0
  -24.4520  -31.1570   22.0700 N   0  0  0  0  0  0  0  0  0  0  0  0
  -23.5070  -32.0980   23.9030 O   0  0  0  0  0  0  0  0  0  0  0  0
  -22.5180  -29.5650   22.4960 C   0  0  0  0  0  0  0  0  0  0  0  0
  -21.1960  -29.3610   22.3790 N   0  0  0  0  0  0  0  0  0  0  0  0
  -23.2290  -28.9100   23.2620 O   0  0  0  0  0  0  0  0  0  0  0  0
  -20.6800  -29.9320   21.7260 H   0  0  0  0  0  0  0  0  0  0  0  0
  -17.8750  -28.0160   22.7790 C   0  0  0  0  0  0  0  0  0  0  0  0
  -20.4140  -28.3680   23.1120 C   0  0  0  0  0  3  0  0  0  0  0  0
  -20.5940  -26.9640   22.4900 C   0  0  0  0  0  2  0  0  0  0  0  0
  -19.5230  -26.6290   21.4490 C   0  0  0  0  0  2  0  0  0  0  0  0
  -18.1220  -26.6970   22.0650 C   0  0  0  0  0  2  0  0  0  0  0  0
  -18.9520  -28.8080   23.2560 C   0  0  0  0  0  0  0  0  0  0  0  0
  -18.6680  -30.0460   23.8720 C   0  0  0  0  0  3  0  0  0  0  0  0
  -17.3390  -30.4840   24.0330 C   0  0  0  0  0  3  0  0  0  0  0  0
  -16.2770  -29.6850   23.5770 C   0  0  0  0  0  3  0  0  0  0  0  0
  -16.5450  -28.4580   22.9450 C   0  0  0  0  0  3  0  0  0  0  0  0
  -25.8870  -32.3610   23.8050 C   0  0  0  0  0  3  0  0  0  0  0  0
  -25.7010  -33.7580   24.2130 N   0  0  0  0  0  0  0  0  0  0  0  0
  -26.0740  -34.8200   23.4870 C   0  0  0  0  0  0  0  0  0  0  0  0
  -26.6890  -34.7200   22.4190 O   0  0  0  0  0  0  0  0  0  0  0  0
  -25.1660  -33.9170   25.0540 H   0  0  0  0  0  0  0  0  0  0  0  0
  -24.4720  -36.7440   23.2820 C   0  0  0  0  0  1  0  0  0  0  0  0
  -25.7060  -36.2120   24.0290 C   0  0  0  0  0  3  0  0  0  0  0  0
  -27.9170  -36.9060   24.8300 C   0  0  0  0  0  1  0  0  0  0  0  0
  -26.8060  -37.1950   23.9290 N   0  0  0  0  0  0  0  0  0  0  0  0
  -26.4700  -38.1340   24.1260 H   0  0  0  0  0  0  0  0  0  0  0  0
  -26.4320  -31.4930   25.0050 C   0  0  1  0  0  0  0  0  0  0  0  0
  -25.3900  -31.2500   26.1200 C   0  0  0  0  0  1  0  0  0  0  0  0
  -26.9150  -30.1130   24.5030 C   0  0  0  0  0  1  0  0  0  0  0  0
  -27.6590  -32.1890   25.6370 C   0  0  0  0  0  1  0  0  0  0  0  0
  2  6  2  0
  2  4  1  0
  3  1  1  0
  3 48  1  0
  4  3  2  0
  5  1  2  0
  6  5  1  0
  7  8  1  0
  8  5  1  0
  9  4  1  0
 10  9  2  0
 11 10  1  0
 12 17  1  0
 13 14  1  0
 13 12  1  0
 15 14  1  0
 15 22  1  0
 15 16  1  0
 17 11  1  0
 17 16  1  0
 18 11  2  0
 19 20  2  0
 20 39  1  0
 21 20  1  0
 21 24  1  0
 22 23  1  0
 22 19  1  0
 23 21  2  0
 24 25  1  0
 25 26  2  0
 27 30  1  0
 27 26  1  0
 28 27  2  0
 29 28  1  0
 29 24  2  0
 30 31  1  0
 31 36  2  0
 31 32  1  0
 32 33  2  0
 33 34  1  0
 34 38  1  0
 35 34  2  0
 36 35  1  0
 37 36  1  0
 39 40  1  0
 40 43  1  0
 40 42  1  0
 41 39  2  0
 44 19  1  0
 44 45  1  0
 46 44  1  0
 47 48  2  0
 49  6  1  0
 49 50  1  0
 52 51  2  0
 52 50  1  0
 53 54  1  0
 53 51  1  0
 54 56  1  0
 55 66  2  0
 56 61  1  0
 57 65  1  0
 57 67  1  0
 58 64  1  0
 58 60  1  0
 59 65  1  0
 60 59  1  0
 61 60  2  0
 62 63  1  0
 62 56  2  0
 63 58  2  0
 64 57  1  0
 65 55  1  0
 67 69  2  0
 68 67  1  0
 70 68  1  0
 71 80  2  0
 71 76  1  0
 72 68  1  0
 72 76  1  0
 73 72  1  0
 74 75  1  0
 74 73  1  0
 75 71  1  0
 76 77  2  0
 77 78  1  0
 79 78  2  0
 80 79  1  0
 81 55  1  0
 81 82  1  0
 81 91  1  0
 82 85  1  0
 83 87  1  0
 83 82  1  0
 84 83  2  0
 87 86  1  0
 89 87  1  0
 89 90  1  0
 89 88  1  0
 91 94  1  1
 91 92  1  0
 93 91  1  0
M  ISO  4  10 100  11 100  53 101  54 101
M  END
>  <TORSDO>  (6) 
F 23

>  <SCORE>  (6) 
-12.077

>  <name>  (6) 
5

>  <ligand_id>  (6) 
5

>  <original_smiles>  (6) 
[H]C([H])=C([H])c1c([H])c(OC([H])([H])[H])c(OC([H])([H])C([H])=C([H])C([H])([H])Oc2c([H])c([H])c3c(c2[H])C([H])([H])N(C(=O)C([H])(N([H])C(=O)C([H])(N([H])C([H])([H])[H])C([H])([H])[H])C(C([H])([H])[H])(C([H])([H])[H])C([H])([H])[H])C([H])(C(=O)N([H])C2([H])c4c([H])c([H])c([H])c([H])c4C([H])([H])C([H])([H])C2([H])[H])C3([H])[H])c([H])c1C([H])=C([H])C(=O)N1C([H])([H])C([H])([H])C([H])([H])C([H])(n2nc(-c3c([H])c([H])c(Oc4c([H])c([H])c(F)c([H])c4F)c([H])c3[H])c(C(=O)N([H])[H])c2N([H])[H])C1([H])[H]

>  <smiles>  (6) 
[H]C([H])=C([H])c1c([H])c(OC([H])([H])[H])c(OC([H])([H])C([H])=C([H])C([H])([H])Oc2c([H])c([H])c3c(c2[H])C([H])([H])N(C(=O)C([H])(N([H])C(=O)C([H])(N([H])C([H])([H])[H])C([H])([H])[H])C(C([H])([H])[H])(C([H])([H])[H])C([H])([H])[H])C([H])(C(=O)N([H])C2([H])c4c([H])c([H])c([H])c([H])c4C([H])([H])C([H])([H])C2([H])[H])C3([H])[H])c([H])c1C([H])=C([H])C(=O)N1C([H])([H])C([H])([H])C([H])([H])C([H])(n2nc(-c3c([H])c([H])c(Oc4c([H])c([H])c(F)c([H])c4F)c([H])c3[H])c(C(=O)N([H])[H])c2N([H])[H])C1([H])[H]

$$$$
6:0:0
     RDKit          3D

 91 99  0  0  1  0  0  0  0  0999 V2000
  -30.1290  -21.6930   20.2470 C   0  0  0  0  0  3  0  0  0  0  0  0
  -29.1400  -22.6340   20.0960 C   0  0  0  0  0  3  0  0  0  0  0  0
  -31.2090  -19.3670   20.4240 C   0  0  0  0  0  3  0  0  0  0  0  0
  -31.1630  -17.9390   20.4850 C   0  0  0  0  0  3  0  0  0  0  0  0
  -28.8270  -19.4610   20.2450 C   0  0  0  0  0  3  0  0  0  0  0  0
  -30.0430  -20.1750   20.3070 C   0  0  0  0  0  0  0  0  0  0  0  0
  -28.7660  -18.0390   20.3180 C   0  0  0  0  0  0  0  0  0  0  0  0
  -29.9370  -17.2220   20.4310 C   0  0  0  0  0  0  0  0  0  0  0  0
  -27.3880  -17.4260   20.2350 C   0  0  0  0  0  1  0  0  0  0  0  0
  -30.5780  -14.7080   20.0610 C   0  0  0  0  0  0  0  0  0  0  0  0
  -30.2850  -12.5080   18.9340 C   0  0  0  0  0  2  0  0  0  0  0  0
  -29.2680  -12.6790   17.7850 C   0  0  0  0  0  2  0  0  0  0  0  0
  -27.8240  -12.5040   18.2990 C   0  0  0  0  0  2  0  0  0  0  0  0
  -27.5440  -13.3240   19.5850 C   0  0  0  0  0  3  0  0  0  0  0  0
  -28.6720  -13.1330   20.6260 C   0  0  0  0  0  2  0  0  0  0  0  0
  -29.9440  -13.4930   19.9800 N   0  0  0  0  0  0  0  0  0  0  0  0
  -31.7200  -14.8580   19.6170 O   0  0  0  0  0  0  0  0  0  0  0  0
  -29.8060  -15.7580   20.4920 N   0  0  0  0  0  0  0  0  0  0  0  0
  -28.9020  -15.4470   20.8110 H   0  0  0  0  0  0  0  0  0  0  0  0
  -25.1890  -13.8960   20.4510 C   0  0  0  0  0  0  0  0  0  0  0  0
  -24.1510  -13.1190   20.8760 C   0  0  0  0  0  0  0  0  0  0  0  0
  -24.6080  -11.7700   20.7770 C   0  0  0  0  0  0  0  0  0  0  0  0
  -26.2230  -13.0270   20.1400 N   0  0  0  0  0  0  0  0  0  0  0  0
  -25.8790  -11.7390   20.3930 N   0  0  0  0  0  0  0  0  0  0  0  0
  -23.8870  -10.5070   20.9690 C   0  0  0  0  0  0  0  0  0  0  0  0
  -24.3330   -9.5360   21.8910 C   0  0  0  0  0  3  0  0  0  0  0  0
  -23.6120   -8.3360   22.0700 C   0  0  0  0  0  3  0  0  0  0  0  0
  -22.4300   -8.1010   21.3280 C   0  0  0  0  0  0  0  0  0  0  0  0
  -22.0020   -9.0610   20.3940 C   0  0  0  0  0  3  0  0  0  0  0  0
  -22.7250  -10.2520   20.2120 C   0  0  0  0  0  3  0  0  0  0  0  0
  -21.6790   -6.9540   21.4190 O   0  0  0  0  0  0  0  0  0  0  0  0
  -21.5980   -6.2400   22.5870 C   0  0  0  0  0  0  0  0  0  0  0  0
  -21.1080   -6.8150   23.7800 C   0  0  0  0  0  3  0  0  0  0  0  0
  -20.9750   -6.0250   24.9390 C   0  0  0  0  0  3  0  0  0  0  0  0
  -21.3230   -4.6610   24.9060 C   0  0  0  0  0  0  0  0  0  0  0  0
  -21.8080   -4.0850   23.7180 C   0  0  0  0  0  3  0  0  0  0  0  0
  -21.9420   -4.8730   22.5610 C   0  0  0  0  0  0  0  0  0  0  0  0
  -22.3880   -4.3090   21.4130 F   0  0  0  0  0  0  0  0  0  0  0  0
  -21.1870   -3.8990   26.0170 F   0  0  0  0  0  0  0  0  0  0  0  0
  -22.7750  -13.5950   21.2420 C   0  0  0  0  0  0  0  0  0  0  0  0
  -22.0960  -12.8820   22.1330 N   0  0  0  0  0  0  0  0  0  0  0  0
  -22.3130  -14.6350   20.7750 O   0  0  0  0  0  0  0  0  0  0  0  0
  -22.4840  -12.0410   22.5350 H   0  0  0  0  0  0  0  0  0  0  0  0
  -21.1750  -13.1840   22.4210 H   0  0  0  0  0  0  0  0  0  0  0  0
  -25.3240  -15.2650   20.2760 N   0  0  0  0  0  0  0  0  0  0  0  0
  -24.5260  -15.8830   20.3820 H   0  0  0  0  0  0  0  0  0  0  0  0
  -26.0790  -15.6770   19.7470 H   0  0  0  0  0  0  0  0  0  0  0  0
  -29.3700  -24.1380   20.0880 C   0  0  0  0  0  0  0  0  0  0  0  0
  -30.4850  -24.6250   20.3070 O   0  0  0  0  0  0  0  0  0  0  0  0
  -28.1770  -25.1120   19.7760 C   0  0  0  0  0  2  0  0  0  0  0  0
  -28.3930  -26.5490   20.0490 O   0  0  0  0  0  0  0  0  0  0  0  0
  -24.5920  -31.8090   23.2030 C   0  0  0  0  0  0  0  0  0  0  0  0
  -27.2560  -27.3730   20.0290 C   0  0  0  0  0  0  0  0  0  0  0  0
  -23.4050  -30.4490   21.5200 C   0  0  0  0  0  3  0  0  0  0  0  0
  -24.8730  -28.9540   20.0600 C   0  0  0  0  0  0  0  0  0  0  0  0
  -25.9430  -30.7940   21.3580 C   0  0  0  0  0  2  0  0  0  0  0  0
  -26.0350  -29.4370   20.6730 C   0  0  0  0  0  0  0  0  0  0  0  0
  -27.2300  -28.6590   20.6490 C   0  0  0  0  0  3  0  0  0  0  0  0
  -26.0640  -26.9380   19.4000 C   0  0  0  0  0  3  0  0  0  0  0  0
  -24.8870  -27.7080   19.4170 C   0  0  0  0  0  3  0  0  0  0  0  0
  -23.6310  -29.8170   20.1230 C   0  0  0  0  0  2  0  0  0  0  0  0
  -24.6650  -31.0320   22.0850 N   0  0  0  0  0  0  0  0  0  0  0  0
  -23.5030  -32.0660   23.7400 O   0  0  0  0  0  0  0  0  0  0  0  0
  -22.7430  -29.4010   22.4460 C   0  0  0  0  0  0  0  0  0  0  0  0
  -21.4210  -29.2160   22.3000 N   0  0  0  0  0  0  0  0  0  0  0  0
  -23.4200  -28.7610   23.2550 O   0  0  0  0  0  0  0  0  0  0  0  0
  -20.9360  -29.7870   21.6240 H   0  0  0  0  0  0  0  0  0  0  0  0
  -18.0460  -27.9950   22.7480 C   0  0  0  0  0  0  0  0  0  0  0  0
  -20.6020  -28.2530   23.0390 C   0  0  0  0  0  3  0  0  0  0  0  0
  -20.7110  -26.8400   22.4220 C   0  0  0  0  0  2  0  0  0  0  0  0
  -19.6160  -26.5430   21.3930 C   0  0  0  0  0  2  0  0  0  0  0  0
  -18.2300  -26.6660   22.0340 C   0  0  0  0  0  2  0  0  0  0  0  0
  -19.1600  -28.7480   23.2050 C   0  0  0  0  0  0  0  0  0  0  0  0
  -18.9340  -29.9920   23.8320 C   0  0  0  0  0  3  0  0  0  0  0  0
  -17.6260  -30.4840   24.0050 C   0  0  0  0  0  3  0  0  0  0  0  0
  -16.5270  -29.7280   23.5630 C   0  0  0  0  0  3  0  0  0  0  0  0
  -16.7380  -28.4850   22.9410 C   0  0  0  0  0  3  0  0  0  0  0  0
  -25.8680  -32.4300   23.8510 C   0  0  0  0  0  3  0  0  0  0  0  0
  -26.3630  -31.6440   25.1280 C   0  0  1  0  0  0  0  0  0  0  0  0
  -25.2520  -31.3980   26.1760 C   0  0  0  0  0  1  0  0  0  0  0  0
  -26.9490  -30.2690   24.7300 C   0  0  0  0  0  1  0  0  0  0  0  0
  -27.5070  -32.4270   25.8140 C   0  0  0  0  0  1  0  0  0  0  0  0
  -25.5590  -33.8260   24.1910 N   0  0  0  0  0  0  0  0  0  0  0  0
  -25.8800  -34.8820   23.4310 C   0  0  0  0  0  0  0  0  0  0  0  0
  -26.5390  -34.7830   22.3910 O   0  0  0  0  0  0  0  0  0  0  0  0
  -24.9740  -33.9770   24.9980 H   0  0  0  0  0  0  0  0  0  0  0  0
  -24.1330  -36.6640   23.1170 C   0  0  0  0  0  1  0  0  0  0  0  0
  -25.3950  -36.2670   23.9000 C   0  0  0  0  0  3  0  0  0  0  0  0
  -27.5410  -37.1690   24.6820 C   0  0  0  0  0  1  0  0  0  0  0  0
  -26.4170  -37.3280   23.7630 N   0  0  0  0  0  0  0  0  0  0  0  0
  -26.0060  -38.2440   23.9220 H   0  0  0  0  0  0  0  0  0  0  0  0
  1  6  1  0
  2  1  2  0
  3  4  1  0
  5  6  1  0
  5  7  2  0
  6  3  2  0
  7  8  1  0
  8  4  2  0
  8 18  1  0
  9  7  1  0
 10 18  1  0
 11 16  1  0
 12 13  1  0
 12 11  1  0
 14 13  1  0
 14 23  1  0
 14 15  1  0
 16 10  1  0
 16 15  1  0
 17 10  2  0
 18 19  1  0
 20 21  2  0
 21 40  1  0
 22 21  1  0
 22 25  1  0
 23 24  1  0
 23 20  1  0
 24 22  2  0
 25 26  1  0
 26 27  2  0
 28 31  1  0
 28 27  1  0
 29 28  2  0
 30 29  1  0
 30 25  2  0
 31 32  1  0
 32 33  1  0
 33 34  2  0
 35 34  1  0
 35 39  1  0
 36 35  2  0
 37 32  2  0
 37 36  1  0
 38 37  1  0
 40 41  1  0
 41 44  1  0
 41 43  1  0
 42 40  2  0
 45 46  1  0
 45 20  1  0
 47 45  1  0
 48  2  1  0
 48 49  2  0
 50 51  1  0
 50 48  1  0
 52 63  2  0
 53 51  1  0
 53 58  1  0
 54 62  1  0
 54 64  1  0
 55 61  1  0
 55 57  1  0
 56 62  1  0
 57 56  1  0
 58 57  2  0
 59 60  1  0
 59 53  2  0
 60 55  2  0
 61 54  1  0
 62 52  1  0
 64 66  2  0
 65 64  1  0
 67 65  1  0
 68 77  2  0
 68 73  1  0
 69 65  1  0
 69 73  1  0
 70 69  1  0
 71 72  1  0
 71 70  1  0
 72 68  1  0
 73 74  2  0
 74 75  1  0
 76 75  2  0
 77 76  1  0
 78 52  1  0
 78 83  1  0
 78 79  1  0
 79 82  1  1
 79 80  1  0
 81 79  1  0
 83 86  1  0
 84 88  1  0
 84 83  1  0
 85 84  2  0
 88 87  1  0
 90 88  1  0
 90 91  1  0
 90 89  1  0
M  ISO  4  10 100  18 100  50 101  51 101
M  END
>  <TORSDO>  (7) 
F 19

>  <SCORE>  (7) 
-14.326

>  <name>  (7) 
6

>  <ligand_id>  (7) 
6

>  <original_smiles>  (7) 
[H]C(C(=O)C([H])([H])Oc1c([H])c([H])c2c(c1[H])C([H])([H])N(C(=O)C([H])(N([H])C(=O)C([H])(N([H])C([H])([H])[H])C([H])([H])[H])C(C([H])([H])[H])(C([H])([H])[H])C([H])([H])[H])C([H])(C(=O)N([H])C1([H])c3c([H])c([H])c([H])c([H])c3C([H])([H])C([H])([H])C1([H])[H])C2([H])[H])=C([H])c1c([H])c([H])c(N([H])C(=O)N2C([H])([H])C([H])([H])C([H])([H])C([H])(n3nc(-c4c([H])c([H])c(Oc5c([H])c([H])c(F)c([H])c5F)c([H])c4[H])c(C(=O)N([H])[H])c3N([H])[H])C2([H])[H])c(C([H])([H])[H])c1[H]

>  <smiles>  (7) 
[H]C(C(=O)C([H])([H])Oc1c([H])c([H])c2c(c1[H])C([H])([H])N(C(=O)C([H])(N([H])C(=O)C([H])(N([H])C([H])([H])[H])C([H])([H])[H])C(C([H])([H])[H])(C([H])([H])[H])C([H])([H])[H])C([H])(C(=O)N([H])C1([H])c3c([H])c([H])c([H])c([H])c3C([H])([H])C([H])([H])C1([H])[H])C2([H])[H])=C([H])c1c([H])c([H])c(N([H])C(=O)N2C([H])([H])C([H])([H])C([H])([H])C([H])(n3nc(-c4c([H])c([H])c(Oc5c([H])c([H])c(F)c([H])c5F)c([H])c4[H])c(C(=O)N([H])[H])c3N([H])[H])C2([H])[H])c(C([H])([H])[H])c1[H]

$$$$
7:0:0
     RDKit          3D

 95103  0  0  1  0  0  0  0  0999 V2000
  -29.3180  -17.3360   18.8530 C   0  0  0  0  0  3  0  0  0  0  0  0
  -28.8270  -19.7240   18.5750 C   0  0  0  0  0  3  0  0  0  0  0  0
  -29.9940  -17.5490   20.0750 C   0  0  0  0  0  0  0  0  0  0  0  0
  -30.1080  -18.9520   20.5010 C   0  0  0  0  0  0  0  0  0  0  0  0
  -29.5070  -20.0620   19.7680 C   0  0  0  0  0  0  0  0  0  0  0  0
  -28.7520  -18.3950   18.1210 C   0  0  0  0  0  0  0  0  0  0  0  0
  -28.1020  -18.1260   16.9650 F   0  0  0  0  0  0  0  0  0  0  0  0
  -30.3930  -16.2640   20.8700 C   0  0  0  0  0  0  0  0  0  0  0  0
  -30.1830  -16.2300   22.1190 N   0  0  0  0  0  0  0  0  0  0  0  0
  -29.7520  -17.0890   22.4350 H   0  0  0  0  0  0  0  0  0  0  0  0
  -31.0580  -15.0050   20.1500 C   0  0  0  0  0  0  0  0  0  0  0  0
  -30.7530  -12.7800   19.0540 C   0  0  0  0  0  2  0  0  0  0  0  0
  -29.7750  -12.9360   17.8660 C   0  0  0  0  0  2  0  0  0  0  0  0
  -28.3140  -12.7840   18.3340 C   0  0  0  0  0  2  0  0  0  0  0  0
  -28.0100  -13.6230   19.6030 C   0  0  0  0  0  3  0  0  0  0  0  0
  -29.0990  -13.4230   20.6770 C   0  0  0  0  0  2  0  0  0  0  0  0
  -30.3950  -13.7920   20.0810 N   0  0  0  0  0  0  0  0  0  0  0  0
  -32.1610  -15.1370   19.6090 O   0  0  0  0  0  0  0  0  0  0  0  0
  -25.6700  -14.2470   20.4560 C   0  0  0  0  0  0  0  0  0  0  0  0
  -24.5940  -13.4870   20.8260 C   0  0  0  0  0  0  0  0  0  0  0  0
  -25.0100  -12.1260   20.7000 C   0  0  0  0  0  0  0  0  0  0  0  0
  -26.6740  -13.3510   20.1260 N   0  0  0  0  0  0  0  0  0  0  0  0
  -26.2850  -12.0660   20.3320 N   0  0  0  0  0  0  0  0  0  0  0  0
  -24.2510  -10.8770   20.8510 C   0  0  0  0  0  0  0  0  0  0  0  0
  -24.6660   -9.8640   21.7430 C   0  0  0  0  0  3  0  0  0  0  0  0
  -23.9080   -8.6810   21.8840 C   0  0  0  0  0  3  0  0  0  0  0  0
  -22.7220   -8.5040   21.1340 C   0  0  0  0  0  0  0  0  0  0  0  0
  -22.3260   -9.5060   20.2310 C   0  0  0  0  0  3  0  0  0  0  0  0
  -23.0830  -10.6800   20.0880 C   0  0  0  0  0  3  0  0  0  0  0  0
  -21.9370   -7.3780   21.1870 O   0  0  0  0  0  0  0  0  0  0  0  0
  -21.8270   -6.6300   22.3320 C   0  0  0  0  0  0  0  0  0  0  0  0
  -21.3700   -7.1890   23.5460 C   0  0  0  0  0  3  0  0  0  0  0  0
  -21.2060   -6.3690   24.6800 C   0  0  0  0  0  3  0  0  0  0  0  0
  -21.4880   -4.9920   24.6010 C   0  0  0  0  0  0  0  0  0  0  0  0
  -21.9370   -4.4320   23.3930 C   0  0  0  0  0  3  0  0  0  0  0  0
  -22.1030   -5.2490   22.2600 C   0  0  0  0  0  0  0  0  0  0  0  0
  -22.5150   -4.7020   21.0920 F   0  0  0  0  0  0  0  0  0  0  0  0
  -21.3230   -4.2030   25.6890 F   0  0  0  0  0  0  0  0  0  0  0  0
  -23.2260  -13.9900   21.1870 C   0  0  0  0  0  0  0  0  0  0  0  0
  -22.5200  -13.2770   22.0560 N   0  0  0  0  0  0  0  0  0  0  0  0
  -22.7940  -15.0480   20.7320 O   0  0  0  0  0  0  0  0  0  0  0  0
  -22.8830  -12.4190   22.4460 H   0  0  0  0  0  0  0  0  0  0  0  0
  -21.6040  -13.5940   22.3400 H   0  0  0  0  0  0  0  0  0  0  0  0
  -25.8700  -15.6210   20.3490 N   0  0  0  0  0  0  0  0  0  0  0  0
  -25.1350  -16.2910   20.5410 H   0  0  0  0  0  0  0  0  0  0  0  0
  -26.7320  -16.0540   20.0420 H   0  0  0  0  0  0  0  0  0  0  0  0
  -30.9230  -19.3150   21.7410 C   0  0  0  0  0  2  0  0  0  0  0  0
  -33.2220  -20.0850   22.5590 C   0  0  0  0  0  1  0  0  0  0  0  0
  -32.4230  -19.4370   21.4230 C   0  0  0  0  0  2  0  0  0  0  0  0
  -29.5910  -21.4250   20.1910 O   0  0  0  0  0  0  0  0  0  0  0  0
  -28.8420  -22.5140   19.5010 C   0  0  0  0  0  2  0  0  0  0  0  0
  -30.0720  -24.3590   20.7610 C   0  0  0  0  0  2  0  0  0  0  0  0
  -29.0460  -24.0170   19.9650 C   0  0  0  0  0  0  0  0  0  0  0  0
  -28.0100  -25.1060   19.4740 C   0  0  0  0  0  2  0  0  0  0  0  0
  -28.2310  -26.5680   19.7370 O   0  0  0  0  0  0  0  0  0  0  0  0
  -24.5040  -31.7970   23.1060 C   0  0  0  0  0  0  0  0  0  0  0  0
  -27.1110  -27.4320   19.7380 C   0  0  0  0  0  0  0  0  0  0  0  0
  -23.2790  -30.4520   21.4390 C   0  0  0  0  0  3  0  0  0  0  0  0
  -24.7160  -29.0160   19.8860 C   0  0  0  0  0  0  0  0  0  0  0  0
  -25.8060  -30.8320   21.1930 C   0  0  0  0  0  2  0  0  0  0  0  0
  -25.8950  -29.4890   20.4730 C   0  0  0  0  0  0  0  0  0  0  0  0
  -27.0940  -28.7090   20.3940 C   0  0  0  0  0  3  0  0  0  0  0  0
  -25.9060  -27.0380   19.1090 C   0  0  0  0  0  3  0  0  0  0  0  0
  -24.7250  -27.7960   19.1940 C   0  0  0  0  0  3  0  0  0  0  0  0
  -23.4630  -29.8570   20.0200 C   0  0  0  0  0  2  0  0  0  0  0  0
  -24.5500  -31.0430   21.9690 N   0  0  0  0  0  0  0  0  0  0  0  0
  -23.4320  -32.0230   23.6870 O   0  0  0  0  0  0  0  0  0  0  0  0
  -22.6710  -29.3710   22.3670 C   0  0  0  0  0  0  0  0  0  0  0  0
  -21.3520  -29.1430   22.2490 N   0  0  0  0  0  0  0  0  0  0  0  0
  -23.3860  -28.7450   23.1540 O   0  0  0  0  0  0  0  0  0  0  0  0
  -20.8320  -29.7030   21.5890 H   0  0  0  0  0  0  0  0  0  0  0  0
  -18.0470  -27.7410   22.6970 C   0  0  0  0  0  0  0  0  0  0  0  0
  -20.5830  -28.1440   22.9940 C   0  0  0  0  0  3  0  0  0  0  0  0
  -20.7730  -26.7320   22.3920 C   0  0  0  0  0  2  0  0  0  0  0  0
  -19.7000  -26.3670   21.3610 C   0  0  0  0  0  2  0  0  0  0  0  0
  -18.3070  -26.4190   21.9970 C   0  0  0  0  0  2  0  0  0  0  0  0
  -19.1160  -28.5590   23.1510 C   0  0  0  0  0  0  0  0  0  0  0  0
  -18.8190  -29.7940   23.7650 C   0  0  0  0  0  3  0  0  0  0  0  0
  -17.4860  -30.2160   23.9310 C   0  0  0  0  0  3  0  0  0  0  0  0
  -16.4320  -29.3950   23.4920 C   0  0  0  0  0  3  0  0  0  0  0  0
  -16.7130  -28.1610   22.8810 C   0  0  0  0  0  3  0  0  0  0  0  0
  -25.7900  -32.4310   23.7160 C   0  0  0  0  0  3  0  0  0  0  0  0
  -25.4740  -33.8210   24.0770 N   0  0  0  0  0  0  0  0  0  0  0  0
  -25.8050  -34.8920   23.3460 C   0  0  0  0  0  0  0  0  0  0  0  0
  -26.4800  -34.8170   22.3160 O   0  0  0  0  0  0  0  0  0  0  0  0
  -24.8720  -33.9540   24.8780 H   0  0  0  0  0  0  0  0  0  0  0  0
  -24.0780  -36.6920   23.0210 C   0  0  0  0  0  1  0  0  0  0  0  0
  -25.3100  -36.2680   23.8350 C   0  0  0  0  0  3  0  0  0  0  0  0
  -27.4360  -37.1330   24.7100 C   0  0  0  0  0  1  0  0  0  0  0  0
  -26.3420  -37.3260   23.7610 N   0  0  0  0  0  0  0  0  0  0  0  0
  -25.9340  -38.2400   23.9320 H   0  0  0  0  0  0  0  0  0  0  0  0
  -26.3350  -31.6440   24.9710 C   0  0  1  0  0  0  0  0  0  0  0  0
  -25.2640  -31.3890   26.0580 C   0  0  0  0  0  1  0  0  0  0  0  0
  -26.9130  -30.2720   24.5490 C   0  0  0  0  0  1  0  0  0  0  0  0
  -27.4980  -32.4310   25.6190 C   0  0  0  0  0  1  0  0  0  0  0  0
  1  3  1  0
  2  5  2  0
  3  4  2  0
  3  8  1  0
  4 47  1  0
  5 50  1  0
  5  4  1  0
  6  2  1  0
  6  1  2  0
  7  6  1  0
  8  9  2  0
  9 10  1  0
 11  8  1  0
 12 17  1  0
 13 14  1  0
 13 12  1  0
 15 14  1  0
 15 22  1  0
 15 16  1  0
 17 11  1  0
 17 16  1  0
 18 11  2  0
 19 20  2  0
 20 39  1  0
 21 20  1  0
 21 24  1  0
 22 23  1  0
 22 19  1  0
 23 21  2  0
 24 25  1  0
 25 26  2  0
 27 30  1  0
 27 26  1  0
 28 27  2  0
 29 28  1  0
 29 24  2  0
 30 31  1  0
 31 32  1  0
 32 33  2  0
 34 33  1  0
 34 38  1  0
 35 34  2  0
 36 31  2  0
 36 35  1  0
 37 36  1  0
 39 40  1  0
 40 43  1  0
 40 42  1  0
 41 39  2  0
 44 19  1  0
 44 45  1  0
 46 44  1  0
 49 47  1  0
 49 48  1  0
 51 53  1  0
 51 50  1  0
 53 52  2  0
 54 55  1  0
 54 53  1  0
 55 57  1  0
 56 67  2  0
 57 62  1  0
 58 66  1  0
 58 68  1  0
 59 65  1  0
 59 61  1  0
 60 66  1  0
 61 60  1  0
 62 61  2  0
 63 64  1  0
 63 57  2  0
 64 59  2  0
 65 58  1  0
 66 56  1  0
 68 70  2  0
 69 68  1  0
 71 69  1  0
 72 81  2  0
 72 77  1  0
 73 69  1  0
 73 77  1  0
 74 73  1  0
 75 76  1  0
 75 74  1  0
 76 72  1  0
 77 78  2  0
 78 79  1  0
 80 79  2  0
 81 80  1  0
 82 56  1  0
 82 83  1  0
 82 92  1  0
 83 86  1  0
 84 88  1  0
 84 83  1  0
 85 84  2  0
 88 87  1  0
 90 88  1  0
 90 91  1  0
 90 89  1  0
 92 95  1  1
 92 93  1  0
 94 92  1  0
M  ISO  4   8 100  11 100  54 101  55 101
M  END
>  <TORSDO>  (8) 
F 23

>  <SCORE>  (8) 
-12.883

>  <name>  (8) 
7

>  <ligand_id>  (8) 
7

>  <original_smiles>  (8) 
[H]N=C(C(=O)N1C([H])([H])C([H])([H])C([H])([H])C([H])(n2nc(-c3c([H])c([H])c(Oc4c([H])c([H])c(F)c([H])c4F)c([H])c3[H])c(C(=O)N([H])[H])c2N([H])[H])C1([H])[H])c1c([H])c(F)c([H])c(OC([H])([H])C(=C([H])[H])C([H])([H])Oc2c([H])c([H])c3c(c2[H])C([H])([H])N(C(=O)C([H])(N([H])C(=O)C([H])(N([H])C([H])([H])[H])C([H])([H])[H])C(C([H])([H])[H])(C([H])([H])[H])C([H])([H])[H])C([H])(C(=O)N([H])C2([H])c4c([H])c([H])c([H])c([H])c4C([H])([H])C([H])([H])C2([H])[H])C3([H])[H])c1C([H])([H])C([H])([H])C([H])([H])[H]

>  <smiles>  (8) 
[H]N=C(C(=O)N1C([H])([H])C([H])([H])C([H])([H])C([H])(n2nc(-c3c([H])c([H])c(Oc4c([H])c([H])c(F)c([H])c4F)c([H])c3[H])c(C(=O)N([H])[H])c2N([H])[H])C1([H])[H])c1c([H])c(F)c([H])c(OC([H])([H])C(=C([H])[H])C([H])([H])Oc2c([H])c([H])c3c(c2[H])C([H])([H])N(C(=O)C([H])(N([H])C(=O)C([H])(N([H])C([H])([H])[H])C([H])([H])[H])C(C([H])([H])[H])(C([H])([H])[H])C([H])([H])[H])C([H])(C(=O)N([H])C2([H])c4c([H])c([H])c([H])c([H])c4C([H])([H])C([H])([H])C2([H])[H])C3([H])[H])c1C([H])([H])C([H])([H])C([H])([H])[H]

$$$$
8:0:0
     RDKit          3D

 93101  0  0  1  0  0  0  0  0999 V2000
  -28.9900  -19.5880   21.4130 C   0  0  0  0  0  3  0  0  0  0  0  0
  -29.3720  -18.2300   21.4990 C   0  0  0  0  0  3  0  0  0  0  0  0
  -31.4840  -18.7850   20.4520 C   0  0  0  0  0  3  0  0  0  0  0  0
  -29.8480  -20.5740   20.8620 C   0  0  0  0  0  0  0  0  0  0  0  0
  -31.1210  -20.1500   20.3690 C   0  0  0  0  0  0  0  0  0  0  0  0
  -30.6420  -17.8230   21.0450 C   0  0  0  0  0  0  0  0  0  0  0  0
  -32.6620  -22.1210   20.4720 C   0  0  0  0  0  2  0  0  0  0  0  0
  -32.1680  -21.0420   19.8430 C   0  0  0  0  0  3  0  0  0  0  0  0
  -29.3810  -22.0070   20.9350 C   0  0  0  0  0  0  0  0  0  0  0  0
  -28.9320  -22.4910   21.9790 O   0  0  0  0  0  0  0  0  0  0  0  0
  -29.3830  -22.8680   19.6530 C   0  0  0  0  0  2  0  0  0  0  0  0
  -29.4890  -24.4150   19.8560 C   0  0  0  0  0  2  0  0  0  0  0  0
  -28.1460  -25.1800   19.7410 C   0  0  0  0  0  2  0  0  0  0  0  0
  -28.2910  -26.6180   19.7850 O   0  0  0  0  0  0  0  0  0  0  0  0
  -24.5280  -31.6860   23.0960 C   0  0  0  0  0  0  0  0  0  0  0  0
  -27.1210  -27.3630   19.7950 C   0  0  0  0  0  0  0  0  0  0  0  0
  -23.2920  -30.3350   21.4360 C   0  0  0  0  0  3  0  0  0  0  0  0
  -24.7210  -28.8740   19.9100 C   0  0  0  0  0  0  0  0  0  0  0  0
  -25.8120  -30.7250   21.1840 C   0  0  0  0  0  2  0  0  0  0  0  0
  -25.8920  -29.3800   20.4870 C   0  0  0  0  0  0  0  0  0  0  0  0
  -27.0950  -28.6350   20.4190 C   0  0  0  0  0  3  0  0  0  0  0  0
  -25.9250  -26.8820   19.2080 C   0  0  0  0  0  3  0  0  0  0  0  0
  -24.7350  -27.6280   19.2620 C   0  0  0  0  0  3  0  0  0  0  0  0
  -23.4700  -29.7180   20.0240 C   0  0  0  0  0  2  0  0  0  0  0  0
  -24.5630  -30.9290   21.9620 N   0  0  0  0  0  0  0  0  0  0  0  0
  -23.4580  -31.9250   23.6740 O   0  0  0  0  0  0  0  0  0  0  0  0
  -22.6780  -29.2680   22.3730 C   0  0  0  0  0  0  0  0  0  0  0  0
  -21.3580  -29.0490   22.2490 N   0  0  0  0  0  0  0  0  0  0  0  0
  -23.3840  -28.6430   23.1680 O   0  0  0  0  0  0  0  0  0  0  0  0
  -20.8490  -29.6060   21.5770 H   0  0  0  0  0  0  0  0  0  0  0  0
  -18.0270  -27.7240   22.7010 C   0  0  0  0  0  0  0  0  0  0  0  0
  -20.5710  -28.0710   22.9990 C   0  0  0  0  0  3  0  0  0  0  0  0
  -20.7320  -26.6550   22.4010 C   0  0  0  0  0  2  0  0  0  0  0  0
  -19.6500  -26.3100   21.3730 C   0  0  0  0  0  2  0  0  0  0  0  0
  -18.2590  -26.3930   22.0060 C   0  0  0  0  0  2  0  0  0  0  0  0
  -19.1130  -28.5190   23.1520 C   0  0  0  0  0  0  0  0  0  0  0  0
  -18.8440  -29.7640   23.7610 C   0  0  0  0  0  3  0  0  0  0  0  0
  -17.5210  -30.2140   23.9260 C   0  0  0  0  0  3  0  0  0  0  0  0
  -16.4480  -29.4150   23.4940 C   0  0  0  0  0  3  0  0  0  0  0  0
  -16.7020  -28.1730   22.8860 C   0  0  0  0  0  3  0  0  0  0  0  0
  -25.8240  -32.3080   23.7040 C   0  0  0  0  0  3  0  0  0  0  0  0
  -25.5150  -33.6930   24.0790 N   0  0  0  0  0  0  0  0  0  0  0  0
  -25.8310  -34.7680   23.3450 C   0  0  0  0  0  0  0  0  0  0  0  0
  -26.4800  -34.6970   22.2990 O   0  0  0  0  0  0  0  0  0  0  0  0
  -24.9360  -33.8190   24.8960 H   0  0  0  0  0  0  0  0  0  0  0  0
  -24.0910  -36.5620   23.0680 C   0  0  0  0  0  1  0  0  0  0  0  0
  -25.3430  -36.1400   23.8520 C   0  0  0  0  0  3  0  0  0  0  0  0
  -27.4810  -37.0080   24.6850 C   0  0  0  0  0  1  0  0  0  0  0  0
  -26.3700  -37.2000   23.7570 N   0  0  0  0  0  0  0  0  0  0  0  0
  -25.9650  -38.1150   23.9330 H   0  0  0  0  0  0  0  0  0  0  0  0
  -26.3760  -31.5010   24.9420 C   0  0  1  0  0  0  0  0  0  0  0  0
  -25.3090  -31.2210   26.0260 C   0  0  0  0  0  1  0  0  0  0  0  0
  -26.9610  -30.1430   24.4900 C   0  0  0  0  0  1  0  0  0  0  0  0
  -27.5350  -32.2850   25.6000 C   0  0  0  0  0  1  0  0  0  0  0  0
  -31.1860  -16.4190   21.3230 C   0  0  0  0  0  2  0  0  0  0  0  0
  -30.9300  -14.3920   19.8880 C   0  0  0  0  0  0  0  0  0  0  0  0
  -30.4980  -12.2530   18.7200 C   0  0  0  0  0  2  0  0  0  0  0  0
  -29.4800  -12.4480   17.5810 C   0  0  0  0  0  2  0  0  0  0  0  0
  -28.0360  -12.3450   18.1100 C   0  0  0  0  0  2  0  0  0  0  0  0
  -27.8020  -13.2100   19.3790 C   0  0  0  0  0  3  0  0  0  0  0  0
  -28.9150  -12.9670   20.4160 C   0  0  0  0  0  2  0  0  0  0  0  0
  -30.2060  -13.2490   19.7640 N   0  0  0  0  0  0  0  0  0  0  0  0
  -31.9680  -14.6000   19.2520 O   0  0  0  0  0  0  0  0  0  0  0  0
  -30.4430  -15.2900   20.7610 N   0  0  0  0  0  0  0  0  0  0  0  0
  -29.5730  -15.0490   21.2120 H   0  0  0  0  0  0  0  0  0  0  0  0
  -25.4700  -13.8880   20.2280 C   0  0  0  0  0  0  0  0  0  0  0  0
  -24.4130  -13.1490   20.6840 C   0  0  0  0  0  0  0  0  0  0  0  0
  -24.8410  -11.7860   20.6500 C   0  0  0  0  0  0  0  0  0  0  0  0
  -26.4780  -12.9790   19.9500 N   0  0  0  0  0  0  0  0  0  0  0  0
  -26.1060  -11.7100   20.2600 N   0  0  0  0  0  0  0  0  0  0  0  0
  -24.1030  -10.5450   20.9170 C   0  0  0  0  0  0  0  0  0  0  0  0
  -24.5250   -9.6340   21.9120 C   0  0  0  0  0  3  0  0  0  0  0  0
  -23.7880   -8.4560   22.1610 C   0  0  0  0  0  3  0  0  0  0  0  0
  -22.6180   -8.1790   21.4140 C   0  0  0  0  0  0  0  0  0  0  0  0
  -22.2170   -9.0780   20.4110 C   0  0  0  0  0  3  0  0  0  0  0  0
  -22.9520  -10.2480   20.1610 C   0  0  0  0  0  3  0  0  0  0  0  0
  -21.8540   -7.0490   21.5690 O   0  0  0  0  0  0  0  0  0  0  0  0
  -21.7330   -6.4240   22.7840 C   0  0  0  0  0  0  0  0  0  0  0  0
  -21.2070   -7.0870   23.9150 C   0  0  0  0  0  3  0  0  0  0  0  0
  -21.0320   -6.3860   25.1240 C   0  0  0  0  0  3  0  0  0  0  0  0
  -21.3750   -5.0220   25.2050 C   0  0  0  0  0  0  0  0  0  0  0  0
  -21.8950   -4.3600   24.0790 C   0  0  0  0  0  3  0  0  0  0  0  0
  -22.0700   -5.0580   22.8720 C   0  0  0  0  0  0  0  0  0  0  0  0
  -22.5500   -4.4080   21.7830 F   0  0  0  0  0  0  0  0  0  0  0  0
  -21.2010   -4.3480   26.3660 F   0  0  0  0  0  0  0  0  0  0  0  0
  -23.0480  -13.6630   21.0400 C   0  0  0  0  0  0  0  0  0  0  0  0
  -22.3630  -12.9940   21.9630 N   0  0  0  0  0  0  0  0  0  0  0  0
  -22.5990  -14.6890   20.5330 O   0  0  0  0  0  0  0  0  0  0  0  0
  -22.7430  -12.1650   22.3920 H   0  0  0  0  0  0  0  0  0  0  0  0
  -21.4490  -13.3200   22.2430 H   0  0  0  0  0  0  0  0  0  0  0  0
  -25.6530  -15.2520   20.0130 N   0  0  0  0  0  0  0  0  0  0  0  0
  -24.9110  -15.9290   20.1600 H   0  0  0  0  0  0  0  0  0  0  0  0
  -26.4960  -15.6630   19.6310 H   0  0  0  0  0  0  0  0  0  0  0  0
  1  2  1  0
  3  6  1  0
  4  9  1  0
  4  1  2  0
  5  3  2  0
  5  4  1  0
  6 55  1  0
  6  2  2  0
  8  5  1  0
  8  7  2  0
  9 10  2  0
 11 12  1  0
 11  9  1  0
 13 14  1  0
 13 12  1  0
 14 16  1  0
 15 26  2  0
 16 21  1  0
 17 25  1  0
 17 27  1  0
 18 24  1  0
 18 20  1  0
 19 25  1  0
 20 19  1  0
 21 20  2  0
 22 23  1  0
 22 16  2  0
 23 18  2  0
 24 17  1  0
 25 15  1  0
 27 29  2  0
 28 27  1  0
 30 28  1  0
 31 40  2  0
 31 36  1  0
 32 28  1  0
 32 36  1  0
 33 32  1  0
 34 35  1  0
 34 33  1  0
 35 31  1  0
 36 37  2  0
 37 38  1  0
 39 38  2  0
 40 39  1  0
 41 15  1  0
 41 42  1  0
 41 51  1  0
 42 45  1  0
 43 47  1  0
 43 42  1  0
 44 43  2  0
 47 46  1  0
 49 47  1  0
 49 50  1  0
 49 48  1  0
 51 54  1  1
 51 52  1  0
 53 51  1  0
 56 64  1  0
 57 62  1  0
 58 59  1  0
 58 57  1  0
 60 59  1  0
 60 69  1  0
 60 61  1  0
 62 56  1  0
 62 61  1  0
 63 56  2  0
 64 65  1  0
 64 55  1  0
 66 67  2  0
 67 86  1  0
 68 67  1  0
 68 71  1  0
 69 66  1  0
 69 70  1  0
 70 68  2  0
 71 72  1  0
 72 73  2  0
 74 77  1  0
 74 73  1  0
 75 74  2  0
 76 75  1  0
 76 71  2  0
 77 78  1  0
 78 83  2  0
 78 79  1  0
 79 80  2  0
 80 81  1  0
 81 85  1  0
 82 81  2  0
 83 82  1  0
 84 83  1  0
 86 87  1  0
 87 90  1  0
 87 89  1  0
 88 86  2  0
 91 92  1  0
 91 66  1  0
 93 91  1  0
M  ISO  4  13 101  14 101  56 100  64 100
M  END
>  <TORSDO>  (9) 
F 22

>  <SCORE>  (9) 
-11.531

>  <name>  (9) 
8

>  <ligand_id>  (9) 
8

>  <original_smiles>  (9) 
[H]C([H])=C([H])c1c([H])c(C([H])([H])N([H])C(=O)N2C([H])([H])C([H])([H])C([H])([H])C([H])(n3nc(-c4c([H])c([H])c(Oc5c([H])c([H])c(F)c([H])c5F)c([H])c4[H])c(C(=O)N([H])[H])c3N([H])[H])C2([H])[H])c([H])c([H])c1C(=O)C([H])([H])C([H])([H])C([H])([H])Oc1c([H])c([H])c2c(c1[H])C([H])([H])N(C(=O)C([H])(N([H])C(=O)C([H])(N([H])C([H])([H])[H])C([H])([H])[H])C(C([H])([H])[H])(C([H])([H])[H])C([H])([H])[H])C([H])(C(=O)N([H])C1([H])c3c([H])c([H])c([H])c([H])c3C([H])([H])C([H])([H])C1([H])[H])C2([H])[H]

>  <smiles>  (9) 
[H]C([H])=C([H])c1c([H])c(C([H])([H])N([H])C(=O)N2C([H])([H])C([H])([H])C([H])([H])C([H])(n3nc(-c4c([H])c([H])c(Oc5c([H])c([H])c(F)c([H])c5F)c([H])c4[H])c(C(=O)N([H])[H])c3N([H])[H])C2([H])[H])c([H])c([H])c1C(=O)C([H])([H])C([H])([H])C([H])([H])Oc1c([H])c([H])c2c(c1[H])C([H])([H])N(C(=O)C([H])(N([H])C(=O)C([H])(N([H])C([H])([H])[H])C([H])([H])[H])C(C([H])([H])[H])(C([H])([H])[H])C([H])([H])[H])C([H])(C(=O)N([H])C1([H])c3c([H])c([H])c([H])c([H])c3C([H])([H])C([H])([H])C1([H])[H])C2([H])[H]

$$$$
9:0:0
     RDKit          3D

 92100  0  0  1  0  0  0  0  0999 V2000
  -29.9380  -19.0050   21.2800 C   0  0  0  0  0  3  0  0  0  0  0  0
  -29.2470  -20.5970   19.0810 C   0  0  0  0  0  3  0  0  0  0  0  0
  -29.9610  -18.4340   19.9900 C   0  0  0  0  0  0  0  0  0  0  0  0
  -29.6360  -20.3730   21.4720 C   0  0  0  0  0  0  0  0  0  0  0  0
  -29.5750  -19.2390   18.8880 C   0  0  0  0  0  0  0  0  0  0  0  0
  -29.3120  -21.1960   20.3600 C   0  0  0  0  0  0  0  0  0  0  0  0
  -29.5220  -18.6770   17.4750 C   0  0  0  0  0  1  0  0  0  0  0  0
  -30.4200  -17.0460   19.7670 C   0  0  0  0  0  3  0  0  0  0  0  0
  -30.2640  -15.9390   20.5300 C   0  0  0  0  0  3  0  0  0  0  0  0
  -30.9460  -14.7250   20.0800 C   0  0  0  0  0  0  0  0  0  0  0  0
  -30.5030  -12.5950   18.9550 C   0  0  0  0  0  2  0  0  0  0  0  0
  -29.5560  -12.9030   17.7760 C   0  0  0  0  0  2  0  0  0  0  0  0
  -28.0830  -12.8310   18.2310 C   0  0  0  0  0  2  0  0  0  0  0  0
  -27.8150  -13.6220   19.5420 C   0  0  0  0  0  3  0  0  0  0  0  0
  -28.8920  -13.3350   20.6100 C   0  0  0  0  0  2  0  0  0  0  0  0
  -30.2110  -13.5810   20.0090 N   0  0  0  0  0  0  0  0  0  0  0  0
  -32.0900  -14.7840   19.6200 O   0  0  0  0  0  0  0  0  0  0  0  0
  -25.4510  -14.2730   20.3230 C   0  0  0  0  0  0  0  0  0  0  0  0
  -24.3760  -13.5240   20.7200 C   0  0  0  0  0  0  0  0  0  0  0  0
  -24.8030  -12.1620   20.6670 C   0  0  0  0  0  0  0  0  0  0  0  0
  -26.4680  -13.3690   20.0560 N   0  0  0  0  0  0  0  0  0  0  0  0
  -26.0830  -12.0940   20.3180 N   0  0  0  0  0  0  0  0  0  0  0  0
  -24.0510  -10.9160   20.8740 C   0  0  0  0  0  0  0  0  0  0  0  0
  -24.4780   -9.9420   21.8030 C   0  0  0  0  0  3  0  0  0  0  0  0
  -23.7290   -8.7610   21.9960 C   0  0  0  0  0  3  0  0  0  0  0  0
  -22.5400   -8.5460   21.2600 C   0  0  0  0  0  0  0  0  0  0  0  0
  -22.1320   -9.5100   20.3220 C   0  0  0  0  0  3  0  0  0  0  0  0
  -22.8810  -10.6820   20.1270 C   0  0  0  0  0  3  0  0  0  0  0  0
  -21.7610   -7.4190   21.3640 O   0  0  0  0  0  0  0  0  0  0  0  0
  -21.7260   -6.6690   22.5130 C   0  0  0  0  0  0  0  0  0  0  0  0
  -21.3100   -7.2170   23.7460 C   0  0  0  0  0  3  0  0  0  0  0  0
  -21.2220   -6.3940   24.8870 C   0  0  0  0  0  3  0  0  0  0  0  0
  -21.5400   -5.0250   24.7960 C   0  0  0  0  0  0  0  0  0  0  0  0
  -21.9480   -4.4780   23.5670 C   0  0  0  0  0  3  0  0  0  0  0  0
  -22.0380   -5.2980   22.4280 C   0  0  0  0  0  0  0  0  0  0  0  0
  -22.4120   -4.7600   21.2420 F   0  0  0  0  0  0  0  0  0  0  0  0
  -21.4490   -4.2340   25.8900 F   0  0  0  0  0  0  0  0  0  0  0  0
  -23.0000  -14.0340   21.0390 C   0  0  0  0  0  0  0  0  0  0  0  0
  -22.2840  -13.3600   21.9320 N   0  0  0  0  0  0  0  0  0  0  0  0
  -22.5690  -15.0670   20.5290 O   0  0  0  0  0  0  0  0  0  0  0  0
  -22.6440  -12.5260   22.3710 H   0  0  0  0  0  0  0  0  0  0  0  0
  -21.3600  -13.6850   22.1810 H   0  0  0  0  0  0  0  0  0  0  0  0
  -25.6450  -15.6400   20.1520 N   0  0  0  0  0  0  0  0  0  0  0  0
  -24.9050  -16.3180   20.2990 H   0  0  0  0  0  0  0  0  0  0  0  0
  -26.5090  -16.0590   19.8310 H   0  0  0  0  0  0  0  0  0  0  0  0
  -29.7790  -23.4090   19.9020 C   0  0  0  0  0  3  0  0  0  0  0  0
  -29.0510  -22.5670   20.5270 N   0  0  0  0  0  0  0  0  0  0  0  0
  -29.6390  -24.9220   20.0070 C   0  0  0  0  0  2  0  0  0  0  0  0
  -28.3490  -25.4920   19.3800 C   0  0  0  0  0  2  0  0  0  0  0  0
  -28.3310  -26.9200   19.5530 O   0  0  0  0  0  0  0  0  0  0  0  0
  -24.4700  -31.7280   23.0800 C   0  0  0  0  0  0  0  0  0  0  0  0
  -27.1170  -27.5770   19.6170 C   0  0  0  0  0  0  0  0  0  0  0  0
  -23.2340  -30.3760   21.4170 C   0  0  0  0  0  3  0  0  0  0  0  0
  -24.6690  -28.9820   19.8330 C   0  0  0  0  0  0  0  0  0  0  0  0
  -25.7320  -30.8480   21.1170 C   0  0  0  0  0  2  0  0  0  0  0  0
  -25.8340  -29.5200   20.3930 C   0  0  0  0  0  0  0  0  0  0  0  0
  -27.0600  -28.8260   20.2790 C   0  0  0  0  0  3  0  0  0  0  0  0
  -25.9340  -27.0580   19.0440 C   0  0  0  0  0  3  0  0  0  0  0  0
  -24.7140  -27.7520   19.1550 C   0  0  0  0  0  3  0  0  0  0  0  0
  -23.3980  -29.7850   19.9900 C   0  0  0  0  0  2  0  0  0  0  0  0
  -24.4990  -30.9950   21.9300 N   0  0  0  0  0  0  0  0  0  0  0  0
  -23.4090  -31.9260   23.6860 O   0  0  0  0  0  0  0  0  0  0  0  0
  -22.6690  -29.2780   22.3470 C   0  0  0  0  0  0  0  0  0  0  0  0
  -21.3540  -29.0210   22.2410 N   0  0  0  0  0  0  0  0  0  0  0  0
  -23.4090  -28.6600   23.1170 O   0  0  0  0  0  0  0  0  0  0  0  0
  -20.8170  -29.5780   21.5920 H   0  0  0  0  0  0  0  0  0  0  0  0
  -18.0820  -27.5610   22.7020 C   0  0  0  0  0  0  0  0  0  0  0  0
  -20.6130  -28.0030   22.9830 C   0  0  0  0  0  3  0  0  0  0  0  0
  -20.8230  -26.6000   22.3690 C   0  0  0  0  0  2  0  0  0  0  0  0
  -19.7480  -26.2230   21.3450 C   0  0  0  0  0  2  0  0  0  0  0  0
  -18.3590  -26.2470   21.9910 C   0  0  0  0  0  2  0  0  0  0  0  0
  -19.1400  -28.3920   23.1540 C   0  0  0  0  0  0  0  0  0  0  0  0
  -18.8280  -29.6200   23.7770 C   0  0  0  0  0  3  0  0  0  0  0  0
  -17.4890  -30.0180   23.9540 C   0  0  0  0  0  3  0  0  0  0  0  0
  -16.4450  -29.1820   23.5200 C   0  0  0  0  0  3  0  0  0  0  0  0
  -16.7430  -27.9560   22.9000 C   0  0  0  0  0  3  0  0  0  0  0  0
  -25.7630  -32.3700   23.6730 C   0  0  0  0  0  3  0  0  0  0  0  0
  -25.4370  -33.7510   24.0480 N   0  0  0  0  0  0  0  0  0  0  0  0
  -25.7510  -34.8320   23.3200 C   0  0  0  0  0  0  0  0  0  0  0  0
  -26.4170  -34.7690   22.2820 O   0  0  0  0  0  0  0  0  0  0  0  0
  -24.8420  -33.8730   24.8540 H   0  0  0  0  0  0  0  0  0  0  0  0
  -23.9970  -36.6110   23.0250 C   0  0  0  0  0  1  0  0  0  0  0  0
  -25.2450  -36.1970   23.8210 C   0  0  0  0  0  3  0  0  0  0  0  0
  -27.3630  -37.0900   24.6840 C   0  0  0  0  0  1  0  0  0  0  0  0
  -26.2630  -37.2680   23.7420 N   0  0  0  0  0  0  0  0  0  0  0  0
  -25.8410  -38.1760   23.9130 H   0  0  0  0  0  0  0  0  0  0  0  0
  -26.3410  -31.5770   24.9100 C   0  0  1  0  0  0  0  0  0  0  0  0
  -25.2940  -31.2950   26.0130 C   0  0  0  0  0  1  0  0  0  0  0  0
  -26.9310  -30.2200   24.4610 C   0  0  0  0  0  1  0  0  0  0  0  0
  -27.5010  -32.3750   25.5500 C   0  0  0  0  0  1  0  0  0  0  0  0
  -31.1600  -21.3980   23.2070 C   0  0  0  0  0  1  0  0  0  0  0  0
  -29.7330  -20.9440   22.8790 C   0  0  0  0  0  2  0  0  0  0  0  0
  1  4  1  0
  2  6  1  0
  3  1  2  0
  4 92  1  0
  5  2  2  0
  5  3  1  0
  6 47  1  0
  6  4  2  0
  7  5  1  0
  8  3  1  0
  8  9  2  0
 10  9  1  0
 11 16  1  0
 12 13  1  0
 12 11  1  0
 14 13  1  0
 14 21  1  0
 14 15  1  0
 16 10  1  0
 16 15  1  0
 17 10  2  0
 18 19  2  0
 19 38  1  0
 20 19  1  0
 20 23  1  0
 21 22  1  0
 21 18  1  0
 22 20  2  0
 23 24  1  0
 24 25  2  0
 26 29  1  0
 26 25  1  0
 27 26  2  0
 28 27  1  0
 28 23  2  0
 29 30  1  0
 30 31  1  0
 31 32  2  0
 33 32  1  0
 33 37  1  0
 34 33  2  0
 35 30  2  0
 35 34  1  0
 36 35  1  0
 38 39  1  0
 39 42  1  0
 39 41  1  0
 40 38  2  0
 43 44  1  0
 43 18  1  0
 45 43  1  0
 46 48  1  0
 46 47  2  0
 49 50  1  0
 49 48  1  0
 50 52  1  0
 51 62  2  0
 52 57  1  0
 53 61  1  0
 53 63  1  0
 54 60  1  0
 54 56  1  0
 55 61  1  0
 56 55  1  0
 57 56  2  0
 58 59  1  0
 58 52  2  0
 59 54  2  0
 60 53  1  0
 61 51  1  0
 63 65  2  0
 64 63  1  0
 66 64  1  0
 67 76  2  0
 67 72  1  0
 68 64  1  0
 68 72  1  0
 69 68  1  0
 70 71  1  0
 70 69  1  0
 71 67  1  0
 72 73  2  0
 73 74  1  0
 75 74  2  0
 76 75  1  0
 77 51  1  0
 77 78  1  0
 77 87  1  0
 78 81  1  0
 79 83  1  0
 79 78  1  0
 80 79  2  0
 83 82  1  0
 85 83  1  0
 85 86  1  0
 85 84  1  0
 87 90  1  1
 87 88  1  0
 89 87  1  0
 92 91  1  0
M  ISO  4   9 100  10 100  49 101  50 101
M  END
>  <TORSDO>  (10) 
F 21

>  <SCORE>  (10) 
-12.382

>  <name>  (10) 
9

>  <ligand_id>  (10) 
9

>  <original_smiles>  (10) 
[H]C(=Nc1c([H])c(C([H])([H])[H])c(C([H])=C([H])C(=O)N2C([H])([H])C([H])([H])C([H])([H])C([H])(n3nc(-c4c([H])c([H])c(Oc5c([H])c([H])c(F)c([H])c5F)c([H])c4[H])c(C(=O)N([H])[H])c3N([H])[H])C2([H])[H])c([H])c1C([H])([H])C([H])([H])[H])C([H])([H])C([H])([H])Oc1c([H])c([H])c2c(c1[H])C([H])([H])N(C(=O)C([H])(N([H])C(=O)C([H])(N([H])C([H])([H])[H])C([H])([H])[H])C(C([H])([H])[H])(C([H])([H])[H])C([H])([H])[H])C([H])(C(=O)N([H])C1([H])c3c([H])c([H])c([H])c([H])c3C([H])([H])C([H])([H])C1([H])[H])C2([H])[H]

>  <smiles>  (10) 
[H]C(=Nc1c([H])c(C([H])([H])[H])c(C([H])=C([H])C(=O)N2C([H])([H])C([H])([H])C([H])([H])C([H])(n3nc(-c4c([H])c([H])c(Oc5c([H])c([H])c(F)c([H])c5F)c([H])c4[H])c(C(=O)N([H])[H])c3N([H])[H])C2([H])[H])c([H])c1C([H])([H])C([H])([H])[H])C([H])([H])C([H])([H])Oc1c([H])c([H])c2c(c1[H])C([H])([H])N(C(=O)C([H])(N([H])C(=O)C([H])(N([H])C([H])([H])[H])C([H])([H])[H])C(C([H])([H])[H])(C([H])([H])[H])C([H])([H])[H])C([H])(C(=O)N([H])C1([H])c3c([H])c([H])c([H])c([H])c3C([H])([H])C([H])([H])C1([H])[H])C2([H])[H]

$$$$
10:0:0
     RDKit          3D

 94102  0  0  1  0  0  0  0  0999 V2000
  -29.3060  -20.9040   20.7720 C   0  0  0  0  0  3  0  0  0  0  0  0
  -28.2700  -20.1020   20.4490 C   0  0  0  0  0  3  0  0  0  0  0  0
  -27.9400  -22.9890   20.8780 C   0  0  0  0  0  3  0  0  0  0  0  0
  -28.9710  -25.1360   21.2590 C   0  0  0  0  0  3  0  0  0  0  0  0
  -30.3670  -23.1480   21.1320 C   0  0  0  0  0  3  0  0  0  0  0  0
  -27.8070  -24.3770   21.0450 C   0  0  0  0  0  0  0  0  0  0  0  0
  -29.2080  -22.3640   20.9150 C   0  0  0  0  0  0  0  0  0  0  0  0
  -30.2540  -24.5440   21.3210 C   0  0  0  0  0  0  0  0  0  0  0  0
  -31.3640  -26.6870   21.2570 C   0  0  0  0  0  0  0  0  0  0  0  0
  -31.6170  -28.1040   19.2700 C   0  0  0  0  0  2  0  0  0  0  0  0
  -30.9590  -27.3920   18.0690 C   0  0  0  0  0  2  0  0  0  0  0  0
  -31.9260  -26.3700   17.4200 C   0  0  0  0  0  2  0  0  0  0  0  0
  -32.7110  -25.4890   18.4370 C   0  0  0  0  0  3  0  0  0  0  0  0
  -33.2450  -26.3320   19.6180 C   0  0  0  0  0  2  0  0  0  0  0  0
  -32.1160  -27.0780   20.1950 N   0  0  0  0  0  0  0  0  0  0  0  0
  -30.5160  -27.4040   21.7930 O   0  0  0  0  0  0  0  0  0  0  0  0
  -31.4020  -25.3690   21.5180 N   0  0  0  0  0  0  0  0  0  0  0  0
  -32.2690  -24.9370   21.2360 H   0  0  0  0  0  0  0  0  0  0  0  0
  -34.2340  -23.4510   18.0620 C   0  0  0  0  0  0  0  0  0  0  0  0
  -35.1870  -23.1850   17.1160 C   0  0  0  0  0  0  0  0  0  0  0  0
  -35.2540  -24.3460   16.2870 C   0  0  0  0  0  0  0  0  0  0  0  0
  -33.7730  -24.7290   17.7850 N   0  0  0  0  0  0  0  0  0  0  0  0
  -34.4390  -25.2880   16.7430 N   0  0  0  0  0  0  0  0  0  0  0  0
  -36.0070  -24.5970   15.0520 C   0  0  0  0  0  0  0  0  0  0  0  0
  -37.2260  -25.3110   15.0660 C   0  0  0  0  0  3  0  0  0  0  0  0
  -37.9410  -25.5270   13.8670 C   0  0  0  0  0  3  0  0  0  0  0  0
  -37.4420  -25.0260   12.6430 C   0  0  0  0  0  0  0  0  0  0  0  0
  -36.2170  -24.3360   12.6320 C   0  0  0  0  0  3  0  0  0  0  0  0
  -35.5030  -24.1270   13.8240 C   0  0  0  0  0  3  0  0  0  0  0  0
  -38.0540  -25.2080   11.4270 O   0  0  0  0  0  0  0  0  0  0  0  0
  -39.3240  -24.7510   11.1870 C   0  0  0  0  0  0  0  0  0  0  0  0
  -39.6030  -23.3780   11.0140 C   0  0  0  0  0  3  0  0  0  0  0  0
  -40.9110  -22.9580   10.7000 C   0  0  0  0  0  3  0  0  0  0  0  0
  -41.9380  -23.9090   10.5490 C   0  0  0  0  0  0  0  0  0  0  0  0
  -41.6620  -25.2780   10.7160 C   0  0  0  0  0  3  0  0  0  0  0  0
  -40.3580  -25.6960   11.0320 C   0  0  0  0  0  0  0  0  0  0  0  0
  -40.0910  -27.0180   11.1710 F   0  0  0  0  0  0  0  0  0  0  0  0
  -43.1930  -23.5070   10.2400 F   0  0  0  0  0  0  0  0  0  0  0  0
  -35.9220  -21.8900   16.9260 C   0  0  0  0  0  0  0  0  0  0  0  0
  -37.2490  -21.9270   16.9570 N   0  0  0  0  0  0  0  0  0  0  0  0
  -35.3190  -20.8240   16.7990 O   0  0  0  0  0  0  0  0  0  0  0  0
  -37.7460  -22.7960   17.0880 H   0  0  0  0  0  0  0  0  0  0  0  0
  -37.7780  -21.0720   16.8530 H   0  0  0  0  0  0  0  0  0  0  0  0
  -33.7090  -22.7120   19.1180 N   0  0  0  0  0  0  0  0  0  0  0  0
  -33.9940  -21.7580   19.3100 H   0  0  0  0  0  0  0  0  0  0  0  0
  -32.9450  -23.0200   19.7050 H   0  0  0  0  0  0  0  0  0  0  0  0
  -26.1730  -26.2960   20.9360 C   0  0  0  0  0  2  0  0  0  0  0  0
  -26.4640  -24.9840   20.9870 C   0  0  0  0  0  3  0  0  0  0  0  0
  -28.3370  -18.6090   20.2060 C   0  0  0  0  0  2  0  0  0  0  0  0
  -29.7710  -18.0520   20.2800 C   0  0  0  0  0  2  0  0  0  0  0  0
  -30.3890  -17.7220   18.9170 C   0  0  0  0  0  0  0  0  0  0  0  0
  -30.1170  -18.3740   17.9030 O   0  0  0  0  0  0  0  0  0  0  0  0
  -31.3640  -16.5430   18.8990 C   0  0  0  0  0  2  0  0  0  0  0  0
  -32.2610  -16.6570   17.7940 O   0  0  0  0  0  0  0  0  0  0  0  0
  -37.1420  -13.9240   13.4260 C   0  0  0  0  0  0  0  0  0  0  0  0
  -33.2080  -15.6740   17.6130 C   0  0  0  0  0  0  0  0  0  0  0  0
  -36.7080  -12.6190   15.4850 C   0  0  0  0  0  3  0  0  0  0  0  0
  -35.2740  -13.7800   17.2450 C   0  0  0  0  0  0  0  0  0  0  0  0
  -36.3310  -15.1470   15.4360 C   0  0  0  0  0  2  0  0  0  0  0  0
  -35.2420  -14.9430   16.4670 C   0  0  0  0  0  0  0  0  0  0  0  0
  -34.2160  -15.8920   16.6510 C   0  0  0  0  0  3  0  0  0  0  0  0
  -33.2480  -14.4940   18.3920 C   0  0  0  0  0  3  0  0  0  0  0  0
  -34.2740  -13.5470   18.2060 C   0  0  0  0  0  3  0  0  0  0  0  0
  -36.4170  -12.8240   16.9970 C   0  0  0  0  0  2  0  0  0  0  0  0
  -36.7180  -13.9090   14.7210 N   0  0  0  0  0  0  0  0  0  0  0  0
  -37.5640  -12.8940   12.8810 O   0  0  0  0  0  0  0  0  0  0  0  0
  -35.7060  -11.5840   14.9280 C   0  0  0  0  0  0  0  0  0  0  0  0
  -36.2180  -10.4050   14.5370 N   0  0  0  0  0  0  0  0  0  0  0  0
  -34.4990  -11.8340   14.8830 O   0  0  0  0  0  0  0  0  0  0  0  0
  -37.2190  -10.2840   14.5930 H   0  0  0  0  0  0  0  0  0  0  0  0
  -36.3530   -7.6280   12.2330 C   0  0  0  0  0  0  0  0  0  0  0  0
  -35.4590   -9.2670   14.0200 C   0  0  0  0  0  3  0  0  0  0  0  0
  -35.5130   -8.0700   14.9990 C   0  0  0  0  0  2  0  0  0  0  0  0
  -36.6480   -7.0900   14.6890 C   0  0  0  0  0  2  0  0  0  0  0  0
  -36.4980   -6.5280   13.2720 C   0  0  0  0  0  2  0  0  0  0  0  0
  -35.8810   -8.9190   12.5870 C   0  0  0  0  0  0  0  0  0  0  0  0
  -35.8020   -9.9170   11.5920 C   0  0  0  0  0  3  0  0  0  0  0  0
  -36.1770   -9.6410   10.2640 C   0  0  0  0  0  3  0  0  0  0  0  0
  -36.6260   -8.3560    9.9150 C   0  0  0  0  0  3  0  0  0  0  0  0
  -36.7110   -7.3530   10.8960 C   0  0  0  0  0  3  0  0  0  0  0  0
  -37.1440  -15.2350   12.5790 C   0  0  0  0  0  3  0  0  0  0  0  0
  -38.5200  -15.4650   12.1250 N   0  0  0  0  0  0  0  0  0  0  0  0
  -39.4510  -16.1310   12.8240 C   0  0  0  0  0  0  0  0  0  0  0  0
  -39.2110  -16.6830   13.9020 O   0  0  0  0  0  0  0  0  0  0  0  0
  -38.8040  -14.9890   11.2810 H   0  0  0  0  0  0  0  0  0  0  0  0
  -41.8220  -15.3280   13.0720 C   0  0  0  0  0  1  0  0  0  0  0  0
  -40.8710  -16.1960   12.2330 C   0  0  0  0  0  3  0  0  0  0  0  0
  -40.7510  -18.3810   11.1210 C   0  0  0  0  0  1  0  0  0  0  0  0
  -41.4100  -17.5700   12.1400 N   0  0  0  0  0  0  0  0  0  0  0  0
  -42.4060  -17.5540   11.9380 H   0  0  0  0  0  0  0  0  0  0  0  0
  -36.1490  -15.1850   11.3550 C   0  0  1  0  0  0  0  0  0  0  0  0
  -36.7990  -14.6820   10.0440 C   0  0  0  0  0  1  0  0  0  0  0  0
  -34.9440  -14.2670   11.6660 C   0  0  0  0  0  1  0  0  0  0  0  0
  -35.5750  -16.5960   11.0880 C   0  0  0  0  0  1  0  0  0  0  0  0
  1  7  1  0
  2  1  2  0
  3  7  2  0
  3  6  1  0
  4  8  1  0
  5  8  2  0
  6  4  2  0
  7  5  1  0
  8 17  1  0
  9 17  1  0
  9 16  2  0
 10 15  1  0
 11 10  1  0
 12 11  1  0
 13 12  1  0
 13 14  1  0
 14 15  1  0
 15  9  1  0
 18 17  1  0
 19 44  1  0
 20 19  2  0
 21 23  2  0
 21 20  1  0
 22 19  1  0
 22 13  1  0
 23 22  1  0
 24 25  1  0
 24 21  1  0
 26 25  2  0
 27 26  1  0
 28 27  2  0
 28 29  1  0
 29 24  2  0
 30 27  1  0
 31 30  1  0
 32 31  2  0
 33 32  1  0
 34 33  2  0
 34 35  1  0
 35 36  2  0
 36 37  1  0
 36 31  1  0
 38 34  1  0
 39 40  1  0
 39 20  1  0
 40 42  1  0
 41 39  2  0
 43 40  1  0
 44 45  1  0
 44 46  1  0
 47 48  2  0
 48  6  1  0
 49 50  1  0
 49  2  1  0
 51 50  1  0
 52 51  2  0
 53 51  1  0
 54 53  1  0
 55 65  1  0
 56 54  1  0
 56 62  1  0
 57 67  1  0
 57 64  1  0
 58 63  1  0
 59 60  1  0
 60 61  1  0
 60 58  2  0
 61 56  2  0
 63 62  2  0
 64 58  1  0
 65 59  1  0
 65 57  1  0
 66 55  2  0
 68 70  1  0
 68 67  1  0
 69 67  2  0
 71 76  1  0
 71 75  1  0
 72 68  1  0
 72 73  1  0
 74 73  1  0
 75 74  1  0
 76 72  1  0
 77 76  2  0
 78 77  1  0
 79 78  2  0
 79 80  1  0
 80 71  2  0
 81 55  1  0
 82 81  1  0
 82 83  1  0
 83 84  2  0
 85 82  1  0
 87 83  1  0
 87 86  1  0
 88 89  1  0
 89 87  1  0
 90 89  1  0
 91 93  1  1
 91 81  1  0
 92 91  1  0
 94 91  1  0
M  ISO  4   9 100  17 100  53 101  54 101
M  END
>  <TORSDO>  (11) 
F 22

>  <SCORE>  (11) 
-2.919

>  <name>  (11) 
10

>  <ligand_id>  (11) 
10

>  <original_smiles>  (11) 
[H]C([H])=C([H])c1c([H])c(C([H])=C([H])C([H])([H])C([H])([H])C(=O)C([H])([H])Oc2c([H])c([H])c3c(c2[H])C([H])([H])N(C(=O)C([H])(N([H])C(=O)C([H])(N([H])C([H])([H])[H])C([H])([H])[H])C(C([H])([H])[H])(C([H])([H])[H])C([H])([H])[H])C([H])(C(=O)N([H])C2([H])c4c([H])c([H])c([H])c([H])c4C([H])([H])C([H])([H])C2([H])[H])C3([H])[H])c([H])c(N([H])C(=O)N2C([H])([H])C([H])([H])C([H])([H])C([H])(n3nc(-c4c([H])c([H])c(Oc5c([H])c([H])c(F)c([H])c5F)c([H])c4[H])c(C(=O)N([H])[H])c3N([H])[H])C2([H])[H])c1[H]

>  <smiles>  (11) 
[H]C([H])=C([H])c1c([H])c(C([H])=C([H])C([H])([H])C([H])([H])C(=O)C([H])([H])Oc2c([H])c([H])c3c(c2[H])C([H])([H])N(C(=O)C([H])(N([H])C(=O)C([H])(N([H])C([H])([H])[H])C([H])([H])[H])C(C([H])([H])[H])(C([H])([H])[H])C([H])([H])[H])C([H])(C(=O)N([H])C2([H])c4c([H])c([H])c([H])c([H])c4C([H])([H])C([H])([H])C2([H])[H])C3([H])[H])c([H])c(N([H])C(=O)N2C([H])([H])C([H])([H])C([H])([H])C([H])(n3nc(-c4c([H])c([H])c(Oc5c([H])c([H])c(F)c([H])c5F)c([H])c4[H])c(C(=O)N([H])[H])c3N([H])[H])C2([H])[H])c1[H]

$$$$
11:0:0
     RDKit          3D

 92100  0  0  1  0  0  0  0  0999 V2000
  -30.7190  -18.9050   18.2700 C   0  0  0  0  0  3  0  0  0  0  0  0
  -30.0080  -18.9600   20.9400 C   0  0  0  0  0  3  0  0  0  0  0  0
  -30.5340  -17.6750   18.9470 C   0  0  0  0  0  0  0  0  0  0  0  0
  -30.2830  -17.6650   20.3490 C   0  0  0  0  0  0  0  0  0  0  0  0
  -30.5110  -20.1660   18.8860 C   0  0  0  0  0  0  0  0  0  0  0  0
  -30.0430  -20.2180   20.2220 C   0  0  0  0  0  0  0  0  0  0  0  0
  -31.5560  -21.3290   17.0550 C   0  0  0  0  0  1  0  0  0  0  0  0
  -30.7650  -21.3580   18.2400 O   0  0  0  0  0  0  0  0  0  0  0  0
  -31.4750  -16.1530   17.1750 C   0  0  0  0  0  2  0  0  0  0  0  0
  -30.6040  -16.4350   18.1590 C   0  0  0  0  0  3  0  0  0  0  0  0
  -30.1710  -16.3150   21.2000 C   0  0  0  0  0  2  0  0  0  0  0  0
  -30.9980  -14.9780   20.8640 C   0  0  0  0  0  0  0  0  0  0  0  0
  -30.8770  -12.6980   19.8410 C   0  0  0  0  0  2  0  0  0  0  0  0
  -30.0140  -12.7560   18.5590 C   0  0  0  0  0  2  0  0  0  0  0  0
  -28.5150  -12.6130   18.8910 C   0  0  0  0  0  2  0  0  0  0  0  0
  -28.0670  -13.5020   20.0820 C   0  0  0  0  0  3  0  0  0  0  0  0
  -29.0550  -13.4020   21.2650 C   0  0  0  0  0  2  0  0  0  0  0  0
  -30.3920  -13.7470   20.7650 N   0  0  0  0  0  0  0  0  0  0  0  0
  -32.1930  -15.0870   20.5780 O   0  0  0  0  0  0  0  0  0  0  0  0
  -25.6290  -14.0840   20.6500 C   0  0  0  0  0  0  0  0  0  0  0  0
  -24.5460  -13.3050   20.9530 C   0  0  0  0  0  0  0  0  0  0  0  0
  -25.0200  -11.9560   20.9610 C   0  0  0  0  0  0  0  0  0  0  0  0
  -26.6940  -13.2120   20.4880 N   0  0  0  0  0  0  0  0  0  0  0  0
  -26.3280  -11.9280   20.7380 N   0  0  0  0  0  0  0  0  0  0  0  0
  -24.2910  -10.6900   21.1060 C   0  0  0  0  0  0  0  0  0  0  0  0
  -24.6500   -9.7410   22.0880 C   0  0  0  0  0  3  0  0  0  0  0  0
  -23.9210   -8.5380   22.2220 C   0  0  0  0  0  3  0  0  0  0  0  0
  -22.8190   -8.2770   21.3730 C   0  0  0  0  0  0  0  0  0  0  0  0
  -22.4810   -9.2160   20.3820 C   0  0  0  0  0  3  0  0  0  0  0  0
  -23.2100  -10.4090   20.2470 C   0  0  0  0  0  3  0  0  0  0  0  0
  -22.0700   -7.1270   21.4140 O   0  0  0  0  0  0  0  0  0  0  0  0
  -21.8940   -6.4240   22.5780 C   0  0  0  0  0  0  0  0  0  0  0  0
  -21.2830   -7.0000   23.7130 C   0  0  0  0  0  3  0  0  0  0  0  0
  -21.0600   -6.2200   24.8660 C   0  0  0  0  0  3  0  0  0  0  0  0
  -21.4380   -4.8640   24.8820 C   0  0  0  0  0  0  0  0  0  0  0  0
  -22.0410   -4.2860   23.7510 C   0  0  0  0  0  3  0  0  0  0  0  0
  -22.2660   -5.0640   22.6020 C   0  0  0  0  0  0  0  0  0  0  0  0
  -22.8290   -4.4970   21.5080 F   0  0  0  0  0  0  0  0  0  0  0  0
  -21.2160   -4.1120   25.9860 F   0  0  0  0  0  0  0  0  0  0  0  0
  -23.1300  -13.7730   21.1280 C   0  0  0  0  0  0  0  0  0  0  0  0
  -22.3540  -13.0770   21.9500 N   0  0  0  0  0  0  0  0  0  0  0  0
  -22.7190  -14.7910   20.5720 O   0  0  0  0  0  0  0  0  0  0  0  0
  -22.6980  -12.2530   22.4220 H   0  0  0  0  0  0  0  0  0  0  0  0
  -21.4000  -13.3710   22.1110 H   0  0  0  0  0  0  0  0  0  0  0  0
  -25.7950  -15.4560   20.4740 N   0  0  0  0  0  0  0  0  0  0  0  0
  -25.0160  -16.1030   20.5240 H   0  0  0  0  0  0  0  0  0  0  0  0
  -26.6590  -15.8990   20.1900 H   0  0  0  0  0  0  0  0  0  0  0  0
  -29.7560  -21.4650   20.8350 O   0  0  0  0  0  0  0  0  0  0  0  0
  -28.9460  -22.5150   20.1640 C   0  0  0  0  0  3  0  0  0  0  0  0
  -29.2750  -24.0730   20.4120 C   0  0  0  0  0  3  0  0  0  0  0  0
  -28.1910  -25.1570   19.9370 C   0  0  0  0  0  2  0  0  0  0  0  0
  -28.3970  -26.6280   20.1000 O   0  0  0  0  0  0  0  0  0  0  0  0
  -24.5790  -31.9200   23.2270 C   0  0  0  0  0  0  0  0  0  0  0  0
  -27.2680  -27.4760   20.0560 C   0  0  0  0  0  0  0  0  0  0  0  0
  -23.3950  -30.5390   21.5600 C   0  0  0  0  0  3  0  0  0  0  0  0
  -24.8690  -29.0540   20.0870 C   0  0  0  0  0  0  0  0  0  0  0  0
  -25.9290  -30.9100   21.3730 C   0  0  0  0  0  2  0  0  0  0  0  0
  -26.0340  -29.5480   20.6920 C   0  0  0  0  0  0  0  0  0  0  0  0
  -27.2340  -28.7720   20.6660 C   0  0  0  0  0  3  0  0  0  0  0  0
  -26.0780  -27.0470   19.4200 C   0  0  0  0  0  3  0  0  0  0  0  0
  -24.8960  -27.8100   19.4420 C   0  0  0  0  0  3  0  0  0  0  0  0
  -23.6150  -29.9020   20.1630 C   0  0  0  0  0  2  0  0  0  0  0  0
  -24.6530  -31.1380   22.1110 N   0  0  0  0  0  0  0  0  0  0  0  0
  -23.4940  -32.1630   23.7740 O   0  0  0  0  0  0  0  0  0  0  0  0
  -22.7570  -29.4860   22.4980 C   0  0  0  0  0  0  0  0  0  0  0  0
  -21.4340  -29.2920   22.3780 N   0  0  0  0  0  0  0  0  0  0  0  0
  -23.4520  -28.8490   23.2940 O   0  0  0  0  0  0  0  0  0  0  0  0
  -20.9300  -29.8570   21.7090 H   0  0  0  0  0  0  0  0  0  0  0  0
  -18.0790  -28.0320   22.8670 C   0  0  0  0  0  0  0  0  0  0  0  0
  -20.6340  -28.3230   23.1310 C   0  0  0  0  0  3  0  0  0  0  0  0
  -20.7560  -26.9080   22.5180 C   0  0  0  0  0  2  0  0  0  0  0  0
  -19.6530  -26.5940   21.5030 C   0  0  0  0  0  2  0  0  0  0  0  0
  -18.2730  -26.7020   22.1590 C   0  0  0  0  0  2  0  0  0  0  0  0
  -19.1890  -28.8000   23.3110 C   0  0  0  0  0  0  0  0  0  0  0  0
  -18.9540  -30.0440   23.9340 C   0  0  0  0  0  3  0  0  0  0  0  0
  -17.6430  -30.5210   24.1210 C   0  0  0  0  0  3  0  0  0  0  0  0
  -16.5470  -29.7480   23.6980 C   0  0  0  0  0  3  0  0  0  0  0  0
  -16.7660  -28.5070   23.0750 C   0  0  0  0  0  3  0  0  0  0  0  0
  -25.8530  -32.5620   23.8570 C   0  0  0  0  0  3  0  0  0  0  0  0
  -25.5320  -33.9560   24.1890 N   0  0  0  0  0  0  0  0  0  0  0  0
  -25.8950  -35.0170   23.4560 C   0  0  0  0  0  0  0  0  0  0  0  0
  -26.6080  -34.9240   22.4530 O   0  0  0  0  0  0  0  0  0  0  0  0
  -24.9020  -34.1020   24.9640 H   0  0  0  0  0  0  0  0  0  0  0  0
  -24.2100  -36.8350   23.0220 C   0  0  0  0  0  1  0  0  0  0  0  0
  -25.3900  -36.4010   23.9080 C   0  0  0  0  0  3  0  0  0  0  0  0
  -27.4660  -37.2530   24.9040 C   0  0  0  0  0  1  0  0  0  0  0  0
  -26.4350  -37.4460   23.8880 N   0  0  0  0  0  0  0  0  0  0  0  0
  -26.0260  -38.3680   24.0230 H   0  0  0  0  0  0  0  0  0  0  0  0
  -26.3660  -31.7930   25.1370 C   0  0  1  0  0  0  0  0  0  0  0  0
  -25.2670  -31.5440   26.1960 C   0  0  0  0  0  1  0  0  0  0  0  0
  -26.9650  -30.4210   24.7480 C   0  0  0  0  0  1  0  0  0  0  0  0
  -27.5030  -32.5960   25.8110 C   0  0  0  0  0  1  0  0  0  0  0  0
  1  5  2  0
  1  3  1  0
  3  4  2  0
  4  2  1  0
  4 11  1  0
  5  6  1  0
  6 48  1  0
  6  2  2  0
  7  8  1  0
  8  5  1  0
  9 10  2  0
 10  3  1  0
 12 11  1  0
 13 18  1  0
 14 15  1  0
 14 13  1  0
 16 15  1  0
 16 23  1  0
 16 17  1  0
 18 12  1  0
 18 17  1  0
 19 12  2  0
 20 21  2  0
 21 22  1  0
 21 40  1  0
 22 25  1  0
 23 20  1  0
 23 24  1  0
 24 22  2  0
 25 26  1  0
 26 27  2  0
 28 31  1  0
 28 27  1  0
 29 28  2  0
 30 29  1  0
 30 25  2  0
 31 32  1  0
 32 37  2  0
 32 33  1  0
 33 34  2  0
 34 35  1  0
 35 39  1  0
 36 35  2  0
 37 36  1  0
 38 37  1  0
 40 41  1  0
 41 44  1  0
 41 43  1  0
 42 40  2  0
 45 46  1  0
 45 20  1  0
 47 45  1  0
 49 50  2  0
 49 48  1  0
 51 52  1  0
 51 50  1  0
 53 64  2  0
 54 52  1  0
 54 59  1  0
 55 63  1  0
 55 65  1  0
 56 62  1  0
 56 58  1  0
 57 63  1  0
 58 57  1  0
 59 58  2  0
 60 61  1  0
 60 54  2  0
 61 56  2  0
 62 55  1  0
 63 53  1  0
 65 67  2  0
 66 65  1  0
 68 66  1  0
 69 78  2  0
 69 74  1  0
 70 66  1  0
 70 74  1  0
 71 70  1  0
 72 73  1  0
 72 71  1  0
 73 69  1  0
 74 75  2  0
 75 76  1  0
 77 76  2  0
 78 77  1  0
 79 53  1  0
 79 80  1  0
 79 89  1  0
 80 83  1  0
 81 85  1  0
 81 80  1  0
 82 81  2  0
 85 84  1  0
 87 85  1  0
 87 88  1  0
 87 86  1  0
 89 92  1  1
 89 90  1  0
 91 89  1  0
M  ISO  4  11 100  12 100  51 101  52 101
M  END
>  <TORSDO>  (12) 
F 23

>  <SCORE>  (12) 
-12.004

>  <name>  (12) 
11

>  <ligand_id>  (12) 
11

>  <original_smiles>  (12) 
[H]C([H])=C([H])c1c([H])c(OC([H])([H])[H])c(OC([H])([H])C([H])([H])C([H])([H])Oc2c([H])c([H])c3c(c2[H])C([H])([H])N(C(=O)C([H])(N([H])C(=O)C([H])(N([H])C([H])([H])[H])C([H])([H])[H])C(C([H])([H])[H])(C([H])([H])[H])C([H])([H])[H])C([H])(C(=O)N([H])C2([H])c4c([H])c([H])c([H])c([H])c4C([H])([H])C([H])([H])C2([H])[H])C3([H])[H])c([H])c1C([H])([H])C(=O)N1C([H])([H])C([H])([H])C([H])([H])C([H])(n2nc(-c3c([H])c([H])c(Oc4c([H])c([H])c(F)c([H])c4F)c([H])c3[H])c(C(=O)N([H])[H])c2N([H])[H])C1([H])[H]

>  <smiles>  (12) 
[H]C([H])=C([H])c1c([H])c(OC([H])([H])[H])c(OC([H])([H])C([H])([H])C([H])([H])Oc2c([H])c([H])c3c(c2[H])C([H])([H])N(C(=O)C([H])(N([H])C(=O)C([H])(N([H])C([H])([H])[H])C([H])([H])[H])C(C([H])([H])[H])(C([H])([H])[H])C([H])([H])[H])C([H])(C(=O)N([H])C2([H])c4c([H])c([H])c([H])c([H])c4C([H])([H])C([H])([H])C2([H])[H])C3([H])[H])c([H])c1C([H])([H])C(=O)N1C([H])([H])C([H])([H])C([H])([H])C([H])(n2nc(-c3c([H])c([H])c(Oc4c([H])c([H])c(F)c([H])c4F)c([H])c3[H])c(C(=O)N([H])[H])c2N([H])[H])C1([H])[H]

$$$$
12:0:0
     RDKit          3D

 90 98  0  0  1  0  0  0  0  0999 V2000
  -27.8840  -19.3170   20.2720 C   0  0  0  0  0  3  0  0  0  0  0  0
  -28.2050  -16.8950   20.2430 C   0  0  0  0  0  3  0  0  0  0  0  0
  -30.1160  -18.3680   20.5430 C   0  0  0  0  0  3  0  0  0  0  0  0
  -27.3620  -18.0170   20.1730 C   0  0  0  0  0  0  0  0  0  0  0  0
  -29.2610  -19.5720   20.4800 C   0  0  0  0  0  0  0  0  0  0  0  0
  -29.6000  -16.9970   20.4120 C   0  0  0  0  0  0  0  0  0  0  0  0
  -25.8610  -17.8350   20.0460 C   0  0  0  0  0  1  0  0  0  0  0  0
  -30.7820  -14.6340   19.9090 C   0  0  0  0  0  0  0  0  0  0  0  0
  -30.5050  -12.3420   18.9070 C   0  0  0  0  0  2  0  0  0  0  0  0
  -29.4930  -12.4160   17.7400 C   0  0  0  0  0  2  0  0  0  0  0  0
  -28.0440  -12.2850   18.2470 C   0  0  0  0  0  2  0  0  0  0  0  0
  -27.7670  -13.1880   19.4770 C   0  0  0  0  0  3  0  0  0  0  0  0
  -28.8820  -13.0560   20.5400 C   0  0  0  0  0  2  0  0  0  0  0  0
  -30.1630  -13.3960   19.8960 N   0  0  0  0  0  0  0  0  0  0  0  0
  -31.8530  -14.7910   19.3140 O   0  0  0  0  0  0  0  0  0  0  0  0
  -30.1980  -15.6460   20.6550 N   0  0  0  0  0  0  0  0  0  0  0  0
  -29.6230  -15.1610   21.3280 H   0  0  0  0  0  0  0  0  0  0  0  0
  -25.4340  -13.8580   20.3150 C   0  0  0  0  0  0  0  0  0  0  0  0
  -24.3690  -13.1290   20.7640 C   0  0  0  0  0  0  0  0  0  0  0  0
  -24.7790  -11.7620   20.7030 C   0  0  0  0  0  0  0  0  0  0  0  0
  -26.4380  -12.9460   20.0360 N   0  0  0  0  0  0  0  0  0  0  0  0
  -26.0500  -11.6770   20.3220 N   0  0  0  0  0  0  0  0  0  0  0  0
  -24.0140  -10.5300   20.9300 C   0  0  0  0  0  0  0  0  0  0  0  0
  -24.4170   -9.5780   21.8920 C   0  0  0  0  0  3  0  0  0  0  0  0
  -23.6530   -8.4110   22.1040 C   0  0  0  0  0  3  0  0  0  0  0  0
  -22.4720   -8.1880   21.3560 C   0  0  0  0  0  0  0  0  0  0  0  0
  -22.0890   -9.1290   20.3840 C   0  0  0  0  0  3  0  0  0  0  0  0
  -22.8530  -10.2880   20.1690 C   0  0  0  0  0  3  0  0  0  0  0  0
  -21.6810   -7.0730   21.4780 O   0  0  0  0  0  0  0  0  0  0  0  0
  -21.5380   -6.4190   22.6760 C   0  0  0  0  0  0  0  0  0  0  0  0
  -21.0390   -7.0700   23.8250 C   0  0  0  0  0  3  0  0  0  0  0  0
  -20.8440   -6.3440   25.0160 C   0  0  0  0  0  3  0  0  0  0  0  0
  -21.1380   -4.9680   25.0590 C   0  0  0  0  0  0  0  0  0  0  0  0
  -21.6300   -4.3170   23.9150 C   0  0  0  0  0  3  0  0  0  0  0  0
  -21.8270   -5.0410   22.7260 C   0  0  0  0  0  0  0  0  0  0  0  0
  -22.2820   -4.4040   21.6190 F   0  0  0  0  0  0  0  0  0  0  0  0
  -20.9420   -4.2670   26.2010 F   0  0  0  0  0  0  0  0  0  0  0  0
  -23.0120  -13.6630   21.1200 C   0  0  0  0  0  0  0  0  0  0  0  0
  -22.3180  -13.0040   22.0410 N   0  0  0  0  0  0  0  0  0  0  0  0
  -22.5820  -14.7020   20.6200 O   0  0  0  0  0  0  0  0  0  0  0  0
  -22.6810  -12.1640   22.4660 H   0  0  0  0  0  0  0  0  0  0  0  0
  -21.4120  -13.3460   22.3250 H   0  0  0  0  0  0  0  0  0  0  0  0
  -25.6130  -15.2150   20.0900 N   0  0  0  0  0  0  0  0  0  0  0  0
  -24.8390  -15.8620   20.1860 H   0  0  0  0  0  0  0  0  0  0  0  0
  -26.4140  -15.6190   19.6240 H   0  0  0  0  0  0  0  0  0  0  0  0
  -28.9680  -22.0620   20.4570 C   0  0  0  0  0  3  0  0  0  0  0  0
  -29.6830  -20.9650   20.7150 N   0  0  0  0  0  0  0  0  0  0  0  0
  -29.2360  -23.6040   20.8540 C   0  0  0  0  0  3  0  0  0  0  0  0
  -28.1890  -24.7680   20.3880 C   0  0  0  0  0  3  0  0  0  0  0  0
  -28.3900  -26.2510   20.6330 O   0  0  0  0  0  0  0  0  0  0  0  0
  -24.5530  -31.8320   23.3090 C   0  0  0  0  0  0  0  0  0  0  0  0
  -27.2900  -27.1430   20.5010 C   0  0  0  0  0  0  0  0  0  0  0  0
  -23.4190  -30.3820   21.6670 C   0  0  0  0  0  3  0  0  0  0  0  0
  -24.9300  -28.7940   20.3390 C   0  0  0  0  0  0  0  0  0  0  0  0
  -25.9680  -30.6920   21.5740 C   0  0  0  0  0  2  0  0  0  0  0  0
  -26.0770  -29.2900   20.9710 C   0  0  0  0  0  0  0  0  0  0  0  0
  -27.2580  -28.4790   21.0370 C   0  0  0  0  0  3  0  0  0  0  0  0
  -26.1170  -26.7190   19.8350 C   0  0  0  0  0  3  0  0  0  0  0  0
  -24.9570  -27.5170   19.7580 C   0  0  0  0  0  3  0  0  0  0  0  0
  -23.6910  -29.6720   20.3150 C   0  0  0  0  0  2  0  0  0  0  0  0
  -24.6640  -30.9900   22.2400 N   0  0  0  0  0  0  0  0  0  0  0  0
  -23.4480  -32.1190   23.7940 O   0  0  0  0  0  0  0  0  0  0  0  0
  -22.7210  -29.3910   22.6300 C   0  0  0  0  0  0  0  0  0  0  0  0
  -21.4000  -29.2080   22.4620 N   0  0  0  0  0  0  0  0  0  0  0  0
  -23.3690  -28.7900   23.4910 O   0  0  0  0  0  0  0  0  0  0  0  0
  -20.9350  -29.7440   21.7430 H   0  0  0  0  0  0  0  0  0  0  0  0
  -18.0010  -28.0440   22.9120 C   0  0  0  0  0  0  0  0  0  0  0  0
  -20.5560  -28.2900   23.2310 C   0  0  0  0  0  3  0  0  0  0  0  0
  -20.6580  -26.8480   22.6820 C   0  0  0  0  0  2  0  0  0  0  0  0
  -19.5750  -26.5160   21.6510 C   0  0  0  0  0  2  0  0  0  0  0  0
  -18.1810  -26.6830   22.2620 C   0  0  0  0  0  2  0  0  0  0  0  0
  -19.1170  -28.8050   23.3540 C   0  0  0  0  0  0  0  0  0  0  0  0
  -18.8930  -30.0790   23.9210 C   0  0  0  0  0  3  0  0  0  0  0  0
  -17.5890  -30.5900   24.0520 C   0  0  0  0  0  3  0  0  0  0  0  0
  -16.4880  -29.8270   23.6250 C   0  0  0  0  0  3  0  0  0  0  0  0
  -16.6960  -28.5570   23.0600 C   0  0  0  0  0  3  0  0  0  0  0  0
  -25.8070  -32.4900   23.9630 C   0  0  0  0  0  3  0  0  0  0  0  0
  -26.2590  -31.7780   25.2960 C   0  0  1  0  0  0  0  0  0  0  0  0
  -25.1110  -31.5720   26.3130 C   0  0  0  0  0  1  0  0  0  0  0  0
  -26.8730  -30.3910   24.9950 C   0  0  0  0  0  1  0  0  0  0  0  0
  -27.3640  -32.6110   25.9860 C   0  0  0  0  0  1  0  0  0  0  0  0
  -25.4870  -33.9030   24.2140 N   0  0  0  0  0  0  0  0  0  0  0  0
  -25.8370  -34.9190   23.4120 C   0  0  0  0  0  0  0  0  0  0  0  0
  -26.5300  -34.7650   22.4030 O   0  0  0  0  0  0  0  0  0  0  0  0
  -24.8770  -34.0970   24.9950 H   0  0  0  0  0  0  0  0  0  0  0  0
  -24.1090  -36.6860   22.9430 C   0  0  0  0  0  1  0  0  0  0  0  0
  -25.3400  -36.3280   23.7910 C   0  0  0  0  0  3  0  0  0  0  0  0
  -27.4590  -37.2680   24.6040 C   0  0  0  0  0  1  0  0  0  0  0  0
  -26.3710  -37.3770   23.6360 N   0  0  0  0  0  0  0  0  0  0  0  0
  -25.9590  -38.3020   23.7250 H   0  0  0  0  0  0  0  0  0  0  0  0
  1  5  1  0
  2  6  2  0
  4  2  1  0
  4  1  2  0
  5  3  2  0
  5 47  1  0
  6  3  1  0
  6 16  1  0
  7  4  1  0
  8 16  1  0
  9 14  1  0
 10 11  1  0
 10  9  1  0
 12 11  1  0
 12 21  1  0
 12 13  1  0
 14  8  1  0
 14 13  1  0
 15  8  2  0
 16 17  1  0
 18 19  2  0
 19 38  1  0
 20 19  1  0
 20 23  1  0
 21 18  1  0
 21 22  1  0
 22 20  2  0
 23 24  1  0
 24 25  2  0
 26 29  1  0
 26 25  1  0
 27 26  2  0
 28 27  1  0
 28 23  2  0
 29 30  1  0
 30 35  2  0
 30 31  1  0
 31 32  2  0
 32 33  1  0
 33 37  1  0
 34 33  2  0
 35 34  1  0
 36 35  1  0
 38 39  1  0
 39 42  1  0
 39 41  1  0
 40 38  2  0
 43 44  1  0
 43 18  1  0
 45 43  1  0
 46 47  2  0
 46 48  1  0
 49 50  1  0
 49 48  2  0
 51 62  2  0
 52 50  1  0
 52 57  1  0
 53 61  1  0
 53 63  1  0
 54 56  1  0
 55 61  1  0
 56 57  2  0
 56 55  1  0
 58 52  2  0
 59 58  1  0
 59 54  2  0
 60 54  1  0
 60 53  1  0
 61 51  1  0
 63 65  2  0
 64 63  1  0
 66 64  1  0
 67 76  2  0
 67 72  1  0
 68 64  1  0
 68 72  1  0
 69 68  1  0
 70 71  1  0
 70 69  1  0
 71 67  1  0
 72 73  2  0
 73 74  1  0
 75 74  2  0
 76 75  1  0
 77 51  1  0
 77 82  1  0
 77 78  1  0
 78 81  1  1
 78 79  1  0
 80 78  1  0
 82 85  1  0
 83 87  1  0
 83 82  1  0
 84 83  2  0
 87 86  1  0
 89 90  1  0
 89 87  1  0
 89 88  1  0
M  ISO  4   8 100  16 100  49 101  50 101
M  END
>  <TORSDO>  (13) 
F 19

>  <SCORE>  (13) 
-13.764

>  <name>  (13) 
12

>  <ligand_id>  (13) 
12

>  <original_smiles>  (13) 
[H]C(=Nc1c([H])c(N([H])C(=O)N2C([H])([H])C([H])([H])C([H])([H])C([H])(n3nc(-c4c([H])c([H])c(Oc5c([H])c([H])c(F)c([H])c5F)c([H])c4[H])c(C(=O)N([H])[H])c3N([H])[H])C2([H])[H])c([H])c(C([H])([H])[H])c1[H])C([H])([H])C([H])([H])Oc1c([H])c([H])c2c(c1[H])C([H])([H])N(C(=O)C([H])(N([H])C(=O)C([H])(N([H])C([H])([H])[H])C([H])([H])[H])C(C([H])([H])[H])(C([H])([H])[H])C([H])([H])[H])C([H])(C(=O)N([H])C1([H])c3c([H])c([H])c([H])c([H])c3C([H])([H])C([H])([H])C1([H])[H])C2([H])[H]

>  <smiles>  (13) 
[H]C(=Nc1c([H])c(N([H])C(=O)N2C([H])([H])C([H])([H])C([H])([H])C([H])(n3nc(-c4c([H])c([H])c(Oc5c([H])c([H])c(F)c([H])c5F)c([H])c4[H])c(C(=O)N([H])[H])c3N([H])[H])C2([H])[H])c([H])c(C([H])([H])[H])c1[H])C([H])([H])C([H])([H])Oc1c([H])c([H])c2c(c1[H])C([H])([H])N(C(=O)C([H])(N([H])C(=O)C([H])(N([H])C([H])([H])[H])C([H])([H])[H])C(C([H])([H])[H])(C([H])([H])[H])C([H])([H])[H])C([H])(C(=O)N([H])C1([H])c3c([H])c([H])c([H])c([H])c3C([H])([H])C([H])([H])C1([H])[H])C2([H])[H]

$$$$
13:0:0
     RDKit          3D

 99108  0  0  1  0  0  0  0  0999 V2000
  -29.9950  -20.6380   18.9580 C   0  0  0  0  0  3  0  0  0  0  0  0
  -29.1550  -19.8700   21.0700 C   0  0  0  0  0  3  0  0  0  0  0  0
  -30.4510  -19.3110   18.6700 C   0  0  0  0  0  0  0  0  0  0  0  0
  -29.3580  -20.9610   20.1830 C   0  0  0  0  0  0  0  0  0  0  0  0
  -30.3250  -18.2420   19.6130 C   0  0  0  0  0  0  0  0  0  0  0  0
  -29.6180  -18.5510   20.8030 C   0  0  0  0  0  0  0  0  0  0  0  0
  -32.1730  -19.7870   17.0000 C   0  0  0  0  0  3  0  0  0  0  0  0
  -31.0930  -19.0660   17.3650 C   0  0  0  0  0  0  0  0  0  0  0  0
  -32.8870  -19.6590   15.6650 C   0  0  0  0  0  2  0  0  0  0  0  0
  -30.4470  -18.0870   16.3890 C   0  0  0  0  0  2  0  0  0  0  0  0
  -32.0760  -18.8630   14.6260 C   0  0  0  0  0  2  0  0  0  0  0  0
  -31.3980  -17.6470   15.2660 C   0  0  0  0  0  2  0  0  0  0  0  0
  -28.9080  -22.3450   20.6250 C   0  0  0  0  0  3  0  0  0  0  0  0
  -29.1000  -23.6180   20.1530 C   0  0  0  0  0  3  0  0  0  0  0  0
  -28.4950  -24.8710   20.8680 C   0  0  0  0  0  2  0  0  0  0  0  0
  -28.8370  -26.2270   20.4060 O   0  0  0  0  0  0  0  0  0  0  0  0
  -25.0100  -31.6940   23.1270 C   0  0  0  0  0  0  0  0  0  0  0  0
  -27.7440  -27.0880   20.3000 C   0  0  0  0  0  0  0  0  0  0  0  0
  -23.8690  -30.2390   21.4900 C   0  0  0  0  0  3  0  0  0  0  0  0
  -25.3750  -28.6600   20.1580 C   0  0  0  0  0  0  0  0  0  0  0  0
  -26.4080  -30.5770   21.3780 C   0  0  0  0  0  2  0  0  0  0  0  0
  -26.5190  -29.1830   20.7760 C   0  0  0  0  0  0  0  0  0  0  0  0
  -27.7120  -28.4080   20.8380 C   0  0  0  0  0  3  0  0  0  0  0  0
  -26.5870  -26.6120   19.6510 C   0  0  0  0  0  3  0  0  0  0  0  0
  -25.4100  -27.3800   19.5840 C   0  0  0  0  0  3  0  0  0  0  0  0
  -24.1300  -29.5230   20.1380 C   0  0  0  0  0  2  0  0  0  0  0  0
  -25.1120  -30.8550   22.0550 N   0  0  0  0  0  0  0  0  0  0  0  0
  -23.9090  -31.9800   23.6180 O   0  0  0  0  0  0  0  0  0  0  0  0
  -23.1820  -29.2460   22.4580 C   0  0  0  0  0  0  0  0  0  0  0  0
  -21.8520  -29.1020   22.3310 N   0  0  0  0  0  0  0  0  0  0  0  0
  -23.8440  -28.6100   23.2820 O   0  0  0  0  0  0  0  0  0  0  0  0
  -21.3790  -29.6660   21.6380 H   0  0  0  0  0  0  0  0  0  0  0  0
  -18.4310  -28.0800   22.9110 C   0  0  0  0  0  0  0  0  0  0  0  0
  -21.0060  -28.1940   23.1080 C   0  0  0  0  0  3  0  0  0  0  0  0
  -21.0130  -26.7710   22.5020 C   0  0  0  0  0  2  0  0  0  0  0  0
  -19.8660  -26.5290   21.5170 C   0  0  0  0  0  2  0  0  0  0  0  0
  -18.5130  -26.7370   22.2040 C   0  0  0  0  0  2  0  0  0  0  0  0
  -19.6030  -28.7710   23.3210 C   0  0  0  0  0  0  0  0  0  0  0  0
  -19.4710  -30.0320   23.9430 C   0  0  0  0  0  3  0  0  0  0  0  0
  -18.2010  -30.6000   24.1580 C   0  0  0  0  0  3  0  0  0  0  0  0
  -17.0440  -29.9040   23.7660 C   0  0  0  0  0  3  0  0  0  0  0  0
  -17.1610  -28.6460   23.1470 C   0  0  0  0  0  3  0  0  0  0  0  0
  -26.2690  -32.3520   23.7720 C   0  0  0  0  0  3  0  0  0  0  0  0
  -25.8870  -33.6990   24.2170 N   0  0  0  0  0  0  0  0  0  0  0  0
  -26.0960  -34.8220   23.5160 C   0  0  0  0  0  0  0  0  0  0  0  0
  -26.7020  -34.8350   22.4410 O   0  0  0  0  0  0  0  0  0  0  0  0
  -25.3400  -33.7580   25.0640 H   0  0  0  0  0  0  0  0  0  0  0  0
  -24.2070  -36.4790   23.4250 C   0  0  0  0  0  1  0  0  0  0  0  0
  -25.5450  -36.1360   24.0980 C   0  0  0  0  0  3  0  0  0  0  0  0
  -27.6720  -37.1490   24.7930 C   0  0  0  0  0  1  0  0  0  0  0  0
  -26.4770  -37.2770   23.9630 N   0  0  0  0  0  0  0  0  0  0  0  0
  -26.0150  -38.1500   24.2040 H   0  0  0  0  0  0  0  0  0  0  0  0
  -26.8600  -31.5160   24.9730 C   0  0  1  0  0  0  0  0  0  0  0  0
  -25.7980  -31.0770   26.0080 C   0  0  0  0  0  1  0  0  0  0  0  0
  -27.5680  -30.2420   24.4560 C   0  0  0  0  0  1  0  0  0  0  0  0
  -27.9350  -32.3490   25.7110 C   0  0  0  0  0  1  0  0  0  0  0  0
  -31.1510  -16.9050   19.4960 C   0  0  0  0  0  2  0  0  0  0  0  0
  -31.2770  -14.3830   19.4450 C   0  0  0  0  0  0  0  0  0  0  0  0
  -31.0160  -12.0310   18.7100 C   0  0  0  0  0  2  0  0  0  0  0  0
  -30.0170  -11.9760   17.5350 C   0  0  0  0  0  2  0  0  0  0  0  0
  -28.5760  -11.8430   18.0640 C   0  0  0  0  0  2  0  0  0  0  0  0
  -28.2530  -12.8680   19.1840 C   0  0  0  0  0  3  0  0  0  0  0  0
  -29.3700  -12.9210   20.2510 C   0  0  0  0  0  2  0  0  0  0  0  0
  -30.6340  -13.1810   19.5530 N   0  0  0  0  0  0  0  0  0  0  0  0
  -32.4290  -14.4430   19.0120 O   0  0  0  0  0  0  0  0  0  0  0  0
  -30.5610  -15.5310   19.6440 N   0  0  0  0  0  0  0  0  0  0  0  0
  -29.6010  -15.4500   19.9380 H   0  0  0  0  0  0  0  0  0  0  0  0
  -25.9470  -13.5260   20.0990 C   0  0  0  0  0  0  0  0  0  0  0  0
  -24.8930  -12.7810   20.5530 C   0  0  0  0  0  0  0  0  0  0  0  0
  -25.3130  -11.4170   20.4780 C   0  0  0  0  0  0  0  0  0  0  0  0
  -26.9440  -12.6200   19.7790 N   0  0  0  0  0  0  0  0  0  0  0  0
  -26.5730  -11.3440   20.0670 N   0  0  0  0  0  0  0  0  0  0  0  0
  -24.5660  -10.1750   20.7170 C   0  0  0  0  0  0  0  0  0  0  0  0
  -24.9620   -9.2550   21.7130 C   0  0  0  0  0  3  0  0  0  0  0  0
  -24.2170   -8.0760   21.9370 C   0  0  0  0  0  3  0  0  0  0  0  0
  -23.0620   -7.8100   21.1650 C   0  0  0  0  0  0  0  0  0  0  0  0
  -22.6850   -8.7170   20.1590 C   0  0  0  0  0  3  0  0  0  0  0  0
  -23.4300   -9.8860   19.9340 C   0  0  0  0  0  3  0  0  0  0  0  0
  -22.2910   -6.6800   21.2950 O   0  0  0  0  0  0  0  0  0  0  0  0
  -22.0850   -6.0850   22.5140 C   0  0  0  0  0  0  0  0  0  0  0  0
  -21.4710   -6.7730   23.5840 C   0  0  0  0  0  3  0  0  0  0  0  0
  -21.2150   -6.1030   24.7960 C   0  0  0  0  0  3  0  0  0  0  0  0
  -21.5610   -4.7470   24.9390 C   0  0  0  0  0  0  0  0  0  0  0  0
  -22.1670   -4.0580   23.8730 C   0  0  0  0  0  3  0  0  0  0  0  0
  -22.4240   -4.7260   22.6630 C   0  0  0  0  0  0  0  0  0  0  0  0
  -22.9880   -4.0520   21.6310 F   0  0  0  0  0  0  0  0  0  0  0  0
  -21.3080   -4.1000   26.1010 F   0  0  0  0  0  0  0  0  0  0  0  0
  -23.5370  -13.2960   20.9390 C   0  0  0  0  0  0  0  0  0  0  0  0
  -22.8660  -12.6220   21.8660 N   0  0  0  0  0  0  0  0  0  0  0  0
  -23.0840  -14.3310   20.4530 O   0  0  0  0  0  0  0  0  0  0  0  0
  -23.2460  -11.7820   22.2790 H   0  0  0  0  0  0  0  0  0  0  0  0
  -21.9590  -12.9500   22.1670 H   0  0  0  0  0  0  0  0  0  0  0  0
  -26.1330  -14.8920   19.9080 N   0  0  0  0  0  0  0  0  0  0  0  0
  -25.3830  -15.5560   20.0620 H   0  0  0  0  0  0  0  0  0  0  0  0
  -26.9390  -15.3050   19.4580 H   0  0  0  0  0  0  0  0  0  0  0  0
  -29.4370  -17.5820   21.7540 O   0  0  0  0  0  0  0  0  0  0  0  0
  -28.6540  -16.4880   21.2980 C   0  0  0  0  0  2  0  0  0  0  0  0
  -28.2160  -14.0080   21.7190 C   0  0  0  0  0  1  0  0  0  0  0  0
  -29.0660  -15.2330   22.0760 C   0  0  0  0  0  2  0  0  0  0  0  0
  1  4  1  0
  3  1  2  0
  3  5  1  0
  4 13  1  0
  4  2  2  0
  5  6  2  0
  6  2  1  0
  6 96  1  0
  7  8  2  0
  8  3  1  0
  9  7  1  0
 10  8  1  0
 11 12  1  0
 11  9  1  0
 12 10  1  0
 14 13  2  0
 14 15  1  0
 16 15  1  0
 17 28  2  0
 18 16  1  0
 18 23  1  0
 19 27  1  0
 19 29  1  0
 20 22  1  0
 21 27  1  0
 22 23  2  0
 22 21  1  0
 24 18  2  0
 25 24  1  0
 25 20  2  0
 26 20  1  0
 26 19  1  0
 27 17  1  0
 29 31  2  0
 30 29  1  0
 32 30  1  0
 33 42  2  0
 33 38  1  0
 34 30  1  0
 34 38  1  0
 35 34  1  0
 36 37  1  0
 36 35  1  0
 37 33  1  0
 38 39  2  0
 39 40  1  0
 41 40  2  0
 42 41  1  0
 43 17  1  0
 43 44  1  0
 43 53  1  0
 44 47  1  0
 45 49  1  0
 45 44  1  0
 46 45  2  0
 49 48  1  0
 51 49  1  0
 51 52  1  0
 51 50  1  0
 53 56  1  1
 53 54  1  0
 55 53  1  0
 57  5  1  0
 57 66  1  0
 58 64  1  0
 58 66  1  0
 59 64  1  0
 60 61  1  0
 60 59  1  0
 62 61  1  0
 62 71  1  0
 62 63  1  0
 64 63  1  0
 65 58  2  0
 66 67  1  0
 68 69  2  0
 69 88  1  0
 70 69  1  0
 70 73  1  0
 71 72  1  0
 71 68  1  0
 72 70  2  0
 73 74  1  0
 74 75  2  0
 76 79  1  0
 76 75  1  0
 77 76  2  0
 78 77  1  0
 78 73  2  0
 79 80  1  0
 80 85  2  0
 80 81  1  0
 81 82  2  0
 82 83  1  0
 83 87  1  0
 84 83  2  0
 85 84  1  0
 86 85  1  0
 88 89  1  0
 89 92  1  0
 89 91  1  0
 90 88  2  0
 93 94  1  0
 93 68  1  0
 95 93  1  0
 97 96  1  0
 97 99  1  0
 98 99  1  0
M  ISO  4  15 101  16 101  58 100  66 100
M  END
>  <TORSDO>  (14) 
F 23

>  <SCORE>  (14) 
-8.828

>  <name>  (14) 
13

>  <ligand_id>  (14) 
13

>  <original_smiles>  (14) 
[H]C(=C([H])C([H])([H])Oc1c([H])c([H])c2c(c1[H])C([H])([H])N(C(=O)C([H])(N([H])C(=O)C([H])(N([H])C([H])([H])[H])C([H])([H])[H])C(C([H])([H])[H])(C([H])([H])[H])C([H])([H])[H])C([H])(C(=O)N([H])C1([H])c3c([H])c([H])c([H])c([H])c3C([H])([H])C([H])([H])C1([H])[H])C2([H])[H])c1c([H])c(OC([H])([H])C([H])([H])C([H])([H])[H])c(C([H])([H])N([H])C(=O)N2C([H])([H])C([H])([H])C([H])([H])C([H])(n3nc(-c4c([H])c([H])c(Oc5c([H])c([H])c(F)c([H])c5F)c([H])c4[H])c(C(=O)N([H])[H])c3N([H])[H])C2([H])[H])c(C2=C([H])C([H])([H])C([H])([H])C([H])([H])C2([H])[H])c1[H]

>  <smiles>  (14) 
[H]C(=C([H])C([H])([H])Oc1c([H])c([H])c2c(c1[H])C([H])([H])N(C(=O)C([H])(N([H])C(=O)C([H])(N([H])C([H])([H])[H])C([H])([H])[H])C(C([H])([H])[H])(C([H])([H])[H])C([H])([H])[H])C([H])(C(=O)N([H])C1([H])c3c([H])c([H])c([H])c([H])c3C([H])([H])C([H])([H])C1([H])[H])C2([H])[H])c1c([H])c(OC([H])([H])C([H])([H])C([H])([H])[H])c(C([H])([H])N([H])C(=O)N2C([H])([H])C([H])([H])C([H])([H])C([H])(n3nc(-c4c([H])c([H])c(Oc5c([H])c([H])c(F)c([H])c5F)c([H])c4[H])c(C(=O)N([H])[H])c3N([H])[H])C2([H])[H])c(C2=C([H])C([H])([H])C([H])([H])C([H])([H])C2([H])[H])c1[H]

$$$$
14:0:0
     RDKit          3D

 91 99  0  0  1  0  0  0  0  0999 V2000
  -29.4340  -20.9520   20.6250 C   0  0  0  0  0  3  0  0  0  0  0  0
  -29.6790  -20.7470   18.2530 C   0  0  0  0  0  3  0  0  0  0  0  0
  -29.8430  -19.5810   20.7800 C   0  0  0  0  0  0  0  0  0  0  0  0
  -30.2190  -18.7660   19.6610 C   0  0  0  0  0  0  0  0  0  0  0  0
  -29.3600  -21.5860   19.3520 C   0  0  0  0  0  0  0  0  0  0  0  0
  -30.0990  -19.3920   18.3920 C   0  0  0  0  0  0  0  0  0  0  0  0
  -29.9170  -19.0210   22.1910 C   0  0  0  0  0  1  0  0  0  0  0  0
  -30.4430  -18.7040   17.2760 F   0  0  0  0  0  0  0  0  0  0  0  0
  -28.7960  -23.9770   19.8400 C   0  0  0  0  0  3  0  0  0  0  0  0
  -28.9640  -22.9430   19.0610 N   0  0  0  0  0  0  0  0  0  0  0  0
  -28.3810  -25.3910   19.2580 C   0  0  0  0  0  2  0  0  0  0  0  0
  -28.2150  -26.5680   20.1460 O   0  0  0  0  0  0  0  0  0  0  0  0
  -24.5820  -31.9290   23.3190 C   0  0  0  0  0  0  0  0  0  0  0  0
  -27.0730  -27.3890   20.1230 C   0  0  0  0  0  0  0  0  0  0  0  0
  -23.3160  -30.5500   21.7080 C   0  0  0  0  0  3  0  0  0  0  0  0
  -24.7100  -29.0110   20.2170 C   0  0  0  0  0  0  0  0  0  0  0  0
  -25.8490  -30.8620   21.4410 C   0  0  0  0  0  2  0  0  0  0  0  0
  -25.9000  -29.4900   20.7780 C   0  0  0  0  0  0  0  0  0  0  0  0
  -27.0800  -28.6890   20.7240 C   0  0  0  0  0  3  0  0  0  0  0  0
  -25.8480  -26.9560   19.5660 C   0  0  0  0  0  3  0  0  0  0  0  0
  -24.6870  -27.7490   19.6080 C   0  0  0  0  0  3  0  0  0  0  0  0
  -23.4810  -29.8900   20.3140 C   0  0  0  0  0  2  0  0  0  0  0  0
  -24.6040  -31.1320   22.2120 N   0  0  0  0  0  0  0  0  0  0  0  0
  -23.5180  -32.2050   23.8920 O   0  0  0  0  0  0  0  0  0  0  0  0
  -22.6820  -29.5270   22.6790 C   0  0  0  0  0  0  0  0  0  0  0  0
  -21.3690  -29.2800   22.5280 N   0  0  0  0  0  0  0  0  0  0  0  0
  -23.3700  -28.9570   23.5300 O   0  0  0  0  0  0  0  0  0  0  0  0
  -20.8720  -29.7940   21.8150 H   0  0  0  0  0  0  0  0  0  0  0  0
  -18.0670  -27.8510   22.9010 C   0  0  0  0  0  0  0  0  0  0  0  0
  -20.5780  -28.3230   23.3020 C   0  0  0  0  0  3  0  0  0  0  0  0
  -20.8220  -26.8750   22.8170 C   0  0  0  0  0  2  0  0  0  0  0  0
  -19.8140  -26.4140   21.7630 C   0  0  0  0  0  2  0  0  0  0  0  0
  -18.3850  -26.4840   22.3150 C   0  0  0  0  0  2  0  0  0  0  0  0
  -19.0970  -28.7190   23.3490 C   0  0  0  0  0  0  0  0  0  0  0  0
  -18.7510  -29.9920   23.8520 C   0  0  0  0  0  3  0  0  0  0  0  0
  -17.4040  -30.3980   23.9140 C   0  0  0  0  0  3  0  0  0  0  0  0
  -16.3880  -29.5280   23.4860 C   0  0  0  0  0  3  0  0  0  0  0  0
  -16.7180  -28.2570   22.9830 C   0  0  0  0  0  3  0  0  0  0  0  0
  -25.8880  -32.5510   23.9030 C   0  0  0  0  0  3  0  0  0  0  0  0
  -26.4140  -31.7970   25.1870 C   0  0  1  0  0  0  0  0  0  0  0  0
  -25.3300  -31.5730   26.2680 C   0  0  0  0  0  1  0  0  0  0  0  0
  -26.9930  -30.4140   24.8070 C   0  0  0  0  0  1  0  0  0  0  0  0
  -27.5710  -32.6010   25.8280 C   0  0  0  0  0  1  0  0  0  0  0  0
  -25.6110  -33.9610   24.2100 N   0  0  0  0  0  0  0  0  0  0  0  0
  -25.9260  -34.9900   23.4130 C   0  0  0  0  0  0  0  0  0  0  0  0
  -26.5530  -34.8520   22.3590 O   0  0  0  0  0  0  0  0  0  0  0  0
  -25.0560  -34.1450   25.0330 H   0  0  0  0  0  0  0  0  0  0  0  0
  -24.2020  -36.7930   23.0980 C   0  0  0  0  0  1  0  0  0  0  0  0
  -25.4770  -36.3950   23.8580 C   0  0  0  0  0  3  0  0  0  0  0  0
  -27.6520  -37.2850   24.5670 C   0  0  0  0  0  1  0  0  0  0  0  0
  -26.5140  -37.4340   23.6660 N   0  0  0  0  0  0  0  0  0  0  0  0
  -26.1220  -38.3610   23.8050 H   0  0  0  0  0  0  0  0  0  0  0  0
  -30.9880  -17.3830   19.7940 C   0  0  0  0  0  2  0  0  0  0  0  0
  -31.0410  -14.8390   19.4610 C   0  0  0  0  0  0  0  0  0  0  0  0
  -30.6920  -12.5290   18.6100 C   0  0  0  0  0  2  0  0  0  0  0  0
  -29.6280  -12.5350   17.4920 C   0  0  0  0  0  2  0  0  0  0  0  0
  -28.2170  -12.3990   18.0920 C   0  0  0  0  0  2  0  0  0  0  0  0
  -27.9720  -13.3780   19.2720 C   0  0  0  0  0  3  0  0  0  0  0  0
  -29.1440  -13.3650   20.2780 C   0  0  0  0  0  2  0  0  0  0  0  0
  -30.3720  -13.6450   19.5240 N   0  0  0  0  0  0  0  0  0  0  0  0
  -32.1900  -14.8840   19.0130 O   0  0  0  0  0  0  0  0  0  0  0  0
  -30.3600  -16.0070   19.7260 N   0  0  0  0  0  0  0  0  0  0  0  0
  -29.3910  -15.9280   19.9920 H   0  0  0  0  0  0  0  0  0  0  0  0
  -25.7350  -14.0410   20.3410 C   0  0  0  0  0  0  0  0  0  0  0  0
  -24.6810  -13.2980   20.8000 C   0  0  0  0  0  0  0  0  0  0  0  0
  -25.0590  -11.9310   20.6330 C   0  0  0  0  0  0  0  0  0  0  0  0
  -26.6890  -13.1280   19.9210 N   0  0  0  0  0  0  0  0  0  0  0  0
  -26.2960  -11.8500   20.1580 N   0  0  0  0  0  0  0  0  0  0  0  0
  -24.2930  -10.6950   20.8430 C   0  0  0  0  0  0  0  0  0  0  0  0
  -24.7170   -9.7090   21.7590 C   0  0  0  0  0  3  0  0  0  0  0  0
  -23.9520   -8.5390   21.9550 C   0  0  0  0  0  3  0  0  0  0  0  0
  -22.7490   -8.3490   21.2360 C   0  0  0  0  0  0  0  0  0  0  0  0
  -22.3440   -9.3240   20.3080 C   0  0  0  0  0  3  0  0  0  0  0  0
  -23.1080  -10.4850   20.1090 C   0  0  0  0  0  3  0  0  0  0  0  0
  -21.9530   -7.2330   21.3450 O   0  0  0  0  0  0  0  0  0  0  0  0
  -21.8170   -6.5610   22.5320 C   0  0  0  0  0  0  0  0  0  0  0  0
  -21.2850   -7.1810   23.6840 C   0  0  0  0  0  3  0  0  0  0  0  0
  -21.0980   -6.4330   24.8640 C   0  0  0  0  0  3  0  0  0  0  0  0
  -21.4310   -5.0650   24.8910 C   0  0  0  0  0  0  0  0  0  0  0  0
  -21.9570   -4.4450   23.7430 C   0  0  0  0  0  3  0  0  0  0  0  0
  -22.1460   -5.1910   22.5670 C   0  0  0  0  0  0  0  0  0  0  0  0
  -22.6320   -4.5830   21.4580 F   0  0  0  0  0  0  0  0  0  0  0  0
  -21.2450   -4.3440   26.0220 F   0  0  0  0  0  0  0  0  0  0  0  0
  -23.3600  -13.8260   21.2760 C   0  0  0  0  0  0  0  0  0  0  0  0
  -22.7150  -13.1210   22.1990 N   0  0  0  0  0  0  0  0  0  0  0  0
  -22.9130  -14.8970   20.8670 O   0  0  0  0  0  0  0  0  0  0  0  0
  -23.0910  -12.2510   22.5500 H   0  0  0  0  0  0  0  0  0  0  0  0
  -21.8330  -13.4530   22.5620 H   0  0  0  0  0  0  0  0  0  0  0  0
  -25.9530  -15.4110   20.2210 N   0  0  0  0  0  0  0  0  0  0  0  0
  -25.2440  -16.0930   20.4690 H   0  0  0  0  0  0  0  0  0  0  0  0
  -26.7700  -15.8300   19.7950 H   0  0  0  0  0  0  0  0  0  0  0  0
  1  3  1  0
  2  6  2  0
  2  5  1  0
  3  7  1  0
  4 53  1  0
  4  3  2  0
  5  1  2  0
  6  4  1  0
  8  6  1  0
 10  5  1  0
 10  9  2  0
 11  9  1  0
 11 12  1  0
 13 24  2  0
 14 12  1  0
 14 19  1  0
 15 23  1  0
 15 25  1  0
 16 22  1  0
 16 18  1  0
 17 23  1  0
 18 17  1  0
 19 18  2  0
 20 21  1  0
 20 14  2  0
 21 16  2  0
 22 15  1  0
 23 13  1  0
 25 27  2  0
 26 25  1  0
 28 26  1  0
 29 38  2  0
 29 34  1  0
 30 26  1  0
 30 34  1  0
 31 30  1  0
 32 33  1  0
 32 31  1  0
 33 29  1  0
 34 35  2  0
 35 36  1  0
 37 36  2  0
 38 37  1  0
 39 13  1  0
 39 44  1  0
 39 40  1  0
 40 43  1  1
 40 41  1  0
 42 40  1  0
 44 47  1  0
 45 49  1  0
 45 44  1  0
 46 45  2  0
 49 48  1  0
 51 52  1  0
 51 49  1  0
 51 50  1  0
 54 60  1  0
 54 62  1  0
 55 60  1  0
 56 57  1  0
 56 55  1  0
 58 57  1  0
 58 67  1  0
 58 59  1  0
 60 59  1  0
 61 54  2  0
 62 53  1  0
 62 63  1  0
 64 65  2  0
 65 84  1  0
 66 65  1  0
 66 69  1  0
 67 68  1  0
 67 64  1  0
 68 66  2  0
 69 70  1  0
 70 71  2  0
 72 75  1  0
 72 71  1  0
 73 72  2  0
 74 73  1  0
 74 69  2  0
 75 76  1  0
 76 81  2  0
 76 77  1  0
 77 78  2  0
 78 79  1  0
 79 83  1  0
 80 79  2  0
 81 80  1  0
 82 81  1  0
 84 85  1  0
 85 87  1  0
 85 88  1  0
 86 84  2  0
 89 64  1  0
 89 90  1  0
 91 89  1  0
M  ISO  4  11 101  12 101  54 100  62 100
M  END
>  <TORSDO>  (15) 
F 19

>  <SCORE>  (15) 
-12.623

>  <name>  (15) 
14

>  <ligand_id>  (15) 
14

>  <original_smiles>  (15) 
[H]C(=Nc1c([H])c(F)c(C([H])([H])N([H])C(=O)N2C([H])([H])C([H])([H])C([H])([H])C([H])(n3nc(-c4c([H])c([H])c(Oc5c([H])c([H])c(F)c([H])c5F)c([H])c4[H])c(C(=O)N([H])[H])c3N([H])[H])C2([H])[H])c(C([H])([H])[H])c1[H])C([H])([H])Oc1c([H])c([H])c2c(c1[H])C([H])([H])N(C(=O)C([H])(N([H])C(=O)C([H])(N([H])C([H])([H])[H])C([H])([H])[H])C(C([H])([H])[H])(C([H])([H])[H])C([H])([H])[H])C([H])(C(=O)N([H])C1([H])c3c([H])c([H])c([H])c([H])c3C([H])([H])C([H])([H])C1([H])[H])C2([H])[H]

>  <smiles>  (15) 
[H]C(=Nc1c([H])c(F)c(C([H])([H])N([H])C(=O)N2C([H])([H])C([H])([H])C([H])([H])C([H])(n3nc(-c4c([H])c([H])c(Oc5c([H])c([H])c(F)c([H])c5F)c([H])c4[H])c(C(=O)N([H])[H])c3N([H])[H])C2([H])[H])c(C([H])([H])[H])c1[H])C([H])([H])Oc1c([H])c([H])c2c(c1[H])C([H])([H])N(C(=O)C([H])(N([H])C(=O)C([H])(N([H])C([H])([H])[H])C([H])([H])[H])C(C([H])([H])[H])(C([H])([H])[H])C([H])([H])[H])C([H])(C(=O)N([H])C1([H])c3c([H])c([H])c([H])c([H])c3C([H])([H])C([H])([H])C1([H])[H])C2([H])[H]

$$$$
15:0:0
     RDKit          3D

 95104  0  0  1  0  0  0  0  0999 V2000
  -28.5280  -24.1070   19.3480 C   0  0  0  0  0  0  0  0  0  0  0  0
  -28.3280  -25.4560   19.1970 C   0  0  0  0  0  3  0  0  0  0  0  0
  -28.3100  -23.1850   18.1760 C   0  0  0  0  0  3  0  0  0  0  0  0
  -28.4770  -21.7450   18.6740 C   0  0  0  0  0  3  0  0  0  0  0  0
  -28.8980  -23.2120   20.5470 C   0  0  0  0  0  3  0  0  0  0  0  0
  -28.0750  -23.5500   21.8020 C   0  0  0  0  0  1  0  0  0  0  0  0
  -28.7510  -21.7860   20.1110 N   0  0  0  0  0  0  0  0  0  0  0  0
  -29.1560  -19.2950   20.3130 C   0  0  0  0  0  3  0  0  0  0  0  0
  -31.1580  -18.4650   21.4040 C   0  0  0  0  0  3  0  0  0  0  0  0
  -30.7850  -20.8730   21.1990 C   0  0  0  0  0  3  0  0  0  0  0  0
  -29.9490  -18.1750   20.7450 C   0  0  0  0  0  0  0  0  0  0  0  0
  -29.5350  -20.6680   20.5640 C   0  0  0  0  0  0  0  0  0  0  0  0
  -31.6060  -19.7880   21.5740 C   0  0  0  0  0  0  0  0  0  0  0  0
  -29.7030  -16.7030   20.4430 C   0  0  0  0  0  2  0  0  0  0  0  0
  -30.0640  -15.7160   21.2080 N   0  0  0  0  0  2  0  0  0  0  0  0
  -30.6790  -14.6140   20.5950 C   0  0  0  0  0  0  0  0  0  0  0  0
  -30.4210  -12.4040   19.5000 C   0  0  0  0  0  2  0  0  0  0  0  0
  -29.5110  -12.5340   18.2660 C   0  0  0  0  0  2  0  0  0  0  0  0
  -28.0320  -12.3760   18.6690 C   0  0  0  0  0  2  0  0  0  0  0  0
  -27.6440  -13.2510   19.8940 C   0  0  0  0  0  3  0  0  0  0  0  0
  -28.6790  -13.1180   21.0360 C   0  0  0  0  0  2  0  0  0  0  0  0
  -29.9980  -13.4340   20.4740 N   0  0  0  0  0  0  0  0  0  0  0  0
  -31.8050  -14.7250   20.1030 O   0  0  0  0  0  0  0  0  0  0  0  0
  -25.2270  -13.8370   20.5540 C   0  0  0  0  0  0  0  0  0  0  0  0
  -24.1550  -13.0580   20.9010 C   0  0  0  0  0  0  0  0  0  0  0  0
  -24.6280  -11.7110   20.8920 C   0  0  0  0  0  0  0  0  0  0  0  0
  -26.2850  -12.9640   20.3530 N   0  0  0  0  0  0  0  0  0  0  0  0
  -25.9260  -11.6810   20.6150 N   0  0  0  0  0  0  0  0  0  0  0  0
  -23.9060  -10.4470   21.0780 C   0  0  0  0  0  0  0  0  0  0  0  0
  -24.3340   -9.4800   22.0180 C   0  0  0  0  0  3  0  0  0  0  0  0
  -23.6080   -8.2820   22.1910 C   0  0  0  0  0  3  0  0  0  0  0  0
  -22.4430   -8.0400   21.4260 C   0  0  0  0  0  0  0  0  0  0  0  0
  -22.0340   -8.9960   20.4790 C   0  0  0  0  0  3  0  0  0  0  0  0
  -22.7600  -10.1860   20.3030 C   0  0  0  0  0  3  0  0  0  0  0  0
  -21.6890   -6.8940   21.5090 O   0  0  0  0  0  0  0  0  0  0  0  0
  -21.6470   -6.1410   22.6540 C   0  0  0  0  0  0  0  0  0  0  0  0
  -21.2370   -6.6870   23.8900 C   0  0  0  0  0  3  0  0  0  0  0  0
  -21.1400   -5.8600   25.0270 C   0  0  0  0  0  3  0  0  0  0  0  0
  -21.4440   -4.4880   24.9290 C   0  0  0  0  0  0  0  0  0  0  0  0
  -21.8540   -3.9430   23.7000 C   0  0  0  0  0  3  0  0  0  0  0  0
  -21.9510   -4.7670   22.5640 C   0  0  0  0  0  0  0  0  0  0  0  0
  -22.3220   -4.2320   21.3760 F   0  0  0  0  0  0  0  0  0  0  0  0
  -21.3470   -3.6930   26.0190 F   0  0  0  0  0  0  0  0  0  0  0  0
  -22.7480  -13.5310   21.1290 C   0  0  0  0  0  0  0  0  0  0  0  0
  -21.9970  -12.8450   21.9840 N   0  0  0  0  0  0  0  0  0  0  0  0
  -22.3230  -14.5490   20.5830 O   0  0  0  0  0  0  0  0  0  0  0  0
  -22.3450  -12.0270   22.4620 H   0  0  0  0  0  0  0  0  0  0  0  0
  -21.0560  -13.1570   22.1740 H   0  0  0  0  0  0  0  0  0  0  0  0
  -25.3780  -15.2090   20.3740 N   0  0  0  0  0  0  0  0  0  0  0  0
  -24.6050  -15.8500   20.5050 H   0  0  0  0  0  0  0  0  0  0  0  0
  -26.2350  -15.6710   20.1060 H   0  0  0  0  0  0  0  0  0  0  0  0
  -32.8850  -19.9730   22.0440 O   0  0  0  0  0  0  0  0  0  0  0  0
  -34.0070  -19.5720   19.8790 C   0  0  0  0  0  1  0  0  0  0  0  0
  -33.8130  -20.5040   21.0920 C   0  0  0  0  0  2  0  0  0  0  0  0
  -28.3240  -26.5110   20.1090 O   0  0  0  0  0  0  0  0  0  0  0  0
  -24.6280  -31.8920   23.1930 C   0  0  0  0  0  0  0  0  0  0  0  0
  -27.2090  -27.3630   20.0930 C   0  0  0  0  0  0  0  0  0  0  0  0
  -23.4090  -30.4960   21.5640 C   0  0  0  0  0  3  0  0  0  0  0  0
  -24.8440  -28.9620   20.1220 C   0  0  0  0  0  0  0  0  0  0  0  0
  -25.9470  -30.8210   21.3600 C   0  0  0  0  0  2  0  0  0  0  0  0
  -26.0210  -29.4500   20.7040 C   0  0  0  0  0  0  0  0  0  0  0  0
  -27.2090  -28.6630   20.6850 C   0  0  0  0  0  3  0  0  0  0  0  0
  -25.9940  -26.9120   19.5270 C   0  0  0  0  0  3  0  0  0  0  0  0
  -24.8310  -27.6950   19.5290 C   0  0  0  0  0  3  0  0  0  0  0  0
  -23.6100  -29.8320   20.1780 C   0  0  0  0  0  2  0  0  0  0  0  0
  -24.6800  -31.0850   22.0950 N   0  0  0  0  0  0  0  0  0  0  0  0
  -23.5480  -32.1690   23.7370 O   0  0  0  0  0  0  0  0  0  0  0  0
  -22.7610  -29.4710   22.5240 C   0  0  0  0  0  0  0  0  0  0  0  0
  -21.4340  -29.2950   22.4100 N   0  0  0  0  0  0  0  0  0  0  0  0
  -23.4490  -28.8380   23.3320 O   0  0  0  0  0  0  0  0  0  0  0  0
  -20.9410  -29.8600   21.7340 H   0  0  0  0  0  0  0  0  0  0  0  0
  -18.0570  -28.1140   22.9450 C   0  0  0  0  0  0  0  0  0  0  0  0
  -20.6190  -28.3580   23.1850 C   0  0  0  0  0  3  0  0  0  0  0  0
  -20.7050  -26.9280   22.6040 C   0  0  0  0  0  2  0  0  0  0  0  0
  -19.5890  -26.6150   21.6010 C   0  0  0  0  0  2  0  0  0  0  0  0
  -18.2150  -26.7670   22.2620 C   0  0  0  0  0  2  0  0  0  0  0  0
  -19.1850  -28.8690   23.3630 C   0  0  0  0  0  0  0  0  0  0  0  0
  -18.9800  -30.1300   23.9620 C   0  0  0  0  0  3  0  0  0  0  0  0
  -17.6810  -30.6400   24.1420 C   0  0  0  0  0  3  0  0  0  0  0  0
  -16.5680  -29.8840   23.7380 C   0  0  0  0  0  3  0  0  0  0  0  0
  -16.7560  -28.6220   23.1470 C   0  0  0  0  0  3  0  0  0  0  0  0
  -25.9160  -32.5230   23.8060 C   0  0  0  0  0  3  0  0  0  0  0  0
  -26.4490  -31.7420   25.0690 C   0  0  1  0  0  0  0  0  0  0  0  0
  -25.3690  -31.4940   26.1490 C   0  0  0  0  0  1  0  0  0  0  0  0
  -27.0340  -30.3700   24.6600 C   0  0  0  0  0  1  0  0  0  0  0  0
  -27.6060  -32.5350   25.7220 C   0  0  0  0  0  1  0  0  0  0  0  0
  -25.6040  -33.9160   24.1530 N   0  0  0  0  0  0  0  0  0  0  0  0
  -25.9310  -34.9770   23.4030 C   0  0  0  0  0  0  0  0  0  0  0  0
  -26.5960  -34.8850   22.3680 O   0  0  0  0  0  0  0  0  0  0  0  0
  -25.0140  -34.0620   24.9570 H   0  0  0  0  0  0  0  0  0  0  0  0
  -24.2000  -36.7700   23.0620 C   0  0  0  0  0  1  0  0  0  0  0  0
  -25.4380  -36.3580   23.8740 C   0  0  0  0  0  3  0  0  0  0  0  0
  -27.5710  -37.2290   24.7240 C   0  0  0  0  0  1  0  0  0  0  0  0
  -26.4700  -37.4140   23.7830 N   0  0  0  0  0  0  0  0  0  0  0  0
  -26.0650  -38.3320   23.9450 H   0  0  0  0  0  0  0  0  0  0  0  0
  1  5  1  0
  2  1  2  0
  2 55  1  0
  3  4  2  0
  3  1  1  0
  4  7  1  0
  5  6  1  0
  7  5  1  0
  7 12  1  0
  8 12  2  0
  8 11  1  0
  9 13  1  0
 10 13  2  0
 11  9  2  0
 12 10  1  0
 13 52  1  0
 14 11  1  0
 14 15  1  0
 16 15  1  0
 17 22  1  0
 18 19  1  0
 18 17  1  0
 20 19  1  0
 20 27  1  0
 20 21  1  0
 22 16  1  0
 22 21  1  0
 23 16  2  0
 24 25  2  0
 25 44  1  0
 26 25  1  0
 26 29  1  0
 27 24  1  0
 27 28  1  0
 28 26  2  0
 29 30  1  0
 30 31  2  0
 32 35  1  0
 32 31  1  0
 33 32  2  0
 34 33  1  0
 34 29  2  0
 35 36  1  0
 36 37  1  0
 37 38  2  0
 39 38  1  0
 39 43  1  0
 40 39  2  0
 41 36  2  0
 41 40  1  0
 42 41  1  0
 44 45  1  0
 45 48  1  0
 45 47  1  0
 46 44  2  0
 49 50  1  0
 49 24  1  0
 51 49  1  0
 53 54  1  0
 54 52  1  0
 56 67  2  0
 57 55  1  0
 57 62  1  0
 58 66  1  0
 58 68  1  0
 59 65  1  0
 59 61  1  0
 60 66  1  0
 61 60  1  0
 62 61  2  0
 63 64  1  0
 63 57  2  0
 64 59  2  0
 65 58  1  0
 66 56  1  0
 68 70  2  0
 69 68  1  0
 71 69  1  0
 72 81  2  0
 72 77  1  0
 73 69  1  0
 73 77  1  0
 74 73  1  0
 75 76  1  0
 75 74  1  0
 76 72  1  0
 77 78  2  0
 78 79  1  0
 80 79  2  0
 81 80  1  0
 82 56  1  0
 82 87  1  0
 82 83  1  0
 83 86  1  1
 83 84  1  0
 85 83  1  0
 87 90  1  0
 88 92  1  0
 88 87  1  0
 89 88  2  0
 92 91  1  0
 94 92  1  0
 94 95  1  0
 94 93  1  0
M  ISO  4   2 101  15 100  16 100  55 101
M  END
>  <TORSDO>  (16) 
F 20

>  <SCORE>  (16) 
-14.423

>  <name>  (16) 
15

>  <ligand_id>  (16) 
15

>  <original_smiles>  (16) 
[H]C(=NC(=O)N1C([H])([H])C([H])([H])C([H])([H])C([H])(n2nc(-c3c([H])c([H])c(Oc4c([H])c([H])c(F)c([H])c4F)c([H])c3[H])c(C(=O)N([H])[H])c2N([H])[H])C1([H])[H])c1c([H])c(OC([H])([H])C([H])([H])[H])c([H])c(N2C([H])([H])C([H])([H])C(=C([H])Oc3c([H])c([H])c4c(c3[H])C([H])([H])N(C(=O)C([H])(N([H])C(=O)C([H])(N([H])C([H])([H])[H])C([H])([H])[H])C(C([H])([H])[H])(C([H])([H])[H])C([H])([H])[H])C([H])(C(=O)N([H])C3([H])c5c([H])c([H])c([H])c([H])c5C([H])([H])C([H])([H])C3([H])[H])C4([H])[H])C2([H])C([H])([H])[H])c1[H]

>  <smiles>  (16) 
[H]C(=NC(=O)N1C([H])([H])C([H])([H])C([H])([H])C([H])(n2nc(-c3c([H])c([H])c(Oc4c([H])c([H])c(F)c([H])c4F)c([H])c3[H])c(C(=O)N([H])[H])c2N([H])[H])C1([H])[H])c1c([H])c(OC([H])([H])C([H])([H])[H])c([H])c(N2C([H])([H])C([H])([H])C(=C([H])Oc3c([H])c([H])c4c(c3[H])C([H])([H])N(C(=O)C([H])(N([H])C(=O)C([H])(N([H])C([H])([H])[H])C([H])([H])[H])C(C([H])([H])[H])(C([H])([H])[H])C([H])([H])[H])C([H])(C(=O)N([H])C3([H])c5c([H])c([H])c([H])c([H])c5C([H])([H])C([H])([H])C3([H])[H])C4([H])[H])C2([H])C([H])([H])[H])c1[H]

$$$$
16:0:0
     RDKit          3D

 94102  0  0  1  0  0  0  0  0999 V2000
  -30.2020  -18.6460   18.1720 C   0  0  0  0  0  3  0  0  0  0  0  0
  -30.3450  -17.5890   19.0910 C   0  0  0  0  0  3  0  0  0  0  0  0
  -30.0220  -19.1510   20.9240 C   0  0  0  0  0  3  0  0  0  0  0  0
  -29.9770  -19.9700   18.6120 C   0  0  0  0  0  0  0  0  0  0  0  0
  -30.2710  -17.8300   20.4800 C   0  0  0  0  0  0  0  0  0  0  0  0
  -29.8760  -20.2170   20.0020 C   0  0  0  0  0  0  0  0  0  0  0  0
  -29.9620  -21.0250   16.3190 C   0  0  0  0  0  2  0  0  0  0  0  0
  -29.8520  -21.0910   17.6570 C   0  0  0  0  0  3  0  0  0  0  0  0
  -30.5390  -16.7170   21.5000 C   0  0  0  0  0  2  0  0  0  0  0  0
  -30.7050  -14.4040   20.5170 C   0  0  0  0  0  0  0  0  0  0  0  0
  -30.3640  -12.2860   19.2950 C   0  0  0  0  0  2  0  0  0  0  0  0
  -29.4270  -12.5370   18.0970 C   0  0  0  0  0  2  0  0  0  0  0  0
  -27.9510  -12.4140   18.5260 C   0  0  0  0  0  2  0  0  0  0  0  0
  -27.6280  -13.2310   19.8040 C   0  0  0  0  0  3  0  0  0  0  0  0
  -28.6760  -12.9590   20.9070 C   0  0  0  0  0  2  0  0  0  0  0  0
  -30.0060  -13.2490   20.3460 N   0  0  0  0  0  0  0  0  0  0  0  0
  -31.8240  -14.5930   20.0360 O   0  0  0  0  0  0  0  0  0  0  0  0
  -30.0400  -15.3810   21.1530 N   0  0  0  0  0  0  0  0  0  0  0  0
  -29.1120  -15.1510   21.4750 H   0  0  0  0  0  0  0  0  0  0  0  0
  -25.2310  -13.8710   20.4870 C   0  0  0  0  0  0  0  0  0  0  0  0
  -24.1510  -13.1150   20.8530 C   0  0  0  0  0  0  0  0  0  0  0  0
  -24.5970  -11.7580   20.8360 C   0  0  0  0  0  0  0  0  0  0  0  0
  -26.2670  -12.9770   20.2730 N   0  0  0  0  0  0  0  0  0  0  0  0
  -25.8890  -11.7000   20.5380 N   0  0  0  0  0  0  0  0  0  0  0  0
  -23.8560  -10.5040   21.0300 C   0  0  0  0  0  0  0  0  0  0  0  0
  -24.2750   -9.5360   21.9680 C   0  0  0  0  0  3  0  0  0  0  0  0
  -23.5350   -8.3470   22.1490 C   0  0  0  0  0  3  0  0  0  0  0  0
  -22.3620   -8.1200   21.3910 C   0  0  0  0  0  0  0  0  0  0  0  0
  -21.9620   -9.0780   20.4420 C   0  0  0  0  0  3  0  0  0  0  0  0
  -22.7020  -10.2580   20.2590 C   0  0  0  0  0  3  0  0  0  0  0  0
  -21.5940   -6.9840   21.4800 O   0  0  0  0  0  0  0  0  0  0  0  0
  -21.5390   -6.2410   22.6320 C   0  0  0  0  0  0  0  0  0  0  0  0
  -21.1270   -6.8010   23.8610 C   0  0  0  0  0  3  0  0  0  0  0  0
  -21.0190   -5.9860   25.0060 C   0  0  0  0  0  3  0  0  0  0  0  0
  -21.3130   -4.6110   24.9210 C   0  0  0  0  0  0  0  0  0  0  0  0
  -21.7190   -4.0510   23.6980 C   0  0  0  0  0  3  0  0  0  0  0  0
  -21.8300   -4.8640   22.5560 C   0  0  0  0  0  0  0  0  0  0  0  0
  -22.2000   -4.3140   21.3740 F   0  0  0  0  0  0  0  0  0  0  0  0
  -21.2020   -3.8250   26.0190 F   0  0  0  0  0  0  0  0  0  0  0  0
  -22.7570  -13.6090   21.1130 C   0  0  0  0  0  0  0  0  0  0  0  0
  -22.0160  -12.9250   21.9770 N   0  0  0  0  0  0  0  0  0  0  0  0
  -22.3340  -14.6370   20.5850 O   0  0  0  0  0  0  0  0  0  0  0  0
  -22.3720  -12.0920   22.4230 H   0  0  0  0  0  0  0  0  0  0  0  0
  -21.0800  -13.2380   22.1970 H   0  0  0  0  0  0  0  0  0  0  0  0
  -25.4130  -15.2390   20.3000 N   0  0  0  0  0  0  0  0  0  0  0  0
  -24.6530  -15.9040   20.3910 H   0  0  0  0  0  0  0  0  0  0  0  0
  -26.2740  -15.6650   19.9780 H   0  0  0  0  0  0  0  0  0  0  0  0
  -29.6950  -21.5100   20.4440 O   0  0  0  0  0  0  0  0  0  0  0  0
  -28.4450  -21.7800   21.0770 C   0  0  0  0  0  2  0  0  0  0  0  0
  -27.7570  -22.9900   20.4060 C   0  0  0  0  0  2  0  0  0  0  0  0
  -28.3090  -24.3610   20.8240 C   0  0  0  0  0  0  0  0  0  0  0  0
  -28.5180  -24.6300   22.0120 O   0  0  0  0  0  0  0  0  0  0  0  0
  -28.5730  -25.3950   19.7130 C   0  0  0  0  0  2  0  0  0  0  0  0
  -28.4900  -26.7400   20.2130 O   0  0  0  0  0  0  0  0  0  0  0  0
  -24.5900  -31.8640   23.2380 C   0  0  0  0  0  0  0  0  0  0  0  0
  -27.2830  -27.4130   20.1990 C   0  0  0  0  0  0  0  0  0  0  0  0
  -23.4070  -30.4540   21.5890 C   0  0  0  0  0  3  0  0  0  0  0  0
  -24.8790  -28.9120   20.1900 C   0  0  0  0  0  0  0  0  0  0  0  0
  -25.9350  -30.8140   21.4210 C   0  0  0  0  0  2  0  0  0  0  0  0
  -26.0280  -29.4400   20.7890 C   0  0  0  0  0  0  0  0  0  0  0  0
  -27.2300  -28.6960   20.7920 C   0  0  0  0  0  3  0  0  0  0  0  0
  -26.1060  -26.8950   19.6080 C   0  0  0  0  0  3  0  0  0  0  0  0
  -24.9120  -27.6390   19.5980 C   0  0  0  0  0  3  0  0  0  0  0  0
  -23.6340  -29.7690   20.2140 C   0  0  0  0  0  2  0  0  0  0  0  0
  -24.6610  -31.0590   22.1410 N   0  0  0  0  0  0  0  0  0  0  0  0
  -23.5000  -32.1350   23.7610 O   0  0  0  0  0  0  0  0  0  0  0  0
  -22.7480  -29.4320   22.5440 C   0  0  0  0  0  0  0  0  0  0  0  0
  -21.4230  -29.2590   22.4130 N   0  0  0  0  0  0  0  0  0  0  0  0
  -23.4260  -28.7990   23.3560 O   0  0  0  0  0  0  0  0  0  0  0  0
  -20.9360  -29.8220   21.7280 H   0  0  0  0  0  0  0  0  0  0  0  0
  -18.0340  -28.1150   22.9230 C   0  0  0  0  0  0  0  0  0  0  0  0
  -20.5970  -28.3260   23.1800 C   0  0  0  0  0  3  0  0  0  0  0  0
  -20.6730  -26.9010   22.5860 C   0  0  0  0  0  2  0  0  0  0  0  0
  -19.5580  -26.6060   21.5770 C   0  0  0  0  0  2  0  0  0  0  0  0
  -18.1830  -26.7700   22.2320 C   0  0  0  0  0  2  0  0  0  0  0  0
  -19.1680  -28.8520   23.3540 C   0  0  0  0  0  0  0  0  0  0  0  0
  -18.9740  -30.1140   23.9590 C   0  0  0  0  0  3  0  0  0  0  0  0
  -17.6800  -30.6370   24.1370 C   0  0  0  0  0  3  0  0  0  0  0  0
  -16.5590  -29.8950   23.7240 C   0  0  0  0  0  3  0  0  0  0  0  0
  -16.7380  -28.6350   23.1230 C   0  0  0  0  0  3  0  0  0  0  0  0
  -25.8660  -32.5020   23.8680 C   0  0  0  0  0  3  0  0  0  0  0  0
  -25.5490  -33.9000   24.1870 N   0  0  0  0  0  0  0  0  0  0  0  0
  -25.8910  -34.9480   23.4270 C   0  0  0  0  0  0  0  0  0  0  0  0
  -26.5780  -34.8410   22.4060 O   0  0  0  0  0  0  0  0  0  0  0  0
  -24.9370  -34.0540   24.9750 H   0  0  0  0  0  0  0  0  0  0  0  0
  -24.1690  -36.7390   23.0300 C   0  0  0  0  0  1  0  0  0  0  0  0
  -25.3940  -36.3380   23.8680 C   0  0  0  0  0  3  0  0  0  0  0  0
  -27.5110  -37.2270   24.7390 C   0  0  0  0  0  1  0  0  0  0  0  0
  -26.4280  -37.3910   23.7730 N   0  0  0  0  0  0  0  0  0  0  0  0
  -26.0180  -38.3110   23.9080 H   0  0  0  0  0  0  0  0  0  0  0  0
  -26.3730  -31.7410   25.1540 C   0  0  1  0  0  0  0  0  0  0  0  0
  -25.2670  -31.5040   26.2110 C   0  0  0  0  0  1  0  0  0  0  0  0
  -26.9680  -30.3640   24.7740 C   0  0  0  0  0  1  0  0  0  0  0  0
  -27.5120  -32.5440   25.8250 C   0  0  0  0  0  1  0  0  0  0  0  0
  1  4  2  0
  1  2  1  0
  2  5  2  0
  4  6  1  0
  5  3  1  0
  5  9  1  0
  6 48  1  0
  6  3  2  0
  7  8  2  0
  8  4  1  0
 10 18  1  0
 11 16  1  0
 12 13  1  0
 12 11  1  0
 14 13  1  0
 14 23  1  0
 14 15  1  0
 16 10  1  0
 16 15  1  0
 17 10  2  0
 18 19  1  0
 18  9  1  0
 20 21  2  0
 21 40  1  0
 22 21  1  0
 22 25  1  0
 23 20  1  0
 23 24  1  0
 24 22  2  0
 25 26  1  0
 26 27  2  0
 28 31  1  0
 28 27  1  0
 29 28  2  0
 30 29  1  0
 30 25  2  0
 31 32  1  0
 32 33  1  0
 33 34  2  0
 35 34  1  0
 35 39  1  0
 36 35  2  0
 37 32  2  0
 37 36  1  0
 38 37  1  0
 40 41  1  0
 41 44  1  0
 41 43  1  0
 42 40  2  0
 45 46  1  0
 45 20  1  0
 47 45  1  0
 48 49  1  0
 50 51  1  0
 50 49  1  0
 51 52  2  0
 53 54  1  0
 53 51  1  0
 55 66  2  0
 56 54  1  0
 56 61  1  0
 57 65  1  0
 57 67  1  0
 58 64  1  0
 58 60  1  0
 59 65  1  0
 60 61  2  0
 60 59  1  0
 62 56  2  0
 63 62  1  0
 63 58  2  0
 64 57  1  0
 65 55  1  0
 67 69  2  0
 68 67  1  0
 70 68  1  0
 71 80  2  0
 71 76  1  0
 72 68  1  0
 72 76  1  0
 73 72  1  0
 74 75  1  0
 74 73  1  0
 75 71  1  0
 76 77  2  0
 77 78  1  0
 79 78  2  0
 80 79  1  0
 81 55  1  0
 81 82  1  0
 81 91  1  0
 82 85  1  0
 83 87  1  0
 83 82  1  0
 84 83  2  0
 87 86  1  0
 89 87  1  0
 89 90  1  0
 89 88  1  0
 91 94  1  1
 91 92  1  0
 93 91  1  0
M  ISO  4  10 100  18 100  53 101  54 101
M  END
>  <TORSDO>  (17) 
F 23

>  <SCORE>  (17) 
-13.158

>  <name>  (17) 
16

>  <ligand_id>  (17) 
16

>  <original_smiles>  (17) 
[H]C([H])=C([H])c1c([H])c([H])c(C([H])([H])N([H])C(=O)N2C([H])([H])C([H])([H])C([H])([H])C([H])(n3nc(-c4c([H])c([H])c(Oc5c([H])c([H])c(F)c([H])c5F)c([H])c4[H])c(C(=O)N([H])[H])c3N([H])[H])C2([H])[H])c([H])c1OC([H])([H])C([H])([H])C(=O)C([H])([H])Oc1c([H])c([H])c2c(c1[H])C([H])([H])N(C(=O)C([H])(N([H])C(=O)C([H])(N([H])C([H])([H])[H])C([H])([H])[H])C(C([H])([H])[H])(C([H])([H])[H])C([H])([H])[H])C([H])(C(=O)N([H])C1([H])c3c([H])c([H])c([H])c([H])c3C([H])([H])C([H])([H])C1([H])[H])C2([H])[H]

>  <smiles>  (17) 
[H]C([H])=C([H])c1c([H])c([H])c(C([H])([H])N([H])C(=O)N2C([H])([H])C([H])([H])C([H])([H])C([H])(n3nc(-c4c([H])c([H])c(Oc5c([H])c([H])c(F)c([H])c5F)c([H])c4[H])c(C(=O)N([H])[H])c3N([H])[H])C2([H])[H])c([H])c1OC([H])([H])C([H])([H])C(=O)C([H])([H])Oc1c([H])c([H])c2c(c1[H])C([H])([H])N(C(=O)C([H])(N([H])C(=O)C([H])(N([H])C([H])([H])[H])C([H])([H])[H])C(C([H])([H])[H])(C([H])([H])[H])C([H])([H])[H])C([H])(C(=O)N([H])C1([H])c3c([H])c([H])c([H])c([H])c3C([H])([H])C([H])([H])C1([H])[H])C2([H])[H]

$$$$
17:0:0
     RDKit          3D

 93101  0  0  1  0  0  0  0  0999 V2000
  -29.7450  -20.0530   21.4920 C   0  0  0  0  0  3  0  0  0  0  0  0
  -31.4280  -19.7840   19.3100 C   0  0  0  0  0  3  0  0  0  0  0  0
  -30.0770  -21.2120   20.7620 C   0  0  0  0  0  0  0  0  0  0  0  0
  -31.1180  -18.5960   20.0530 C   0  0  0  0  0  0  0  0  0  0  0  0
  -30.2500  -18.7710   21.1770 C   0  0  0  0  0  0  0  0  0  0  0  0
  -30.9440  -21.0880   19.6470 C   0  0  0  0  0  0  0  0  0  0  0  0
  -28.8970  -16.6310   21.5250 C   0  0  0  0  0  1  0  0  0  0  0  0
  -29.8490  -17.6630   22.1470 C   0  0  0  0  0  2  0  0  0  0  0  0
  -31.6920  -17.2700   19.5880 C   0  0  0  0  0  3  0  0  0  0  0  0
  -31.3500  -15.9930   19.9440 C   0  0  0  0  0  3  0  0  0  0  0  0
  -32.0300  -14.7750   19.4410 C   0  0  0  0  0  0  0  0  0  0  0  0
  -31.6690  -12.4240   18.7340 C   0  0  0  0  0  2  0  0  0  0  0  0
  -30.6110  -12.4220   17.6060 C   0  0  0  0  0  2  0  0  0  0  0  0
  -29.1900  -12.3580   18.1990 C   0  0  0  0  0  2  0  0  0  0  0  0
  -28.9740  -13.3930   19.3360 C   0  0  0  0  0  3  0  0  0  0  0  0
  -30.1320  -13.3360   20.3540 C   0  0  0  0  0  2  0  0  0  0  0  0
  -31.3840  -13.5760   19.6140 N   0  0  0  0  0  0  0  0  0  0  0  0
  -33.0910  -14.8290   18.8110 O   0  0  0  0  0  0  0  0  0  0  0  0
  -26.7740  -14.1860   20.4100 C   0  0  0  0  0  0  0  0  0  0  0  0
  -25.6820  -13.5070   20.8680 C   0  0  0  0  0  0  0  0  0  0  0  0
  -25.9660  -12.1200   20.6680 C   0  0  0  0  0  0  0  0  0  0  0  0
  -27.6700  -13.2220   19.9720 N   0  0  0  0  0  0  0  0  0  0  0  0
  -27.1900  -11.9680   20.1770 N   0  0  0  0  0  0  0  0  0  0  0  0
  -25.1220  -10.9370   20.8620 C   0  0  0  0  0  0  0  0  0  0  0  0
  -25.4880   -9.9130   21.7610 C   0  0  0  0  0  3  0  0  0  0  0  0
  -24.6520   -8.7910   21.9440 C   0  0  0  0  0  3  0  0  0  0  0  0
  -23.4360   -8.6870   21.2260 C   0  0  0  0  0  0  0  0  0  0  0  0
  -23.0890   -9.7000   20.3150 C   0  0  0  0  0  3  0  0  0  0  0  0
  -23.9250  -10.8130   20.1310 C   0  0  0  0  0  3  0  0  0  0  0  0
  -22.5740   -7.6220   21.3190 O   0  0  0  0  0  0  0  0  0  0  0  0
  -22.2460   -7.0660   22.5300 C   0  0  0  0  0  0  0  0  0  0  0  0
  -21.6400   -7.8220   23.5560 C   0  0  0  0  0  3  0  0  0  0  0  0
  -21.2560   -7.1960   24.7580 C   0  0  0  0  0  3  0  0  0  0  0  0
  -21.4650   -5.8150   24.9320 C   0  0  0  0  0  0  0  0  0  0  0  0
  -22.0660   -5.0590   23.9080 C   0  0  0  0  0  3  0  0  0  0  0  0
  -22.4520   -5.6830   22.7100 C   0  0  0  0  0  0  0  0  0  0  0  0
  -23.0090   -4.9470   21.7180 F   0  0  0  0  0  0  0  0  0  0  0  0
  -21.0920   -5.2090   26.0830 F   0  0  0  0  0  0  0  0  0  0  0  0
  -24.4050  -14.1100   21.3760 C   0  0  0  0  0  0  0  0  0  0  0  0
  -23.7550  -13.4480   22.3250 N   0  0  0  0  0  0  0  0  0  0  0  0
  -24.0050  -15.2030   20.9730 O   0  0  0  0  0  0  0  0  0  0  0  0
  -24.0960  -12.5620   22.6710 H   0  0  0  0  0  0  0  0  0  0  0  0
  -22.9040  -13.8340   22.7130 H   0  0  0  0  0  0  0  0  0  0  0  0
  -27.0630  -15.5400   20.3080 N   0  0  0  0  0  0  0  0  0  0  0  0
  -26.3780  -16.2390   20.5780 H   0  0  0  0  0  0  0  0  0  0  0  0
  -27.8740  -15.9330   19.8500 H   0  0  0  0  0  0  0  0  0  0  0  0
  -28.1940  -22.8470   21.0170 C   0  0  0  0  0  2  0  0  0  0  0  0
  -29.4870  -22.5010   21.1670 C   0  0  0  0  0  3  0  0  0  0  0  0
  -31.2270  -22.1780   18.8200 O   0  0  0  0  0  0  0  0  0  0  0  0
  -31.8110  -23.3760   19.3880 C   0  0  0  0  0  2  0  0  0  0  0  0
  -30.8340  -24.5060   19.8870 C   0  0  0  0  0  2  0  0  0  0  0  0
  -30.7170  -25.7900   19.0170 C   0  0  0  0  0  2  0  0  0  0  0  0
  -30.2760  -26.9540   19.7590 O   0  0  0  0  0  0  0  0  0  0  0  0
  -25.3250  -30.2080   23.7110 C   0  0  0  0  0  0  0  0  0  0  0  0
  -28.9560  -27.3750   19.8130 C   0  0  0  0  0  0  0  0  0  0  0  0
  -24.4980  -29.1380   21.6390 C   0  0  0  0  0  3  0  0  0  0  0  0
  -26.2950  -28.3520   20.0040 C   0  0  0  0  0  0  0  0  0  0  0  0
  -26.9050  -29.9900   21.7910 C   0  0  0  0  0  2  0  0  0  0  0  0
  -27.2960  -28.8960   20.8150 C   0  0  0  0  0  0  0  0  0  0  0  0
  -28.6230  -28.4180   20.7150 C   0  0  0  0  0  3  0  0  0  0  0  0
  -27.9240  -26.8320   19.0100 C   0  0  0  0  0  3  0  0  0  0  0  0
  -26.6050  -27.3180   19.1020 C   0  0  0  0  0  3  0  0  0  0  0  0
  -24.9000  -28.9200   20.1560 C   0  0  0  0  0  2  0  0  0  0  0  0
  -25.5880  -29.7810   22.4430 N   0  0  0  0  0  0  0  0  0  0  0  0
  -24.1900  -30.1120   24.1970 O   0  0  0  0  0  0  0  0  0  0  0  0
  -24.0210  -27.7890   22.2210 C   0  0  0  0  0  0  0  0  0  0  0  0
  -22.8320  -27.3370   21.7920 N   0  0  0  0  0  0  0  0  0  0  0  0
  -24.7260  -27.1580   23.0140 O   0  0  0  0  0  0  0  0  0  0  0  0
  -22.3120  -27.9130   21.1450 H   0  0  0  0  0  0  0  0  0  0  0  0
  -19.9680  -25.2130   21.2020 C   0  0  0  0  0  0  0  0  0  0  0  0
  -22.2070  -26.0690   22.1700 C   0  0  0  0  0  3  0  0  0  0  0  0
  -22.8650  -24.8820   21.4300 C   0  0  0  0  0  2  0  0  0  0  0  0
  -22.1500  -24.5150   20.1250 C   0  0  0  0  0  2  0  0  0  0  0  0
  -20.6900  -24.1440   20.4000 C   0  0  0  0  0  2  0  0  0  0  0  0
  -20.6820  -26.1280   22.0220 C   0  0  0  0  0  0  0  0  0  0  0  0
  -19.9680  -27.1240   22.7200 C   0  0  0  0  0  3  0  0  0  0  0  0
  -18.5670  -27.2140   22.6120 C   0  0  0  0  0  3  0  0  0  0  0  0
  -17.8640  -26.2980   21.8120 C   0  0  0  0  0  3  0  0  0  0  0  0
  -18.5630  -25.2980   21.1130 C   0  0  0  0  0  3  0  0  0  0  0  0
  -26.4290  -30.8550   24.6040 C   0  0  0  0  0  3  0  0  0  0  0  0
  -26.0110  -32.2330   24.8960 N   0  0  0  0  0  0  0  0  0  0  0  0
  -26.5030  -33.3220   24.2890 C   0  0  0  0  0  0  0  0  0  0  0  0
  -27.4190  -33.2730   23.4630 O   0  0  0  0  0  0  0  0  0  0  0  0
  -25.2230  -32.3450   25.5170 H   0  0  0  0  0  0  0  0  0  0  0  0
  -24.9050  -35.1190   23.5500 C   0  0  0  0  0  1  0  0  0  0  0  0
  -25.8780  -34.6820   24.6560 C   0  0  0  0  0  3  0  0  0  0  0  0
  -27.6910  -35.5280   26.0790 C   0  0  0  0  0  1  0  0  0  0  0  0
  -26.8800  -35.7470   24.8850 N   0  0  0  0  0  0  0  0  0  0  0  0
  -26.4290  -36.6540   24.9680 H   0  0  0  0  0  0  0  0  0  0  0  0
  -26.6970  -30.0600   25.9400 C   0  0  1  0  0  0  0  0  0  0  0  0
  -25.4180  -29.7820   26.7630 C   0  0  0  0  0  1  0  0  0  0  0  0
  -27.3710  -28.6990   25.6410 C   0  0  0  0  0  1  0  0  0  0  0  0
  -27.6820  -30.8500   26.8330 C   0  0  0  0  0  1  0  0  0  0  0  0
  2  6  2  0
  2  4  1  0
  3 48  1  0
  3  1  2  0
  4  5  2  0
  5  1  1  0
  5  8  1  0
  6  3  1  0
  7  8  1  0
  9 10  2  0
  9  4  1  0
 11 17  1  0
 11 10  1  0
 12 17  1  0
 13 14  1  0
 13 12  1  0
 15 14  1  0
 15 22  1  0
 15 16  1  0
 17 16  1  0
 18 11  2  0
 19 20  2  0
 20 39  1  0
 21 24  1  0
 21 20  1  0
 22 23  1  0
 22 19  1  0
 23 21  2  0
 24 25  1  0
 25 26  2  0
 27 30  1  0
 27 26  1  0
 28 27  2  0
 29 28  1  0
 29 24  2  0
 30 31  1  0
 31 36  2  0
 31 32  1  0
 32 33  2  0
 33 34  1  0
 34 38  1  0
 35 34  2  0
 36 35  1  0
 37 36  1  0
 39 40  1  0
 40 42  1  0
 40 43  1  0
 41 39  2  0
 44 19  1  0
 44 45  1  0
 46 44  1  0
 47 48  2  0
 49 50  1  0
 49  6  1  0
 50 51  1  0
 52 53  1  0
 52 51  1  0
 53 55  1  0
 54 65  2  0
 55 60  1  0
 56 66  1  0
 56 64  1  0
 57 63  1  0
 57 59  1  0
 58 64  1  0
 59 58  1  0
 60 59  2  0
 61 62  1  0
 61 55  2  0
 62 57  2  0
 63 56  1  0
 64 54  1  0
 66 68  2  0
 67 66  1  0
 69 67  1  0
 70 75  1  0
 71 67  1  0
 72 71  1  0
 73 74  1  0
 73 72  1  0
 74 70  1  0
 75 71  1  0
 75 76  2  0
 77 76  1  0
 78 77  2  0
 79 70  2  0
 79 78  1  0
 80 54  1  0
 80 81  1  0
 80 90  1  0
 81 84  1  0
 82 86  1  0
 82 81  1  0
 83 82  2  0
 86 85  1  0
 86 88  1  0
 88 89  1  0
 88 87  1  0
 90 91  1  1
 90 93  1  0
 92 90  1  0
M  ISO  4  10 100  11 100  52 101  53 101
M  END
>  <TORSDO>  (18) 
F 23

>  <SCORE>  (18) 
-7.691

>  <name>  (18) 
17

>  <ligand_id>  (18) 
17

>  <original_smiles>  (18) 
[H]C([H])=C([H])c1c([H])c(C([H])([H])C([H])([H])[H])c(C([H])=C([H])C(=O)N2C([H])([H])C([H])([H])C([H])([H])C([H])(n3nc(-c4c([H])c([H])c(Oc5c([H])c([H])c(F)c([H])c5F)c([H])c4[H])c(C(=O)N([H])[H])c3N([H])[H])C2([H])[H])c([H])c1OC([H])([H])C([H])([H])C([H])([H])Oc1c([H])c([H])c2c(c1[H])C([H])([H])N(C(=O)C([H])(N([H])C(=O)C([H])(N([H])C([H])([H])[H])C([H])([H])[H])C(C([H])([H])[H])(C([H])([H])[H])C([H])([H])[H])C([H])(C(=O)N([H])C1([H])c3c([H])c([H])c([H])c([H])c3C([H])([H])C([H])([H])C1([H])[H])C2([H])[H]

>  <smiles>  (18) 
[H]C([H])=C([H])c1c([H])c(C([H])([H])C([H])([H])[H])c(C([H])=C([H])C(=O)N2C([H])([H])C([H])([H])C([H])([H])C([H])(n3nc(-c4c([H])c([H])c(Oc5c([H])c([H])c(F)c([H])c5F)c([H])c4[H])c(C(=O)N([H])[H])c3N([H])[H])C2([H])[H])c([H])c1OC([H])([H])C([H])([H])C([H])([H])Oc1c([H])c([H])c2c(c1[H])C([H])([H])N(C(=O)C([H])(N([H])C(=O)C([H])(N([H])C([H])([H])[H])C([H])([H])[H])C(C([H])([H])[H])(C([H])([H])[H])C([H])([H])[H])C([H])(C(=O)N([H])C1([H])c3c([H])c([H])c([H])c([H])c3C([H])([H])C([H])([H])C1([H])[H])C2([H])[H]

$$$$
18:0:0
     RDKit          3D

 92101  0  0  1  0  0  0  0  0999 V2000
  -28.4220  -24.1140   18.2940 C   0  0  0  0  0  2  0  0  0  0  0  0
  -28.4450  -23.8040   19.5920 C   0  0  0  0  0  0  0  0  0  0  0  0
  -28.0190  -22.9500   17.4500 C   0  0  0  0  0  2  0  0  0  0  0  0
  -27.4910  -22.0030   18.5350 C   0  0  0  0  0  2  0  0  0  0  0  0
  -28.1780  -22.3810   19.7790 N   0  0  0  0  0  0  0  0  0  0  0  0
  -30.8750  -19.8360   20.7000 C   0  0  0  0  0  3  0  0  0  0  0  0
  -30.3700  -21.1830   20.4670 C   0  0  0  0  0  0  0  0  0  0  0  0
  -29.9770  -18.7830   20.6690 C   0  0  0  0  0  0  0  0  0  0  0  0
  -29.0160  -21.2540   20.2100 C   0  0  0  0  0  0  0  0  0  0  0  0
  -31.2730  -22.3800   20.4840 C   0  0  0  0  0  1  0  0  0  0  0  0
  -28.3960  -19.5470   20.3300 S   0  0  0  0  0  0  0  0  0  0  0  0
  -30.3560  -17.3010   21.1320 C   0  0  0  0  0  2  0  0  0  0  0  0
  -30.5980  -14.7960   20.3810 C   0  0  0  0  0  0  0  0  0  0  0  0
  -30.3990  -12.5190   19.3500 C   0  0  0  0  0  2  0  0  0  0  0  0
  -29.4550  -12.5590   18.1290 C   0  0  0  0  0  2  0  0  0  0  0  0
  -27.9910  -12.3690   18.5700 C   0  0  0  0  0  2  0  0  0  0  0  0
  -27.6080  -13.2710   19.7730 C   0  0  0  0  0  3  0  0  0  0  0  0
  -28.6710  -13.2140   20.8920 C   0  0  0  0  0  2  0  0  0  0  0  0
  -29.9550  -13.5800   20.2830 N   0  0  0  0  0  0  0  0  0  0  0  0
  -31.7990  -14.8670   20.1090 O   0  0  0  0  0  0  0  0  0  0  0  0
  -29.8530  -15.9530   20.6080 N   0  0  0  0  0  0  0  0  0  0  0  0
  -28.8570  -15.8100   20.6760 H   0  0  0  0  0  0  0  0  0  0  0  0
  -25.2200  -13.8530   20.4990 C   0  0  0  0  0  0  0  0  0  0  0  0
  -24.1580  -13.0760   20.8710 C   0  0  0  0  0  0  0  0  0  0  0  0
  -24.6310  -11.7270   20.8510 C   0  0  0  0  0  0  0  0  0  0  0  0
  -26.2690  -12.9790   20.2700 N   0  0  0  0  0  0  0  0  0  0  0  0
  -25.9220  -11.6960   20.5470 N   0  0  0  0  0  0  0  0  0  0  0  0
  -23.9120  -10.4610   21.0470 C   0  0  0  0  0  0  0  0  0  0  0  0
  -24.3490   -9.4990   21.9840 C   0  0  0  0  0  3  0  0  0  0  0  0
  -23.6290   -8.2990   22.1650 C   0  0  0  0  0  3  0  0  0  0  0  0
  -22.4580   -8.0520   21.4100 C   0  0  0  0  0  0  0  0  0  0  0  0
  -22.0400   -9.0020   20.4610 C   0  0  0  0  0  3  0  0  0  0  0  0
  -22.7610  -10.1940   20.2780 C   0  0  0  0  0  3  0  0  0  0  0  0
  -21.7080   -6.9040   21.5020 O   0  0  0  0  0  0  0  0  0  0  0  0
  -21.6660   -6.1640   22.6560 C   0  0  0  0  0  0  0  0  0  0  0  0
  -21.2300   -6.7150   23.8800 C   0  0  0  0  0  3  0  0  0  0  0  0
  -21.1360   -5.9000   25.0260 C   0  0  0  0  0  3  0  0  0  0  0  0
  -21.4670   -4.5340   24.9480 C   0  0  0  0  0  0  0  0  0  0  0  0
  -21.8950   -3.9820   23.7280 C   0  0  0  0  0  3  0  0  0  0  0  0
  -21.9910   -4.7940   22.5850 C   0  0  0  0  0  0  0  0  0  0  0  0
  -22.3840   -4.2510   21.4080 F   0  0  0  0  0  0  0  0  0  0  0  0
  -21.3690   -3.7490   26.0460 F   0  0  0  0  0  0  0  0  0  0  0  0
  -22.7570  -13.5460   21.1330 C   0  0  0  0  0  0  0  0  0  0  0  0
  -22.0280  -12.8500   21.9980 N   0  0  0  0  0  0  0  0  0  0  0  0
  -22.3170  -14.5660   20.6040 O   0  0  0  0  0  0  0  0  0  0  0  0
  -22.3960  -12.0220   22.4450 H   0  0  0  0  0  0  0  0  0  0  0  0
  -21.0890  -13.1490   22.2190 H   0  0  0  0  0  0  0  0  0  0  0  0
  -25.3760  -15.2240   20.3130 N   0  0  0  0  0  0  0  0  0  0  0  0
  -24.6040  -15.8730   20.4230 H   0  0  0  0  0  0  0  0  0  0  0  0
  -26.2140  -15.6660   19.9590 H   0  0  0  0  0  0  0  0  0  0  0  0
  -28.2850  -24.9790   20.6520 C   0  0  0  0  0  3  0  0  0  0  0  0
  -28.3600  -26.4160   20.1860 O   0  0  0  0  0  0  0  0  0  0  0  0
  -24.5960  -31.8640   23.2150 C   0  0  0  0  0  0  0  0  0  0  0  0
  -27.2320  -27.2690   20.1900 C   0  0  0  0  0  0  0  0  0  0  0  0
  -23.4050  -30.4620   21.5670 C   0  0  0  0  0  3  0  0  0  0  0  0
  -24.8680  -28.9020   20.1530 C   0  0  0  0  0  0  0  0  0  0  0  0
  -25.9460  -30.7780   21.3950 C   0  0  0  0  0  2  0  0  0  0  0  0
  -26.0350  -29.3930   20.7540 C   0  0  0  0  0  0  0  0  0  0  0  0
  -27.2210  -28.5900   20.7530 C   0  0  0  0  0  3  0  0  0  0  0  0
  -26.0430  -26.8350   19.5720 C   0  0  0  0  0  3  0  0  0  0  0  0
  -24.8780  -27.6320   19.5490 C   0  0  0  0  0  3  0  0  0  0  0  0
  -23.6300  -29.7800   20.1900 C   0  0  0  0  0  2  0  0  0  0  0  0
  -24.6680  -31.0550   22.1160 N   0  0  0  0  0  0  0  0  0  0  0  0
  -23.5080  -32.1360   23.7450 O   0  0  0  0  0  0  0  0  0  0  0  0
  -22.7360  -29.4480   22.5270 C   0  0  0  0  0  0  0  0  0  0  0  0
  -21.4110  -29.2720   22.3960 N   0  0  0  0  0  0  0  0  0  0  0  0
  -23.4120  -28.8220   23.3480 O   0  0  0  0  0  0  0  0  0  0  0  0
  -20.9250  -29.8280   21.7050 H   0  0  0  0  0  0  0  0  0  0  0  0
  -18.0330  -28.0700   22.8840 C   0  0  0  0  0  0  0  0  0  0  0  0
  -20.5900  -28.3310   23.1620 C   0  0  0  0  0  3  0  0  0  0  0  0
  -20.6960  -26.9020   22.5830 C   0  0  0  0  0  2  0  0  0  0  0  0
  -19.5970  -26.5820   21.5640 C   0  0  0  0  0  2  0  0  0  0  0  0
  -18.2130  -26.7240   22.2030 C   0  0  0  0  0  2  0  0  0  0  0  0
  -19.1500  -28.8320   23.3200 C   0  0  0  0  0  0  0  0  0  0  0  0
  -18.9280  -30.0920   23.9170 C   0  0  0  0  0  3  0  0  0  0  0  0
  -17.6210  -30.5910   24.0820 C   0  0  0  0  0  3  0  0  0  0  0  0
  -16.5200  -29.8260   23.6610 C   0  0  0  0  0  3  0  0  0  0  0  0
  -16.7250  -28.5680   23.0680 C   0  0  0  0  0  3  0  0  0  0  0  0
  -25.8720  -32.5000   23.8470 C   0  0  0  0  0  3  0  0  0  0  0  0
  -26.3810  -31.7300   25.1270 C   0  0  1  0  0  0  0  0  0  0  0  0
  -25.2810  -31.4920   26.1890 C   0  0  0  0  0  1  0  0  0  0  0  0
  -26.9660  -30.3530   24.7390 C   0  0  0  0  0  1  0  0  0  0  0  0
  -27.5280  -32.5250   25.7950 C   0  0  0  0  0  1  0  0  0  0  0  0
  -25.5560  -33.8980   24.1770 N   0  0  0  0  0  0  0  0  0  0  0  0
  -25.8910  -34.9540   23.4240 C   0  0  0  0  0  0  0  0  0  0  0  0
  -26.5650  -34.8540   22.3950 O   0  0  0  0  0  0  0  0  0  0  0  0
  -24.9580  -34.0500   24.9760 H   0  0  0  0  0  0  0  0  0  0  0  0
  -24.1650  -36.7480   23.0630 C   0  0  0  0  0  1  0  0  0  0  0  0
  -25.3990  -36.3410   23.8820 C   0  0  0  0  0  3  0  0  0  0  0  0
  -27.5280  -37.2240   24.7310 C   0  0  0  0  0  1  0  0  0  0  0  0
  -26.4310  -37.3960   23.7820 N   0  0  0  0  0  0  0  0  0  0  0  0
  -26.0240  -38.3150   23.9340 H   0  0  0  0  0  0  0  0  0  0  0  0
  1  2  1  0
  2  5  1  0
  2 51  2  0
  3  1  1  0
  3  4  1  0
  4  5  1  0
  5  9  1  0
  7 10  1  0
  7  6  1  0
  8  6  2  0
  8 12  1  0
  9 11  1  0
  9  7  2  0
 11  8  1  0
 13 21  1  0
 14 19  1  0
 15 16  1  0
 15 14  1  0
 17 16  1  0
 17 26  1  0
 17 18  1  0
 19 13  1  0
 19 18  1  0
 20 13  2  0
 21 22  1  0
 21 12  1  0
 23 24  2  0
 24 43  1  0
 25 24  1  0
 25 28  1  0
 26 23  1  0
 26 27  1  0
 27 25  2  0
 28 29  1  0
 29 30  2  0
 31 34  1  0
 31 30  1  0
 32 31  2  0
 33 32  1  0
 33 28  2  0
 34 35  1  0
 35 36  1  0
 36 37  2  0
 38 37  1  0
 38 42  1  0
 39 38  2  0
 40 35  2  0
 40 39  1  0
 41 40  1  0
 43 44  1  0
 44 47  1  0
 44 46  1  0
 45 43  2  0
 48 49  1  0
 48 23  1  0
 50 48  1  0
 52 54  1  0
 52 51  1  0
 53 64  2  0
 54 59  1  0
 55 63  1  0
 55 65  1  0
 56 62  1  0
 56 58  1  0
 57 63  1  0
 58 57  1  0
 59 58  2  0
 60 54  2  0
 61 60  1  0
 61 56  2  0
 62 55  1  0
 63 53  1  0
 65 67  2  0
 66 65  1  0
 68 66  1  0
 69 78  2  0
 69 74  1  0
 70 66  1  0
 70 74  1  0
 71 70  1  0
 72 73  1  0
 72 71  1  0
 73 69  1  0
 74 75  2  0
 75 76  1  0
 77 76  2  0
 78 77  1  0
 79 53  1  0
 79 84  1  0
 79 80  1  0
 80 83  1  1
 80 81  1  0
 82 80  1  0
 84 87  1  0
 85 89  1  0
 85 84  1  0
 86 85  2  0
 89 88  1  0
 91 89  1  0
 91 92  1  0
 91 90  1  0
M  ISO  4  13 100  21 100  51 101  52 101
M  END
>  <TORSDO>  (19) 
F 19

>  <SCORE>  (19) 
-14.273

>  <name>  (19) 
18

>  <ligand_id>  (19) 
18

>  <original_smiles>  (19) 
[H]C1=C(C([H])([H])Oc2c([H])c([H])c3c(c2[H])C([H])([H])N(C(=O)C([H])(N([H])C(=O)C([H])(N([H])C([H])([H])[H])C([H])([H])[H])C(C([H])([H])[H])(C([H])([H])[H])C([H])([H])[H])C([H])(C(=O)N([H])C2([H])c4c([H])c([H])c([H])c([H])c4C([H])([H])C([H])([H])C2([H])[H])C3([H])[H])N(c2sc(C([H])([H])N([H])C(=O)N3C([H])([H])C([H])([H])C([H])([H])C([H])(n4nc(-c5c([H])c([H])c(Oc6c([H])c([H])c(F)c([H])c6F)c([H])c5[H])c(C(=O)N([H])[H])c4N([H])[H])C3([H])[H])c([H])c2C([H])([H])[H])C([H])([H])C1([H])[H]

>  <smiles>  (19) 
[H]C1=C(C([H])([H])Oc2c([H])c([H])c3c(c2[H])C([H])([H])N(C(=O)C([H])(N([H])C(=O)C([H])(N([H])C([H])([H])[H])C([H])([H])[H])C(C([H])([H])[H])(C([H])([H])[H])C([H])([H])[H])C([H])(C(=O)N([H])C2([H])c4c([H])c([H])c([H])c([H])c4C([H])([H])C([H])([H])C2([H])[H])C3([H])[H])N(c2sc(C([H])([H])N([H])C(=O)N3C([H])([H])C([H])([H])C([H])([H])C([H])(n4nc(-c5c([H])c([H])c(Oc6c([H])c([H])c(F)c([H])c6F)c([H])c5[H])c(C(=O)N([H])[H])c4N([H])[H])C3([H])[H])c([H])c2C([H])([H])[H])C([H])([H])C1([H])[H]

$$$$
19:0:0
     RDKit          3D

 92100  0  0  1  0  0  0  0  0999 V2000
  -29.6450  -22.2850   19.0840 C   0  0  0  0  0  0  0  0  0  0  0  0
  -29.4520  -23.1440   18.1680 N   0  0  0  0  0  0  0  0  0  0  0  0
  -29.1390  -22.7350   17.3020 H   0  0  0  0  0  0  0  0  0  0  0  0
  -29.9700  -19.4920   19.3360 C   0  0  0  0  0  3  0  0  0  0  0  0
  -28.7020  -18.1950   17.6940 C   0  0  0  0  0  3  0  0  0  0  0  0
  -28.6460  -20.5920   17.5980 C   0  0  0  0  0  3  0  0  0  0  0  0
  -29.5910  -18.1780   18.7800 C   0  0  0  0  0  0  0  0  0  0  0  0
  -29.4690  -20.7450   18.7450 C   0  0  0  0  0  0  0  0  0  0  0  0
  -28.2900  -19.3610   17.0700 C   0  0  0  0  0  0  0  0  0  0  0  0
  -27.5570  -19.2930   15.9360 F   0  0  0  0  0  0  0  0  0  0  0  0
  -30.2290  -16.7730   18.7120 C   0  0  0  0  0  3  0  0  0  0  0  0
  -30.5900  -15.5340   19.2470 C   0  0  0  0  0  3  0  0  0  0  0  0
  -30.6820  -14.7490   20.5200 C   0  0  0  0  0  3  0  0  0  0  0  0
  -30.4650  -12.4710   19.6280 C   0  0  0  0  0  2  0  0  0  0  0  0
  -29.5480  -12.5990   18.3910 C   0  0  0  0  0  2  0  0  0  0  0  0
  -28.0520  -12.6020   18.7570 C   0  0  0  0  0  2  0  0  0  0  0  0
  -27.6780  -13.3740   20.0550 C   0  0  0  0  0  3  0  0  0  0  0  0
  -28.7310  -13.1870   21.1630 C   0  0  0  0  0  2  0  0  0  0  0  0
  -30.0530  -13.5190   20.5580 N   0  0  0  0  0  0  0  0  0  0  0  0
  -31.8220  -14.8250   20.9610 O   0  0  0  0  0  1  0  0  0  0  0  0
  -25.2300  -13.9080   20.5820 C   0  0  0  0  0  0  0  0  0  0  0  0
  -24.1500  -13.1190   20.8900 C   0  0  0  0  0  0  0  0  0  0  0  0
  -24.6330  -11.7810   20.9020 C   0  0  0  0  0  0  0  0  0  0  0  0
  -26.3140  -13.0440   20.4610 N   0  0  0  0  0  0  0  0  0  0  0  0
  -25.9470  -11.7560   20.6900 N   0  0  0  0  0  0  0  0  0  0  0  0
  -23.8990  -10.5130   21.0840 C   0  0  0  0  0  0  0  0  0  0  0  0
  -24.2840   -9.5470   22.0430 C   0  0  0  0  0  3  0  0  0  0  0  0
  -23.5560   -8.3500   22.1960 C   0  0  0  0  0  3  0  0  0  0  0  0
  -22.4170   -8.1050   21.3990 C   0  0  0  0  0  0  0  0  0  0  0  0
  -22.0440   -9.0560   20.4320 C   0  0  0  0  0  3  0  0  0  0  0  0
  -22.7760  -10.2450   20.2740 C   0  0  0  0  0  3  0  0  0  0  0  0
  -21.6410   -6.9680   21.4840 O   0  0  0  0  0  0  0  0  0  0  0  0
  -21.5670   -6.2370   22.6440 C   0  0  0  0  0  0  0  0  0  0  0  0
  -21.1320   -6.8000   23.8610 C   0  0  0  0  0  3  0  0  0  0  0  0
  -20.9950   -5.9880   25.0110 C   0  0  0  0  0  3  0  0  0  0  0  0
  -21.2830   -4.6080   24.9330 C   0  0  0  0  0  0  0  0  0  0  0  0
  -21.7140   -4.0490   23.7160 C   0  0  0  0  0  3  0  0  0  0  0  0
  -21.8510   -4.8600   22.5800 C   0  0  0  0  0  0  0  0  0  0  0  0
  -22.2390   -4.2980   21.4050 F   0  0  0  0  0  0  0  0  0  0  0  0
  -21.1490   -3.8290   26.0300 F   0  0  0  0  0  0  0  0  0  0  0  0
  -22.7370  -13.5810   21.0610 C   0  0  0  0  0  0  0  0  0  0  0  0
  -21.9600  -12.8850   21.8980 N   0  0  0  0  0  0  0  0  0  0  0  0
  -22.3290  -14.5970   20.5110 O   0  0  0  0  0  0  0  0  0  0  0  0
  -22.3000  -12.0930   22.4200 H   0  0  0  0  0  0  0  0  0  0  0  0
  -21.0060  -13.1810   22.0600 H   0  0  0  0  0  0  0  0  0  0  0  0
  -25.3580  -15.2750   20.3840 N   0  0  0  0  0  0  0  0  0  0  0  0
  -24.4570  -15.7490   20.3590 H   0  0  0  0  0  0  0  0  0  0  0  0
  -25.9880  -15.7450   21.0280 H   0  0  0  0  0  0  0  0  0  0  0  0
  -30.0200  -23.0390   20.3350 C   0  0  0  0  0  3  0  0  0  0  0  0
  -29.5060  -24.2570   20.7710 C   0  0  0  0  0  3  0  0  0  0  0  0
  -28.2780  -25.1260   20.2950 C   0  0  0  0  0  2  0  0  0  0  0  0
  -28.4170  -26.5900   20.1230 O   0  0  0  0  0  0  0  0  0  0  0  0
  -24.5560  -31.8730   23.1450 C   0  0  0  0  0  0  0  0  0  0  0  0
  -27.2480  -27.3830   20.0740 C   0  0  0  0  0  0  0  0  0  0  0  0
  -23.3520  -30.4550   21.5170 C   0  0  0  0  0  3  0  0  0  0  0  0
  -24.8130  -28.9190   20.0780 C   0  0  0  0  0  0  0  0  0  0  0  0
  -25.8750  -30.8230   21.2960 C   0  0  0  0  0  2  0  0  0  0  0  0
  -25.9800  -29.4490   20.6550 C   0  0  0  0  0  0  0  0  0  0  0  0
  -27.1960  -28.6990   20.6230 C   0  0  0  0  0  3  0  0  0  0  0  0
  -26.0560  -26.8960   19.4800 C   0  0  0  0  0  3  0  0  0  0  0  0
  -24.8560  -27.6430   19.4930 C   0  0  0  0  0  3  0  0  0  0  0  0
  -23.5650  -29.7780   20.1350 C   0  0  0  0  0  2  0  0  0  0  0  0
  -24.6120  -31.0670   22.0410 N   0  0  0  0  0  0  0  0  0  0  0  0
  -23.4770  -32.1330   23.6900 O   0  0  0  0  0  0  0  0  0  0  0  0
  -22.7000  -29.4400   22.4800 C   0  0  0  0  0  0  0  0  0  0  0  0
  -21.3720  -29.2710   22.3780 N   0  0  0  0  0  0  0  0  0  0  0  0
  -23.3920  -28.8030   23.2830 O   0  0  0  0  0  0  0  0  0  0  0  0
  -20.8700  -29.8370   21.7050 H   0  0  0  0  0  0  0  0  0  0  0  0
  -17.9940  -28.0910   22.9270 C   0  0  0  0  0  0  0  0  0  0  0  0
  -20.5610  -28.3350   23.1540 C   0  0  0  0  0  3  0  0  0  0  0  0
  -20.6440  -26.9050   22.5680 C   0  0  0  0  0  2  0  0  0  0  0  0
  -19.5220  -26.5950   21.5730 C   0  0  0  0  0  2  0  0  0  0  0  0
  -18.1540  -26.7440   22.2420 C   0  0  0  0  0  2  0  0  0  0  0  0
  -19.1260  -28.8430   23.3440 C   0  0  0  0  0  0  0  0  0  0  0  0
  -18.9240  -30.1060   23.9460 C   0  0  0  0  0  3  0  0  0  0  0  0
  -17.6250  -30.6110   24.1390 C   0  0  0  0  0  3  0  0  0  0  0  0
  -16.5090  -29.8540   23.7420 C   0  0  0  0  0  3  0  0  0  0  0  0
  -16.6960  -28.5980   23.1390 C   0  0  0  0  0  3  0  0  0  0  0  0
  -25.8400  -32.5120   23.7580 C   0  0  0  0  0  3  0  0  0  0  0  0
  -26.3890  -31.7220   25.0080 C   0  0  1  0  0  0  0  0  0  0  0  0
  -25.3210  -31.4480   26.0950 C   0  0  0  0  0  1  0  0  0  0  0  0
  -26.9800  -30.3610   24.5730 C   0  0  0  0  0  1  0  0  0  0  0  0
  -27.5440  -32.5160   25.6620 C   0  0  0  0  0  1  0  0  0  0  0  0
  -25.5150  -33.8980   24.1200 N   0  0  0  0  0  0  0  0  0  0  0  0
  -25.8280  -34.9700   23.3770 C   0  0  0  0  0  0  0  0  0  0  0  0
  -26.4900  -34.8970   22.3400 O   0  0  0  0  0  0  0  0  0  0  0  0
  -24.9330  -34.0290   24.9350 H   0  0  0  0  0  0  0  0  0  0  0  0
  -24.0810  -36.7520   23.0680 C   0  0  0  0  0  1  0  0  0  0  0  0
  -25.3280  -36.3420   23.8670 C   0  0  0  0  0  3  0  0  0  0  0  0
  -27.4620  -37.2260   24.7070 C   0  0  0  0  0  1  0  0  0  0  0  0
  -26.3510  -37.4090   23.7760 N   0  0  0  0  0  0  0  0  0  0  0  0
  -25.9370  -38.3190   23.9540 H   0  0  0  0  0  0  0  0  0  0  0  0
  1 49  1  0
  2  1  2  0
  3  2  1  0
  5  7  2  0
  6  8  1  0
  7  4  1  0
  8  1  1  0
  8  4  2  0
  9  6  2  0
  9  5  1  0
 10  9  1  0
 11  7  1  0
 11 12  2  0
 12 13  1  0
 13 19  1  0
 13 20  1  0
 14 19  1  0
 15 16  1  0
 15 14  1  0
 17 16  1  0
 17 24  1  0
 17 18  1  0
 19 18  1  0
 21 22  2  0
 22 23  1  0
 22 41  1  0
 23 26  1  0
 24 21  1  0
 24 25  1  0
 25 23  2  0
 26 27  1  0
 27 28  2  0
 29 32  1  0
 29 28  1  0
 30 29  2  0
 31 30  1  0
 31 26  2  0
 32 33  1  0
 33 34  1  0
 34 35  2  0
 36 35  1  0
 36 40  1  0
 37 36  2  0
 38 33  2  0
 38 37  1  0
 39 38  1  0
 41 42  1  0
 42 45  1  0
 42 44  1  0
 43 41  2  0
 46 21  1  0
 46 48  1  0
 47 46  1  0
 49 50  2  0
 51 50  1  0
 52 51  1  0
 53 64  2  0
 54 52  1  0
 54 59  1  0
 55 63  1  0
 55 65  1  0
 56 62  1  0
 56 58  1  0
 57 63  1  0
 58 57  1  0
 59 58  2  0
 60 61  1  0
 60 54  2  0
 61 56  2  0
 62 55  1  0
 63 53  1  0
 65 67  2  0
 66 65  1  0
 68 66  1  0
 69 78  2  0
 69 74  1  0
 70 66  1  0
 70 74  1  0
 71 70  1  0
 72 73  1  0
 72 71  1  0
 73 69  1  0
 74 75  2  0
 75 76  1  0
 77 76  2  0
 78 77  1  0
 79 53  1  0
 79 84  1  0
 79 80  1  0
 80 83  1  1
 80 81  1  0
 82 80  1  0
 84 87  1  0
 85 89  1  0
 85 84  1  0
 86 85  2  0
 89 88  1  0
 91 89  1  0
 91 92  1  0
 91 90  1  0
M  ISO  4  12 100  13 100  51 101  52 101
M  END
>  <TORSDO>  (20) 
F 20

>  <SCORE>  (20) 
-13.797

>  <name>  (20) 
19

>  <ligand_id>  (20) 
19

>  <original_smiles>  (20) 
[H]N=C(C([H])=C([H])C([H])([H])Oc1c([H])c([H])c2c(c1[H])C([H])([H])N(C(=O)C([H])(N([H])C(=O)C([H])(N([H])C([H])([H])[H])C([H])([H])[H])C(C([H])([H])[H])(C([H])([H])[H])C([H])([H])[H])C([H])(C(=O)N([H])C1([H])c3c([H])c([H])c([H])c([H])c3C([H])([H])C([H])([H])C1([H])[H])C2([H])[H])c1c([H])c(F)c([H])c(C([H])=C([H])C(=O)N2C([H])([H])C([H])([H])C([H])([H])C([H])(n3nc(-c4c([H])c([H])c(Oc5c([H])c([H])c(F)c([H])c5F)c([H])c4[H])c(C(=O)N([H])[H])c3N([H])[H])C2([H])[H])c1[H]

>  <smiles>  (20) 
[H]N=C(C([H])=C([H])C([H])([H])Oc1c([H])c([H])c2c(c1[H])C([H])([H])N(C(=O)C([H])(N([H])C(=O)C([H])(N([H])C([H])([H])[H])C([H])([H])[H])C(C([H])([H])[H])(C([H])([H])[H])C([H])([H])[H])C([H])(C(=O)N([H])C1([H])c3c([H])c([H])c([H])c([H])c3C([H])([H])C([H])([H])C1([H])[H])C2([H])[H])c1c([H])c(F)c([H])c(C([H])=C([H])C(=O)N2C([H])([H])C([H])([H])C([H])([H])C([H])(n3nc(-c4c([H])c([H])c(Oc5c([H])c([H])c(F)c([H])c5F)c([H])c4[H])c(C(=O)N([H])[H])c3N([H])[H])C2([H])[H])c1[H]

$$$$
20:0:0
     RDKit          3D

 95103  0  0  1  0  0  0  0  0999 V2000
  -29.1060  -20.7350   19.7180 C   0  0  0  0  0  3  0  0  0  0  0  0
  -29.3280  -21.8790   19.0350 C   0  0  0  0  0  3  0  0  0  0  0  0
  -29.7670  -18.3900   20.1130 C   0  0  0  0  0  3  0  0  0  0  0  0
  -31.9720  -17.7200   20.8750 C   0  0  0  0  0  3  0  0  0  0  0  0
  -30.1270  -19.7590   20.1830 C   0  0  0  0  0  0  0  0  0  0  0  0
  -32.3480  -19.0720   21.0020 C   0  0  0  0  0  0  0  0  0  0  0  0
  -31.4340  -20.1060   20.6460 C   0  0  0  0  0  0  0  0  0  0  0  0
  -30.6840  -17.3680   20.4370 C   0  0  0  0  0  0  0  0  0  0  0  0
  -31.8420  -21.5710   20.8040 C   0  0  0  0  0  1  0  0  0  0  0  0
  -31.0450  -14.9550   20.0240 C   0  0  0  0  0  0  0  0  0  0  0  0
  -30.8310  -12.6300   19.2220 C   0  0  0  0  0  2  0  0  0  0  0  0
  -29.8700  -12.5990   18.0160 C   0  0  0  0  0  2  0  0  0  0  0  0
  -28.4070  -12.4730   18.4870 C   0  0  0  0  0  2  0  0  0  0  0  0
  -28.0430  -13.4950   19.5980 C   0  0  0  0  0  3  0  0  0  0  0  0
  -29.1140  -13.4880   20.7140 C   0  0  0  0  0  2  0  0  0  0  0  0
  -30.4190  -13.7480   20.0840 N   0  0  0  0  0  0  0  0  0  0  0  0
  -32.1600  -15.1070   19.5180 O   0  0  0  0  0  0  0  0  0  0  0  0
  -30.2850  -16.0020   20.3950 N   0  0  0  0  0  0  0  0  0  0  0  0
  -29.3240  -15.7980   20.6210 H   0  0  0  0  0  0  0  0  0  0  0  0
  -25.7130  -14.1720   20.4620 C   0  0  0  0  0  0  0  0  0  0  0  0
  -24.6320  -13.4280   20.8490 C   0  0  0  0  0  0  0  0  0  0  0  0
  -25.0290  -12.0610   20.7260 C   0  0  0  0  0  0  0  0  0  0  0  0
  -26.7040  -13.2580   20.1320 N   0  0  0  0  0  0  0  0  0  0  0  0
  -26.2980  -11.9820   20.3470 N   0  0  0  0  0  0  0  0  0  0  0  0
  -24.2570  -10.8230   20.8910 C   0  0  0  0  0  0  0  0  0  0  0  0
  -24.6610   -9.8160   21.7960 C   0  0  0  0  0  3  0  0  0  0  0  0
  -23.8940   -8.6410   21.9490 C   0  0  0  0  0  3  0  0  0  0  0  0
  -22.7090   -8.4660   21.1960 C   0  0  0  0  0  0  0  0  0  0  0  0
  -22.3240   -9.4600   20.2780 C   0  0  0  0  0  3  0  0  0  0  0  0
  -23.0920  -10.6260   20.1240 C   0  0  0  0  0  3  0  0  0  0  0  0
  -21.9130   -7.3480   21.2600 O   0  0  0  0  0  0  0  0  0  0  0  0
  -21.7700   -6.6320   22.4210 C   0  0  0  0  0  0  0  0  0  0  0  0
  -21.2480   -7.2150   23.5970 C   0  0  0  0  0  3  0  0  0  0  0  0
  -21.0530   -6.4260   24.7470 C   0  0  0  0  0  3  0  0  0  0  0  0
  -21.3700   -5.0540   24.7230 C   0  0  0  0  0  0  0  0  0  0  0  0
  -21.8840   -4.4700   23.5520 C   0  0  0  0  0  3  0  0  0  0  0  0
  -22.0810   -5.2580   22.4040 C   0  0  0  0  0  0  0  0  0  0  0  0
  -22.5580   -4.6850   21.2710 F   0  0  0  0  0  0  0  0  0  0  0  0
  -21.1740   -4.2940   25.8250 F   0  0  0  0  0  0  0  0  0  0  0  0
  -23.2730  -13.9500   21.2190 C   0  0  0  0  0  0  0  0  0  0  0  0
  -22.5600  -13.2440   22.0900 N   0  0  0  0  0  0  0  0  0  0  0  0
  -22.8550  -15.0170   20.7720 O   0  0  0  0  0  0  0  0  0  0  0  0
  -22.9110  -12.3800   22.4760 H   0  0  0  0  0  0  0  0  0  0  0  0
  -21.6480  -13.5750   22.3740 H   0  0  0  0  0  0  0  0  0  0  0  0
  -25.9330  -15.5410   20.3440 N   0  0  0  0  0  0  0  0  0  0  0  0
  -25.2050  -16.2240   20.5210 H   0  0  0  0  0  0  0  0  0  0  0  0
  -26.7800  -15.9550   19.9760 H   0  0  0  0  0  0  0  0  0  0  0  0
  -34.6740  -20.0300   20.5480 C   0  0  0  0  0  1  0  0  0  0  0  0
  -33.7400  -19.3570   21.5610 C   0  0  0  0  0  2  0  0  0  0  0  0
  -28.3200  -22.9110   18.5310 C   0  0  0  0  0  2  0  0  0  0  0  0
  -27.1980  -24.5260   20.1470 C   0  0  0  0  0  3  0  0  0  0  0  0
  -27.2010  -23.3450   19.4860 C   0  0  0  0  0  0  0  0  0  0  0  0
  -26.0280  -22.3950   19.6330 C   0  0  0  0  0  1  0  0  0  0  0  0
  -28.2830  -25.6060   20.0840 C   0  0  0  0  0  2  0  0  0  0  0  0
  -28.1140  -27.0050   19.7450 O   0  0  0  0  0  0  0  0  0  0  0  0
  -24.6600  -32.0000   23.4830 C   0  0  0  0  0  0  0  0  0  0  0  0
  -26.9370  -27.7080   19.9250 C   0  0  0  0  0  0  0  0  0  0  0  0
  -23.3050  -30.7720   21.8110 C   0  0  0  0  0  3  0  0  0  0  0  0
  -24.6080  -29.2900   20.2010 C   0  0  0  0  0  0  0  0  0  0  0  0
  -25.8270  -31.0480   21.4960 C   0  0  0  0  0  2  0  0  0  0  0  0
  -25.8160  -29.7250   20.7560 C   0  0  0  0  0  0  0  0  0  0  0  0
  -26.9820  -28.9410   20.6180 C   0  0  0  0  0  3  0  0  0  0  0  0
  -25.7150  -27.2950   19.3540 C   0  0  0  0  0  3  0  0  0  0  0  0
  -24.5490  -28.0730   19.5000 C   0  0  0  0  0  3  0  0  0  0  0  0
  -23.4080  -30.1920   20.3760 C   0  0  0  0  0  2  0  0  0  0  0  0
  -24.6190  -31.2840   22.3210 N   0  0  0  0  0  0  0  0  0  0  0  0
  -23.6230  -32.2690   24.1050 O   0  0  0  0  0  0  0  0  0  0  0  0
  -22.6660  -29.7060   22.7290 C   0  0  0  0  0  0  0  0  0  0  0  0
  -21.3470  -29.5040   22.5830 N   0  0  0  0  0  0  0  0  0  0  0  0
  -23.3540  -29.0650   23.5290 O   0  0  0  0  0  0  0  0  0  0  0  0
  -20.8530  -30.0780   21.9140 H   0  0  0  0  0  0  0  0  0  0  0  0
  -18.0140  -28.1520   22.9300 C   0  0  0  0  0  0  0  0  0  0  0  0
  -20.5430  -28.5220   23.3100 C   0  0  0  0  0  3  0  0  0  0  0  0
  -20.7330  -27.1010   22.7290 C   0  0  0  0  0  2  0  0  0  0  0  0
  -19.6910  -26.7390   21.6670 C   0  0  0  0  0  2  0  0  0  0  0  0
  -18.2790  -26.8160   22.2540 C   0  0  0  0  0  2  0  0  0  0  0  0
  -19.0780  -28.9590   23.4110 C   0  0  0  0  0  0  0  0  0  0  0  0
  -18.7800  -30.2050   24.0020 C   0  0  0  0  0  3  0  0  0  0  0  0
  -17.4490  -30.6490   24.1130 C   0  0  0  0  0  3  0  0  0  0  0  0
  -16.3980  -29.8400   23.6480 C   0  0  0  0  0  3  0  0  0  0  0  0
  -16.6810  -28.5930   23.0640 C   0  0  0  0  0  3  0  0  0  0  0  0
  -26.0060  -32.5300   24.0700 C   0  0  0  0  0  3  0  0  0  0  0  0
  -25.8090  -33.9410   24.4270 N   0  0  0  0  0  0  0  0  0  0  0  0
  -26.1760  -34.9790   23.6650 C   0  0  0  0  0  0  0  0  0  0  0  0
  -26.7950  -34.8460   22.6040 O   0  0  0  0  0  0  0  0  0  0  0  0
  -25.2720  -34.1260   25.2630 H   0  0  0  0  0  0  0  0  0  0  0  0
  -24.5450  -36.8740   23.4140 C   0  0  0  0  0  1  0  0  0  0  0  0
  -25.8000  -36.3890   24.1580 C   0  0  0  0  0  3  0  0  0  0  0  0
  -28.0170  -37.1380   24.8950 C   0  0  0  0  0  1  0  0  0  0  0  0
  -26.8870  -37.3780   23.9990 N   0  0  0  0  0  0  0  0  0  0  0  0
  -26.5450  -38.3210   24.1650 H   0  0  0  0  0  0  0  0  0  0  0  0
  -26.5110  -31.7050   25.3170 C   0  0  1  0  0  0  0  0  0  0  0  0
  -25.4290  -31.4880   26.3990 C   0  0  0  0  0  1  0  0  0  0  0  0
  -27.0250  -30.3150   24.8770 C   0  0  0  0  0  1  0  0  0  0  0  0
  -27.7050  -32.4340   25.9790 C   0  0  0  0  0  1  0  0  0  0  0  0
  1  5  1  0
  2  1  2  0
  3  5  2  0
  3  8  1  0
  4  6  1  0
  5  7  1  0
  6 49  1  0
  7  9  1  0
  7  6  2  0
  8  4  2  0
 10 16  1  0
 10 18  1  0
 11 16  1  0
 12 13  1  0
 12 11  1  0
 14 13  1  0
 14 23  1  0
 14 15  1  0
 16 15  1  0
 17 10  2  0
 18  8  1  0
 18 19  1  0
 20 21  2  0
 21 40  1  0
 22 21  1  0
 22 25  1  0
 23 24  1  0
 23 20  1  0
 24 22  2  0
 25 26  1  0
 26 27  2  0
 28 31  1  0
 28 27  1  0
 29 28  2  0
 30 29  1  0
 30 25  2  0
 31 32  1  0
 32 33  1  0
 33 34  2  0
 35 34  1  0
 35 39  1  0
 36 35  2  0
 37 32  2  0
 37 36  1  0
 38 37  1  0
 40 41  1  0
 41 44  1  0
 41 43  1  0
 42 40  2  0
 45 20  1  0
 45 46  1  0
 47 45  1  0
 48 49  1  0
 50  2  1  0
 50 52  1  0
 52 53  1  0
 52 51  2  0
 54 51  1  0
 55 57  1  0
 55 54  1  0
 56 67  2  0
 57 62  1  0
 58 66  1  0
 58 68  1  0
 59 65  1  0
 59 61  1  0
 60 66  1  0
 61 60  1  0
 62 61  2  0
 63 64  1  0
 63 57  2  0
 64 59  2  0
 65 58  1  0
 66 56  1  0
 68 70  2  0
 69 68  1  0
 71 69  1  0
 72 81  2  0
 72 77  1  0
 73 69  1  0
 73 77  1  0
 74 73  1  0
 75 76  1  0
 75 74  1  0
 76 72  1  0
 77 78  2  0
 78 79  1  0
 80 79  2  0
 81 80  1  0
 82 56  1  0
 82 83  1  0
 82 92  1  0
 83 86  1  0
 84 88  1  0
 84 83  1  0
 85 84  2  0
 88 87  1  0
 90 88  1  0
 90 91  1  0
 90 89  1  0
 92 95  1  1
 92 93  1  0
 94 92  1  0
M  ISO  4  10 100  18 100  54 101  55 101
M  END
>  <TORSDO>  (21) 
F 21

>  <SCORE>  (21) 
-12.934

>  <name>  (21) 
20

>  <ligand_id>  (21) 
20

>  <original_smiles>  (21) 
[H]C(=C([H])C([H])([H])C(=C([H])C([H])([H])Oc1c([H])c([H])c2c(c1[H])C([H])([H])N(C(=O)C([H])(N([H])C(=O)C([H])(N([H])C([H])([H])[H])C([H])([H])[H])C(C([H])([H])[H])(C([H])([H])[H])C([H])([H])[H])C([H])(C(=O)N([H])C1([H])c3c([H])c([H])c([H])c([H])c3C([H])([H])C([H])([H])C1([H])[H])C2([H])[H])C([H])([H])[H])c1c([H])c(N([H])C(=O)N2C([H])([H])C([H])([H])C([H])([H])C([H])(n3nc(-c4c([H])c([H])c(Oc5c([H])c([H])c(F)c([H])c5F)c([H])c4[H])c(C(=O)N([H])[H])c3N([H])[H])C2([H])[H])c([H])c(C([H])([H])C([H])([H])[H])c1C([H])([H])[H]

>  <smiles>  (21) 
[H]C(=C([H])C([H])([H])C(=C([H])C([H])([H])Oc1c([H])c([H])c2c(c1[H])C([H])([H])N(C(=O)C([H])(N([H])C(=O)C([H])(N([H])C([H])([H])[H])C([H])([H])[H])C(C([H])([H])[H])(C([H])([H])[H])C([H])([H])[H])C([H])(C(=O)N([H])C1([H])c3c([H])c([H])c([H])c([H])c3C([H])([H])C([H])([H])C1([H])[H])C2([H])[H])C([H])([H])[H])c1c([H])c(N([H])C(=O)N2C([H])([H])C([H])([H])C([H])([H])C([H])(n3nc(-c4c([H])c([H])c(Oc5c([H])c([H])c(F)c([H])c5F)c([H])c4[H])c(C(=O)N([H])[H])c3N([H])[H])C2([H])[H])c([H])c(C([H])([H])C([H])([H])[H])c1C([H])([H])[H]

$$$$
21:0:0
     RDKit          3D

 95104  0  0  1  0  0  0  0  0999 V2000
  -30.6730  -22.3950   20.4560 C   0  0  0  0  0  0  0  0  0  0  0  0
  -31.4300  -23.7040   20.5510 C   0  0  0  0  0  2  0  0  0  0  0  0
  -31.0530  -24.4150   19.2510 C   0  0  0  0  0  2  0  0  0  0  0  0
  -29.7170  -23.7820   18.8290 C   0  0  0  0  0  3  0  0  0  0  0  0
  -29.8400  -22.3790   19.4010 N   0  0  0  0  0  0  0  0  0  0  0  0
  -30.8960  -21.4660   21.2350 O   0  0  0  0  0  0  0  0  0  0  0  0
  -29.5210  -21.1170   18.6280 C   0  0  0  0  0  2  0  0  0  0  0  0
  -31.0690  -18.9720   18.7320 C   0  0  0  0  0  3  0  0  0  0  0  0
  -31.3160  -17.6090   19.0800 C   0  0  0  0  0  3  0  0  0  0  0  0
  -28.9920  -18.9130   19.9390 C   0  0  0  0  0  3  0  0  0  0  0  0
  -29.2290  -17.5530   20.3110 C   0  0  0  0  0  0  0  0  0  0  0  0
  -29.8910  -19.6610   19.1360 C   0  0  0  0  0  0  0  0  0  0  0  0
  -30.3870  -16.8580   19.8540 C   0  0  0  0  0  0  0  0  0  0  0  0
  -31.1690  -14.3940   19.5380 C   0  0  0  0  0  0  0  0  0  0  0  0
  -30.7850  -12.1670   18.5120 C   0  0  0  0  0  2  0  0  0  0  0  0
  -29.7570  -12.3540   17.3750 C   0  0  0  0  0  2  0  0  0  0  0  0
  -28.3130  -12.2870   17.9130 C   0  0  0  0  0  2  0  0  0  0  0  0
  -28.1040  -13.1730   19.1670 C   0  0  0  0  0  3  0  0  0  0  0  0
  -29.2240  -12.9260   20.2040 C   0  0  0  0  0  2  0  0  0  0  0  0
  -30.5130  -13.1920   19.5390 N   0  0  0  0  0  0  0  0  0  0  0  0
  -32.2670  -14.5340   18.9910 O   0  0  0  0  0  0  0  0  0  0  0  0
  -30.4850  -15.4210   20.1120 N   0  0  0  0  0  0  0  0  0  0  0  0
  -29.7500  -15.0850   20.7160 H   0  0  0  0  0  0  0  0  0  0  0  0
  -25.7960  -13.9260   20.0100 C   0  0  0  0  0  0  0  0  0  0  0  0
  -24.7140  -13.2230   20.4660 C   0  0  0  0  0  0  0  0  0  0  0  0
  -25.1010  -11.8470   20.4490 C   0  0  0  0  0  0  0  0  0  0  0  0
  -26.7750  -12.9820   19.7420 N   0  0  0  0  0  0  0  0  0  0  0  0
  -26.3650  -11.7290   20.0630 N   0  0  0  0  0  0  0  0  0  0  0  0
  -24.3250  -10.6310   20.7250 C   0  0  0  0  0  0  0  0  0  0  0  0
  -24.6880   -9.7400   21.7580 C   0  0  0  0  0  3  0  0  0  0  0  0
  -23.9140   -8.5860   22.0130 C   0  0  0  0  0  3  0  0  0  0  0  0
  -22.7620   -8.3170   21.2350 C   0  0  0  0  0  0  0  0  0  0  0  0
  -22.4180   -9.1990   20.1940 C   0  0  0  0  0  3  0  0  0  0  0  0
  -23.1920  -10.3420   19.9380 C   0  0  0  0  0  3  0  0  0  0  0  0
  -21.9630   -7.2120   21.3990 O   0  0  0  0  0  0  0  0  0  0  0  0
  -21.7600   -6.6450   22.6330 C   0  0  0  0  0  0  0  0  0  0  0  0
  -21.2500   -7.3890   23.7170 C   0  0  0  0  0  3  0  0  0  0  0  0
  -20.9880   -6.7520   24.9460 C   0  0  0  0  0  3  0  0  0  0  0  0
  -21.2280   -5.3730   25.0900 C   0  0  0  0  0  0  0  0  0  0  0  0
  -21.7330   -4.6300   24.0100 C   0  0  0  0  0  3  0  0  0  0  0  0
  -21.9950   -5.2640   22.7830 C   0  0  0  0  0  0  0  0  0  0  0  0
  -22.4600   -4.5390   21.7380 F   0  0  0  0  0  0  0  0  0  0  0  0
  -20.9700   -4.7610   26.2690 F   0  0  0  0  0  0  0  0  0  0  0  0
  -23.3650  -13.7830   20.8140 C   0  0  0  0  0  0  0  0  0  0  0  0
  -22.6850  -13.1850   21.7860 N   0  0  0  0  0  0  0  0  0  0  0  0
  -22.9250  -14.7880   20.2560 O   0  0  0  0  0  0  0  0  0  0  0  0
  -23.0490  -12.3680   22.2540 H   0  0  0  0  0  0  0  0  0  0  0  0
  -21.7860  -13.5500   22.0680 H   0  0  0  0  0  0  0  0  0  0  0  0
  -26.0260  -15.2790   19.7780 N   0  0  0  0  0  0  0  0  0  0  0  0
  -25.3260  -15.9930   19.9380 H   0  0  0  0  0  0  0  0  0  0  0  0
  -26.8990  -15.6560   19.4340 H   0  0  0  0  0  0  0  0  0  0  0  0
  -26.8980  -16.9900   21.1040 C   0  0  0  0  0  2  0  0  0  0  0  0
  -28.2310  -16.8310   21.1350 C   0  0  0  0  0  3  0  0  0  0  0  0
  -28.5020  -24.7050   19.3430 C   0  0  0  0  0  2  0  0  0  0  0  0
  -28.6150  -26.1920   19.2540 O   0  0  0  0  0  0  0  0  0  0  0  0
  -24.6270  -31.1420   22.7560 C   0  0  0  0  0  0  0  0  0  0  0  0
  -27.4590  -26.9830   19.3260 C   0  0  0  0  0  0  0  0  0  0  0  0
  -23.5010  -29.8450   20.9850 C   0  0  0  0  0  3  0  0  0  0  0  0
  -25.0300  -28.4930   19.4430 C   0  0  0  0  0  0  0  0  0  0  0  0
  -26.0270  -30.2870   20.8580 C   0  0  0  0  0  2  0  0  0  0  0  0
  -26.1740  -28.9750   20.0930 C   0  0  0  0  0  0  0  0  0  0  0  0
  -27.3940  -28.2350   20.0190 C   0  0  0  0  0  3  0  0  0  0  0  0
  -26.2900  -26.5590   18.6590 C   0  0  0  0  0  3  0  0  0  0  0  0
  -25.0910  -27.2920   18.7190 C   0  0  0  0  0  3  0  0  0  0  0  0
  -23.7560  -29.3080   19.5540 C   0  0  0  0  0  2  0  0  0  0  0  0
  -24.7390  -30.4350   21.5930 N   0  0  0  0  0  0  0  0  0  0  0  0
  -23.5270  -31.3240   23.2970 O   0  0  0  0  0  0  0  0  0  0  0  0
  -22.8730  -28.7160   21.8410 C   0  0  0  0  0  0  0  0  0  0  0  0
  -21.5460  -28.5390   21.7300 N   0  0  0  0  0  0  0  0  0  0  0  0
  -23.5790  -28.0090   22.5660 O   0  0  0  0  0  0  0  0  0  0  0  0
  -21.0380  -29.1630   21.1190 H   0  0  0  0  0  0  0  0  0  0  0  0
  -18.1820  -27.3060   22.2330 C   0  0  0  0  0  0  0  0  0  0  0  0
  -20.7550  -27.5120   22.4090 C   0  0  0  0  0  3  0  0  0  0  0  0
  -20.8120  -26.1690   21.6420 C   0  0  0  0  0  2  0  0  0  0  0  0
  -19.6580  -25.9930   20.6520 C   0  0  0  0  0  2  0  0  0  0  0  0
  -18.3110  -26.0580   21.3750 C   0  0  0  0  0  2  0  0  0  0  0  0
  -19.3300  -27.9990   22.7040 C   0  0  0  0  0  0  0  0  0  0  0  0
  -19.1590  -29.1720   23.4680 C   0  0  0  0  0  3  0  0  0  0  0  0
  -17.8710  -29.6580   23.7620 C   0  0  0  0  0  3  0  0  0  0  0  0
  -16.7370  -28.9610   23.3090 C   0  0  0  0  0  3  0  0  0  0  0  0
  -16.8940  -27.7860   22.5510 C   0  0  0  0  0  3  0  0  0  0  0  0
  -25.8750  -31.7680   23.4490 C   0  0  0  0  0  3  0  0  0  0  0  0
  -26.4090  -30.9070   24.6600 C   0  0  1  0  0  0  0  0  0  0  0  0
  -25.3120  -30.5230   25.6840 C   0  0  0  0  0  1  0  0  0  0  0  0
  -27.0500  -29.5960   24.1470 C   0  0  0  0  0  1  0  0  0  0  0  0
  -27.5250  -31.6800   25.4030 C   0  0  0  0  0  1  0  0  0  0  0  0
  -25.5000  -33.1180   23.8970 N   0  0  0  0  0  0  0  0  0  0  0  0
  -25.8390  -34.2510   23.2660 C   0  0  0  0  0  0  0  0  0  0  0  0
  -26.5620  -34.2700   22.2660 O   0  0  0  0  0  0  0  0  0  0  0  0
  -24.8560  -33.1780   24.6720 H   0  0  0  0  0  0  0  0  0  0  0  0
  -24.0680  -36.0180   23.0040 C   0  0  0  0  0  1  0  0  0  0  0  0
  -25.2850  -35.5740   23.8310 C   0  0  0  0  0  3  0  0  0  0  0  0
  -27.3500  -36.4320   24.8410 C   0  0  0  0  0  1  0  0  0  0  0  0
  -26.2860  -36.6630   23.8680 N   0  0  0  0  0  0  0  0  0  0  0  0
  -25.8420  -37.5490   24.0930 H   0  0  0  0  0  0  0  0  0  0  0  0
  1  2  1  0
  1  6  2  0
  3  2  1  0
  4  3  1  0
  4 54  1  0
  4  5  1  0
  5  1  1  0
  7 12  1  0
  7  5  1  0
  8  9  2  0
  8 12  1  0
  9 13  1  0
 10 11  1  0
 11 53  1  0
 12 10  2  0
 13 22  1  0
 13 11  2  0
 14 20  1  0
 14 22  1  0
 15 20  1  0
 16 17  1  0
 16 15  1  0
 18 17  1  0
 18 27  1  0
 18 19  1  0
 20 19  1  0
 21 14  2  0
 22 23  1  0
 24 25  2  0
 25 44  1  0
 26 25  1  0
 26 29  1  0
 27 24  1  0
 27 28  1  0
 28 26  2  0
 29 30  1  0
 30 31  2  0
 32 35  1  0
 32 31  1  0
 33 32  2  0
 34 33  1  0
 34 29  2  0
 35 36  1  0
 36 41  2  0
 36 37  1  0
 37 38  2  0
 38 39  1  0
 39 43  1  0
 40 39  2  0
 41 40  1  0
 42 41  1  0
 44 45  1  0
 45 48  1  0
 45 47  1  0
 46 44  2  0
 49 50  1  0
 49 24  1  0
 51 49  1  0
 52 53  2  0
 55 57  1  0
 55 54  1  0
 56 67  2  0
 57 62  1  0
 58 66  1  0
 58 68  1  0
 59 65  1  0
 59 61  1  0
 60 66  1  0
 61 60  1  0
 62 61  2  0
 63 64  1  0
 63 57  2  0
 64 59  2  0
 65 58  1  0
 66 56  1  0
 68 70  2  0
 69 68  1  0
 71 69  1  0
 72 81  2  0
 72 77  1  0
 73 69  1  0
 73 77  1  0
 74 73  1  0
 75 76  1  0
 75 74  1  0
 76 72  1  0
 77 78  2  0
 78 79  1  0
 80 79  2  0
 81 80  1  0
 82 56  1  0
 82 87  1  0
 82 83  1  0
 83 86  1  1
 83 84  1  0
 85 83  1  0
 87 90  1  0
 88 92  1  0
 88 87  1  0
 89 88  2  0
 92 91  1  0
 92 94  1  0
 94 95  1  0
 94 93  1  0
M  ISO  4  14 100  22 100  54 101  55 101
M  END
>  <TORSDO>  (22) 
F 20

>  <SCORE>  (22) 
-9.429

>  <name>  (22) 
21

>  <ligand_id>  (22) 
21

>  <original_smiles>  (22) 
[H]C([H])=C([H])c1c([H])c(C([H])([H])N2C(=O)C([H])([H])C([H])([H])C2([H])C([H])([H])Oc2c([H])c([H])c3c(c2[H])C([H])([H])N(C(=O)C([H])(N([H])C(=O)C([H])(N([H])C([H])([H])[H])C([H])([H])[H])C(C([H])([H])[H])(C([H])([H])[H])C([H])([H])[H])C([H])(C(=O)N([H])C2([H])c4c([H])c([H])c([H])c([H])c4C([H])([H])C([H])([H])C2([H])[H])C3([H])[H])c([H])c([H])c1N([H])C(=O)N1C([H])([H])C([H])([H])C([H])([H])C([H])(n2nc(-c3c([H])c([H])c(Oc4c([H])c([H])c(F)c([H])c4F)c([H])c3[H])c(C(=O)N([H])[H])c2N([H])[H])C1([H])[H]

>  <smiles>  (22) 
[H]C([H])=C([H])c1c([H])c(C([H])([H])N2C(=O)C([H])([H])C([H])([H])C2([H])C([H])([H])Oc2c([H])c([H])c3c(c2[H])C([H])([H])N(C(=O)C([H])(N([H])C(=O)C([H])(N([H])C([H])([H])[H])C([H])([H])[H])C(C([H])([H])[H])(C([H])([H])[H])C([H])([H])[H])C([H])(C(=O)N([H])C2([H])c4c([H])c([H])c([H])c([H])c4C([H])([H])C([H])([H])C2([H])[H])C3([H])[H])c([H])c([H])c1N([H])C(=O)N1C([H])([H])C([H])([H])C([H])([H])C([H])(n2nc(-c3c([H])c([H])c(Oc4c([H])c([H])c(F)c([H])c4F)c([H])c3[H])c(C(=O)N([H])[H])c2N([H])[H])C1([H])[H]

$$$$
22:0:0
     RDKit          3D

 91 99  0  0  1  0  0  0  0  0999 V2000
  -29.9450  -19.5430   20.4020 C   0  0  0  0  0  3  0  0  0  0  0  0
  -29.2770  -18.2430   18.4630 C   0  0  0  0  0  3  0  0  0  0  0  0
  -29.8550  -18.2850   19.7450 C   0  0  0  0  0  0  0  0  0  0  0  0
  -29.5130  -20.7460   19.7670 C   0  0  0  0  0  0  0  0  0  0  0  0
  -28.9430  -19.4250   17.7730 C   0  0  0  0  0  0  0  0  0  0  0  0
  -29.0970  -20.6870   18.3990 C   0  0  0  0  0  0  0  0  0  0  0  0
  -28.5000  -19.2770   16.3250 C   0  0  0  0  0  1  0  0  0  0  0  0
  -28.9150  -21.9550   17.5490 C   0  0  0  0  0  1  0  0  0  0  0  0
  -30.4690  -17.0230   20.2330 C   0  0  0  0  0  3  0  0  0  0  0  0
  -29.8740  -15.8000   20.2790 C   0  0  0  0  0  3  0  0  0  0  0  0
  -30.6720  -14.5650   20.3910 C   0  0  0  0  0  0  0  0  0  0  0  0
  -30.3540  -12.3530   19.3720 C   0  0  0  0  0  2  0  0  0  0  0  0
  -29.4280  -12.5230   18.1480 C   0  0  0  0  0  2  0  0  0  0  0  0
  -27.9530  -12.3670   18.5690 C   0  0  0  0  0  2  0  0  0  0  0  0
  -27.5900  -13.2410   19.7990 C   0  0  0  0  0  3  0  0  0  0  0  0
  -28.6510  -13.1270   20.9220 C   0  0  0  0  0  2  0  0  0  0  0  0
  -29.9790  -13.3870   20.3500 N   0  0  0  0  0  0  0  0  0  0  0  0
  -31.8840  -14.5950   20.1790 O   0  0  0  0  0  0  0  0  0  0  0  0
  -25.2020  -13.8510   20.5280 C   0  0  0  0  0  0  0  0  0  0  0  0
  -24.1330  -13.0810   20.8980 C   0  0  0  0  0  0  0  0  0  0  0  0
  -24.5960  -11.7280   20.8720 C   0  0  0  0  0  0  0  0  0  0  0  0
  -26.2440  -12.9660   20.2930 N   0  0  0  0  0  0  0  0  0  0  0  0
  -25.8870  -11.6860   20.5630 N   0  0  0  0  0  0  0  0  0  0  0  0
  -23.8680  -10.4680   21.0570 C   0  0  0  0  0  0  0  0  0  0  0  0
  -24.2950   -9.4990   21.9900 C   0  0  0  0  0  3  0  0  0  0  0  0
  -23.5690   -8.3030   22.1620 C   0  0  0  0  0  3  0  0  0  0  0  0
  -22.4000   -8.0680   21.4040 C   0  0  0  0  0  0  0  0  0  0  0  0
  -21.9890   -9.0270   20.4610 C   0  0  0  0  0  3  0  0  0  0  0  0
  -22.7170  -10.2150   20.2870 C   0  0  0  0  0  3  0  0  0  0  0  0
  -21.6390   -6.9280   21.4920 O   0  0  0  0  0  0  0  0  0  0  0  0
  -21.5890   -6.1800   22.6410 C   0  0  0  0  0  0  0  0  0  0  0  0
  -21.1610   -6.7300   23.8670 C   0  0  0  0  0  3  0  0  0  0  0  0
  -21.0600   -5.9110   25.0090 C   0  0  0  0  0  3  0  0  0  0  0  0
  -21.3710   -4.5420   24.9250 C   0  0  0  0  0  0  0  0  0  0  0  0
  -21.7910   -3.9900   23.7010 C   0  0  0  0  0  3  0  0  0  0  0  0
  -21.8930   -4.8050   22.5610 C   0  0  0  0  0  0  0  0  0  0  0  0
  -22.2770   -4.2660   21.3810 F   0  0  0  0  0  0  0  0  0  0  0  0
  -21.2660   -3.7520   26.0200 F   0  0  0  0  0  0  0  0  0  0  0  0
  -22.7350  -13.5590   21.1650 C   0  0  0  0  0  0  0  0  0  0  0  0
  -22.0020  -12.8610   22.0230 N   0  0  0  0  0  0  0  0  0  0  0  0
  -22.3040  -14.5930   20.6530 O   0  0  0  0  0  0  0  0  0  0  0  0
  -22.3620  -12.0250   22.4620 H   0  0  0  0  0  0  0  0  0  0  0  0
  -21.0620  -13.1610   22.2450 H   0  0  0  0  0  0  0  0  0  0  0  0
  -25.3750  -15.2200   20.3430 N   0  0  0  0  0  0  0  0  0  0  0  0
  -24.6220  -15.8860   20.4620 H   0  0  0  0  0  0  0  0  0  0  0  0
  -26.2330  -15.6550   20.0320 H   0  0  0  0  0  0  0  0  0  0  0  0
  -29.5030  -22.0230   20.5350 C   0  0  0  0  0  3  0  0  0  0  0  0
  -28.5270  -22.9600   20.4280 C   0  0  0  0  0  3  0  0  0  0  0  0
  -28.4700  -24.3660   21.0210 C   0  0  0  0  0  2  0  0  0  0  0  0
  -28.6360  -25.4270   19.9000 C   0  0  0  0  0  2  0  0  0  0  0  0
  -28.4710  -26.7900   20.3120 O   0  0  0  0  0  0  0  0  0  0  0  0
  -24.5500  -31.8850   23.2350 C   0  0  0  0  0  0  0  0  0  0  0  0
  -27.2490  -27.4400   20.2390 C   0  0  0  0  0  0  0  0  0  0  0  0
  -23.3560  -30.4660   21.6010 C   0  0  0  0  0  3  0  0  0  0  0  0
  -24.8320  -28.9190   20.2020 C   0  0  0  0  0  0  0  0  0  0  0  0
  -25.8740  -30.8500   21.4020 C   0  0  0  0  0  2  0  0  0  0  0  0
  -25.9760  -29.4680   20.7850 C   0  0  0  0  0  0  0  0  0  0  0  0
  -27.1830  -28.7370   20.7940 C   0  0  0  0  0  3  0  0  0  0  0  0
  -26.0820  -26.8950   19.6530 C   0  0  0  0  0  3  0  0  0  0  0  0
  -24.8770  -27.6300   19.6370 C   0  0  0  0  0  3  0  0  0  0  0  0
  -23.5760  -29.7650   20.2320 C   0  0  0  0  0  2  0  0  0  0  0  0
  -24.6110  -31.0790   22.1390 N   0  0  0  0  0  0  0  0  0  0  0  0
  -23.4640  -32.1560   23.7680 O   0  0  0  0  0  0  0  0  0  0  0  0
  -22.7040  -29.4500   22.5670 C   0  0  0  0  0  0  0  0  0  0  0  0
  -21.3810  -29.2660   22.4320 N   0  0  0  0  0  0  0  0  0  0  0  0
  -23.3850  -28.8270   23.3850 O   0  0  0  0  0  0  0  0  0  0  0  0
  -20.8940  -29.8210   21.7430 H   0  0  0  0  0  0  0  0  0  0  0  0
  -18.0030  -28.0920   22.9330 C   0  0  0  0  0  0  0  0  0  0  0  0
  -20.5610  -28.3340   23.2040 C   0  0  0  0  0  3  0  0  0  0  0  0
  -20.6560  -26.9030   22.6250 C   0  0  0  0  0  2  0  0  0  0  0  0
  -19.5510  -26.5880   21.6120 C   0  0  0  0  0  2  0  0  0  0  0  0
  -18.1720  -26.7410   22.2580 C   0  0  0  0  0  2  0  0  0  0  0  0
  -19.1270  -28.8460   23.3640 C   0  0  0  0  0  0  0  0  0  0  0  0
  -18.9230  -30.1110   23.9540 C   0  0  0  0  0  3  0  0  0  0  0  0
  -17.6230  -30.6220   24.1290 C   0  0  0  0  0  3  0  0  0  0  0  0
  -16.5120  -29.8640   23.7200 C   0  0  0  0  0  3  0  0  0  0  0  0
  -16.7030  -28.6030   23.1230 C   0  0  0  0  0  3  0  0  0  0  0  0
  -25.8350  -32.5190   23.8590 C   0  0  0  0  0  3  0  0  0  0  0  0
  -26.3500  -31.7510   25.1410 C   0  0  1  0  0  0  0  0  0  0  0  0
  -25.2510  -31.5110   26.2040 C   0  0  0  0  0  1  0  0  0  0  0  0
  -26.9470  -30.3750   24.7570 C   0  0  0  0  0  1  0  0  0  0  0  0
  -27.4900  -32.5530   25.8100 C   0  0  0  0  0  1  0  0  0  0  0  0
  -25.5230  -33.9180   24.1800 N   0  0  0  0  0  0  0  0  0  0  0  0
  -25.8640  -34.9650   23.4200 C   0  0  0  0  0  0  0  0  0  0  0  0
  -26.5480  -34.8570   22.3960 O   0  0  0  0  0  0  0  0  0  0  0  0
  -24.9150  -34.0760   24.9730 H   0  0  0  0  0  0  0  0  0  0  0  0
  -24.1420  -36.7570   23.0310 C   0  0  0  0  0  1  0  0  0  0  0  0
  -25.3660  -36.3540   23.8650 C   0  0  0  0  0  3  0  0  0  0  0  0
  -27.4830  -37.2410   24.7340 C   0  0  0  0  0  1  0  0  0  0  0  0
  -26.3970  -37.4070   23.7710 N   0  0  0  0  0  0  0  0  0  0  0  0
  -25.9880  -38.3250   23.9130 H   0  0  0  0  0  0  0  0  0  0  0  0
  2  3  1  0
  3  9  1  0
  3  1  2  0
  4  1  1  0
  4 47  1  0
  5  6  1  0
  5  2  2  0
  6  4  2  0
  7  5  1  0
  8  6  1  0
  9 10  2  0
 10 11  1  0
 12 17  1  0
 13 14  1  0
 13 12  1  0
 15 14  1  0
 15 22  1  0
 15 16  1  0
 17 11  1  0
 17 16  1  0
 18 11  2  0
 19 20  2  0
 20 39  1  0
 21 20  1  0
 21 24  1  0
 22 19  1  0
 22 23  1  0
 23 21  2  0
 24 25  1  0
 25 26  2  0
 27 30  1  0
 27 26  1  0
 28 27  2  0
 29 28  1  0
 29 24  2  0
 30 31  1  0
 31 32  1  0
 32 33  2  0
 34 33  1  0
 34 38  1  0
 35 34  2  0
 36 31  2  0
 36 35  1  0
 37 36  1  0
 39 40  1  0
 40 43  1  0
 40 42  1  0
 41 39  2  0
 44 45  1  0
 44 19  1  0
 46 44  1  0
 48 47  2  0
 48 49  1  0
 50 51  1  0
 50 49  1  0
 52 63  2  0
 53 51  1  0
 53 58  1  0
 54 62  1  0
 54 64  1  0
 55 61  1  0
 55 57  1  0
 56 62  1  0
 57 58  2  0
 57 56  1  0
 59 53  2  0
 60 59  1  0
 60 55  2  0
 61 54  1  0
 62 52  1  0
 64 66  2  0
 65 64  1  0
 67 65  1  0
 68 77  2  0
 68 73  1  0
 69 65  1  0
 69 73  1  0
 70 69  1  0
 71 72  1  0
 71 70  1  0
 72 68  1  0
 73 74  2  0
 74 75  1  0
 76 75  2  0
 77 76  1  0
 78 52  1  0
 78 83  1  0
 78 79  1  0
 79 82  1  1
 79 80  1  0
 81 79  1  0
 83 86  1  0
 84 88  1  0
 84 83  1  0
 85 84  2  0
 88 87  1  0
 90 88  1  0
 90 91  1  0
 90 89  1  0
M  ISO  4  10 100  11 100  50 101  51 101
M  END
>  <TORSDO>  (23) 
F 20

>  <SCORE>  (23) 
-14.057

>  <name>  (23) 
22

>  <ligand_id>  (23) 
22

>  <original_smiles>  (23) 
[H]C(C(=O)N1C([H])([H])C([H])([H])C([H])([H])C([H])(n2nc(-c3c([H])c([H])c(Oc4c([H])c([H])c(F)c([H])c4F)c([H])c3[H])c(C(=O)N([H])[H])c2N([H])[H])C1([H])[H])=C([H])c1c([H])c(C([H])=C([H])C([H])([H])C([H])([H])Oc2c([H])c([H])c3c(c2[H])C([H])([H])N(C(=O)C([H])(N([H])C(=O)C([H])(N([H])C([H])([H])[H])C([H])([H])[H])C(C([H])([H])[H])(C([H])([H])[H])C([H])([H])[H])C([H])(C(=O)N([H])C2([H])c4c([H])c([H])c([H])c([H])c4C([H])([H])C([H])([H])C2([H])[H])C3([H])[H])c(C([H])([H])[H])c(C([H])([H])[H])c1[H]

>  <smiles>  (23) 
[H]C(C(=O)N1C([H])([H])C([H])([H])C([H])([H])C([H])(n2nc(-c3c([H])c([H])c(Oc4c([H])c([H])c(F)c([H])c4F)c([H])c3[H])c(C(=O)N([H])[H])c2N([H])[H])C1([H])[H])=C([H])c1c([H])c(C([H])=C([H])C([H])([H])C([H])([H])Oc2c([H])c([H])c3c(c2[H])C([H])([H])N(C(=O)C([H])(N([H])C(=O)C([H])(N([H])C([H])([H])[H])C([H])([H])[H])C(C([H])([H])[H])(C([H])([H])[H])C([H])([H])[H])C([H])(C(=O)N([H])C2([H])c4c([H])c([H])c([H])c([H])c4C([H])([H])C([H])([H])C2([H])[H])C3([H])[H])c(C([H])([H])[H])c(C([H])([H])[H])c1[H]

$$$$
23:0:0
     RDKit          3D

 94102  0  0  1  0  0  0  0  0999 V2000
  -31.0060  -18.4120   23.1310 C   0  0  0  0  0  3  0  0  0  0  0  0
  -30.2600  -18.2880   20.4480 C   0  0  0  0  0  3  0  0  0  0  0  0
  -30.8990  -19.6200   22.4010 C   0  0  0  0  0  0  0  0  0  0  0  0
  -30.7720  -17.1550   22.5420 C   0  0  0  0  0  0  0  0  0  0  0  0
  -30.4350  -17.0710   21.1710 C   0  0  0  0  0  0  0  0  0  0  0  0
  -30.4450  -19.5730   21.0500 C   0  0  0  0  0  0  0  0  0  0  0  0
  -30.8890  -15.9090   23.4020 C   0  0  0  0  0  1  0  0  0  0  0  0
  -30.8680  -14.8030   20.1150 C   0  0  0  0  0  0  0  0  0  0  0  0
  -30.6140  -12.6270   18.9350 C   0  0  0  0  0  2  0  0  0  0  0  0
  -29.6420  -12.8050   17.7510 C   0  0  0  0  0  2  0  0  0  0  0  0
  -28.1760  -12.6410   18.2050 C   0  0  0  0  0  2  0  0  0  0  0  0
  -27.8510  -13.4670   19.4770 C   0  0  0  0  0  3  0  0  0  0  0  0
  -28.9300  -13.2500   20.5610 C   0  0  0  0  0  2  0  0  0  0  0  0
  -30.2330  -13.6010   19.9710 N   0  0  0  0  0  0  0  0  0  0  0  0
  -31.9940  -15.0150   19.6570 O   0  0  0  0  0  0  0  0  0  0  0  0
  -30.0820  -15.7930   20.6140 N   0  0  0  0  0  0  0  0  0  0  0  0
  -29.1460  -15.4860   20.8260 H   0  0  0  0  0  0  0  0  0  0  0  0
  -25.4640  -14.0620   20.2340 C   0  0  0  0  0  0  0  0  0  0  0  0
  -24.4090  -13.2860   20.6320 C   0  0  0  0  0  0  0  0  0  0  0  0
  -24.8790  -11.9380   20.6020 C   0  0  0  0  0  0  0  0  0  0  0  0
  -26.5090  -13.1860   19.9840 N   0  0  0  0  0  0  0  0  0  0  0  0
  -26.1620  -11.9030   20.2630 N   0  0  0  0  0  0  0  0  0  0  0  0
  -24.1660  -10.6720   20.8170 C   0  0  0  0  0  0  0  0  0  0  0  0
  -24.5890   -9.7430   21.7950 C   0  0  0  0  0  3  0  0  0  0  0  0
  -23.8760   -8.5410   21.9950 C   0  0  0  0  0  3  0  0  0  0  0  0
  -22.7290   -8.2600   21.2180 C   0  0  0  0  0  0  0  0  0  0  0  0
  -22.3250   -9.1760   20.2320 C   0  0  0  0  0  3  0  0  0  0  0  0
  -23.0380  -10.3680   20.0300 C   0  0  0  0  0  3  0  0  0  0  0  0
  -21.9900   -7.1050   21.3270 O   0  0  0  0  0  0  0  0  0  0  0  0
  -21.8660   -6.4380   22.5190 C   0  0  0  0  0  0  0  0  0  0  0  0
  -21.3300   -7.0590   23.6680 C   0  0  0  0  0  3  0  0  0  0  0  0
  -21.1540   -6.3170   24.8540 C   0  0  0  0  0  3  0  0  0  0  0  0
  -21.5050   -4.9540   24.8910 C   0  0  0  0  0  0  0  0  0  0  0  0
  -22.0360   -4.3340   23.7470 C   0  0  0  0  0  3  0  0  0  0  0  0
  -22.2140   -5.0720   22.5640 C   0  0  0  0  0  0  0  0  0  0  0  0
  -22.7040   -4.4640   21.4570 F   0  0  0  0  0  0  0  0  0  0  0  0
  -21.3290   -4.2380   26.0270 F   0  0  0  0  0  0  0  0  0  0  0  0
  -23.0140  -13.7560   20.9280 C   0  0  0  0  0  0  0  0  0  0  0  0
  -22.3060  -13.0720   21.8200 N   0  0  0  0  0  0  0  0  0  0  0  0
  -22.5560  -14.7680   20.3990 O   0  0  0  0  0  0  0  0  0  0  0  0
  -22.6850  -12.2570   22.2770 H   0  0  0  0  0  0  0  0  0  0  0  0
  -21.3680  -13.3730   22.0480 H   0  0  0  0  0  0  0  0  0  0  0  0
  -25.6170  -15.4330   20.0410 N   0  0  0  0  0  0  0  0  0  0  0  0
  -24.8490  -16.0850   20.1580 H   0  0  0  0  0  0  0  0  0  0  0  0
  -26.4470  -15.8670   19.6550 H   0  0  0  0  0  0  0  0  0  0  0  0
  -31.2220  -21.1430   24.3840 C   0  0  0  0  0  2  0  0  0  0  0  0
  -31.3020  -20.8770   23.0670 C   0  0  0  0  0  3  0  0  0  0  0  0
  -30.2720  -20.7130   20.2570 O   0  0  0  0  0  0  0  0  0  0  0  0
  -29.4380  -21.8280   20.6870 C   0  0  0  0  0  2  0  0  0  0  0  0
  -29.8520  -23.1440   19.9450 C   0  0  0  0  0  2  0  0  0  0  0  0
  -29.2770  -24.4940   20.4640 C   0  0  0  0  0  0  0  0  0  0  0  0
  -29.4480  -24.8400   21.6380 O   0  0  0  0  0  0  0  0  0  0  0  0
  -28.5090  -25.4060   19.4670 C   0  0  0  0  0  2  0  0  0  0  0  0
  -28.5130  -26.8200   19.8350 O   0  0  0  0  0  0  0  0  0  0  0  0
  -24.5820  -31.7810   23.1540 C   0  0  0  0  0  0  0  0  0  0  0  0
  -27.3220  -27.5450   19.8220 C   0  0  0  0  0  0  0  0  0  0  0  0
  -23.3960  -30.4100   21.4710 C   0  0  0  0  0  3  0  0  0  0  0  0
  -24.8780  -29.0040   19.9380 C   0  0  0  0  0  0  0  0  0  0  0  0
  -25.9050  -30.8680   21.2440 C   0  0  0  0  0  2  0  0  0  0  0  0
  -26.0310  -29.5290   20.5360 C   0  0  0  0  0  0  0  0  0  0  0  0
  -27.2510  -28.8060   20.4770 C   0  0  0  0  0  3  0  0  0  0  0  0
  -26.1490  -27.0680   19.1870 C   0  0  0  0  0  3  0  0  0  0  0  0
  -24.9380  -27.7780   19.2580 C   0  0  0  0  0  3  0  0  0  0  0  0
  -23.6040  -29.8100   20.0540 C   0  0  0  0  0  2  0  0  0  0  0  0
  -24.6460  -31.0330   22.0160 N   0  0  0  0  0  0  0  0  0  0  0  0
  -23.5030  -31.9860   23.7270 O   0  0  0  0  0  0  0  0  0  0  0  0
  -22.8050  -29.3200   22.3960 C   0  0  0  0  0  0  0  0  0  0  0  0
  -21.4930  -29.0670   22.2620 N   0  0  0  0  0  0  0  0  0  0  0  0
  -23.5240  -28.7070   23.1890 O   0  0  0  0  0  0  0  0  0  0  0  0
  -20.9720  -29.6130   21.5920 H   0  0  0  0  0  0  0  0  0  0  0  0
  -18.2000  -27.6460   22.7000 C   0  0  0  0  0  0  0  0  0  0  0  0
  -20.7350  -28.0560   23.0000 C   0  0  0  0  0  3  0  0  0  0  0  0
  -20.9320  -26.6530   22.3800 C   0  0  0  0  0  2  0  0  0  0  0  0
  -19.8600  -26.2930   21.3480 C   0  0  0  0  0  2  0  0  0  0  0  0
  -18.4660  -26.3310   21.9840 C   0  0  0  0  0  2  0  0  0  0  0  0
  -19.2640  -28.4630   23.1630 C   0  0  0  0  0  0  0  0  0  0  0  0
  -18.9650  -29.6900   23.7920 C   0  0  0  0  0  3  0  0  0  0  0  0
  -17.6300  -30.1030   23.9610 C   0  0  0  0  0  3  0  0  0  0  0  0
  -16.5790  -29.2820   23.5180 C   0  0  0  0  0  3  0  0  0  0  0  0
  -16.8630  -28.0540   22.8940 C   0  0  0  0  0  3  0  0  0  0  0  0
  -25.8560  -32.4340   23.7760 C   0  0  0  0  0  3  0  0  0  0  0  0
  -25.5200  -33.8210   24.1220 N   0  0  0  0  0  0  0  0  0  0  0  0
  -25.8320  -34.8880   23.3730 C   0  0  0  0  0  0  0  0  0  0  0  0
  -26.5030  -34.8080   22.3410 O   0  0  0  0  0  0  0  0  0  0  0  0
  -24.9310  -33.9580   24.9290 H   0  0  0  0  0  0  0  0  0  0  0  0
  -24.0710  -36.6460   23.0270 C   0  0  0  0  0  1  0  0  0  0  0  0
  -25.3150  -36.2590   23.8420 C   0  0  0  0  0  3  0  0  0  0  0  0
  -27.4240  -37.1760   24.6990 C   0  0  0  0  0  1  0  0  0  0  0  0
  -26.3260  -37.3360   23.7500 N   0  0  0  0  0  0  0  0  0  0  0  0
  -25.9010  -38.2450   23.9110 H   0  0  0  0  0  0  0  0  0  0  0  0
  -26.3960  -31.6640   25.0430 C   0  0  1  0  0  0  0  0  0  0  0  0
  -25.3080  -31.3800   26.1050 C   0  0  0  0  0  1  0  0  0  0  0  0
  -27.0230  -30.3110   24.6340 C   0  0  0  0  0  1  0  0  0  0  0  0
  -27.5200  -32.4830   25.7180 C   0  0  0  0  0  1  0  0  0  0  0  0
  2  6  2  0
  2  5  1  0
  3 47  1  0
  3  1  2  0
  4  1  1  0
  4  7  1  0
  5  4  2  0
  6  3  1  0
  8 16  1  0
  9 14  1  0
 10 11  1  0
 10  9  1  0
 12 11  1  0
 12 21  1  0
 12 13  1  0
 14  8  1  0
 14 13  1  0
 15  8  2  0
 16 17  1  0
 16  5  1  0
 18 19  2  0
 19 38  1  0
 20 19  1  0
 20 23  1  0
 21 18  1  0
 21 22  1  0
 22 20  2  0
 23 24  1  0
 24 25  2  0
 26 29  1  0
 26 25  1  0
 27 26  2  0
 28 27  1  0
 28 23  2  0
 29 30  1  0
 30 35  2  0
 30 31  1  0
 31 32  2  0
 32 33  1  0
 33 37  1  0
 34 33  2  0
 35 34  1  0
 36 35  1  0
 38 39  1  0
 39 42  1  0
 39 41  1  0
 40 38  2  0
 43 44  1  0
 43 18  1  0
 45 43  1  0
 47 46  2  0
 48 49  1  0
 48  6  1  0
 50 51  1  0
 50 49  1  0
 51 52  2  0
 53 54  1  0
 53 51  1  0
 55 66  2  0
 56 54  1  0
 56 61  1  0
 57 65  1  0
 57 67  1  0
 58 64  1  0
 58 60  1  0
 59 65  1  0
 60 59  1  0
 61 60  2  0
 62 63  1  0
 62 56  2  0
 63 58  2  0
 64 57  1  0
 65 55  1  0
 67 69  2  0
 68 67  1  0
 70 68  1  0
 71 80  2  0
 71 76  1  0
 72 68  1  0
 72 76  1  0
 73 72  1  0
 74 75  1  0
 74 73  1  0
 75 71  1  0
 76 77  2  0
 77 78  1  0
 79 78  2  0
 80 79  1  0
 81 55  1  0
 81 82  1  0
 81 91  1  0
 82 85  1  0
 83 87  1  0
 83 82  1  0
 84 83  2  0
 87 86  1  0
 89 87  1  0
 89 90  1  0
 89 88  1  0
 91 94  1  1
 91 92  1  0
 93 91  1  0
M  ISO  4   8 100  16 100  53 101  54 101
M  END
>  <TORSDO>  (24) 
F 22

>  <SCORE>  (24) 
-10.756

>  <name>  (24) 
23

>  <ligand_id>  (24) 
23

>  <original_smiles>  (24) 
[H]C([H])=C([H])c1c([H])c(C([H])([H])[H])c(N([H])C(=O)N2C([H])([H])C([H])([H])C([H])([H])C([H])(n3nc(-c4c([H])c([H])c(Oc5c([H])c([H])c(F)c([H])c5F)c([H])c4[H])c(C(=O)N([H])[H])c3N([H])[H])C2([H])[H])c([H])c1OC([H])([H])C([H])([H])C(=O)C([H])([H])Oc1c([H])c([H])c2c(c1[H])C([H])([H])N(C(=O)C([H])(N([H])C(=O)C([H])(N([H])C([H])([H])[H])C([H])([H])[H])C(C([H])([H])[H])(C([H])([H])[H])C([H])([H])[H])C([H])(C(=O)N([H])C1([H])c3c([H])c([H])c([H])c([H])c3C([H])([H])C([H])([H])C1([H])[H])C2([H])[H]

>  <smiles>  (24) 
[H]C([H])=C([H])c1c([H])c(C([H])([H])[H])c(N([H])C(=O)N2C([H])([H])C([H])([H])C([H])([H])C([H])(n3nc(-c4c([H])c([H])c(Oc5c([H])c([H])c(F)c([H])c5F)c([H])c4[H])c(C(=O)N([H])[H])c3N([H])[H])C2([H])[H])c([H])c1OC([H])([H])C([H])([H])C(=O)C([H])([H])Oc1c([H])c([H])c2c(c1[H])C([H])([H])N(C(=O)C([H])(N([H])C(=O)C([H])(N([H])C([H])([H])[H])C([H])([H])[H])C(C([H])([H])[H])(C([H])([H])[H])C([H])([H])[H])C([H])(C(=O)N([H])C1([H])c3c([H])c([H])c([H])c([H])c3C([H])([H])C([H])([H])C1([H])[H])C2([H])[H]

$$$$
24:0:0
     RDKit          3D

 93101  0  0  1  0  0  0  0  0999 V2000
  -28.9500  -19.5830   20.1990 C   0  0  0  0  0  3  0  0  0  0  0  0
  -31.1740  -18.0670   20.9870 C   0  0  0  0  0  3  0  0  0  0  0  0
  -28.8990  -18.1560   20.2150 C   0  0  0  0  0  0  0  0  0  0  0  0
  -30.1060  -20.3090   20.5800 C   0  0  0  0  0  0  0  0  0  0  0  0
  -30.0000  -17.3440   20.6440 C   0  0  0  0  0  0  0  0  0  0  0  0
  -31.2230  -19.4980   20.9510 C   0  0  0  0  0  0  0  0  0  0  0  0
  -32.3850  -20.1050   21.2980 F   0  0  0  0  0  0  0  0  0  0  0  0
  -30.6630  -14.7990   20.5810 C   0  0  0  0  0  0  0  0  0  0  0  0
  -30.4710  -12.5410   19.5480 C   0  0  0  0  0  2  0  0  0  0  0  0
  -29.5480  -12.6440   18.3140 C   0  0  0  0  0  2  0  0  0  0  0  0
  -28.0740  -12.4600   18.7250 C   0  0  0  0  0  2  0  0  0  0  0  0
  -27.6740  -13.3420   19.9370 C   0  0  0  0  0  3  0  0  0  0  0  0
  -28.7190  -13.2400   21.0730 C   0  0  0  0  0  2  0  0  0  0  0  0
  -30.0370  -13.5770   20.5080 N   0  0  0  0  0  0  0  0  0  0  0  0
  -31.8520  -14.9240   20.2790 O   0  0  0  0  0  0  0  0  0  0  0  0
  -29.8400  -15.8820   20.7800 N   0  0  0  0  0  0  0  0  0  0  0  0
  -28.8890  -15.5920   20.9390 H   0  0  0  0  0  0  0  0  0  0  0  0
  -25.2530  -13.9120   20.6030 C   0  0  0  0  0  0  0  0  0  0  0  0
  -24.1910  -13.1320   20.9610 C   0  0  0  0  0  0  0  0  0  0  0  0
  -24.6690  -11.7890   20.9410 C   0  0  0  0  0  0  0  0  0  0  0  0
  -26.3180  -13.0470   20.3960 N   0  0  0  0  0  0  0  0  0  0  0  0
  -25.9680  -11.7620   20.6630 N   0  0  0  0  0  0  0  0  0  0  0  0
  -23.9470  -10.5230   21.1120 C   0  0  0  0  0  0  0  0  0  0  0  0
  -24.3680   -9.5550   22.0490 C   0  0  0  0  0  3  0  0  0  0  0  0
  -23.6430   -8.3550   22.2100 C   0  0  0  0  0  3  0  0  0  0  0  0
  -22.4830   -8.1180   21.4340 C   0  0  0  0  0  0  0  0  0  0  0  0
  -22.0810   -9.0760   20.4870 C   0  0  0  0  0  3  0  0  0  0  0  0
  -22.8070  -10.2670   20.3240 C   0  0  0  0  0  3  0  0  0  0  0  0
  -21.7330   -6.9670   21.5030 O   0  0  0  0  0  0  0  0  0  0  0  0
  -21.6670   -6.2190   22.6510 C   0  0  0  0  0  0  0  0  0  0  0  0
  -21.1880   -6.7600   23.8650 C   0  0  0  0  0  3  0  0  0  0  0  0
  -21.0710   -5.9380   25.0030 C   0  0  0  0  0  3  0  0  0  0  0  0
  -21.4240   -4.5780   24.9300 C   0  0  0  0  0  0  0  0  0  0  0  0
  -21.8970   -4.0370   23.7220 C   0  0  0  0  0  3  0  0  0  0  0  0
  -22.0160   -4.8550   22.5850 C   0  0  0  0  0  0  0  0  0  0  0  0
  -22.4530   -4.3260   21.4170 F   0  0  0  0  0  0  0  0  0  0  0  0
  -21.3040   -3.7860   26.0210 F   0  0  0  0  0  0  0  0  0  0  0  0
  -22.7850  -13.6020   21.1990 C   0  0  0  0  0  0  0  0  0  0  0  0
  -22.0430  -12.9100   22.0550 N   0  0  0  0  0  0  0  0  0  0  0  0
  -22.3540  -14.6250   20.6670 O   0  0  0  0  0  0  0  0  0  0  0  0
  -22.4080  -12.0870   22.5120 H   0  0  0  0  0  0  0  0  0  0  0  0
  -21.0990  -13.2070   22.2550 H   0  0  0  0  0  0  0  0  0  0  0  0
  -25.3720  -15.2770   20.4120 N   0  0  0  0  0  0  0  0  0  0  0  0
  -24.5590  -15.8850   20.4720 H   0  0  0  0  0  0  0  0  0  0  0  0
  -26.1570  -15.7140   19.9540 H   0  0  0  0  0  0  0  0  0  0  0  0
  -29.2980  -22.6480   20.3840 C   0  0  0  0  0  3  0  0  0  0  0  0
  -30.2240  -21.7500   20.5970 N   0  0  0  0  0  0  0  0  0  0  0  0
  -29.4420  -24.2150   20.4110 C   0  0  0  0  0  0  0  0  0  0  0  0
  -30.5350  -24.7480   20.6480 O   0  0  0  0  0  0  0  0  0  0  0  0
  -28.2010  -25.1410   20.1050 C   0  0  0  0  0  2  0  0  0  0  0  0
  -28.3840  -26.5950   20.3440 O   0  0  0  0  0  0  0  0  0  0  0  0
  -24.5890  -31.9730   23.3220 C   0  0  0  0  0  0  0  0  0  0  0  0
  -27.2450  -27.4190   20.2990 C   0  0  0  0  0  0  0  0  0  0  0  0
  -23.4000  -30.5680   21.6750 C   0  0  0  0  0  3  0  0  0  0  0  0
  -24.8670  -29.0130   20.2700 C   0  0  0  0  0  0  0  0  0  0  0  0
  -25.9400  -30.8910   21.5140 C   0  0  0  0  0  2  0  0  0  0  0  0
  -26.0280  -29.5100   20.8730 C   0  0  0  0  0  0  0  0  0  0  0  0
  -27.2200  -28.7250   20.8800 C   0  0  0  0  0  3  0  0  0  0  0  0
  -26.0540  -26.9690   19.6810 C   0  0  0  0  0  3  0  0  0  0  0  0
  -24.8800  -27.7470   19.6670 C   0  0  0  0  0  3  0  0  0  0  0  0
  -23.6280  -29.8840   20.3000 C   0  0  0  0  0  2  0  0  0  0  0  0
  -24.6610  -31.1610   22.2270 N   0  0  0  0  0  0  0  0  0  0  0  0
  -23.5010  -32.2520   23.8460 O   0  0  0  0  0  0  0  0  0  0  0  0
  -22.7290  -29.5550   22.6340 C   0  0  0  0  0  0  0  0  0  0  0  0
  -21.4060  -29.3700   22.4880 N   0  0  0  0  0  0  0  0  0  0  0  0
  -23.3990  -28.9370   23.4650 O   0  0  0  0  0  0  0  0  0  0  0  0
  -20.9260  -29.9230   21.7920 H   0  0  0  0  0  0  0  0  0  0  0  0
  -18.0240  -28.1800   22.9600 C   0  0  0  0  0  0  0  0  0  0  0  0
  -20.5800  -28.4350   23.2530 C   0  0  0  0  0  3  0  0  0  0  0  0
  -20.6840  -27.0020   22.6810 C   0  0  0  0  0  2  0  0  0  0  0  0
  -19.5900  -26.6800   21.6590 C   0  0  0  0  0  2  0  0  0  0  0  0
  -18.2020  -26.8290   22.2900 C   0  0  0  0  0  2  0  0  0  0  0  0
  -19.1390  -28.9420   23.3990 C   0  0  0  0  0  0  0  0  0  0  0  0
  -18.9170  -30.2060   23.9870 C   0  0  0  0  0  3  0  0  0  0  0  0
  -17.6120  -30.7090   24.1400 C   0  0  0  0  0  3  0  0  0  0  0  0
  -16.5100  -29.9450   23.7160 C   0  0  0  0  0  3  0  0  0  0  0  0
  -16.7160  -28.6820   23.1340 C   0  0  0  0  0  3  0  0  0  0  0  0
  -25.8650  -32.6070   23.9540 C   0  0  0  0  0  3  0  0  0  0  0  0
  -26.3650  -31.8430   25.2430 C   0  0  1  0  0  0  0  0  0  0  0  0
  -25.2560  -31.6140   26.2960 C   0  0  0  0  0  1  0  0  0  0  0  0
  -26.9570  -30.4640   24.8700 C   0  0  0  0  0  1  0  0  0  0  0  0
  -27.5030  -32.6460   25.9150 C   0  0  0  0  0  1  0  0  0  0  0  0
  -25.5540  -34.0070   24.2710 N   0  0  0  0  0  0  0  0  0  0  0  0
  -25.8960  -35.0560   23.5090 C   0  0  0  0  0  0  0  0  0  0  0  0
  -26.5760  -34.9410   22.4850 O   0  0  0  0  0  0  0  0  0  0  0  0
  -24.9520  -34.1670   25.0650 H   0  0  0  0  0  0  0  0  0  0  0  0
  -24.1860  -36.8560   23.1160 C   0  0  0  0  0  1  0  0  0  0  0  0
  -25.4090  -36.4470   23.9520 C   0  0  0  0  0  3  0  0  0  0  0  0
  -27.5280  -37.3330   24.8220 C   0  0  0  0  0  1  0  0  0  0  0  0
  -26.4500  -37.4920   23.8490 N   0  0  0  0  0  0  0  0  0  0  0  0
  -26.0480  -38.4180   23.9680 H   0  0  0  0  0  0  0  0  0  0  0  0
  -27.6510  -17.1910   18.2270 C   0  0  0  0  0  1  0  0  0  0  0  0
  -27.6150  -17.5170   19.7310 C   0  0  0  0  0  2  0  0  0  0  0  0
  1  3  2  0
  1  4  1  0
  3  5  1  0
  4 47  1  0
  4  6  2  0
  5 16  1  0
  5  2  2  0
  6  2  1  0
  6  7  1  0
  8 16  1  0
  9 14  1  0
 10 11  1  0
 10  9  1  0
 12 11  1  0
 12 21  1  0
 12 13  1  0
 14  8  1  0
 14 13  1  0
 15  8  2  0
 16 17  1  0
 18 19  2  0
 19 38  1  0
 20 19  1  0
 20 23  1  0
 21 18  1  0
 21 22  1  0
 22 20  2  0
 23 24  1  0
 24 25  2  0
 26 29  1  0
 26 25  1  0
 27 26  2  0
 28 27  1  0
 28 23  2  0
 29 30  1  0
 30 31  1  0
 31 32  2  0
 33 32  1  0
 33 37  1  0
 34 33  2  0
 35 30  2  0
 35 34  1  0
 36 35  1  0
 38 39  1  0
 39 42  1  0
 39 41  1  0
 40 38  2  0
 43 44  1  0
 43 18  1  0
 45 43  1  0
 46 48  1  0
 46 47  2  0
 48 49  2  0
 50 51  1  0
 50 48  1  0
 52 63  2  0
 53 51  1  0
 53 58  1  0
 54 62  1  0
 54 64  1  0
 55 61  1  0
 55 57  1  0
 56 62  1  0
 57 58  2  0
 57 56  1  0
 59 53  2  0
 60 59  1  0
 60 55  2  0
 61 54  1  0
 62 52  1  0
 64 66  2  0
 65 64  1  0
 67 65  1  0
 68 77  2  0
 68 73  1  0
 69 65  1  0
 69 73  1  0
 70 69  1  0
 71 72  1  0
 71 70  1  0
 72 68  1  0
 73 74  2  0
 74 75  1  0
 76 75  2  0
 77 76  1  0
 78 52  1  0
 78 83  1  0
 78 79  1  0
 79 82  1  1
 79 80  1  0
 81 79  1  0
 83 86  1  0
 84 88  1  0
 84 83  1  0
 85 84  2  0
 88 87  1  0
 90 88  1  0
 90 91  1  0
 90 89  1  0
 92 93  1  0
 93  3  1  0
M  ISO  4   8 100  16 100  50 101  51 101
M  END
>  <TORSDO>  (25) 
F 20

>  <SCORE>  (25) 
-13.978

>  <name>  (25) 
24

>  <ligand_id>  (25) 
24

>  <original_smiles>  (25) 
[H]C(=Nc1c([H])c(C([H])([H])C([H])([H])[H])c(N([H])C(=O)N2C([H])([H])C([H])([H])C([H])([H])C([H])(n3nc(-c4c([H])c([H])c(Oc5c([H])c([H])c(F)c([H])c5F)c([H])c4[H])c(C(=O)N([H])[H])c3N([H])[H])C2([H])[H])c([H])c1F)C(=O)C([H])([H])Oc1c([H])c([H])c2c(c1[H])C([H])([H])N(C(=O)C([H])(N([H])C(=O)C([H])(N([H])C([H])([H])[H])C([H])([H])[H])C(C([H])([H])[H])(C([H])([H])[H])C([H])([H])[H])C([H])(C(=O)N([H])C1([H])c3c([H])c([H])c([H])c([H])c3C([H])([H])C([H])([H])C1([H])[H])C2([H])[H]

>  <smiles>  (25) 
[H]C(=Nc1c([H])c(C([H])([H])C([H])([H])[H])c(N([H])C(=O)N2C([H])([H])C([H])([H])C([H])([H])C([H])(n3nc(-c4c([H])c([H])c(Oc5c([H])c([H])c(F)c([H])c5F)c([H])c4[H])c(C(=O)N([H])[H])c3N([H])[H])C2([H])[H])c([H])c1F)C(=O)C([H])([H])Oc1c([H])c([H])c2c(c1[H])C([H])([H])N(C(=O)C([H])(N([H])C(=O)C([H])(N([H])C([H])([H])[H])C([H])([H])[H])C(C([H])([H])[H])(C([H])([H])[H])C([H])([H])[H])C([H])(C(=O)N([H])C1([H])c3c([H])c([H])c([H])c([H])c3C([H])([H])C([H])([H])C1([H])[H])C2([H])[H]

$$$$
25:0:0
     RDKit          3D

 91 99  0  0  1  0  0  0  0  0999 V2000
  -30.6030  -19.5960   20.8790 C   0  0  0  0  0  3  0  0  0  0  0  0
  -28.3040  -20.3700   19.5680 C   0  0  0  0  0  3  0  0  0  0  0  0
  -30.3280  -20.9910   20.7160 C   0  0  0  0  0  0  0  0  0  0  0  0
  -29.7950  -18.5530   20.3540 C   0  0  0  0  0  0  0  0  0  0  0  0
  -29.1630  -21.4110   20.0060 C   0  0  0  0  0  0  0  0  0  0  0  0
  -28.5900  -18.9820   19.7250 C   0  0  0  0  0  0  0  0  0  0  0  0
  -27.5980  -17.9970   19.1360 C   0  0  0  0  0  1  0  0  0  0  0  0
  -32.0740  -21.7520   22.3380 C   0  0  0  0  0  2  0  0  0  0  0  0
  -31.2860  -21.9640   21.2690 C   0  0  0  0  0  3  0  0  0  0  0  0
  -30.3360  -17.1310   20.4470 C   0  0  0  0  0  3  0  0  0  0  0  0
  -29.7600  -15.8850   20.4860 C   0  0  0  0  0  3  0  0  0  0  0  0
  -30.5790  -14.6370   20.3860 C   0  0  0  0  0  0  0  0  0  0  0  0
  -30.3320  -12.3860   19.3860 C   0  0  0  0  0  2  0  0  0  0  0  0
  -29.4100  -12.5050   18.1520 C   0  0  0  0  0  2  0  0  0  0  0  0
  -27.9330  -12.3510   18.5640 C   0  0  0  0  0  2  0  0  0  0  0  0
  -27.5570  -13.2370   19.7800 C   0  0  0  0  0  3  0  0  0  0  0  0
  -28.6020  -13.1330   20.9100 C   0  0  0  0  0  2  0  0  0  0  0  0
  -29.9210  -13.4350   20.3420 N   0  0  0  0  0  0  0  0  0  0  0  0
  -31.7810  -14.6830   20.1090 O   0  0  0  0  0  0  0  0  0  0  0  0
  -25.1650  -13.8430   20.4870 C   0  0  0  0  0  0  0  0  0  0  0  0
  -24.0960  -13.0730   20.8550 C   0  0  0  0  0  0  0  0  0  0  0  0
  -24.5590  -11.7220   20.8400 C   0  0  0  0  0  0  0  0  0  0  0  0
  -26.2090  -12.9590   20.2640 N   0  0  0  0  0  0  0  0  0  0  0  0
  -25.8510  -11.6800   20.5420 N   0  0  0  0  0  0  0  0  0  0  0  0
  -23.8310  -10.4620   21.0330 C   0  0  0  0  0  0  0  0  0  0  0  0
  -24.2590   -9.4960   21.9710 C   0  0  0  0  0  3  0  0  0  0  0  0
  -23.5310   -8.3000   22.1510 C   0  0  0  0  0  3  0  0  0  0  0  0
  -22.3610   -8.0620   21.3920 C   0  0  0  0  0  0  0  0  0  0  0  0
  -21.9520   -9.0150   20.4430 C   0  0  0  0  0  3  0  0  0  0  0  0
  -22.6800  -10.2020   20.2600 C   0  0  0  0  0  3  0  0  0  0  0  0
  -21.6040   -6.9190   21.4800 O   0  0  0  0  0  0  0  0  0  0  0  0
  -21.5550   -6.1760   22.6330 C   0  0  0  0  0  0  0  0  0  0  0  0
  -21.1390   -6.7330   23.8620 C   0  0  0  0  0  3  0  0  0  0  0  0
  -21.0380   -5.9160   25.0060 C   0  0  0  0  0  3  0  0  0  0  0  0
  -21.3440   -4.5440   24.9220 C   0  0  0  0  0  0  0  0  0  0  0  0
  -21.7530   -3.9870   23.6980 C   0  0  0  0  0  3  0  0  0  0  0  0
  -21.8560   -4.8010   22.5570 C   0  0  0  0  0  0  0  0  0  0  0  0
  -22.2310   -4.2550   21.3750 F   0  0  0  0  0  0  0  0  0  0  0  0
  -21.2390   -3.7580   26.0200 F   0  0  0  0  0  0  0  0  0  0  0  0
  -22.6970  -13.5540   21.1080 C   0  0  0  0  0  0  0  0  0  0  0  0
  -21.9590  -12.8640   21.9730 N   0  0  0  0  0  0  0  0  0  0  0  0
  -22.2660  -14.5770   20.5780 O   0  0  0  0  0  0  0  0  0  0  0  0
  -22.3190  -12.0360   22.4230 H   0  0  0  0  0  0  0  0  0  0  0  0
  -21.0220  -13.1710   22.1910 H   0  0  0  0  0  0  0  0  0  0  0  0
  -25.3340  -15.2100   20.2990 N   0  0  0  0  0  0  0  0  0  0  0  0
  -24.5700  -15.8700   20.4000 H   0  0  0  0  0  0  0  0  0  0  0  0
  -26.1920  -15.6420   19.9800 H   0  0  0  0  0  0  0  0  0  0  0  0
  -28.7780  -22.8320   19.6180 C   0  0  0  0  0  3  0  0  0  0  0  0
  -29.0070  -24.0700   20.1520 C   0  0  0  0  0  3  0  0  0  0  0  0
  -28.6270  -25.4070   19.4440 C   0  0  0  0  0  2  0  0  0  0  0  0
  -28.3940  -26.5840   20.2790 O   0  0  0  0  0  0  0  0  0  0  0  0
  -24.5980  -31.8780   23.2590 C   0  0  0  0  0  0  0  0  0  0  0  0
  -27.2280  -27.3540   20.2010 C   0  0  0  0  0  0  0  0  0  0  0  0
  -23.3890  -30.4740   21.6210 C   0  0  0  0  0  3  0  0  0  0  0  0
  -24.8390  -28.9220   20.2000 C   0  0  0  0  0  0  0  0  0  0  0  0
  -25.9220  -30.8080   21.4270 C   0  0  0  0  0  2  0  0  0  0  0  0
  -26.0030  -29.4290   20.7880 C   0  0  0  0  0  0  0  0  0  0  0  0
  -27.1920  -28.6530   20.7880 C   0  0  0  0  0  3  0  0  0  0  0  0
  -26.0340  -26.8790   19.6080 C   0  0  0  0  0  3  0  0  0  0  0  0
  -24.8540  -27.6480   19.6060 C   0  0  0  0  0  3  0  0  0  0  0  0
  -23.6000  -29.7910   20.2440 C   0  0  0  0  0  2  0  0  0  0  0  0
  -24.6550  -31.0710   22.1600 N   0  0  0  0  0  0  0  0  0  0  0  0
  -23.5170  -32.1570   23.7960 O   0  0  0  0  0  0  0  0  0  0  0  0
  -22.7290  -29.4620   22.5860 C   0  0  0  0  0  0  0  0  0  0  0  0
  -21.4030  -29.2880   22.4610 N   0  0  0  0  0  0  0  0  0  0  0  0
  -23.4090  -28.8360   23.4040 O   0  0  0  0  0  0  0  0  0  0  0  0
  -20.9160  -29.8440   21.7730 H   0  0  0  0  0  0  0  0  0  0  0  0
  -18.0240  -28.1070   22.9630 C   0  0  0  0  0  0  0  0  0  0  0  0
  -20.5820  -28.3550   23.2340 C   0  0  0  0  0  3  0  0  0  0  0  0
  -20.6780  -26.9220   22.6630 C   0  0  0  0  0  2  0  0  0  0  0  0
  -19.5770  -26.6010   21.6480 C   0  0  0  0  0  2  0  0  0  0  0  0
  -18.1940  -26.7560   22.2880 C   0  0  0  0  0  2  0  0  0  0  0  0
  -19.1460  -28.8650   23.3920 C   0  0  0  0  0  0  0  0  0  0  0  0
  -18.9320  -30.1300   23.9810 C   0  0  0  0  0  3  0  0  0  0  0  0
  -17.6290  -30.6380   24.1440 C   0  0  0  0  0  3  0  0  0  0  0  0
  -16.5220  -29.8770   23.7310 C   0  0  0  0  0  3  0  0  0  0  0  0
  -16.7190  -28.6130   23.1470 C   0  0  0  0  0  3  0  0  0  0  0  0
  -25.8840  -32.5080   23.8790 C   0  0  0  0  0  3  0  0  0  0  0  0
  -26.3990  -31.7410   25.1580 C   0  0  1  0  0  0  0  0  0  0  0  0
  -25.3070  -31.5160   26.2310 C   0  0  0  0  0  1  0  0  0  0  0  0
  -26.9700  -30.3580   24.7690 C   0  0  0  0  0  1  0  0  0  0  0  0
  -27.5590  -32.5290   25.8120 C   0  0  0  0  0  1  0  0  0  0  0  0
  -25.5820  -33.9080   24.2030 N   0  0  0  0  0  0  0  0  0  0  0  0
  -25.9160  -34.9560   23.4380 C   0  0  0  0  0  0  0  0  0  0  0  0
  -26.5830  -34.8470   22.4070 O   0  0  0  0  0  0  0  0  0  0  0  0
  -24.9890  -34.0700   25.0040 H   0  0  0  0  0  0  0  0  0  0  0  0
  -24.1880  -36.7500   23.0810 C   0  0  0  0  0  1  0  0  0  0  0  0
  -25.4310  -36.3470   23.8920 C   0  0  0  0  0  3  0  0  0  0  0  0
  -27.5730  -37.2270   24.7090 C   0  0  0  0  0  1  0  0  0  0  0  0
  -26.4630  -37.3990   23.7740 N   0  0  0  0  0  0  0  0  0  0  0  0
  -26.0590  -38.3190   23.9290 H   0  0  0  0  0  0  0  0  0  0  0  0
  2  6  2  0
  2  5  1  0
  3  1  1  0
  3  9  1  0
  4 10  1  0
  4  1  2  0
  5  3  2  0
  6  4  1  0
  7  6  1  0
  9  8  2  0
 10 11  2  0
 12 11  1  0
 13 18  1  0
 14 15  1  0
 14 13  1  0
 16 15  1  0
 16 23  1  0
 16 17  1  0
 18 12  1  0
 18 17  1  0
 19 12  2  0
 20 21  2  0
 21 40  1  0
 22 21  1  0
 22 25  1  0
 23 20  1  0
 23 24  1  0
 24 22  2  0
 25 26  1  0
 26 27  2  0
 28 31  1  0
 28 27  1  0
 29 28  2  0
 30 29  1  0
 30 25  2  0
 31 32  1  0
 32 33  1  0
 33 34  2  0
 35 34  1  0
 35 39  1  0
 36 35  2  0
 37 32  2  0
 37 36  1  0
 38 37  1  0
 40 41  1  0
 41 44  1  0
 41 43  1  0
 42 40  2  0
 45 46  1  0
 45 20  1  0
 47 45  1  0
 48  5  1  0
 48 49  2  0
 50 49  1  0
 50 51  1  0
 52 63  2  0
 53 51  1  0
 53 58  1  0
 54 62  1  0
 54 64  1  0
 55 61  1  0
 55 57  1  0
 56 62  1  0
 57 58  2  0
 57 56  1  0
 59 53  2  0
 60 59  1  0
 60 55  2  0
 61 54  1  0
 62 52  1  0
 64 66  2  0
 65 64  1  0
 67 65  1  0
 68 77  2  0
 68 73  1  0
 69 65  1  0
 69 73  1  0
 70 69  1  0
 71 72  1  0
 71 70  1  0
 72 68  1  0
 73 74  2  0
 74 75  1  0
 76 75  2  0
 77 76  1  0
 78 52  1  0
 78 83  1  0
 78 79  1  0
 79 82  1  1
 79 80  1  0
 81 79  1  0
 83 86  1  0
 84 88  1  0
 84 83  1  0
 85 84  2  0
 88 87  1  0
 90 88  1  0
 90 91  1  0
 90 89  1  0
M  ISO  4  11 100  12 100  50 101  51 101
M  END
>  <TORSDO>  (26) 
F 20

>  <SCORE>  (26) 
-13.785

>  <name>  (26) 
25

>  <ligand_id>  (26) 
25

>  <original_smiles>  (26) 
[H]C([H])=C([H])c1c([H])c(C([H])=C([H])C(=O)N2C([H])([H])C([H])([H])C([H])([H])C([H])(n3nc(-c4c([H])c([H])c(Oc5c([H])c([H])c(F)c([H])c5F)c([H])c4[H])c(C(=O)N([H])[H])c3N([H])[H])C2([H])[H])c(C([H])([H])[H])c([H])c1C([H])=C([H])C([H])([H])Oc1c([H])c([H])c2c(c1[H])C([H])([H])N(C(=O)C([H])(N([H])C(=O)C([H])(N([H])C([H])([H])[H])C([H])([H])[H])C(C([H])([H])[H])(C([H])([H])[H])C([H])([H])[H])C([H])(C(=O)N([H])C1([H])c3c([H])c([H])c([H])c([H])c3C([H])([H])C([H])([H])C1([H])[H])C2([H])[H]

>  <smiles>  (26) 
[H]C([H])=C([H])c1c([H])c(C([H])=C([H])C(=O)N2C([H])([H])C([H])([H])C([H])([H])C([H])(n3nc(-c4c([H])c([H])c(Oc5c([H])c([H])c(F)c([H])c5F)c([H])c4[H])c(C(=O)N([H])[H])c3N([H])[H])C2([H])[H])c(C([H])([H])[H])c([H])c1C([H])=C([H])C([H])([H])Oc1c([H])c([H])c2c(c1[H])C([H])([H])N(C(=O)C([H])(N([H])C(=O)C([H])(N([H])C([H])([H])[H])C([H])([H])[H])C(C([H])([H])[H])(C([H])([H])[H])C([H])([H])[H])C([H])(C(=O)N([H])C1([H])c3c([H])c([H])c([H])c([H])c3C([H])([H])C([H])([H])C1([H])[H])C2([H])[H]

$$$$
26:0:0
     RDKit          3D

 94102  0  0  1  0  0  0  0  0999 V2000
  -30.7700  -18.6170   22.3330 C   0  0  0  0  0  3  0  0  0  0  0  0
  -32.5650  -17.6710   20.3920 C   0  0  0  0  0  3  0  0  0  0  0  0
  -31.6140  -19.5320   21.6770 C   0  0  0  0  0  0  0  0  0  0  0  0
  -30.8130  -17.2430   22.0400 C   0  0  0  0  0  0  0  0  0  0  0  0
  -31.7250  -16.7510   21.0760 C   0  0  0  0  0  0  0  0  0  0  0  0
  -32.4910  -19.0630   20.6630 C   0  0  0  0  0  0  0  0  0  0  0  0
  -29.8510  -16.3140   22.7650 C   0  0  0  0  0  1  0  0  0  0  0  0
  -32.0280  -14.6070   19.7750 C   0  0  0  0  0  0  0  0  0  0  0  0
  -31.4680  -12.5370   18.5330 C   0  0  0  0  0  2  0  0  0  0  0  0
  -30.4630  -12.8370   17.4040 C   0  0  0  0  0  2  0  0  0  0  0  0
  -29.0130  -12.8110   17.9280 C   0  0  0  0  0  2  0  0  0  0  0  0
  -28.8310  -13.6540   19.2170 C   0  0  0  0  0  3  0  0  0  0  0  0
  -29.9250  -13.2950   20.2470 C   0  0  0  0  0  2  0  0  0  0  0  0
  -31.2500  -13.5000   19.6240 N   0  0  0  0  0  0  0  0  0  0  0  0
  -33.0060  -14.8560   19.0650 O   0  0  0  0  0  0  0  0  0  0  0  0
  -31.6940  -15.3440   20.8470 N   0  0  0  0  0  0  0  0  0  0  0  0
  -31.0770  -14.8450   21.4670 H   0  0  0  0  0  0  0  0  0  0  0  0
  -26.5420  -14.4640   20.0820 C   0  0  0  0  0  0  0  0  0  0  0  0
  -25.4340  -13.7840   20.5100 C   0  0  0  0  0  0  0  0  0  0  0  0
  -25.7690  -12.3980   20.4390 C   0  0  0  0  0  0  0  0  0  0  0  0
  -27.4890  -13.4970   19.7750 N   0  0  0  0  0  0  0  0  0  0  0  0
  -27.0280  -12.2490   20.0450 N   0  0  0  0  0  0  0  0  0  0  0  0
  -24.9490  -11.2020   20.6660 C   0  0  0  0  0  0  0  0  0  0  0  0
  -25.2380  -10.2970   21.7120 C   0  0  0  0  0  3  0  0  0  0  0  0
  -24.4250   -9.1630   21.9230 C   0  0  0  0  0  3  0  0  0  0  0  0
  -23.3070   -8.9270   21.0890 C   0  0  0  0  0  0  0  0  0  0  0  0
  -23.0350   -9.8180   20.0360 C   0  0  0  0  0  3  0  0  0  0  0  0
  -23.8500  -10.9430   19.8240 C   0  0  0  0  0  3  0  0  0  0  0  0
  -22.4780   -7.8370   21.2020 O   0  0  0  0  0  0  0  0  0  0  0  0
  -22.1090   -7.3370   22.4250 C   0  0  0  0  0  0  0  0  0  0  0  0
  -21.4340   -8.1280   23.3800 C   0  0  0  0  0  3  0  0  0  0  0  0
  -21.0100   -7.5550   24.5950 C   0  0  0  0  0  3  0  0  0  0  0  0
  -21.2510   -6.1920   24.8550 C   0  0  0  0  0  0  0  0  0  0  0  0
  -21.9190   -5.4020   23.9030 C   0  0  0  0  0  3  0  0  0  0  0  0
  -22.3440   -5.9720   22.6900 C   0  0  0  0  0  0  0  0  0  0  0  0
  -22.9680   -5.2010   21.7670 F   0  0  0  0  0  0  0  0  0  0  0  0
  -20.8370   -5.6400   26.0190 F   0  0  0  0  0  0  0  0  0  0  0  0
  -24.1050  -14.3800   20.8790 C   0  0  0  0  0  0  0  0  0  0  0  0
  -23.3870  -13.7510   21.8040 N   0  0  0  0  0  0  0  0  0  0  0  0
  -23.7180  -15.4370   20.3830 O   0  0  0  0  0  0  0  0  0  0  0  0
  -23.7170  -12.8980   22.2290 H   0  0  0  0  0  0  0  0  0  0  0  0
  -22.4960  -14.1320   22.0910 H   0  0  0  0  0  0  0  0  0  0  0  0
  -26.8180  -15.8160   19.9100 N   0  0  0  0  0  0  0  0  0  0  0  0
  -26.1270  -16.5370   20.0890 H   0  0  0  0  0  0  0  0  0  0  0  0
  -27.6940  -16.1830   19.5590 H   0  0  0  0  0  0  0  0  0  0  0  0
  -30.4080  -21.6290   22.3210 C   0  0  0  0  0  2  0  0  0  0  0  0
  -31.5370  -20.9580   22.0360 C   0  0  0  0  0  3  0  0  0  0  0  0
  -33.2830  -19.9290   19.9330 O   0  0  0  0  0  0  0  0  0  0  0  0
  -32.5780  -20.8690   19.1080 C   0  0  0  0  0  2  0  0  0  0  0  0
  -32.9700  -22.3340   19.4220 C   0  0  0  0  0  2  0  0  0  0  0  0
  -31.8750  -23.3340   18.9950 C   0  0  0  0  0  2  0  0  0  0  0  0
  -31.9470  -24.7240   19.6650 C   0  0  0  0  0  2  0  0  0  0  0  0
  -30.6400  -25.5030   19.4430 C   0  0  0  0  0  2  0  0  0  0  0  0
  -30.5750  -26.7190   20.1940 O   0  0  0  0  0  0  0  0  0  0  0  0
  -26.0780  -30.6970   24.0280 C   0  0  0  0  0  0  0  0  0  0  0  0
  -29.3550  -27.3730   20.2240 C   0  0  0  0  0  0  0  0  0  0  0  0
  -25.1750  -29.7940   21.9120 C   0  0  0  0  0  3  0  0  0  0  0  0
  -26.8840  -28.7570   20.3330 C   0  0  0  0  0  0  0  0  0  0  0  0
  -27.6810  -30.2470   22.1730 C   0  0  0  0  0  2  0  0  0  0  0  0
  -27.9280  -29.1160   21.1950 C   0  0  0  0  0  0  0  0  0  0  0  0
  -29.1630  -28.4300   21.1420 C   0  0  0  0  0  3  0  0  0  0  0  0
  -28.2840  -27.0270   19.3620 C   0  0  0  0  0  3  0  0  0  0  0  0
  -27.0570  -27.7090   19.4180 C   0  0  0  0  0  3  0  0  0  0  0  0
  -25.5980  -29.5400   20.4410 C   0  0  0  0  0  2  0  0  0  0  0  0
  -26.3210  -30.2430   22.7660 N   0  0  0  0  0  0  0  0  0  0  0  0
  -24.9220  -30.7840   24.4650 O   0  0  0  0  0  0  0  0  0  0  0  0
  -24.4700  -28.5270   22.4480 C   0  0  0  0  0  0  0  0  0  0  0  0
  -23.1910  -28.3530   22.0760 N   0  0  0  0  0  0  0  0  0  0  0  0
  -25.0760  -27.7160   23.1530 O   0  0  0  0  0  0  0  0  0  0  0  0
  -22.7630  -29.0660   21.5030 H   0  0  0  0  0  0  0  0  0  0  0  0
  -19.8640  -26.9900   21.7260 C   0  0  0  0  0  0  0  0  0  0  0  0
  -22.3410  -27.2180   22.4310 C   0  0  0  0  0  3  0  0  0  0  0  0
  -22.6090  -26.0090   21.5050 C   0  0  0  0  0  2  0  0  0  0  0  0
  -21.6760  -25.9600   20.2900 C   0  0  0  0  0  2  0  0  0  0  0  0
  -20.2140  -25.8890   20.7400 C   0  0  0  0  0  2  0  0  0  0  0  0
  -20.8640  -27.6250   22.5090 C   0  0  0  0  0  0  0  0  0  0  0  0
  -20.4900  -28.6680   23.3840 C   0  0  0  0  0  3  0  0  0  0  0  0
  -19.1470  -29.0750   23.4870 C   0  0  0  0  0  3  0  0  0  0  0  0
  -18.1590  -28.4320   22.7210 C   0  0  0  0  0  3  0  0  0  0  0  0
  -18.5170  -27.3900   21.8480 C   0  0  0  0  0  3  0  0  0  0  0  0
  -27.2350  -31.1520   24.9710 C   0  0  0  0  0  3  0  0  0  0  0  0
  -26.8550  -32.4540   25.5370 N   0  0  0  0  0  0  0  0  0  0  0  0
  -27.3230  -33.6330   25.1100 C   0  0  0  0  0  0  0  0  0  0  0  0
  -28.1860  -33.7340   24.2330 O   0  0  0  0  0  0  0  0  0  0  0  0
  -26.1130  -32.4500   26.2210 H   0  0  0  0  0  0  0  0  0  0  0  0
  -25.6920  -35.5240   24.8210 C   0  0  0  0  0  1  0  0  0  0  0  0
  -26.7420  -34.9040   25.7570 C   0  0  0  0  0  3  0  0  0  0  0  0
  -28.6510  -35.4990   27.1810 C   0  0  0  0  0  1  0  0  0  0  0  0
  -27.7680  -35.9140   26.0950 N   0  0  0  0  0  0  0  0  0  0  0  0
  -27.3350  -36.7950   26.3570 H   0  0  0  0  0  0  0  0  0  0  0  0
  -27.5480  -30.1130   26.1160 C   0  0  1  0  0  0  0  0  0  0  0  0
  -26.2980  -29.6680   26.9120 C   0  0  0  0  0  1  0  0  0  0  0  0
  -28.2140  -28.8450   25.5320 C   0  0  0  0  0  1  0  0  0  0  0  0
  -28.5600  -30.7240   27.1140 C   0  0  0  0  0  1  0  0  0  0  0  0
  2  6  2  0
  2  5  1  0
  3 47  1  0
  3  1  2  0
  4  1  1  0
  4  7  1  0
  5  4  2  0
  6  3  1  0
  8 16  1  0
  9 14  1  0
 10 11  1  0
 10  9  1  0
 12 11  1  0
 12 21  1  0
 12 13  1  0
 14  8  1  0
 14 13  1  0
 15  8  2  0
 16  5  1  0
 16 17  1  0
 18 19  2  0
 19 38  1  0
 20 19  1  0
 20 23  1  0
 21 22  1  0
 21 18  1  0
 22 20  2  0
 23 24  1  0
 24 25  2  0
 26 29  1  0
 26 25  1  0
 27 26  2  0
 28 27  1  0
 28 23  2  0
 29 30  1  0
 30 35  2  0
 30 31  1  0
 31 32  2  0
 32 33  1  0
 33 37  1  0
 34 33  2  0
 35 34  1  0
 36 35  1  0
 38 39  1  0
 39 42  1  0
 39 41  1  0
 40 38  2  0
 43 18  1  0
 43 44  1  0
 45 43  1  0
 47 46  2  0
 48  6  1  0
 49 50  1  0
 49 48  1  0
 51 50  1  0
 51 52  1  0
 53 52  1  0
 53 54  1  0
 54 56  1  0
 55 66  2  0
 56 61  1  0
 57 67  1  0
 57 65  1  0
 58 64  1  0
 58 60  1  0
 59 65  1  0
 60 59  1  0
 61 60  2  0
 62 63  1  0
 62 56  2  0
 63 58  2  0
 64 57  1  0
 65 55  1  0
 67 69  2  0
 68 67  1  0
 70 68  1  0
 71 80  2  0
 71 76  1  0
 72 68  1  0
 72 76  1  0
 73 72  1  0
 74 75  1  0
 74 73  1  0
 75 71  1  0
 76 77  2  0
 77 78  1  0
 79 78  2  0
 80 79  1  0
 81 55  1  0
 81 82  1  0
 81 91  1  0
 82 85  1  0
 83 82  1  0
 83 87  1  0
 84 83  2  0
 87 86  1  0
 87 89  1  0
 89 90  1  0
 89 88  1  0
 91 92  1  1
 91 94  1  0
 93 91  1  0
M  ISO  4   8 100  16 100  53 101  54 101
M  END
>  <TORSDO>  (27) 
F 23

>  <SCORE>  (27) 
-6.771

>  <name>  (27) 
26

>  <ligand_id>  (27) 
26

>  <original_smiles>  (27) 
[H]C([H])=C([H])c1c([H])c(C([H])([H])[H])c(N([H])C(=O)N2C([H])([H])C([H])([H])C([H])([H])C([H])(n3nc(-c4c([H])c([H])c(Oc5c([H])c([H])c(F)c([H])c5F)c([H])c4[H])c(C(=O)N([H])[H])c3N([H])[H])C2([H])[H])c([H])c1OC([H])([H])C([H])([H])C([H])([H])C([H])([H])C([H])([H])Oc1c([H])c([H])c2c(c1[H])C([H])([H])N(C(=O)C([H])(N([H])C(=O)C([H])(N([H])C([H])([H])[H])C([H])([H])[H])C(C([H])([H])[H])(C([H])([H])[H])C([H])([H])[H])C([H])(C(=O)N([H])C1([H])c3c([H])c([H])c([H])c([H])c3C([H])([H])C([H])([H])C1([H])[H])C2([H])[H]

>  <smiles>  (27) 
[H]C([H])=C([H])c1c([H])c(C([H])([H])[H])c(N([H])C(=O)N2C([H])([H])C([H])([H])C([H])([H])C([H])(n3nc(-c4c([H])c([H])c(Oc5c([H])c([H])c(F)c([H])c5F)c([H])c4[H])c(C(=O)N([H])[H])c3N([H])[H])C2([H])[H])c([H])c1OC([H])([H])C([H])([H])C([H])([H])C([H])([H])C([H])([H])Oc1c([H])c([H])c2c(c1[H])C([H])([H])N(C(=O)C([H])(N([H])C(=O)C([H])(N([H])C([H])([H])[H])C([H])([H])[H])C(C([H])([H])[H])(C([H])([H])[H])C([H])([H])[H])C([H])(C(=O)N([H])C1([H])c3c([H])c([H])c([H])c([H])c3C([H])([H])C([H])([H])C1([H])[H])C2([H])[H]

$$$$
27:0:0
     RDKit          3D

 93101  0  0  1  0  0  0  0  0999 V2000
  -31.4770  -17.6450   21.5190 C   0  0  0  0  0  3  0  0  0  0  0  0
  -31.3270  -20.0320   21.0200 C   0  0  0  0  0  3  0  0  0  0  0  0
  -30.3920  -17.3650   20.6590 C   0  0  0  0  0  0  0  0  0  0  0  0
  -29.8110  -18.4610   19.9290 C   0  0  0  0  0  0  0  0  0  0  0  0
  -30.2570  -19.8020   20.1340 C   0  0  0  0  0  0  0  0  0  0  0  0
  -31.9460  -18.9600   21.6910 C   0  0  0  0  0  0  0  0  0  0  0  0
  -28.6890  -18.2190   18.9280 C   0  0  0  0  0  1  0  0  0  0  0  0
  -32.9790  -19.2000   22.5310 F   0  0  0  0  0  0  0  0  0  0  0  0
  -29.7790  -15.9860   20.7030 C   0  0  0  0  0  0  0  0  0  0  0  0
  -28.6080  -15.9340   21.1820 N   0  0  0  0  0  0  0  0  0  0  0  0
  -28.3080  -16.8560   21.4720 H   0  0  0  0  0  0  0  0  0  0  0  0
  -30.6000  -14.7650   20.1470 C   0  0  0  0  0  0  0  0  0  0  0  0
  -30.4140  -12.5480   19.0540 C   0  0  0  0  0  2  0  0  0  0  0  0
  -29.4060  -12.6580   17.8860 C   0  0  0  0  0  2  0  0  0  0  0  0
  -27.9540  -12.4520   18.3700 C   0  0  0  0  0  2  0  0  0  0  0  0
  -27.6310  -13.2790   19.6420 C   0  0  0  0  0  3  0  0  0  0  0  0
  -28.7430  -13.0710   20.6930 C   0  0  0  0  0  2  0  0  0  0  0  0
  -30.0090  -13.5220   20.0880 N   0  0  0  0  0  0  0  0  0  0  0  0
  -31.7140  -14.9640   19.6490 O   0  0  0  0  0  0  0  0  0  0  0  0
  -25.2560  -13.8220   20.4680 C   0  0  0  0  0  0  0  0  0  0  0  0
  -24.2220  -13.0180   20.8660 C   0  0  0  0  0  0  0  0  0  0  0  0
  -24.7160  -11.6790   20.7950 C   0  0  0  0  0  0  0  0  0  0  0  0
  -26.3090  -12.9680   20.1760 N   0  0  0  0  0  0  0  0  0  0  0  0
  -25.9900  -11.6750   20.4280 N   0  0  0  0  0  0  0  0  0  0  0  0
  -24.0340  -10.3960   21.0010 C   0  0  0  0  0  0  0  0  0  0  0  0
  -24.4750   -9.4730   21.9730 C   0  0  0  0  0  3  0  0  0  0  0  0
  -23.7930   -8.2510   22.1620 C   0  0  0  0  0  3  0  0  0  0  0  0
  -22.6550   -7.9470   21.3770 C   0  0  0  0  0  0  0  0  0  0  0  0
  -22.2340   -8.8590   20.3940 C   0  0  0  0  0  3  0  0  0  0  0  0
  -22.9180  -10.0710   20.2040 C   0  0  0  0  0  3  0  0  0  0  0  0
  -21.9440   -6.7750   21.4750 O   0  0  0  0  0  0  0  0  0  0  0  0
  -21.8050   -6.1140   22.6690 C   0  0  0  0  0  0  0  0  0  0  0  0
  -21.1650   -6.7060   23.7790 C   0  0  0  0  0  3  0  0  0  0  0  0
  -20.9810   -5.9650   24.9630 C   0  0  0  0  0  3  0  0  0  0  0  0
  -21.4290   -4.6330   25.0370 C   0  0  0  0  0  0  0  0  0  0  0  0
  -22.0630   -4.0400   23.9320 C   0  0  0  0  0  3  0  0  0  0  0  0
  -22.2470   -4.7780   22.7500 C   0  0  0  0  0  0  0  0  0  0  0  0
  -22.8400   -4.1960   21.6790 F   0  0  0  0  0  0  0  0  0  0  0  0
  -21.2460   -3.9180   26.1720 F   0  0  0  0  0  0  0  0  0  0  0  0
  -22.8260  -13.4540   21.2130 C   0  0  0  0  0  0  0  0  0  0  0  0
  -22.1560  -12.7180   22.0920 N   0  0  0  0  0  0  0  0  0  0  0  0
  -22.3410  -14.4790   20.7380 O   0  0  0  0  0  0  0  0  0  0  0  0
  -22.5590  -11.8860   22.4940 H   0  0  0  0  0  0  0  0  0  0  0  0
  -21.2210  -12.9890   22.3640 H   0  0  0  0  0  0  0  0  0  0  0  0
  -25.3880  -15.1970   20.3150 N   0  0  0  0  0  0  0  0  0  0  0  0
  -24.6530  -15.8520   20.5620 H   0  0  0  0  0  0  0  0  0  0  0  0
  -26.2940  -15.6370   20.1890 H   0  0  0  0  0  0  0  0  0  0  0  0
  -29.7170  -20.8760   19.4370 O   0  0  0  0  0  0  0  0  0  0  0  0
  -28.8840  -21.8000   20.1660 C   0  0  0  0  0  2  0  0  0  0  0  0
  -29.1610  -23.3110   19.8460 C   0  0  0  0  0  2  0  0  0  0  0  0
  -28.0400  -24.2990   20.3210 C   0  0  0  0  0  2  0  0  0  0  0  0
  -28.4540  -25.7450   20.7730 C   0  0  0  0  0  2  0  0  0  0  0  0
  -28.2970  -26.8320   19.8320 O   0  0  0  0  0  0  0  0  0  0  0  0
  -24.4960  -31.8790   23.2480 C   0  0  0  0  0  0  0  0  0  0  0  0
  -27.1380  -27.5820   19.9380 C   0  0  0  0  0  0  0  0  0  0  0  0
  -23.2860  -30.5550   21.5450 C   0  0  0  0  0  3  0  0  0  0  0  0
  -24.7380  -29.0910   20.0370 C   0  0  0  0  0  0  0  0  0  0  0  0
  -25.8100  -30.9310   21.3470 C   0  0  0  0  0  2  0  0  0  0  0  0
  -25.9000  -29.5870   20.6450 C   0  0  0  0  0  0  0  0  0  0  0  0
  -27.1050  -28.8390   20.5920 C   0  0  0  0  0  3  0  0  0  0  0  0
  -25.9600  -27.1070   19.3260 C   0  0  0  0  0  3  0  0  0  0  0  0
  -24.7640  -27.8510   19.3740 C   0  0  0  0  0  3  0  0  0  0  0  0
  -23.4910  -29.9430   20.1330 C   0  0  0  0  0  2  0  0  0  0  0  0
  -24.5500  -31.1340   22.1070 N   0  0  0  0  0  0  0  0  0  0  0  0
  -23.4160  -32.1190   23.8060 O   0  0  0  0  0  0  0  0  0  0  0  0
  -22.6420  -29.4850   22.4570 C   0  0  0  0  0  0  0  0  0  0  0  0
  -21.3210  -29.2880   22.3080 N   0  0  0  0  0  0  0  0  0  0  0  0
  -23.3270  -28.8390   23.2530 O   0  0  0  0  0  0  0  0  0  0  0  0
  -20.8300  -29.8670   21.6430 H   0  0  0  0  0  0  0  0  0  0  0  0
  -17.9590  -28.0310   22.7320 C   0  0  0  0  0  0  0  0  0  0  0  0
  -20.5120  -28.3040   23.0260 C   0  0  0  0  0  3  0  0  0  0  0  0
  -20.6340  -26.9040   22.3780 C   0  0  0  0  0  2  0  0  0  0  0  0
  -19.5390  -26.6220   21.3450 C   0  0  0  0  0  2  0  0  0  0  0  0
  -18.1530  -26.7180   21.9910 C   0  0  0  0  0  2  0  0  0  0  0  0
  -19.0680  -28.7830   23.2040 C   0  0  0  0  0  0  0  0  0  0  0  0
  -18.8330  -30.0130   23.8540 C   0  0  0  0  0  3  0  0  0  0  0  0
  -17.5230  -30.4930   24.0380 C   0  0  0  0  0  3  0  0  0  0  0  0
  -16.4290  -29.7360   23.5850 C   0  0  0  0  0  3  0  0  0  0  0  0
  -16.6470  -28.5080   22.9370 C   0  0  0  0  0  3  0  0  0  0  0  0
  -25.7820  -32.4830   23.8930 C   0  0  0  0  0  3  0  0  0  0  0  0
  -25.4890  -33.8800   24.2370 N   0  0  0  0  0  0  0  0  0  0  0  0
  -25.8620  -34.9380   23.5040 C   0  0  0  0  0  0  0  0  0  0  0  0
  -26.5600  -34.8370   22.4910 O   0  0  0  0  0  0  0  0  0  0  0  0
  -24.8800  -34.0330   25.0280 H   0  0  0  0  0  0  0  0  0  0  0  0
  -24.2000  -36.7800   23.1100 C   0  0  0  0  0  1  0  0  0  0  0  0
  -25.3890  -36.3270   23.9700 C   0  0  0  0  0  3  0  0  0  0  0  0
  -27.4950  -37.1460   24.9330 C   0  0  0  0  0  1  0  0  0  0  0  0
  -26.4520  -37.3550   23.9320 N   0  0  0  0  0  0  0  0  0  0  0  0
  -26.0590  -38.2820   24.0730 H   0  0  0  0  0  0  0  0  0  0  0  0
  -26.2730  -31.6850   25.1630 C   0  0  1  0  0  0  0  0  0  0  0  0
  -25.1560  -31.4220   26.2020 C   0  0  0  0  0  1  0  0  0  0  0  0
  -26.8640  -30.3170   24.7490 C   0  0  0  0  0  1  0  0  0  0  0  0
  -27.4080  -32.4650   25.8680 C   0  0  0  0  0  1  0  0  0  0  0  0
  1  6  1  0
  2  6  2  0
  3  9  1  0
  3  1  2  0
  4  5  2  0
  4  3  1  0
  5  2  1  0
  6  8  1  0
  7  4  1  0
  9 10  2  0
 10 11  1  0
 12  9  1  0
 13 18  1  0
 14 15  1  0
 14 13  1  0
 16 15  1  0
 16 23  1  0
 16 17  1  0
 18 12  1  0
 18 17  1  0
 19 12  2  0
 20 21  2  0
 21 40  1  0
 22 21  1  0
 22 25  1  0
 23 24  1  0
 23 20  1  0
 24 22  2  0
 25 26  1  0
 26 27  2  0
 28 31  1  0
 28 27  1  0
 29 28  2  0
 30 29  1  0
 30 25  2  0
 31 32  1  0
 32 37  2  0
 32 33  1  0
 33 34  2  0
 34 35  1  0
 35 39  1  0
 36 35  2  0
 37 36  1  0
 38 37  1  0
 40 41  1  0
 41 44  1  0
 41 43  1  0
 42 40  2  0
 45 20  1  0
 45 46  1  0
 47 45  1  0
 48  5  1  0
 48 49  1  0
 50 49  1  0
 50 51  1  0
 51 52  1  0
 53 55  1  0
 53 52  1  0
 54 65  2  0
 55 60  1  0
 56 64  1  0
 56 66  1  0
 57 63  1  0
 57 59  1  0
 58 64  1  0
 59 58  1  0
 60 59  2  0
 61 62  1  0
 61 55  2  0
 62 57  2  0
 63 56  1  0
 64 54  1  0
 66 68  2  0
 67 66  1  0
 69 67  1  0
 70 79  2  0
 70 75  1  0
 71 67  1  0
 71 75  1  0
 72 71  1  0
 73 74  1  0
 73 72  1  0
 74 70  1  0
 75 76  2  0
 76 77  1  0
 78 77  2  0
 79 78  1  0
 80 54  1  0
 80 81  1  0
 80 90  1  0
 81 84  1  0
 82 86  1  0
 82 81  1  0
 83 82  2  0
 86 85  1  0
 88 86  1  0
 88 89  1  0
 88 87  1  0
 90 93  1  1
 90 91  1  0
 92 90  1  0
M  ISO  4   9 100  12 100  52 101  53 101
M  END
>  <TORSDO>  (28) 
F 22

>  <SCORE>  (28) 
-13.001

>  <name>  (28) 
27

>  <ligand_id>  (28) 
27

>  <original_smiles>  (28) 
[H]N=C(C(=O)N1C([H])([H])C([H])([H])C([H])([H])C([H])(n2nc(-c3c([H])c([H])c(Oc4c([H])c([H])c(F)c([H])c4F)c([H])c3[H])c(C(=O)N([H])[H])c2N([H])[H])C1([H])[H])c1c([H])c(F)c([H])c(OC([H])([H])C([H])([H])C([H])([H])C([H])([H])Oc2c([H])c([H])c3c(c2[H])C([H])([H])N(C(=O)C([H])(N([H])C(=O)C([H])(N([H])C([H])([H])[H])C([H])([H])[H])C(C([H])([H])[H])(C([H])([H])[H])C([H])([H])[H])C([H])(C(=O)N([H])C2([H])c4c([H])c([H])c([H])c([H])c4C([H])([H])C([H])([H])C2([H])[H])C3([H])[H])c1C([H])([H])[H]

>  <smiles>  (28) 
[H]N=C(C(=O)N1C([H])([H])C([H])([H])C([H])([H])C([H])(n2nc(-c3c([H])c([H])c(Oc4c([H])c([H])c(F)c([H])c4F)c([H])c3[H])c(C(=O)N([H])[H])c2N([H])[H])C1([H])[H])c1c([H])c(F)c([H])c(OC([H])([H])C([H])([H])C([H])([H])C([H])([H])Oc2c([H])c([H])c3c(c2[H])C([H])([H])N(C(=O)C([H])(N([H])C(=O)C([H])(N([H])C([H])([H])[H])C([H])([H])[H])C(C([H])([H])[H])(C([H])([H])[H])C([H])([H])[H])C([H])(C(=O)N([H])C2([H])c4c([H])c([H])c([H])c([H])c4C([H])([H])C([H])([H])C2([H])[H])C3([H])[H])c1C([H])([H])[H]

$$$$
28:0:0
     RDKit          3D

 91 99  0  0  1  0  0  0  0  0999 V2000
  -29.8910  -19.2930   18.7670 C   0  0  0  0  0  3  0  0  0  0  0  0
  -29.6090  -20.6760   18.6500 C   0  0  0  0  0  3  0  0  0  0  0  0
  -30.2020  -19.5590   21.1200 C   0  0  0  0  0  3  0  0  0  0  0  0
  -30.2300  -18.6880   19.9950 C   0  0  0  0  0  0  0  0  0  0  0  0
  -29.9460  -20.9800   21.0190 C   0  0  0  0  0  0  0  0  0  0  0  0
  -29.6460  -21.5820   19.7390 C   0  0  0  0  0  0  0  0  0  0  0  0
  -30.1410  -21.7740   22.2710 C   0  0  0  0  0  0  0  0  0  0  0  0
  -29.8100  -21.0880   23.5920 C   0  0  0  0  0  1  0  0  0  0  0  0
  -30.5610  -22.9340   22.3020 O   0  0  0  0  0  0  0  0  0  0  0  0
  -30.6530  -17.2230   19.9580 C   0  0  0  0  0  3  0  0  0  0  0  0
  -30.4400  -16.1090   20.7390 C   0  0  0  0  0  3  0  0  0  0  0  0
  -31.1430  -14.8290   20.4050 C   0  0  0  0  0  0  0  0  0  0  0  0
  -30.8080  -12.6100   19.3520 C   0  0  0  0  0  2  0  0  0  0  0  0
  -29.9070  -12.8010   18.1130 C   0  0  0  0  0  2  0  0  0  0  0  0
  -28.4230  -12.6940   18.5070 C   0  0  0  0  0  2  0  0  0  0  0  0
  -28.0730  -13.5540   19.7510 C   0  0  0  0  0  3  0  0  0  0  0  0
  -29.1050  -13.3770   20.8860 C   0  0  0  0  0  2  0  0  0  0  0  0
  -30.4360  -13.6530   20.3350 N   0  0  0  0  0  0  0  0  0  0  0  0
  -32.3240  -14.8420   20.0470 O   0  0  0  0  0  0  0  0  0  0  0  0
  -25.6890  -14.2100   20.4420 C   0  0  0  0  0  0  0  0  0  0  0  0
  -24.5950  -13.4640   20.7860 C   0  0  0  0  0  0  0  0  0  0  0  0
  -25.0180  -12.1010   20.7520 C   0  0  0  0  0  0  0  0  0  0  0  0
  -26.7110  -13.3030   20.2140 N   0  0  0  0  0  0  0  0  0  0  0  0
  -26.3130  -12.0280   20.4640 N   0  0  0  0  0  0  0  0  0  0  0  0
  -24.2510  -10.8590   20.9190 C   0  0  0  0  0  0  0  0  0  0  0  0
  -24.6440   -9.8660   21.8440 C   0  0  0  0  0  3  0  0  0  0  0  0
  -23.8800   -8.6900   22.0000 C   0  0  0  0  0  3  0  0  0  0  0  0
  -22.7080   -8.4970   21.2320 C   0  0  0  0  0  0  0  0  0  0  0  0
  -22.3310   -9.4780   20.2980 C   0  0  0  0  0  3  0  0  0  0  0  0
  -23.0960  -10.6470   20.1390 C   0  0  0  0  0  3  0  0  0  0  0  0
  -21.9180   -7.3750   21.2980 O   0  0  0  0  0  0  0  0  0  0  0  0
  -21.8370   -6.6170   22.4390 C   0  0  0  0  0  0  0  0  0  0  0  0
  -21.4440   -7.1730   23.6770 C   0  0  0  0  0  3  0  0  0  0  0  0
  -21.3070   -6.3450   24.8080 C   0  0  0  0  0  3  0  0  0  0  0  0
  -21.5520   -4.9630   24.7040 C   0  0  0  0  0  0  0  0  0  0  0  0
  -21.9370   -4.4060   23.4710 C   0  0  0  0  0  3  0  0  0  0  0  0
  -22.0750   -5.2320   22.3420 C   0  0  0  0  0  0  0  0  0  0  0  0
  -22.4260   -4.6880   21.1520 F   0  0  0  0  0  0  0  0  0  0  0  0
  -21.4120   -4.1660   25.7890 F   0  0  0  0  0  0  0  0  0  0  0  0
  -23.2070  -13.9810   21.0370 C   0  0  0  0  0  0  0  0  0  0  0  0
  -22.4490  -13.3080   21.8960 N   0  0  0  0  0  0  0  0  0  0  0  0
  -22.8060  -15.0150   20.5090 O   0  0  0  0  0  0  0  0  0  0  0  0
  -22.7870  -12.4720   22.3500 H   0  0  0  0  0  0  0  0  0  0  0  0
  -21.5170  -13.6370   22.1070 H   0  0  0  0  0  0  0  0  0  0  0  0
  -25.8980  -15.5760   20.2820 N   0  0  0  0  0  0  0  0  0  0  0  0
  -25.1540  -16.2560   20.3890 H   0  0  0  0  0  0  0  0  0  0  0  0
  -26.7750  -15.9920   19.9900 H   0  0  0  0  0  0  0  0  0  0  0  0
  -28.9190  -24.0050   19.8910 C   0  0  0  0  0  3  0  0  0  0  0  0
  -29.4450  -22.9560   19.3250 N   0  0  0  0  0  0  0  0  0  0  0  0
  -28.7450  -25.3630   19.1000 C   0  0  0  0  0  2  0  0  0  0  0  0
  -28.6120  -26.6500   19.8140 O   0  0  0  0  0  0  0  0  0  0  0  0
  -24.7330  -31.7760   23.0490 C   0  0  0  0  0  0  0  0  0  0  0  0
  -27.4360  -27.4140   19.7940 C   0  0  0  0  0  0  0  0  0  0  0  0
  -23.5390  -30.3760   21.4030 C   0  0  0  0  0  3  0  0  0  0  0  0
  -25.0060  -28.9210   19.8960 C   0  0  0  0  0  0  0  0  0  0  0  0
  -26.0560  -30.8000   21.1610 C   0  0  0  0  0  2  0  0  0  0  0  0
  -26.1680  -29.4430   20.4750 C   0  0  0  0  0  0  0  0  0  0  0  0
  -27.3810  -28.6980   20.4190 C   0  0  0  0  0  3  0  0  0  0  0  0
  -26.2420  -26.9320   19.2120 C   0  0  0  0  0  3  0  0  0  0  0  0
  -25.0430  -27.6710   19.2600 C   0  0  0  0  0  3  0  0  0  0  0  0
  -23.7390  -29.7440   19.9990 C   0  0  0  0  0  2  0  0  0  0  0  0
  -24.7960  -31.0010   21.9270 N   0  0  0  0  0  0  0  0  0  0  0  0
  -23.6560  -31.9970   23.6200 O   0  0  0  0  0  0  0  0  0  0  0  0
  -22.9430  -29.3080   22.3520 C   0  0  0  0  0  0  0  0  0  0  0  0
  -21.6260  -29.0680   22.2400 N   0  0  0  0  0  0  0  0  0  0  0  0
  -23.6640  -28.6990   23.1460 O   0  0  0  0  0  0  0  0  0  0  0  0
  -21.1000  -29.6160   21.5730 H   0  0  0  0  0  0  0  0  0  0  0  0
  -18.3260  -27.6730   22.7310 C   0  0  0  0  0  0  0  0  0  0  0  0
  -20.8650  -28.0780   23.0040 C   0  0  0  0  0  3  0  0  0  0  0  0
  -21.0500  -26.6600   22.4170 C   0  0  0  0  0  2  0  0  0  0  0  0
  -19.9680  -26.2820   21.3990 C   0  0  0  0  0  2  0  0  0  0  0  0
  -18.5810  -26.3420   22.0450 C   0  0  0  0  0  2  0  0  0  0  0  0
  -19.3990  -28.4960   23.1680 C   0  0  0  0  0  0  0  0  0  0  0  0
  -19.1070  -29.7380   23.7700 C   0  0  0  0  0  3  0  0  0  0  0  0
  -17.7740  -30.1610   23.9410 C   0  0  0  0  0  3  0  0  0  0  0  0
  -16.7170  -29.3360   23.5210 C   0  0  0  0  0  3  0  0  0  0  0  0
  -16.9930  -28.0940   22.9210 C   0  0  0  0  0  3  0  0  0  0  0  0
  -26.0080  -32.4400   23.6550 C   0  0  0  0  0  3  0  0  0  0  0  0
  -26.6020  -31.6430   24.8800 C   0  0  1  0  0  0  0  0  0  0  0  0
  -25.5600  -31.3240   25.9780 C   0  0  0  0  0  1  0  0  0  0  0  0
  -27.2210  -30.3050   24.4160 C   0  0  0  0  0  1  0  0  0  0  0  0
  -27.7450  -32.4570   25.5300 C   0  0  0  0  0  1  0  0  0  0  0  0
  -25.6480  -33.8080   24.0530 N   0  0  0  0  0  0  0  0  0  0  0  0
  -25.9160  -34.9060   23.3340 C   0  0  0  0  0  0  0  0  0  0  0  0
  -26.5630  -34.8780   22.2840 O   0  0  0  0  0  0  0  0  0  0  0  0
  -25.0690  -33.9010   24.8750 H   0  0  0  0  0  0  0  0  0  0  0  0
  -24.1000  -36.6340   23.1110 C   0  0  0  0  0  1  0  0  0  0  0  0
  -25.3840  -36.2520   23.8660 C   0  0  0  0  0  3  0  0  0  0  0  0
  -27.5070  -37.1950   24.6610 C   0  0  0  0  0  1  0  0  0  0  0  0
  -26.3650  -37.3540   23.7650 N   0  0  0  0  0  0  0  0  0  0  0  0
  -25.9240  -38.2480   23.9680 H   0  0  0  0  0  0  0  0  0  0  0  0
  1  4  1  0
  2  1  2  0
  2  6  1  0
  4  3  2  0
  5  3  1  0
  5  7  1  0
  6  5  2  0
  7  9  2  0
  7  8  1  0
 10  4  1  0
 10 11  2  0
 12 11  1  0
 13 18  1  0
 14 15  1  0
 14 13  1  0
 16 15  1  0
 16 23  1  0
 16 17  1  0
 18 12  1  0
 18 17  1  0
 19 12  2  0
 20 21  2  0
 21 40  1  0
 22 21  1  0
 22 25  1  0
 23 20  1  0
 23 24  1  0
 24 22  2  0
 25 26  1  0
 26 27  2  0
 28 31  1  0
 28 27  1  0
 29 28  2  0
 30 29  1  0
 30 25  2  0
 31 32  1  0
 32 33  1  0
 33 34  2  0
 35 34  1  0
 35 39  1  0
 36 35  2  0
 37 32  2  0
 37 36  1  0
 38 37  1  0
 40 41  1  0
 41 44  1  0
 41 43  1  0
 42 40  2  0
 45 46  1  0
 45 20  1  0
 47 45  1  0
 49  6  1  0
 49 48  2  0
 50 51  1  0
 50 48  1  0
 52 63  2  0
 53 51  1  0
 53 58  1  0
 54 62  1  0
 54 64  1  0
 55 61  1  0
 55 57  1  0
 56 62  1  0
 57 56  1  0
 58 57  2  0
 59 60  1  0
 59 53  2  0
 60 55  2  0
 61 54  1  0
 62 52  1  0
 64 66  2  0
 65 64  1  0
 67 65  1  0
 68 77  2  0
 68 73  1  0
 69 65  1  0
 69 73  1  0
 70 69  1  0
 71 72  1  0
 71 70  1  0
 72 68  1  0
 73 74  2  0
 74 75  1  0
 76 75  2  0
 77 76  1  0
 78 52  1  0
 78 83  1  0
 78 79  1  0
 79 82  1  1
 79 80  1  0
 81 79  1  0
 83 86  1  0
 84 88  1  0
 84 83  1  0
 85 84  2  0
 88 87  1  0
 90 88  1  0
 90 91  1  0
 90 89  1  0
M  ISO  4  11 100  12 100  50 101  51 101
M  END
>  <TORSDO>  (29) 
F 20

>  <SCORE>  (29) 
-13.081

>  <name>  (29) 
28

>  <ligand_id>  (29) 
28

>  <original_smiles>  (29) 
[H]C(=Nc1c([H])c([H])c(C([H])=C([H])C(=O)N2C([H])([H])C([H])([H])C([H])([H])C([H])(n3nc(-c4c([H])c([H])c(Oc5c([H])c([H])c(F)c([H])c5F)c([H])c4[H])c(C(=O)N([H])[H])c3N([H])[H])C2([H])[H])c([H])c1C(=O)C([H])([H])[H])C([H])([H])Oc1c([H])c([H])c2c(c1[H])C([H])([H])N(C(=O)C([H])(N([H])C(=O)C([H])(N([H])C([H])([H])[H])C([H])([H])[H])C(C([H])([H])[H])(C([H])([H])[H])C([H])([H])[H])C([H])(C(=O)N([H])C1([H])c3c([H])c([H])c([H])c([H])c3C([H])([H])C([H])([H])C1([H])[H])C2([H])[H]

>  <smiles>  (29) 
[H]C(=Nc1c([H])c([H])c(C([H])=C([H])C(=O)N2C([H])([H])C([H])([H])C([H])([H])C([H])(n3nc(-c4c([H])c([H])c(Oc5c([H])c([H])c(F)c([H])c5F)c([H])c4[H])c(C(=O)N([H])[H])c3N([H])[H])C2([H])[H])c([H])c1C(=O)C([H])([H])[H])C([H])([H])Oc1c([H])c([H])c2c(c1[H])C([H])([H])N(C(=O)C([H])(N([H])C(=O)C([H])(N([H])C([H])([H])[H])C([H])([H])[H])C(C([H])([H])[H])(C([H])([H])[H])C([H])([H])[H])C([H])(C(=O)N([H])C1([H])c3c([H])c([H])c([H])c([H])c3C([H])([H])C([H])([H])C1([H])[H])C2([H])[H]

$$$$
29:0:0
     RDKit          3D

 92100  0  0  1  0  0  0  0  0999 V2000
  -28.3020  -22.7750   19.2990 C   0  0  0  0  0  2  0  0  0  0  0  0
  -28.0620  -24.1570   20.0170 C   0  0  0  0  0  2  0  0  0  0  0  0
  -30.2660  -25.3300   19.7070 C   0  0  0  0  0  1  0  0  0  0  0  0
  -28.5730  -25.6600   17.9130 C   0  0  0  0  0  1  0  0  0  0  0  0
  -28.7560  -25.4490   19.4340 C   0  0  1  0  0  0  0  0  0  0  0  0
  -28.4440  -26.6890   20.1330 O   0  0  0  0  0  0  0  0  0  0  0  0
  -24.6170  -31.8650   23.2050 C   0  0  0  0  0  0  0  0  0  0  0  0
  -27.2440  -27.3950   20.0880 C   0  0  0  0  0  0  0  0  0  0  0  0
  -23.4070  -30.4850   21.5480 C   0  0  0  0  0  3  0  0  0  0  0  0
  -24.8530  -28.9430   20.1140 C   0  0  0  0  0  0  0  0  0  0  0  0
  -25.9380  -30.8150   21.3650 C   0  0  0  0  0  2  0  0  0  0  0  0
  -26.0130  -29.4440   20.7140 C   0  0  0  0  0  0  0  0  0  0  0  0
  -27.2020  -28.6740   20.7020 C   0  0  0  0  0  3  0  0  0  0  0  0
  -26.0560  -26.9130   19.4920 C   0  0  0  0  0  3  0  0  0  0  0  0
  -24.8710  -27.6770   19.5030 C   0  0  0  0  0  3  0  0  0  0  0  0
  -23.6160  -29.8140   20.1640 C   0  0  0  0  0  2  0  0  0  0  0  0
  -24.6730  -31.0710   22.0980 N   0  0  0  0  0  0  0  0  0  0  0  0
  -23.5360  -32.1430   23.7410 O   0  0  0  0  0  0  0  0  0  0  0  0
  -22.7420  -29.4640   22.4990 C   0  0  0  0  0  0  0  0  0  0  0  0
  -21.4150  -29.3020   22.3730 N   0  0  0  0  0  0  0  0  0  0  0  0
  -23.4180  -28.8200   23.3070 O   0  0  0  0  0  0  0  0  0  0  0  0
  -20.9320  -29.8720   21.6920 H   0  0  0  0  0  0  0  0  0  0  0  0
  -18.0270  -28.1380   22.8490 C   0  0  0  0  0  0  0  0  0  0  0  0
  -20.5860  -28.3660   23.1320 C   0  0  0  0  0  3  0  0  0  0  0  0
  -20.6760  -26.9400   22.5430 C   0  0  0  0  0  2  0  0  0  0  0  0
  -19.5750  -26.6390   21.5220 C   0  0  0  0  0  2  0  0  0  0  0  0
  -18.1920  -26.7930   22.1630 C   0  0  0  0  0  2  0  0  0  0  0  0
  -19.1520  -28.8840   23.2900 C   0  0  0  0  0  0  0  0  0  0  0  0
  -18.9450  -30.1440   23.8910 C   0  0  0  0  0  3  0  0  0  0  0  0
  -17.6460  -30.6580   24.0570 C   0  0  0  0  0  3  0  0  0  0  0  0
  -16.5350  -29.9090   23.6330 C   0  0  0  0  0  3  0  0  0  0  0  0
  -16.7260  -28.6510   23.0330 C   0  0  0  0  0  3  0  0  0  0  0  0
  -25.9050  -32.4800   23.8370 C   0  0  0  0  0  3  0  0  0  0  0  0
  -25.5890  -33.8600   24.2300 N   0  0  0  0  0  0  0  0  0  0  0  0
  -25.9040  -34.9470   23.5130 C   0  0  0  0  0  0  0  0  0  0  0  0
  -26.5620  -34.8930   22.4700 O   0  0  0  0  0  0  0  0  0  0  0  0
  -25.0030  -33.9770   25.0440 H   0  0  0  0  0  0  0  0  0  0  0  0
  -24.1480  -36.7290   23.2640 C   0  0  0  0  0  1  0  0  0  0  0  0
  -25.4100  -36.3100   24.0340 C   0  0  0  0  0  3  0  0  0  0  0  0
  -27.5580  -37.1790   24.8470 C   0  0  0  0  0  1  0  0  0  0  0  0
  -26.4280  -37.3790   23.9420 N   0  0  0  0  0  0  0  0  0  0  0  0
  -26.0170  -38.2860   24.1440 H   0  0  0  0  0  0  0  0  0  0  0  0
  -26.4470  -31.6590   25.0700 C   0  0  1  0  0  0  0  0  0  0  0  0
  -25.3730  -31.3690   26.1450 C   0  0  0  0  0  1  0  0  0  0  0  0
  -27.0300  -30.3030   24.6090 C   0  0  0  0  0  1  0  0  0  0  0  0
  -27.6050  -32.4300   25.7470 C   0  0  0  0  0  1  0  0  0  0  0  0
  -29.3690  -21.9130   19.7720 O   0  0  0  0  0  0  0  0  0  0  0  0
  -28.3900  -18.2680   21.6990 C   0  0  0  0  0  3  0  0  0  0  0  0
  -29.7820  -19.5190   20.1480 C   0  0  0  0  0  3  0  0  0  0  0  0
  -27.9730  -20.6480   21.3200 C   0  0  0  0  0  3  0  0  0  0  0  0
  -29.4690  -18.2790   20.7880 C   0  0  0  0  0  0  0  0  0  0  0  0
  -27.6610  -19.4410   21.9770 C   0  0  0  0  0  0  0  0  0  0  0  0
  -29.0320  -20.7110   20.3920 C   0  0  0  0  0  0  0  0  0  0  0  0
  -26.5620  -19.4170   23.0180 C   0  0  0  0  0  1  0  0  0  0  0  0
  -30.2230  -17.0150   20.4990 C   0  0  0  0  0  3  0  0  0  0  0  0
  -29.8450  -15.7410   20.8120 C   0  0  0  0  0  3  0  0  0  0  0  0
  -30.6710  -14.5590   20.4820 C   0  0  0  0  0  0  0  0  0  0  0  0
  -30.4260  -12.3290   19.4560 C   0  0  0  0  0  2  0  0  0  0  0  0
  -29.5090  -12.4950   18.2240 C   0  0  0  0  0  2  0  0  0  0  0  0
  -28.0270  -12.3520   18.6250 C   0  0  0  0  0  2  0  0  0  0  0  0
  -27.6570  -13.2110   19.8640 C   0  0  0  0  0  3  0  0  0  0  0  0
  -28.7000  -13.0330   20.9920 C   0  0  0  0  0  2  0  0  0  0  0  0
  -30.0250  -13.3520   20.4380 N   0  0  0  0  0  0  0  0  0  0  0  0
  -31.8380  -14.6690   20.1000 O   0  0  0  0  0  0  0  0  0  0  0  0
  -25.2590  -13.8150   20.5690 C   0  0  0  0  0  0  0  0  0  0  0  0
  -24.1830  -13.0440   20.9160 C   0  0  0  0  0  0  0  0  0  0  0  0
  -24.6390  -11.6910   20.8710 C   0  0  0  0  0  0  0  0  0  0  0  0
  -26.3010  -12.9330   20.3290 N   0  0  0  0  0  0  0  0  0  0  0  0
  -25.9310  -11.6490   20.5690 N   0  0  0  0  0  0  0  0  0  0  0  0
  -23.9050  -10.4300   21.0400 C   0  0  0  0  0  0  0  0  0  0  0  0
  -24.3600   -9.4210   21.9180 C   0  0  0  0  0  3  0  0  0  0  0  0
  -23.6260   -8.2250   22.0760 C   0  0  0  0  0  3  0  0  0  0  0  0
  -22.4250   -8.0280   21.3540 C   0  0  0  0  0  0  0  0  0  0  0  0
  -21.9880   -9.0260   20.4650 C   0  0  0  0  0  3  0  0  0  0  0  0
  -22.7220  -10.2140   20.3050 C   0  0  0  0  0  3  0  0  0  0  0  0
  -21.6630   -6.8860   21.4240 O   0  0  0  0  0  0  0  0  0  0  0  0
  -21.6850   -6.0710   22.5280 C   0  0  0  0  0  0  0  0  0  0  0  0
  -21.4030   -6.5620   23.8210 C   0  0  0  0  0  3  0  0  0  0  0  0
  -21.3660   -5.6780   24.9170 C   0  0  0  0  0  3  0  0  0  0  0  0
  -21.6040   -4.3040   24.7220 C   0  0  0  0  0  0  0  0  0  0  0  0
  -21.8810   -3.8130   23.4350 C   0  0  0  0  0  3  0  0  0  0  0  0
  -21.9210   -4.6940   22.3410 C   0  0  0  0  0  0  0  0  0  0  0  0
  -22.1660   -4.2140   21.0980 F   0  0  0  0  0  0  0  0  0  0  0  0
  -21.5620   -3.4530   25.7740 F   0  0  0  0  0  0  0  0  0  0  0  0
  -22.7860  -13.5260   21.1830 C   0  0  0  0  0  0  0  0  0  0  0  0
  -22.0500  -12.8260   22.0390 N   0  0  0  0  0  0  0  0  0  0  0  0
  -22.3540  -14.5560   20.6680 O   0  0  0  0  0  0  0  0  0  0  0  0
  -22.4100  -11.9920   22.4780 H   0  0  0  0  0  0  0  0  0  0  0  0
  -21.1140  -13.1320   22.2620 H   0  0  0  0  0  0  0  0  0  0  0  0
  -25.4300  -15.1880   20.4150 N   0  0  0  0  0  0  0  0  0  0  0  0
  -24.6650  -15.8390   20.5410 H   0  0  0  0  0  0  0  0  0  0  0  0
  -26.2800  -15.6330   20.0940 H   0  0  0  0  0  0  0  0  0  0  0  0
  1 47  1  0
  1  2  1  0
  5  4  1  6
  5  3  1  0
  5  2  1  0
  5  6  1  0
  7 18  2  0
  8  6  1  0
  8 13  1  0
  9 17  1  0
  9 19  1  0
 10 16  1  0
 10 12  1  0
 11 17  1  0
 12 11  1  0
 13 12  2  0
 14 15  1  0
 14  8  2  0
 15 10  2  0
 16  9  1  0
 17  7  1  0
 19 21  2  0
 20 19  1  0
 22 20  1  0
 23 32  2  0
 23 28  1  0
 24 20  1  0
 24 28  1  0
 25 24  1  0
 26 27  1  0
 26 25  1  0
 27 23  1  0
 28 29  2  0
 29 30  1  0
 31 30  2  0
 32 31  1  0
 33  7  1  0
 33 34  1  0
 33 43  1  0
 34 37  1  0
 35 39  1  0
 35 34  1  0
 36 35  2  0
 39 38  1  0
 41 39  1  0
 41 42  1  0
 41 40  1  0
 43 46  1  1
 43 44  1  0
 45 43  1  0
 47 53  1  0
 48 52  1  0
 49 53  2  0
 49 51  1  0
 50 52  2  0
 51 48  2  0
 52 54  1  0
 53 50  1  0
 55 51  1  0
 55 56  2  0
 57 56  1  0
 58 63  1  0
 59 60  1  0
 59 58  1  0
 61 60  1  0
 61 68  1  0
 61 62  1  0
 63 57  1  0
 63 62  1  0
 64 57  2  0
 65 66  2  0
 66 85  1  0
 67 66  1  0
 67 70  1  0
 68 65  1  0
 68 69  1  0
 69 67  2  0
 70 71  1  0
 71 72  2  0
 73 76  1  0
 73 72  1  0
 74 73  2  0
 75 74  1  0
 75 70  2  0
 76 77  1  0
 77 78  1  0
 78 79  2  0
 80 79  1  0
 80 84  1  0
 81 80  2  0
 82 77  2  0
 82 81  1  0
 83 82  1  0
 85 86  1  0
 86 89  1  0
 86 88  1  0
 87 85  2  0
 90 91  1  0
 90 65  1  0
 92 90  1  0
M  ISO  4   5 101   6 101  56 100  57 100
M  END
>  <TORSDO>  (30) 
F 21

>  <SCORE>  (30) 
3.567

>  <name>  (30) 
29

>  <ligand_id>  (30) 
29

>  <original_smiles>  (30) 
[H]C(C(=O)N1C([H])([H])C([H])([H])C([H])([H])C([H])(n2nc(-c3c([H])c([H])c(Oc4c([H])c([H])c(F)c([H])c4F)c([H])c3[H])c(C(=O)N([H])[H])c2N([H])[H])C1([H])[H])=C([H])c1c([H])c(OC([H])([H])C([H])([H])C(Oc2c([H])c([H])c3c(c2[H])C([H])([H])N(C(=O)C([H])(N([H])C(=O)C([H])(N([H])C([H])([H])[H])C([H])([H])[H])C(C([H])([H])[H])(C([H])([H])[H])C([H])([H])[H])C([H])(C(=O)N([H])C2([H])c4c([H])c([H])c([H])c([H])c4C([H])([H])C([H])([H])C2([H])[H])C3([H])[H])(C([H])([H])[H])C([H])([H])[H])c([H])c(C([H])([H])[H])c1[H]

>  <smiles>  (30) 
[H]C(C(=O)N1C([H])([H])C([H])([H])C([H])([H])C([H])(n2nc(-c3c([H])c([H])c(Oc4c([H])c([H])c(F)c([H])c4F)c([H])c3[H])c(C(=O)N([H])[H])c2N([H])[H])C1([H])[H])=C([H])c1c([H])c(OC([H])([H])C([H])([H])C(Oc2c([H])c([H])c3c(c2[H])C([H])([H])N(C(=O)C([H])(N([H])C(=O)C([H])(N([H])C([H])([H])[H])C([H])([H])[H])C(C([H])([H])[H])(C([H])([H])[H])C([H])([H])[H])C([H])(C(=O)N([H])C2([H])c4c([H])c([H])c([H])c([H])c4C([H])([H])C([H])([H])C2([H])[H])C3([H])[H])(C([H])([H])[H])C([H])([H])[H])c([H])c(C([H])([H])[H])c1[H]

$$$$
30:0:0
     RDKit          3D

 93102  0  0  1  0  0  0  0  0999 V2000
  -29.3000  -25.1300   21.6020 C   0  0  0  0  0  0  0  0  0  0  0  0
  -28.9090  -26.3740   21.2610 C   0  0  0  0  0  3  0  0  0  0  0  0
  -29.8060  -24.7460   22.9580 C   0  0  0  0  0  2  0  0  0  0  0  0
  -29.1830  -23.8490   20.7990 C   0  0  0  0  0  2  0  0  0  0  0  0
  -29.1330  -23.3910   23.1680 C   0  0  0  0  0  2  0  0  0  0  0  0
  -28.9440  -22.7870   21.8220 N   0  0  2  0  0  4  0  0  0  0  0  0
  -27.9660  -22.5410   21.7730 H   0  0  0  0  0  0  0  0  0  0  0  0
  -28.3630  -26.7040   20.0500 O   0  0  0  0  0  0  0  0  0  0  0  0
  -24.5310  -31.8660   23.1560 C   0  0  0  0  0  0  0  0  0  0  0  0
  -27.2180  -27.4650   20.0770 C   0  0  0  0  0  0  0  0  0  0  0  0
  -23.3350  -30.4550   21.5120 C   0  0  0  0  0  3  0  0  0  0  0  0
  -24.8020  -28.9300   20.0880 C   0  0  0  0  0  0  0  0  0  0  0  0
  -25.8530  -30.8430   21.3100 C   0  0  0  0  0  2  0  0  0  0  0  0
  -25.9530  -29.4720   20.6760 C   0  0  0  0  0  0  0  0  0  0  0  0
  -27.1640  -28.7480   20.6720 C   0  0  0  0  0  3  0  0  0  0  0  0
  -26.0560  -26.9350   19.4830 C   0  0  0  0  0  3  0  0  0  0  0  0
  -24.8470  -27.6570   19.4890 C   0  0  0  0  0  3  0  0  0  0  0  0
  -23.5480  -29.7730   20.1340 C   0  0  0  0  0  2  0  0  0  0  0  0
  -24.5910  -31.0690   22.0510 N   0  0  0  0  0  0  0  0  0  0  0  0
  -23.4480  -32.1280   23.6990 O   0  0  0  0  0  0  0  0  0  0  0  0
  -22.6940  -29.4280   22.4740 C   0  0  0  0  0  0  0  0  0  0  0  0
  -21.3670  -29.2560   22.3650 N   0  0  0  0  0  0  0  0  0  0  0  0
  -23.3870  -28.7910   23.2710 O   0  0  0  0  0  0  0  0  0  0  0  0
  -20.8700  -29.8230   21.6930 H   0  0  0  0  0  0  0  0  0  0  0  0
  -17.9890  -28.0970   22.9130 C   0  0  0  0  0  0  0  0  0  0  0  0
  -20.5550  -28.3170   23.1390 C   0  0  0  0  0  3  0  0  0  0  0  0
  -20.6280  -26.8930   22.5380 C   0  0  0  0  0  2  0  0  0  0  0  0
  -19.5020  -26.6020   21.5410 C   0  0  0  0  0  2  0  0  0  0  0  0
  -18.1350  -26.7550   22.2160 C   0  0  0  0  0  2  0  0  0  0  0  0
  -19.1280  -28.8370   23.3330 C   0  0  0  0  0  0  0  0  0  0  0  0
  -18.9370  -30.0950   23.9470 C   0  0  0  0  0  3  0  0  0  0  0  0
  -17.6440  -30.6120   24.1450 C   0  0  0  0  0  3  0  0  0  0  0  0
  -16.5210  -29.8670   23.7430 C   0  0  0  0  0  3  0  0  0  0  0  0
  -16.6960  -28.6130   23.1330 C   0  0  0  0  0  3  0  0  0  0  0  0
  -25.8130  -32.5050   23.7760 C   0  0  0  0  0  3  0  0  0  0  0  0
  -26.3480  -31.7270   25.0390 C   0  0  1  0  0  0  0  0  0  0  0  0
  -25.2650  -31.4640   26.1120 C   0  0  0  0  0  1  0  0  0  0  0  0
  -26.9470  -30.3630   24.6240 C   0  0  0  0  0  1  0  0  0  0  0  0
  -27.4930  -32.5280   25.7030 C   0  0  0  0  0  1  0  0  0  0  0  0
  -25.4930  -33.8970   24.1200 N   0  0  0  0  0  0  0  0  0  0  0  0
  -25.8170  -34.9580   23.3690 C   0  0  0  0  0  0  0  0  0  0  0  0
  -26.4890  -34.8700   22.3380 O   0  0  0  0  0  0  0  0  0  0  0  0
  -24.8960  -34.0390   24.9210 H   0  0  0  0  0  0  0  0  0  0  0  0
  -24.0790  -36.7410   23.0180 C   0  0  0  0  0  1  0  0  0  0  0  0
  -25.3160  -36.3380   23.8380 C   0  0  0  0  0  3  0  0  0  0  0  0
  -27.4350  -37.2290   24.6980 C   0  0  0  0  0  1  0  0  0  0  0  0
  -26.3400  -37.3990   23.7460 N   0  0  0  0  0  0  0  0  0  0  0  0
  -25.9270  -38.3160   23.8990 H   0  0  0  0  0  0  0  0  0  0  0  0
  -29.7130  -21.5210   21.6480 C   0  0  0  0  0  2  0  0  0  0  0  0
  -29.2970  -20.6870   20.4170 C   0  0  0  0  0  2  0  0  0  0  0  0
  -31.1380  -18.9560   19.8930 C   0  0  0  0  0  3  0  0  0  0  0  0
  -31.4080  -17.5590   20.0070 C   0  0  0  0  0  3  0  0  0  0  0  0
  -29.9120  -19.3140   20.3880 C   0  0  0  0  0  0  0  0  0  0  0  0
  -30.3870  -16.8320   20.5820 C   0  0  0  0  0  0  0  0  0  0  0  0
  -29.0870  -17.9150   21.0400 S   0  0  0  0  0  0  0  0  0  0  0  0
  -30.9390  -14.4910   20.1930 C   0  0  0  0  0  0  0  0  0  0  0  0
  -30.5730  -12.3500   19.0350 C   0  0  0  0  0  2  0  0  0  0  0  0
  -29.5930  -12.5950   17.8670 C   0  0  0  0  0  2  0  0  0  0  0  0
  -28.1320  -12.4810   18.3450 C   0  0  0  0  0  2  0  0  0  0  0  0
  -27.8550  -13.3020   19.6330 C   0  0  0  0  0  3  0  0  0  0  0  0
  -28.9420  -13.0350   20.6990 C   0  0  0  0  0  2  0  0  0  0  0  0
  -30.2550  -13.3200   20.0940 N   0  0  0  0  0  0  0  0  0  0  0  0
  -32.0470  -14.6590   19.6740 O   0  0  0  0  0  0  0  0  0  0  0  0
  -30.2670  -15.4910   20.7970 N   0  0  0  0  0  0  0  0  0  0  0  0
  -29.4190  -15.1970   21.2590 H   0  0  0  0  0  0  0  0  0  0  0  0
  -25.4910  -13.9420   20.4290 C   0  0  0  0  0  0  0  0  0  0  0  0
  -24.4220  -13.1830   20.8240 C   0  0  0  0  0  0  0  0  0  0  0  0
  -24.8580  -11.8250   20.7580 C   0  0  0  0  0  0  0  0  0  0  0  0
  -26.5130  -13.0460   20.1520 N   0  0  0  0  0  0  0  0  0  0  0  0
  -26.1360  -11.7660   20.4040 N   0  0  0  0  0  0  0  0  0  0  0  0
  -24.1150  -10.5720   20.9530 C   0  0  0  0  0  0  0  0  0  0  0  0
  -24.5370   -9.6030   21.8900 C   0  0  0  0  0  3  0  0  0  0  0  0
  -23.7970   -8.4150   22.0740 C   0  0  0  0  0  3  0  0  0  0  0  0
  -22.6200   -8.1890   21.3220 C   0  0  0  0  0  0  0  0  0  0  0  0
  -22.2170   -9.1470   20.3750 C   0  0  0  0  0  3  0  0  0  0  0  0
  -22.9570  -10.3260   20.1880 C   0  0  0  0  0  3  0  0  0  0  0  0
  -21.8520   -7.0540   21.4150 O   0  0  0  0  0  0  0  0  0  0  0  0
  -21.7580   -6.3410   22.5850 C   0  0  0  0  0  0  0  0  0  0  0  0
  -21.2880   -6.9300   23.7790 C   0  0  0  0  0  3  0  0  0  0  0  0
  -21.1420   -6.1440   24.9400 C   0  0  0  0  0  3  0  0  0  0  0  0
  -21.4550   -4.7720   24.9060 C   0  0  0  0  0  0  0  0  0  0  0  0
  -21.9180   -4.1830   23.7170 C   0  0  0  0  0  3  0  0  0  0  0  0
  -22.0650   -4.9660   22.5580 C   0  0  0  0  0  0  0  0  0  0  0  0
  -22.4910   -4.3900   21.4080 F   0  0  0  0  0  0  0  0  0  0  0  0
  -21.3080   -4.0160   26.0200 F   0  0  0  0  0  0  0  0  0  0  0  0
  -23.0440  -13.6810   21.1520 C   0  0  0  0  0  0  0  0  0  0  0  0
  -22.3360  -12.9850   22.0340 N   0  0  0  0  0  0  0  0  0  0  0  0
  -22.6060  -14.7210   20.6620 O   0  0  0  0  0  0  0  0  0  0  0  0
  -22.7020  -12.1430   22.4530 H   0  0  0  0  0  0  0  0  0  0  0  0
  -21.4120  -13.3000   22.2960 H   0  0  0  0  0  0  0  0  0  0  0  0
  -25.6750  -15.3120   20.2660 N   0  0  0  0  0  0  0  0  0  0  0  0
  -24.9220  -15.9780   20.4070 H   0  0  0  0  0  0  0  0  0  0  0  0
  -26.5210  -15.7410   19.9120 H   0  0  0  0  0  0  0  0  0  0  0  0
  1  3  1  0
  2  1  2  0
  3  5  1  0
  4  1  1  0
  4  6  1  0
  6  5  1  0
  6  7  1  1
  8 10  1  0
  8  2  1  0
  9 20  2  0
 10 15  1  0
 11 19  1  0
 11 21  1  0
 12 18  1  0
 12 14  1  0
 13 19  1  0
 14 13  1  0
 15 14  2  0
 16 17  1  0
 16 10  2  0
 17 12  2  0
 18 11  1  0
 19  9  1  0
 21 23  2  0
 22 21  1  0
 24 22  1  0
 25 34  2  0
 25 30  1  0
 26 22  1  0
 26 30  1  0
 27 26  1  0
 28 29  1  0
 28 27  1  0
 29 25  1  0
 30 31  2  0
 31 32  1  0
 33 32  2  0
 34 33  1  0
 35  9  1  0
 35 40  1  0
 35 36  1  0
 36 39  1  1
 36 37  1  0
 38 36  1  0
 40 43  1  0
 41 45  1  0
 41 40  1  0
 42 41  2  0
 45 44  1  0
 47 45  1  0
 47 48  1  0
 47 46  1  0
 49  6  1  0
 50 49  1  0
 51 52  1  0
 51 53  2  0
 52 54  2  0
 53 50  1  0
 53 55  1  0
 54 64  1  0
 54 55  1  0
 56 64  1  0
 57 62  1  0
 58 59  1  0
 58 57  1  0
 60 59  1  0
 60 69  1  0
 60 61  1  0
 62 56  1  0
 62 61  1  0
 63 56  2  0
 64 65  1  0
 66 67  2  0
 67 86  1  0
 68 67  1  0
 68 71  1  0
 69 70  1  0
 69 66  1  0
 70 68  2  0
 71 72  1  0
 72 73  2  0
 74 77  1  0
 74 73  1  0
 75 74  2  0
 76 75  1  0
 76 71  2  0
 77 78  1  0
 78 79  1  0
 79 80  2  0
 81 80  1  0
 81 85  1  0
 82 81  2  0
 83 78  2  0
 83 82  1  0
 84 83  1  0
 86 87  1  0
 87 90  1  0
 87 89  1  0
 88 86  2  0
 91 92  1  0
 91 66  1  0
 93 91  1  0
M  ISO  4   2 101   8 101  56 100  64 100
M  END
>  <TORSDO>  (31) 
F 19

>  <SCORE>  (31) 
-13.702

>  <name>  (31) 
30

>  <ligand_id>  (31) 
30

>  <original_smiles>  (31) 
[H]C(Oc1c([H])c([H])c2c(c1[H])C([H])([H])N(C(=O)C([H])(N([H])C(=O)C([H])(N([H])C([H])([H])[H])C([H])([H])[H])C(C([H])([H])[H])(C([H])([H])[H])C([H])([H])[H])C([H])(C(=O)N([H])C1([H])c3c([H])c([H])c([H])c([H])c3C([H])([H])C([H])([H])C1([H])[H])C2([H])[H])=C1C([H])([H])C([H])([H])[N+]([H])(C([H])([H])C([H])([H])c2sc(N([H])C(=O)N3C([H])([H])C([H])([H])C([H])([H])C([H])(n4nc(-c5c([H])c([H])c(Oc6c([H])c([H])c(F)c([H])c6F)c([H])c5[H])c(C(=O)N([H])[H])c4N([H])[H])C3([H])[H])c([H])c2[H])C1([H])[H]

>  <smiles>  (31) 
[H]C(Oc1c([H])c([H])c2c(c1[H])C([H])([H])N(C(=O)C([H])(N([H])C(=O)C([H])(N([H])C([H])([H])[H])C([H])([H])[H])C(C([H])([H])[H])(C([H])([H])[H])C([H])([H])[H])C([H])(C(=O)N([H])C1([H])c3c([H])c([H])c([H])c([H])c3C([H])([H])C([H])([H])C1([H])[H])C2([H])[H])=C1C([H])([H])C([H])([H])[N+]([H])(C([H])([H])C([H])([H])c2sc(N([H])C(=O)N3C([H])([H])C([H])([H])C([H])([H])C([H])(n4nc(-c5c([H])c([H])c(Oc6c([H])c([H])c(F)c([H])c6F)c([H])c5[H])c(C(=O)N([H])[H])c4N([H])[H])C3([H])[H])c([H])c2[H])C1([H])[H]

$$$$
31:0:0
     RDKit          3D

 91 99  0  0  1  0  0  0  0  0999 V2000
  -31.6240  -20.5920   17.7000 C   0  0  0  0  0  3  0  0  0  0  0  0
  -32.0310  -19.3110   17.3010 C   0  0  0  0  0  3  0  0  0  0  0  0
  -30.2990  -19.6280   19.4980 C   0  0  0  0  0  3  0  0  0  0  0  0
  -30.7400  -20.7940   18.7830 C   0  0  0  0  0  0  0  0  0  0  0  0
  -30.7490  -18.3020   19.1410 C   0  0  0  0  0  0  0  0  0  0  0  0
  -31.6060  -18.1670   18.0090 C   0  0  0  0  0  0  0  0  0  0  0  0
  -30.3970  -22.2550   18.9950 C   0  0  0  0  0  3  0  0  0  0  0  0
  -29.4310  -22.9380   19.6690 C   0  0  0  0  0  3  0  0  0  0  0  0
  -29.3420  -24.4210   19.6250 C   0  0  0  0  0  3  0  0  0  0  0  0
  -28.4160  -25.2260   20.2170 C   0  0  0  0  0  3  0  0  0  0  0  0
  -28.4310  -26.6200   20.1080 O   0  0  0  0  0  0  0  0  0  0  0  0
  -24.6080  -31.8660   23.2310 C   0  0  0  0  0  0  0  0  0  0  0  0
  -27.2500  -27.3610   20.1610 C   0  0  0  0  0  0  0  0  0  0  0  0
  -23.3980  -30.4600   21.5950 C   0  0  0  0  0  3  0  0  0  0  0  0
  -24.8500  -28.9060   20.1740 C   0  0  0  0  0  0  0  0  0  0  0  0
  -25.9280  -30.8050   21.3920 C   0  0  0  0  0  2  0  0  0  0  0  0
  -26.0150  -29.4240   20.7580 C   0  0  0  0  0  0  0  0  0  0  0  0
  -27.2140  -28.6600   20.7390 C   0  0  0  0  0  3  0  0  0  0  0  0
  -26.0590  -26.8720   19.5760 C   0  0  0  0  0  3  0  0  0  0  0  0
  -24.8730  -27.6320   19.5780 C   0  0  0  0  0  3  0  0  0  0  0  0
  -23.6040  -29.7620   20.2240 C   0  0  0  0  0  2  0  0  0  0  0  0
  -24.6630  -31.0590   22.1310 N   0  0  0  0  0  0  0  0  0  0  0  0
  -23.5280  -32.1400   23.7720 O   0  0  0  0  0  0  0  0  0  0  0  0
  -22.7380  -29.4510   22.5630 C   0  0  0  0  0  0  0  0  0  0  0  0
  -21.4100  -29.2790   22.4450 N   0  0  0  0  0  0  0  0  0  0  0  0
  -23.4200  -28.8200   23.3760 O   0  0  0  0  0  0  0  0  0  0  0  0
  -20.9180  -29.8310   21.7540 H   0  0  0  0  0  0  0  0  0  0  0  0
  -18.0280  -28.1090   22.9570 C   0  0  0  0  0  0  0  0  0  0  0  0
  -20.5900  -28.3490   23.2240 C   0  0  0  0  0  3  0  0  0  0  0  0
  -20.6820  -26.9160   22.6470 C   0  0  0  0  0  2  0  0  0  0  0  0
  -19.5770  -26.6010   21.6370 C   0  0  0  0  0  2  0  0  0  0  0  0
  -18.1970  -26.7570   22.2850 C   0  0  0  0  0  2  0  0  0  0  0  0
  -19.1550  -28.8630   23.3830 C   0  0  0  0  0  0  0  0  0  0  0  0
  -18.9440  -30.1300   23.9720 C   0  0  0  0  0  3  0  0  0  0  0  0
  -17.6450  -30.6410   24.1420 C   0  0  0  0  0  3  0  0  0  0  0  0
  -16.5320  -29.8830   23.7340 C   0  0  0  0  0  3  0  0  0  0  0  0
  -16.7260  -28.6190   23.1450 C   0  0  0  0  0  3  0  0  0  0  0  0
  -25.8950  -32.4990   23.8460 C   0  0  0  0  0  3  0  0  0  0  0  0
  -26.4190  -31.7250   25.1180 C   0  0  1  0  0  0  0  0  0  0  0  0
  -25.3330  -31.4870   26.1930 C   0  0  0  0  0  1  0  0  0  0  0  0
  -26.9970  -30.3470   24.7210 C   0  0  0  0  0  1  0  0  0  0  0  0
  -27.5740  -32.5170   25.7770 C   0  0  0  0  0  1  0  0  0  0  0  0
  -25.5840  -33.8950   24.1790 N   0  0  0  0  0  0  0  0  0  0  0  0
  -25.9190  -34.9510   23.4260 C   0  0  0  0  0  0  0  0  0  0  0  0
  -26.5860  -34.8520   22.3930 O   0  0  0  0  0  0  0  0  0  0  0  0
  -24.9740  -34.0440   24.9690 H   0  0  0  0  0  0  0  0  0  0  0  0
  -24.1900  -36.7510   23.0910 C   0  0  0  0  0  1  0  0  0  0  0  0
  -25.4340  -36.3390   23.8920 C   0  0  0  0  0  3  0  0  0  0  0  0
  -27.5710  -37.2210   24.7130 C   0  0  0  0  0  1  0  0  0  0  0  0
  -26.4670  -37.3900   23.7760 N   0  0  0  0  0  0  0  0  0  0  0  0
  -26.0620  -38.3120   23.9240 H   0  0  0  0  0  0  0  0  0  0  0  0
  -30.6470  -17.0640   20.0060 C   0  0  0  0  0  2  0  0  0  0  0  0
  -30.1530  -15.8220   19.6910 C   0  0  0  0  0  2  0  0  0  0  0  0
  -30.7160  -14.6010   20.3180 C   0  0  0  0  0  0  0  0  0  0  0  0
  -30.3670  -12.3710   19.3510 C   0  0  0  0  0  2  0  0  0  0  0  0
  -29.4510  -12.5370   18.1240 C   0  0  0  0  0  2  0  0  0  0  0  0
  -27.9810  -12.3700   18.5560 C   0  0  0  0  0  2  0  0  0  0  0  0
  -27.6010  -13.2670   19.7680 C   0  0  0  0  0  3  0  0  0  0  0  0
  -28.6690  -13.2170   20.8830 C   0  0  0  0  0  2  0  0  0  0  0  0
  -29.9840  -13.4470   20.2810 N   0  0  0  0  0  0  0  0  0  0  0  0
  -31.9410  -14.5480   20.3650 O   0  0  0  0  0  0  0  0  0  0  0  0
  -25.2120  -13.8430   20.5150 C   0  0  0  0  0  0  0  0  0  0  0  0
  -24.1480  -13.0670   20.8860 C   0  0  0  0  0  0  0  0  0  0  0  0
  -24.6170  -11.7180   20.8620 C   0  0  0  0  0  0  0  0  0  0  0  0
  -26.2590  -12.9690   20.2730 N   0  0  0  0  0  0  0  0  0  0  0  0
  -25.9090  -11.6830   20.5510 N   0  0  0  0  0  0  0  0  0  0  0  0
  -23.8860  -10.4530   21.0510 C   0  0  0  0  0  0  0  0  0  0  0  0
  -24.3150   -9.4850   21.9840 C   0  0  0  0  0  3  0  0  0  0  0  0
  -23.5840   -8.2900   22.1640 C   0  0  0  0  0  3  0  0  0  0  0  0
  -22.4100   -8.0550   21.4080 C   0  0  0  0  0  0  0  0  0  0  0  0
  -21.9990   -9.0150   20.4660 C   0  0  0  0  0  3  0  0  0  0  0  0
  -22.7310  -10.2000   20.2860 C   0  0  0  0  0  3  0  0  0  0  0  0
  -21.6520   -6.9130   21.4960 O   0  0  0  0  0  0  0  0  0  0  0  0
  -21.6070   -6.1650   22.6470 C   0  0  0  0  0  0  0  0  0  0  0  0
  -21.1940   -6.7160   23.8790 C   0  0  0  0  0  3  0  0  0  0  0  0
  -21.0970   -5.8950   25.0220 C   0  0  0  0  0  3  0  0  0  0  0  0
  -21.4020   -4.5230   24.9300 C   0  0  0  0  0  0  0  0  0  0  0  0
  -21.8060   -3.9710   23.7020 C   0  0  0  0  0  3  0  0  0  0  0  0
  -21.9040   -4.7890   22.5640 C   0  0  0  0  0  0  0  0  0  0  0  0
  -22.2750   -4.2470   21.3780 F   0  0  0  0  0  0  0  0  0  0  0  0
  -21.3020   -3.7330   26.0240 F   0  0  0  0  0  0  0  0  0  0  0  0
  -22.7460  -13.5420   21.1430 C   0  0  0  0  0  0  0  0  0  0  0  0
  -22.0060  -12.8590   22.0110 N   0  0  0  0  0  0  0  0  0  0  0  0
  -22.3130  -14.5590   20.6060 O   0  0  0  0  0  0  0  0  0  0  0  0
  -22.3660  -12.0450   22.4890 H   0  0  0  0  0  0  0  0  0  0  0  0
  -21.0620  -13.1590   22.1960 H   0  0  0  0  0  0  0  0  0  0  0  0
  -25.3660  -15.2150   20.3390 N   0  0  0  0  0  0  0  0  0  0  0  0
  -24.5920  -15.8610   20.4640 H   0  0  0  0  0  0  0  0  0  0  0  0
  -26.2250  -15.6720   20.0580 H   0  0  0  0  0  0  0  0  0  0  0  0
  -33.4320  -16.7490   17.3540 C   0  0  0  0  0  1  0  0  0  0  0  0
  -32.0410  -16.9070   17.6440 O   0  0  0  0  0  0  0  0  0  0  0  0
  1  4  1  0
  2  1  2  0
  2  6  1  0
  4  7  1  0
  4  3  2  0
  5  3  1  0
  5 52  1  0
  6  5  2  0
  7  8  2  0
  9  8  1  0
  9 10  2  0
 11 13  1  0
 11 10  1  0
 12 23  2  0
 13 18  1  0
 14 22  1  0
 14 24  1  0
 15 21  1  0
 15 17  1  0
 16 22  1  0
 17 16  1  0
 18 17  2  0
 19 20  1  0
 19 13  2  0
 20 15  2  0
 21 14  1  0
 22 12  1  0
 24 26  2  0
 25 24  1  0
 27 25  1  0
 28 37  2  0
 28 33  1  0
 29 25  1  0
 29 33  1  0
 30 29  1  0
 31 32  1  0
 31 30  1  0
 32 28  1  0
 33 34  2  0
 34 35  1  0
 36 35  2  0
 37 36  1  0
 38 12  1  0
 38 43  1  0
 38 39  1  0
 39 42  1  1
 39 40  1  0
 41 39  1  0
 43 46  1  0
 44 48  1  0
 44 43  1  0
 45 44  2  0
 48 47  1  0
 50 48  1  0
 50 51  1  0
 50 49  1  0
 53 52  1  0
 53 54  1  0
 54 61  2  0
 55 60  1  0
 56 57  1  0
 56 55  1  0
 58 57  1  0
 58 65  1  0
 58 59  1  0
 60 54  1  0
 60 59  1  0
 62 63  2  0
 63 82  1  0
 64 63  1  0
 64 67  1  0
 65 62  1  0
 65 66  1  0
 66 64  2  0
 67 68  1  0
 68 69  2  0
 70 73  1  0
 70 69  1  0
 71 70  2  0
 72 71  1  0
 72 67  2  0
 73 74  1  0
 74 75  1  0
 75 76  2  0
 77 76  1  0
 77 81  1  0
 78 77  2  0
 79 74  2  0
 79 78  1  0
 80 79  1  0
 82 83  1  0
 83 86  1  0
 83 85  1  0
 84 82  2  0
 87 88  1  0
 87 62  1  0
 89 87  1  0
 90 91  1  0
 91  6  1  0
M  ISO  4  10 101  11 101  53 100  54 100
M  END
>  <TORSDO>  (32) 
F 20

>  <SCORE>  (32) 
-13.708

>  <name>  (32) 
31

>  <ligand_id>  (32) 
31

>  <original_smiles>  (32) 
[H]C(Oc1c([H])c([H])c2c(c1[H])C([H])([H])N(C(=O)C([H])(N([H])C(=O)C([H])(N([H])C([H])([H])[H])C([H])([H])[H])C(C([H])([H])[H])(C([H])([H])[H])C([H])([H])[H])C([H])(C(=O)N([H])C1([H])c3c([H])c([H])c([H])c([H])c3C([H])([H])C([H])([H])C1([H])[H])C2([H])[H])=C([H])C([H])=C([H])c1c([H])c([H])c(OC([H])([H])[H])c(C([H])=C([H])C(=O)N2C([H])([H])C([H])([H])C([H])([H])C([H])(n3nc(-c4c([H])c([H])c(Oc5c([H])c([H])c(F)c([H])c5F)c([H])c4[H])c(C(=O)N([H])[H])c3N([H])[H])C2([H])[H])c1[H]

>  <smiles>  (32) 
[H]C(Oc1c([H])c([H])c2c(c1[H])C([H])([H])N(C(=O)C([H])(N([H])C(=O)C([H])(N([H])C([H])([H])[H])C([H])([H])[H])C(C([H])([H])[H])(C([H])([H])[H])C([H])([H])[H])C([H])(C(=O)N([H])C1([H])c3c([H])c([H])c([H])c([H])c3C([H])([H])C([H])([H])C1([H])[H])C2([H])[H])=C([H])C([H])=C([H])c1c([H])c([H])c(OC([H])([H])[H])c(C([H])=C([H])C(=O)N2C([H])([H])C([H])([H])C([H])([H])C([H])(n3nc(-c4c([H])c([H])c(Oc5c([H])c([H])c(F)c([H])c5F)c([H])c4[H])c(C(=O)N([H])[H])c3N([H])[H])C2([H])[H])c1[H]

$$$$
32:0:0
     RDKit          3D

 92101  0  0  1  0  0  0  0  0999 V2000
  -28.8080  -24.1380   21.2250 C   0  0  0  0  0  0  0  0  0  0  0  0
  -28.5300  -25.5040   21.1210 C   0  0  0  0  0  3  0  0  0  0  0  0
  -29.0830  -23.6060   22.6280 C   0  0  0  0  0  2  0  0  0  0  0  0
  -28.9240  -22.9060   20.2210 C   0  0  0  0  0  2  0  0  0  0  0  0
  -30.4910  -22.9770   22.7410 C   0  0  0  0  0  2  0  0  0  0  0  0
  -31.0080  -22.3240   21.4380 C   0  0  0  0  0  2  0  0  0  0  0  0
  -29.9040  -21.8070   20.6270 N   0  0  0  0  0  0  0  0  0  0  0  0
  -28.6730  -19.5690   20.6450 C   0  0  0  0  0  3  0  0  0  0  0  0
  -31.0230  -19.5610   20.2640 C   0  0  0  0  0  3  0  0  0  0  0  0
  -28.6890  -18.1300   20.6240 C   0  0  0  0  0  3  0  0  0  0  0  0
  -31.0440  -18.1230   20.2370 C   0  0  0  0  0  3  0  0  0  0  0  0
  -29.8480  -20.3530   20.4850 C   0  0  0  0  0  0  0  0  0  0  0  0
  -29.8670  -17.3440   20.4300 C   0  0  0  0  0  0  0  0  0  0  0  0
  -30.5790  -14.7940   20.0880 C   0  0  0  0  0  0  0  0  0  0  0  0
  -30.3540  -12.5380   19.0130 C   0  0  0  0  0  2  0  0  0  0  0  0
  -29.3440  -12.6280   17.8450 C   0  0  0  0  0  2  0  0  0  0  0  0
  -27.8980  -12.4490   18.3480 C   0  0  0  0  0  2  0  0  0  0  0  0
  -27.5900  -13.3090   19.5990 C   0  0  0  0  0  3  0  0  0  0  0  0
  -28.7020  -13.1730   20.6610 C   0  0  0  0  0  2  0  0  0  0  0  0
  -29.9740  -13.5540   20.0230 N   0  0  0  0  0  0  0  0  0  0  0  0
  -31.7300  -14.9470   19.6710 O   0  0  0  0  0  0  0  0  0  0  0  0
  -29.7710  -15.8570   20.4640 N   0  0  0  0  0  0  0  0  0  0  0  0
  -28.8670  -15.5200   20.7590 H   0  0  0  0  0  0  0  0  0  0  0  0
  -25.2340  -13.8900   20.4410 C   0  0  0  0  0  0  0  0  0  0  0  0
  -24.1860  -13.1090   20.8450 C   0  0  0  0  0  0  0  0  0  0  0  0
  -24.6500  -11.7590   20.7700 C   0  0  0  0  0  0  0  0  0  0  0  0
  -26.2680  -13.0160   20.1430 N   0  0  0  0  0  0  0  0  0  0  0  0
  -25.9250  -11.7270   20.4040 N   0  0  0  0  0  0  0  0  0  0  0  0
  -23.9330  -10.4930   20.9700 C   0  0  0  0  0  0  0  0  0  0  0  0
  -24.3830   -9.5270   21.8970 C   0  0  0  0  0  3  0  0  0  0  0  0
  -23.6660   -8.3260   22.0870 C   0  0  0  0  0  3  0  0  0  0  0  0
  -22.4830   -8.0810   21.3470 C   0  0  0  0  0  0  0  0  0  0  0  0
  -22.0520   -9.0350   20.4070 C   0  0  0  0  0  3  0  0  0  0  0  0
  -22.7710  -10.2270   20.2170 C   0  0  0  0  0  3  0  0  0  0  0  0
  -21.7380   -6.9320   21.4440 O   0  0  0  0  0  0  0  0  0  0  0  0
  -21.6780   -6.2110   22.6110 C   0  0  0  0  0  0  0  0  0  0  0  0
  -21.2200   -6.7820   23.8190 C   0  0  0  0  0  3  0  0  0  0  0  0
  -21.1090   -5.9870   24.9760 C   0  0  0  0  0  3  0  0  0  0  0  0
  -21.4470   -4.6210   24.9270 C   0  0  0  0  0  0  0  0  0  0  0  0
  -21.9000   -4.0490   23.7240 C   0  0  0  0  0  3  0  0  0  0  0  0
  -22.0130   -4.8420   22.5690 C   0  0  0  0  0  0  0  0  0  0  0  0
  -22.4280   -4.2820   21.4080 F   0  0  0  0  0  0  0  0  0  0  0  0
  -21.3340   -3.8530   26.0360 F   0  0  0  0  0  0  0  0  0  0  0  0
  -22.8010  -13.5790   21.1840 C   0  0  0  0  0  0  0  0  0  0  0  0
  -22.1150  -12.8670   22.0690 N   0  0  0  0  0  0  0  0  0  0  0  0
  -22.3400  -14.6130   20.7030 O   0  0  0  0  0  0  0  0  0  0  0  0
  -22.5040  -12.0290   22.4780 H   0  0  0  0  0  0  0  0  0  0  0  0
  -21.1890  -13.1610   22.3430 H   0  0  0  0  0  0  0  0  0  0  0  0
  -25.3900  -15.2630   20.2770 N   0  0  0  0  0  0  0  0  0  0  0  0
  -24.6260  -15.9120   20.4350 H   0  0  0  0  0  0  0  0  0  0  0  0
  -26.2000  -15.7030   19.8590 H   0  0  0  0  0  0  0  0  0  0  0  0
  -28.3270  -26.4150   20.0640 O   0  0  0  0  0  0  0  0  0  0  0  0
  -24.6180  -31.8860   23.1860 C   0  0  0  0  0  0  0  0  0  0  0  0
  -27.2460  -27.3170   20.1220 C   0  0  0  0  0  0  0  0  0  0  0  0
  -23.4170  -30.4800   21.5510 C   0  0  0  0  0  3  0  0  0  0  0  0
  -24.8730  -28.9300   20.1240 C   0  0  0  0  0  0  0  0  0  0  0  0
  -25.9560  -30.8080   21.3560 C   0  0  0  0  0  2  0  0  0  0  0  0
  -26.0460  -29.4240   20.7160 C   0  0  0  0  0  0  0  0  0  0  0  0
  -27.2360  -28.6260   20.7120 C   0  0  0  0  0  3  0  0  0  0  0  0
  -26.0550  -26.8890   19.5030 C   0  0  0  0  0  3  0  0  0  0  0  0
  -24.8820  -27.6680   19.5090 C   0  0  0  0  0  3  0  0  0  0  0  0
  -23.6340  -29.8040   20.1720 C   0  0  0  0  0  2  0  0  0  0  0  0
  -24.6830  -31.0770   22.0890 N   0  0  0  0  0  0  0  0  0  0  0  0
  -23.5360  -32.1560   23.7250 O   0  0  0  0  0  0  0  0  0  0  0  0
  -22.7610  -29.4630   22.5160 C   0  0  0  0  0  0  0  0  0  0  0  0
  -21.4340  -29.2900   22.4050 N   0  0  0  0  0  0  0  0  0  0  0  0
  -23.4490  -28.8310   23.3230 O   0  0  0  0  0  0  0  0  0  0  0  0
  -20.9380  -29.8550   21.7290 H   0  0  0  0  0  0  0  0  0  0  0  0
  -18.0600  -28.0870   22.9340 C   0  0  0  0  0  0  0  0  0  0  0  0
  -20.6220  -28.3460   23.1750 C   0  0  0  0  0  3  0  0  0  0  0  0
  -20.7160  -26.9170   22.5880 C   0  0  0  0  0  2  0  0  0  0  0  0
  -19.6020  -26.6030   21.5840 C   0  0  0  0  0  2  0  0  0  0  0  0
  -18.2280  -26.7430   22.2450 C   0  0  0  0  0  2  0  0  0  0  0  0
  -19.1840  -28.8460   23.3560 C   0  0  0  0  0  0  0  0  0  0  0  0
  -18.9720  -30.1040   23.9620 C   0  0  0  0  0  3  0  0  0  0  0  0
  -17.6690  -30.6060   24.1450 C   0  0  0  0  0  3  0  0  0  0  0  0
  -16.5600  -29.8430   23.7370 C   0  0  0  0  0  3  0  0  0  0  0  0
  -16.7570  -28.5850   23.1400 C   0  0  0  0  0  3  0  0  0  0  0  0
  -25.9000  -32.5270   23.8040 C   0  0  0  0  0  3  0  0  0  0  0  0
  -25.5810  -33.9200   24.1450 N   0  0  0  0  0  0  0  0  0  0  0  0
  -25.8990  -34.9800   23.3920 C   0  0  0  0  0  0  0  0  0  0  0  0
  -26.5610  -34.8870   22.3550 O   0  0  0  0  0  0  0  0  0  0  0  0
  -24.9980  -34.0660   24.9570 H   0  0  0  0  0  0  0  0  0  0  0  0
  -24.1630  -36.7680   23.0550 C   0  0  0  0  0  1  0  0  0  0  0  0
  -25.4070  -36.3640   23.8620 C   0  0  0  0  0  3  0  0  0  0  0  0
  -27.5390  -37.2540   24.6930 C   0  0  0  0  0  1  0  0  0  0  0  0
  -26.4350  -37.4220   23.7520 N   0  0  0  0  0  0  0  0  0  0  0  0
  -26.0260  -38.3410   23.9020 H   0  0  0  0  0  0  0  0  0  0  0  0
  -26.4280  -31.7490   25.0740 C   0  0  1  0  0  0  0  0  0  0  0  0
  -25.3440  -31.4960   26.1480 C   0  0  0  0  0  1  0  0  0  0  0  0
  -27.0190  -30.3790   24.6690 C   0  0  0  0  0  1  0  0  0  0  0  0
  -27.5820  -32.5460   25.7310 C   0  0  0  0  0  1  0  0  0  0  0  0
  1  3  1  0
  2  1  2  0
  3  5  1  0
  4  7  1  0
  4  1  1  0
  6  5  1  0
  7  6  1  0
  9 12  1  0
 10  8  1  0
 11  9  2  0
 11 13  1  0
 12  7  1  0
 12  8  2  0
 13 22  1  0
 13 10  2  0
 14 22  1  0
 15 20  1  0
 16 17  1  0
 16 15  1  0
 18 17  1  0
 18 27  1  0
 18 19  1  0
 20 14  1  0
 20 19  1  0
 21 14  2  0
 22 23  1  0
 24 25  2  0
 25 44  1  0
 26 25  1  0
 26 29  1  0
 27 28  1  0
 27 24  1  0
 28 26  2  0
 29 30  1  0
 30 31  2  0
 32 35  1  0
 32 31  1  0
 33 32  2  0
 34 33  1  0
 34 29  2  0
 35 36  1  0
 36 37  1  0
 37 38  2  0
 39 38  1  0
 39 43  1  0
 40 39  2  0
 41 36  2  0
 41 40  1  0
 42 41  1  0
 44 45  1  0
 45 48  1  0
 45 47  1  0
 46 44  2  0
 49 50  1  0
 49 24  1  0
 51 49  1  0
 52 54  1  0
 52  2  1  0
 53 64  2  0
 54 59  1  0
 55 63  1  0
 55 65  1  0
 56 62  1  0
 56 58  1  0
 57 63  1  0
 58 57  1  0
 59 58  2  0
 60 61  1  0
 60 54  2  0
 61 56  2  0
 62 55  1  0
 63 53  1  0
 65 67  2  0
 66 65  1  0
 68 66  1  0
 69 78  2  0
 69 74  1  0
 70 66  1  0
 70 74  1  0
 71 70  1  0
 72 73  1  0
 72 71  1  0
 73 69  1  0
 74 75  2  0
 75 76  1  0
 77 76  2  0
 78 77  1  0
 79 53  1  0
 79 80  1  0
 79 89  1  0
 80 83  1  0
 81 85  1  0
 81 80  1  0
 82 81  2  0
 85 84  1  0
 87 85  1  0
 87 88  1  0
 87 86  1  0
 89 92  1  1
 89 90  1  0
 91 89  1  0
M  ISO  4   2 101  14 100  22 100  52 101
M  END
>  <TORSDO>  (33) 
F 17

>  <SCORE>  (33) 
-15.038

>  <name>  (33) 
32

>  <ligand_id>  (33) 
32

>  <original_smiles>  (33) 
[H]C(Oc1c([H])c([H])c2c(c1[H])C([H])([H])N(C(=O)C([H])(N([H])C(=O)C([H])(N([H])C([H])([H])[H])C([H])([H])[H])C(C([H])([H])[H])(C([H])([H])[H])C([H])([H])[H])C([H])(C(=O)N([H])C1([H])c3c([H])c([H])c([H])c([H])c3C([H])([H])C([H])([H])C1([H])[H])C2([H])[H])=C1C([H])([H])N(c2c([H])c([H])c(N([H])C(=O)N3C([H])([H])C([H])([H])C([H])([H])C([H])(n4nc(-c5c([H])c([H])c(Oc6c([H])c([H])c(F)c([H])c6F)c([H])c5[H])c(C(=O)N([H])[H])c4N([H])[H])C3([H])[H])c([H])c2[H])C([H])([H])C([H])([H])C1([H])[H]

>  <smiles>  (33) 
[H]C(Oc1c([H])c([H])c2c(c1[H])C([H])([H])N(C(=O)C([H])(N([H])C(=O)C([H])(N([H])C([H])([H])[H])C([H])([H])[H])C(C([H])([H])[H])(C([H])([H])[H])C([H])([H])[H])C([H])(C(=O)N([H])C1([H])c3c([H])c([H])c([H])c([H])c3C([H])([H])C([H])([H])C1([H])[H])C2([H])[H])=C1C([H])([H])N(c2c([H])c([H])c(N([H])C(=O)N3C([H])([H])C([H])([H])C([H])([H])C([H])(n4nc(-c5c([H])c([H])c(Oc6c([H])c([H])c(F)c([H])c6F)c([H])c5[H])c(C(=O)N([H])[H])c4N([H])[H])C3([H])[H])c([H])c2[H])C([H])([H])C([H])([H])C1([H])[H]

$$$$
33:0:0
     RDKit          3D

 92100  0  0  1  0  0  0  0  0999 V2000
  -31.2440  -20.6930   18.4410 C   0  0  0  0  0  3  0  0  0  0  0  0
  -30.8650  -21.9070   19.0390 C   0  0  0  0  0  3  0  0  0  0  0  0
  -30.6940  -19.4740   18.8830 C   0  0  0  0  0  0  0  0  0  0  0  0
  -29.4340  -20.6830   20.5880 C   0  0  0  0  0  0  0  0  0  0  0  0
  -29.8840  -21.9400   20.0620 C   0  0  0  0  0  0  0  0  0  0  0  0
  -29.8700  -19.4400   20.0340 C   0  0  0  0  0  0  0  0  0  0  0  0
  -30.9460  -18.2340   18.0440 C   0  0  0  0  0  1  0  0  0  0  0  0
  -28.4410  -20.6610   21.7440 C   0  0  0  0  0  1  0  0  0  0  0  0
  -29.0540  -24.2260   19.9420 C   0  0  0  0  0  0  0  0  0  0  0  0
  -29.1230  -24.3940   18.4270 C   0  0  0  0  0  1  0  0  0  0  0  0
  -29.3940  -23.1640   20.6020 N   0  0  0  0  0  0  0  0  0  0  0  0
  -28.4240  -25.4290   20.6880 C   0  0  0  0  0  2  0  0  0  0  0  0
  -28.5260  -26.7380   20.0560 O   0  0  0  0  0  0  0  0  0  0  0  0
  -24.6520  -31.8910   23.1800 C   0  0  0  0  0  0  0  0  0  0  0  0
  -27.3660  -27.4960   20.0600 C   0  0  0  0  0  0  0  0  0  0  0  0
  -23.4670  -30.4870   21.5280 C   0  0  0  0  0  3  0  0  0  0  0  0
  -24.9440  -28.9810   20.0890 C   0  0  0  0  0  0  0  0  0  0  0  0
  -25.9910  -30.8790   21.3340 C   0  0  0  0  0  2  0  0  0  0  0  0
  -26.0990  -29.5130   20.6760 C   0  0  0  0  0  0  0  0  0  0  0  0
  -27.3130  -28.7830   20.6580 C   0  0  0  0  0  3  0  0  0  0  0  0
  -26.1960  -26.9920   19.4530 C   0  0  0  0  0  3  0  0  0  0  0  0
  -24.9880  -27.7170   19.4760 C   0  0  0  0  0  3  0  0  0  0  0  0
  -23.6850  -29.8210   20.1450 C   0  0  0  0  0  2  0  0  0  0  0  0
  -24.7230  -31.0990   22.0730 N   0  0  0  0  0  0  0  0  0  0  0  0
  -23.5680  -32.1400   23.7250 O   0  0  0  0  0  0  0  0  0  0  0  0
  -22.8280  -29.4510   22.4820 C   0  0  0  0  0  0  0  0  0  0  0  0
  -21.5080  -29.2410   22.3500 N   0  0  0  0  0  0  0  0  0  0  0  0
  -23.5220  -28.8320   23.2930 O   0  0  0  0  0  0  0  0  0  0  0  0
  -21.0060  -29.7970   21.6720 H   0  0  0  0  0  0  0  0  0  0  0  0
  -18.1580  -27.9740   22.8300 C   0  0  0  0  0  0  0  0  0  0  0  0
  -20.7100  -28.2820   23.1110 C   0  0  0  0  0  3  0  0  0  0  0  0
  -20.8430  -26.8550   22.5290 C   0  0  0  0  0  2  0  0  0  0  0  0
  -19.7510  -26.5160   21.5090 C   0  0  0  0  0  2  0  0  0  0  0  0
  -18.3640  -26.6310   22.1500 C   0  0  0  0  0  2  0  0  0  0  0  0
  -19.2600  -28.7550   23.2690 C   0  0  0  0  0  0  0  0  0  0  0  0
  -19.0160  -30.0130   23.8620 C   0  0  0  0  0  3  0  0  0  0  0  0
  -17.7010  -30.4870   24.0240 C   0  0  0  0  0  3  0  0  0  0  0  0
  -16.6140  -29.7030   23.6030 C   0  0  0  0  0  3  0  0  0  0  0  0
  -16.8430  -28.4480   23.0100 C   0  0  0  0  0  3  0  0  0  0  0  0
  -25.9290  -32.5360   23.8020 C   0  0  0  0  0  3  0  0  0  0  0  0
  -25.5970  -33.9260   24.1430 N   0  0  0  0  0  0  0  0  0  0  0  0
  -25.9130  -34.9900   23.3910 C   0  0  0  0  0  0  0  0  0  0  0  0
  -26.5840  -34.9060   22.3580 O   0  0  0  0  0  0  0  0  0  0  0  0
  -24.9970  -34.0600   24.9430 H   0  0  0  0  0  0  0  0  0  0  0  0
  -24.1610  -36.7630   23.0490 C   0  0  0  0  0  1  0  0  0  0  0  0
  -25.4040  -36.3670   23.8600 C   0  0  0  0  0  3  0  0  0  0  0  0
  -27.5220  -37.2790   24.7070 C   0  0  0  0  0  1  0  0  0  0  0  0
  -26.4220  -37.4370   23.7580 N   0  0  0  0  0  0  0  0  0  0  0  0
  -26.0000  -38.3490   23.9070 H   0  0  0  0  0  0  0  0  0  0  0  0
  -26.4610  -31.7620   25.0690 C   0  0  1  0  0  0  0  0  0  0  0  0
  -25.3790  -31.4990   26.1410 C   0  0  0  0  0  1  0  0  0  0  0  0
  -27.0630  -30.3970   24.6630 C   0  0  0  0  0  1  0  0  0  0  0  0
  -27.5960  -32.5710   25.7340 C   0  0  0  0  0  1  0  0  0  0  0  0
  -29.4150  -18.2290   20.5460 O   0  0  0  0  0  0  0  0  0  0  0  0
  -30.4070  -17.2830   21.0210 C   0  0  0  0  0  2  0  0  0  0  0  0
  -29.8610  -15.8210   21.1060 C   0  0  0  0  0  2  0  0  0  0  0  0
  -30.6840  -14.6580   20.4610 C   0  0  0  0  0  0  0  0  0  0  0  0
  -30.4740  -12.4870   19.2560 C   0  0  0  0  0  2  0  0  0  0  0  0
  -29.5230  -12.6680   18.0550 C   0  0  0  0  0  2  0  0  0  0  0  0
  -28.0550  -12.4930   18.4790 C   0  0  0  0  0  2  0  0  0  0  0  0
  -27.6990  -13.3340   19.7310 C   0  0  0  0  0  3  0  0  0  0  0  0
  -28.7510  -13.1170   20.8420 C   0  0  0  0  0  2  0  0  0  0  0  0
  -30.0740  -13.4510   20.2940 N   0  0  0  0  0  0  0  0  0  0  0  0
  -31.8150  -14.8760   20.0120 O   0  0  0  0  0  0  0  0  0  0  0  0
  -25.2940  -13.9270   20.4260 C   0  0  0  0  0  0  0  0  0  0  0  0
  -24.2320  -13.1500   20.7960 C   0  0  0  0  0  0  0  0  0  0  0  0
  -24.7090  -11.8030   20.7850 C   0  0  0  0  0  0  0  0  0  0  0  0
  -26.3490  -13.0540   20.2080 N   0  0  0  0  0  0  0  0  0  0  0  0
  -26.0010  -11.7730   20.4840 N   0  0  0  0  0  0  0  0  0  0  0  0
  -23.9990  -10.5350   20.9860 C   0  0  0  0  0  0  0  0  0  0  0  0
  -24.4350   -9.5900   21.9380 C   0  0  0  0  0  3  0  0  0  0  0  0
  -23.7260   -8.3860   22.1290 C   0  0  0  0  0  3  0  0  0  0  0  0
  -22.5660   -8.1150   21.3660 C   0  0  0  0  0  0  0  0  0  0  0  0
  -22.1490   -9.0500   20.4020 C   0  0  0  0  0  3  0  0  0  0  0  0
  -22.8580  -10.2480   20.2120 C   0  0  0  0  0  3  0  0  0  0  0  0
  -21.8280   -6.9620   21.4620 O   0  0  0  0  0  0  0  0  0  0  0  0
  -21.7770   -6.2370   22.6260 C   0  0  0  0  0  0  0  0  0  0  0  0
  -21.3240   -6.8010   23.8390 C   0  0  0  0  0  3  0  0  0  0  0  0
  -21.2200   -5.9970   24.9900 C   0  0  0  0  0  3  0  0  0  0  0  0
  -21.5580   -4.6320   24.9320 C   0  0  0  0  0  0  0  0  0  0  0  0
  -22.0060   -4.0690   23.7240 C   0  0  0  0  0  3  0  0  0  0  0  0
  -22.1110   -4.8680   22.5740 C   0  0  0  0  0  0  0  0  0  0  0  0
  -22.5200   -4.3150   21.4080 F   0  0  0  0  0  0  0  0  0  0  0  0
  -21.4500   -3.8620   26.0390 F   0  0  0  0  0  0  0  0  0  0  0  0
  -22.8280  -13.6110   21.0570 C   0  0  0  0  0  0  0  0  0  0  0  0
  -22.1010  -12.9130   21.9220 N   0  0  0  0  0  0  0  0  0  0  0  0
  -22.3800  -14.6250   20.5220 O   0  0  0  0  0  0  0  0  0  0  0  0
  -22.4730  -12.0910   22.3710 H   0  0  0  0  0  0  0  0  0  0  0  0
  -21.1570  -13.2050   22.1370 H   0  0  0  0  0  0  0  0  0  0  0  0
  -25.4510  -15.2990   20.2380 N   0  0  0  0  0  0  0  0  0  0  0  0
  -24.6850  -15.9580   20.3340 H   0  0  0  0  0  0  0  0  0  0  0  0
  -26.3050  -15.7330   19.9110 H   0  0  0  0  0  0  0  0  0  0  0  0
  1  3  2  0
  1  2  1  0
  2  5  2  0
  3  6  1  0
  4  8  1  0
  5  4  1  0
  5 11  1  0
  6 54  1  0
  6  4  2  0
  7  3  1  0
  9 11  2  0
  9 12  1  0
 10  9  1  0
 13 15  1  0
 13 12  1  0
 14 25  2  0
 15 20  1  0
 16 24  1  0
 16 26  1  0
 17 23  1  0
 17 19  1  0
 18 24  1  0
 19 18  1  0
 20 19  2  0
 21 22  1  0
 21 15  2  0
 22 17  2  0
 23 16  1  0
 24 14  1  0
 26 28  2  0
 27 26  1  0
 29 27  1  0
 30 39  2  0
 30 35  1  0
 31 27  1  0
 31 35  1  0
 32 31  1  0
 33 34  1  0
 33 32  1  0
 34 30  1  0
 35 36  2  0
 36 37  1  0
 38 37  2  0
 39 38  1  0
 40 14  1  0
 40 41  1  0
 40 50  1  0
 41 44  1  0
 42 46  1  0
 42 41  1  0
 43 42  2  0
 46 45  1  0
 48 46  1  0
 48 49  1  0
 48 47  1  0
 50 53  1  1
 50 51  1  0
 52 50  1  0
 54 55  1  0
 55 56  1  0
 57 56  1  0
 58 63  1  0
 59 60  1  0
 59 58  1  0
 61 60  1  0
 61 68  1  0
 61 62  1  0
 63 57  1  0
 63 62  1  0
 64 57  2  0
 65 66  2  0
 66 85  1  0
 67 66  1  0
 67 70  1  0
 68 65  1  0
 68 69  1  0
 69 67  2  0
 70 71  1  0
 71 72  2  0
 73 76  1  0
 73 72  1  0
 74 73  2  0
 75 74  1  0
 75 70  2  0
 76 77  1  0
 77 78  1  0
 78 79  2  0
 80 79  1  0
 80 84  1  0
 81 80  2  0
 82 77  2  0
 82 81  1  0
 83 82  1  0
 85 86  1  0
 86 89  1  0
 86 88  1  0
 87 85  2  0
 90 91  1  0
 90 65  1  0
 92 90  1  0
M  ISO  4  12 101  13 101  56 100  57 100
M  END
>  <TORSDO>  (34) 
F 21

>  <SCORE>  (34) 
-12.966

>  <name>  (34) 
33

>  <ligand_id>  (34) 
33

>  <original_smiles>  (34) 
[H]c1c([H])c([H])c2c(c1[H])C([H])([H])C([H])([H])C([H])([H])C2([H])N([H])C(=O)C1([H])N(C(=O)C([H])(N([H])C(=O)C([H])(N([H])C([H])([H])[H])C([H])([H])[H])C(C([H])([H])[H])(C([H])([H])[H])C([H])([H])[H])C([H])([H])c2c([H])c(OC([H])([H])C(=Nc3c([H])c([H])c(C([H])([H])[H])c(OC([H])([H])C([H])([H])C(=O)N4C([H])([H])C([H])([H])C([H])([H])C([H])(n5nc(-c6c([H])c([H])c(Oc7c([H])c([H])c(F)c([H])c7F)c([H])c6[H])c(C(=O)N([H])[H])c5N([H])[H])C4([H])[H])c3C([H])([H])[H])C([H])([H])[H])c([H])c([H])c2C1([H])[H]

>  <smiles>  (34) 
[H]c1c([H])c([H])c2c(c1[H])C([H])([H])C([H])([H])C([H])([H])C2([H])N([H])C(=O)C1([H])N(C(=O)C([H])(N([H])C(=O)C([H])(N([H])C([H])([H])[H])C([H])([H])[H])C(C([H])([H])[H])(C([H])([H])[H])C([H])([H])[H])C([H])([H])c2c([H])c(OC([H])([H])C(=Nc3c([H])c([H])c(C([H])([H])[H])c(OC([H])([H])C([H])([H])C(=O)N4C([H])([H])C([H])([H])C([H])([H])C([H])(n5nc(-c6c([H])c([H])c(Oc7c([H])c([H])c(F)c([H])c7F)c([H])c6[H])c(C(=O)N([H])[H])c5N([H])[H])C4([H])[H])c3C([H])([H])[H])C([H])([H])[H])c([H])c([H])c2C1([H])[H]

$$$$
34:0:0
     RDKit          3D

 91 99  0  0  1  0  0  0  0  0999 V2000
  -30.0370  -19.4650   21.0440 C   0  0  0  0  0  3  0  0  0  0  0  0
  -27.9200  -20.1460   20.0700 C   0  0  0  0  0  3  0  0  0  0  0  0
  -28.6100  -17.7920   20.0070 C   0  0  0  0  0  3  0  0  0  0  0  0
  -29.1010  -20.5100   20.7550 C   0  0  0  0  0  0  0  0  0  0  0  0
  -29.8150  -18.0970   20.6720 C   0  0  0  0  0  0  0  0  0  0  0  0
  -27.6730  -18.8040   19.7050 C   0  0  0  0  0  0  0  0  0  0  0  0
  -26.5170  -18.4840   19.0720 F   0  0  0  0  0  0  0  0  0  0  0  0
  -29.2260  -21.9240   21.2680 C   0  0  0  0  0  3  0  0  0  0  0  0
  -28.8780  -23.1000   20.6620 C   0  0  0  0  0  3  0  0  0  0  0  0
  -28.8130  -24.4160   21.3690 C   0  0  0  0  0  3  0  0  0  0  0  0
  -28.5900  -25.7320   21.0060 C   0  0  0  0  0  3  0  0  0  0  0  0
  -28.4690  -26.7170   20.0290 O   0  0  0  0  0  0  0  0  0  0  0  0
  -24.5770  -31.8600   23.1920 C   0  0  0  0  0  0  0  0  0  0  0  0
  -27.3480  -27.5330   20.0460 C   0  0  0  0  0  0  0  0  0  0  0  0
  -23.4320  -30.4920   21.4800 C   0  0  0  0  0  3  0  0  0  0  0  0
  -24.9470  -29.0420   20.0220 C   0  0  0  0  0  0  0  0  0  0  0  0
  -25.9580  -30.9000   21.3500 C   0  0  0  0  0  2  0  0  0  0  0  0
  -26.0840  -29.5540   20.6630 C   0  0  0  0  0  0  0  0  0  0  0  0
  -27.2910  -28.8050   20.6780 C   0  0  0  0  0  3  0  0  0  0  0  0
  -26.2020  -27.0580   19.3780 C   0  0  0  0  0  3  0  0  0  0  0  0
  -25.0060  -27.7980   19.3710 C   0  0  0  0  0  3  0  0  0  0  0  0
  -23.6860  -29.8780   20.0780 C   0  0  0  0  0  2  0  0  0  0  0  0
  -24.6710  -31.1020   22.0630 N   0  0  0  0  0  0  0  0  0  0  0  0
  -23.4790  -32.0890   23.7220 O   0  0  0  0  0  0  0  0  0  0  0  0
  -22.7900  -29.4210   22.3910 C   0  0  0  0  0  0  0  0  0  0  0  0
  -21.4620  -29.2420   22.2680 N   0  0  0  0  0  0  0  0  0  0  0  0
  -23.4780  -28.7540   23.1680 O   0  0  0  0  0  0  0  0  0  0  0  0
  -20.9660  -29.8310   21.6150 H   0  0  0  0  0  0  0  0  0  0  0  0
  -18.0870  -28.0540   22.7850 C   0  0  0  0  0  0  0  0  0  0  0  0
  -20.6560  -28.2630   22.9950 C   0  0  0  0  0  3  0  0  0  0  0  0
  -20.7200  -26.8750   22.3180 C   0  0  0  0  0  2  0  0  0  0  0  0
  -19.5850  -26.6370   21.3170 C   0  0  0  0  0  2  0  0  0  0  0  0
  -18.2250  -26.7520   22.0110 C   0  0  0  0  0  2  0  0  0  0  0  0
  -19.2290  -28.7710   23.2320 C   0  0  0  0  0  0  0  0  0  0  0  0
  -19.0440  -29.9920   23.9160 C   0  0  0  0  0  3  0  0  0  0  0  0
  -17.7520  -30.4960   24.1540 C   0  0  0  0  0  3  0  0  0  0  0  0
  -16.6260  -29.7760   23.7220 C   0  0  0  0  0  3  0  0  0  0  0  0
  -16.7940  -28.5560   23.0430 C   0  0  0  0  0  3  0  0  0  0  0  0
  -25.8390  -32.4960   23.8570 C   0  0  0  0  0  3  0  0  0  0  0  0
  -26.3170  -31.7290   25.1500 C   0  0  1  0  0  0  0  0  0  0  0  0
  -25.1910  -31.4870   26.1820 C   0  0  0  0  0  1  0  0  0  0  0  0
  -26.9200  -30.3530   24.7810 C   0  0  0  0  0  1  0  0  0  0  0  0
  -27.4410  -32.5300   25.8470 C   0  0  0  0  0  1  0  0  0  0  0  0
  -25.5110  -33.8940   24.1750 N   0  0  0  0  0  0  0  0  0  0  0  0
  -25.8620  -34.9460   23.4240 C   0  0  0  0  0  0  0  0  0  0  0  0
  -26.5660  -34.8440   22.4160 O   0  0  0  0  0  0  0  0  0  0  0  0
  -24.8860  -34.0450   24.9520 H   0  0  0  0  0  0  0  0  0  0  0  0
  -24.1320  -36.7240   23.0160 C   0  0  0  0  0  1  0  0  0  0  0  0
  -25.3530  -36.3330   23.8620 C   0  0  0  0  0  3  0  0  0  0  0  0
  -27.4590  -37.2320   24.7480 C   0  0  0  0  0  1  0  0  0  0  0  0
  -26.3820  -37.3910   23.7730 N   0  0  0  0  0  0  0  0  0  0  0  0
  -25.9660  -38.3080   23.9100 H   0  0  0  0  0  0  0  0  0  0  0  0
  -30.8610  -16.9810   20.9740 C   0  0  0  0  0  2  0  0  0  0  0  0
  -31.0090  -14.4910   20.4280 C   0  0  0  0  0  0  0  0  0  0  0  0
  -30.6680  -12.2550   19.3820 C   0  0  0  0  0  2  0  0  0  0  0  0
  -29.7510  -12.3570   18.1430 C   0  0  0  0  0  2  0  0  0  0  0  0
  -28.2710  -12.2740   18.5530 C   0  0  0  0  0  2  0  0  0  0  0  0
  -27.9270  -13.2160   19.7340 C   0  0  0  0  0  3  0  0  0  0  0  0
  -28.9510  -13.0760   20.8840 C   0  0  0  0  0  2  0  0  0  0  0  0
  -30.2940  -13.3240   20.3360 N   0  0  0  0  0  0  0  0  0  0  0  0
  -32.1270  -14.6070   19.9140 O   0  0  0  0  0  0  0  0  0  0  0  0
  -30.4000  -15.5610   21.0110 N   0  0  0  0  0  0  0  0  0  0  0  0
  -29.5350  -15.3710   21.4970 H   0  0  0  0  0  0  0  0  0  0  0  0
  -25.5520  -13.9420   20.3980 C   0  0  0  0  0  0  0  0  0  0  0  0
  -24.4430  -13.2280   20.7700 C   0  0  0  0  0  0  0  0  0  0  0  0
  -24.8400  -11.8570   20.7630 C   0  0  0  0  0  0  0  0  0  0  0  0
  -26.5560  -13.0110   20.1950 N   0  0  0  0  0  0  0  0  0  0  0  0
  -26.1310  -11.7510   20.4720 N   0  0  0  0  0  0  0  0  0  0  0  0
  -24.0520  -10.6330   20.9600 C   0  0  0  0  0  0  0  0  0  0  0  0
  -24.4460   -9.6440   21.8870 C   0  0  0  0  0  3  0  0  0  0  0  0
  -23.6630   -8.4830   22.0730 C   0  0  0  0  0  3  0  0  0  0  0  0
  -22.4670   -8.3100   21.3360 C   0  0  0  0  0  0  0  0  0  0  0  0
  -22.0910   -9.2880   20.4000 C   0  0  0  0  0  3  0  0  0  0  0  0
  -22.8760  -10.4380   20.2110 C   0  0  0  0  0  3  0  0  0  0  0  0
  -21.6560   -7.2050   21.4330 O   0  0  0  0  0  0  0  0  0  0  0  0
  -21.6050   -6.4480   22.5770 C   0  0  0  0  0  0  0  0  0  0  0  0
  -21.2680   -7.0110   23.8270 C   0  0  0  0  0  3  0  0  0  0  0  0
  -21.1590   -6.1840   24.9630 C   0  0  0  0  0  3  0  0  0  0  0  0
  -21.3730   -4.7970   24.8510 C   0  0  0  0  0  0  0  0  0  0  0  0
  -21.7020   -4.2360   23.6050 C   0  0  0  0  0  3  0  0  0  0  0  0
  -21.8140   -5.0590   22.4710 C   0  0  0  0  0  0  0  0  0  0  0  0
  -22.1120   -4.5090   21.2680 F   0  0  0  0  0  0  0  0  0  0  0  0
  -21.2590   -4.0020   25.9390 F   0  0  0  0  0  0  0  0  0  0  0  0
  -23.0670  -13.7770   21.0150 C   0  0  0  0  0  0  0  0  0  0  0  0
  -22.3040  -13.1380   21.8940 N   0  0  0  0  0  0  0  0  0  0  0  0
  -22.6760  -14.8060   20.4650 O   0  0  0  0  0  0  0  0  0  0  0  0
  -22.6290  -12.3010   22.3570 H   0  0  0  0  0  0  0  0  0  0  0  0
  -21.3770  -13.4820   22.1000 H   0  0  0  0  0  0  0  0  0  0  0  0
  -25.7890  -15.3030   20.2060 N   0  0  0  0  0  0  0  0  0  0  0  0
  -25.0670  -16.0020   20.3400 H   0  0  0  0  0  0  0  0  0  0  0  0
  -26.6610  -15.6940   19.8690 H   0  0  0  0  0  0  0  0  0  0  0  0
  2  4  2  0
  3  5  1  0
  4  1  1  0
  4  8  1  0
  5 53  1  0
  5  1  2  0
  6  3  2  0
  6  2  1  0
  7  6  1  0
  9  8  2  0
  9 10  1  0
 11 10  2  0
 12 14  1  0
 12 11  1  0
 13 24  2  0
 14 19  1  0
 15 23  1  0
 15 25  1  0
 16 22  1  0
 16 18  1  0
 17 23  1  0
 18 19  2  0
 18 17  1  0
 20 14  2  0
 21 20  1  0
 21 16  2  0
 22 15  1  0
 23 13  1  0
 25 27  2  0
 26 25  1  0
 28 26  1  0
 29 38  2  0
 29 34  1  0
 30 26  1  0
 30 34  1  0
 31 30  1  0
 32 33  1  0
 32 31  1  0
 33 29  1  0
 34 35  2  0
 35 36  1  0
 37 36  2  0
 38 37  1  0
 39 13  1  0
 39 44  1  0
 39 40  1  0
 40 43  1  1
 40 41  1  0
 42 40  1  0
 44 47  1  0
 45 49  1  0
 45 44  1  0
 46 45  2  0
 49 48  1  0
 51 49  1  0
 51 52  1  0
 51 50  1  0
 53 62  1  0
 54 62  1  0
 55 60  1  0
 56 57  1  0
 56 55  1  0
 58 57  1  0
 58 67  1  0
 58 59  1  0
 60 54  1  0
 60 59  1  0
 61 54  2  0
 62 63  1  0
 64 65  2  0
 65 84  1  0
 66 65  1  0
 66 69  1  0
 67 64  1  0
 67 68  1  0
 68 66  2  0
 69 70  1  0
 70 71  2  0
 72 75  1  0
 72 71  1  0
 73 72  2  0
 74 73  1  0
 74 69  2  0
 75 76  1  0
 76 77  1  0
 77 78  2  0
 79 78  1  0
 79 83  1  0
 80 79  2  0
 81 76  2  0
 81 80  1  0
 82 81  1  0
 84 85  1  0
 85 88  1  0
 85 87  1  0
 86 84  2  0
 89 90  1  0
 89 64  1  0
 91 89  1  0
M  ISO  4  11 101  12 101  54 100  62 100
M  END
>  <TORSDO>  (35) 
F 19

>  <SCORE>  (35) 
-14.317

>  <name>  (35) 
34

>  <ligand_id>  (35) 
34

>  <original_smiles>  (35) 
[H]C(Oc1c([H])c([H])c2c(c1[H])C([H])([H])N(C(=O)C([H])(N([H])C(=O)C([H])(N([H])C([H])([H])[H])C([H])([H])[H])C(C([H])([H])[H])(C([H])([H])[H])C([H])([H])[H])C([H])(C(=O)N([H])C1([H])c3c([H])c([H])c([H])c([H])c3C([H])([H])C([H])([H])C1([H])[H])C2([H])[H])=C([H])C([H])=C([H])c1c([H])c(F)c([H])c(C([H])([H])N([H])C(=O)N2C([H])([H])C([H])([H])C([H])([H])C([H])(n3nc(-c4c([H])c([H])c(Oc5c([H])c([H])c(F)c([H])c5F)c([H])c4[H])c(C(=O)N([H])[H])c3N([H])[H])C2([H])[H])c1[H]

>  <smiles>  (35) 
[H]C(Oc1c([H])c([H])c2c(c1[H])C([H])([H])N(C(=O)C([H])(N([H])C(=O)C([H])(N([H])C([H])([H])[H])C([H])([H])[H])C(C([H])([H])[H])(C([H])([H])[H])C([H])([H])[H])C([H])(C(=O)N([H])C1([H])c3c([H])c([H])c([H])c([H])c3C([H])([H])C([H])([H])C1([H])[H])C2([H])[H])=C([H])C([H])=C([H])c1c([H])c(F)c([H])c(C([H])([H])N([H])C(=O)N2C([H])([H])C([H])([H])C([H])([H])C([H])(n3nc(-c4c([H])c([H])c(Oc5c([H])c([H])c(F)c([H])c5F)c([H])c4[H])c(C(=O)N([H])[H])c3N([H])[H])C2([H])[H])c1[H]

$$$$
35:0:0
     RDKit          3D

 91 99  0  0  1  0  0  0  0  0999 V2000
  -28.3060  -20.3660   20.4100 C   0  0  0  0  0  3  0  0  0  0  0  0
  -28.1530  -21.7090   20.2340 C   0  0  0  0  0  3  0  0  0  0  0  0
  -30.7580  -19.8080   20.9290 C   0  0  0  0  0  3  0  0  0  0  0  0
  -29.1950  -18.0190   20.4290 C   0  0  0  0  0  3  0  0  0  0  0  0
  -31.5040  -17.4720   20.9310 C   0  0  0  0  0  3  0  0  0  0  0  0
  -29.4470  -19.4140   20.5930 C   0  0  0  0  0  0  0  0  0  0  0  0
  -31.7760  -18.8460   21.1120 C   0  0  0  0  0  0  0  0  0  0  0  0
  -30.2070  -17.0330   20.5860 C   0  0  0  0  0  0  0  0  0  0  0  0
  -33.1700  -19.2850   21.5100 C   0  0  0  0  0  1  0  0  0  0  0  0
  -30.6460  -14.5640   20.1930 C   0  0  0  0  0  0  0  0  0  0  0  0
  -30.3320  -12.3680   19.1090 C   0  0  0  0  0  2  0  0  0  0  0  0
  -29.3640  -12.5690   17.9250 C   0  0  0  0  0  2  0  0  0  0  0  0
  -27.8970  -12.4380   18.3850 C   0  0  0  0  0  2  0  0  0  0  0  0
  -27.5900  -13.2800   19.6530 C   0  0  0  0  0  3  0  0  0  0  0  0
  -28.6800  -13.0860   20.7340 C   0  0  0  0  0  2  0  0  0  0  0  0
  -29.9800  -13.3770   20.1160 N   0  0  0  0  0  0  0  0  0  0  0  0
  -31.8140  -14.6870   19.8180 O   0  0  0  0  0  0  0  0  0  0  0  0
  -29.8590  -15.6380   20.4480 N   0  0  0  0  0  0  0  0  0  0  0  0
  -28.8750  -15.4230   20.4910 H   0  0  0  0  0  0  0  0  0  0  0  0
  -25.2150  -13.8860   20.4420 C   0  0  0  0  0  0  0  0  0  0  0  0
  -24.1590  -13.1140   20.8420 C   0  0  0  0  0  0  0  0  0  0  0  0
  -24.6200  -11.7620   20.7920 C   0  0  0  0  0  0  0  0  0  0  0  0
  -26.2510  -13.0060   20.1730 N   0  0  0  0  0  0  0  0  0  0  0  0
  -25.9000  -11.7230   20.4480 N   0  0  0  0  0  0  0  0  0  0  0  0
  -23.8970  -10.4990   20.9920 C   0  0  0  0  0  0  0  0  0  0  0  0
  -24.3480   -9.5310   21.9140 C   0  0  0  0  0  3  0  0  0  0  0  0
  -23.6300   -8.3300   22.1050 C   0  0  0  0  0  3  0  0  0  0  0  0
  -22.4420   -8.0920   21.3740 C   0  0  0  0  0  0  0  0  0  0  0  0
  -22.0100   -9.0480   20.4370 C   0  0  0  0  0  3  0  0  0  0  0  0
  -22.7310  -10.2390   20.2460 C   0  0  0  0  0  3  0  0  0  0  0  0
  -21.6910   -6.9460   21.4760 O   0  0  0  0  0  0  0  0  0  0  0  0
  -21.6610   -6.2050   22.6300 C   0  0  0  0  0  0  0  0  0  0  0  0
  -21.2470   -6.7580   23.8630 C   0  0  0  0  0  3  0  0  0  0  0  0
  -21.1670   -5.9410   25.0080 C   0  0  0  0  0  3  0  0  0  0  0  0
  -21.4880   -4.5730   24.9230 C   0  0  0  0  0  0  0  0  0  0  0  0
  -21.8940   -4.0210   23.6960 C   0  0  0  0  0  3  0  0  0  0  0  0
  -21.9780   -4.8340   22.5530 C   0  0  0  0  0  0  0  0  0  0  0  0
  -22.3490   -4.2920   21.3680 F   0  0  0  0  0  0  0  0  0  0  0  0
  -21.4010   -3.7870   26.0210 F   0  0  0  0  0  0  0  0  0  0  0  0
  -22.7660  -13.5880   21.1460 C   0  0  0  0  0  0  0  0  0  0  0  0
  -22.0600  -12.8890   22.0250 N   0  0  0  0  0  0  0  0  0  0  0  0
  -22.3150  -14.6160   20.6380 O   0  0  0  0  0  0  0  0  0  0  0  0
  -22.4380  -12.0600   22.4580 H   0  0  0  0  0  0  0  0  0  0  0  0
  -21.1240  -13.1820   22.2670 H   0  0  0  0  0  0  0  0  0  0  0  0
  -25.3740  -15.2580   20.2590 N   0  0  0  0  0  0  0  0  0  0  0  0
  -24.6100  -15.9090   20.4080 H   0  0  0  0  0  0  0  0  0  0  0  0
  -26.1790  -15.6910   19.8290 H   0  0  0  0  0  0  0  0  0  0  0  0
  -29.1230  -22.8900   20.0760 C   0  0  0  0  0  2  0  0  0  0  0  0
  -28.5470  -24.2760   20.5560 C   0  0  0  0  0  2  0  0  0  0  0  0
  -28.6800  -25.4890   19.5790 C   0  0  0  0  0  2  0  0  0  0  0  0
  -28.4550  -26.7820   20.2010 O   0  0  0  0  0  0  0  0  0  0  0  0
  -24.5710  -31.9370   23.2470 C   0  0  0  0  0  0  0  0  0  0  0  0
  -27.2410  -27.4620   20.1740 C   0  0  0  0  0  0  0  0  0  0  0  0
  -23.3650  -30.5300   21.6040 C   0  0  0  0  0  3  0  0  0  0  0  0
  -24.8250  -28.9720   20.1900 C   0  0  0  0  0  0  0  0  0  0  0  0
  -25.8930  -30.8820   21.4020 C   0  0  0  0  0  2  0  0  0  0  0  0
  -25.9810  -29.5030   20.7720 C   0  0  0  0  0  0  0  0  0  0  0  0
  -27.1830  -28.7540   20.7600 C   0  0  0  0  0  3  0  0  0  0  0  0
  -26.0580  -26.9430   19.6020 C   0  0  0  0  0  3  0  0  0  0  0  0
  -24.8600  -27.6940   19.6030 C   0  0  0  0  0  3  0  0  0  0  0  0
  -23.5760  -29.8290   20.2330 C   0  0  0  0  0  2  0  0  0  0  0  0
  -24.6270  -31.1340   22.1430 N   0  0  0  0  0  0  0  0  0  0  0  0
  -23.4920  -32.2110   23.7890 O   0  0  0  0  0  0  0  0  0  0  0  0
  -22.7030  -29.5220   22.5720 C   0  0  0  0  0  0  0  0  0  0  0  0
  -21.3770  -29.3470   22.4500 N   0  0  0  0  0  0  0  0  0  0  0  0
  -23.3850  -28.8940   23.3870 O   0  0  0  0  0  0  0  0  0  0  0  0
  -20.8900  -29.9030   21.7610 H   0  0  0  0  0  0  0  0  0  0  0  0
  -17.9980  -28.1710   22.9570 C   0  0  0  0  0  0  0  0  0  0  0  0
  -20.5580  -28.4130   23.2230 C   0  0  0  0  0  3  0  0  0  0  0  0
  -20.6510  -26.9790   22.6480 C   0  0  0  0  0  2  0  0  0  0  0  0
  -19.5440  -26.6670   21.6350 C   0  0  0  0  0  2  0  0  0  0  0  0
  -18.1630  -26.8200   22.2810 C   0  0  0  0  0  2  0  0  0  0  0  0
  -19.1220  -28.9260   23.3850 C   0  0  0  0  0  0  0  0  0  0  0  0
  -18.9140  -30.1890   23.9760 C   0  0  0  0  0  3  0  0  0  0  0  0
  -17.6120  -30.6990   24.1450 C   0  0  0  0  0  3  0  0  0  0  0  0
  -16.5020  -29.9430   23.7360 C   0  0  0  0  0  3  0  0  0  0  0  0
  -16.6950  -28.6830   23.1440 C   0  0  0  0  0  3  0  0  0  0  0  0
  -25.8570  -32.5640   23.8670 C   0  0  0  0  0  3  0  0  0  0  0  0
  -26.3700  -31.7970   25.1460 C   0  0  1  0  0  0  0  0  0  0  0  0
  -25.2780  -31.5720   26.2170 C   0  0  0  0  0  1  0  0  0  0  0  0
  -26.9480  -30.4160   24.7580 C   0  0  0  0  0  1  0  0  0  0  0  0
  -27.5220  -32.5930   25.8020 C   0  0  0  0  0  1  0  0  0  0  0  0
  -25.5520  -33.9650   24.1910 N   0  0  0  0  0  0  0  0  0  0  0  0
  -25.9030  -35.0130   23.4350 C   0  0  0  0  0  0  0  0  0  0  0  0
  -26.5800  -34.9000   22.4090 O   0  0  0  0  0  0  0  0  0  0  0  0
  -24.9310  -34.1220   24.9710 H   0  0  0  0  0  0  0  0  0  0  0  0
  -24.1910  -36.8200   23.0570 C   0  0  0  0  0  1  0  0  0  0  0  0
  -25.4220  -36.4070   23.8830 C   0  0  0  0  0  3  0  0  0  0  0  0
  -27.5550  -37.2820   24.7240 C   0  0  0  0  0  1  0  0  0  0  0  0
  -26.4620  -37.4540   23.7730 N   0  0  0  0  0  0  0  0  0  0  0  0
  -26.0600  -38.3770   23.9150 H   0  0  0  0  0  0  0  0  0  0  0  0
  1  6  1  0
  2  1  2  0
  3  7  1  0
  4  8  2  0
  4  6  1  0
  5  7  2  0
  6  3  2  0
  7  9  1  0
  8  5  1  0
 10 18  1  0
 11 16  1  0
 12 13  1  0
 12 11  1  0
 14 13  1  0
 14 23  1  0
 14 15  1  0
 16 10  1  0
 16 15  1  0
 17 10  2  0
 18 19  1  0
 18  8  1  0
 20 21  2  0
 21 40  1  0
 22 21  1  0
 22 25  1  0
 23 20  1  0
 23 24  1  0
 24 22  2  0
 25 26  1  0
 26 27  2  0
 28 31  1  0
 28 27  1  0
 29 28  2  0
 30 29  1  0
 30 25  2  0
 31 32  1  0
 32 33  1  0
 33 34  2  0
 35 34  1  0
 35 39  1  0
 36 35  2  0
 37 32  2  0
 37 36  1  0
 38 37  1  0
 40 41  1  0
 41 44  1  0
 41 43  1  0
 42 40  2  0
 45 46  1  0
 45 20  1  0
 47 45  1  0
 48  2  1  0
 48 49  1  0
 50 51  1  0
 50 49  1  0
 52 63  2  0
 53 51  1  0
 53 58  1  0
 54 62  1  0
 54 64  1  0
 55 61  1  0
 55 57  1  0
 56 62  1  0
 57 56  1  0
 58 57  2  0
 59 60  1  0
 59 53  2  0
 60 55  2  0
 61 54  1  0
 62 52  1  0
 64 66  2  0
 65 64  1  0
 67 65  1  0
 68 77  2  0
 68 73  1  0
 69 65  1  0
 69 73  1  0
 70 69  1  0
 71 72  1  0
 71 70  1  0
 72 68  1  0
 73 74  2  0
 74 75  1  0
 76 75  2  0
 77 76  1  0
 78 52  1  0
 78 83  1  0
 78 79  1  0
 79 82  1  1
 79 80  1  0
 81 79  1  0
 83 86  1  0
 84 88  1  0
 84 83  1  0
 85 84  2  0
 88 87  1  0
 90 88  1  0
 90 91  1  0
 90 89  1  0
M  ISO  4  10 100  18 100  50 101  51 101
M  END
>  <TORSDO>  (36) 
F 20

>  <SCORE>  (36) 
-14.132

>  <name>  (36) 
35

>  <ligand_id>  (36) 
35

>  <original_smiles>  (36) 
[H]C(=C([H])C([H])([H])C([H])([H])C([H])([H])Oc1c([H])c([H])c2c(c1[H])C([H])([H])N(C(=O)C([H])(N([H])C(=O)C([H])(N([H])C([H])([H])[H])C([H])([H])[H])C(C([H])([H])[H])(C([H])([H])[H])C([H])([H])[H])C([H])(C(=O)N([H])C1([H])c3c([H])c([H])c([H])c([H])c3C([H])([H])C([H])([H])C1([H])[H])C2([H])[H])c1c([H])c(N([H])C(=O)N2C([H])([H])C([H])([H])C([H])([H])C([H])(n3nc(-c4c([H])c([H])c(Oc5c([H])c([H])c(F)c([H])c5F)c([H])c4[H])c(C(=O)N([H])[H])c3N([H])[H])C2([H])[H])c([H])c(C([H])([H])[H])c1[H]

>  <smiles>  (36) 
[H]C(=C([H])C([H])([H])C([H])([H])C([H])([H])Oc1c([H])c([H])c2c(c1[H])C([H])([H])N(C(=O)C([H])(N([H])C(=O)C([H])(N([H])C([H])([H])[H])C([H])([H])[H])C(C([H])([H])[H])(C([H])([H])[H])C([H])([H])[H])C([H])(C(=O)N([H])C1([H])c3c([H])c([H])c([H])c([H])c3C([H])([H])C([H])([H])C1([H])[H])C2([H])[H])c1c([H])c(N([H])C(=O)N2C([H])([H])C([H])([H])C([H])([H])C([H])(n3nc(-c4c([H])c([H])c(Oc5c([H])c([H])c(F)c([H])c5F)c([H])c4[H])c(C(=O)N([H])[H])c3N([H])[H])C2([H])[H])c([H])c(C([H])([H])[H])c1[H]

$$$$
36:0:0
     RDKit          3D

 90 98  0  0  1  0  0  0  0  0999 V2000
  -29.3740  -22.2500   21.4440 C   0  0  0  0  0  3  0  0  0  0  0  0
  -29.9810  -21.2290   22.2160 C   0  0  0  0  0  3  0  0  0  0  0  0
  -29.1990  -20.5850   19.7000 C   0  0  0  0  0  3  0  0  0  0  0  0
  -28.9020  -22.0090   20.1430 C   0  0  0  0  0  0  0  0  0  0  0  0
  -29.8770  -19.4620   20.4500 C   0  0  0  0  0  0  0  0  0  0  0  0
  -30.2110  -19.8940   21.7680 C   0  0  0  0  0  0  0  0  0  0  0  0
  -30.8840  -18.9520   22.7520 C   0  0  0  0  0  1  0  0  0  0  0  0
  -30.3350  -17.9450   19.9620 C   0  0  0  0  0  3  0  0  0  0  0  0
  -30.2500  -16.5820   20.4460 C   0  0  0  0  0  3  0  0  0  0  0  0
  -30.9550  -15.2420   19.9720 C   0  0  0  0  0  0  0  0  0  0  0  0
  -30.7580  -12.8700   19.0210 C   0  0  0  0  0  2  0  0  0  0  0  0
  -29.7700  -12.8350   17.8280 C   0  0  0  0  0  2  0  0  0  0  0  0
  -28.3280  -12.6240   18.3250 C   0  0  0  0  0  2  0  0  0  0  0  0
  -27.9910  -13.5320   19.5350 C   0  0  0  0  0  3  0  0  0  0  0  0
  -29.1000  -13.5370   20.6090 C   0  0  0  0  0  2  0  0  0  0  0  0
  -30.3430  -13.9700   19.9570 N   0  0  0  0  0  0  0  0  0  0  0  0
  -32.1140  -15.2410   19.5380 O   0  0  0  0  0  0  0  0  0  0  0  0
  -25.6770  -14.1260   20.4410 C   0  0  0  0  0  0  0  0  0  0  0  0
  -24.6140  -13.3610   20.8350 C   0  0  0  0  0  0  0  0  0  0  0  0
  -25.0380  -12.0010   20.7160 C   0  0  0  0  0  0  0  0  0  0  0  0
  -26.6790  -13.2350   20.0970 N   0  0  0  0  0  0  0  0  0  0  0  0
  -26.3100  -11.9480   20.3300 N   0  0  0  0  0  0  0  0  0  0  0  0
  -24.2870  -10.7510   20.8910 C   0  0  0  0  0  0  0  0  0  0  0  0
  -24.6560   -9.7950   21.8650 C   0  0  0  0  0  3  0  0  0  0  0  0
  -23.9040   -8.6110   22.0280 C   0  0  0  0  0  3  0  0  0  0  0  0
  -22.7680   -8.3740   21.2180 C   0  0  0  0  0  0  0  0  0  0  0  0
  -22.4170   -9.3170   20.2370 C   0  0  0  0  0  3  0  0  0  0  0  0
  -23.1690  -10.4930   20.0720 C   0  0  0  0  0  3  0  0  0  0  0  0
  -21.9950   -7.2410   21.2880 O   0  0  0  0  0  0  0  0  0  0  0  0
  -21.7390   -6.6150   22.4810 C   0  0  0  0  0  0  0  0  0  0  0  0
  -21.0820   -7.2760   23.5430 C   0  0  0  0  0  3  0  0  0  0  0  0
  -20.7760   -6.5750   24.7260 C   0  0  0  0  0  3  0  0  0  0  0  0
  -21.1180   -5.2150   24.8490 C   0  0  0  0  0  0  0  0  0  0  0  0
  -21.7670   -4.5540   23.7910 C   0  0  0  0  0  3  0  0  0  0  0  0
  -22.0730   -5.2520   22.6100 C   0  0  0  0  0  0  0  0  0  0  0  0
  -22.6800   -4.6060   21.5850 F   0  0  0  0  0  0  0  0  0  0  0  0
  -20.8170   -4.5390   25.9820 F   0  0  0  0  0  0  0  0  0  0  0  0
  -23.2490  -13.8610   21.2060 C   0  0  0  0  0  0  0  0  0  0  0  0
  -22.5650  -13.1680   22.1090 N   0  0  0  0  0  0  0  0  0  0  0  0
  -22.8000  -14.9020   20.7290 O   0  0  0  0  0  0  0  0  0  0  0  0
  -22.9430  -12.3240   22.5160 H   0  0  0  0  0  0  0  0  0  0  0  0
  -21.6520  -13.4860   22.3990 H   0  0  0  0  0  0  0  0  0  0  0  0
  -25.8690  -15.4980   20.3180 N   0  0  0  0  0  0  0  0  0  0  0  0
  -25.1310  -16.1650   20.5140 H   0  0  0  0  0  0  0  0  0  0  0  0
  -26.7120  -15.9320   19.9630 H   0  0  0  0  0  0  0  0  0  0  0  0
  -27.6370  -24.5860   19.3730 C   0  0  0  0  0  3  0  0  0  0  0  0
  -28.0650  -23.1880   19.3670 C   0  0  0  0  0  0  0  0  0  0  0  0
  -26.1660  -22.3390   18.0350 C   0  0  0  0  0  2  0  0  0  0  0  0
  -27.4850  -22.5270   18.2070 C   0  0  0  0  0  3  0  0  0  0  0  0
  -27.7600  -25.9050   20.0330 O   0  0  0  0  0  0  0  0  0  0  0  0
  -24.5960  -31.9050   23.0470 C   0  0  0  0  0  0  0  0  0  0  0  0
  -26.7900  -26.9990   19.9270 C   0  0  0  0  0  0  0  0  0  0  0  0
  -23.2360  -30.5140   21.5350 C   0  0  0  0  0  3  0  0  0  0  0  0
  -24.5260  -28.8660   20.0260 C   0  0  0  0  0  0  0  0  0  0  0  0
  -25.7800  -30.6820   21.1750 C   0  0  0  0  0  2  0  0  0  0  0  0
  -25.7640  -29.2700   20.5440 C   0  0  0  0  0  0  0  0  0  0  0  0
  -26.8890  -28.3510   20.4830 C   0  0  0  0  0  3  0  0  0  0  0  0
  -25.5260  -26.7200   19.3610 C   0  0  0  0  0  3  0  0  0  0  0  0
  -24.4240  -27.6070   19.4150 C   0  0  0  0  0  3  0  0  0  0  0  0
  -23.3320  -29.8050   20.1560 C   0  0  0  0  0  2  0  0  0  0  0  0
  -24.5630  -31.0580   21.9710 N   0  0  0  0  0  0  0  0  0  0  0  0
  -23.5620  -32.2320   23.6510 O   0  0  0  0  0  0  0  0  0  0  0  0
  -22.6020  -29.5490   22.5690 C   0  0  0  0  0  0  0  0  0  0  0  0
  -21.2840  -29.3020   22.4580 N   0  0  0  0  0  0  0  0  0  0  0  0
  -23.3000  -29.0230   23.4400 O   0  0  0  0  0  0  0  0  0  0  0  0
  -20.7710  -29.7810   21.7300 H   0  0  0  0  0  0  0  0  0  0  0  0
  -18.0060  -27.8310   22.9490 C   0  0  0  0  0  0  0  0  0  0  0  0
  -20.5100  -28.3810   23.2970 C   0  0  0  0  0  3  0  0  0  0  0  0
  -20.7790  -26.9090   22.9060 C   0  0  0  0  0  2  0  0  0  0  0  0
  -19.7720  -26.3610   21.8900 C   0  0  0  0  0  2  0  0  0  0  0  0
  -18.3490  -26.4390   22.4480 C   0  0  0  0  0  2  0  0  0  0  0  0
  -19.0210  -28.7490   23.3330 C   0  0  0  0  0  0  0  0  0  0  0  0
  -18.6460  -30.0400   23.7640 C   0  0  0  0  0  3  0  0  0  0  0  0
  -17.2920  -30.4190   23.8140 C   0  0  0  0  0  3  0  0  0  0  0  0
  -16.2920  -29.5030   23.4440 C   0  0  0  0  0  3  0  0  0  0  0  0
  -16.6490  -28.2110   23.0160 C   0  0  0  0  0  3  0  0  0  0  0  0
  -25.9340  -32.5190   23.5600 C   0  0  0  0  0  3  0  0  0  0  0  0
  -26.5840  -31.6900   24.7360 C   0  0  1  0  0  0  0  0  0  0  0  0
  -25.6030  -31.3630   25.8860 C   0  0  0  0  0  1  0  0  0  0  0  0
  -27.1580  -30.3510   24.2160 C   0  0  0  0  0  1  0  0  0  0  0  0
  -27.7750  -32.4760   25.3330 C   0  0  0  0  0  1  0  0  0  0  0  0
  -25.6580  -33.8970   24.0000 N   0  0  0  0  0  0  0  0  0  0  0  0
  -25.9000  -34.9960   23.2750 C   0  0  0  0  0  0  0  0  0  0  0  0
  -26.4450  -34.9560   22.1680 O   0  0  0  0  0  0  0  0  0  0  0  0
  -25.1610  -34.0000   24.8740 H   0  0  0  0  0  0  0  0  0  0  0  0
  -24.1390  -36.7960   23.2380 C   0  0  0  0  0  1  0  0  0  0  0  0
  -25.4720  -36.3550   23.8660 C   0  0  0  0  0  3  0  0  0  0  0  0
  -27.6830  -37.2220   24.4910 C   0  0  0  0  0  1  0  0  0  0  0  0
  -26.4810  -37.4210   23.6860 N   0  0  0  0  0  0  0  0  0  0  0  0
  -26.0910  -38.3300   23.9210 H   0  0  0  0  0  0  0  0  0  0  0  0
  1  2  1  0
  3  4  1  0
  3  5  2  0
  4  1  2  0
  5  6  1  0
  6  2  2  0
  6  7  1  0
  8  9  2  0
  8  5  1  0
 10  9  1  0
 11 16  1  0
 12 13  1  0
 12 11  1  0
 14 13  1  0
 14 21  1  0
 14 15  1  0
 16 10  1  0
 16 15  1  0
 17 10  2  0
 18 19  2  0
 19 38  1  0
 20 19  1  0
 20 23  1  0
 21 22  1  0
 21 18  1  0
 22 20  2  0
 23 24  1  0
 24 25  2  0
 26 29  1  0
 26 25  1  0
 27 26  2  0
 28 27  1  0
 28 23  2  0
 29 30  1  0
 30 35  2  0
 30 31  1  0
 31 32  2  0
 32 33  1  0
 33 37  1  0
 34 33  2  0
 35 34  1  0
 36 35  1  0
 38 39  1  0
 39 42  1  0
 39 41  1  0
 40 38  2  0
 43 18  1  0
 43 44  1  0
 45 43  1  0
 46 50  1  0
 47 46  2  0
 47  4  1  0
 48 49  2  0
 49 47  1  0
 51 62  2  0
 52 50  1  0
 52 57  1  0
 53 61  1  0
 53 63  1  0
 54 60  1  0
 54 56  1  0
 55 61  1  0
 56 55  1  0
 57 56  2  0
 58 59  1  0
 58 52  2  0
 59 54  2  0
 60 53  1  0
 61 51  1  0
 63 65  2  0
 64 63  1  0
 66 64  1  0
 67 76  2  0
 67 72  1  0
 68 64  1  0
 68 72  1  0
 69 68  1  0
 70 71  1  0
 70 69  1  0
 71 67  1  0
 72 73  2  0
 73 74  1  0
 75 74  2  0
 76 75  1  0
 77 51  1  0
 77 82  1  0
 77 78  1  0
 78 81  1  1
 78 79  1  0
 80 78  1  0
 82 85  1  0
 83 87  1  0
 83 82  1  0
 84 83  2  0
 87 86  1  0
 89 87  1  0
 89 90  1  0
 89 88  1  0
M  ISO  4   9 100  10 100  46 101  50 101
M  END
>  <TORSDO>  (37) 
F 19

>  <SCORE>  (37) 
-13.023

>  <name>  (37) 
36

>  <ligand_id>  (37) 
36

>  <original_smiles>  (37) 
[H]C([H])=C([H])C(=C([H])Oc1c([H])c([H])c2c(c1[H])C([H])([H])N(C(=O)C([H])(N([H])C(=O)C([H])(N([H])C([H])([H])[H])C([H])([H])[H])C(C([H])([H])[H])(C([H])([H])[H])C([H])([H])[H])C([H])(C(=O)N([H])C1([H])c3c([H])c([H])c([H])c([H])c3C([H])([H])C([H])([H])C1([H])[H])C2([H])[H])c1c([H])c([H])c(C([H])([H])[H])c(C([H])=C([H])C(=O)N2C([H])([H])C([H])([H])C([H])([H])C([H])(n3nc(-c4c([H])c([H])c(Oc5c([H])c([H])c(F)c([H])c5F)c([H])c4[H])c(C(=O)N([H])[H])c3N([H])[H])C2([H])[H])c1[H]

>  <smiles>  (37) 
[H]C([H])=C([H])C(=C([H])Oc1c([H])c([H])c2c(c1[H])C([H])([H])N(C(=O)C([H])(N([H])C(=O)C([H])(N([H])C([H])([H])[H])C([H])([H])[H])C(C([H])([H])[H])(C([H])([H])[H])C([H])([H])[H])C([H])(C(=O)N([H])C1([H])c3c([H])c([H])c([H])c([H])c3C([H])([H])C([H])([H])C1([H])[H])C2([H])[H])c1c([H])c([H])c(C([H])([H])[H])c(C([H])=C([H])C(=O)N2C([H])([H])C([H])([H])C([H])([H])C([H])(n3nc(-c4c([H])c([H])c(Oc5c([H])c([H])c(F)c([H])c5F)c([H])c4[H])c(C(=O)N([H])[H])c3N([H])[H])C2([H])[H])c1[H]

$$$$
37:0:0
     RDKit          3D

 92100  0  0  1  0  0  0  0  0999 V2000
  -28.9750  -19.5400   20.4640 C   0  0  0  0  0  3  0  0  0  0  0  0
  -31.2700  -17.9580   20.5020 C   0  0  0  0  0  3  0  0  0  0  0  0
  -28.8770  -18.1160   20.4520 C   0  0  0  0  0  0  0  0  0  0  0  0
  -31.3590  -19.3920   20.4910 C   0  0  0  0  0  0  0  0  0  0  0  0
  -30.2040  -20.2330   20.4620 C   0  0  0  0  0  0  0  0  0  0  0  0
  -30.0290  -17.2610   20.4820 C   0  0  0  0  0  0  0  0  0  0  0  0
  -32.7390  -20.0260   20.5200 C   0  0  0  0  0  1  0  0  0  0  0  0
  -30.6620  -14.7300   20.0700 C   0  0  0  0  0  0  0  0  0  0  0  0
  -30.3810  -12.5350   18.9150 C   0  0  0  0  0  2  0  0  0  0  0  0
  -29.3590  -12.7050   17.7690 C   0  0  0  0  0  2  0  0  0  0  0  0
  -27.9180  -12.5130   18.2840 C   0  0  0  0  0  2  0  0  0  0  0  0
  -27.6360  -13.3140   19.5830 C   0  0  0  0  0  3  0  0  0  0  0  0
  -28.7680  -13.1290   20.6190 C   0  0  0  0  0  2  0  0  0  0  0  0
  -30.0340  -13.5110   19.9710 N   0  0  0  0  0  0  0  0  0  0  0  0
  -31.8070  -14.8810   19.6340 O   0  0  0  0  0  0  0  0  0  0  0  0
  -29.8860  -15.7870   20.4980 N   0  0  0  0  0  0  0  0  0  0  0  0
  -28.9800  -15.4720   20.8090 H   0  0  0  0  0  0  0  0  0  0  0  0
  -25.2850  -13.8500   20.4680 C   0  0  0  0  0  0  0  0  0  0  0  0
  -24.2500  -13.0640   20.8810 C   0  0  0  0  0  0  0  0  0  0  0  0
  -24.7160  -11.7210   20.7640 C   0  0  0  0  0  0  0  0  0  0  0  0
  -26.3230  -12.9960   20.1390 N   0  0  0  0  0  0  0  0  0  0  0  0
  -25.9870  -11.7020   20.3740 N   0  0  0  0  0  0  0  0  0  0  0  0
  -24.0030  -10.4540   20.9390 C   0  0  0  0  0  0  0  0  0  0  0  0
  -24.4300   -9.4920   21.8810 C   0  0  0  0  0  3  0  0  0  0  0  0
  -23.7140   -8.2880   22.0440 C   0  0  0  0  0  3  0  0  0  0  0  0
  -22.5580   -8.0380   21.2660 C   0  0  0  0  0  0  0  0  0  0  0  0
  -22.1510   -8.9890   20.3140 C   0  0  0  0  0  3  0  0  0  0  0  0
  -22.8690  -10.1850   20.1480 C   0  0  0  0  0  3  0  0  0  0  0  0
  -21.8160   -6.8860   21.3410 O   0  0  0  0  0  0  0  0  0  0  0  0
  -21.6670   -6.2020   22.5210 C   0  0  0  0  0  0  0  0  0  0  0  0
  -21.0730   -6.7960   23.6560 C   0  0  0  0  0  3  0  0  0  0  0  0
  -20.8770   -6.0360   24.8260 C   0  0  0  0  0  3  0  0  0  0  0  0
  -21.2630   -4.6820   24.8600 C   0  0  0  0  0  0  0  0  0  0  0  0
  -21.8510   -4.0880   23.7280 C   0  0  0  0  0  3  0  0  0  0  0  0
  -22.0480   -4.8460   22.5610 C   0  0  0  0  0  0  0  0  0  0  0  0
  -22.5960   -4.2640   21.4670 F   0  0  0  0  0  0  0  0  0  0  0  0
  -21.0680   -3.9480   25.9800 F   0  0  0  0  0  0  0  0  0  0  0  0
  -22.8730  -13.5320   21.2580 C   0  0  0  0  0  0  0  0  0  0  0  0
  -22.2040  -12.8080   22.1480 N   0  0  0  0  0  0  0  0  0  0  0  0
  -22.4030  -14.5730   20.8010 O   0  0  0  0  0  0  0  0  0  0  0  0
  -22.5980  -11.9640   22.5380 H   0  0  0  0  0  0  0  0  0  0  0  0
  -21.2830  -13.1020   22.4430 H   0  0  0  0  0  0  0  0  0  0  0  0
  -25.4080  -15.2160   20.3150 N   0  0  0  0  0  0  0  0  0  0  0  0
  -24.6140  -15.8260   20.4640 H   0  0  0  0  0  0  0  0  0  0  0  0
  -26.1820  -15.6750   19.8550 H   0  0  0  0  0  0  0  0  0  0  0  0
  -29.3860  -22.5530   20.2600 C   0  0  0  0  0  3  0  0  0  0  0  0
  -30.3240  -21.6740   20.4840 N   0  0  0  0  0  0  0  0  0  0  0  0
  -29.5650  -24.1190   20.3730 C   0  0  0  0  0  3  0  0  0  0  0  0
  -28.3540  -25.0660   19.9540 C   0  0  0  0  0  3  0  0  0  0  0  0
  -28.4770  -26.5240   20.1910 O   0  0  0  0  0  0  0  0  0  0  0  0
  -24.5400  -31.7530   23.2270 C   0  0  0  0  0  0  0  0  0  0  0  0
  -27.3220  -27.3250   20.1370 C   0  0  0  0  0  0  0  0  0  0  0  0
  -23.4030  -30.3780   21.5190 C   0  0  0  0  0  3  0  0  0  0  0  0
  -24.9170  -28.8840   20.1000 C   0  0  0  0  0  0  0  0  0  0  0  0
  -25.9390  -30.7440   21.4120 C   0  0  0  0  0  2  0  0  0  0  0  0
  -26.0600  -29.3830   20.7380 C   0  0  0  0  0  0  0  0  0  0  0  0
  -27.2630  -28.6170   20.7440 C   0  0  0  0  0  3  0  0  0  0  0  0
  -26.1500  -26.8720   19.4840 C   0  0  0  0  0  3  0  0  0  0  0  0
  -24.9640  -27.6330   19.4640 C   0  0  0  0  0  3  0  0  0  0  0  0
  -23.6650  -29.7370   20.1310 C   0  0  0  0  0  2  0  0  0  0  0  0
  -24.6440  -30.9750   22.1100 N   0  0  0  0  0  0  0  0  0  0  0  0
  -23.4390  -32.0010   23.7400 O   0  0  0  0  0  0  0  0  0  0  0  0
  -22.7290  -29.3310   22.4370 C   0  0  0  0  0  0  0  0  0  0  0  0
  -21.4110  -29.1340   22.2650 N   0  0  0  0  0  0  0  0  0  0  0  0
  -23.3940  -28.6960   23.2600 O   0  0  0  0  0  0  0  0  0  0  0  0
  -20.9340  -29.7000   21.5780 H   0  0  0  0  0  0  0  0  0  0  0  0
  -18.0320  -27.9100   22.6680 C   0  0  0  0  0  0  0  0  0  0  0  0
  -20.5840  -28.1660   22.9890 C   0  0  0  0  0  3  0  0  0  0  0  0
  -20.7010  -26.7560   22.3650 C   0  0  0  0  0  2  0  0  0  0  0  0
  -19.6170  -26.4670   21.3210 C   0  0  0  0  0  2  0  0  0  0  0  0
  -18.2250  -26.5860   21.9480 C   0  0  0  0  0  2  0  0  0  0  0  0
  -19.1400  -28.6590   23.1430 C   0  0  0  0  0  0  0  0  0  0  0  0
  -18.9080  -29.9000   23.7750 C   0  0  0  0  0  3  0  0  0  0  0  0
  -17.5980  -30.3910   23.9380 C   0  0  0  0  0  3  0  0  0  0  0  0
  -16.5040  -29.6380   23.4800 C   0  0  0  0  0  3  0  0  0  0  0  0
  -16.7210  -28.3990   22.8500 C   0  0  0  0  0  3  0  0  0  0  0  0
  -25.7950  -32.3880   23.9010 C   0  0  0  0  0  3  0  0  0  0  0  0
  -26.2560  -31.6230   25.2020 C   0  0  1  0  0  0  0  0  0  0  0  0
  -25.1160  -31.3820   26.2190 C   0  0  0  0  0  1  0  0  0  0  0  0
  -26.8640  -30.2470   24.8400 C   0  0  0  0  0  1  0  0  0  0  0  0
  -27.3700  -32.4240   25.9160 C   0  0  0  0  0  1  0  0  0  0  0  0
  -25.4740  -33.7880   24.2120 N   0  0  0  0  0  0  0  0  0  0  0  0
  -25.8030  -34.8340   23.4420 C   0  0  0  0  0  0  0  0  0  0  0  0
  -26.4780  -34.7230   22.4140 O   0  0  0  0  0  0  0  0  0  0  0  0
  -24.8760  -33.9480   25.0090 H   0  0  0  0  0  0  0  0  0  0  0  0
  -24.0460  -36.5970   23.0780 C   0  0  0  0  0  1  0  0  0  0  0  0
  -25.3030  -36.2250   23.8800 C   0  0  0  0  0  3  0  0  0  0  0  0
  -27.4290  -37.1650   24.6730 C   0  0  0  0  0  1  0  0  0  0  0  0
  -26.3200  -37.2890   23.7300 N   0  0  0  0  0  0  0  0  0  0  0  0
  -25.9010  -38.2070   23.8530 H   0  0  0  0  0  0  0  0  0  0  0  0
  -26.7700  -18.0020   19.0660 C   0  0  0  0  0  1  0  0  0  0  0  0
  -27.4570  -17.5830   20.3820 C   0  0  0  0  0  2  0  0  0  0  0  0
  3  1  2  0
  3  6  1  0
  4  2  1  0
  4  7  1  0
  5  1  1  0
  5 47  1  0
  5  4  2  0
  6 16  1  0
  6  2  2  0
  8 16  1  0
  9 14  1  0
 10 11  1  0
 10  9  1  0
 12 11  1  0
 12 21  1  0
 12 13  1  0
 14  8  1  0
 14 13  1  0
 15  8  2  0
 16 17  1  0
 18 19  2  0
 19 38  1  0
 20 19  1  0
 20 23  1  0
 21 22  1  0
 21 18  1  0
 22 20  2  0
 23 24  1  0
 24 25  2  0
 26 29  1  0
 26 25  1  0
 27 26  2  0
 28 27  1  0
 28 23  2  0
 29 30  1  0
 30 35  2  0
 30 31  1  0
 31 32  2  0
 32 33  1  0
 33 37  1  0
 34 33  2  0
 35 34  1  0
 36 35  1  0
 38 39  1  0
 39 42  1  0
 39 41  1  0
 40 38  2  0
 43 44  1  0
 43 18  1  0
 45 43  1  0
 46 48  1  0
 46 47  2  0
 49 50  1  0
 49 48  2  0
 51 62  2  0
 52 50  1  0
 52 57  1  0
 53 61  1  0
 53 63  1  0
 54 60  1  0
 54 56  1  0
 55 61  1  0
 56 57  2  0
 56 55  1  0
 58 52  2  0
 59 58  1  0
 59 54  2  0
 60 53  1  0
 61 51  1  0
 63 65  2  0
 64 63  1  0
 66 64  1  0
 67 76  2  0
 67 72  1  0
 68 64  1  0
 68 72  1  0
 69 68  1  0
 70 71  1  0
 70 69  1  0
 71 67  1  0
 72 73  2  0
 73 74  1  0
 75 74  2  0
 76 75  1  0
 77 51  1  0
 77 82  1  0
 77 78  1  0
 78 81  1  1
 78 79  1  0
 80 78  1  0
 82 85  1  0
 83 87  1  0
 83 82  1  0
 84 83  2  0
 87 86  1  0
 89 90  1  0
 89 87  1  0
 89 88  1  0
 91 92  1  0
 92  3  1  0
M  ISO  4   8 100  16 100  49 101  50 101
M  END
>  <TORSDO>  (38) 
F 20

>  <SCORE>  (38) 
-13.677

>  <name>  (38) 
37

>  <ligand_id>  (38) 
37

>  <original_smiles>  (38) 
[H]C(=Nc1c([H])c(C([H])([H])C([H])([H])[H])c(N([H])C(=O)N2C([H])([H])C([H])([H])C([H])([H])C([H])(n3nc(-c4c([H])c([H])c(Oc5c([H])c([H])c(F)c([H])c5F)c([H])c4[H])c(C(=O)N([H])[H])c3N([H])[H])C2([H])[H])c([H])c1C([H])([H])[H])C([H])([H])C([H])([H])Oc1c([H])c([H])c2c(c1[H])C([H])([H])N(C(=O)C([H])(N([H])C(=O)C([H])(N([H])C([H])([H])[H])C([H])([H])[H])C(C([H])([H])[H])(C([H])([H])[H])C([H])([H])[H])C([H])(C(=O)N([H])C1([H])c3c([H])c([H])c([H])c([H])c3C([H])([H])C([H])([H])C1([H])[H])C2([H])[H]

>  <smiles>  (38) 
[H]C(=Nc1c([H])c(C([H])([H])C([H])([H])[H])c(N([H])C(=O)N2C([H])([H])C([H])([H])C([H])([H])C([H])(n3nc(-c4c([H])c([H])c(Oc5c([H])c([H])c(F)c([H])c5F)c([H])c4[H])c(C(=O)N([H])[H])c3N([H])[H])C2([H])[H])c([H])c1C([H])([H])[H])C([H])([H])C([H])([H])Oc1c([H])c([H])c2c(c1[H])C([H])([H])N(C(=O)C([H])(N([H])C(=O)C([H])(N([H])C([H])([H])[H])C([H])([H])[H])C(C([H])([H])[H])(C([H])([H])[H])C([H])([H])[H])C([H])(C(=O)N([H])C1([H])c3c([H])c([H])c([H])c([H])c3C([H])([H])C([H])([H])C1([H])[H])C2([H])[H]

$$$$
38:0:0
     RDKit          3D

 94102  0  0  1  0  0  0  0  0999 V2000
  -30.8810  -17.9020   21.8970 C   0  0  0  0  0  3  0  0  0  0  0  0
  -31.0580  -19.2900   21.7540 C   0  0  0  0  0  3  0  0  0  0  0  0
  -30.3610  -17.1060   20.8510 C   0  0  0  0  0  0  0  0  0  0  0  0
  -30.2670  -19.1590   19.4480 C   0  0  0  0  0  0  0  0  0  0  0  0
  -30.0480  -17.7520   19.6110 C   0  0  0  0  0  0  0  0  0  0  0  0
  -30.7290  -19.9320   20.5510 C   0  0  0  0  0  0  0  0  0  0  0  0
  -29.4710  -16.9530   18.4430 C   0  0  0  0  0  1  0  0  0  0  0  0
  -30.0990  -15.6560   21.1900 C   0  0  0  0  0  0  0  0  0  0  0  0
  -29.5040  -15.3990   22.2800 N   0  0  0  0  0  0  0  0  0  0  0  0
  -29.2400  -16.2530   22.7590 H   0  0  0  0  0  0  0  0  0  0  0  0
  -30.6690  -14.5800   20.2310 C   0  0  0  0  0  0  0  0  0  0  0  0
  -30.2780  -12.5280   18.9070 C   0  0  0  0  0  2  0  0  0  0  0  0
  -29.2630  -12.8360   17.7820 C   0  0  0  0  0  2  0  0  0  0  0  0
  -27.8090  -12.6760   18.2750 C   0  0  0  0  0  2  0  0  0  0  0  0
  -27.5620  -13.3830   19.6340 C   0  0  0  0  0  3  0  0  0  0  0  0
  -28.6740  -13.0040   20.6310 C   0  0  0  0  0  2  0  0  0  0  0  0
  -29.9710  -13.4090   20.0520 N   0  0  0  0  0  0  0  0  0  0  0  0
  -31.7090  -14.8240   19.6070 O   0  0  0  0  0  0  0  0  0  0  0  0
  -25.2040  -13.9890   20.4620 C   0  0  0  0  0  0  0  0  0  0  0  0
  -24.1520  -13.2110   20.8650 C   0  0  0  0  0  0  0  0  0  0  0  0
  -24.6090  -11.8600   20.7830 C   0  0  0  0  0  0  0  0  0  0  0  0
  -26.2340  -13.1080   20.1640 N   0  0  0  0  0  0  0  0  0  0  0  0
  -25.8800  -11.8230   20.4080 N   0  0  0  0  0  0  0  0  0  0  0  0
  -23.8940  -10.5960   20.9870 C   0  0  0  0  0  0  0  0  0  0  0  0
  -24.3630   -9.6220   21.8960 C   0  0  0  0  0  3  0  0  0  0  0  0
  -23.6470   -8.4210   22.0860 C   0  0  0  0  0  3  0  0  0  0  0  0
  -22.4510   -8.1870   21.3690 C   0  0  0  0  0  0  0  0  0  0  0  0
  -22.0030   -9.1500   20.4470 C   0  0  0  0  0  3  0  0  0  0  0  0
  -22.7180  -10.3420   20.2540 C   0  0  0  0  0  3  0  0  0  0  0  0
  -21.7040   -7.0390   21.4710 O   0  0  0  0  0  0  0  0  0  0  0  0
  -21.6770   -6.2980   22.6240 C   0  0  0  0  0  0  0  0  0  0  0  0
  -21.2750   -6.8540   23.8570 C   0  0  0  0  0  3  0  0  0  0  0  0
  -21.1950   -6.0400   25.0050 C   0  0  0  0  0  3  0  0  0  0  0  0
  -21.5090   -4.6700   24.9180 C   0  0  0  0  0  0  0  0  0  0  0  0
  -21.9040   -4.1130   23.6890 C   0  0  0  0  0  3  0  0  0  0  0  0
  -21.9860   -4.9250   22.5450 C   0  0  0  0  0  0  0  0  0  0  0  0
  -22.3490   -4.3800   21.3590 F   0  0  0  0  0  0  0  0  0  0  0  0
  -21.4220   -3.8840   26.0170 F   0  0  0  0  0  0  0  0  0  0  0  0
  -22.7710  -13.6850   21.2170 C   0  0  0  0  0  0  0  0  0  0  0  0
  -22.0920  -12.9700   22.1060 N   0  0  0  0  0  0  0  0  0  0  0  0
  -22.3080  -14.7210   20.7420 O   0  0  0  0  0  0  0  0  0  0  0  0
  -22.4840  -12.1330   22.5100 H   0  0  0  0  0  0  0  0  0  0  0  0
  -21.1670  -13.2640   22.3870 H   0  0  0  0  0  0  0  0  0  0  0  0
  -25.3600  -15.3640   20.3120 N   0  0  0  0  0  0  0  0  0  0  0  0
  -24.6070  -16.0150   20.5090 H   0  0  0  0  0  0  0  0  0  0  0  0
  -26.2140  -15.8250   20.0250 H   0  0  0  0  0  0  0  0  0  0  0  0
  -30.9330  -20.6660   17.5510 C   0  0  0  0  0  2  0  0  0  0  0  0
  -30.0820  -19.7980   18.1230 C   0  0  0  0  0  3  0  0  0  0  0  0
  -30.8800  -21.3030   20.5130 O   0  0  0  0  0  0  0  0  0  0  0  0
  -29.6640  -22.0550   20.4410 C   0  0  0  0  0  2  0  0  0  0  0  0
  -29.9040  -23.5160   20.8790 C   0  0  0  0  0  2  0  0  0  0  0  0
  -28.6950  -24.4410   20.5950 C   0  0  0  0  0  2  0  0  0  0  0  0
  -28.8150  -25.8590   21.1990 C   0  0  0  0  0  2  0  0  0  0  0  0
  -28.6580  -26.8810   20.2110 O   0  0  0  0  0  0  0  0  0  0  0  0
  -24.6860  -31.9350   23.2860 C   0  0  0  0  0  0  0  0  0  0  0  0
  -27.4670  -27.5630   20.2460 C   0  0  0  0  0  0  0  0  0  0  0  0
  -23.5240  -30.4970   21.6400 C   0  0  0  0  0  3  0  0  0  0  0  0
  -25.0270  -28.9860   20.2330 C   0  0  0  0  0  0  0  0  0  0  0  0
  -26.0380  -30.9210   21.4590 C   0  0  0  0  0  2  0  0  0  0  0  0
  -26.1640  -29.5510   20.8270 C   0  0  0  0  0  0  0  0  0  0  0  0
  -27.3880  -28.8440   20.8330 C   0  0  0  0  0  3  0  0  0  0  0  0
  -26.3170  -27.0020   19.6510 C   0  0  0  0  0  3  0  0  0  0  0  0
  -25.0980  -27.7090   19.6440 C   0  0  0  0  0  3  0  0  0  0  0  0
  -23.7610  -29.8130   20.2660 C   0  0  0  0  0  2  0  0  0  0  0  0
  -24.7670  -31.1330   22.1870 N   0  0  0  0  0  0  0  0  0  0  0  0
  -23.5960  -32.1860   23.8170 O   0  0  0  0  0  0  0  0  0  0  0  0
  -22.8930  -29.4650   22.6010 C   0  0  0  0  0  0  0  0  0  0  0  0
  -21.5750  -29.2460   22.4590 N   0  0  0  0  0  0  0  0  0  0  0  0
  -23.5830  -28.8660   23.4300 O   0  0  0  0  0  0  0  0  0  0  0  0
  -21.0830  -29.7800   21.7560 H   0  0  0  0  0  0  0  0  0  0  0  0
  -18.2260  -27.9700   22.9300 C   0  0  0  0  0  0  0  0  0  0  0  0
  -20.7730  -28.2920   23.2240 C   0  0  0  0  0  3  0  0  0  0  0  0
  -20.9180  -26.8630   22.6540 C   0  0  0  0  0  2  0  0  0  0  0  0
  -19.8340  -26.5070   21.6320 C   0  0  0  0  0  2  0  0  0  0  0  0
  -18.4420  -26.6220   22.2610 C   0  0  0  0  0  2  0  0  0  0  0  0
  -19.3210  -28.7610   23.3670 C   0  0  0  0  0  0  0  0  0  0  0  0
  -19.0670  -30.0200   23.9520 C   0  0  0  0  0  3  0  0  0  0  0  0
  -17.7500  -30.4920   24.1000 C   0  0  0  0  0  3  0  0  0  0  0  0
  -16.6690  -29.6980   23.6810 C   0  0  0  0  0  3  0  0  0  0  0  0
  -16.9070  -28.4390   23.1010 C   0  0  0  0  0  3  0  0  0  0  0  0
  -25.9560  -32.5960   23.9120 C   0  0  0  0  0  3  0  0  0  0  0  0
  -25.6190  -33.9930   24.2200 N   0  0  0  0  0  0  0  0  0  0  0  0
  -25.9400  -35.0400   23.4490 C   0  0  0  0  0  0  0  0  0  0  0  0
  -26.6240  -34.9340   22.4280 O   0  0  0  0  0  0  0  0  0  0  0  0
  -25.0230  -34.1490   25.0200 H   0  0  0  0  0  0  0  0  0  0  0  0
  -24.1850  -36.7920   23.0470 C   0  0  0  0  0  1  0  0  0  0  0  0
  -25.4240  -36.4240   23.8810 C   0  0  0  0  0  3  0  0  0  0  0  0
  -27.5300  -37.3580   24.7300 C   0  0  0  0  0  1  0  0  0  0  0  0
  -26.4390  -37.4940   23.7690 N   0  0  0  0  0  0  0  0  0  0  0  0
  -26.0130  -38.4090   23.8980 H   0  0  0  0  0  0  0  0  0  0  0  0
  -26.4760  -31.8500   25.2020 C   0  0  1  0  0  0  0  0  0  0  0  0
  -25.3740  -31.5880   26.2560 C   0  0  0  0  0  1  0  0  0  0  0  0
  -27.1060  -30.4870   24.8270 C   0  0  0  0  0  1  0  0  0  0  0  0
  -27.5930  -32.6830   25.8750 C   0  0  0  0  0  1  0  0  0  0  0  0
  2  1  1  0
  3  8  1  0
  3  1  2  0
  4  5  2  0
  4  6  1  0
  5  3  1  0
  6  2  2  0
  7  5  1  0
  8  9  2  0
  9 10  1  0
 11  8  1  0
 12 17  1  0
 13 14  1  0
 13 12  1  0
 15 14  1  0
 15 22  1  0
 15 16  1  0
 17 11  1  0
 17 16  1  0
 18 11  2  0
 19 20  2  0
 20 39  1  0
 21 20  1  0
 21 24  1  0
 22 23  1  0
 22 19  1  0
 23 21  2  0
 24 25  1  0
 25 26  2  0
 27 30  1  0
 27 26  1  0
 28 27  2  0
 29 28  1  0
 29 24  2  0
 30 31  1  0
 31 32  1  0
 32 33  2  0
 34 33  1  0
 34 38  1  0
 35 34  2  0
 36 31  2  0
 36 35  1  0
 37 36  1  0
 39 40  1  0
 40 43  1  0
 40 42  1  0
 41 39  2  0
 44 19  1  0
 44 45  1  0
 46 44  1  0
 47 48  2  0
 48  4  1  0
 49  6  1  0
 50 49  1  0
 50 51  1  0
 52 51  1  0
 52 53  1  0
 54 56  1  0
 54 53  1  0
 55 66  2  0
 56 61  1  0
 57 65  1  0
 57 67  1  0
 58 64  1  0
 58 60  1  0
 59 65  1  0
 60 61  2  0
 60 59  1  0
 62 56  2  0
 63 62  1  0
 63 58  2  0
 64 57  1  0
 65 55  1  0
 67 69  2  0
 68 67  1  0
 70 68  1  0
 71 80  2  0
 71 76  1  0
 72 68  1  0
 72 76  1  0
 73 72  1  0
 74 75  1  0
 74 73  1  0
 75 71  1  0
 76 77  2  0
 77 78  1  0
 79 78  2  0
 80 79  1  0
 81 55  1  0
 81 82  1  0
 81 91  1  0
 82 85  1  0
 83 87  1  0
 83 82  1  0
 84 83  2  0
 87 86  1  0
 89 87  1  0
 89 90  1  0
 89 88  1  0
 91 94  1  1
 91 92  1  0
 93 91  1  0
M  ISO  4   8 100  11 100  53 101  54 101
M  END
>  <TORSDO>  (39) 
F 23

>  <SCORE>  (39) 
-11.906

>  <name>  (39) 
38

>  <ligand_id>  (39) 
38

>  <original_smiles>  (39) 
[H]N=C(C(=O)N1C([H])([H])C([H])([H])C([H])([H])C([H])(n2nc(-c3c([H])c([H])c(Oc4c([H])c([H])c(F)c([H])c4F)c([H])c3[H])c(C(=O)N([H])[H])c2N([H])[H])C1([H])[H])c1c([H])c([H])c(OC([H])([H])C([H])([H])C([H])([H])C([H])([H])Oc2c([H])c([H])c3c(c2[H])C([H])([H])N(C(=O)C([H])(N([H])C(=O)C([H])(N([H])C([H])([H])[H])C([H])([H])[H])C(C([H])([H])[H])(C([H])([H])[H])C([H])([H])[H])C([H])(C(=O)N([H])C2([H])c4c([H])c([H])c([H])c([H])c4C([H])([H])C([H])([H])C2([H])[H])C3([H])[H])c(C([H])=C([H])[H])c1C([H])([H])[H]

>  <smiles>  (39) 
[H]N=C(C(=O)N1C([H])([H])C([H])([H])C([H])([H])C([H])(n2nc(-c3c([H])c([H])c(Oc4c([H])c([H])c(F)c([H])c4F)c([H])c3[H])c(C(=O)N([H])[H])c2N([H])[H])C1([H])[H])c1c([H])c([H])c(OC([H])([H])C([H])([H])C([H])([H])C([H])([H])Oc2c([H])c([H])c3c(c2[H])C([H])([H])N(C(=O)C([H])(N([H])C(=O)C([H])(N([H])C([H])([H])[H])C([H])([H])[H])C(C([H])([H])[H])(C([H])([H])[H])C([H])([H])[H])C([H])(C(=O)N([H])C2([H])c4c([H])c([H])c([H])c([H])c4C([H])([H])C([H])([H])C2([H])[H])C3([H])[H])c(C([H])=C([H])[H])c1C([H])([H])[H]

$$$$
39:0:0
     RDKit          3D

 92100  0  0  1  0  0  0  0  0999 V2000
  -29.9890  -21.1600   21.7470 C   0  0  0  0  0  3  0  0  0  0  0  0
  -29.3810  -22.1300   21.0270 C   0  0  0  0  0  3  0  0  0  0  0  0
  -29.0610  -19.0990   20.6460 C   0  0  0  0  0  3  0  0  0  0  0  0
  -29.0570  -17.7050   20.4350 C   0  0  0  0  0  3  0  0  0  0  0  0
  -31.1440  -17.5100   21.6660 C   0  0  0  0  0  3  0  0  0  0  0  0
  -30.0680  -19.7130   21.4240 C   0  0  0  0  0  0  0  0  0  0  0  0
  -31.1360  -18.9060   21.9030 C   0  0  0  0  0  0  0  0  0  0  0  0
  -30.0900  -16.8990   20.9550 C   0  0  0  0  0  0  0  0  0  0  0  0
  -32.2700  -19.5080   22.7160 C   0  0  0  0  0  1  0  0  0  0  0  0
  -30.6860  -14.5920   20.2070 C   0  0  0  0  0  0  0  0  0  0  0  0
  -30.3880  -12.4860   18.9470 C   0  0  0  0  0  2  0  0  0  0  0  0
  -29.3730  -12.7270   17.8090 C   0  0  0  0  0  2  0  0  0  0  0  0
  -27.9220  -12.5590   18.3080 C   0  0  0  0  0  2  0  0  0  0  0  0
  -27.6470  -13.3370   19.6220 C   0  0  0  0  0  3  0  0  0  0  0  0
  -28.7560  -13.0390   20.6570 C   0  0  0  0  0  2  0  0  0  0  0  0
  -30.0510  -13.3990   20.0470 N   0  0  0  0  0  0  0  0  0  0  0  0
  -31.7710  -14.8630   19.6800 O   0  0  0  0  0  0  0  0  0  0  0  0
  -29.9560  -15.4890   20.8900 N   0  0  0  0  0  0  0  0  0  0  0  0
  -29.0600  -15.1260   21.1800 H   0  0  0  0  0  0  0  0  0  0  0  0
  -25.2770  -13.9150   20.4490 C   0  0  0  0  0  0  0  0  0  0  0  0
  -24.2330  -13.1270   20.8520 C   0  0  0  0  0  0  0  0  0  0  0  0
  -24.7030  -11.7800   20.7710 C   0  0  0  0  0  0  0  0  0  0  0  0
  -26.3170  -13.0470   20.1530 N   0  0  0  0  0  0  0  0  0  0  0  0
  -25.9770  -11.7580   20.4020 N   0  0  0  0  0  0  0  0  0  0  0  0
  -23.9970  -10.5080   20.9680 C   0  0  0  0  0  0  0  0  0  0  0  0
  -24.4550   -9.5470   21.8950 C   0  0  0  0  0  3  0  0  0  0  0  0
  -23.7510   -8.3380   22.0790 C   0  0  0  0  0  3  0  0  0  0  0  0
  -22.5750   -8.0810   21.3350 C   0  0  0  0  0  0  0  0  0  0  0  0
  -22.1360   -9.0320   20.3960 C   0  0  0  0  0  3  0  0  0  0  0  0
  -22.8420  -10.2330   20.2100 C   0  0  0  0  0  3  0  0  0  0  0  0
  -21.8390   -6.9250   21.4290 O   0  0  0  0  0  0  0  0  0  0  0  0
  -21.7800   -6.2020   22.5940 C   0  0  0  0  0  0  0  0  0  0  0  0
  -21.2960   -6.7620   23.7950 C   0  0  0  0  0  3  0  0  0  0  0  0
  -21.1880   -5.9640   24.9520 C   0  0  0  0  0  3  0  0  0  0  0  0
  -21.5550   -4.6050   24.9070 C   0  0  0  0  0  0  0  0  0  0  0  0
  -22.0330   -4.0440   23.7090 C   0  0  0  0  0  3  0  0  0  0  0  0
  -22.1420   -4.8400   22.5550 C   0  0  0  0  0  0  0  0  0  0  0  0
  -22.5830   -4.2890   21.3980 F   0  0  0  0  0  0  0  0  0  0  0  0
  -21.4450   -3.8360   26.0140 F   0  0  0  0  0  0  0  0  0  0  0  0
  -22.8460  -13.5850   21.2000 C   0  0  0  0  0  0  0  0  0  0  0  0
  -22.1610  -12.8580   22.0760 N   0  0  0  0  0  0  0  0  0  0  0  0
  -22.3780  -14.6220   20.7300 O   0  0  0  0  0  0  0  0  0  0  0  0
  -22.5520  -12.0180   22.4770 H   0  0  0  0  0  0  0  0  0  0  0  0
  -21.2330  -13.1450   22.3520 H   0  0  0  0  0  0  0  0  0  0  0  0
  -25.4230  -15.2910   20.2920 N   0  0  0  0  0  0  0  0  0  0  0  0
  -24.6550  -15.9350   20.4490 H   0  0  0  0  0  0  0  0  0  0  0  0
  -26.2480  -15.7420   19.9200 H   0  0  0  0  0  0  0  0  0  0  0  0
  -29.2820  -23.5190   21.5340 C   0  0  0  0  0  0  0  0  0  0  0  0
  -29.3950  -23.7680   22.7390 O   0  0  0  0  0  0  0  0  0  0  0  0
  -29.0450  -24.6010   20.5520 C   0  0  0  0  0  3  0  0  0  0  0  0
  -28.6040  -25.8200   20.9340 C   0  0  0  0  0  3  0  0  0  0  0  0
  -28.4480  -26.8620   20.0580 O   0  0  0  0  0  0  0  0  0  0  0  0
  -24.6090  -31.9760   23.2380 C   0  0  0  0  0  0  0  0  0  0  0  0
  -27.2770  -27.5760   20.1350 C   0  0  0  0  0  0  0  0  0  0  0  0
  -23.4030  -30.5650   21.6020 C   0  0  0  0  0  3  0  0  0  0  0  0
  -24.8630  -29.0390   20.1710 C   0  0  0  0  0  0  0  0  0  0  0  0
  -25.9220  -30.9530   21.3840 C   0  0  0  0  0  2  0  0  0  0  0  0
  -26.0190  -29.5810   20.7490 C   0  0  0  0  0  0  0  0  0  0  0  0
  -27.2320  -28.8560   20.7290 C   0  0  0  0  0  3  0  0  0  0  0  0
  -26.1080  -27.0380   19.5630 C   0  0  0  0  0  3  0  0  0  0  0  0
  -24.9010  -27.7640   19.5780 C   0  0  0  0  0  3  0  0  0  0  0  0
  -23.6100  -29.8860   20.2220 C   0  0  0  0  0  2  0  0  0  0  0  0
  -24.6640  -31.1800   22.1330 N   0  0  0  0  0  0  0  0  0  0  0  0
  -23.5290  -32.2380   23.7870 O   0  0  0  0  0  0  0  0  0  0  0  0
  -22.7690  -29.5380   22.5660 C   0  0  0  0  0  0  0  0  0  0  0  0
  -21.4460  -29.3410   22.4440 N   0  0  0  0  0  0  0  0  0  0  0  0
  -23.4620  -28.9210   23.3780 O   0  0  0  0  0  0  0  0  0  0  0  0
  -20.9460  -29.8920   21.7600 H   0  0  0  0  0  0  0  0  0  0  0  0
  -18.0850  -28.1210   22.9650 C   0  0  0  0  0  0  0  0  0  0  0  0
  -20.6430  -28.3940   23.2180 C   0  0  0  0  0  3  0  0  0  0  0  0
  -20.7500  -26.9670   22.6340 C   0  0  0  0  0  2  0  0  0  0  0  0
  -19.6420  -26.6410   21.6280 C   0  0  0  0  0  2  0  0  0  0  0  0
  -18.2650  -26.7750   22.2830 C   0  0  0  0  0  2  0  0  0  0  0  0
  -19.2020  -28.8880   23.3890 C   0  0  0  0  0  0  0  0  0  0  0  0
  -18.9810  -30.1490   23.9870 C   0  0  0  0  0  3  0  0  0  0  0  0
  -17.6740  -30.6420   24.1620 C   0  0  0  0  0  3  0  0  0  0  0  0
  -16.5720  -29.8730   23.7530 C   0  0  0  0  0  3  0  0  0  0  0  0
  -16.7780  -28.6140   23.1610 C   0  0  0  0  0  3  0  0  0  0  0  0
  -25.8940  -32.6160   23.8500 C   0  0  0  0  0  3  0  0  0  0  0  0
  -26.4170  -31.8600   25.1320 C   0  0  1  0  0  0  0  0  0  0  0  0
  -25.3260  -31.6250   26.2020 C   0  0  0  0  0  1  0  0  0  0  0  0
  -27.0080  -30.4820   24.7490 C   0  0  0  0  0  1  0  0  0  0  0  0
  -27.5640  -32.6660   25.7860 C   0  0  0  0  0  1  0  0  0  0  0  0
  -25.5840  -34.0170   24.1630 N   0  0  0  0  0  0  0  0  0  0  0  0
  -25.9240  -35.0600   23.3950 C   0  0  0  0  0  0  0  0  0  0  0  0
  -26.6040  -34.9460   22.3700 O   0  0  0  0  0  0  0  0  0  0  0  0
  -24.9790  -34.1810   24.9540 H   0  0  0  0  0  0  0  0  0  0  0  0
  -24.2070  -36.8530   22.9950 C   0  0  0  0  0  1  0  0  0  0  0  0
  -25.4320  -36.4540   23.8310 C   0  0  0  0  0  3  0  0  0  0  0  0
  -27.5530  -37.3400   24.6940 C   0  0  0  0  0  1  0  0  0  0  0  0
  -26.4700  -37.5040   23.7290 N   0  0  0  0  0  0  0  0  0  0  0  0
  -26.0630  -38.4260   23.8620 H   0  0  0  0  0  0  0  0  0  0  0  0
  2 48  1  0
  2  1  2  0
  3  6  1  0
  4  3  2  0
  4  8  1  0
  5  7  1  0
  6  1  1  0
  6  7  2  0
  7  9  1  0
  8  5  2  0
 10 18  1  0
 11 16  1  0
 12 13  1  0
 12 11  1  0
 14 13  1  0
 14 23  1  0
 14 15  1  0
 16 10  1  0
 16 15  1  0
 17 10  2  0
 18  8  1  0
 18 19  1  0
 20 21  2  0
 21 40  1  0
 22 21  1  0
 22 25  1  0
 23 24  1  0
 23 20  1  0
 24 22  2  0
 25 26  1  0
 26 27  2  0
 28 31  1  0
 28 27  1  0
 29 28  2  0
 30 29  1  0
 30 25  2  0
 31 32  1  0
 32 33  1  0
 33 34  2  0
 35 34  1  0
 35 39  1  0
 36 35  2  0
 37 32  2  0
 37 36  1  0
 38 37  1  0
 40 41  1  0
 41 44  1  0
 41 43  1  0
 42 40  2  0
 45 46  1  0
 45 20  1  0
 47 45  1  0
 48 49  2  0
 50 51  2  0
 50 48  1  0
 52 54  1  0
 52 51  1  0
 53 64  2  0
 54 59  1  0
 55 63  1  0
 55 65  1  0
 56 62  1  0
 56 58  1  0
 57 63  1  0
 58 57  1  0
 59 58  2  0
 60 61  1  0
 60 54  2  0
 61 56  2  0
 62 55  1  0
 63 53  1  0
 65 67  2  0
 66 65  1  0
 68 66  1  0
 69 78  2  0
 69 74  1  0
 70 66  1  0
 70 74  1  0
 71 70  1  0
 72 73  1  0
 72 71  1  0
 73 69  1  0
 74 75  2  0
 75 76  1  0
 77 76  2  0
 78 77  1  0
 79 53  1  0
 79 84  1  0
 79 80  1  0
 80 83  1  1
 80 81  1  0
 82 80  1  0
 84 87  1  0
 85 89  1  0
 85 84  1  0
 86 85  2  0
 89 88  1  0
 91 89  1  0
 91 92  1  0
 91 90  1  0
M  ISO  4  10 100  18 100  51 101  52 101
M  END
>  <TORSDO>  (40) 
F 19

>  <SCORE>  (40) 
-14.267

>  <name>  (40) 
39

>  <ligand_id>  (40) 
39

>  <original_smiles>  (40) 
[H]C(Oc1c([H])c([H])c2c(c1[H])C([H])([H])N(C(=O)C([H])(N([H])C(=O)C([H])(N([H])C([H])([H])[H])C([H])([H])[H])C(C([H])([H])[H])(C([H])([H])[H])C([H])([H])[H])C([H])(C(=O)N([H])C1([H])c3c([H])c([H])c([H])c([H])c3C([H])([H])C([H])([H])C1([H])[H])C2([H])[H])=C([H])C(=O)C([H])=C([H])c1c([H])c([H])c(N([H])C(=O)N2C([H])([H])C([H])([H])C([H])([H])C([H])(n3nc(-c4c([H])c([H])c(Oc5c([H])c([H])c(F)c([H])c5F)c([H])c4[H])c(C(=O)N([H])[H])c3N([H])[H])C2([H])[H])c([H])c1C([H])([H])[H]

>  <smiles>  (40) 
[H]C(Oc1c([H])c([H])c2c(c1[H])C([H])([H])N(C(=O)C([H])(N([H])C(=O)C([H])(N([H])C([H])([H])[H])C([H])([H])[H])C(C([H])([H])[H])(C([H])([H])[H])C([H])([H])[H])C([H])(C(=O)N([H])C1([H])c3c([H])c([H])c([H])c([H])c3C([H])([H])C([H])([H])C1([H])[H])C2([H])[H])=C([H])C(=O)C([H])=C([H])c1c([H])c([H])c(N([H])C(=O)N2C([H])([H])C([H])([H])C([H])([H])C([H])(n3nc(-c4c([H])c([H])c(Oc5c([H])c([H])c(F)c([H])c5F)c([H])c4[H])c(C(=O)N([H])[H])c3N([H])[H])C2([H])[H])c([H])c1C([H])([H])[H]

$$$$
40:0:0
     RDKit          3D

 92100  0  0  1  0  0  0  0  0999 V2000
  -32.1740  -18.7130   20.2070 C   0  0  0  0  0  3  0  0  0  0  0  0
  -31.8220  -17.3830   20.4550 C   0  0  0  0  0  3  0  0  0  0  0  0
  -31.1850  -19.6660   19.9360 C   0  0  0  0  0  3  0  0  0  0  0  0
  -29.4480  -17.9400   20.2040 C   0  0  0  0  0  0  0  0  0  0  0  0
  -30.4710  -16.9520   20.4280 C   0  0  0  0  0  0  0  0  0  0  0  0
  -29.8170  -19.3090   19.9290 C   0  0  0  0  0  0  0  0  0  0  0  0
  -30.7370  -14.4610   20.1050 C   0  0  0  0  0  0  0  0  0  0  0  0
  -30.2860  -12.3300   18.9610 C   0  0  0  0  0  2  0  0  0  0  0  0
  -29.2930  -12.5790   17.8100 C   0  0  0  0  0  2  0  0  0  0  0  0
  -27.8440  -12.4460   18.3110 C   0  0  0  0  0  2  0  0  0  0  0  0
  -27.5840  -13.2570   19.6100 C   0  0  0  0  0  3  0  0  0  0  0  0
  -28.7010  -13.0480   20.6620 C   0  0  0  0  0  2  0  0  0  0  0  0
  -29.9980  -13.3170   20.0190 N   0  0  0  0  0  0  0  0  0  0  0  0
  -31.8510  -14.5290   19.5860 O   0  0  0  0  0  0  0  0  0  0  0  0
  -30.1410  -15.5520   20.6440 N   0  0  0  0  0  0  0  0  0  0  0  0
  -29.2370  -15.3670   21.0540 H   0  0  0  0  0  0  0  0  0  0  0  0
  -25.2310  -13.8480   20.4660 C   0  0  0  0  0  0  0  0  0  0  0  0
  -24.1840  -13.0670   20.8740 C   0  0  0  0  0  0  0  0  0  0  0  0
  -24.6360  -11.7160   20.7840 C   0  0  0  0  0  0  0  0  0  0  0  0
  -26.2600  -12.9720   20.1570 N   0  0  0  0  0  0  0  0  0  0  0  0
  -25.9090  -11.6840   20.4080 N   0  0  0  0  0  0  0  0  0  0  0  0
  -23.9140  -10.4540   20.9790 C   0  0  0  0  0  0  0  0  0  0  0  0
  -24.3650   -9.4810   21.8970 C   0  0  0  0  0  3  0  0  0  0  0  0
  -23.6420   -8.2830   22.0850 C   0  0  0  0  0  3  0  0  0  0  0  0
  -22.4530   -8.0490   21.3540 C   0  0  0  0  0  0  0  0  0  0  0  0
  -22.0180   -9.0140   20.4280 C   0  0  0  0  0  3  0  0  0  0  0  0
  -22.7400  -10.2030   20.2380 C   0  0  0  0  0  3  0  0  0  0  0  0
  -21.6970   -6.9050   21.4540 O   0  0  0  0  0  0  0  0  0  0  0  0
  -21.6460   -6.1750   22.6150 C   0  0  0  0  0  0  0  0  0  0  0  0
  -21.2050   -6.7390   23.8320 C   0  0  0  0  0  3  0  0  0  0  0  0
  -21.1050   -5.9360   24.9850 C   0  0  0  0  0  3  0  0  0  0  0  0
  -21.4300   -4.5680   24.9210 C   0  0  0  0  0  0  0  0  0  0  0  0
  -21.8570   -4.0010   23.7080 C   0  0  0  0  0  3  0  0  0  0  0  0
  -21.9640   -4.8030   22.5580 C   0  0  0  0  0  0  0  0  0  0  0  0
  -22.3590   -4.2480   21.3870 F   0  0  0  0  0  0  0  0  0  0  0  0
  -21.3240   -3.7940   26.0270 F   0  0  0  0  0  0  0  0  0  0  0  0
  -22.8030  -13.5430   21.2300 C   0  0  0  0  0  0  0  0  0  0  0  0
  -22.1230  -12.8370   22.1260 N   0  0  0  0  0  0  0  0  0  0  0  0
  -22.3390  -14.5770   20.7500 O   0  0  0  0  0  0  0  0  0  0  0  0
  -22.5120  -12.0040   22.5420 H   0  0  0  0  0  0  0  0  0  0  0  0
  -21.1990  -13.1340   22.4050 H   0  0  0  0  0  0  0  0  0  0  0  0
  -25.3860  -15.2210   20.3100 N   0  0  0  0  0  0  0  0  0  0  0  0
  -24.6280  -15.8630   20.5100 H   0  0  0  0  0  0  0  0  0  0  0  0
  -26.1990  -15.6790   19.9210 H   0  0  0  0  0  0  0  0  0  0  0  0
  -26.8880  -18.1720   20.0180 C   0  0  0  0  0  2  0  0  0  0  0  0
  -28.0240  -17.4920   20.2720 C   0  0  0  0  0  3  0  0  0  0  0  0
  -28.8380  -20.2700   19.7160 O   0  0  0  0  0  0  0  0  0  0  0  0
  -29.1130  -21.5520   19.1130 C   0  0  0  0  0  2  0  0  0  0  0  0
  -28.5440  -22.6860   19.9990 C   0  0  0  0  0  2  0  0  0  0  0  0
  -28.6310  -24.1130   19.3810 C   0  0  0  0  0  2  0  0  0  0  0  0
  -28.2410  -25.2320   20.3830 C   0  0  0  0  0  2  0  0  0  0  0  0
  -28.3610  -26.5730   19.8610 O   0  0  0  0  0  0  0  0  0  0  0  0
  -24.5480  -31.6470   23.1170 C   0  0  0  0  0  0  0  0  0  0  0  0
  -27.2050  -27.3230   19.8800 C   0  0  0  0  0  0  0  0  0  0  0  0
  -23.3500  -30.3140   21.4080 C   0  0  0  0  0  3  0  0  0  0  0  0
  -24.8130  -28.8270   19.9360 C   0  0  0  0  0  0  0  0  0  0  0  0
  -25.8780  -30.6780   21.2410 C   0  0  0  0  0  2  0  0  0  0  0  0
  -25.9680  -29.3330   20.5470 C   0  0  0  0  0  0  0  0  0  0  0  0
  -27.1730  -28.5910   20.5060 C   0  0  0  0  0  3  0  0  0  0  0  0
  -26.0330  -26.8280   19.2710 C   0  0  0  0  0  3  0  0  0  0  0  0
  -24.8400  -27.5760   19.2950 C   0  0  0  0  0  3  0  0  0  0  0  0
  -23.5660  -29.6790   20.0080 C   0  0  0  0  0  2  0  0  0  0  0  0
  -24.6090  -30.8950   21.9810 N   0  0  0  0  0  0  0  0  0  0  0  0
  -23.4620  -31.8940   23.6640 O   0  0  0  0  0  0  0  0  0  0  0  0
  -22.6910  -29.2590   22.3270 C   0  0  0  0  0  0  0  0  0  0  0  0
  -21.3620  -29.1010   22.2000 N   0  0  0  0  0  0  0  0  0  0  0  0
  -23.3710  -28.5830   23.1030 O   0  0  0  0  0  0  0  0  0  0  0  0
  -20.8720  -29.6990   21.5480 H   0  0  0  0  0  0  0  0  0  0  0  0
  -17.9760  -27.9250   22.6620 C   0  0  0  0  0  0  0  0  0  0  0  0
  -20.5400  -28.1320   22.9260 C   0  0  0  0  0  3  0  0  0  0  0  0
  -20.6160  -26.7310   22.2810 C   0  0  0  0  0  2  0  0  0  0  0  0
  -19.5030  -26.4790   21.2570 C   0  0  0  0  0  2  0  0  0  0  0  0
  -18.1290  -26.6060   21.9240 C   0  0  0  0  0  2  0  0  0  0  0  0
  -19.1090  -28.6460   23.1240 C   0  0  0  0  0  0  0  0  0  0  0  0
  -18.9120  -29.8760   23.7860 C   0  0  0  0  0  3  0  0  0  0  0  0
  -17.6170  -30.3900   23.9820 C   0  0  0  0  0  3  0  0  0  0  0  0
  -16.4990  -29.6670   23.5350 C   0  0  0  0  0  3  0  0  0  0  0  0
  -16.6770  -28.4340   22.8820 C   0  0  0  0  0  3  0  0  0  0  0  0
  -25.8290  -32.2510   23.7710 C   0  0  0  0  0  3  0  0  0  0  0  0
  -25.5310  -33.6430   24.1310 N   0  0  0  0  0  0  0  0  0  0  0  0
  -25.8880  -34.7100   23.4020 C   0  0  0  0  0  0  0  0  0  0  0  0
  -26.5720  -34.6240   22.3800 O   0  0  0  0  0  0  0  0  0  0  0  0
  -24.9270  -33.7840   24.9270 H   0  0  0  0  0  0  0  0  0  0  0  0
  -24.1800  -36.5270   23.0680 C   0  0  0  0  0  1  0  0  0  0  0  0
  -25.4070  -36.0920   23.8870 C   0  0  0  0  0  3  0  0  0  0  0  0
  -27.5360  -36.9370   24.7680 C   0  0  0  0  0  1  0  0  0  0  0  0
  -26.4520  -37.1360   23.8120 N   0  0  0  0  0  0  0  0  0  0  0  0
  -26.0530  -38.0560   23.9700 H   0  0  0  0  0  0  0  0  0  0  0  0
  -26.3250  -31.4420   25.0330 C   0  0  1  0  0  0  0  0  0  0  0  0
  -25.2220  -31.2000   26.0870 C   0  0  0  0  0  1  0  0  0  0  0  0
  -26.8880  -30.0640   24.6120 C   0  0  0  0  0  1  0  0  0  0  0  0
  -27.4840  -32.2010   25.7200 C   0  0  0  0  0  1  0  0  0  0  0  0
  1  2  1  0
  3  1  2  0
  4 46  1  0
  4  5  1  0
  5  2  2  0
  5 15  1  0
  6  3  1  0
  6  4  2  0
  7 15  1  0
  8 13  1  0
  9 10  1  0
  9  8  1  0
 11 10  1  0
 11 20  1  0
 11 12  1  0
 13  7  1  0
 13 12  1  0
 14  7  2  0
 15 16  1  0
 17 18  2  0
 18 37  1  0
 19 18  1  0
 19 22  1  0
 20 21  1  0
 20 17  1  0
 21 19  2  0
 22 23  1  0
 23 24  2  0
 25 28  1  0
 25 24  1  0
 26 25  2  0
 27 26  1  0
 27 22  2  0
 28 29  1  0
 29 30  1  0
 30 31  2  0
 32 31  1  0
 32 36  1  0
 33 32  2  0
 34 29  2  0
 34 33  1  0
 35 34  1  0
 37 38  1  0
 38 41  1  0
 38 40  1  0
 39 37  2  0
 42 17  1  0
 42 43  1  0
 44 42  1  0
 45 46  2  0
 47  6  1  0
 48 47  1  0
 48 49  1  0
 50 49  1  0
 50 51  1  0
 52 54  1  0
 52 51  1  0
 53 64  2  0
 54 59  1  0
 55 63  1  0
 55 65  1  0
 56 62  1  0
 56 58  1  0
 57 63  1  0
 58 57  1  0
 59 58  2  0
 60 61  1  0
 60 54  2  0
 61 56  2  0
 62 55  1  0
 63 53  1  0
 65 67  2  0
 66 65  1  0
 68 66  1  0
 69 78  2  0
 69 74  1  0
 70 66  1  0
 70 74  1  0
 71 70  1  0
 72 73  1  0
 72 71  1  0
 73 69  1  0
 74 75  2  0
 75 76  1  0
 77 76  2  0
 78 77  1  0
 79 53  1  0
 79 80  1  0
 79 89  1  0
 80 83  1  0
 81 85  1  0
 81 80  1  0
 82 81  2  0
 85 84  1  0
 87 85  1  0
 87 88  1  0
 87 86  1  0
 89 92  1  1
 89 90  1  0
 91 89  1  0
M  ISO  4   7 100  15 100  51 101  52 101
M  END
>  <TORSDO>  (41) 
F 22

>  <SCORE>  (41) 
-13.109

>  <name>  (41) 
40

>  <ligand_id>  (41) 
40

>  <original_smiles>  (41) 
[H]C([H])=C([H])c1c(OC([H])([H])C([H])([H])C([H])([H])C([H])([H])Oc2c([H])c([H])c3c(c2[H])C([H])([H])N(C(=O)C([H])(N([H])C(=O)C([H])(N([H])C([H])([H])[H])C([H])([H])[H])C(C([H])([H])[H])(C([H])([H])[H])C([H])([H])[H])C([H])(C(=O)N([H])C2([H])c4c([H])c([H])c([H])c([H])c4C([H])([H])C([H])([H])C2([H])[H])C3([H])[H])c([H])c([H])c([H])c1N([H])C(=O)N1C([H])([H])C([H])([H])C([H])([H])C([H])(n2nc(-c3c([H])c([H])c(Oc4c([H])c([H])c(F)c([H])c4F)c([H])c3[H])c(C(=O)N([H])[H])c2N([H])[H])C1([H])[H]

>  <smiles>  (41) 
[H]C([H])=C([H])c1c(OC([H])([H])C([H])([H])C([H])([H])C([H])([H])Oc2c([H])c([H])c3c(c2[H])C([H])([H])N(C(=O)C([H])(N([H])C(=O)C([H])(N([H])C([H])([H])[H])C([H])([H])[H])C(C([H])([H])[H])(C([H])([H])[H])C([H])([H])[H])C([H])(C(=O)N([H])C2([H])c4c([H])c([H])c([H])c([H])c4C([H])([H])C([H])([H])C2([H])[H])C3([H])[H])c([H])c([H])c([H])c1N([H])C(=O)N1C([H])([H])C([H])([H])C([H])([H])C([H])(n2nc(-c3c([H])c([H])c(Oc4c([H])c([H])c(F)c([H])c4F)c([H])c3[H])c(C(=O)N([H])[H])c2N([H])[H])C1([H])[H]

$$$$
41:0:0
     RDKit          3D

 92 91  0  0  1  0  0  0  0  0999 V2000
  -19.5360  -24.9450   21.7170 C   0  0  0  0  0 15  0  0  0  0  0  0
  -20.0320  -27.2640   20.7650 C   0  0  0  0  0  1  0  0  0  0  0  0
  -22.1580  -24.8810   19.8280 C   0  0  0  0  0  1  0  0  0  0  0  0
  -20.9720  -23.5790   21.3100 C   0  0  0  0  0  2  0  0  0  0  0  0
  -22.6670  -23.1160   20.4930 C   0  0  0  0  0  2  0  0  0  0  0  0
  -21.2770  -27.1910   20.0150 C   0  0  0  0  0  2  0  0  0  0  0  0
  -19.8850  -21.3730   21.5740 C   0  0  0  0  0  2  0  0  0  0  0  0
  -20.6450  -22.3670   22.0540 C   0  0  0  0  0  3  0  0  0  0  0  0
  -24.6320  -20.8570   20.3050 C   0  0  0  0  0 15  0  0  0  0  0  0
  -26.3440  -19.4480   20.0740 C   0  0  0  0  0 15  0  0  0  0  0  0
  -28.1240  -17.5020   19.8850 C   0  0  0  0  0  2  0  0  0  0  0  0
  -30.2070  -14.8460   19.1090 C   0  0  0  0  0  2  0  0  0  0  0  0
  -30.3010  -13.3300   18.3200 C   0  0  0  0  0  2  0  0  0  0  0  0
  -29.3760  -12.2470   18.8590 C   0  0  0  0  0  2  0  0  0  0  0  0
  -28.3790  -13.1790   19.5170 C   0  0  0  0  0  3  0  0  0  0  0  0
  -28.8070  -14.3560   20.5210 C   0  0  0  0  0  2  0  0  0  0  0  0
  -28.8180  -15.7710   19.7980 N   0  0  0  0  0  0  0  0  0  0  0  0
  -29.4760  -17.4640   19.6270 O   0  0  0  0  0  1  0  0  0  0  0  0
  -26.1430  -13.4780   20.2330 C   0  0  0  0  0  0  0  0  0  0  0  0
  -25.2200  -12.6780   20.7780 C   0  0  0  0  0  0  0  0  0  0  0  0
  -25.7780  -11.3600   20.7910 C   0  0  0  0  0  0  0  0  0  0  0  0
  -27.2040  -12.6490   20.0060 N   0  0  0  0  0  0  0  0  0  0  0  0
  -27.0390  -11.3620   20.3700 N   0  0  0  0  0  0  0  0  0  0  0  0
  -25.1330  -10.0990   21.1070 C   0  0  0  0  0  0  0  0  0  0  0  0
  -25.3570   -9.4310   22.3270 C   0  0  0  0  0  3  0  0  0  0  0  0
  -24.6710   -8.2320   22.6060 C   0  0  0  0  0  3  0  0  0  0  0  0
  -23.7560   -7.7040   21.6630 C   0  0  0  0  0  0  0  0  0  0  0  0
  -23.5630   -8.3640   20.4390 C   0  0  0  0  0  3  0  0  0  0  0  0
  -24.2500   -9.5520   20.1580 C   0  0  0  0  0  3  0  0  0  0  0  0
  -23.0580   -6.5380   21.8370 O   0  0  0  0  0  0  0  0  0  0  0  0
  -22.1570   -6.3910   22.8580 C   0  0  0  0  0  0  0  0  0  0  0  0
  -21.0420   -7.2450   22.9990 C   0  0  0  0  0  3  0  0  0  0  0  0
  -20.1040   -7.0110   24.0240 C   0  0  0  0  0  3  0  0  0  0  0  0
  -20.2750   -5.9230   24.9010 C   0  0  0  0  0  0  0  0  0  0  0  0
  -21.3850   -5.0730   24.7600 C   0  0  0  0  0  3  0  0  0  0  0  0
  -22.3220   -5.3050   23.7390 C   0  0  0  0  0  0  0  0  0  0  0  0
  -23.3790   -4.4700   23.5920 F   0  0  0  0  0  0  0  0  0  0  0  0
  -19.3700   -5.6940   25.8810 F   0  0  0  0  0  0  0  0  0  0  0  0
  -23.8590  -13.1500   21.1450 C   0  0  0  0  0  0  0  0  0  0  0  0
  -23.1950  -12.4310   22.0340 N   0  0  0  0  0  0  0  0  0  0  0  0
  -23.4150  -14.2070   20.6930 O   0  0  0  0  0  0  0  0  0  0  0  0
  -23.5820  -11.5820   22.4170 H   0  0  0  0  0  0  0  0  0  0  0  0
  -22.2800  -12.7320   22.3370 H   0  0  0  0  0  0  0  0  0  0  0  0
  -26.1590  -14.8390   19.9200 N   0  0  0  0  0  0  0  0  0  0  0  0
  -25.3220  -15.4070   19.9830 H   0  0  0  0  0  0  0  0  0  0  0  0
  -26.9210  -15.2780   19.4190 H   0  0  0  0  0  0  0  0  0  0  0  0
  -21.9440  -28.1900   22.7790 C   0  0  0  0  0  2  0  0  0  0  0  0
  -21.5220  -28.3420   21.3210 N   0  0  0  0  0  2  0  0  0  0  0  0
  -21.9140  -25.9700   24.7100 C   0  0  0  0  0  1  0  0  0  0  0  0
  -22.8480  -26.7670   23.7680 C   0  0  0  0  0  3  0  0  0  0  0  0
  -24.4680  -25.6810   23.5650 C   0  0  0  0  0  2  0  0  0  0  0  0
  -25.7400  -24.9490   22.6670 O   0  0  0  0  0  0  0  0  0  0  0  0
  -26.8640  -30.4470   22.4190 C   0  0  0  0  0  0  0  0  0  0  0  0
  -27.1350  -24.9960   22.8120 C   0  0  0  0  0  3  0  0  0  0  0  0
  -27.7740  -28.9070   20.6230 C   0  0  0  0  0  3  0  0  0  0  0  0
  -28.6770  -26.6380   21.3480 C   0  0  0  0  0  3  0  0  0  0  0  0
  -28.3600  -28.4980   23.0420 C   0  0  0  0  0  2  0  0  0  0  0  0
  -28.3310  -27.0140   22.6630 C   0  0  0  0  0  3  0  0  0  0  0  0
  -27.6610  -26.1020   23.4810 C   0  0  0  0  0  2  0  0  0  0  0  0
  -27.8250  -24.4050   21.7390 C   0  0  0  0  0  3  0  0  0  0  0  0
  -28.5160  -25.3010   20.9110 C   0  0  0  0  0  3  0  0  0  0  0  0
  -28.8730  -27.8230   20.3970 C   0  0  0  0  0  2  0  0  0  0  0  0
  -27.7370  -29.4290   22.0540 N   0  0  0  0  0  0  0  0  0  0  0  0
  -26.2420  -31.0980   21.5630 O   0  0  0  0  0  0  0  0  0  0  0  0
  -26.5740  -28.0500   20.5590 C   0  0  0  0  0  0  0  0  0  0  0  0
  -26.3080  -27.1100   19.6650 N   0  0  0  0  0  0  0  0  0  0  0  0
  -25.8340  -28.1800   21.4740 O   0  0  0  0  0  0  0  0  0  0  0  0
  -26.9740  -27.1050   18.9120 H   0  0  0  0  0  0  0  0  0  0  0  0
  -24.8580  -24.5500   15.8690 C   0  0  0  0  0  2  0  0  0  0  0  0
  -25.0480  -26.1960   19.3510 C   0  0  0  0  0  2  0  0  0  0  0  0
  -26.6220  -25.1030   19.1350 C   0  0  0  0  0  2  0  0  0  0  0  0
  -27.1440  -24.2180   17.5770 C   0  0  0  0  0  3  0  0  0  0  0  0
  -26.2950  -23.9430   16.0900 C   0  0  0  0  0  3  0  0  0  0  0  0
  -23.6660  -26.2110   17.6240 C   0  0  0  0  0 15  0  0  0  0  0  0
  -23.1150  -27.6930   16.4180 C   0  0  0  0  0  1  0  0  0  0  0  0
  -23.5840  -27.9120   14.7490 C   0  0  0  0  0  3  0  0  0  0  0  0
  -24.3660  -26.8320   13.7710 C   0  0  0  0  0  3  0  0  0  0  0  0
  -24.8830  -25.2950   14.2070 C   0  0  0  0  0  2  0  0  0  0  0  0
  -26.5900  -30.8030   23.9210 C   0  0  0  0  0  3  0  0  0  0  0  0
  -27.1010  -32.1550   24.0990 N   0  0  0  0  0  0  0  0  0  0  0  0
  -28.1440  -32.4290   24.8860 C   0  0  0  0  0  0  0  0  0  0  0  0
  -28.6940  -31.5800   25.5930 O   0  0  0  0  0  0  0  0  0  0  0  0
  -26.7280  -32.8850   23.5070 H   0  0  0  0  0  0  0  0  0  0  0  0
  -30.0280  -33.9260   24.1950 C   0  0  0  0  0  1  0  0  0  0  0  0
  -28.6560  -33.8740   24.8860 C   0  0  0  0  0  3  0  0  0  0  0  0
  -27.4350  -34.6860   26.8500 C   0  0  0  0  0  1  0  0  0  0  0  0
  -28.7440  -34.4570   26.2390 N   0  0  0  0  0  0  0  0  0  0  0  0
  -29.2400  -35.3430   26.2170 H   0  0  0  0  0  0  0  0  0  0  0  0
  -25.0990  -30.7090   24.4550 C   0  0  1  0  0  0  0  0  0  0  0  0
  -24.0340  -31.3860   23.5580 C   0  0  0  0  0  1  0  0  0  0  0  0
  -24.7240  -29.2330   24.6630 C   0  0  0  0  0  1  0  0  0  0  0  0
  -25.0060  -31.3500   25.8620 C   0  0  0  0  0  1  0  0  0  0  0  0
  3  5  1  0
  4  8  1  0
  5  4  1  0
  6  2  1  0
  6 48  1  0
  7  8  2  0
 12 17  1  0
 13 14  1  0
 13 12  1  0
 15 14  1  0
 15 22  1  0
 15 16  1  0
 17 11  1  0
 17 16  1  0
 18 11  1  0
 19 20  2  0
 20 21  1  0
 20 39  1  0
 21 24  1  0
 22 19  1  0
 22 23  1  0
 23 21  2  0
 24 25  1  0
 25 26  2  0
 27 30  1  0
 27 26  1  0
 28 27  2  0
 29 28  1  0
 29 24  2  0
 30 31  1  0
 31 32  2  0
 31 36  1  0
 32 33  1  0
 33 34  2  0
 34 38  1  0
 35 34  1  0
 36 35  2  0
 37 36  1  0
 39 40  1  0
 40 43  1  0
 40 42  1  0
 41 39  2  0
 44 45  1  0
 44 19  1  0
 46 44  1  0
 47 50  1  0
 48 47  1  0
 50 49  1  0
 51 50  1  0
 52 51  1  0
 54 52  1  0
 54 59  1  0
 55 65  1  0
 55 63  1  0
 56 62  1  0
 56 58  1  0
 58 57  1  0
 58 59  1  0
 60 54  1  0
 61 56  1  0
 61 60  2  0
 62 55  1  0
 63 53  1  0
 63 57  1  0
 64 53  2  0
 65 67  2  0
 66 65  1  0
 68 66  1  0
 69 73  1  0
 70 66  1  0
 71 70  1  0
 72 71  1  0
 73 72  2  0
 76 75  1  0
 77 78  1  0
 77 76  2  0
 78 69  1  0
 79 53  1  0
 79 80  1  0
 79 89  1  0
 80 81  1  0
 81 85  1  0
 81 82  2  0
 83 80  1  0
 85 84  1  0
 85 87  1  0
 87 86  1  0
 88 87  1  0
 89 91  1  1
 89 92  1  0
 90 89  1  0
M  ISO  4  10 100  11 100  51 101  52 101
M  END
>  <TORSDO>  (42) 
F 21

>  <SCORE>  (42) 
4.018

>  <name>  (42) 
41

>  <ligand_id>  (42) 
41

>  <original_smiles>  (42) 
[H]C(=Nc1c([H])c([H])c(C([H])=C([H])[H])c(C([H])=C([H])C(=O)N2C([H])([H])C([H])([H])C([H])([H])C([H])(n3nc(-c4c([H])c([H])c(Oc5c([H])c([H])c(F)c([H])c5F)c([H])c4[H])c(C(=O)N([H])[H])c3N([H])[H])C2([H])[H])c1[H])C([H])(C([H])([H])[H])C([H])([H])Oc1c([H])c([H])c2c(c1[H])C([H])([H])N(C(=O)C([H])(N([H])C(=O)C([H])(N([H])C([H])([H])[H])C([H])([H])[H])C(C([H])([H])[H])(C([H])([H])[H])C([H])([H])[H])C([H])(C(=O)N([H])C1([H])c3c([H])c([H])c([H])c([H])c3C([H])([H])C([H])([H])C1([H])[H])C2([H])[H]

>  <smiles>  (42) 
[H]C(=Nc1c([H])c([H])c(C([H])=C([H])[H])c(C([H])=C([H])C(=O)N2C([H])([H])C([H])([H])C([H])([H])C([H])(n3nc(-c4c([H])c([H])c(Oc5c([H])c([H])c(F)c([H])c5F)c([H])c4[H])c(C(=O)N([H])[H])c3N([H])[H])C2([H])[H])c1[H])C([H])(C([H])([H])[H])C([H])([H])Oc1c([H])c([H])c2c(c1[H])C([H])([H])N(C(=O)C([H])(N([H])C(=O)C([H])(N([H])C([H])([H])[H])C([H])([H])[H])C(C([H])([H])[H])(C([H])([H])[H])C([H])([H])[H])C([H])(C(=O)N([H])C1([H])c3c([H])c([H])c([H])c([H])c3C([H])([H])C([H])([H])C1([H])[H])C2([H])[H]

$$$$
42:0:0
     RDKit          3D

 94102  0  0  1  0  0  0  0  0999 V2000
  -29.2910  -20.1920   21.4690 C   0  0  0  0  0  3  0  0  0  0  0  0
  -30.9660  -18.6760   22.3700 C   0  0  0  0  0  3  0  0  0  0  0  0
  -29.4640  -17.9210   20.6070 C   0  0  0  0  0  3  0  0  0  0  0  0
  -30.3520  -19.9450   22.3670 C   0  0  0  0  0  0  0  0  0  0  0  0
  -28.8540  -19.1940   20.5750 C   0  0  0  0  0  0  0  0  0  0  0  0
  -30.5280  -17.6580   21.4990 C   0  0  0  0  0  0  0  0  0  0  0  0
  -27.7100  -19.4490   19.6850 C   0  0  0  0  0  3  0  0  0  0  0  0
  -27.5520  -20.4480   18.7930 C   0  0  0  0  0  3  0  0  0  0  0  0
  -28.5500  -21.5190   18.3830 C   0  0  0  0  0  2  0  0  0  0  0  0
  -28.6490  -22.6750   19.3970 C   0  0  0  0  0  2  0  0  0  0  0  0
  -29.0510  -24.0390   18.8010 C   0  0  0  0  0  2  0  0  0  0  0  0
  -29.3490  -25.0540   19.9240 C   0  0  0  0  0  2  0  0  0  0  0  0
  -29.4580  -26.4120   19.4860 O   0  0  0  0  0  0  0  0  0  0  0  0
  -25.9640  -30.7600   23.9220 C   0  0  0  0  0  0  0  0  0  0  0  0
  -28.3400  -27.1850   19.7070 C   0  0  0  0  0  0  0  0  0  0  0  0
  -24.6950  -29.9740   21.9540 C   0  0  0  0  0  3  0  0  0  0  0  0
  -26.0570  -28.7920   20.1570 C   0  0  0  0  0  0  0  0  0  0  0  0
  -27.2460  -30.1790   21.8660 C   0  0  0  0  0  2  0  0  0  0  0  0
  -27.2440  -29.0480   20.8590 C   0  0  0  0  0  0  0  0  0  0  0  0
  -28.3920  -28.2580   20.6230 C   0  0  0  0  0  3  0  0  0  0  0  0
  -27.1310  -26.9320   19.0210 C   0  0  0  0  0  3  0  0  0  0  0  0
  -25.9960  -27.7340   19.2360 C   0  0  0  0  0  3  0  0  0  0  0  0
  -24.8800  -29.6980   20.4400 C   0  0  0  0  0  2  0  0  0  0  0  0
  -25.9860  -30.2980   22.6410 N   0  0  0  0  0  0  0  0  0  0  0  0
  -24.8940  -30.9540   24.5140 O   0  0  0  0  0  0  0  0  0  0  0  0
  -23.9440  -28.7810   22.5820 C   0  0  0  0  0  0  0  0  0  0  0  0
  -22.6320  -28.6910   22.3110 N   0  0  0  0  0  0  0  0  0  0  0  0
  -24.5400  -27.9500   23.2750 O   0  0  0  0  0  0  0  0  0  0  0  0
  -22.2140  -29.4120   21.7420 H   0  0  0  0  0  0  0  0  0  0  0  0
  -19.2310  -27.4890   22.1490 C   0  0  0  0  0  0  0  0  0  0  0  0
  -21.7360  -27.6270   22.7640 C   0  0  0  0  0  3  0  0  0  0  0  0
  -21.9130  -26.3460   21.9170 C   0  0  0  0  0  2  0  0  0  0  0  0
  -20.9430  -26.2660   20.7350 C   0  0  0  0  0  2  0  0  0  0  0  0
  -19.4890  -26.3090   21.2280 C   0  0  0  0  0  2  0  0  0  0  0  0
  -20.2880  -28.1180   22.8560 C   0  0  0  0  0  0  0  0  0  0  0  0
  -19.9980  -29.2340   23.6710 C   0  0  0  0  0  3  0  0  0  0  0  0
  -18.6850  -29.7240   23.7790 C   0  0  0  0  0  3  0  0  0  0  0  0
  -17.6380  -29.0860   23.0930 C   0  0  0  0  0  3  0  0  0  0  0  0
  -17.9090  -27.9680   22.2830 C   0  0  0  0  0  3  0  0  0  0  0  0
  -27.2800  -31.0880   24.6960 C   0  0  0  0  0  3  0  0  0  0  0  0
  -27.0830  -32.3750   25.3760 N   0  0  0  0  0  0  0  0  0  0  0  0
  -27.5640  -33.5460   24.9380 C   0  0  0  0  0  0  0  0  0  0  0  0
  -28.2920  -33.6440   23.9450 O   0  0  0  0  0  0  0  0  0  0  0  0
  -26.4460  -32.3820   26.1610 H   0  0  0  0  0  0  0  0  0  0  0  0
  -26.0480  -35.5500   24.9960 C   0  0  0  0  0  1  0  0  0  0  0  0
  -27.1790  -34.8110   25.7280 C   0  0  0  0  0  3  0  0  0  0  0  0
  -29.3200  -35.1960   26.8650 C   0  0  0  0  0  1  0  0  0  0  0  0
  -28.3130  -35.7330   25.9520 N   0  0  0  0  0  0  0  0  0  0  0  0
  -27.9880  -36.6210   26.3270 H   0  0  0  0  0  0  0  0  0  0  0  0
  -27.6890  -29.9660   25.7290 C   0  0  1  0  0  0  0  0  0  0  0  0
  -26.5450  -29.5530   26.6840 C   0  0  0  0  0  1  0  0  0  0  0  0
  -28.1680  -28.6940   24.9910 C   0  0  0  0  0  1  0  0  0  0  0  0
  -28.8810  -30.4550   26.5880 C   0  0  0  0  0  1  0  0  0  0  0  0
  -30.1700  -22.1180   23.6120 C   0  0  0  0  0  2  0  0  0  0  0  0
  -30.7820  -20.9510   23.3480 C   0  0  0  0  0  3  0  0  0  0  0  0
  -31.1750  -16.2790   21.5670 C   0  0  0  0  0  2  0  0  0  0  0  0
  -32.1320  -14.5940   20.0030 C   0  0  0  0  0  0  0  0  0  0  0  0
  -31.6600  -12.4220   18.9450 C   0  0  0  0  0  2  0  0  0  0  0  0
  -30.7090  -12.6620   17.7530 C   0  0  0  0  0  2  0  0  0  0  0  0
  -29.2350  -12.6730   18.2090 C   0  0  0  0  0  2  0  0  0  0  0  0
  -28.9990  -13.5770   19.4500 C   0  0  0  0  0  3  0  0  0  0  0  0
  -30.0490  -13.2690   20.5390 C   0  0  0  0  0  2  0  0  0  0  0  0
  -31.3780  -13.4620   19.9450 N   0  0  0  0  0  0  0  0  0  0  0  0
  -33.2600  -14.6730   19.5080 O   0  0  0  0  0  0  0  0  0  0  0  0
  -31.4550  -15.7270   20.2430 N   0  0  0  0  0  0  0  0  0  0  0  0
  -31.7930  -16.4650   19.6440 H   0  0  0  0  0  0  0  0  0  0  0  0
  -26.6960  -14.4360   20.2140 C   0  0  0  0  0  0  0  0  0  0  0  0
  -25.5620  -13.7800   20.6130 C   0  0  0  0  0  0  0  0  0  0  0  0
  -25.8770  -12.3880   20.5700 C   0  0  0  0  0  0  0  0  0  0  0  0
  -27.6360  -13.4500   19.9590 N   0  0  0  0  0  0  0  0  0  0  0  0
  -27.1460  -12.2120   20.2270 N   0  0  0  0  0  0  0  0  0  0  0  0
  -25.0280  -11.2080   20.7790 C   0  0  0  0  0  0  0  0  0  0  0  0
  -25.3190  -10.2580   21.7820 C   0  0  0  0  0  3  0  0  0  0  0  0
  -24.4780   -9.1420   21.9770 C   0  0  0  0  0  3  0  0  0  0  0  0
  -23.3310   -8.9690   21.1660 C   0  0  0  0  0  0  0  0  0  0  0  0
  -23.0570   -9.9070   20.1540 C   0  0  0  0  0  3  0  0  0  0  0  0
  -23.8990  -11.0140   19.9590 C   0  0  0  0  0  3  0  0  0  0  0  0
  -22.4720   -7.9010   21.2650 O   0  0  0  0  0  0  0  0  0  0  0  0
  -22.2000   -7.3060   22.4700 C   0  0  0  0  0  0  0  0  0  0  0  0
  -21.6760   -8.0360   23.5600 C   0  0  0  0  0  3  0  0  0  0  0  0
  -21.3450   -7.3710   24.7580 C   0  0  0  0  0  3  0  0  0  0  0  0
  -21.5280   -5.9800   24.8650 C   0  0  0  0  0  0  0  0  0  0  0  0
  -22.0460   -5.2510   23.7790 C   0  0  0  0  0  3  0  0  0  0  0  0
  -22.3770   -5.9130   22.5850 C   0  0  0  0  0  0  0  0  0  0  0  0
  -22.8550   -5.2040   21.5340 F   0  0  0  0  0  0  0  0  0  0  0  0
  -21.2020   -5.3380   26.0120 F   0  0  0  0  0  0  0  0  0  0  0  0
  -24.2310  -14.4030   20.9230 C   0  0  0  0  0  0  0  0  0  0  0  0
  -23.4760  -13.8020   21.8370 N   0  0  0  0  0  0  0  0  0  0  0  0
  -23.8760  -15.4550   20.3940 O   0  0  0  0  0  0  0  0  0  0  0  0
  -23.7770  -12.9500   22.2840 H   0  0  0  0  0  0  0  0  0  0  0  0
  -22.5840  -14.2010   22.0910 H   0  0  0  0  0  0  0  0  0  0  0  0
  -26.9980  -15.7800   20.0300 N   0  0  0  0  0  0  0  0  0  0  0  0
  -26.3090  -16.5120   20.1490 H   0  0  0  0  0  0  0  0  0  0  0  0
  -27.8830  -16.1190   19.6730 H   0  0  0  0  0  0  0  0  0  0  0  0
  1  4  1  0
  3  6  2  0
  4  2  2  0
  4 55  1  0
  5  3  1  0
  5  1  2  0
  6 56  1  0
  6  2  1  0
  7  5  1  0
  8  7  2  0
  9  8  1  0
  9 10  1  0
 11 10  1  0
 11 12  1  0
 13 15  1  0
 13 12  1  0
 14 25  2  0
 15 20  1  0
 16 26  1  0
 16 24  1  0
 17 23  1  0
 17 19  1  0
 18 24  1  0
 19 18  1  0
 20 19  2  0
 21 22  1  0
 21 15  2  0
 22 17  2  0
 23 16  1  0
 24 14  1  0
 26 28  2  0
 27 26  1  0
 29 27  1  0
 30 39  2  0
 30 35  1  0
 31 27  1  0
 31 35  1  0
 32 31  1  0
 33 34  1  0
 33 32  1  0
 34 30  1  0
 35 36  2  0
 36 37  1  0
 38 37  2  0
 39 38  1  0
 40 14  1  0
 40 41  1  0
 40 50  1  0
 41 44  1  0
 42 41  1  0
 42 46  1  0
 43 42  2  0
 46 45  1  0
 46 48  1  0
 48 49  1  0
 48 47  1  0
 50 53  1  1
 50 51  1  0
 52 50  1  0
 55 54  2  0
 57 65  1  0
 58 63  1  0
 59 60  1  0
 59 58  1  0
 61 60  1  0
 61 70  1  0
 61 62  1  0
 63 57  1  0
 63 62  1  0
 64 57  2  0
 65 56  1  0
 66 65  1  0
 67 68  2  0
 68 87  1  0
 69 68  1  0
 69 72  1  0
 70 67  1  0
 70 71  1  0
 71 69  2  0
 72 73  1  0
 73 74  2  0
 75 78  1  0
 75 74  1  0
 76 75  2  0
 77 76  1  0
 77 72  2  0
 78 79  1  0
 79 84  2  0
 79 80  1  0
 80 81  2  0
 81 82  1  0
 82 86  1  0
 83 82  2  0
 84 83  1  0
 85 84  1  0
 87 88  1  0
 88 91  1  0
 88 90  1  0
 89 87  2  0
 92 93  1  0
 92 67  1  0
 94 92  1  0
M  ISO  4  12 101  13 101  57 100  65 100
M  END
>  <TORSDO>  (43) 
F 23

>  <SCORE>  (43) 
-8.848

>  <name>  (43) 
42

>  <ligand_id>  (43) 
42

>  <original_smiles>  (43) 
[H]C([H])=C([H])c1c([H])c(C([H])=C([H])C([H])([H])C([H])([H])C([H])([H])C([H])([H])Oc2c([H])c([H])c3c(c2[H])C([H])([H])N(C(=O)C([H])(N([H])C(=O)C([H])(N([H])C([H])([H])[H])C([H])([H])[H])C(C([H])([H])[H])(C([H])([H])[H])C([H])([H])[H])C([H])(C(=O)N([H])C2([H])c4c([H])c([H])c([H])c([H])c4C([H])([H])C([H])([H])C2([H])[H])C3([H])[H])c([H])c(C([H])([H])N([H])C(=O)N2C([H])([H])C([H])([H])C([H])([H])C([H])(n3nc(-c4c([H])c([H])c(Oc5c([H])c([H])c(F)c([H])c5F)c([H])c4[H])c(C(=O)N([H])[H])c3N([H])[H])C2([H])[H])c1[H]

>  <smiles>  (43) 
[H]C([H])=C([H])c1c([H])c(C([H])=C([H])C([H])([H])C([H])([H])C([H])([H])C([H])([H])Oc2c([H])c([H])c3c(c2[H])C([H])([H])N(C(=O)C([H])(N([H])C(=O)C([H])(N([H])C([H])([H])[H])C([H])([H])[H])C(C([H])([H])[H])(C([H])([H])[H])C([H])([H])[H])C([H])(C(=O)N([H])C2([H])c4c([H])c([H])c([H])c([H])c4C([H])([H])C([H])([H])C2([H])[H])C3([H])[H])c([H])c(C([H])([H])N([H])C(=O)N2C([H])([H])C([H])([H])C([H])([H])C([H])(n3nc(-c4c([H])c([H])c(Oc5c([H])c([H])c(F)c([H])c5F)c([H])c4[H])c(C(=O)N([H])[H])c3N([H])[H])C2([H])[H])c1[H]

$$$$
43:0:0
     RDKit          3D

 90 98  0  0  1  0  0  0  0  0999 V2000
  -31.2950  -18.9810   18.7920 C   0  0  0  0  0  3  0  0  0  0  0  0
  -31.0980  -17.6820   19.2990 C   0  0  0  0  0  3  0  0  0  0  0  0
  -29.1310  -18.4870   20.4510 C   0  0  0  0  0  3  0  0  0  0  0  0
  -30.4300  -20.0530   19.1000 C   0  0  0  0  0  0  0  0  0  0  0  0
  -30.0030  -17.3530   20.1330 C   0  0  0  0  0  0  0  0  0  0  0  0
  -29.3350  -19.8610   19.9850 C   0  0  0  0  0  0  0  0  0  0  0  0
  -30.6760  -21.3720   18.3860 C   0  0  0  0  0  1  0  0  0  0  0  0
  -30.5550  -14.7700   20.3430 C   0  0  0  0  0  0  0  0  0  0  0  0
  -30.3530  -12.4850   19.3620 C   0  0  0  0  0  2  0  0  0  0  0  0
  -29.4180  -12.5700   18.1370 C   0  0  0  0  0  2  0  0  0  0  0  0
  -27.9500  -12.4020   18.5720 C   0  0  0  0  0  2  0  0  0  0  0  0
  -27.5820  -13.2770   19.8000 C   0  0  0  0  0  3  0  0  0  0  0  0
  -28.6440  -13.1900   20.9150 C   0  0  0  0  0  2  0  0  0  0  0  0
  -29.9310  -13.5420   20.3130 N   0  0  0  0  0  0  0  0  0  0  0  0
  -31.7480  -14.8260   20.0250 O   0  0  0  0  0  0  0  0  0  0  0  0
  -29.7930  -15.9260   20.5560 N   0  0  0  0  0  0  0  0  0  0  0  0
  -28.8910  -15.7330   20.9670 H   0  0  0  0  0  0  0  0  0  0  0  0
  -25.2010  -13.8650   20.5310 C   0  0  0  0  0  0  0  0  0  0  0  0
  -24.1350  -13.0920   20.9010 C   0  0  0  0  0  0  0  0  0  0  0  0
  -24.5960  -11.7400   20.8670 C   0  0  0  0  0  0  0  0  0  0  0  0
  -26.2410  -12.9830   20.2930 N   0  0  0  0  0  0  0  0  0  0  0  0
  -25.8860  -11.7000   20.5570 N   0  0  0  0  0  0  0  0  0  0  0  0
  -23.8670  -10.4790   21.0550 C   0  0  0  0  0  0  0  0  0  0  0  0
  -24.2980   -9.5050   21.9830 C   0  0  0  0  0  3  0  0  0  0  0  0
  -23.5680   -8.3100   22.1560 C   0  0  0  0  0  3  0  0  0  0  0  0
  -22.3910   -8.0800   21.4050 C   0  0  0  0  0  0  0  0  0  0  0  0
  -21.9790   -9.0430   20.4680 C   0  0  0  0  0  3  0  0  0  0  0  0
  -22.7100  -10.2300   20.2900 C   0  0  0  0  0  3  0  0  0  0  0  0
  -21.6300   -6.9390   21.4930 O   0  0  0  0  0  0  0  0  0  0  0  0
  -21.5880   -6.1890   22.6410 C   0  0  0  0  0  0  0  0  0  0  0  0
  -21.1730   -6.7400   23.8730 C   0  0  0  0  0  3  0  0  0  0  0  0
  -21.0730   -5.9190   25.0140 C   0  0  0  0  0  3  0  0  0  0  0  0
  -21.3790   -4.5470   24.9230 C   0  0  0  0  0  0  0  0  0  0  0  0
  -21.7880   -3.9950   23.6950 C   0  0  0  0  0  3  0  0  0  0  0  0
  -21.8890   -4.8150   22.5560 C   0  0  0  0  0  0  0  0  0  0  0  0
  -22.2640   -4.2730   21.3730 F   0  0  0  0  0  0  0  0  0  0  0  0
  -21.2750   -3.7550   26.0150 F   0  0  0  0  0  0  0  0  0  0  0  0
  -22.7400  -13.5750   21.1670 C   0  0  0  0  0  0  0  0  0  0  0  0
  -22.0040  -12.8850   22.0300 N   0  0  0  0  0  0  0  0  0  0  0  0
  -22.3110  -14.6020   20.6430 O   0  0  0  0  0  0  0  0  0  0  0  0
  -22.3660  -12.0630   22.4890 H   0  0  0  0  0  0  0  0  0  0  0  0
  -21.0630  -13.1910   22.2370 H   0  0  0  0  0  0  0  0  0  0  0  0
  -25.3620  -15.2380   20.3550 N   0  0  0  0  0  0  0  0  0  0  0  0
  -24.5760  -15.8760   20.4320 H   0  0  0  0  0  0  0  0  0  0  0  0
  -26.1890  -15.6750   19.9700 H   0  0  0  0  0  0  0  0  0  0  0  0
  -28.4290  -20.9370   20.2450 O   0  0  0  0  0  0  0  0  0  0  0  0
  -28.8300  -22.3050   20.7100 C   0  0  0  0  0  2  0  0  0  0  0  0
  -28.2890  -23.6780   20.0180 C   0  0  0  0  0  2  0  0  0  0  0  0
  -28.3450  -25.0670   20.8510 C   0  0  0  0  0  2  0  0  0  0  0  0
  -28.3870  -26.4390   20.2510 O   0  0  0  0  0  0  0  0  0  0  0  0
  -24.6000  -31.8760   23.2480 C   0  0  0  0  0  0  0  0  0  0  0  0
  -27.2590  -27.2770   20.2730 C   0  0  0  0  0  0  0  0  0  0  0  0
  -23.4240  -30.4620   21.6010 C   0  0  0  0  0  3  0  0  0  0  0  0
  -24.8960  -28.8950   20.2140 C   0  0  0  0  0  0  0  0  0  0  0  0
  -25.9660  -30.7800   21.4510 C   0  0  0  0  0  2  0  0  0  0  0  0
  -26.0580  -29.3920   20.8190 C   0  0  0  0  0  0  0  0  0  0  0  0
  -27.2460  -28.5970   20.8330 C   0  0  0  0  0  3  0  0  0  0  0  0
  -26.0730  -26.8260   19.6630 C   0  0  0  0  0  3  0  0  0  0  0  0
  -24.9060  -27.6160   19.6300 C   0  0  0  0  0  3  0  0  0  0  0  0
  -23.6630  -29.7750   20.2300 C   0  0  0  0  0  2  0  0  0  0  0  0
  -24.6820  -31.0580   22.1570 N   0  0  0  0  0  0  0  0  0  0  0  0
  -23.5090  -32.1510   23.7670 O   0  0  0  0  0  0  0  0  0  0  0  0
  -22.7520  -29.4490   22.5590 C   0  0  0  0  0  0  0  0  0  0  0  0
  -21.4260  -29.2720   22.4220 N   0  0  0  0  0  0  0  0  0  0  0  0
  -23.4220  -28.8260   23.3870 O   0  0  0  0  0  0  0  0  0  0  0  0
  -20.9430  -29.8260   21.7280 H   0  0  0  0  0  0  0  0  0  0  0  0
  -18.0450  -28.0830   22.8980 C   0  0  0  0  0  0  0  0  0  0  0  0
  -20.6010  -28.3380   23.1890 C   0  0  0  0  0  3  0  0  0  0  0  0
  -20.7070  -26.9050   22.6160 C   0  0  0  0  0  2  0  0  0  0  0  0
  -19.6110  -26.5810   21.5950 C   0  0  0  0  0  2  0  0  0  0  0  0
  -18.2250  -26.7320   22.2270 C   0  0  0  0  0  2  0  0  0  0  0  0
  -19.1610  -28.8440   23.3370 C   0  0  0  0  0  0  0  0  0  0  0  0
  -18.9390  -30.1080   23.9240 C   0  0  0  0  0  3  0  0  0  0  0  0
  -17.6320  -30.6110   24.0790 C   0  0  0  0  0  3  0  0  0  0  0  0
  -16.5310  -29.8460   23.6570 C   0  0  0  0  0  3  0  0  0  0  0  0
  -16.7380  -28.5850   23.0710 C   0  0  0  0  0  3  0  0  0  0  0  0
  -25.8720  -32.5190   23.8830 C   0  0  0  0  0  3  0  0  0  0  0  0
  -26.3620  -31.7700   25.1830 C   0  0  1  0  0  0  0  0  0  0  0  0
  -25.2480  -31.5530   26.2340 C   0  0  0  0  0  1  0  0  0  0  0  0
  -26.9470  -30.3850   24.8290 C   0  0  0  0  0  1  0  0  0  0  0  0
  -27.5020  -32.5740   25.8540 C   0  0  0  0  0  1  0  0  0  0  0  0
  -25.5610  -33.9230   24.1840 N   0  0  0  0  0  0  0  0  0  0  0  0
  -25.9020  -34.9630   23.4100 C   0  0  0  0  0  0  0  0  0  0  0  0
  -26.5800  -34.8400   22.3870 O   0  0  0  0  0  0  0  0  0  0  0  0
  -24.9710  -34.0970   24.9840 H   0  0  0  0  0  0  0  0  0  0  0  0
  -24.1790  -36.7480   23.0030 C   0  0  0  0  0  1  0  0  0  0  0  0
  -25.4100  -36.3590   23.8380 C   0  0  0  0  0  3  0  0  0  0  0  0
  -27.5340  -37.2570   24.6800 C   0  0  0  0  0  1  0  0  0  0  0  0
  -26.4440  -37.4090   23.7190 N   0  0  0  0  0  0  0  0  0  0  0  0
  -26.0370  -38.3320   23.8460 H   0  0  0  0  0  0  0  0  0  0  0  0
  1  4  2  0
  1  2  1  0
  2  5  2  0
  4  6  1  0
  5  3  1  0
  5 16  1  0
  6 46  1  0
  6  3  2  0
  7  4  1  0
  8 16  1  0
  9 14  1  0
 10 11  1  0
 10  9  1  0
 12 11  1  0
 12 21  1  0
 12 13  1  0
 14  8  1  0
 14 13  1  0
 15  8  2  0
 16 17  1  0
 18 19  2  0
 19 38  1  0
 20 19  1  0
 20 23  1  0
 21 18  1  0
 21 22  1  0
 22 20  2  0
 23 24  1  0
 24 25  2  0
 26 29  1  0
 26 25  1  0
 27 26  2  0
 28 27  1  0
 28 23  2  0
 29 30  1  0
 30 31  1  0
 31 32  2  0
 33 32  1  0
 33 37  1  0
 34 33  2  0
 35 30  2  0
 35 34  1  0
 36 35  1  0
 38 39  1  0
 39 42  1  0
 39 41  1  0
 40 38  2  0
 43 44  1  0
 43 18  1  0
 45 43  1  0
 46 47  1  0
 48 47  1  0
 48 49  1  0
 50 52  1  0
 50 49  1  0
 51 62  2  0
 52 57  1  0
 53 61  1  0
 53 63  1  0
 54 60  1  0
 54 56  1  0
 55 61  1  0
 56 57  2  0
 56 55  1  0
 58 52  2  0
 59 58  1  0
 59 54  2  0
 60 53  1  0
 61 51  1  0
 63 65  2  0
 64 63  1  0
 66 64  1  0
 67 76  2  0
 67 72  1  0
 68 64  1  0
 68 72  1  0
 69 68  1  0
 70 71  1  0
 70 69  1  0
 71 67  1  0
 72 73  2  0
 73 74  1  0
 75 74  2  0
 76 75  1  0
 77 51  1  0
 77 82  1  0
 77 78  1  0
 78 81  1  1
 78 79  1  0
 80 78  1  0
 82 85  1  0
 83 87  1  0
 83 82  1  0
 84 83  2  0
 87 86  1  0
 89 87  1  0
 89 90  1  0
 89 88  1  0
M  ISO  4   8 100  16 100  49 101  50 101
M  END
>  <TORSDO>  (44) 
F 20

>  <SCORE>  (44) 
-13.857

>  <name>  (44) 
43

>  <ligand_id>  (44) 
43

>  <original_smiles>  (44) 
[H]c1c([H])c([H])c2c(c1[H])C([H])([H])C([H])([H])C([H])([H])C2([H])N([H])C(=O)C1([H])N(C(=O)C([H])(N([H])C(=O)C([H])(N([H])C([H])([H])[H])C([H])([H])[H])C(C([H])([H])[H])(C([H])([H])[H])C([H])([H])[H])C([H])([H])c2c([H])c(OC([H])([H])C([H])([H])C([H])([H])Oc3c([H])c(N([H])C(=O)N4C([H])([H])C([H])([H])C([H])([H])C([H])(n5nc(-c6c([H])c([H])c(Oc7c([H])c([H])c(F)c([H])c7F)c([H])c6[H])c(C(=O)N([H])[H])c5N([H])[H])C4([H])[H])c([H])c([H])c3C([H])([H])[H])c([H])c([H])c2C1([H])[H]

>  <smiles>  (44) 
[H]c1c([H])c([H])c2c(c1[H])C([H])([H])C([H])([H])C([H])([H])C2([H])N([H])C(=O)C1([H])N(C(=O)C([H])(N([H])C(=O)C([H])(N([H])C([H])([H])[H])C([H])([H])[H])C(C([H])([H])[H])(C([H])([H])[H])C([H])([H])[H])C([H])([H])c2c([H])c(OC([H])([H])C([H])([H])C([H])([H])Oc3c([H])c(N([H])C(=O)N4C([H])([H])C([H])([H])C([H])([H])C([H])(n5nc(-c6c([H])c([H])c(Oc7c([H])c([H])c(F)c([H])c7F)c([H])c6[H])c(C(=O)N([H])[H])c5N([H])[H])C4([H])[H])c([H])c([H])c3C([H])([H])[H])c([H])c([H])c2C1([H])[H]

$$$$
44:0:0
     RDKit          3D

 94103  0  0  1  0  0  0  0  0999 V2000
  -26.5270  -22.4070   19.1690 C   0  0  0  0  0  0  0  0  0  0  0  0
  -26.9990  -23.8340   19.4500 C   0  0  0  0  0  2  0  0  0  0  0  0
  -27.1830  -21.2740   19.9620 C   0  0  0  0  0  2  0  0  0  0  0  0
  -29.2200  -22.7450   20.3330 C   0  0  0  0  0  2  0  0  0  0  0  0
  -28.1300  -23.9210   20.4910 C   0  0  0  0  0  3  0  0  0  0  0  0
  -28.6430  -21.3870   20.0270 N   0  0  0  0  0  0  0  0  0  0  0  0
  -25.6420  -22.1850   18.3420 O   0  0  0  0  0  0  0  0  0  0  0  0
  -29.6490  -19.5500   21.4120 C   0  0  0  0  0  3  0  0  0  0  0  0
  -29.9710  -18.1650   21.5560 C   0  0  0  0  0  3  0  0  0  0  0  0
  -29.2950  -19.1930   19.0650 C   0  0  0  0  0  3  0  0  0  0  0  0
  -29.6350  -17.8090   19.1960 C   0  0  0  0  0  0  0  0  0  0  0  0
  -29.2600  -20.0960   20.1630 C   0  0  0  0  0  0  0  0  0  0  0  0
  -29.9610  -17.2500   20.4660 C   0  0  0  0  0  0  0  0  0  0  0  0
  -29.5540  -16.9280   17.9610 C   0  0  0  0  0  1  0  0  0  0  0  0
  -30.8230  -14.8020   20.2280 C   0  0  0  0  0  0  0  0  0  0  0  0
  -30.6470  -12.5400   19.2040 C   0  0  0  0  0  2  0  0  0  0  0  0
  -29.6710  -12.6270   18.0100 C   0  0  0  0  0  2  0  0  0  0  0  0
  -28.2090  -12.4570   18.4730 C   0  0  0  0  0  2  0  0  0  0  0  0
  -27.8680  -13.3330   19.7080 C   0  0  0  0  0  3  0  0  0  0  0  0
  -28.9530  -13.1970   20.8000 C   0  0  0  0  0  2  0  0  0  0  0  0
  -30.2440  -13.5590   20.1950 N   0  0  0  0  0  0  0  0  0  0  0  0
  -31.9450  -15.0000   19.7510 O   0  0  0  0  0  0  0  0  0  0  0  0
  -30.0430  -15.8110   20.7310 N   0  0  0  0  0  0  0  0  0  0  0  0
  -29.2610  -15.4520   21.2590 H   0  0  0  0  0  0  0  0  0  0  0  0
  -25.5040  -13.9250   20.5280 C   0  0  0  0  0  0  0  0  0  0  0  0
  -24.4440  -13.1470   20.9080 C   0  0  0  0  0  0  0  0  0  0  0  0
  -24.8940  -11.7950   20.8140 C   0  0  0  0  0  0  0  0  0  0  0  0
  -26.5340  -13.0460   20.2270 N   0  0  0  0  0  0  0  0  0  0  0  0
  -26.1730  -11.7580   20.4590 N   0  0  0  0  0  0  0  0  0  0  0  0
  -24.1660  -10.5310   20.9900 C   0  0  0  0  0  0  0  0  0  0  0  0
  -24.5710   -9.5710   21.9420 C   0  0  0  0  0  3  0  0  0  0  0  0
  -23.8440   -8.3720   22.1040 C   0  0  0  0  0  3  0  0  0  0  0  0
  -22.6970   -8.1250   21.3130 C   0  0  0  0  0  0  0  0  0  0  0  0
  -22.3120   -9.0740   20.3500 C   0  0  0  0  0  3  0  0  0  0  0  0
  -23.0390  -10.2650   20.1860 C   0  0  0  0  0  3  0  0  0  0  0  0
  -21.9450   -6.9780   21.3830 O   0  0  0  0  0  0  0  0  0  0  0  0
  -21.7770   -6.2980   22.5620 C   0  0  0  0  0  0  0  0  0  0  0  0
  -21.1950   -6.9070   23.6950 C   0  0  0  0  0  3  0  0  0  0  0  0
  -20.9760   -6.1510   24.8660 C   0  0  0  0  0  3  0  0  0  0  0  0
  -21.3290   -4.7900   24.9010 C   0  0  0  0  0  0  0  0  0  0  0  0
  -21.9020   -4.1800   23.7710 C   0  0  0  0  0  3  0  0  0  0  0  0
  -22.1220   -4.9320   22.6030 C   0  0  0  0  0  0  0  0  0  0  0  0
  -22.6550   -4.3350   21.5100 F   0  0  0  0  0  0  0  0  0  0  0  0
  -21.1110   -4.0610   26.0210 F   0  0  0  0  0  0  0  0  0  0  0  0
  -23.0600  -13.6240   21.2450 C   0  0  0  0  0  0  0  0  0  0  0  0
  -22.3610  -12.9070   22.1180 N   0  0  0  0  0  0  0  0  0  0  0  0
  -22.6110  -14.6660   20.7720 O   0  0  0  0  0  0  0  0  0  0  0  0
  -22.7380  -12.0640   22.5240 H   0  0  0  0  0  0  0  0  0  0  0  0
  -21.4340  -13.2080   22.3850 H   0  0  0  0  0  0  0  0  0  0  0  0
  -25.6710  -15.3010   20.3930 N   0  0  0  0  0  0  0  0  0  0  0  0
  -24.9120  -15.9520   20.5610 H   0  0  0  0  0  0  0  0  0  0  0  0
  -26.5130  -15.7530   20.0570 H   0  0  0  0  0  0  0  0  0  0  0  0
  -28.5640  -25.4390   20.8290 C   0  0  0  0  0  2  0  0  0  0  0  0
  -28.4630  -26.6010   19.9140 O   0  0  0  0  0  0  0  0  0  0  0  0
  -24.5650  -31.8020   23.1270 C   0  0  0  0  0  0  0  0  0  0  0  0
  -27.3250  -27.4130   19.9690 C   0  0  0  0  0  0  0  0  0  0  0  0
  -23.4090  -30.4010   21.4570 C   0  0  0  0  0  3  0  0  0  0  0  0
  -24.9100  -28.9380   19.9970 C   0  0  0  0  0  0  0  0  0  0  0  0
  -25.9350  -30.8120   21.2830 C   0  0  0  0  0  2  0  0  0  0  0  0
  -26.0620  -29.4510   20.6110 C   0  0  0  0  0  0  0  0  0  0  0  0
  -27.2720  -28.6950   20.5980 C   0  0  0  0  0  3  0  0  0  0  0  0
  -26.1630  -26.9750   19.3040 C   0  0  0  0  0  3  0  0  0  0  0  0
  -24.9620  -27.7040   19.3350 C   0  0  0  0  0  3  0  0  0  0  0  0
  -23.6450  -29.7680   20.0600 C   0  0  0  0  0  2  0  0  0  0  0  0
  -24.6540  -31.0220   22.0110 N   0  0  0  0  0  0  0  0  0  0  0  0
  -23.4750  -32.0290   23.6710 O   0  0  0  0  0  0  0  0  0  0  0  0
  -22.7870  -29.3370   22.3930 C   0  0  0  0  0  0  0  0  0  0  0  0
  -21.4660  -29.1270   22.2760 N   0  0  0  0  0  0  0  0  0  0  0  0
  -23.4930  -28.7080   23.1870 O   0  0  0  0  0  0  0  0  0  0  0  0
  -20.9520  -29.7070   21.6270 H   0  0  0  0  0  0  0  0  0  0  0  0
  -18.1310  -27.8040   22.7500 C   0  0  0  0  0  0  0  0  0  0  0  0
  -20.6810  -28.1380   23.0170 C   0  0  0  0  0  3  0  0  0  0  0  0
  -20.8280  -26.7300   22.3930 C   0  0  0  0  0  2  0  0  0  0  0  0
  -19.7290  -26.4060   21.3760 C   0  0  0  0  0  2  0  0  0  0  0  0
  -18.3490  -26.4800   22.0360 C   0  0  0  0  0  2  0  0  0  0  0  0
  -19.2270  -28.5880   23.1970 C   0  0  0  0  0  0  0  0  0  0  0  0
  -18.9710  -29.8300   23.8180 C   0  0  0  0  0  3  0  0  0  0  0  0
  -17.6510  -30.2870   23.9990 C   0  0  0  0  0  3  0  0  0  0  0  0
  -16.5690  -29.4950   23.5720 C   0  0  0  0  0  3  0  0  0  0  0  0
  -16.8100  -28.2570   22.9520 C   0  0  0  0  0  3  0  0  0  0  0  0
  -25.8280  -32.4630   23.7600 C   0  0  0  0  0  3  0  0  0  0  0  0
  -25.4730  -33.8420   24.1230 N   0  0  0  0  0  0  0  0  0  0  0  0
  -25.7540  -34.9210   23.3810 C   0  0  0  0  0  0  0  0  0  0  0  0
  -26.4140  -34.8630   22.3390 O   0  0  0  0  0  0  0  0  0  0  0  0
  -24.8830  -33.9590   24.9350 H   0  0  0  0  0  0  0  0  0  0  0  0
  -23.9510  -36.6520   23.0900 C   0  0  0  0  0  1  0  0  0  0  0  0
  -25.2220  -36.2820   23.8710 C   0  0  0  0  0  3  0  0  0  0  0  0
  -27.3330  -37.2380   24.6850 C   0  0  0  0  0  1  0  0  0  0  0  0
  -26.2120  -37.3760   23.7600 N   0  0  0  0  0  0  0  0  0  0  0  0
  -25.7720  -38.2770   23.9280 H   0  0  0  0  0  0  0  0  0  0  0  0
  -26.3730  -31.6820   25.0190 C   0  0  1  0  0  0  0  0  0  0  0  0
  -25.2910  -31.3860   26.0840 C   0  0  0  0  0  1  0  0  0  0  0  0
  -27.0010  -30.3320   24.5980 C   0  0  0  0  0  1  0  0  0  0  0  0
  -27.5000  -32.4990   25.6940 C   0  0  0  0  0  1  0  0  0  0  0  0
  1  2  1  0
  1  3  1  0
  2  5  1  0
  3  6  1  0
  4  5  1  0
  5 53  1  0
  6 12  1  0
  6  4  1  0
  7  1  2  0
  8  9  1  0
 10 11  2  0
 10 12  1  0
 11 13  1  0
 12  8  2  0
 13 23  1  0
 13  9  2  0
 14 11  1  0
 15 23  1  0
 16 21  1  0
 17 18  1  0
 17 16  1  0
 19 18  1  0
 19 28  1  0
 19 20  1  0
 21 15  1  0
 21 20  1  0
 22 15  2  0
 23 24  1  0
 25 26  2  0
 26 45  1  0
 27 26  1  0
 27 30  1  0
 28 29  1  0
 28 25  1  0
 29 27  2  0
 30 31  1  0
 31 32  2  0
 33 36  1  0
 33 32  1  0
 34 33  2  0
 35 34  1  0
 35 30  2  0
 36 37  1  0
 37 42  2  0
 37 38  1  0
 38 39  2  0
 39 40  1  0
 40 44  1  0
 41 40  2  0
 42 41  1  0
 43 42  1  0
 45 46  1  0
 46 49  1  0
 46 48  1  0
 47 45  2  0
 50 25  1  0
 50 51  1  0
 52 50  1  0
 54 56  1  0
 54 53  1  0
 55 66  2  0
 56 61  1  0
 57 65  1  0
 57 67  1  0
 58 64  1  0
 58 60  1  0
 59 65  1  0
 60 59  1  0
 61 60  2  0
 62 63  1  0
 62 56  2  0
 63 58  2  0
 64 57  1  0
 65 55  1  0
 67 69  2  0
 68 67  1  0
 70 68  1  0
 71 80  2  0
 71 76  1  0
 72 68  1  0
 72 76  1  0
 73 72  1  0
 74 75  1  0
 74 73  1  0
 75 71  1  0
 76 77  2  0
 77 78  1  0
 79 78  2  0
 80 79  1  0
 81 55  1  0
 81 82  1  0
 81 91  1  0
 82 85  1  0
 83 87  1  0
 83 82  1  0
 84 83  2  0
 87 86  1  0
 89 87  1  0
 89 90  1  0
 89 88  1  0
 91 94  1  1
 91 92  1  0
 93 91  1  0
M  ISO  4  15 100  23 100  53 101  54 101
M  END
>  <TORSDO>  (45) 
F 18

>  <SCORE>  (45) 
-13.263

>  <name>  (45) 
44

>  <ligand_id>  (45) 
44

>  <original_smiles>  (45) 
[H]c1c([H])c([H])c2c(c1[H])C([H])([H])C([H])([H])C([H])([H])C2([H])N([H])C(=O)C1([H])N(C(=O)C([H])(N([H])C(=O)C([H])(N([H])C([H])([H])[H])C([H])([H])[H])C(C([H])([H])[H])(C([H])([H])[H])C([H])([H])[H])C([H])([H])c2c([H])c(OC([H])([H])C3([H])C([H])([H])C(=O)C([H])([H])N(c4c([H])c([H])c(N([H])C(=O)N5C([H])([H])C([H])([H])C([H])([H])C([H])(n6nc(-c7c([H])c([H])c(Oc8c([H])c([H])c(F)c([H])c8F)c([H])c7[H])c(C(=O)N([H])[H])c6N([H])[H])C5([H])[H])c(C([H])([H])[H])c4[H])C3([H])[H])c([H])c([H])c2C1([H])[H]

>  <smiles>  (45) 
[H]c1c([H])c([H])c2c(c1[H])C([H])([H])C([H])([H])C([H])([H])C2([H])N([H])C(=O)C1([H])N(C(=O)C([H])(N([H])C(=O)C([H])(N([H])C([H])([H])[H])C([H])([H])[H])C(C([H])([H])[H])(C([H])([H])[H])C([H])([H])[H])C([H])([H])c2c([H])c(OC([H])([H])C3([H])C([H])([H])C(=O)C([H])([H])N(c4c([H])c([H])c(N([H])C(=O)N5C([H])([H])C([H])([H])C([H])([H])C([H])(n6nc(-c7c([H])c([H])c(Oc8c([H])c([H])c(F)c([H])c8F)c([H])c7[H])c(C(=O)N([H])[H])c6N([H])[H])C5([H])[H])c(C([H])([H])[H])c4[H])C3([H])[H])c([H])c([H])c2C1([H])[H]

$$$$
45:0:0
     RDKit          3D

 95103  0  0  1  0  0  0  0  0999 V2000
  -29.1920  -17.9770   18.5860 C   0  0  0  0  0  3  0  0  0  0  0  0
  -28.8150  -19.0970   17.8330 C   0  0  0  0  0  3  0  0  0  0  0  0
  -30.1920  -19.4330   20.2610 C   0  0  0  0  0  3  0  0  0  0  0  0
  -29.9440  -18.1270   19.7690 C   0  0  0  0  0  0  0  0  0  0  0  0
  -29.7820  -20.5810   19.5330 C   0  0  0  0  0  0  0  0  0  0  0  0
  -29.1490  -20.3920   18.2700 C   0  0  0  0  0  0  0  0  0  0  0  0
  -30.0310  -21.9390   20.0890 C   0  0  0  0  0  3  0  0  0  0  0  0
  -29.1540  -22.9590   19.9800 C   0  0  0  0  0  3  0  0  0  0  0  0
  -29.3810  -24.3540   20.4060 C   0  0  0  0  0  0  0  0  0  0  0  0
  -30.3560  -24.7440   21.0570 O   0  0  0  0  0  0  0  0  0  0  0  0
  -28.2740  -25.3110   19.9510 C   0  0  0  0  0  2  0  0  0  0  0  0
  -28.4260  -26.6710   20.3830 O   0  0  0  0  0  0  0  0  0  0  0  0
  -24.6070  -31.9450   23.2820 C   0  0  0  0  0  0  0  0  0  0  0  0
  -27.2650  -27.4240   20.3220 C   0  0  0  0  0  0  0  0  0  0  0  0
  -23.4180  -30.5240   21.6480 C   0  0  0  0  0  3  0  0  0  0  0  0
  -24.8830  -28.9610   20.2750 C   0  0  0  0  0  0  0  0  0  0  0  0
  -25.9540  -30.8590   21.4880 C   0  0  0  0  0  2  0  0  0  0  0  0
  -26.0380  -29.4770   20.8750 C   0  0  0  0  0  0  0  0  0  0  0  0
  -27.2310  -28.7150   20.8990 C   0  0  0  0  0  3  0  0  0  0  0  0
  -26.0820  -26.9350   19.7060 C   0  0  0  0  0  3  0  0  0  0  0  0
  -24.8990  -27.6880   19.6920 C   0  0  0  0  0  3  0  0  0  0  0  0
  -23.6460  -29.8270   20.2830 C   0  0  0  0  0  2  0  0  0  0  0  0
  -24.6780  -31.1230   22.1980 N   0  0  0  0  0  0  0  0  0  0  0  0
  -23.5190  -32.2340   23.7970 O   0  0  0  0  0  0  0  0  0  0  0  0
  -22.7450  -29.5190   22.6120 C   0  0  0  0  0  0  0  0  0  0  0  0
  -21.4210  -29.3480   22.4700 N   0  0  0  0  0  0  0  0  0  0  0  0
  -23.4110  -28.8980   23.4440 O   0  0  0  0  0  0  0  0  0  0  0  0
  -20.9450  -29.8990   21.7690 H   0  0  0  0  0  0  0  0  0  0  0  0
  -18.0190  -28.2350   22.9680 C   0  0  0  0  0  0  0  0  0  0  0  0
  -20.5820  -28.4320   23.2430 C   0  0  0  0  0  3  0  0  0  0  0  0
  -20.6530  -26.9970   22.6740 C   0  0  0  0  0  2  0  0  0  0  0  0
  -19.5450  -26.6940   21.6610 C   0  0  0  0  0  2  0  0  0  0  0  0
  -18.1650  -26.8770   22.3010 C   0  0  0  0  0  2  0  0  0  0  0  0
  -19.1540  -28.9710   23.3970 C   0  0  0  0  0  0  0  0  0  0  0  0
  -18.9660  -30.2420   23.9800 C   0  0  0  0  0  3  0  0  0  0  0  0
  -17.6730  -30.7770   24.1390 C   0  0  0  0  0  3  0  0  0  0  0  0
  -16.5510  -30.0350   23.7290 C   0  0  0  0  0  3  0  0  0  0  0  0
  -16.7250  -28.7660   23.1470 C   0  0  0  0  0  3  0  0  0  0  0  0
  -25.8870  -32.5790   23.9100 C   0  0  0  0  0  3  0  0  0  0  0  0
  -25.5740  -33.9790   24.2260 N   0  0  0  0  0  0  0  0  0  0  0  0
  -25.9060  -35.0230   23.4550 C   0  0  0  0  0  0  0  0  0  0  0  0
  -26.5790  -34.9100   22.4270 O   0  0  0  0  0  0  0  0  0  0  0  0
  -24.9740  -34.1380   25.0220 H   0  0  0  0  0  0  0  0  0  0  0  0
  -24.1730  -36.8070   23.0760 C   0  0  0  0  0  1  0  0  0  0  0  0
  -25.4130  -36.4140   23.8970 C   0  0  0  0  0  3  0  0  0  0  0  0
  -27.5440  -37.3110   24.7220 C   0  0  0  0  0  1  0  0  0  0  0  0
  -26.4410  -37.4700   23.7780 N   0  0  0  0  0  0  0  0  0  0  0  0
  -26.0320  -38.3890   23.9220 H   0  0  0  0  0  0  0  0  0  0  0  0
  -26.3900  -31.8140   25.1950 C   0  0  1  0  0  0  0  0  0  0  0  0
  -25.2830  -31.5780   26.2500 C   0  0  0  0  0  1  0  0  0  0  0  0
  -26.9830  -30.4370   24.8150 C   0  0  0  0  0  1  0  0  0  0  0  0
  -27.5280  -32.6150   25.8700 C   0  0  0  0  0  1  0  0  0  0  0  0
  -30.5410  -16.9150   20.3620 C   0  0  0  0  0  2  0  0  0  0  0  0
  -29.9680  -15.6900   20.3300 C   0  0  0  0  0  2  0  0  0  0  0  0
  -30.7590  -14.4750   20.5230 C   0  0  0  0  0  0  0  0  0  0  0  0
  -30.4300  -12.2610   19.5410 C   0  0  0  0  0  2  0  0  0  0  0  0
  -29.5330  -12.4290   18.2980 C   0  0  0  0  0  2  0  0  0  0  0  0
  -28.0460  -12.2970   18.6870 C   0  0  0  0  0  2  0  0  0  0  0  0
  -27.6650  -13.1980   19.8870 C   0  0  0  0  0  3  0  0  0  0  0  0
  -28.7000  -13.1000   21.0340 C   0  0  0  0  0  2  0  0  0  0  0  0
  -30.0500  -13.3150   20.4920 N   0  0  0  0  0  0  0  0  0  0  0  0
  -31.9750  -14.5040   20.3320 O   0  0  0  0  0  0  0  0  0  0  0  0
  -25.2780  -13.8530   20.5720 C   0  0  0  0  0  0  0  0  0  0  0  0
  -24.1910  -13.0990   20.9230 C   0  0  0  0  0  0  0  0  0  0  0  0
  -24.6320  -11.7410   20.9120 C   0  0  0  0  0  0  0  0  0  0  0  0
  -26.3090  -12.9510   20.3580 N   0  0  0  0  0  0  0  0  0  0  0  0
  -25.9270  -11.6770   20.6290 N   0  0  0  0  0  0  0  0  0  0  0  0
  -23.8850  -10.4920   21.0950 C   0  0  0  0  0  0  0  0  0  0  0  0
  -24.2910   -9.5200   22.0360 C   0  0  0  0  0  3  0  0  0  0  0  0
  -23.5470   -8.3330   22.2040 C   0  0  0  0  0  3  0  0  0  0  0  0
  -22.3810   -8.1120   21.4350 C   0  0  0  0  0  0  0  0  0  0  0  0
  -21.9930   -9.0720   20.4830 C   0  0  0  0  0  3  0  0  0  0  0  0
  -22.7390  -10.2500   20.3120 C   0  0  0  0  0  3  0  0  0  0  0  0
  -21.6090   -6.9780   21.5160 O   0  0  0  0  0  0  0  0  0  0  0  0
  -21.5540   -6.2240   22.6600 C   0  0  0  0  0  0  0  0  0  0  0  0
  -21.1350   -6.7710   23.8930 C   0  0  0  0  0  3  0  0  0  0  0  0
  -21.0250   -5.9460   25.0290 C   0  0  0  0  0  3  0  0  0  0  0  0
  -21.3220   -4.5730   24.9340 C   0  0  0  0  0  0  0  0  0  0  0  0
  -21.7330   -4.0250   23.7070 C   0  0  0  0  0  3  0  0  0  0  0  0
  -21.8460   -4.8490   22.5730 C   0  0  0  0  0  0  0  0  0  0  0  0
  -22.2230   -4.3110   21.3870 F   0  0  0  0  0  0  0  0  0  0  0  0
  -21.2070   -3.7770   26.0240 F   0  0  0  0  0  0  0  0  0  0  0  0
  -22.7960  -13.6000   21.1630 C   0  0  0  0  0  0  0  0  0  0  0  0
  -22.0420  -12.9280   22.0260 N   0  0  0  0  0  0  0  0  0  0  0  0
  -22.3820  -14.6240   20.6200 O   0  0  0  0  0  0  0  0  0  0  0  0
  -22.3870  -12.1000   22.4900 H   0  0  0  0  0  0  0  0  0  0  0  0
  -21.1060  -13.2490   22.2280 H   0  0  0  0  0  0  0  0  0  0  0  0
  -25.4690  -15.2200   20.3930 N   0  0  0  0  0  0  0  0  0  0  0  0
  -24.7120  -15.8860   20.4940 H   0  0  0  0  0  0  0  0  0  0  0  0
  -26.3340  -15.6520   20.0950 H   0  0  0  0  0  0  0  0  0  0  0  0
  -28.9260  -21.4700   17.4040 N   0  0  0  0  0  0  0  0  0  0  0  0
  -28.9750  -22.3470   17.9100 H   0  0  0  0  0  0  0  0  0  0  0  0
  -29.8220  -21.4880   16.2570 C   0  0  0  0  0  2  0  0  0  0  0  0
  -30.1720  -23.6120   14.9350 C   0  0  0  0  0  2  0  0  0  0  0  0
  -30.3900  -22.8720   16.0300 C   0  0  0  0  0  3  0  0  0  0  0  0
  1  4  1  0
  2  6  1  0
  2  1  2  0
  4  3  2  0
  4 53  1  0
  5  7  1  0
  5  3  1  0
  6  5  2  0
  8  7  2  0
  8  9  1  0
  9 10  2  0
 11 12  1  0
 11  9  1  0
 13 24  2  0
 14 12  1  0
 14 19  1  0
 15 23  1  0
 15 25  1  0
 16 22  1  0
 16 18  1  0
 17 23  1  0
 18 19  2  0
 18 17  1  0
 20 14  2  0
 21 20  1  0
 21 16  2  0
 22 15  1  0
 23 13  1  0
 25 27  2  0
 26 25  1  0
 28 26  1  0
 29 38  2  0
 29 34  1  0
 30 26  1  0
 30 34  1  0
 31 30  1  0
 32 33  1  0
 32 31  1  0
 33 29  1  0
 34 35  2  0
 35 36  1  0
 37 36  2  0
 38 37  1  0
 39 13  1  0
 39 40  1  0
 39 49  1  0
 40 43  1  0
 41 45  1  0
 41 40  1  0
 42 41  2  0
 45 44  1  0
 47 45  1  0
 47 48  1  0
 47 46  1  0
 49 52  1  1
 49 50  1  0
 51 49  1  0
 54 53  1  0
 54 55  1  0
 56 61  1  0
 57 58  1  0
 57 56  1  0
 59 58  1  0
 59 66  1  0
 59 60  1  0
 61 55  1  0
 61 60  1  0
 62 55  2  0
 63 64  2  0
 64 83  1  0
 65 64  1  0
 65 68  1  0
 66 63  1  0
 66 67  1  0
 67 65  2  0
 68 69  1  0
 69 70  2  0
 71 74  1  0
 71 70  1  0
 72 71  2  0
 73 72  1  0
 73 68  2  0
 74 75  1  0
 75 76  1  0
 76 77  2  0
 78 77  1  0
 78 82  1  0
 79 78  2  0
 80 75  2  0
 80 79  1  0
 81 80  1  0
 83 84  1  0
 84 87  1  0
 84 86  1  0
 85 83  2  0
 88 89  1  0
 88 63  1  0
 90 88  1  0
 91 92  1  0
 91  6  1  0
 93 91  1  0
 94 95  2  0
 95 93  1  0
M  ISO  4  11 101  12 101  54 100  55 100
M  END
>  <TORSDO>  (46) 
F 23

>  <SCORE>  (46) 
-12.916

>  <name>  (46) 
45

>  <ligand_id>  (46) 
45

>  <original_smiles>  (46) 
[H]C([H])=C([H])C([H])([H])N([H])c1c([H])c([H])c(C([H])=C([H])C(=O)N2C([H])([H])C([H])([H])C([H])([H])C([H])(n3nc(-c4c([H])c([H])c(Oc5c([H])c([H])c(F)c([H])c5F)c([H])c4[H])c(C(=O)N([H])[H])c3N([H])[H])C2([H])[H])c([H])c1C([H])=C([H])C(=O)C([H])([H])Oc1c([H])c([H])c2c(c1[H])C([H])([H])N(C(=O)C([H])(N([H])C(=O)C([H])(N([H])C([H])([H])[H])C([H])([H])[H])C(C([H])([H])[H])(C([H])([H])[H])C([H])([H])[H])C([H])(C(=O)N([H])C1([H])c3c([H])c([H])c([H])c([H])c3C([H])([H])C([H])([H])C1([H])[H])C2([H])[H]

>  <smiles>  (46) 
[H]C([H])=C([H])C([H])([H])N([H])c1c([H])c([H])c(C([H])=C([H])C(=O)N2C([H])([H])C([H])([H])C([H])([H])C([H])(n3nc(-c4c([H])c([H])c(Oc5c([H])c([H])c(F)c([H])c5F)c([H])c4[H])c(C(=O)N([H])[H])c3N([H])[H])C2([H])[H])c([H])c1C([H])=C([H])C(=O)C([H])([H])Oc1c([H])c([H])c2c(c1[H])C([H])([H])N(C(=O)C([H])(N([H])C(=O)C([H])(N([H])C([H])([H])[H])C([H])([H])[H])C(C([H])([H])[H])(C([H])([H])[H])C([H])([H])[H])C([H])(C(=O)N([H])C1([H])c3c([H])c([H])c([H])c([H])c3C([H])([H])C([H])([H])C1([H])[H])C2([H])[H]

$$$$
46:0:0
     RDKit          3D

 87 95  0  0  1  0  0  0  0  0999 V2000
  -28.6110  -22.3850   20.2750 C   0  0  0  0  0  3  0  0  0  0  0  0
  -28.8980  -23.7430   20.3720 C   0  0  0  0  0  3  0  0  0  0  0  0
  -29.1310  -19.7030   20.3800 C   0  0  0  0  0  3  0  0  0  0  0  0
  -30.7260  -21.2680   21.0900 C   0  0  0  0  0  3  0  0  0  0  0  0
  -29.4630  -21.1360   20.5830 C   0  0  0  0  0  0  0  0  0  0  0  0
  -30.1720  -18.7960   20.6690 C   0  0  0  0  0  0  0  0  0  0  0  0
  -31.5220  -19.7230   21.3000 S   0  0  0  0  0  0  0  0  0  0  0  0
  -30.4520  -17.3240   20.5730 C   0  0  0  0  0  3  0  0  0  0  0  0
  -29.8440  -16.0760   20.6060 C   0  0  0  0  0  3  0  0  0  0  0  0
  -30.6220  -14.7930   20.3700 C   0  0  0  0  0  0  0  0  0  0  0  0
  -30.3930  -12.5190   19.3640 C   0  0  0  0  0  2  0  0  0  0  0  0
  -29.4720  -12.6080   18.1280 C   0  0  0  0  0  2  0  0  0  0  0  0
  -27.9970  -12.4400   18.5400 C   0  0  0  0  0  2  0  0  0  0  0  0
  -27.6150  -13.3190   19.7600 C   0  0  0  0  0  3  0  0  0  0  0  0
  -28.6630  -13.2340   20.8880 C   0  0  0  0  0  2  0  0  0  0  0  0
  -29.9680  -13.5790   20.3120 N   0  0  0  0  0  0  0  0  0  0  0  0
  -31.8130  -14.8250   20.0470 O   0  0  0  0  0  0  0  0  0  0  0  0
  -25.2190  -13.8950   20.4680 C   0  0  0  0  0  0  0  0  0  0  0  0
  -24.1560  -13.1160   20.8330 C   0  0  0  0  0  0  0  0  0  0  0  0
  -24.6280  -11.7680   20.8150 C   0  0  0  0  0  0  0  0  0  0  0  0
  -26.2700  -13.0210   20.2430 N   0  0  0  0  0  0  0  0  0  0  0  0
  -25.9220  -11.7370   20.5150 N   0  0  0  0  0  0  0  0  0  0  0  0
  -23.9080  -10.5020   21.0050 C   0  0  0  0  0  0  0  0  0  0  0  0
  -24.3320   -9.5430   21.9520 C   0  0  0  0  0  3  0  0  0  0  0  0
  -23.6090   -8.3430   22.1300 C   0  0  0  0  0  3  0  0  0  0  0  0
  -22.4480   -8.0920   21.3610 C   0  0  0  0  0  0  0  0  0  0  0  0
  -22.0450   -9.0390   20.4020 C   0  0  0  0  0  3  0  0  0  0  0  0
  -22.7680  -10.2290   20.2220 C   0  0  0  0  0  3  0  0  0  0  0  0
  -21.6990   -6.9440   21.4470 O   0  0  0  0  0  0  0  0  0  0  0  0
  -21.6270   -6.2180   22.6070 C   0  0  0  0  0  0  0  0  0  0  0  0
  -21.1490   -6.7810   23.8100 C   0  0  0  0  0  3  0  0  0  0  0  0
  -21.0250   -5.9800   24.9630 C   0  0  0  0  0  3  0  0  0  0  0  0
  -21.3700   -4.6160   24.9140 C   0  0  0  0  0  0  0  0  0  0  0  0
  -21.8420   -4.0520   23.7160 C   0  0  0  0  0  3  0  0  0  0  0  0
  -21.9670   -4.8500   22.5650 C   0  0  0  0  0  0  0  0  0  0  0  0
  -22.4010   -4.2970   21.4080 F   0  0  0  0  0  0  0  0  0  0  0  0
  -21.2450   -3.8450   26.0190 F   0  0  0  0  0  0  0  0  0  0  0  0
  -22.7520  -13.5850   21.0910 C   0  0  0  0  0  0  0  0  0  0  0  0
  -22.0240  -12.8870   21.9550 N   0  0  0  0  0  0  0  0  0  0  0  0
  -22.3120  -14.6030   20.5600 O   0  0  0  0  0  0  0  0  0  0  0  0
  -22.3960  -12.0650   22.4060 H   0  0  0  0  0  0  0  0  0  0  0  0
  -21.0810  -13.1800   22.1700 H   0  0  0  0  0  0  0  0  0  0  0  0
  -25.3770  -15.2660   20.2860 N   0  0  0  0  0  0  0  0  0  0  0  0
  -24.6100  -15.9200   20.3930 H   0  0  0  0  0  0  0  0  0  0  0  0
  -26.2280  -15.7060   19.9610 H   0  0  0  0  0  0  0  0  0  0  0  0
  -27.9310  -24.9390   19.9870 C   0  0  0  0  0  2  0  0  0  0  0  0
  -28.2420  -26.3830   20.2900 O   0  0  0  0  0  0  0  0  0  0  0  0
  -24.6130  -31.9180   23.2960 C   0  0  0  0  0  0  0  0  0  0  0  0
  -27.1720  -27.3120   20.2140 C   0  0  0  0  0  0  0  0  0  0  0  0
  -23.3980  -30.5360   21.6550 C   0  0  0  0  0  3  0  0  0  0  0  0
  -24.8340  -28.9900   20.2100 C   0  0  0  0  0  0  0  0  0  0  0  0
  -25.9440  -30.8260   21.4710 C   0  0  0  0  0  2  0  0  0  0  0  0
  -26.0120  -29.4480   20.8130 C   0  0  0  0  0  0  0  0  0  0  0  0
  -27.1850  -28.6230   20.8050 C   0  0  0  0  0  3  0  0  0  0  0  0
  -25.9700  -26.9380   19.5660 C   0  0  0  0  0  3  0  0  0  0  0  0
  -24.8190  -27.7440   19.5730 C   0  0  0  0  0  3  0  0  0  0  0  0
  -23.6040  -29.8750   20.2690 C   0  0  0  0  0  2  0  0  0  0  0  0
  -24.6710  -31.1110   22.1960 N   0  0  0  0  0  0  0  0  0  0  0  0
  -23.5310  -32.1990   23.8340 O   0  0  0  0  0  0  0  0  0  0  0  0
  -22.7300  -29.5160   22.6090 C   0  0  0  0  0  0  0  0  0  0  0  0
  -21.4070  -29.3330   22.4750 N   0  0  0  0  0  0  0  0  0  0  0  0
  -23.4040  -28.8940   23.4360 O   0  0  0  0  0  0  0  0  0  0  0  0
  -20.9210  -29.8830   21.7790 H   0  0  0  0  0  0  0  0  0  0  0  0
  -18.0300  -28.1210   22.9580 C   0  0  0  0  0  0  0  0  0  0  0  0
  -20.5850  -28.3950   23.2430 C   0  0  0  0  0  3  0  0  0  0  0  0
  -20.6990  -26.9620   22.6750 C   0  0  0  0  0  2  0  0  0  0  0  0
  -19.6050  -26.6300   21.6550 C   0  0  0  0  0  2  0  0  0  0  0  0
  -18.2180  -26.7710   22.2880 C   0  0  0  0  0  2  0  0  0  0  0  0
  -19.1420  -28.8900   23.3920 C   0  0  0  0  0  0  0  0  0  0  0  0
  -18.9120  -30.1540   23.9800 C   0  0  0  0  0  3  0  0  0  0  0  0
  -17.6040  -30.6490   24.1350 C   0  0  0  0  0  3  0  0  0  0  0  0
  -16.5060  -29.8770   23.7160 C   0  0  0  0  0  3  0  0  0  0  0  0
  -16.7200  -28.6160   23.1330 C   0  0  0  0  0  3  0  0  0  0  0  0
  -25.8990  -32.5430   23.9170 C   0  0  0  0  0  3  0  0  0  0  0  0
  -26.4030  -31.7770   25.2010 C   0  0  1  0  0  0  0  0  0  0  0  0
  -25.3030  -31.5590   26.2670 C   0  0  0  0  0  1  0  0  0  0  0  0
  -26.9750  -30.3900   24.8270 C   0  0  0  0  0  1  0  0  0  0  0  0
  -27.5570  -32.5670   25.8630 C   0  0  0  0  0  1  0  0  0  0  0  0
  -25.5990  -33.9470   24.2360 N   0  0  0  0  0  0  0  0  0  0  0  0
  -25.9250  -34.9910   23.4620 C   0  0  0  0  0  0  0  0  0  0  0  0
  -26.5800  -34.8750   22.4230 O   0  0  0  0  0  0  0  0  0  0  0  0
  -25.0150  -34.1110   25.0430 H   0  0  0  0  0  0  0  0  0  0  0  0
  -24.1970  -36.7890   23.1220 C   0  0  0  0  0  1  0  0  0  0  0  0
  -25.4510  -36.3870   23.9140 C   0  0  0  0  0  3  0  0  0  0  0  0
  -27.6020  -37.2740   24.7000 C   0  0  0  0  0  1  0  0  0  0  0  0
  -26.4850  -37.4350   23.7730 N   0  0  0  0  0  0  0  0  0  0  0  0
  -26.0840  -38.3580   23.9180 H   0  0  0  0  0  0  0  0  0  0  0  0
  1  2  2  0
  1  5  1  0
  3  5  1  0
  3  6  2  0
  4  7  1  0
  5  4  2  0
  6  7  1  0
  8  9  2  0
  8  6  1  0
 10  9  1  0
 11 16  1  0
 12 13  1  0
 12 11  1  0
 14 13  1  0
 14 21  1  0
 14 15  1  0
 16 10  1  0
 16 15  1  0
 17 10  2  0
 18 19  2  0
 19 38  1  0
 20 19  1  0
 20 23  1  0
 21 18  1  0
 21 22  1  0
 22 20  2  0
 23 24  1  0
 24 25  2  0
 26 29  1  0
 26 25  1  0
 27 26  2  0
 28 27  1  0
 28 23  2  0
 29 30  1  0
 30 31  1  0
 31 32  2  0
 33 32  1  0
 33 37  1  0
 34 33  2  0
 35 30  2  0
 35 34  1  0
 36 35  1  0
 38 39  1  0
 39 42  1  0
 39 41  1  0
 40 38  2  0
 43 44  1  0
 43 18  1  0
 45 43  1  0
 46 47  1  0
 46  2  1  0
 48 59  2  0
 49 47  1  0
 49 54  1  0
 50 58  1  0
 50 60  1  0
 51 57  1  0
 51 53  1  0
 52 58  1  0
 53 52  1  0
 54 53  2  0
 55 56  1  0
 55 49  2  0
 56 51  2  0
 57 50  1  0
 58 48  1  0
 60 62  2  0
 61 60  1  0
 63 61  1  0
 64 73  2  0
 64 69  1  0
 65 61  1  0
 65 69  1  0
 66 65  1  0
 67 68  1  0
 67 66  1  0
 68 64  1  0
 69 70  2  0
 70 71  1  0
 72 71  2  0
 73 72  1  0
 74 48  1  0
 74 79  1  0
 74 75  1  0
 75 78  1  1
 75 76  1  0
 77 75  1  0
 79 82  1  0
 80 84  1  0
 80 79  1  0
 81 80  2  0
 84 83  1  0
 86 84  1  0
 86 87  1  0
 86 85  1  0
M  ISO  4   9 100  10 100  46 101  47 101
M  END
>  <TORSDO>  (47) 
F 19

>  <SCORE>  (47) 
-14.169

>  <name>  (47) 
46

>  <ligand_id>  (47) 
46

>  <original_smiles>  (47) 
[H]C(C(=O)N1C([H])([H])C([H])([H])C([H])([H])C([H])(n2nc(-c3c([H])c([H])c(Oc4c([H])c([H])c(F)c([H])c4F)c([H])c3[H])c(C(=O)N([H])[H])c2N([H])[H])C1([H])[H])=C([H])c1sc([H])c(C([H])=C([H])C([H])([H])Oc2c([H])c([H])c3c(c2[H])C([H])([H])N(C(=O)C([H])(N([H])C(=O)C([H])(N([H])C([H])([H])[H])C([H])([H])[H])C(C([H])([H])[H])(C([H])([H])[H])C([H])([H])[H])C([H])(C(=O)N([H])C2([H])c4c([H])c([H])c([H])c([H])c4C([H])([H])C([H])([H])C2([H])[H])C3([H])[H])c1[H]

>  <smiles>  (47) 
[H]C(C(=O)N1C([H])([H])C([H])([H])C([H])([H])C([H])(n2nc(-c3c([H])c([H])c(Oc4c([H])c([H])c(F)c([H])c4F)c([H])c3[H])c(C(=O)N([H])[H])c2N([H])[H])C1([H])[H])=C([H])c1sc([H])c(C([H])=C([H])C([H])([H])Oc2c([H])c([H])c3c(c2[H])C([H])([H])N(C(=O)C([H])(N([H])C(=O)C([H])(N([H])C([H])([H])[H])C([H])([H])[H])C(C([H])([H])[H])(C([H])([H])[H])C([H])([H])[H])C([H])(C(=O)N([H])C2([H])c4c([H])c([H])c([H])c([H])c4C([H])([H])C([H])([H])C2([H])[H])C3([H])[H])c1[H]

$$$$
47:0:0
     RDKit          3D

 93101  0  0  1  0  0  0  0  0999 V2000
  -29.1320  -16.8210   19.1670 C   0  0  0  0  0  3  0  0  0  0  0  0
  -29.8110  -17.9880   21.1840 C   0  0  0  0  0  3  0  0  0  0  0  0
  -28.6050  -19.2070   19.4320 C   0  0  0  0  0  0  0  0  0  0  0  0
  -28.5400  -18.0030   18.6760 C   0  0  0  0  0  0  0  0  0  0  0  0
  -29.7300  -16.7790   20.4430 C   0  0  0  0  0  0  0  0  0  0  0  0
  -29.2990  -19.2160   20.6760 C   0  0  0  0  0  0  0  0  0  0  0  0
  -27.7710  -17.9150   17.3660 C   0  0  0  0  0  1  0  0  0  0  0  0
  -30.7640  -14.5310   20.3710 C   0  0  0  0  0  0  0  0  0  0  0  0
  -30.4370  -12.4330   19.1210 C   0  0  0  0  0  2  0  0  0  0  0  0
  -29.4690  -12.7190   17.9520 C   0  0  0  0  0  2  0  0  0  0  0  0
  -28.0000  -12.5870   18.3990 C   0  0  0  0  0  2  0  0  0  0  0  0
  -27.7020  -13.3360   19.7270 C   0  0  0  0  0  3  0  0  0  0  0  0
  -28.7790  -13.0290   20.7930 C   0  0  0  0  0  2  0  0  0  0  0  0
  -30.0980  -13.3510   20.2210 N   0  0  0  0  0  0  0  0  0  0  0  0
  -31.8670  -14.7440   19.8590 O   0  0  0  0  0  0  0  0  0  0  0  0
  -30.0940  -15.5120   21.0150 N   0  0  0  0  0  0  0  0  0  0  0  0
  -29.4010  -15.1460   21.6520 H   0  0  0  0  0  0  0  0  0  0  0  0
  -25.3050  -13.9360   20.4460 C   0  0  0  0  0  0  0  0  0  0  0  0
  -24.2410  -13.1610   20.8250 C   0  0  0  0  0  0  0  0  0  0  0  0
  -24.7090  -11.8110   20.7990 C   0  0  0  0  0  0  0  0  0  0  0  0
  -26.3520  -13.0580   20.2140 N   0  0  0  0  0  0  0  0  0  0  0  0
  -25.9980  -11.7760   20.4820 N   0  0  0  0  0  0  0  0  0  0  0  0
  -23.9930  -10.5460   21.0020 C   0  0  0  0  0  0  0  0  0  0  0  0
  -24.4360   -9.5860   21.9390 C   0  0  0  0  0  3  0  0  0  0  0  0
  -23.7180   -8.3860   22.1290 C   0  0  0  0  0  3  0  0  0  0  0  0
  -22.5420   -8.1350   21.3820 C   0  0  0  0  0  0  0  0  0  0  0  0
  -22.1180   -9.0850   20.4360 C   0  0  0  0  0  3  0  0  0  0  0  0
  -22.8360  -10.2760   20.2460 C   0  0  0  0  0  3  0  0  0  0  0  0
  -21.7990   -6.9860   21.4780 O   0  0  0  0  0  0  0  0  0  0  0  0
  -21.7630   -6.2470   22.6360 C   0  0  0  0  0  0  0  0  0  0  0  0
  -21.3440   -6.8040   23.8630 C   0  0  0  0  0  3  0  0  0  0  0  0
  -21.2550   -5.9920   25.0100 C   0  0  0  0  0  3  0  0  0  0  0  0
  -21.5730   -4.6230   24.9310 C   0  0  0  0  0  0  0  0  0  0  0  0
  -21.9900   -4.0670   23.7100 C   0  0  0  0  0  3  0  0  0  0  0  0
  -22.0790   -4.8770   22.5630 C   0  0  0  0  0  0  0  0  0  0  0  0
  -22.4570   -4.3290   21.3840 F   0  0  0  0  0  0  0  0  0  0  0  0
  -21.4820   -3.8420   26.0330 F   0  0  0  0  0  0  0  0  0  0  0  0
  -22.8440  -13.6350   21.1040 C   0  0  0  0  0  0  0  0  0  0  0  0
  -22.1220  -12.9440   21.9790 N   0  0  0  0  0  0  0  0  0  0  0  0
  -22.3990  -14.6570   20.5830 O   0  0  0  0  0  0  0  0  0  0  0  0
  -22.4890  -12.1150   22.4230 H   0  0  0  0  0  0  0  0  0  0  0  0
  -21.1900  -13.2570   22.2120 H   0  0  0  0  0  0  0  0  0  0  0  0
  -25.4630  -15.3070   20.2630 N   0  0  0  0  0  0  0  0  0  0  0  0
  -24.6980  -15.9620   20.3810 H   0  0  0  0  0  0  0  0  0  0  0  0
  -26.3200  -15.7480   19.9550 H   0  0  0  0  0  0  0  0  0  0  0  0
  -28.0500  -21.0470   17.8240 C   0  0  0  0  0  2  0  0  0  0  0  0
  -27.8730  -20.4090   18.9930 C   0  0  0  0  0  3  0  0  0  0  0  0
  -29.3960  -20.3490   21.4780 O   0  0  0  0  0  0  0  0  0  0  0  0
  -29.9380  -21.5770   20.9400 C   0  0  0  0  0  2  0  0  0  0  0  0
  -29.0390  -22.7940   21.3110 C   0  0  0  0  0  2  0  0  0  0  0  0
  -29.4820  -24.1970   20.7870 C   0  0  0  0  0  2  0  0  0  0  0  0
  -28.5030  -25.3310   21.2090 C   0  0  0  0  0  2  0  0  0  0  0  0
  -28.7150  -26.6300   20.5960 O   0  0  0  0  0  0  0  0  0  0  0  0
  -24.7040  -31.8950   23.2860 C   0  0  0  0  0  0  0  0  0  0  0  0
  -27.5690  -27.3990   20.4820 C   0  0  0  0  0  0  0  0  0  0  0  0
  -23.6080  -30.4340   21.6200 C   0  0  0  0  0  3  0  0  0  0  0  0
  -25.1620  -28.8900   20.3070 C   0  0  0  0  0  0  0  0  0  0  0  0
  -26.1370  -30.8270   21.5480 C   0  0  0  0  0  2  0  0  0  0  0  0
  -26.2800  -29.4410   20.9470 C   0  0  0  0  0  0  0  0  0  0  0  0
  -27.4890  -28.7030   21.0300 C   0  0  0  0  0  3  0  0  0  0  0  0
  -26.4390  -26.8810   19.8120 C   0  0  0  0  0  3  0  0  0  0  0  0
  -25.2390  -27.6110   19.7330 C   0  0  0  0  0  3  0  0  0  0  0  0
  -23.9020  -29.7260   20.2700 C   0  0  0  0  0  2  0  0  0  0  0  0
  -24.8320  -31.0690   22.2100 N   0  0  0  0  0  0  0  0  0  0  0  0
  -23.5920  -32.1610   23.7630 O   0  0  0  0  0  0  0  0  0  0  0  0
  -22.9250  -29.4250   22.5710 C   0  0  0  0  0  0  0  0  0  0  0  0
  -21.6050  -29.2350   22.3980 N   0  0  0  0  0  0  0  0  0  0  0  0
  -23.5780  -28.8120   23.4190 O   0  0  0  0  0  0  0  0  0  0  0  0
  -21.1380  -29.7800   21.6880 H   0  0  0  0  0  0  0  0  0  0  0  0
  -18.2090  -28.0760   22.8270 C   0  0  0  0  0  0  0  0  0  0  0  0
  -20.7640  -28.3070   23.1520 C   0  0  0  0  0  3  0  0  0  0  0  0
  -20.8630  -26.8730   22.5800 C   0  0  0  0  0  2  0  0  0  0  0  0
  -19.7800  -26.5610   21.5430 C   0  0  0  0  0  2  0  0  0  0  0  0
  -18.3850  -26.7240   22.1560 C   0  0  0  0  0  2  0  0  0  0  0  0
  -19.3270  -28.8260   23.2800 C   0  0  0  0  0  0  0  0  0  0  0  0
  -19.1120  -30.0930   23.8640 C   0  0  0  0  0  3  0  0  0  0  0  0
  -17.8100  -30.6110   24.0010 C   0  0  0  0  0  3  0  0  0  0  0  0
  -16.7060  -29.8570   23.5670 C   0  0  0  0  0  3  0  0  0  0  0  0
  -16.9050  -28.5910   22.9870 C   0  0  0  0  0  3  0  0  0  0  0  0
  -25.9470  -32.5640   23.9530 C   0  0  0  0  0  3  0  0  0  0  0  0
  -25.5950  -33.9610   24.2410 N   0  0  0  0  0  0  0  0  0  0  0  0
  -25.9310  -35.0050   23.4710 C   0  0  0  0  0  0  0  0  0  0  0  0
  -26.6400  -34.8950   22.4660 O   0  0  0  0  0  0  0  0  0  0  0  0
  -24.9740  -34.1210   25.0200 H   0  0  0  0  0  0  0  0  0  0  0  0
  -24.1700  -36.7410   23.0190 C   0  0  0  0  0  1  0  0  0  0  0  0
  -25.3950  -36.3900   23.8790 C   0  0  0  0  0  3  0  0  0  0  0  0
  -27.4800  -37.3490   24.7530 C   0  0  0  0  0  1  0  0  0  0  0  0
  -26.4030  -37.4670   23.7720 N   0  0  0  0  0  0  0  0  0  0  0  0
  -25.9700  -38.3790   23.8880 H   0  0  0  0  0  0  0  0  0  0  0  0
  -26.4230  -31.8270   25.2640 C   0  0  1  0  0  0  0  0  0  0  0  0
  -25.2880  -31.5830   26.2850 C   0  0  0  0  0  1  0  0  0  0  0  0
  -27.0550  -30.4570   24.9220 C   0  0  0  0  0  1  0  0  0  0  0  0
  -27.5230  -32.6590   25.9660 C   0  0  0  0  0  1  0  0  0  0  0  0
  1  5  1  0
  3  6  2  0
  4  1  2  0
  4  3  1  0
  5 16  1  0
  5  2  2  0
  6  2  1  0
  6 48  1  0
  7  4  1  0
  8 16  1  0
  9 14  1  0
 10 11  1  0
 10  9  1  0
 12 11  1  0
 12 21  1  0
 12 13  1  0
 14  8  1  0
 14 13  1  0
 15  8  2  0
 16 17  1  0
 18 19  2  0
 19 38  1  0
 20 19  1  0
 20 23  1  0
 21 18  1  0
 21 22  1  0
 22 20  2  0
 23 24  1  0
 24 25  2  0
 26 29  1  0
 26 25  1  0
 27 26  2  0
 28 27  1  0
 28 23  2  0
 29 30  1  0
 30 31  1  0
 31 32  2  0
 33 32  1  0
 33 37  1  0
 34 33  2  0
 35 30  2  0
 35 34  1  0
 36 35  1  0
 38 39  1  0
 39 42  1  0
 39 41  1  0
 40 38  2  0
 43 44  1  0
 43 18  1  0
 45 43  1  0
 46 47  2  0
 47  3  1  0
 49 50  1  0
 49 48  1  0
 51 52  1  0
 51 50  1  0
 53 52  1  0
 54 65  2  0
 55 53  1  0
 55 60  1  0
 56 64  1  0
 56 66  1  0
 57 59  1  0
 58 64  1  0
 59 60  2  0
 59 58  1  0
 61 55  2  0
 62 61  1  0
 62 57  2  0
 63 57  1  0
 63 56  1  0
 64 54  1  0
 66 68  2  0
 67 66  1  0
 69 67  1  0
 70 79  2  0
 70 75  1  0
 71 67  1  0
 71 75  1  0
 72 71  1  0
 73 74  1  0
 73 72  1  0
 74 70  1  0
 75 76  2  0
 76 77  1  0
 78 77  2  0
 79 78  1  0
 80 54  1  0
 80 81  1  0
 80 90  1  0
 81 84  1  0
 82 86  1  0
 82 81  1  0
 83 82  2  0
 86 85  1  0
 88 86  1  0
 88 89  1  0
 88 87  1  0
 90 93  1  1
 90 91  1  0
 92 90  1  0
M  ISO  4   8 100  16 100  52 101  53 101
M  END
>  <TORSDO>  (48) 
F 22

>  <SCORE>  (48) 
-12.996

>  <name>  (48) 
47

>  <ligand_id>  (48) 
47

>  <original_smiles>  (48) 
[H]C([H])=C([H])c1c(OC([H])([H])C([H])([H])C([H])([H])C([H])([H])Oc2c([H])c([H])c3c(c2[H])C([H])([H])N(C(=O)C([H])(N([H])C(=O)C([H])(N([H])C([H])([H])[H])C([H])([H])[H])C(C([H])([H])[H])(C([H])([H])[H])C([H])([H])[H])C([H])(C(=O)N([H])C2([H])c4c([H])c([H])c([H])c([H])c4C([H])([H])C([H])([H])C2([H])[H])C3([H])[H])c([H])c(N([H])C(=O)N2C([H])([H])C([H])([H])C([H])([H])C([H])(n3nc(-c4c([H])c([H])c(Oc5c([H])c([H])c(F)c([H])c5F)c([H])c4[H])c(C(=O)N([H])[H])c3N([H])[H])C2([H])[H])c([H])c1C([H])([H])[H]

>  <smiles>  (48) 
[H]C([H])=C([H])c1c(OC([H])([H])C([H])([H])C([H])([H])C([H])([H])Oc2c([H])c([H])c3c(c2[H])C([H])([H])N(C(=O)C([H])(N([H])C(=O)C([H])(N([H])C([H])([H])[H])C([H])([H])[H])C(C([H])([H])[H])(C([H])([H])[H])C([H])([H])[H])C([H])(C(=O)N([H])C2([H])c4c([H])c([H])c([H])c([H])c4C([H])([H])C([H])([H])C2([H])[H])C3([H])[H])c([H])c(N([H])C(=O)N2C([H])([H])C([H])([H])C([H])([H])C([H])(n3nc(-c4c([H])c([H])c(Oc5c([H])c([H])c(F)c([H])c5F)c([H])c4[H])c(C(=O)N([H])[H])c3N([H])[H])C2([H])[H])c([H])c1C([H])([H])[H]

$$$$
48:0:0
     RDKit          3D

 92100  0  0  1  0  0  0  0  0999 V2000
  -29.0580  -19.3400   20.5240 C   0  0  0  0  0  3  0  0  0  0  0  0
  -31.3470  -17.8580   19.9300 C   0  0  0  0  0  3  0  0  0  0  0  0
  -30.2040  -20.0670   20.1140 C   0  0  0  0  0  0  0  0  0  0  0  0
  -29.0490  -17.9160   20.6500 C   0  0  0  0  0  0  0  0  0  0  0  0
  -30.1990  -17.1300   20.3300 C   0  0  0  0  0  0  0  0  0  0  0  0
  -31.3730  -19.2880   19.8520 C   0  0  0  0  0  0  0  0  0  0  0  0
  -27.7660  -17.2680   21.1540 C   0  0  0  0  0  1  0  0  0  0  0  0
  -30.8640  -14.6580   19.8310 C   0  0  0  0  0  0  0  0  0  0  0  0
  -30.5260  -12.4870   18.6610 C   0  0  0  0  0  2  0  0  0  0  0  0
  -29.4730  -12.6970   17.5490 C   0  0  0  0  0  2  0  0  0  0  0  0
  -28.0460  -12.5240   18.1040 C   0  0  0  0  0  2  0  0  0  0  0  0
  -27.8180  -13.3200   19.4150 C   0  0  0  0  0  3  0  0  0  0  0  0
  -28.9720  -13.0850   20.4170 C   0  0  0  0  0  2  0  0  0  0  0  0
  -30.2300  -13.4460   19.7450 N   0  0  0  0  0  0  0  0  0  0  0  0
  -31.9690  -14.8370   19.3120 O   0  0  0  0  0  0  0  0  0  0  0  0
  -30.1360  -15.6670   20.4040 N   0  0  0  0  0  0  0  0  0  0  0  0
  -29.3110  -15.3190   20.8650 H   0  0  0  0  0  0  0  0  0  0  0  0
  -25.5020  -13.8930   20.3700 C   0  0  0  0  0  0  0  0  0  0  0  0
  -24.4680  -13.1080   20.8020 C   0  0  0  0  0  0  0  0  0  0  0  0
  -24.9160  -11.7580   20.6680 C   0  0  0  0  0  0  0  0  0  0  0  0
  -26.5160  -13.0220   20.0070 N   0  0  0  0  0  0  0  0  0  0  0  0
  -26.1730  -11.7310   20.2440 N   0  0  0  0  0  0  0  0  0  0  0  0
  -24.2000  -10.4920   20.8660 C   0  0  0  0  0  0  0  0  0  0  0  0
  -24.6270   -9.5450   21.8240 C   0  0  0  0  0  3  0  0  0  0  0  0
  -23.9120   -8.3420   22.0070 C   0  0  0  0  0  3  0  0  0  0  0  0
  -22.7570   -8.0770   21.2330 C   0  0  0  0  0  0  0  0  0  0  0  0
  -22.3510   -9.0120   20.2640 C   0  0  0  0  0  3  0  0  0  0  0  0
  -23.0670  -10.2070   20.0790 C   0  0  0  0  0  3  0  0  0  0  0  0
  -22.0130   -6.9250   21.3250 O   0  0  0  0  0  0  0  0  0  0  0  0
  -21.8200   -6.2890   22.5250 C   0  0  0  0  0  0  0  0  0  0  0  0
  -21.1710   -6.9220   23.6080 C   0  0  0  0  0  3  0  0  0  0  0  0
  -20.9300   -6.2070   24.7980 C   0  0  0  0  0  3  0  0  0  0  0  0
  -21.3290   -4.8610   24.9050 C   0  0  0  0  0  0  0  0  0  0  0  0
  -21.9710   -4.2280   23.8260 C   0  0  0  0  0  3  0  0  0  0  0  0
  -22.2130   -4.9400   22.6390 C   0  0  0  0  0  0  0  0  0  0  0  0
  -22.8140   -4.3210   21.5940 F   0  0  0  0  0  0  0  0  0  0  0  0
  -21.0920   -4.1710   26.0460 F   0  0  0  0  0  0  0  0  0  0  0  0
  -23.1060  -13.5770   21.2220 C   0  0  0  0  0  0  0  0  0  0  0  0
  -22.4650  -12.8540   22.1320 N   0  0  0  0  0  0  0  0  0  0  0  0
  -22.6240  -14.6190   20.7780 O   0  0  0  0  0  0  0  0  0  0  0  0
  -22.8720  -12.0110   22.5090 H   0  0  0  0  0  0  0  0  0  0  0  0
  -21.5540  -13.1480   22.4580 H   0  0  0  0  0  0  0  0  0  0  0  0
  -25.6520  -15.2700   20.2310 N   0  0  0  0  0  0  0  0  0  0  0  0
  -24.8700  -15.8970   20.3880 H   0  0  0  0  0  0  0  0  0  0  0  0
  -26.4310  -15.7180   19.7690 H   0  0  0  0  0  0  0  0  0  0  0  0
  -30.2500  -21.5900   20.0060 C   0  0  0  0  0  3  0  0  0  0  0  0
  -29.3320  -22.5630   20.3040 C   0  0  0  0  0  3  0  0  0  0  0  0
  -29.5830  -24.1100   20.2410 C   0  0  0  0  0  3  0  0  0  0  0  0
  -28.4250  -25.0660   19.7440 C   0  0  0  0  0  3  0  0  0  0  0  0
  -28.5890  -26.5190   19.9700 O   0  0  0  0  0  0  0  0  0  0  0  0
  -24.6250  -31.6310   23.1450 C   0  0  0  0  0  0  0  0  0  0  0  0
  -27.4420  -27.3250   19.9310 C   0  0  0  0  0  0  0  0  0  0  0  0
  -23.4960  -30.2860   21.4100 C   0  0  0  0  0  3  0  0  0  0  0  0
  -25.0240  -28.8550   19.9400 C   0  0  0  0  0  0  0  0  0  0  0  0
  -26.0280  -30.6880   21.3020 C   0  0  0  0  0  2  0  0  0  0  0  0
  -26.1610  -29.3490   20.5900 C   0  0  0  0  0  0  0  0  0  0  0  0
  -27.3740  -28.5970   20.5780 C   0  0  0  0  0  3  0  0  0  0  0  0
  -26.2800  -26.8830   19.2560 C   0  0  0  0  0  3  0  0  0  0  0  0
  -25.0880  -27.6280   19.2600 C   0  0  0  0  0  3  0  0  0  0  0  0
  -23.7570  -29.6840   20.0040 C   0  0  0  0  0  2  0  0  0  0  0  0
  -24.7330  -30.8850   22.0100 N   0  0  0  0  0  0  0  0  0  0  0  0
  -23.5230  -31.8480   23.6700 O   0  0  0  0  0  0  0  0  0  0  0  0
  -22.8490  -29.2020   22.3010 C   0  0  0  0  0  0  0  0  0  0  0  0
  -21.5270  -29.0110   22.1510 N   0  0  0  0  0  0  0  0  0  0  0  0
  -23.5310  -28.5400   23.0850 O   0  0  0  0  0  0  0  0  0  0  0  0
  -21.0360  -29.6000   21.4930 H   0  0  0  0  0  0  0  0  0  0  0  0
  -18.1490  -27.7910   22.5920 C   0  0  0  0  0  0  0  0  0  0  0  0
  -20.7140  -28.0140   22.8520 C   0  0  0  0  0  3  0  0  0  0  0  0
  -20.8000  -26.6340   22.1580 C   0  0  0  0  0  2  0  0  0  0  0  0
  -19.6830  -26.3960   21.1390 C   0  0  0  0  0  2  0  0  0  0  0  0
  -18.3110  -26.4980   21.8110 C   0  0  0  0  0  2  0  0  0  0  0  0
  -19.2780  -28.5120   23.0700 C   0  0  0  0  0  0  0  0  0  0  0  0
  -19.0730  -29.7250   23.7600 C   0  0  0  0  0  3  0  0  0  0  0  0
  -17.7720  -30.2170   23.9830 C   0  0  0  0  0  3  0  0  0  0  0  0
  -16.6600  -29.4860   23.5300 C   0  0  0  0  0  3  0  0  0  0  0  0
  -16.8490  -28.2790   22.8360 C   0  0  0  0  0  3  0  0  0  0  0  0
  -25.8760  -32.2680   23.8290 C   0  0  0  0  0  3  0  0  0  0  0  0
  -26.3690  -31.4630   25.0950 C   0  0  1  0  0  0  0  0  0  0  0  0
  -25.2420  -31.1420   26.1030 C   0  0  0  0  0  1  0  0  0  0  0  0
  -27.0180  -30.1260   24.6660 C   0  0  0  0  0  1  0  0  0  0  0  0
  -27.4650  -32.2650   25.8360 C   0  0  0  0  0  1  0  0  0  0  0  0
  -25.5270  -33.6460   24.2010 N   0  0  0  0  0  0  0  0  0  0  0  0
  -25.8200  -34.7300   23.4690 C   0  0  0  0  0  0  0  0  0  0  0  0
  -26.4820  -34.6780   22.4290 O   0  0  0  0  0  0  0  0  0  0  0  0
  -24.9490  -33.7620   25.0210 H   0  0  0  0  0  0  0  0  0  0  0  0
  -24.0250  -36.4650   23.2000 C   0  0  0  0  0  1  0  0  0  0  0  0
  -25.2980  -36.0870   23.9710 C   0  0  0  0  0  3  0  0  0  0  0  0
  -27.4080  -37.0400   24.7900 C   0  0  0  0  0  1  0  0  0  0  0  0
  -26.2900  -37.1780   23.8610 N   0  0  0  0  0  0  0  0  0  0  0  0
  -25.8500  -38.0800   24.0270 H   0  0  0  0  0  0  0  0  0  0  0  0
  -33.7660  -19.4450   19.9790 C   0  0  0  0  0  1  0  0  0  0  0  0
  -32.5240  -19.9630   19.5000 O   0  0  0  0  0  0  0  0  0  0  0  0
  1  4  1  0
  2  5  1  0
  3  1  2  0
  4  7  1  0
  5 16  1  0
  5  4  2  0
  6  2  2  0
  6  3  1  0
  8 16  1  0
  9 14  1  0
 10 11  1  0
 10  9  1  0
 12 11  1  0
 12 21  1  0
 12 13  1  0
 14  8  1  0
 14 13  1  0
 15  8  2  0
 16 17  1  0
 18 19  2  0
 19 38  1  0
 20 19  1  0
 20 23  1  0
 21 22  1  0
 21 18  1  0
 22 20  2  0
 23 24  1  0
 24 25  2  0
 26 29  1  0
 26 25  1  0
 27 26  2  0
 28 27  1  0
 28 23  2  0
 29 30  1  0
 30 35  2  0
 30 31  1  0
 31 32  2  0
 32 33  1  0
 33 37  1  0
 34 33  2  0
 35 34  1  0
 36 35  1  0
 38 39  1  0
 39 42  1  0
 39 41  1  0
 40 38  2  0
 43 18  1  0
 43 44  1  0
 45 43  1  0
 46  3  1  0
 46 47  2  0
 48 47  1  0
 49 50  1  0
 49 48  2  0
 51 62  2  0
 52 50  1  0
 52 57  1  0
 53 61  1  0
 53 63  1  0
 54 60  1  0
 54 56  1  0
 55 61  1  0
 56 55  1  0
 57 56  2  0
 58 59  1  0
 58 52  2  0
 59 54  2  0
 60 53  1  0
 61 51  1  0
 63 65  2  0
 64 63  1  0
 66 64  1  0
 67 76  2  0
 67 72  1  0
 68 64  1  0
 68 72  1  0
 69 68  1  0
 70 71  1  0
 70 69  1  0
 71 67  1  0
 72 73  2  0
 73 74  1  0
 75 74  2  0
 76 75  1  0
 77 51  1  0
 77 82  1  0
 77 78  1  0
 78 81  1  1
 78 79  1  0
 80 78  1  0
 82 85  1  0
 83 87  1  0
 83 82  1  0
 84 83  2  0
 87 86  1  0
 89 87  1  0
 89 90  1  0
 89 88  1  0
 92  6  1  0
 92 91  1  0
M  ISO  4   8 100  16 100  49 101  50 101
M  END
>  <TORSDO>  (49) 
F 20

>  <SCORE>  (49) 
-11.991

>  <name>  (49) 
48

>  <ligand_id>  (49) 
48

>  <original_smiles>  (49) 
[H]C(=C([H])C([H])([H])C([H])([H])Oc1c([H])c([H])c2c(c1[H])C([H])([H])N(C(=O)C([H])(N([H])C(=O)C([H])(N([H])C([H])([H])[H])C([H])([H])[H])C(C([H])([H])[H])(C([H])([H])[H])C([H])([H])[H])C([H])(C(=O)N([H])C1([H])c3c([H])c([H])c([H])c([H])c3C([H])([H])C([H])([H])C1([H])[H])C2([H])[H])c1c([H])c(C([H])([H])[H])c(N([H])C(=O)N2C([H])([H])C([H])([H])C([H])([H])C([H])(n3nc(-c4c([H])c([H])c(Oc5c([H])c([H])c(F)c([H])c5F)c([H])c4[H])c(C(=O)N([H])[H])c3N([H])[H])C2([H])[H])c([H])c1OC([H])([H])[H]

>  <smiles>  (49) 
[H]C(=C([H])C([H])([H])C([H])([H])Oc1c([H])c([H])c2c(c1[H])C([H])([H])N(C(=O)C([H])(N([H])C(=O)C([H])(N([H])C([H])([H])[H])C([H])([H])[H])C(C([H])([H])[H])(C([H])([H])[H])C([H])([H])[H])C([H])(C(=O)N([H])C1([H])c3c([H])c([H])c([H])c([H])c3C([H])([H])C([H])([H])C1([H])[H])C2([H])[H])c1c([H])c(C([H])([H])[H])c(N([H])C(=O)N2C([H])([H])C([H])([H])C([H])([H])C([H])(n3nc(-c4c([H])c([H])c(Oc5c([H])c([H])c(F)c([H])c5F)c([H])c4[H])c(C(=O)N([H])[H])c3N([H])[H])C2([H])[H])c([H])c1OC([H])([H])[H]

$$$$
49:0:0
     RDKit          3D

 89 97  0  0  1  0  0  0  0  0999 V2000
  -29.5610  -21.9010   19.8690 C   0  0  0  0  0  3  0  0  0  0  0  0
  -28.8720  -22.9180   20.4320 C   0  0  0  0  0  3  0  0  0  0  0  0
  -30.2810  -19.4560   19.6430 C   0  0  0  0  0  3  0  0  0  0  0  0
  -28.7580  -18.6310   21.0610 C   0  0  0  0  0  3  0  0  0  0  0  0
  -29.7960  -18.2640   20.2490 C   0  0  0  0  0  0  0  0  0  0  0  0
  -29.5170  -20.4860   20.1250 C   0  0  0  0  0  0  0  0  0  0  0  0
  -28.5870  -19.9920   21.0050 O   0  0  0  0  0  0  0  0  0  0  0  0
  -30.3540  -16.9250   19.9770 C   0  0  0  0  0  3  0  0  0  0  0  0
  -29.9850  -15.7150   20.4670 C   0  0  0  0  0  3  0  0  0  0  0  0
  -30.7250  -14.5270   20.0170 C   0  0  0  0  0  0  0  0  0  0  0  0
  -30.3650  -12.3500   18.9360 C   0  0  0  0  0  2  0  0  0  0  0  0
  -29.3630  -12.5620   17.7810 C   0  0  0  0  0  2  0  0  0  0  0  0
  -27.9160  -12.4150   18.2880 C   0  0  0  0  0  2  0  0  0  0  0  0
  -27.6440  -13.2430   19.5740 C   0  0  0  0  0  3  0  0  0  0  0  0
  -28.7630  -13.0330   20.6180 C   0  0  0  0  0  2  0  0  0  0  0  0
  -30.0490  -13.3440   19.9780 N   0  0  0  0  0  0  0  0  0  0  0  0
  -31.8550  -14.6300   19.5320 O   0  0  0  0  0  0  0  0  0  0  0  0
  -25.3000  -13.8200   20.4590 C   0  0  0  0  0  0  0  0  0  0  0  0
  -24.2570  -13.0340   20.8710 C   0  0  0  0  0  0  0  0  0  0  0  0
  -24.7140  -11.6840   20.7660 C   0  0  0  0  0  0  0  0  0  0  0  0
  -26.3250  -12.9480   20.1300 N   0  0  0  0  0  0  0  0  0  0  0  0
  -25.9810  -11.6570   20.3720 N   0  0  0  0  0  0  0  0  0  0  0  0
  -24.0000  -10.4160   20.9620 C   0  0  0  0  0  0  0  0  0  0  0  0
  -24.4550   -9.4460   21.8830 C   0  0  0  0  0  3  0  0  0  0  0  0
  -23.7410   -8.2430   22.0670 C   0  0  0  0  0  3  0  0  0  0  0  0
  -22.5590   -7.9990   21.3280 C   0  0  0  0  0  0  0  0  0  0  0  0
  -22.1230   -8.9560   20.3950 C   0  0  0  0  0  3  0  0  0  0  0  0
  -22.8380  -10.1520   20.2100 C   0  0  0  0  0  3  0  0  0  0  0  0
  -21.8150   -6.8470   21.4220 O   0  0  0  0  0  0  0  0  0  0  0  0
  -21.7460   -6.1280   22.5880 C   0  0  0  0  0  0  0  0  0  0  0  0
  -21.2590   -6.6950   23.7860 C   0  0  0  0  0  3  0  0  0  0  0  0
  -21.1390   -5.9000   24.9440 C   0  0  0  0  0  3  0  0  0  0  0  0
  -21.4960   -4.5390   24.9040 C   0  0  0  0  0  0  0  0  0  0  0  0
  -21.9770   -3.9720   23.7110 C   0  0  0  0  0  3  0  0  0  0  0  0
  -22.0990   -4.7630   22.5550 C   0  0  0  0  0  0  0  0  0  0  0  0
  -22.5420   -4.2060   21.4030 F   0  0  0  0  0  0  0  0  0  0  0  0
  -21.3750   -3.7730   26.0130 F   0  0  0  0  0  0  0  0  0  0  0  0
  -22.8800  -13.5000   21.2500 C   0  0  0  0  0  0  0  0  0  0  0  0
  -22.2100  -12.7730   22.1360 N   0  0  0  0  0  0  0  0  0  0  0  0
  -22.4110  -14.5420   20.7970 O   0  0  0  0  0  0  0  0  0  0  0  0
  -22.6040  -11.9270   22.5230 H   0  0  0  0  0  0  0  0  0  0  0  0
  -21.2890  -13.0650   22.4330 H   0  0  0  0  0  0  0  0  0  0  0  0
  -25.4560  -15.1950   20.3160 N   0  0  0  0  0  0  0  0  0  0  0  0
  -24.7030  -15.8500   20.4960 H   0  0  0  0  0  0  0  0  0  0  0  0
  -26.2890  -15.6400   19.9530 H   0  0  0  0  0  0  0  0  0  0  0  0
  -29.0630  -24.3300   20.0080 C   0  0  0  0  0  0  0  0  0  0  0  0
  -29.7840  -24.6500   19.0550 O   0  0  0  0  0  0  0  0  0  0  0  0
  -28.3260  -25.4270   20.8020 C   0  0  0  0  0  2  0  0  0  0  0  0
  -28.4890  -26.7360   20.2160 O   0  0  0  0  0  0  0  0  0  0  0  0
  -24.5790  -31.8800   23.2080 C   0  0  0  0  0  0  0  0  0  0  0  0
  -27.3320  -27.4810   20.1750 C   0  0  0  0  0  0  0  0  0  0  0  0
  -23.4260  -30.4810   21.5240 C   0  0  0  0  0  3  0  0  0  0  0  0
  -24.9300  -28.9670   20.1260 C   0  0  0  0  0  0  0  0  0  0  0  0
  -25.9530  -30.8640   21.3930 C   0  0  0  0  0  2  0  0  0  0  0  0
  -26.0690  -29.4990   20.7440 C   0  0  0  0  0  0  0  0  0  0  0  0
  -27.2770  -28.7660   20.7620 C   0  0  0  0  0  3  0  0  0  0  0  0
  -26.1820  -26.9650   19.5430 C   0  0  0  0  0  3  0  0  0  0  0  0
  -24.9810  -27.7000   19.5190 C   0  0  0  0  0  3  0  0  0  0  0  0
  -23.6770  -29.8130   20.1460 C   0  0  0  0  0  2  0  0  0  0  0  0
  -24.6700  -31.0890   22.1010 N   0  0  0  0  0  0  0  0  0  0  0  0
  -23.4820  -32.1390   23.7220 O   0  0  0  0  0  0  0  0  0  0  0  0
  -22.7600  -29.4470   22.4610 C   0  0  0  0  0  0  0  0  0  0  0  0
  -21.4340  -29.2810   22.3210 N   0  0  0  0  0  0  0  0  0  0  0  0
  -23.4310  -28.7980   23.2670 O   0  0  0  0  0  0  0  0  0  0  0  0
  -20.9550  -29.8570   21.6430 H   0  0  0  0  0  0  0  0  0  0  0  0
  -18.0360  -28.1540   22.8110 C   0  0  0  0  0  0  0  0  0  0  0  0
  -20.6020  -28.3370   23.0660 C   0  0  0  0  0  3  0  0  0  0  0  0
  -20.6630  -26.9260   22.4390 C   0  0  0  0  0  2  0  0  0  0  0  0
  -19.5440  -26.6680   21.4250 C   0  0  0  0  0  2  0  0  0  0  0  0
  -18.1730  -26.8240   22.0880 C   0  0  0  0  0  2  0  0  0  0  0  0
  -19.1780  -28.8720   23.2560 C   0  0  0  0  0  0  0  0  0  0  0  0
  -18.9970  -30.1190   23.8920 C   0  0  0  0  0  3  0  0  0  0  0  0
  -17.7070  -30.6480   24.0880 C   0  0  0  0  0  3  0  0  0  0  0  0
  -16.5800  -29.9260   23.6590 C   0  0  0  0  0  3  0  0  0  0  0  0
  -16.7460  -28.6800   23.0270 C   0  0  0  0  0  3  0  0  0  0  0  0
  -25.8440  -32.5150   23.8660 C   0  0  0  0  0  3  0  0  0  0  0  0
  -26.3330  -31.7410   25.1510 C   0  0  1  0  0  0  0  0  0  0  0  0
  -25.2140  -31.4850   26.1860 C   0  0  0  0  0  1  0  0  0  0  0  0
  -26.9400  -30.3720   24.7640 C   0  0  0  0  0  1  0  0  0  0  0  0
  -27.4570  -32.5420   25.8490 C   0  0  0  0  0  1  0  0  0  0  0  0
  -25.5190  -33.9100   24.1920 N   0  0  0  0  0  0  0  0  0  0  0  0
  -25.8680  -34.9670   23.4440 C   0  0  0  0  0  0  0  0  0  0  0  0
  -26.5670  -34.8690   22.4320 O   0  0  0  0  0  0  0  0  0  0  0  0
  -24.9020  -34.0590   24.9760 H   0  0  0  0  0  0  0  0  0  0  0  0
  -24.1450  -36.7520   23.0370 C   0  0  0  0  0  1  0  0  0  0  0  0
  -25.3580  -36.3500   23.8910 C   0  0  0  0  0  3  0  0  0  0  0  0
  -27.4590  -37.2390   24.8000 C   0  0  0  0  0  1  0  0  0  0  0  0
  -26.3890  -37.4080   23.8200 N   0  0  0  0  0  0  0  0  0  0  0  0
  -25.9740  -38.3250   23.9600 H   0  0  0  0  0  0  0  0  0  0  0  0
  1  6  1  0
  1  2  2  0
  3  6  2  0
  3  5  1  0
  5  4  2  0
  6  7  1  0
  7  4  1  0
  8  5  1  0
  8  9  2  0
 10  9  1  0
 11 16  1  0
 12 13  1  0
 12 11  1  0
 14 13  1  0
 14 21  1  0
 14 15  1  0
 16 10  1  0
 16 15  1  0
 17 10  2  0
 18 19  2  0
 19 38  1  0
 20 19  1  0
 20 23  1  0
 21 22  1  0
 21 18  1  0
 22 20  2  0
 23 24  1  0
 24 25  2  0
 26 29  1  0
 26 25  1  0
 27 26  2  0
 28 27  1  0
 28 23  2  0
 29 30  1  0
 30 31  1  0
 31 32  2  0
 33 32  1  0
 33 37  1  0
 34 33  2  0
 35 30  2  0
 35 34  1  0
 36 35  1  0
 38 39  1  0
 39 42  1  0
 39 41  1  0
 40 38  2  0
 43 18  1  0
 43 44  1  0
 45 43  1  0
 46  2  1  0
 46 48  1  0
 47 46  2  0
 49 48  1  0
 50 61  2  0
 51 49  1  0
 51 56  1  0
 52 60  1  0
 52 62  1  0
 53 59  1  0
 53 55  1  0
 54 60  1  0
 55 56  2  0
 55 54  1  0
 57 51  2  0
 58 57  1  0
 58 53  2  0
 59 52  1  0
 60 50  1  0
 62 64  2  0
 63 62  1  0
 65 63  1  0
 66 75  2  0
 66 71  1  0
 67 63  1  0
 67 71  1  0
 68 67  1  0
 69 70  1  0
 69 68  1  0
 70 66  1  0
 71 72  2  0
 72 73  1  0
 74 73  2  0
 75 74  1  0
 76 50  1  0
 76 81  1  0
 76 77  1  0
 77 80  1  1
 77 78  1  0
 79 77  1  0
 81 84  1  0
 82 86  1  0
 82 81  1  0
 83 82  2  0
 86 85  1  0
 88 86  1  0
 88 89  1  0
 88 87  1  0
M  ISO  4   9 100  10 100  48 101  49 101
M  END
>  <TORSDO>  (50) 
F 20

>  <SCORE>  (50) 
-13.269

>  <name>  (50) 
49

>  <ligand_id>  (50) 
49

>  <original_smiles>  (50) 
[H]C(C(=O)C([H])([H])Oc1c([H])c([H])c2c(c1[H])C([H])([H])N(C(=O)C([H])(N([H])C(=O)C([H])(N([H])C([H])([H])[H])C([H])([H])[H])C(C([H])([H])[H])(C([H])([H])[H])C([H])([H])[H])C([H])(C(=O)N([H])C1([H])c3c([H])c([H])c([H])c([H])c3C([H])([H])C([H])([H])C1([H])[H])C2([H])[H])=C([H])c1oc([H])c(C([H])=C([H])C(=O)N2C([H])([H])C([H])([H])C([H])([H])C([H])(n3nc(-c4c([H])c([H])c(Oc5c([H])c([H])c(F)c([H])c5F)c([H])c4[H])c(C(=O)N([H])[H])c3N([H])[H])C2([H])[H])c1[H]

>  <smiles>  (50) 
[H]C(C(=O)C([H])([H])Oc1c([H])c([H])c2c(c1[H])C([H])([H])N(C(=O)C([H])(N([H])C(=O)C([H])(N([H])C([H])([H])[H])C([H])([H])[H])C(C([H])([H])[H])(C([H])([H])[H])C([H])([H])[H])C([H])(C(=O)N([H])C1([H])c3c([H])c([H])c([H])c([H])c3C([H])([H])C([H])([H])C1([H])[H])C2([H])[H])=C([H])c1oc([H])c(C([H])=C([H])C(=O)N2C([H])([H])C([H])([H])C([H])([H])C([H])(n3nc(-c4c([H])c([H])c(Oc5c([H])c([H])c(F)c([H])c5F)c([H])c4[H])c(C(=O)N([H])[H])c3N([H])[H])C2([H])[H])c1[H]

$$$$
50:0:0
     RDKit          3D

 93101  0  0  1  0  0  0  0  0999 V2000
  -29.1200  -21.0490   20.0770 C   0  0  0  0  0  3  0  0  0  0  0  0
  -29.3370  -22.3090   20.5730 C   0  0  0  0  0  3  0  0  0  0  0  0
  -31.4400  -20.1250   20.3680 C   0  0  0  0  0  3  0  0  0  0  0  0
  -31.9840  -17.7560   20.4930 C   0  0  0  0  0  3  0  0  0  0  0  0
  -29.6640  -18.4820   20.2180 C   0  0  0  0  0  3  0  0  0  0  0  0
  -32.3960  -19.1030   20.5190 C   0  0  0  0  0  0  0  0  0  0  0  0
  -30.0610  -19.8660   20.2140 C   0  0  0  0  0  0  0  0  0  0  0  0
  -30.6200  -17.4120   20.3270 C   0  0  0  0  0  0  0  0  0  0  0  0
  -31.0380  -14.9170   20.1380 C   0  0  0  0  0  0  0  0  0  0  0  0
  -30.8690  -12.5600   19.3890 C   0  0  0  0  0  2  0  0  0  0  0  0
  -29.9370  -12.4830   18.1600 C   0  0  0  0  0  2  0  0  0  0  0  0
  -28.4670  -12.3480   18.5980 C   0  0  0  0  0  2  0  0  0  0  0  0
  -28.0670  -13.3880   19.6780 C   0  0  0  0  0  3  0  0  0  0  0  0
  -29.1110  -13.4280   20.8180 C   0  0  0  0  0  2  0  0  0  0  0  0
  -30.4230  -13.7000   20.2090 N   0  0  0  0  0  0  0  0  0  0  0  0
  -32.1980  -15.0330   19.7280 O   0  0  0  0  0  0  0  0  0  0  0  0
  -30.2440  -16.0090   20.3340 N   0  0  0  0  0  0  0  0  0  0  0  0
  -29.2710  -15.8060   20.5140 H   0  0  0  0  0  0  0  0  0  0  0  0
  -25.7180  -14.0580   20.4750 C   0  0  0  0  0  0  0  0  0  0  0  0
  -24.6300  -13.3170   20.8440 C   0  0  0  0  0  0  0  0  0  0  0  0
  -25.0340  -11.9490   20.7490 C   0  0  0  0  0  0  0  0  0  0  0  0
  -26.7190  -13.1470   20.1840 N   0  0  0  0  0  0  0  0  0  0  0  0
  -26.3130  -11.8710   20.4080 N   0  0  0  0  0  0  0  0  0  0  0  0
  -24.2600  -10.7110   20.9060 C   0  0  0  0  0  0  0  0  0  0  0  0
  -24.6420   -9.7150   21.8330 C   0  0  0  0  0  3  0  0  0  0  0  0
  -23.8700   -8.5420   21.9810 C   0  0  0  0  0  3  0  0  0  0  0  0
  -22.7030   -8.3580   21.2000 C   0  0  0  0  0  0  0  0  0  0  0  0
  -22.3410   -9.3410   20.2640 C   0  0  0  0  0  3  0  0  0  0  0  0
  -23.1130  -10.5060   20.1150 C   0  0  0  0  0  3  0  0  0  0  0  0
  -21.9070   -7.2380   21.2580 O   0  0  0  0  0  0  0  0  0  0  0  0
  -21.7420   -6.5310   22.4210 C   0  0  0  0  0  0  0  0  0  0  0  0
  -21.2300   -7.1320   23.5910 C   0  0  0  0  0  3  0  0  0  0  0  0
  -21.0120   -6.3530   24.7450 C   0  0  0  0  0  3  0  0  0  0  0  0
  -21.2960   -4.9730   24.7280 C   0  0  0  0  0  0  0  0  0  0  0  0
  -21.8030   -4.3730   23.5610 C   0  0  0  0  0  3  0  0  0  0  0  0
  -22.0210   -5.1500   22.4110 C   0  0  0  0  0  0  0  0  0  0  0  0
  -22.4890   -4.5630   21.2820 F   0  0  0  0  0  0  0  0  0  0  0  0
  -21.0790   -4.2220   25.8330 F   0  0  0  0  0  0  0  0  0  0  0  0
  -23.2590  -13.8400   21.1700 C   0  0  0  0  0  0  0  0  0  0  0  0
  -22.5330  -13.1520   22.0440 N   0  0  0  0  0  0  0  0  0  0  0  0
  -22.8420  -14.8900   20.6830 O   0  0  0  0  0  0  0  0  0  0  0  0
  -22.8810  -12.2990   22.4570 H   0  0  0  0  0  0  0  0  0  0  0  0
  -21.6180  -13.4840   22.3080 H   0  0  0  0  0  0  0  0  0  0  0  0
  -25.9380  -15.4280   20.3430 N   0  0  0  0  0  0  0  0  0  0  0  0
  -25.2040  -16.1140   20.4790 H   0  0  0  0  0  0  0  0  0  0  0  0
  -26.7930  -15.8320   19.9810 H   0  0  0  0  0  0  0  0  0  0  0  0
  -34.8760  -18.7000   20.7590 C   0  0  0  0  0  2  0  0  0  0  0  0
  -33.8020  -19.5070   20.7030 C   0  0  0  0  0  3  0  0  0  0  0  0
  -28.4780  -23.5420   20.3990 C   0  0  0  0  0  0  0  0  0  0  0  0
  -27.5380  -23.5740   19.5990 O   0  0  0  0  0  0  0  0  0  0  0  0
  -28.8170  -24.7150   21.2800 C   0  0  0  0  0  3  0  0  0  0  0  0
  -28.6750  -26.0670   21.1080 C   0  0  0  0  0  3  0  0  0  0  0  0
  -28.2500  -26.7870   20.0060 O   0  0  0  0  0  0  0  0  0  0  0  0
  -24.5960  -32.0170   23.4080 C   0  0  0  0  0  0  0  0  0  0  0  0
  -27.1450  -27.6210   20.1310 C   0  0  0  0  0  0  0  0  0  0  0  0
  -23.3490  -30.6710   21.7530 C   0  0  0  0  0  3  0  0  0  0  0  0
  -24.7670  -29.1730   20.2440 C   0  0  0  0  0  0  0  0  0  0  0  0
  -25.8780  -31.0160   21.5120 C   0  0  0  0  0  2  0  0  0  0  0  0
  -25.9460  -29.6600   20.8290 C   0  0  0  0  0  0  0  0  0  0  0  0
  -27.1410  -28.8890   20.7770 C   0  0  0  0  0  3  0  0  0  0  0  0
  -25.9530  -27.1710   19.5350 C   0  0  0  0  0  3  0  0  0  0  0  0
  -24.7670  -27.9270   19.5970 C   0  0  0  0  0  3  0  0  0  0  0  0
  -23.5280  -30.0350   20.3490 C   0  0  0  0  0  2  0  0  0  0  0  0
  -24.6270  -31.2500   22.2800 N   0  0  0  0  0  0  0  0  0  0  0  0
  -23.5300  -32.2700   23.9850 O   0  0  0  0  0  0  0  0  0  0  0  0
  -22.7180  -29.6200   22.6980 C   0  0  0  0  0  0  0  0  0  0  0  0
  -21.4070  -29.3770   22.5410 N   0  0  0  0  0  0  0  0  0  0  0  0
  -23.4100  -29.0260   23.5300 O   0  0  0  0  0  0  0  0  0  0  0  0
  -20.9050  -29.9100   21.8440 H   0  0  0  0  0  0  0  0  0  0  0  0
  -18.1060  -27.9400   22.8950 C   0  0  0  0  0  0  0  0  0  0  0  0
  -20.6200  -28.3970   23.2940 C   0  0  0  0  0  3  0  0  0  0  0  0
  -20.8600  -26.9650   22.7610 C   0  0  0  0  0  2  0  0  0  0  0  0
  -19.8420  -26.5370   21.7010 C   0  0  0  0  0  2  0  0  0  0  0  0
  -18.4190  -26.5930   22.2650 C   0  0  0  0  0  2  0  0  0  0  0  0
  -19.1420  -28.7940   23.3630 C   0  0  0  0  0  0  0  0  0  0  0  0
  -18.7980  -30.0480   23.9090 C   0  0  0  0  0  3  0  0  0  0  0  0
  -17.4540  -30.4560   23.9920 C   0  0  0  0  0  3  0  0  0  0  0  0
  -16.4340  -29.6020   23.5390 C   0  0  0  0  0  3  0  0  0  0  0  0
  -16.7590  -28.3460   22.9980 C   0  0  0  0  0  3  0  0  0  0  0  0
  -25.8960  -32.6310   24.0150 C   0  0  0  0  0  3  0  0  0  0  0  0
  -26.4190  -31.8510   25.2840 C   0  0  1  0  0  0  0  0  0  0  0  0
  -25.3300  -31.6060   26.3550 C   0  0  0  0  0  1  0  0  0  0  0  0
  -27.0020  -30.4770   24.8800 C   0  0  0  0  0  1  0  0  0  0  0  0
  -27.5730  -32.6390   25.9430 C   0  0  0  0  0  1  0  0  0  0  0  0
  -25.6080  -34.0330   24.3510 N   0  0  0  0  0  0  0  0  0  0  0  0
  -25.9310  -35.0830   23.5820 C   0  0  0  0  0  0  0  0  0  0  0  0
  -26.5740  -34.9740   22.5330 O   0  0  0  0  0  0  0  0  0  0  0  0
  -25.0380  -34.1940   25.1690 H   0  0  0  0  0  0  0  0  0  0  0  0
  -24.2000  -36.8820   23.2830 C   0  0  0  0  0  1  0  0  0  0  0  0
  -25.4680  -36.4750   24.0500 C   0  0  0  0  0  3  0  0  0  0  0  0
  -27.6370  -37.3490   24.7980 C   0  0  0  0  0  1  0  0  0  0  0  0
  -26.5020  -37.5220   23.8950 N   0  0  0  0  0  0  0  0  0  0  0  0
  -26.1060  -38.4440   24.0570 H   0  0  0  0  0  0  0  0  0  0  0  0
  1  7  1  0
  1  2  2  0
  3  6  1  0
  4  6  2  0
  5  8  2  0
  6 48  1  0
  7  5  1  0
  7  3  2  0
  8 17  1  0
  8  4  1  0
  9 15  1  0
  9 17  1  0
 10 15  1  0
 11 12  1  0
 11 10  1  0
 13 12  1  0
 13 22  1  0
 13 14  1  0
 15 14  1  0
 16  9  2  0
 17 18  1  0
 19 20  2  0
 20 39  1  0
 21 20  1  0
 21 24  1  0
 22 23  1  0
 22 19  1  0
 23 21  2  0
 24 25  1  0
 25 26  2  0
 27 30  1  0
 27 26  1  0
 28 27  2  0
 29 28  1  0
 29 24  2  0
 30 31  1  0
 31 32  1  0
 32 33  2  0
 34 33  1  0
 34 38  1  0
 35 34  2  0
 36 31  2  0
 36 35  1  0
 37 36  1  0
 39 40  1  0
 40 43  1  0
 40 42  1  0
 41 39  2  0
 44 19  1  0
 44 45  1  0
 46 44  1  0
 48 47  2  0
 49  2  1  0
 49 51  1  0
 50 49  2  0
 52 51  2  0
 53 55  1  0
 53 52  1  0
 54 65  2  0
 55 60  1  0
 56 64  1  0
 56 66  1  0
 57 63  1  0
 57 59  1  0
 58 64  1  0
 59 58  1  0
 60 59  2  0
 61 62  1  0
 61 55  2  0
 62 57  2  0
 63 56  1  0
 64 54  1  0
 66 68  2  0
 67 66  1  0
 69 67  1  0
 70 79  2  0
 70 75  1  0
 71 67  1  0
 71 75  1  0
 72 71  1  0
 73 74  1  0
 73 72  1  0
 74 70  1  0
 75 76  2  0
 76 77  1  0
 78 77  2  0
 79 78  1  0
 80 54  1  0
 80 85  1  0
 80 81  1  0
 81 84  1  1
 81 82  1  0
 83 81  1  0
 85 88  1  0
 86 90  1  0
 86 85  1  0
 87 86  2  0
 90 89  1  0
 92 90  1  0
 92 93  1  0
 92 91  1  0
M  ISO  4   9 100  17 100  52 101  53 101
M  END
>  <TORSDO>  (51) 
F 20

>  <SCORE>  (51) 
-13.410

>  <name>  (51) 
50

>  <ligand_id>  (51) 
50

>  <original_smiles>  (51) 
[H]C([H])=C([H])c1c([H])c(C([H])=C([H])C(=O)C([H])=C([H])Oc2c([H])c([H])c3c(c2[H])C([H])([H])N(C(=O)C([H])(N([H])C(=O)C([H])(N([H])C([H])([H])[H])C([H])([H])[H])C(C([H])([H])[H])(C([H])([H])[H])C([H])([H])[H])C([H])(C(=O)N([H])C2([H])c4c([H])c([H])c([H])c([H])c4C([H])([H])C([H])([H])C2([H])[H])C3([H])[H])c([H])c(N([H])C(=O)N2C([H])([H])C([H])([H])C([H])([H])C([H])(n3nc(-c4c([H])c([H])c(Oc5c([H])c([H])c(F)c([H])c5F)c([H])c4[H])c(C(=O)N([H])[H])c3N([H])[H])C2([H])[H])c1[H]

>  <smiles>  (51) 
[H]C([H])=C([H])c1c([H])c(C([H])=C([H])C(=O)C([H])=C([H])Oc2c([H])c([H])c3c(c2[H])C([H])([H])N(C(=O)C([H])(N([H])C(=O)C([H])(N([H])C([H])([H])[H])C([H])([H])[H])C(C([H])([H])[H])(C([H])([H])[H])C([H])([H])[H])C([H])(C(=O)N([H])C2([H])c4c([H])c([H])c([H])c([H])c4C([H])([H])C([H])([H])C2([H])[H])C3([H])[H])c([H])c(N([H])C(=O)N2C([H])([H])C([H])([H])C([H])([H])C([H])(n3nc(-c4c([H])c([H])c(Oc5c([H])c([H])c(F)c([H])c5F)c([H])c4[H])c(C(=O)N([H])[H])c3N([H])[H])C2([H])[H])c1[H]

$$$$
51:0:0
     RDKit          3D

 92100  0  0  1  0  0  0  0  0999 V2000
  -29.5620  -19.7070   19.8840 C   0  0  0  0  0  3  0  0  0  0  0  0
  -30.8450  -21.0260   21.4410 C   0  0  0  0  0  3  0  0  0  0  0  0
  -30.1830  -18.4940   20.2910 C   0  0  0  0  0  0  0  0  0  0  0  0
  -31.4920  -19.8480   21.8830 C   0  0  0  0  0  0  0  0  0  0  0  0
  -31.1840  -18.5770   21.3050 C   0  0  0  0  0  0  0  0  0  0  0  0
  -29.8690  -20.9670   20.4310 C   0  0  0  0  0  0  0  0  0  0  0  0
  -32.4920  -19.9870   23.0210 C   0  0  0  0  0  1  0  0  0  0  0  0
  -29.6140  -17.2970   19.5820 C   0  0  0  0  0  3  0  0  0  0  0  0
  -29.7530  -15.9550   19.3980 C   0  0  0  0  0  3  0  0  0  0  0  0
  -30.6950  -14.9100   19.8050 C   0  0  0  0  0  0  0  0  0  0  0  0
  -30.4260  -12.6570   18.8770 C   0  0  0  0  0  2  0  0  0  0  0  0
  -29.3910  -12.7660   17.7350 C   0  0  0  0  0  2  0  0  0  0  0  0
  -27.9580  -12.5720   18.2760 C   0  0  0  0  0  2  0  0  0  0  0  0
  -27.6530  -13.4610   19.5090 C   0  0  0  0  0  3  0  0  0  0  0  0
  -28.8080  -13.4060   20.5410 C   0  0  0  0  0  2  0  0  0  0  0  0
  -30.0910  -13.6870   19.8730 N   0  0  0  0  0  0  0  0  0  0  0  0
  -31.8940  -15.0360   19.5570 O   0  0  0  0  0  0  0  0  0  0  0  0
  -25.3320  -14.0320   20.4510 C   0  0  0  0  0  0  0  0  0  0  0  0
  -24.2980  -13.2410   20.8690 C   0  0  0  0  0  0  0  0  0  0  0  0
  -24.7610  -11.8940   20.7560 C   0  0  0  0  0  0  0  0  0  0  0  0
  -26.3570  -13.1620   20.1030 N   0  0  0  0  0  0  0  0  0  0  0  0
  -26.0230  -11.8710   20.3490 N   0  0  0  0  0  0  0  0  0  0  0  0
  -24.0590  -10.6220   20.9520 C   0  0  0  0  0  0  0  0  0  0  0  0
  -24.5180   -9.6620   21.8800 C   0  0  0  0  0  3  0  0  0  0  0  0
  -23.8130   -8.4530   22.0650 C   0  0  0  0  0  3  0  0  0  0  0  0
  -22.6380   -8.1950   21.3200 C   0  0  0  0  0  0  0  0  0  0  0  0
  -22.1990   -9.1440   20.3800 C   0  0  0  0  0  3  0  0  0  0  0  0
  -22.9050  -10.3440   20.1930 C   0  0  0  0  0  3  0  0  0  0  0  0
  -21.9050   -7.0380   21.4160 O   0  0  0  0  0  0  0  0  0  0  0  0
  -21.8130   -6.3410   22.5930 C   0  0  0  0  0  0  0  0  0  0  0  0
  -21.2760   -6.9210   23.7630 C   0  0  0  0  0  3  0  0  0  0  0  0
  -21.1370   -6.1470   24.9330 C   0  0  0  0  0  3  0  0  0  0  0  0
  -21.5240   -4.7940   24.9330 C   0  0  0  0  0  0  0  0  0  0  0  0
  -22.0540   -4.2130   23.7680 C   0  0  0  0  0  3  0  0  0  0  0  0
  -22.1960   -4.9830   22.6010 C   0  0  0  0  0  0  0  0  0  0  0  0
  -22.6880   -4.4130   21.4750 F   0  0  0  0  0  0  0  0  0  0  0  0
  -21.3820   -4.0480   26.0540 F   0  0  0  0  0  0  0  0  0  0  0  0
  -22.9240  -13.7000   21.2640 C   0  0  0  0  0  0  0  0  0  0  0  0
  -22.2680  -12.9770   22.1640 N   0  0  0  0  0  0  0  0  0  0  0  0
  -22.4420  -14.7370   20.8090 O   0  0  0  0  0  0  0  0  0  0  0  0
  -22.6690  -12.1370   22.5540 H   0  0  0  0  0  0  0  0  0  0  0  0
  -21.3510  -13.2710   22.4710 H   0  0  0  0  0  0  0  0  0  0  0  0
  -25.4780  -15.4120   20.3160 N   0  0  0  0  0  0  0  0  0  0  0  0
  -24.7250  -16.0570   20.5300 H   0  0  0  0  0  0  0  0  0  0  0  0
  -26.3140  -15.8770   19.9870 H   0  0  0  0  0  0  0  0  0  0  0  0
  -30.9480  -16.4990   22.7290 C   0  0  0  0  0  1  0  0  0  0  0  0
  -31.8800  -17.3350   21.8440 C   0  0  0  0  0  2  0  0  0  0  0  0
  -29.1180  -22.0480   19.9990 O   0  0  0  0  0  0  0  0  0  0  0  0
  -29.7070  -23.3580   19.8170 C   0  0  0  0  0  2  0  0  0  0  0  0
  -28.8680  -24.5860   20.3510 C   0  0  0  0  0  2  0  0  0  0  0  0
  -27.8060  -25.4850   19.6190 C   0  0  0  0  0  2  0  0  0  0  0  0
  -28.0060  -26.9210   19.6990 O   0  0  0  0  0  0  0  0  0  0  0  0
  -24.4270  -31.9980   23.1860 C   0  0  0  0  0  0  0  0  0  0  0  0
  -26.8590  -27.7070   19.7290 C   0  0  0  0  0  0  0  0  0  0  0  0
  -23.1160  -30.6790   21.5570 C   0  0  0  0  0  3  0  0  0  0  0  0
  -24.4750  -29.2320   19.9550 C   0  0  0  0  0  0  0  0  0  0  0  0
  -25.6260  -31.0540   21.2140 C   0  0  0  0  0  2  0  0  0  0  0  0
  -25.6700  -29.7170   20.5010 C   0  0  0  0  0  0  0  0  0  0  0  0
  -26.8630  -28.9600   20.3900 C   0  0  0  0  0  3  0  0  0  0  0  0
  -25.6490  -27.2760   19.1310 C   0  0  0  0  0  3  0  0  0  0  0  0
  -24.4620  -28.0120   19.2650 C   0  0  0  0  0  3  0  0  0  0  0  0
  -23.2360  -30.0780   20.1310 C   0  0  0  0  0  2  0  0  0  0  0  0
  -24.4120  -31.2560   22.0430 N   0  0  0  0  0  0  0  0  0  0  0  0
  -23.3830  -32.2370   23.8100 O   0  0  0  0  0  0  0  0  0  0  0  0
  -22.5330  -29.6040   22.5020 C   0  0  0  0  0  0  0  0  0  0  0  0
  -21.2180  -29.3540   22.3860 N   0  0  0  0  0  0  0  0  0  0  0  0
  -23.2590  -29.0010   23.2970 O   0  0  0  0  0  0  0  0  0  0  0  0
  -20.6880  -29.8940   21.7150 H   0  0  0  0  0  0  0  0  0  0  0  0
  -17.9380  -27.9190   22.8410 C   0  0  0  0  0  0  0  0  0  0  0  0
  -20.4650  -28.3600   23.1500 C   0  0  0  0  0  3  0  0  0  0  0  0
  -20.6800  -26.9410   22.5770 C   0  0  0  0  0  2  0  0  0  0  0  0
  -19.6190  -26.5380   21.5480 C   0  0  0  0  0  2  0  0  0  0  0  0
  -18.2210  -26.5850   22.1710 C   0  0  0  0  0  2  0  0  0  0  0  0
  -18.9920  -28.7580   23.2880 C   0  0  0  0  0  0  0  0  0  0  0  0
  -18.6730  -30.0040   23.8720 C   0  0  0  0  0  3  0  0  0  0  0  0
  -17.3350  -30.4100   24.0170 C   0  0  0  0  0  3  0  0  0  0  0  0
  -16.2940  -29.5680   23.5880 C   0  0  0  0  0  3  0  0  0  0  0  0
  -16.5970  -28.3240   23.0060 C   0  0  0  0  0  3  0  0  0  0  0  0
  -25.7510  -32.6030   23.7500 C   0  0  0  0  0  3  0  0  0  0  0  0
  -25.4800  -34.0000   24.1140 N   0  0  0  0  0  0  0  0  0  0  0  0
  -25.8040  -35.0560   23.3580 C   0  0  0  0  0  0  0  0  0  0  0  0
  -26.4350  -34.9570   22.3020 O   0  0  0  0  0  0  0  0  0  0  0  0
  -24.9180  -34.1540   24.9390 H   0  0  0  0  0  0  0  0  0  0  0  0
  -24.0960  -36.8790   23.0860 C   0  0  0  0  0  1  0  0  0  0  0  0
  -25.3560  -36.4440   23.8510 C   0  0  0  0  0  3  0  0  0  0  0  0
  -27.5270  -37.2830   24.6330 C   0  0  0  0  0  1  0  0  0  0  0  0
  -26.4040  -37.4800   23.7200 N   0  0  0  0  0  0  0  0  0  0  0  0
  -26.0180  -38.4050   23.8860 H   0  0  0  0  0  0  0  0  0  0  0  0
  -26.3190  -31.8040   24.9870 C   0  0  1  0  0  0  0  0  0  0  0  0
  -25.2700  -31.5480   26.0910 C   0  0  0  0  0  1  0  0  0  0  0  0
  -26.8800  -30.4340   24.5410 C   0  0  0  0  0  1  0  0  0  0  0  0
  -27.4990  -32.5810   25.6150 C   0  0  0  0  0  1  0  0  0  0  0  0
  1  3  2  0
  1  6  1  0
  2  4  1  0
  3  5  1  0
  4  7  1  0
  5 47  1  0
  5  4  2  0
  6  2  2  0
  8  3  1  0
  9  8  2  0
  9 10  1  0
 10 16  1  0
 11 16  1  0
 12 13  1  0
 12 11  1  0
 14 13  1  0
 14 21  1  0
 14 15  1  0
 16 15  1  0
 17 10  2  0
 18 19  2  0
 19 38  1  0
 20 19  1  0
 20 23  1  0
 21 22  1  0
 21 18  1  0
 22 20  2  0
 23 24  1  0
 24 25  2  0
 26 29  1  0
 26 25  1  0
 27 26  2  0
 28 27  1  0
 28 23  2  0
 29 30  1  0
 30 35  2  0
 30 31  1  0
 31 32  2  0
 33 32  1  0
 33 37  1  0
 34 33  2  0
 35 34  1  0
 36 35  1  0
 38 39  1  0
 39 42  1  0
 39 41  1  0
 40 38  2  0
 43 18  1  0
 43 44  1  0
 45 43  1  0
 47 46  1  0
 48  6  1  0
 49 48  1  0
 49 50  1  0
 51 52  1  0
 51 50  1  0
 52 54  1  0
 53 64  2  0
 54 59  1  0
 55 63  1  0
 55 65  1  0
 56 62  1  0
 56 58  1  0
 57 63  1  0
 58 57  1  0
 59 58  2  0
 60 61  1  0
 60 54  2  0
 61 56  2  0
 62 55  1  0
 63 53  1  0
 65 67  2  0
 66 65  1  0
 68 66  1  0
 69 78  2  0
 69 74  1  0
 70 66  1  0
 70 74  1  0
 71 70  1  0
 72 73  1  0
 72 71  1  0
 73 69  1  0
 74 75  2  0
 75 76  1  0
 77 76  2  0
 78 77  1  0
 79 53  1  0
 79 80  1  0
 79 89  1  0
 80 83  1  0
 81 85  1  0
 81 80  1  0
 82 81  2  0
 85 84  1  0
 87 85  1  0
 87 88  1  0
 87 86  1  0
 89 92  1  1
 89 90  1  0
 91 89  1  0
M  ISO  4   9 100  10 100  51 101  52 101
M  END
>  <TORSDO>  (52) 
F 22

>  <SCORE>  (52) 
-12.103

>  <name>  (52) 
51

>  <ligand_id>  (52) 
51

>  <original_smiles>  (52) 
[H]C(C(=O)N1C([H])([H])C([H])([H])C([H])([H])C([H])(n2nc(-c3c([H])c([H])c(Oc4c([H])c([H])c(F)c([H])c4F)c([H])c3[H])c(C(=O)N([H])[H])c2N([H])[H])C1([H])[H])=C([H])c1c([H])c(OC([H])([H])C([H])([H])C([H])([H])Oc2c([H])c([H])c3c(c2[H])C([H])([H])N(C(=O)C([H])(N([H])C(=O)C([H])(N([H])C([H])([H])[H])C([H])([H])[H])C(C([H])([H])[H])(C([H])([H])[H])C([H])([H])[H])C([H])(C(=O)N([H])C2([H])c4c([H])c([H])c([H])c([H])c4C([H])([H])C([H])([H])C2([H])[H])C3([H])[H])c([H])c(C([H])([H])[H])c1C([H])([H])C([H])([H])[H]

>  <smiles>  (52) 
[H]C(C(=O)N1C([H])([H])C([H])([H])C([H])([H])C([H])(n2nc(-c3c([H])c([H])c(Oc4c([H])c([H])c(F)c([H])c4F)c([H])c3[H])c(C(=O)N([H])[H])c2N([H])[H])C1([H])[H])=C([H])c1c([H])c(OC([H])([H])C([H])([H])C([H])([H])Oc2c([H])c([H])c3c(c2[H])C([H])([H])N(C(=O)C([H])(N([H])C(=O)C([H])(N([H])C([H])([H])[H])C([H])([H])[H])C(C([H])([H])[H])(C([H])([H])[H])C([H])([H])[H])C([H])(C(=O)N([H])C2([H])c4c([H])c([H])c([H])c([H])c4C([H])([H])C([H])([H])C2([H])[H])C3([H])[H])c([H])c(C([H])([H])[H])c1C([H])([H])C([H])([H])[H]

$$$$
52:0:0
     RDKit          3D

 93101  0  0  1  0  0  0  0  0999 V2000
  -32.2570  -21.6820   20.5080 C   0  0  0  0  0  3  0  0  0  0  0  0
  -31.0170  -20.9490   20.5040 C   0  0  0  0  0  0  0  0  0  0  0  0
  -33.3800  -20.9090   20.5210 C   0  0  0  0  0  0  0  0  0  0  0  0
  -31.2130  -19.5490   20.5560 C   0  0  0  0  0  0  0  0  0  0  0  0
  -34.8090  -21.3540   20.5580 C   0  0  0  0  0  1  0  0  0  0  0  0
  -32.9570  -19.2360   20.4980 S   0  0  0  0  0  0  0  0  0  0  0  0
  -30.6270  -17.2120   21.1160 C   0  0  0  0  0  0  0  0  0  0  0  0
  -30.3590  -18.4550   20.5780 N   0  0  0  0  0  0  0  0  0  0  0  0
  -31.4960  -17.0740   21.9840 O   0  0  0  0  0  0  0  0  0  0  0  0
  -29.4920  -18.5580   20.0680 H   0  0  0  0  0  0  0  0  0  0  0  0
  -29.7350  -15.9560   20.7920 C   0  0  0  0  0  2  0  0  0  0  0  0
  -30.5440  -14.6640   20.3410 C   0  0  0  0  0  0  0  0  0  0  0  0
  -30.3040  -12.4430   19.2430 C   0  0  0  0  0  2  0  0  0  0  0  0
  -29.3460  -12.5910   18.0400 C   0  0  0  0  0  2  0  0  0  0  0  0
  -27.8780  -12.4230   18.4850 C   0  0  0  0  0  2  0  0  0  0  0  0
  -27.5350  -13.2720   19.7380 C   0  0  0  0  0  3  0  0  0  0  0  0
  -28.6100  -13.1050   20.8350 C   0  0  0  0  0  2  0  0  0  0  0  0
  -29.9160  -13.4470   20.2540 N   0  0  0  0  0  0  0  0  0  0  0  0
  -31.6900  -14.7900   19.8950 O   0  0  0  0  0  0  0  0  0  0  0  0
  -25.1470  -13.8550   20.4890 C   0  0  0  0  0  0  0  0  0  0  0  0
  -24.0900  -13.0750   20.8700 C   0  0  0  0  0  0  0  0  0  0  0  0
  -24.5610  -11.7260   20.8330 C   0  0  0  0  0  0  0  0  0  0  0  0
  -26.1940  -12.9820   20.2390 N   0  0  0  0  0  0  0  0  0  0  0  0
  -25.8480  -11.6970   20.5060 N   0  0  0  0  0  0  0  0  0  0  0  0
  -23.8440  -10.4590   21.0300 C   0  0  0  0  0  0  0  0  0  0  0  0
  -24.2990   -9.4900   21.9520 C   0  0  0  0  0  3  0  0  0  0  0  0
  -23.5820   -8.2880   22.1360 C   0  0  0  0  0  3  0  0  0  0  0  0
  -22.3970   -8.0480   21.4010 C   0  0  0  0  0  0  0  0  0  0  0  0
  -21.9630   -9.0050   20.4670 C   0  0  0  0  0  3  0  0  0  0  0  0
  -22.6800  -10.1980   20.2810 C   0  0  0  0  0  3  0  0  0  0  0  0
  -21.6490   -6.8980   21.4970 O   0  0  0  0  0  0  0  0  0  0  0  0
  -21.6330   -6.1440   22.6430 C   0  0  0  0  0  0  0  0  0  0  0  0
  -21.2400   -6.6860   23.8860 C   0  0  0  0  0  3  0  0  0  0  0  0
  -21.1700   -5.8570   25.0250 C   0  0  0  0  0  3  0  0  0  0  0  0
  -21.4870   -4.4890   24.9210 C   0  0  0  0  0  0  0  0  0  0  0  0
  -21.8710   -3.9470   23.6820 C   0  0  0  0  0  3  0  0  0  0  0  0
  -21.9430   -4.7730   22.5460 C   0  0  0  0  0  0  0  0  0  0  0  0
  -22.2940   -4.2410   21.3520 F   0  0  0  0  0  0  0  0  0  0  0  0
  -21.4120   -3.6910   26.0120 F   0  0  0  0  0  0  0  0  0  0  0  0
  -22.6930  -13.5420   21.1630 C   0  0  0  0  0  0  0  0  0  0  0  0
  -21.9810  -12.8360   22.0340 N   0  0  0  0  0  0  0  0  0  0  0  0
  -22.2430  -14.5660   20.6510 O   0  0  0  0  0  0  0  0  0  0  0  0
  -22.3570  -12.0070   22.4690 H   0  0  0  0  0  0  0  0  0  0  0  0
  -21.0430  -13.1300   22.2710 H   0  0  0  0  0  0  0  0  0  0  0  0
  -25.2990  -15.2280   20.3090 N   0  0  0  0  0  0  0  0  0  0  0  0
  -24.5250  -15.8740   20.4290 H   0  0  0  0  0  0  0  0  0  0  0  0
  -26.1430  -15.6780   19.9780 H   0  0  0  0  0  0  0  0  0  0  0  0
  -29.7480  -21.7790   20.4700 C   0  0  0  0  0  3  0  0  0  0  0  0
  -29.6990  -23.1180   20.1480 C   0  0  0  0  0  3  0  0  0  0  0  0
  -28.5150  -24.0480   20.2070 C   0  0  0  0  0  0  0  0  0  0  0  0
  -27.4900  -23.7580   20.8330 O   0  0  0  0  0  0  0  0  0  0  0  0
  -28.5710  -25.4110   19.4270 C   0  0  0  0  0  2  0  0  0  0  0  0
  -28.4000  -26.6310   20.2250 O   0  0  0  0  0  0  0  0  0  0  0  0
  -24.5910  -31.9110   23.2430 C   0  0  0  0  0  0  0  0  0  0  0  0
  -27.2350  -27.3990   20.1710 C   0  0  0  0  0  0  0  0  0  0  0  0
  -23.3920  -30.5090   21.5980 C   0  0  0  0  0  3  0  0  0  0  0  0
  -24.8500  -28.9640   20.1760 C   0  0  0  0  0  0  0  0  0  0  0  0
  -25.9270  -30.8460   21.4150 C   0  0  0  0  0  2  0  0  0  0  0  0
  -26.0110  -29.4700   20.7710 C   0  0  0  0  0  0  0  0  0  0  0  0
  -27.2030  -28.6950   20.7640 C   0  0  0  0  0  3  0  0  0  0  0  0
  -26.0430  -26.9250   19.5780 C   0  0  0  0  0  3  0  0  0  0  0  0
  -24.8640  -27.6940   19.5760 C   0  0  0  0  0  3  0  0  0  0  0  0
  -23.6100  -29.8310   20.2180 C   0  0  0  0  0  2  0  0  0  0  0  0
  -24.6560  -31.1080   22.1420 N   0  0  0  0  0  0  0  0  0  0  0  0
  -23.5070  -32.1810   23.7790 O   0  0  0  0  0  0  0  0  0  0  0  0
  -22.7370  -29.4890   22.5590 C   0  0  0  0  0  0  0  0  0  0  0  0
  -21.4100  -29.3130   22.4410 N   0  0  0  0  0  0  0  0  0  0  0  0
  -23.4220  -28.8600   23.3700 O   0  0  0  0  0  0  0  0  0  0  0  0
  -20.9150  -29.8760   21.7620 H   0  0  0  0  0  0  0  0  0  0  0  0
  -18.0370  -28.1230   22.9520 C   0  0  0  0  0  0  0  0  0  0  0  0
  -20.5960  -28.3740   23.2130 C   0  0  0  0  0  3  0  0  0  0  0  0
  -20.6900  -26.9440   22.6300 C   0  0  0  0  0  2  0  0  0  0  0  0
  -19.5850  -26.6300   21.6170 C   0  0  0  0  0  2  0  0  0  0  0  0
  -18.2070  -26.7770   22.2660 C   0  0  0  0  0  2  0  0  0  0  0  0
  -19.1590  -28.8800   23.3820 C   0  0  0  0  0  0  0  0  0  0  0  0
  -18.9430  -30.1410   23.9810 C   0  0  0  0  0  3  0  0  0  0  0  0
  -17.6410  -30.6480   24.1470 C   0  0  0  0  0  3  0  0  0  0  0  0
  -16.5330  -29.8860   23.7350 C   0  0  0  0  0  3  0  0  0  0  0  0
  -16.7320  -28.6250   23.1450 C   0  0  0  0  0  3  0  0  0  0  0  0
  -25.8720  -32.5450   23.8670 C   0  0  0  0  0  3  0  0  0  0  0  0
  -25.5610  -33.9450   24.1890 N   0  0  0  0  0  0  0  0  0  0  0  0
  -25.9000  -34.9950   23.4280 C   0  0  0  0  0  0  0  0  0  0  0  0
  -26.5770  -34.8860   22.4020 O   0  0  0  0  0  0  0  0  0  0  0  0
  -24.9480  -34.0990   24.9760 H   0  0  0  0  0  0  0  0  0  0  0  0
  -24.1760  -36.7920   23.0590 C   0  0  0  0  0  1  0  0  0  0  0  0
  -25.4130  -36.3850   23.8770 C   0  0  0  0  0  3  0  0  0  0  0  0
  -27.5490  -37.2750   24.7070 C   0  0  0  0  0  1  0  0  0  0  0  0
  -26.4470  -37.4370   23.7630 N   0  0  0  0  0  0  0  0  0  0  0  0
  -26.0390  -38.3570   23.9050 H   0  0  0  0  0  0  0  0  0  0  0  0
  -26.3850  -31.7780   25.1480 C   0  0  1  0  0  0  0  0  0  0  0  0
  -25.2910  -31.5430   26.2150 C   0  0  0  0  0  1  0  0  0  0  0  0
  -26.9610  -30.3960   24.7660 C   0  0  0  0  0  1  0  0  0  0  0  0
  -27.5400  -32.5700   25.8070 C   0  0  0  0  0  1  0  0  0  0  0  0
  1  3  2  0
  2  1  1  0
  2  4  2  0
  3  5  1  0
  4  8  1  0
  6  3  1  0
  6  4  1  0
  7  9  2  0
  8  7  1  0
 10  8  1  0
 11  7  1  0
 12 11  1  0
 13 18  1  0
 14 15  1  0
 14 13  1  0
 16 15  1  0
 16 23  1  0
 16 17  1  0
 18 12  1  0
 18 17  1  0
 19 12  2  0
 20 21  2  0
 21 40  1  0
 22 21  1  0
 22 25  1  0
 23 20  1  0
 23 24  1  0
 24 22  2  0
 25 26  1  0
 26 27  2  0
 28 31  1  0
 28 27  1  0
 29 28  2  0
 30 29  1  0
 30 25  2  0
 31 32  1  0
 32 33  1  0
 33 34  2  0
 35 34  1  0
 35 39  1  0
 36 35  2  0
 37 32  2  0
 37 36  1  0
 38 37  1  0
 40 41  1  0
 41 44  1  0
 41 43  1  0
 42 40  2  0
 45 46  1  0
 45 20  1  0
 47 45  1  0
 48  2  1  0
 49 50  1  0
 49 48  2  0
 50 51  2  0
 52 50  1  0
 52 53  1  0
 54 65  2  0
 55 53  1  0
 55 60  1  0
 56 64  1  0
 56 66  1  0
 57 63  1  0
 57 59  1  0
 58 64  1  0
 59 58  1  0
 60 59  2  0
 61 55  2  0
 62 61  1  0
 62 57  2  0
 63 56  1  0
 64 54  1  0
 66 68  2  0
 67 66  1  0
 69 67  1  0
 70 79  2  0
 70 75  1  0
 71 67  1  0
 71 75  1  0
 72 71  1  0
 73 74  1  0
 73 72  1  0
 74 70  1  0
 75 76  2  0
 76 77  1  0
 78 77  2  0
 79 78  1  0
 80 54  1  0
 80 81  1  0
 80 90  1  0
 81 84  1  0
 82 86  1  0
 82 81  1  0
 83 82  2  0
 86 85  1  0
 88 86  1  0
 88 89  1  0
 88 87  1  0
 90 93  1  1
 90 91  1  0
 92 90  1  0
M  ISO  4  11 100  12 100  52 101  53 101
M  END
>  <TORSDO>  (53) 
F 21

>  <SCORE>  (53) 
-13.525

>  <name>  (53) 
52

>  <ligand_id>  (53) 
52

>  <original_smiles>  (53) 
[H]C(C(=O)C([H])([H])Oc1c([H])c([H])c2c(c1[H])C([H])([H])N(C(=O)C([H])(N([H])C(=O)C([H])(N([H])C([H])([H])[H])C([H])([H])[H])C(C([H])([H])[H])(C([H])([H])[H])C([H])([H])[H])C([H])(C(=O)N([H])C1([H])c3c([H])c([H])c([H])c([H])c3C([H])([H])C([H])([H])C1([H])[H])C2([H])[H])=C([H])c1c(N([H])C(=O)C([H])([H])C(=O)N2C([H])([H])C([H])([H])C([H])([H])C([H])(n3nc(-c4c([H])c([H])c(Oc5c([H])c([H])c(F)c([H])c5F)c([H])c4[H])c(C(=O)N([H])[H])c3N([H])[H])C2([H])[H])sc(C([H])([H])[H])c1[H]

>  <smiles>  (53) 
[H]C(C(=O)C([H])([H])Oc1c([H])c([H])c2c(c1[H])C([H])([H])N(C(=O)C([H])(N([H])C(=O)C([H])(N([H])C([H])([H])[H])C([H])([H])[H])C(C([H])([H])[H])(C([H])([H])[H])C([H])([H])[H])C([H])(C(=O)N([H])C1([H])c3c([H])c([H])c([H])c([H])c3C([H])([H])C([H])([H])C1([H])[H])C2([H])[H])=C([H])c1c(N([H])C(=O)C([H])([H])C(=O)N2C([H])([H])C([H])([H])C([H])([H])C([H])(n3nc(-c4c([H])c([H])c(Oc5c([H])c([H])c(F)c([H])c5F)c([H])c4[H])c(C(=O)N([H])[H])c3N([H])[H])C2([H])[H])sc(C([H])([H])[H])c1[H]

$$$$
53:0:0
     RDKit          3D

 93101  0  0  1  0  0  0  0  0999 V2000
  -31.6890  -20.1030   20.7740 C   0  0  0  0  0  3  0  0  0  0  0  0
  -29.8750  -18.4820   20.8600 C   0  0  0  0  0  3  0  0  0  0  0  0
  -32.1890  -17.7290   20.8390 C   0  0  0  0  0  3  0  0  0  0  0  0
  -30.3020  -19.8380   20.8250 C   0  0  0  0  0  0  0  0  0  0  0  0
  -32.6420  -19.0630   20.7840 C   0  0  0  0  0  0  0  0  0  0  0  0
  -30.8090  -17.4110   20.8360 C   0  0  0  0  0  0  0  0  0  0  0  0
  -31.0080  -14.9900   20.2680 C   0  0  0  0  0  0  0  0  0  0  0  0
  -30.7370  -12.7560   19.2620 C   0  0  0  0  0  2  0  0  0  0  0  0
  -29.7850  -12.8520   18.0540 C   0  0  0  0  0  2  0  0  0  0  0  0
  -28.3220  -12.6850   18.5050 C   0  0  0  0  0  2  0  0  0  0  0  0
  -27.9630  -13.5890   19.7160 C   0  0  0  0  0  3  0  0  0  0  0  0
  -29.0350  -13.5020   20.8260 C   0  0  0  0  0  2  0  0  0  0  0  0
  -30.3440  -13.8020   20.2230 N   0  0  0  0  0  0  0  0  0  0  0  0
  -32.1020  -15.1340   19.7180 O   0  0  0  0  0  0  0  0  0  0  0  0
  -30.3620  -16.0410   20.8270 N   0  0  0  0  0  0  0  0  0  0  0  0
  -29.4240  -15.8580   21.1510 H   0  0  0  0  0  0  0  0  0  0  0  0
  -25.5850  -14.1560   20.5160 C   0  0  0  0  0  0  0  0  0  0  0  0
  -24.5320  -13.3660   20.8920 C   0  0  0  0  0  0  0  0  0  0  0  0
  -24.9990  -12.0180   20.8040 C   0  0  0  0  0  0  0  0  0  0  0  0
  -26.6280  -13.2890   20.2260 N   0  0  0  0  0  0  0  0  0  0  0  0
  -26.2790  -11.9970   20.4560 N   0  0  0  0  0  0  0  0  0  0  0  0
  -24.2830  -10.7470   20.9740 C   0  0  0  0  0  0  0  0  0  0  0  0
  -24.7000   -9.7860   21.9230 C   0  0  0  0  0  3  0  0  0  0  0  0
  -23.9850   -8.5800   22.0810 C   0  0  0  0  0  3  0  0  0  0  0  0
  -22.8380   -8.3240   21.2910 C   0  0  0  0  0  0  0  0  0  0  0  0
  -22.4410   -9.2740   20.3330 C   0  0  0  0  0  3  0  0  0  0  0  0
  -23.1570  -10.4710   20.1720 C   0  0  0  0  0  3  0  0  0  0  0  0
  -22.0960   -7.1700   21.3590 O   0  0  0  0  0  0  0  0  0  0  0  0
  -21.9500   -6.4760   22.5330 C   0  0  0  0  0  0  0  0  0  0  0  0
  -21.3690   -7.0630   23.6780 C   0  0  0  0  0  3  0  0  0  0  0  0
  -21.1750   -6.2920   24.8420 C   0  0  0  0  0  3  0  0  0  0  0  0
  -21.5500   -4.9360   24.8600 C   0  0  0  0  0  0  0  0  0  0  0  0
  -22.1240   -4.3480   23.7180 C   0  0  0  0  0  3  0  0  0  0  0  0
  -22.3210   -5.1160   22.5580 C   0  0  0  0  0  0  0  0  0  0  0  0
  -22.8530   -4.5390   21.4540 F   0  0  0  0  0  0  0  0  0  0  0  0
  -21.3570   -4.1930   25.9750 F   0  0  0  0  0  0  0  0  0  0  0  0
  -23.1420  -13.8270   21.2230 C   0  0  0  0  0  0  0  0  0  0  0  0
  -22.4500  -13.1090   22.0980 N   0  0  0  0  0  0  0  0  0  0  0  0
  -22.6800  -14.8590   20.7390 O   0  0  0  0  0  0  0  0  0  0  0  0
  -22.8370  -12.2720   22.5110 H   0  0  0  0  0  0  0  0  0  0  0  0
  -21.5190  -13.3980   22.3620 H   0  0  0  0  0  0  0  0  0  0  0  0
  -25.7390  -15.5310   20.3750 N   0  0  0  0  0  0  0  0  0  0  0  0
  -24.9710  -16.1790   20.5180 H   0  0  0  0  0  0  0  0  0  0  0  0
  -26.5760  -15.9800   20.0220 H   0  0  0  0  0  0  0  0  0  0  0  0
  -34.9710  -18.6410   21.4790 C   0  0  0  0  0  2  0  0  0  0  0  0
  -34.0910  -19.3610   20.7590 C   0  0  0  0  0  0  0  0  0  0  0  0
  -34.5690  -20.4730   19.8410 C   0  0  0  0  0  1  0  0  0  0  0  0
  -29.3160  -20.9540   20.8800 C   0  0  0  0  0  3  0  0  0  0  0  0
  -29.5910  -22.2820   20.8990 C   0  0  0  0  0  3  0  0  0  0  0  0
  -28.5600  -23.4000   21.0370 C   0  0  0  0  0  2  0  0  0  0  0  0
  -28.8210  -24.6810   20.1920 C   0  0  0  0  0  2  0  0  0  0  0  0
  -27.9070  -25.8470   20.6440 C   0  0  0  0  0  2  0  0  0  0  0  0
  -28.1030  -27.1060   19.9650 O   0  0  0  0  0  0  0  0  0  0  0  0
  -24.6310  -32.2000   23.5490 C   0  0  0  0  0  0  0  0  0  0  0  0
  -26.9930  -27.9250   20.0350 C   0  0  0  0  0  0  0  0  0  0  0  0
  -23.3080  -30.9440   21.8800 C   0  0  0  0  0  3  0  0  0  0  0  0
  -24.6480  -29.4880   20.2690 C   0  0  0  0  0  0  0  0  0  0  0  0
  -25.8300  -31.2620   21.5740 C   0  0  0  0  0  2  0  0  0  0  0  0
  -25.8500  -29.9410   20.8320 C   0  0  0  0  0  0  0  0  0  0  0  0
  -27.0300  -29.1680   20.7090 C   0  0  0  0  0  3  0  0  0  0  0  0
  -25.7790  -27.4990   19.4540 C   0  0  0  0  0  3  0  0  0  0  0  0
  -24.6070  -28.2680   19.5760 C   0  0  0  0  0  3  0  0  0  0  0  0
  -23.4280  -30.3630   20.4470 C   0  0  0  0  0  2  0  0  0  0  0  0
  -24.6110  -31.4790   22.3930 N   0  0  0  0  0  0  0  0  0  0  0  0
  -23.5860  -32.4550   24.1640 O   0  0  0  0  0  0  0  0  0  0  0  0
  -22.6810  -29.8700   22.8000 C   0  0  0  0  0  0  0  0  0  0  0  0
  -21.3690  -29.6340   22.6370 N   0  0  0  0  0  0  0  0  0  0  0  0
  -23.3740  -29.2540   23.6140 O   0  0  0  0  0  0  0  0  0  0  0  0
  -20.8710  -30.1870   21.9530 H   0  0  0  0  0  0  0  0  0  0  0  0
  -18.0700  -28.1880   22.9280 C   0  0  0  0  0  0  0  0  0  0  0  0
  -20.5760  -28.6430   23.3660 C   0  0  0  0  0  3  0  0  0  0  0  0
  -20.8260  -27.2190   22.8160 C   0  0  0  0  0  2  0  0  0  0  0  0
  -19.8220  -26.8060   21.7360 C   0  0  0  0  0  2  0  0  0  0  0  0
  -18.3930  -26.8520   22.2820 C   0  0  0  0  0  2  0  0  0  0  0  0
  -19.0960  -29.0370   23.4220 C   0  0  0  0  0  0  0  0  0  0  0  0
  -18.7440  -30.2860   23.9790 C   0  0  0  0  0  3  0  0  0  0  0  0
  -17.3960  -30.6870   24.0510 C   0  0  0  0  0  3  0  0  0  0  0  0
  -16.3830  -29.8350   23.5770 C   0  0  0  0  0  3  0  0  0  0  0  0
  -16.7200  -28.5890   23.0210 C   0  0  0  0  0  3  0  0  0  0  0  0
  -25.9630  -32.7580   24.1430 C   0  0  0  0  0  3  0  0  0  0  0  0
  -25.7380  -34.1690   24.4830 N   0  0  0  0  0  0  0  0  0  0  0  0
  -26.1460  -35.2050   23.7380 C   0  0  0  0  0  0  0  0  0  0  0  0
  -26.8250  -35.0690   22.7160 O   0  0  0  0  0  0  0  0  0  0  0  0
  -25.1440  -34.3530   25.2780 H   0  0  0  0  0  0  0  0  0  0  0  0
  -24.5560  -37.1140   23.3570 C   0  0  0  0  0  1  0  0  0  0  0  0
  -25.7390  -36.6160   24.2020 C   0  0  0  0  0  3  0  0  0  0  0  0
  -27.8990  -37.3440   25.1160 C   0  0  0  0  0  1  0  0  0  0  0  0
  -26.8430  -37.5990   24.1400 N   0  0  0  0  0  0  0  0  0  0  0  0
  -26.4940  -38.5420   24.2890 H   0  0  0  0  0  0  0  0  0  0  0  0
  -26.4670  -31.9530   25.4030 C   0  0  1  0  0  0  0  0  0  0  0  0
  -25.3780  -31.7380   26.4790 C   0  0  0  0  0  1  0  0  0  0  0  0
  -26.9970  -30.5620   24.9850 C   0  0  0  0  0  1  0  0  0  0  0  0
  -27.6520  -32.6990   26.0620 C   0  0  0  0  0  1  0  0  0  0  0  0
  1  5  2  0
  1  4  1  0
  4  2  2  0
  4 48  1  0
  5  3  1  0
  6  3  2  0
  6  2  1  0
  7 15  1  0
  8 13  1  0
  9 10  1  0
  9  8  1  0
 11 10  1  0
 11 20  1  0
 11 12  1  0
 13  7  1  0
 13 12  1  0
 14  7  2  0
 15  6  1  0
 15 16  1  0
 17 18  2  0
 18 37  1  0
 19 18  1  0
 19 22  1  0
 20 21  1  0
 20 17  1  0
 21 19  2  0
 22 23  1  0
 23 24  2  0
 25 28  1  0
 25 24  1  0
 26 25  2  0
 27 26  1  0
 27 22  2  0
 28 29  1  0
 29 34  2  0
 29 30  1  0
 30 31  2  0
 31 32  1  0
 32 36  1  0
 33 32  2  0
 34 33  1  0
 35 34  1  0
 37 38  1  0
 38 41  1  0
 38 40  1  0
 39 37  2  0
 42 17  1  0
 42 43  1  0
 44 42  1  0
 46  5  1  0
 46 45  2  0
 47 46  1  0
 48 49  2  0
 49 50  1  0
 51 52  1  0
 51 50  1  0
 53 55  1  0
 53 52  1  0
 54 65  2  0
 55 60  1  0
 56 64  1  0
 56 66  1  0
 57 63  1  0
 57 59  1  0
 58 64  1  0
 59 58  1  0
 60 59  2  0
 61 62  1  0
 61 55  2  0
 62 57  2  0
 63 56  1  0
 64 54  1  0
 66 68  2  0
 67 66  1  0
 69 67  1  0
 70 79  2  0
 70 75  1  0
 71 67  1  0
 71 75  1  0
 72 71  1  0
 73 74  1  0
 73 72  1  0
 74 70  1  0
 75 76  2  0
 76 77  1  0
 78 77  2  0
 79 78  1  0
 80 54  1  0
 80 81  1  0
 80 90  1  0
 81 84  1  0
 82 86  1  0
 82 81  1  0
 83 82  2  0
 86 85  1  0
 88 86  1  0
 88 89  1  0
 88 87  1  0
 90 93  1  1
 90 91  1  0
 92 90  1  0
M  ISO  4   7 100  15 100  52 101  53 101
M  END
>  <TORSDO>  (54) 
F 21

>  <SCORE>  (54) 
-12.195

>  <name>  (54) 
53

>  <ligand_id>  (54) 
53

>  <original_smiles>  (54) 
[H]C([H])=C(c1c([H])c(C([H])=C([H])C([H])([H])C([H])([H])C([H])([H])Oc2c([H])c([H])c3c(c2[H])C([H])([H])N(C(=O)C([H])(N([H])C(=O)C([H])(N([H])C([H])([H])[H])C([H])([H])[H])C(C([H])([H])[H])(C([H])([H])[H])C([H])([H])[H])C([H])(C(=O)N([H])C2([H])c4c([H])c([H])c([H])c([H])c4C([H])([H])C([H])([H])C2([H])[H])C3([H])[H])c([H])c(N([H])C(=O)N2C([H])([H])C([H])([H])C([H])([H])C([H])(n3nc(-c4c([H])c([H])c(Oc5c([H])c([H])c(F)c([H])c5F)c([H])c4[H])c(C(=O)N([H])[H])c3N([H])[H])C2([H])[H])c1[H])C([H])([H])[H]

>  <smiles>  (54) 
[H]C([H])=C(c1c([H])c(C([H])=C([H])C([H])([H])C([H])([H])C([H])([H])Oc2c([H])c([H])c3c(c2[H])C([H])([H])N(C(=O)C([H])(N([H])C(=O)C([H])(N([H])C([H])([H])[H])C([H])([H])[H])C(C([H])([H])[H])(C([H])([H])[H])C([H])([H])[H])C([H])(C(=O)N([H])C2([H])c4c([H])c([H])c([H])c([H])c4C([H])([H])C([H])([H])C2([H])[H])C3([H])[H])c([H])c(N([H])C(=O)N2C([H])([H])C([H])([H])C([H])([H])C([H])(n3nc(-c4c([H])c([H])c(Oc5c([H])c([H])c(F)c([H])c5F)c([H])c4[H])c(C(=O)N([H])[H])c3N([H])[H])C2([H])[H])c1[H])C([H])([H])[H]

$$$$
54:0:0
     RDKit          3D

 94102  0  0  1  0  0  0  0  0999 V2000
  -32.0900  -18.5870   21.5620 C   0  0  0  0  0  3  0  0  0  0  0  0
  -31.5650  -17.3080   21.3920 C   0  0  0  0  0  3  0  0  0  0  0  0
  -30.0540  -19.6350   20.6290 C   0  0  0  0  0  0  0  0  0  0  0  0
  -31.3650  -19.7360   21.2010 C   0  0  0  0  0  0  0  0  0  0  0  0
  -29.5600  -18.2850   20.3870 C   0  0  0  0  0  0  0  0  0  0  0  0
  -30.3150  -17.1170   20.7780 C   0  0  0  0  0  0  0  0  0  0  0  0
  -32.0790  -21.0440   21.5030 C   0  0  0  0  0  1  0  0  0  0  0  0
  -30.6020  -14.6400   20.3210 C   0  0  0  0  0  0  0  0  0  0  0  0
  -30.3190  -12.4420   19.2350 C   0  0  0  0  0  2  0  0  0  0  0  0
  -29.3660  -12.6150   18.0360 C   0  0  0  0  0  2  0  0  0  0  0  0
  -27.8970  -12.4790   18.4870 C   0  0  0  0  0  2  0  0  0  0  0  0
  -27.5660  -13.3200   19.7480 C   0  0  0  0  0  3  0  0  0  0  0  0
  -28.6380  -13.1390   20.8440 C   0  0  0  0  0  2  0  0  0  0  0  0
  -29.9390  -13.4510   20.2390 N   0  0  0  0  0  0  0  0  0  0  0  0
  -31.7710  -14.7410   19.9370 O   0  0  0  0  0  0  0  0  0  0  0  0
  -29.8530  -15.7460   20.6050 N   0  0  0  0  0  0  0  0  0  0  0  0
  -28.8620  -15.5860   20.6940 H   0  0  0  0  0  0  0  0  0  0  0  0
  -25.1770  -13.9120   20.4900 C   0  0  0  0  0  0  0  0  0  0  0  0
  -24.1180  -13.1350   20.8750 C   0  0  0  0  0  0  0  0  0  0  0  0
  -24.5870  -11.7870   20.8430 C   0  0  0  0  0  0  0  0  0  0  0  0
  -26.2230  -13.0360   20.2490 N   0  0  0  0  0  0  0  0  0  0  0  0
  -25.8750  -11.7530   20.5250 N   0  0  0  0  0  0  0  0  0  0  0  0
  -23.8680  -10.5220   21.0410 C   0  0  0  0  0  0  0  0  0  0  0  0
  -24.3200   -9.5530   21.9640 C   0  0  0  0  0  3  0  0  0  0  0  0
  -23.6010   -8.3520   22.1490 C   0  0  0  0  0  3  0  0  0  0  0  0
  -22.4180   -8.1110   21.4110 C   0  0  0  0  0  0  0  0  0  0  0  0
  -21.9860   -9.0700   20.4760 C   0  0  0  0  0  3  0  0  0  0  0  0
  -22.7060  -10.2610   20.2890 C   0  0  0  0  0  3  0  0  0  0  0  0
  -21.6690   -6.9630   21.5050 O   0  0  0  0  0  0  0  0  0  0  0  0
  -21.6490   -6.2090   22.6510 C   0  0  0  0  0  0  0  0  0  0  0  0
  -21.2670   -6.7570   23.8960 C   0  0  0  0  0  3  0  0  0  0  0  0
  -21.1950   -5.9300   25.0350 C   0  0  0  0  0  3  0  0  0  0  0  0
  -21.4940   -4.5580   24.9300 C   0  0  0  0  0  0  0  0  0  0  0  0
  -21.8700   -4.0130   23.6910 C   0  0  0  0  0  3  0  0  0  0  0  0
  -21.9450   -4.8350   22.5540 C   0  0  0  0  0  0  0  0  0  0  0  0
  -22.2870   -4.3000   21.3570 F   0  0  0  0  0  0  0  0  0  0  0  0
  -21.4170   -3.7620   26.0220 F   0  0  0  0  0  0  0  0  0  0  0  0
  -22.7210  -13.6080   21.1540 C   0  0  0  0  0  0  0  0  0  0  0  0
  -22.0010  -12.9110   22.0260 N   0  0  0  0  0  0  0  0  0  0  0  0
  -22.2780  -14.6290   20.6350 O   0  0  0  0  0  0  0  0  0  0  0  0
  -22.3720  -12.0820   22.4670 H   0  0  0  0  0  0  0  0  0  0  0  0
  -21.0640  -13.2120   22.2540 H   0  0  0  0  0  0  0  0  0  0  0  0
  -25.3320  -15.2820   20.3030 N   0  0  0  0  0  0  0  0  0  0  0  0
  -24.5520  -15.9250   20.3980 H   0  0  0  0  0  0  0  0  0  0  0  0
  -26.1420  -15.7090   19.8760 H   0  0  0  0  0  0  0  0  0  0  0  0
  -29.2210  -20.8850   20.3200 C   0  0  0  0  0  3  0  0  0  0  0  0
  -29.5620  -22.2030   20.1760 C   0  0  0  0  0  3  0  0  0  0  0  0
  -28.6080  -23.4100   19.9790 C   0  0  0  0  0  2  0  0  0  0  0  0
  -28.4790  -25.7500   21.1630 C   0  0  0  0  0  3  0  0  0  0  0  0
  -28.5660  -24.3860   21.1810 C   0  0  0  0  0  0  0  0  0  0  0  0
  -28.6110  -23.6880   22.5360 C   0  0  0  0  0  1  0  0  0  0  0  0
  -28.3920  -26.6210   20.0890 O   0  0  0  0  0  0  0  0  0  0  0  0
  -24.6550  -31.9150   23.2220 C   0  0  0  0  0  0  0  0  0  0  0  0
  -27.2840  -27.4510   20.1030 C   0  0  0  0  0  0  0  0  0  0  0  0
  -23.4460  -30.5040   21.5940 C   0  0  0  0  0  3  0  0  0  0  0  0
  -24.8960  -28.9790   20.1410 C   0  0  0  0  0  0  0  0  0  0  0  0
  -25.9740  -30.8700   21.3700 C   0  0  0  0  0  2  0  0  0  0  0  0
  -26.0620  -29.4960   20.7260 C   0  0  0  0  0  0  0  0  0  0  0  0
  -27.2630  -28.7360   20.7070 C   0  0  0  0  0  3  0  0  0  0  0  0
  -26.1050  -26.9660   19.5040 C   0  0  0  0  0  3  0  0  0  0  0  0
  -24.9150  -27.7160   19.5240 C   0  0  0  0  0  3  0  0  0  0  0  0
  -23.6450  -29.8290   20.2100 C   0  0  0  0  0  2  0  0  0  0  0  0
  -24.7110  -31.1120   22.1200 N   0  0  0  0  0  0  0  0  0  0  0  0
  -23.5770  -32.1760   23.7750 O   0  0  0  0  0  0  0  0  0  0  0  0
  -22.8080  -29.4800   22.5620 C   0  0  0  0  0  0  0  0  0  0  0  0
  -21.4850  -29.2840   22.4490 N   0  0  0  0  0  0  0  0  0  0  0  0
  -23.5050  -28.8630   23.3720 O   0  0  0  0  0  0  0  0  0  0  0  0
  -20.9810  -29.8300   21.7630 H   0  0  0  0  0  0  0  0  0  0  0  0
  -18.1290  -28.0320   22.9570 C   0  0  0  0  0  0  0  0  0  0  0  0
  -20.6840  -28.3360   23.2240 C   0  0  0  0  0  3  0  0  0  0  0  0
  -20.8140  -26.9040   22.6550 C   0  0  0  0  0  2  0  0  0  0  0  0
  -19.7150  -26.5550   21.6460 C   0  0  0  0  0  2  0  0  0  0  0  0
  -18.3300  -26.6830   22.2880 C   0  0  0  0  0  2  0  0  0  0  0  0
  -19.2360  -28.8160   23.3800 C   0  0  0  0  0  0  0  0  0  0  0  0
  -18.9950  -30.0800   23.9620 C   0  0  0  0  0  3  0  0  0  0  0  0
  -17.6810  -30.5600   24.1260 C   0  0  0  0  0  3  0  0  0  0  0  0
  -16.5900  -29.7720   23.7210 C   0  0  0  0  0  3  0  0  0  0  0  0
  -16.8150  -28.5110   23.1420 C   0  0  0  0  0  3  0  0  0  0  0  0
  -25.9380  -32.5620   23.8310 C   0  0  0  0  0  3  0  0  0  0  0  0
  -26.4810  -31.7900   25.0940 C   0  0  1  0  0  0  0  0  0  0  0  0
  -25.4080  -31.5350   26.1770 C   0  0  0  0  0  1  0  0  0  0  0  0
  -27.0750  -30.4250   24.6830 C   0  0  0  0  0  1  0  0  0  0  0  0
  -27.6380  -32.5900   25.7380 C   0  0  0  0  0  1  0  0  0  0  0  0
  -25.6170  -33.9550   24.1720 N   0  0  0  0  0  0  0  0  0  0  0  0
  -25.9280  -35.0150   23.4150 C   0  0  0  0  0  0  0  0  0  0  0  0
  -26.5870  -34.9250   22.3740 O   0  0  0  0  0  0  0  0  0  0  0  0
  -25.0420  -34.0980   24.9910 H   0  0  0  0  0  0  0  0  0  0  0  0
  -24.1790  -36.7880   23.0900 C   0  0  0  0  0  1  0  0  0  0  0  0
  -25.4340  -36.3960   23.8850 C   0  0  0  0  0  3  0  0  0  0  0  0
  -27.5720  -37.2940   24.6940 C   0  0  0  0  0  1  0  0  0  0  0  0
  -26.4560  -37.4600   23.7650 N   0  0  0  0  0  0  0  0  0  0  0  0
  -26.0440  -38.3750   23.9260 H   0  0  0  0  0  0  0  0  0  0  0  0
  -28.4880  -17.9180   18.1290 C   0  0  0  0  0  1  0  0  0  0  0  0
  -28.2440  -18.0480   19.6390 C   0  0  0  0  0  2  0  0  0  0  0  0
  2  1  1  0
  3  4  1  0
  4  7  1  0
  4  1  2  0
  5  3  2  0
  5  6  1  0
  6  2  2  0
  8 16  1  0
  9 14  1  0
 10 11  1  0
 10  9  1  0
 12 11  1  0
 12 21  1  0
 12 13  1  0
 14  8  1  0
 14 13  1  0
 15  8  2  0
 16 17  1  0
 16  6  1  0
 18 19  2  0
 19 38  1  0
 20 19  1  0
 20 23  1  0
 21 18  1  0
 21 22  1  0
 22 20  2  0
 23 24  1  0
 24 25  2  0
 26 29  1  0
 26 25  1  0
 27 26  2  0
 28 27  1  0
 28 23  2  0
 29 30  1  0
 30 31  1  0
 31 32  2  0
 33 32  1  0
 33 37  1  0
 34 33  2  0
 35 30  2  0
 35 34  1  0
 36 35  1  0
 38 39  1  0
 39 42  1  0
 39 41  1  0
 40 38  2  0
 43 44  1  0
 43 18  1  0
 45 43  1  0
 46  3  1  0
 47 46  2  0
 48 47  1  0
 48 50  1  0
 49 50  2  0
 50 51  1  0
 52 54  1  0
 52 49  1  0
 53 64  2  0
 54 59  1  0
 55 63  1  0
 55 65  1  0
 56 62  1  0
 56 58  1  0
 57 63  1  0
 58 57  1  0
 59 58  2  0
 60 61  1  0
 60 54  2  0
 61 56  2  0
 62 55  1  0
 63 53  1  0
 65 67  2  0
 66 65  1  0
 68 66  1  0
 69 78  2  0
 69 74  1  0
 70 66  1  0
 70 74  1  0
 71 70  1  0
 72 73  1  0
 72 71  1  0
 73 69  1  0
 74 75  2  0
 75 76  1  0
 77 76  2  0
 78 77  1  0
 79 53  1  0
 79 84  1  0
 79 80  1  0
 80 83  1  1
 80 81  1  0
 82 80  1  0
 84 87  1  0
 85 89  1  0
 85 84  1  0
 86 85  2  0
 89 88  1  0
 91 89  1  0
 91 92  1  0
 91 90  1  0
 93 94  1  0
 94  5  1  0
M  ISO  4   8 100  16 100  49 101  52 101
M  END
>  <TORSDO>  (55) 
F 20

>  <SCORE>  (55) 
-14.075

>  <name>  (55) 
54

>  <ligand_id>  (55) 
54

>  <original_smiles>  (55) 
[H]C(Oc1c([H])c([H])c2c(c1[H])C([H])([H])N(C(=O)C([H])(N([H])C(=O)C([H])(N([H])C([H])([H])[H])C([H])([H])[H])C(C([H])([H])[H])(C([H])([H])[H])C([H])([H])[H])C([H])(C(=O)N([H])C1([H])c3c([H])c([H])c([H])c([H])c3C([H])([H])C([H])([H])C1([H])[H])C2([H])[H])=C(C([H])([H])[H])C([H])([H])C([H])=C([H])c1c(C([H])([H])[H])c([H])c([H])c(N([H])C(=O)N2C([H])([H])C([H])([H])C([H])([H])C([H])(n3nc(-c4c([H])c([H])c(Oc5c([H])c([H])c(F)c([H])c5F)c([H])c4[H])c(C(=O)N([H])[H])c3N([H])[H])C2([H])[H])c1C([H])([H])C([H])([H])[H]

>  <smiles>  (55) 
[H]C(Oc1c([H])c([H])c2c(c1[H])C([H])([H])N(C(=O)C([H])(N([H])C(=O)C([H])(N([H])C([H])([H])[H])C([H])([H])[H])C(C([H])([H])[H])(C([H])([H])[H])C([H])([H])[H])C([H])(C(=O)N([H])C1([H])c3c([H])c([H])c([H])c([H])c3C([H])([H])C([H])([H])C1([H])[H])C2([H])[H])=C(C([H])([H])[H])C([H])([H])C([H])=C([H])c1c(C([H])([H])[H])c([H])c([H])c(N([H])C(=O)N2C([H])([H])C([H])([H])C([H])([H])C([H])(n3nc(-c4c([H])c([H])c(Oc5c([H])c([H])c(F)c([H])c5F)c([H])c4[H])c(C(=O)N([H])[H])c3N([H])[H])C2([H])[H])c1C([H])([H])C([H])([H])[H]

$$$$
55:0:0
     RDKit          3D

 90 88  0  0  1  0  0  0  0  0999 V2000
  -25.5570  -14.0930   22.5980 C   0  0  0  0  0 15  0  0  0  0  0  0
  -23.9020  -12.6580   22.1560 C   0  0  0  0  0 15  0  0  0  0  0  0
  -25.5990  -13.1240   18.5200 C   0  0  0  0  0 15  0  0  0  0  0  0
  -26.9370  -15.1660   21.2800 C   0  0  0  0  0 15  0  0  0  0  0  0
  -23.8810  -12.2480   19.5360 C   0  0  0  0  0  2  0  0  0  0  0  0
  -27.1380  -14.5240   19.3610 C   0  0  0  0  0  1  0  0  0  0  0  0
  -22.7840  -11.7440   18.5880 C   0  0  0  0  0  1  0  0  0  0  0  0
  -29.9670  -14.0030   19.4530 C   0  0  0  0  0  0  0  0  0  0  0  0
  -30.4000  -11.6670   18.8100 C   0  0  0  0  0  2  0  0  0  0  0  0
  -29.2730  -11.4300   17.7740 C   0  0  0  0  0  2  0  0  0  0  0  0
  -27.8910  -11.1650   18.5250 C   0  0  0  0  0  2  0  0  0  0  0  0
  -27.7150  -12.1560   19.7250 C   0  0  0  0  0  3  0  0  0  0  0  0
  -28.9290  -12.2250   20.6390 C   0  0  0  0  0  2  0  0  0  0  0  0
  -29.9250  -12.6910   19.7560 N   0  0  0  0  0  0  0  0  0  0  0  0
  -31.1460  -14.4160   19.3270 O   0  0  0  0  0  0  0  0  0  0  0  0
  -28.7050  -14.6800   19.0600 N   0  0  0  0  0  0  0  0  0  0  0  0
  -28.9220  -15.5870   18.6710 H   0  0  0  0  0  0  0  0  0  0  0  0
  -25.0330  -14.2590   20.2210 C   0  0  0  0  0  2  0  0  0  0  0  0
  -24.3960  -13.8590   20.5420 C   0  0  0  0  0  3  0  0  0  0  0  0
  -25.5440  -11.8920   20.6770 C   0  0  0  0  0  3  0  0  0  0  0  0
  -26.3300  -12.7060   20.4670 N   0  0  0  0  0  0  0  0  0  0  0  0
  -26.5160  -11.7180   21.2680 N   0  0  0  0  0  2  0  0  0  0  0  0
  -24.6010  -10.2710   20.9420 C   0  0  0  0  0  0  0  0  0  0  0  0
  -24.8990   -9.1450   21.8120 C   0  0  0  0  0  3  0  0  0  0  0  0
  -24.0250   -8.0210   22.1710 C   0  0  0  0  0  3  0  0  0  0  0  0
  -22.6960   -7.8530   21.6780 C   0  0  0  0  0  0  0  0  0  0  0  0
  -22.2690   -8.9130   20.9030 C   0  0  0  0  0  3  0  0  0  0  0  0
  -23.1330  -10.0190   20.7130 C   0  0  0  0  0  3  0  0  0  0  0  0
  -21.8050   -6.7960   21.8590 O   0  0  0  0  0  0  0  0  0  0  0  0
  -21.7810   -6.0010   22.9840 C   0  0  0  0  0  0  0  0  0  0  0  0
  -21.5120   -6.5360   24.2620 C   0  0  0  0  0  3  0  0  0  0  0  0
  -21.4800   -5.6930   25.3940 C   0  0  0  0  0  3  0  0  0  0  0  0
  -21.7050   -4.3110   25.2550 C   0  0  0  0  0  0  0  0  0  0  0  0
  -21.9270   -3.7640   23.9790 C   0  0  0  0  0  3  0  0  0  0  0  0
  -21.9500   -4.6020   22.8480 C   0  0  0  0  0  0  0  0  0  0  0  0
  -22.1360   -4.0540   21.6220 F   0  0  0  0  0  0  0  0  0  0  0  0
  -21.7060   -3.5060   26.3450 F   0  0  0  0  0  0  0  0  0  0  0  0
  -22.7640  -14.2370   20.7040 C   0  0  0  0  0  0  0  0  0  0  0  0
  -21.8400  -13.5730   21.4730 N   0  0  0  0  0  0  0  0  0  0  0  0
  -22.2610  -15.1210   20.0790 O   0  0  0  0  0  0  0  0  0  0  0  0
  -22.1350  -12.8010   22.0490 H   0  0  0  0  0  0  0  0  0  0  0  0
  -20.8760  -13.8690   21.4850 H   0  0  0  0  0  0  0  0  0  0  0  0
  -24.8730  -15.5630   19.6330 N   0  0  0  0  0  0  0  0  0  0  0  0
  -23.9570  -15.9990   19.5990 H   0  0  0  0  0  0  0  0  0  0  0  0
  -25.5930  -16.0660   19.1300 H   0  0  0  0  0  0  0  0  0  0  0  0
  -27.2560  -17.1330   21.2050 C   0  0  0  0  0  1  0  0  0  0  0  0
  -27.3400  -18.5600   20.3880 C   0  0  0  0  0  1  0  0  0  0  0  0
  -27.7720  -20.5540   20.3740 C   0  0  0  0  0 15  0  0  0  0  0  0
  -27.4370  -22.5330   19.5900 C   0  0  0  0  0 15  0  0  0  0  0  0
  -27.9190  -24.4070   19.4650 O   0  0  0  0  0  1  0  0  0  0  0  0
  -25.1320  -31.1000   22.5990 C   0  0  0  0  0  0  0  0  0  0  0  0
  -27.2450  -25.8850   19.3520 C   0  0  0  0  0  0  0  0  0  0  0  0
  -23.8800  -29.8020   20.9360 C   0  0  0  0  0  3  0  0  0  0  0  0
  -25.2330  -28.2290   19.3400 C   0  0  0  0  0  0  0  0  0  0  0  0
  -26.4540  -29.8620   20.7370 C   0  0  0  0  0  2  0  0  0  0  0  0
  -26.4430  -28.4380   20.0060 C   0  0  0  0  0  0  0  0  0  0  0  0
  -27.4420  -27.2970   19.9760 C   0  0  0  0  0  3  0  0  0  0  0  0
  -26.0980  -26.0190   18.5340 C   0  0  0  0  0  3  0  0  0  0  0  0
  -25.1320  -27.0730   18.5510 C   0  0  0  0  0  3  0  0  0  0  0  0
  -24.0640  -29.2200   19.5020 C   0  0  0  0  0  2  0  0  0  0  0  0
  -25.1860  -30.3000   21.4730 N   0  0  0  0  0  0  0  0  0  0  0  0
  -24.0590  -31.3590   23.1720 O   0  0  0  0  0  0  0  0  0  0  0  0
  -23.2240  -28.7490   21.8720 C   0  0  0  0  0  0  0  0  0  0  0  0
  -21.8850  -28.6070   21.8390 N   0  0  0  0  0  0  0  0  0  0  0  0
  -23.9330  -28.0620   22.6110 O   0  0  0  0  0  0  0  0  0  0  0  0
  -21.3550  -29.2140   21.2290 H   0  0  0  0  0  0  0  0  0  0  0  0
  -18.5470  -27.3210   22.4920 C   0  0  0  0  0  0  0  0  0  0  0  0
  -21.1170  -27.6070   22.5940 C   0  0  0  0  0  3  0  0  0  0  0  0
  -21.1890  -26.2210   21.9130 C   0  0  0  0  0  2  0  0  0  0  0  0
  -20.0240  -25.9610   20.9520 C   0  0  0  0  0  2  0  0  0  0  0  0
  -18.6890  -26.0330   21.6980 C   0  0  0  0  0  2  0  0  0  0  0  0
  -19.6850  -28.0680   22.8980 C   0  0  0  0  0  0  0  0  0  0  0  0
  -19.4930  -29.2710   23.6130 C   0  0  0  0  0  3  0  0  0  0  0  0
  -18.1980  -29.7310   23.9150 C   0  0  0  0  0  3  0  0  0  0  0  0
  -17.0750  -28.9840   23.5180 C   0  0  0  0  0  3  0  0  0  0  0  0
  -17.2510  -27.7790   22.8140 C   0  0  0  0  0  3  0  0  0  0  0  0
  -26.4100  -31.7420   23.2180 C   0  0  0  0  0  3  0  0  0  0  0  0
  -27.0840  -30.8350   24.3220 C   0  0  1  0  0  0  0  0  0  0  0  0
  -26.1090  -30.3690   25.4300 C   0  0  0  0  0  1  0  0  0  0  0  0
  -27.7160  -29.5710   23.7020 C   0  0  0  0  0  1  0  0  0  0  0  0
  -28.2390  -31.6080   25.0020 C   0  0  0  0  0  1  0  0  0  0  0  0
  -26.0340  -33.0420   23.8170 N   0  0  0  0  0  0  0  0  0  0  0  0
  -26.3030  -34.2480   23.2980 C   0  0  0  0  0  0  0  0  0  0  0  0
  -26.9510  -34.3900   22.2580 O   0  0  0  0  0  0  0  0  0  0  0  0
  -25.4500  -33.0000   24.6390 H   0  0  0  0  0  0  0  0  0  0  0  0
  -24.5140  -36.0260   23.3540 C   0  0  0  0  0  1  0  0  0  0  0  0
  -25.7800  -35.4960   24.0460 C   0  0  0  0  0  3  0  0  0  0  0  0
  -27.8930  -36.2710   25.0330 C   0  0  0  0  0  1  0  0  0  0  0  0
  -26.7740  -36.5870   24.1500 N   0  0  0  0  0  0  0  0  0  0  0  0
  -26.3380  -37.4410   24.4850 H   0  0  0  0  0  0  0  0  0  0  0  0
  7  5  1  0
  8 14  1  0
  9 14  1  0
 10 11  1  0
 10  9  1  0
 12 11  1  0
 12 21  1  0
 12 13  1  0
 14 13  1  0
 15  8  2  0
 16  6  1  0
 16  8  1  0
 17 16  1  0
 18 19  1  0
 19  5  1  0
 19 38  1  0
 20 23  1  0
 20 22  1  0
 21 20  1  0
 21 22  1  0
 23 24  1  0
 24 25  2  0
 26 29  1  0
 26 25  1  0
 27 26  2  0
 28 27  1  0
 28 23  2  0
 29 30  1  0
 30 31  1  0
 31 32  2  0
 33 32  1  0
 33 37  1  0
 34 33  2  0
 35 30  2  0
 35 34  1  0
 36 35  1  0
 38 39  1  0
 39 42  1  0
 39 41  1  0
 40 38  2  0
 43 18  1  0
 44 43  1  0
 45 43  1  0
 47 46  1  0
 51 62  2  0
 52 50  1  0
 52 57  1  0
 53 61  1  0
 53 63  1  0
 54 60  1  0
 54 56  1  0
 55 61  1  0
 56 55  1  0
 57 56  2  0
 58 59  1  0
 58 52  2  0
 59 54  2  0
 60 53  1  0
 61 51  1  0
 63 65  2  0
 64 63  1  0
 66 64  1  0
 67 76  2  0
 67 72  1  0
 68 64  1  0
 68 72  1  0
 69 68  1  0
 70 71  1  0
 70 69  1  0
 71 67  1  0
 72 73  2  0
 73 74  1  0
 75 74  2  0
 76 75  1  0
 77 51  1  0
 77 82  1  0
 77 78  1  0
 78 81  1  1
 78 79  1  0
 80 78  1  0
 82 85  1  0
 83 82  1  0
 83 87  1  0
 84 83  2  0
 87 86  1  0
 87 89  1  0
 89 90  1  0
 89 88  1  0
M  ISO  4   8 100  16 100  49 101  50 101
M  END
>  <TORSDO>  (56) 
F 19

>  <SCORE>  (56) 
-4.108

>  <name>  (56) 
55

>  <ligand_id>  (56) 
55

>  <original_smiles>  (56) 
[H]C(=C([H])C([H])([H])C([H])([H])Oc1c([H])c([H])c2c(c1[H])C([H])([H])N(C(=O)C([H])(N([H])C(=O)C([H])(N([H])C([H])([H])[H])C([H])([H])[H])C(C([H])([H])[H])(C([H])([H])[H])C([H])([H])[H])C([H])(C(=O)N([H])C1([H])c3c([H])c([H])c([H])c([H])c3C([H])([H])C([H])([H])C1([H])[H])C2([H])[H])c1c([H])c([H])c(C([H])([H])[H])c([H])c1N([H])C(=O)N1C([H])([H])C([H])([H])C([H])([H])C([H])(n2nc(-c3c([H])c([H])c(Oc4c([H])c([H])c(F)c([H])c4F)c([H])c3[H])c(C(=O)N([H])[H])c2N([H])[H])C1([H])[H]

>  <smiles>  (56) 
[H]C(=C([H])C([H])([H])C([H])([H])Oc1c([H])c([H])c2c(c1[H])C([H])([H])N(C(=O)C([H])(N([H])C(=O)C([H])(N([H])C([H])([H])[H])C([H])([H])[H])C(C([H])([H])[H])(C([H])([H])[H])C([H])([H])[H])C([H])(C(=O)N([H])C1([H])c3c([H])c([H])c([H])c([H])c3C([H])([H])C([H])([H])C1([H])[H])C2([H])[H])c1c([H])c([H])c(C([H])([H])[H])c([H])c1N([H])C(=O)N1C([H])([H])C([H])([H])C([H])([H])C([H])(n2nc(-c3c([H])c([H])c(Oc4c([H])c([H])c(F)c([H])c4F)c([H])c3[H])c(C(=O)N([H])[H])c2N([H])[H])C1([H])[H]

$$$$
56:0:0
     RDKit          3D

 93101  0  0  1  0  0  0  0  0999 V2000
  -29.7840  -18.2620   20.7760 C   0  0  0  0  0  3  0  0  0  0  0  0
  -31.5990  -19.8720   20.6050 C   0  0  0  0  0  3  0  0  0  0  0  0
  -32.0950  -17.4950   20.7270 C   0  0  0  0  0  3  0  0  0  0  0  0
  -30.2120  -19.6150   20.6880 C   0  0  0  0  0  0  0  0  0  0  0  0
  -30.7140  -17.1880   20.7750 C   0  0  0  0  0  0  0  0  0  0  0  0
  -32.5470  -18.8330   20.6240 C   0  0  0  0  0  0  0  0  0  0  0  0
  -30.9630  -14.7180   20.5250 C   0  0  0  0  0  0  0  0  0  0  0  0
  -30.7740  -12.3660   19.8040 C   0  0  0  0  0  2  0  0  0  0  0  0
  -29.9350  -12.2930   18.5120 C   0  0  0  0  0  2  0  0  0  0  0  0
  -28.4370  -12.1780   18.8500 C   0  0  0  0  0  2  0  0  0  0  0  0
  -27.9750  -13.2320   19.8910 C   0  0  0  0  0  3  0  0  0  0  0  0
  -28.9430  -13.3010   21.0950 C   0  0  0  0  0  2  0  0  0  0  0  0
  -30.3000  -13.5280   20.5750 N   0  0  0  0  0  0  0  0  0  0  0  0
  -32.1090  -14.8010   20.0800 O   0  0  0  0  0  0  0  0  0  0  0  0
  -30.2570  -15.8250   20.8520 N   0  0  0  0  0  0  0  0  0  0  0  0
  -29.2810  -15.6770   21.0620 H   0  0  0  0  0  0  0  0  0  0  0  0
  -25.5740  -13.9050   20.5250 C   0  0  0  0  0  0  0  0  0  0  0  0
  -24.4670  -13.1640   20.8370 C   0  0  0  0  0  0  0  0  0  0  0  0
  -24.8820  -11.7980   20.7950 C   0  0  0  0  0  0  0  0  0  0  0  0
  -26.5960  -12.9940   20.3150 N   0  0  0  0  0  0  0  0  0  0  0  0
  -26.1820  -11.7200   20.5350 N   0  0  0  0  0  0  0  0  0  0  0  0
  -24.1060  -10.5580   20.9310 C   0  0  0  0  0  0  0  0  0  0  0  0
  -24.4580   -9.5650   21.8730 C   0  0  0  0  0  3  0  0  0  0  0  0
  -23.6850   -8.3910   21.9970 C   0  0  0  0  0  3  0  0  0  0  0  0
  -22.5460   -8.2000   21.1800 C   0  0  0  0  0  0  0  0  0  0  0  0
  -22.2150   -9.1800   20.2270 C   0  0  0  0  0  3  0  0  0  0  0  0
  -22.9880  -10.3460   20.1000 C   0  0  0  0  0  3  0  0  0  0  0  0
  -21.7520   -7.0790   21.2120 O   0  0  0  0  0  0  0  0  0  0  0  0
  -21.5960   -6.3400   22.3580 C   0  0  0  0  0  0  0  0  0  0  0  0
  -21.1060   -6.9130   23.5520 C   0  0  0  0  0  3  0  0  0  0  0  0
  -20.8970   -6.1020   24.6860 C   0  0  0  0  0  3  0  0  0  0  0  0
  -21.1670   -4.7220   24.6260 C   0  0  0  0  0  0  0  0  0  0  0  0
  -21.6490   -4.1500   23.4360 C   0  0  0  0  0  3  0  0  0  0  0  0
  -21.8600   -4.9570   22.3040 C   0  0  0  0  0  0  0  0  0  0  0  0
  -22.3050   -4.3970   21.1530 F   0  0  0  0  0  0  0  0  0  0  0  0
  -20.9570   -3.9420   25.7120 F   0  0  0  0  0  0  0  0  0  0  0  0
  -23.0770  -13.6840   21.0670 C   0  0  0  0  0  0  0  0  0  0  0  0
  -22.3040  -13.0130   21.9140 N   0  0  0  0  0  0  0  0  0  0  0  0
  -22.6860  -14.7200   20.5320 O   0  0  0  0  0  0  0  0  0  0  0  0
  -22.6320  -12.1740   22.3690 H   0  0  0  0  0  0  0  0  0  0  0  0
  -21.3700  -13.3440   22.1110 H   0  0  0  0  0  0  0  0  0  0  0  0
  -25.7920  -15.2730   20.3810 N   0  0  0  0  0  0  0  0  0  0  0  0
  -25.0440  -15.9520   20.4690 H   0  0  0  0  0  0  0  0  0  0  0  0
  -26.6670  -15.6850   20.0830 H   0  0  0  0  0  0  0  0  0  0  0  0
  -29.2270  -20.7300   20.7150 C   0  0  0  0  0  3  0  0  0  0  0  0
  -29.4940  -22.0580   20.6540 C   0  0  0  0  0  3  0  0  0  0  0  0
  -28.4570  -23.1720   20.7870 C   0  0  0  0  0  2  0  0  0  0  0  0
  -28.6830  -24.4330   19.9070 C   0  0  0  0  0  2  0  0  0  0  0  0
  -27.7740  -25.6010   20.3640 C   0  0  0  0  0  2  0  0  0  0  0  0
  -27.9550  -26.8570   19.6730 O   0  0  0  0  0  0  0  0  0  0  0  0
  -24.4940  -31.9540   23.2590 C   0  0  0  0  0  0  0  0  0  0  0  0
  -26.8400  -27.6660   19.7510 C   0  0  0  0  0  0  0  0  0  0  0  0
  -23.1550  -30.6670   21.6270 C   0  0  0  0  0  3  0  0  0  0  0  0
  -24.4830  -29.2080   20.0080 C   0  0  0  0  0  0  0  0  0  0  0  0
  -25.6680  -31.0080   21.2730 C   0  0  0  0  0  2  0  0  0  0  0  0
  -25.6890  -29.6780   20.5460 C   0  0  0  0  0  0  0  0  0  0  0  0
  -26.8740  -28.9160   20.4120 C   0  0  0  0  0  3  0  0  0  0  0  0
  -25.6220  -27.2260   19.1870 C   0  0  0  0  0  3  0  0  0  0  0  0
  -24.4450  -27.9830   19.3230 C   0  0  0  0  0  3  0  0  0  0  0  0
  -23.2580  -30.0740   20.1970 C   0  0  0  0  0  2  0  0  0  0  0  0
  -24.4610  -31.2200   22.1110 N   0  0  0  0  0  0  0  0  0  0  0  0
  -23.4570  -32.2050   23.8890 O   0  0  0  0  0  0  0  0  0  0  0  0
  -22.5570  -29.5960   22.5670 C   0  0  0  0  0  0  0  0  0  0  0  0
  -21.2350  -29.3820   22.4690 N   0  0  0  0  0  0  0  0  0  0  0  0
  -23.2790  -28.9610   23.3410 O   0  0  0  0  0  0  0  0  0  0  0  0
  -20.7110  -29.9490   21.8160 H   0  0  0  0  0  0  0  0  0  0  0  0
  -17.9280  -27.9960   22.9230 C   0  0  0  0  0  0  0  0  0  0  0  0
  -20.4640  -28.3980   23.2280 C   0  0  0  0  0  3  0  0  0  0  0  0
  -20.6540  -26.9770   22.6520 C   0  0  0  0  0  2  0  0  0  0  0  0
  -19.5860  -26.5940   21.6230 C   0  0  0  0  0  2  0  0  0  0  0  0
  -18.1890  -26.6600   22.2490 C   0  0  0  0  0  2  0  0  0  0  0  0
  -18.9960  -28.8200   23.3690 C   0  0  0  0  0  0  0  0  0  0  0  0
  -18.6990  -30.0680   23.9570 C   0  0  0  0  0  3  0  0  0  0  0  0
  -17.3660  -30.4960   24.1050 C   0  0  0  0  0  3  0  0  0  0  0  0
  -16.3120  -29.6700   23.6770 C   0  0  0  0  0  3  0  0  0  0  0  0
  -16.5940  -28.4230   23.0920 C   0  0  0  0  0  3  0  0  0  0  0  0
  -25.8290  -32.5320   23.8220 C   0  0  0  0  0  3  0  0  0  0  0  0
  -25.5870  -33.9360   24.1790 N   0  0  0  0  0  0  0  0  0  0  0  0
  -25.9390  -34.9850   23.4220 C   0  0  0  0  0  0  0  0  0  0  0  0
  -26.5730  -34.8690   22.3710 O   0  0  0  0  0  0  0  0  0  0  0  0
  -25.0230  -34.1040   25.0000 H   0  0  0  0  0  0  0  0  0  0  0  0
  -24.2740  -36.8470   23.1400 C   0  0  0  0  0  1  0  0  0  0  0  0
  -25.5200  -36.3850   23.9100 C   0  0  0  0  0  3  0  0  0  0  0  0
  -27.7090  -37.1750   24.6920 C   0  0  0  0  0  1  0  0  0  0  0  0
  -26.5890  -37.3980   23.7800 N   0  0  0  0  0  0  0  0  0  0  0  0
  -26.2240  -38.3320   23.9500 H   0  0  0  0  0  0  0  0  0  0  0  0
  -26.3810  -31.7270   25.0620 C   0  0  1  0  0  0  0  0  0  0  0  0
  -25.3350  -31.5150   26.1810 C   0  0  0  0  0  1  0  0  0  0  0  0
  -26.8930  -30.3350   24.6250 C   0  0  0  0  0  1  0  0  0  0  0  0
  -27.5910  -32.4720   25.6730 C   0  0  0  0  0  1  0  0  0  0  0  0
  -33.8740  -19.2020   20.5450 O   0  0  0  0  0  0  0  0  0  0  0  0
  -36.1950  -18.8830   20.0420 C   0  0  0  0  0  1  0  0  0  0  0  0
  -34.8300  -18.2090   20.1950 C   0  0  0  0  0  2  0  0  0  0  0  0
  2  6  2  0
  2  4  1  0
  3  5  2  0
  4 45  1  0
  4  1  2  0
  5  1  1  0
  5 15  1  0
  6  3  1  0
  7 13  1  0
  7 15  1  0
  8 13  1  0
  9 10  1  0
  9  8  1  0
 11 10  1  0
 11 20  1  0
 11 12  1  0
 13 12  1  0
 14  7  2  0
 15 16  1  0
 17 18  2  0
 18 37  1  0
 19 18  1  0
 19 22  1  0
 20 17  1  0
 20 21  1  0
 21 19  2  0
 22 23  1  0
 23 24  2  0
 25 28  1  0
 25 24  1  0
 26 25  2  0
 27 26  1  0
 27 22  2  0
 28 29  1  0
 29 30  1  0
 30 31  2  0
 32 31  1  0
 32 36  1  0
 33 32  2  0
 34 29  2  0
 34 33  1  0
 35 34  1  0
 37 38  1  0
 38 41  1  0
 38 40  1  0
 39 37  2  0
 42 43  1  0
 42 17  1  0
 44 42  1  0
 46 45  2  0
 46 47  1  0
 48 49  1  0
 48 47  1  0
 50 52  1  0
 50 49  1  0
 51 62  2  0
 52 57  1  0
 53 61  1  0
 53 63  1  0
 54 60  1  0
 54 56  1  0
 55 61  1  0
 56 55  1  0
 57 56  2  0
 58 59  1  0
 58 52  2  0
 59 54  2  0
 60 53  1  0
 61 51  1  0
 63 65  2  0
 64 63  1  0
 66 64  1  0
 67 76  2  0
 67 72  1  0
 68 64  1  0
 68 72  1  0
 69 68  1  0
 70 71  1  0
 70 69  1  0
 71 67  1  0
 72 73  2  0
 73 74  1  0
 75 74  2  0
 76 75  1  0
 77 51  1  0
 77 78  1  0
 77 87  1  0
 78 81  1  0
 79 83  1  0
 79 78  1  0
 80 79  2  0
 83 82  1  0
 85 83  1  0
 85 86  1  0
 85 84  1  0
 87 90  1  1
 87 88  1  0
 89 87  1  0
 91  6  1  0
 92 93  1  0
 93 91  1  0
M  ISO  4   7 100  15 100  49 101  50 101
M  END
>  <TORSDO>  (57) 
F 22

>  <SCORE>  (57) 
-12.519

>  <name>  (57) 
56

>  <ligand_id>  (57) 
56

>  <original_smiles>  (57) 
[H]C(=C([H])C([H])([H])C([H])([H])C([H])([H])Oc1c([H])c([H])c2c(c1[H])C([H])([H])N(C(=O)C([H])(N([H])C(=O)C([H])(N([H])C([H])([H])[H])C([H])([H])[H])C(C([H])([H])[H])(C([H])([H])[H])C([H])([H])[H])C([H])(C(=O)N([H])C1([H])c3c([H])c([H])c([H])c([H])c3C([H])([H])C([H])([H])C1([H])[H])C2([H])[H])c1c([H])c(OC([H])([H])C([H])([H])[H])c([H])c(N([H])C(=O)N2C([H])([H])C([H])([H])C([H])([H])C([H])(n3nc(-c4c([H])c([H])c(Oc5c([H])c([H])c(F)c([H])c5F)c([H])c4[H])c(C(=O)N([H])[H])c3N([H])[H])C2([H])[H])c1[H]

>  <smiles>  (57) 
[H]C(=C([H])C([H])([H])C([H])([H])C([H])([H])Oc1c([H])c([H])c2c(c1[H])C([H])([H])N(C(=O)C([H])(N([H])C(=O)C([H])(N([H])C([H])([H])[H])C([H])([H])[H])C(C([H])([H])[H])(C([H])([H])[H])C([H])([H])[H])C([H])(C(=O)N([H])C1([H])c3c([H])c([H])c([H])c([H])c3C([H])([H])C([H])([H])C1([H])[H])C2([H])[H])c1c([H])c(OC([H])([H])C([H])([H])[H])c([H])c(N([H])C(=O)N2C([H])([H])C([H])([H])C([H])([H])C([H])(n3nc(-c4c([H])c([H])c(Oc5c([H])c([H])c(F)c([H])c5F)c([H])c4[H])c(C(=O)N([H])[H])c3N([H])[H])C2([H])[H])c1[H]

$$$$
57:0:0
     RDKit          3D

 94103  0  0  1  0  0  0  0  0999 V2000
  -27.8740  -19.1170   20.4430 C   0  0  0  0  0  3  0  0  0  0  0  0
  -28.3900  -20.4160   20.5140 C   0  0  0  0  0  3  0  0  0  0  0  0
  -30.6230  -19.4890   20.3370 C   0  0  0  0  0  3  0  0  0  0  0  0
  -28.7030  -17.9810   20.3340 C   0  0  0  0  0  0  0  0  0  0  0  0
  -30.1200  -18.1420   20.2730 C   0  0  0  0  0  0  0  0  0  0  0  0
  -29.7780  -20.6330   20.4580 C   0  0  0  0  0  0  0  0  0  0  0  0
  -26.7790  -16.4790   20.8510 C   0  0  0  0  0  2  0  0  0  0  0  0
  -28.0290  -16.6710   20.3900 C   0  0  0  0  0  2  0  0  0  0  0  0
  -32.5040  -17.1730   19.7740 C   0  0  0  0  0  1  0  0  0  0  0  0
  -31.0770  -16.8950   20.3080 C   0  0  0  0  0  3  0  0  0  0  0  0
  -30.9980  -14.4850   19.2620 C   0  0  0  0  0  0  0  0  0  0  0  0
  -30.4630  -12.2700   18.2690 C   0  0  0  0  0  2  0  0  0  0  0  0
  -29.3990  -12.4280   17.1660 C   0  0  0  0  0  2  0  0  0  0  0  0
  -27.9750  -12.3930   17.7590 C   0  0  0  0  0  2  0  0  0  0  0  0
  -27.8120  -13.3080   19.0040 C   0  0  0  0  0  3  0  0  0  0  0  0
  -28.9850  -13.1250   19.9980 C   0  0  0  0  0  2  0  0  0  0  0  0
  -30.2410  -13.3450   19.2610 N   0  0  0  0  0  0  0  0  0  0  0  0
  -32.0450  -14.5600   18.6150 O   0  0  0  0  0  0  0  0  0  0  0  0
  -30.5090  -15.5540   19.9420 N   0  0  0  0  0  0  0  0  0  0  0  0
  -29.6190  -15.3700   20.3750 H   0  0  0  0  0  0  0  0  0  0  0  0
  -25.5560  -14.0560   19.9930 C   0  0  0  0  0  0  0  0  0  0  0  0
  -24.4860  -13.3590   20.4810 C   0  0  0  0  0  0  0  0  0  0  0  0
  -24.8350  -11.9790   20.3720 C   0  0  0  0  0  0  0  0  0  0  0  0
  -26.5070  -13.1130   19.6390 N   0  0  0  0  0  0  0  0  0  0  0  0
  -26.0770  -11.8530   19.9150 N   0  0  0  0  0  0  0  0  0  0  0  0
  -24.0310  -10.7740   20.6170 C   0  0  0  0  0  0  0  0  0  0  0  0
  -24.4180   -9.8170   21.5820 C   0  0  0  0  0  3  0  0  0  0  0  0
  -23.6210   -8.6760   21.8200 C   0  0  0  0  0  3  0  0  0  0  0  0
  -22.4220   -8.4820   21.0930 C   0  0  0  0  0  0  0  0  0  0  0  0
  -22.0530   -9.4260   20.1180 C   0  0  0  0  0  3  0  0  0  0  0  0
  -22.8500  -10.5580   19.8780 C   0  0  0  0  0  3  0  0  0  0  0  0
  -21.6020   -7.3900   21.2340 O   0  0  0  0  0  0  0  0  0  0  0  0
  -21.4430   -6.7600   22.4440 C   0  0  0  0  0  0  0  0  0  0  0  0
  -20.9620   -7.4420   23.5810 C   0  0  0  0  0  3  0  0  0  0  0  0
  -20.7510   -6.7440   24.7850 C   0  0  0  0  0  3  0  0  0  0  0  0
  -21.0080   -5.3600   24.8540 C   0  0  0  0  0  0  0  0  0  0  0  0
  -21.4830   -4.6770   23.7190 C   0  0  0  0  0  3  0  0  0  0  0  0
  -21.6970   -5.3760   22.5180 C   0  0  0  0  0  0  0  0  0  0  0  0
  -22.1310   -4.7070   21.4230 F   0  0  0  0  0  0  0  0  0  0  0  0
  -20.7990   -4.6870   26.0090 F   0  0  0  0  0  0  0  0  0  0  0  0
  -23.1720  -13.9340   20.9300 C   0  0  0  0  0  0  0  0  0  0  0  0
  -22.5080  -13.2850   21.8800 N   0  0  0  0  0  0  0  0  0  0  0  0
  -22.7490  -14.9950   20.4700 O   0  0  0  0  0  0  0  0  0  0  0  0
  -22.8670  -12.4310   22.2800 H   0  0  0  0  0  0  0  0  0  0  0  0
  -21.6270  -13.6520   22.2160 H   0  0  0  0  0  0  0  0  0  0  0  0
  -25.7850  -15.4110   19.7890 N   0  0  0  0  0  4  0  0  0  0  0  0
  -25.0280  -16.0770   19.8920 H   0  0  0  0  0  0  0  0  0  0  0  0
  -26.5550  -15.7710   19.2380 H   0  0  0  0  0  0  0  0  0  0  0  0
  -30.3040  -21.9170   20.5780 O   0  0  0  0  0  0  0  0  0  0  0  0
  -29.7080  -22.9960   19.8000 C   0  0  0  0  0  2  0  0  0  0  0  0
  -29.5060  -24.3210   20.5880 C   0  0  0  0  0  0  0  0  0  0  0  0
  -29.6920  -24.3900   21.8100 O   0  0  0  0  0  0  0  0  0  0  0  0
  -29.0190  -25.5410   19.7530 C   0  0  0  0  0  2  0  0  0  0  0  0
  -28.7820  -26.7650   20.5170 O   0  0  0  0  0  0  0  0  0  0  0  0
  -24.6100  -31.8110   23.4030 C   0  0  0  0  0  0  0  0  0  0  0  0
  -27.5760  -27.4610   20.4120 C   0  0  0  0  0  0  0  0  0  0  0  0
  -23.5340  -30.3550   21.7210 C   0  0  0  0  0  3  0  0  0  0  0  0
  -25.1090  -28.8950   20.3400 C   0  0  0  0  0  0  0  0  0  0  0  0
  -26.0520  -30.8220   21.6180 C   0  0  0  0  0  2  0  0  0  0  0  0
  -26.2230  -29.4560   20.9760 C   0  0  0  0  0  0  0  0  0  0  0  0
  -27.4510  -28.7440   21.0130 C   0  0  0  0  0  3  0  0  0  0  0  0
  -26.4350  -26.9380   19.7550 C   0  0  0  0  0  3  0  0  0  0  0  0
  -25.2150  -27.6390   19.7250 C   0  0  0  0  0  3  0  0  0  0  0  0
  -23.8260  -29.6970   20.3490 C   0  0  0  0  0  2  0  0  0  0  0  0
  -24.7470  -31.0160   22.3010 N   0  0  0  0  0  0  0  0  0  0  0  0
  -23.5010  -32.0220   23.9090 O   0  0  0  0  0  0  0  0  0  0  0  0
  -22.8990  -29.2990   22.6530 C   0  0  0  0  0  0  0  0  0  0  0  0
  -21.6050  -29.0040   22.4400 N   0  0  0  0  0  0  0  0  0  0  0  0
  -23.5750  -28.7440   23.5250 O   0  0  0  0  0  0  0  0  0  0  0  0
  -21.1190  -29.5070   21.7120 H   0  0  0  0  0  0  0  0  0  0  0  0
  -18.3290  -27.5020   22.7240 C   0  0  0  0  0  0  0  0  0  0  0  0
  -20.8210  -28.0130   23.1820 C   0  0  0  0  0  3  0  0  0  0  0  0
  -21.1030  -26.5820   22.6730 C   0  0  0  0  0  2  0  0  0  0  0  0
  -20.1210  -26.1150   21.5940 C   0  0  0  0  0  2  0  0  0  0  0  0
  -18.6840  -26.1520   22.1210 C   0  0  0  0  0  2  0  0  0  0  0  0
  -19.3330  -28.3800   23.2100 C   0  0  0  0  0  0  0  0  0  0  0  0
  -18.9510  -29.6310   23.7390 C   0  0  0  0  0  3  0  0  0  0  0  0
  -17.5960  -30.0070   23.7860 C   0  0  0  0  0  3  0  0  0  0  0  0
  -16.6050  -29.1290   23.3170 C   0  0  0  0  0  3  0  0  0  0  0  0
  -16.9720  -27.8770   22.7920 C   0  0  0  0  0  3  0  0  0  0  0  0
  -25.8380  -32.5110   24.0630 C   0  0  0  0  0  3  0  0  0  0  0  0
  -25.4700  -33.9140   24.3050 N   0  0  0  0  0  0  0  0  0  0  0  0
  -25.8150  -34.9410   23.5160 C   0  0  0  0  0  0  0  0  0  0  0  0
  -26.5430  -34.8090   22.5270 O   0  0  0  0  0  0  0  0  0  0  0  0
  -24.8330  -34.0840   25.0710 H   0  0  0  0  0  0  0  0  0  0  0  0
  -24.0580  -36.6590   22.9820 C   0  0  0  0  0  1  0  0  0  0  0  0
  -25.2630  -36.3330   23.8790 C   0  0  0  0  0  3  0  0  0  0  0  0
  -27.3230  -37.3210   24.7780 C   0  0  0  0  0  1  0  0  0  0  0  0
  -26.2710  -37.4100   23.7690 N   0  0  0  0  0  0  0  0  0  0  0  0
  -25.8340  -38.3250   23.8430 H   0  0  0  0  0  0  0  0  0  0  0  0
  -26.2990  -31.8190   25.4030 C   0  0  1  0  0  0  0  0  0  0  0  0
  -25.1470  -31.5700   26.4060 C   0  0  0  0  0  1  0  0  0  0  0  0
  -26.9740  -30.4600   25.1110 C   0  0  0  0  0  1  0  0  0  0  0  0
  -27.3640  -32.6960   26.1030 C   0  0  0  0  0  1  0  0  0  0  0  0
  1  2  1  0
  3  6  1  0
  4  8  1  0
  4  1  2  0
  5 10  1  0
  5  4  1  0
  5  3  2  0
  6  2  2  0
  6 49  1  0
  8  7  1  0
 10  9  1  0
 11 19  1  0
 12 17  1  0
 13 14  1  0
 13 12  1  0
 15 14  1  0
 15 24  1  0
 15 16  1  0
 17 11  1  0
 17 16  1  0
 18 11  2  0
 19 10  1  0
 19 20  1  0
 21 22  2  0
 22 41  1  0
 23 22  1  0
 23 26  1  0
 24 25  1  0
 24 21  1  0
 25 23  2  0
 26 27  1  0
 27 28  2  0
 29 32  1  0
 29 28  1  0
 30 29  2  0
 31 30  1  0
 31 26  2  0
 32 33  1  0
 33 38  2  0
 33 34  1  0
 34 35  2  0
 35 36  1  0
 36 40  1  0
 37 36  2  0
 38 37  1  0
 39 38  1  0
 41 42  1  0
 42 45  1  0
 42 44  1  0
 43 41  2  0
 46 47  1  0
 46 21  1  0
 46  7  1  0
 48 46  1  0
 50 49  1  0
 50 51  1  0
 51 52  2  0
 53 54  1  0
 53 51  1  0
 55 66  2  0
 56 54  1  0
 56 61  1  0
 57 65  1  0
 57 67  1  0
 58 64  1  0
 58 60  1  0
 59 65  1  0
 60 61  2  0
 60 59  1  0
 62 56  2  0
 63 62  1  0
 63 58  2  0
 64 57  1  0
 65 55  1  0
 67 69  2  0
 68 67  1  0
 70 68  1  0
 71 80  2  0
 71 76  1  0
 72 68  1  0
 72 76  1  0
 73 72  1  0
 74 75  1  0
 74 73  1  0
 75 71  1  0
 76 77  2  0
 77 78  1  0
 79 78  2  0
 80 79  1  0
 81 55  1  0
 81 82  1  0
 81 91  1  0
 82 85  1  0
 83 87  1  0
 83 82  1  0
 84 83  2  0
 87 86  1  0
 89 90  1  0
 89 87  1  0
 89 88  1  0
 91 94  1  1
 91 92  1  0
 93 91  1  0
M  ISO  4  11 100  19 100  53 101  54 101
M  END
>  <TORSDO>  (58) 
F 22

>  <SCORE>  (58) 
-10.794

>  <name>  (58) 
57

>  <ligand_id>  (58) 
57

>  <original_smiles>  (58) 
[H]C([H])=C([H])c1c([H])c([H])c(OC([H])([H])C(=O)C([H])([H])Oc2c([H])c([H])c3c(c2[H])C([H])([H])N(C(=O)C([H])(N([H])C(=O)C([H])(N([H])C([H])([H])[H])C([H])([H])[H])C(C([H])([H])[H])(C([H])([H])[H])C([H])([H])[H])C([H])(C(=O)N([H])C2([H])c4c([H])c([H])c([H])c([H])c4C([H])([H])C([H])([H])C2([H])[H])C3([H])[H])c([H])c1C([H])(N([H])C(=O)N1C([H])([H])C([H])([H])C([H])([H])C([H])(n2nc(-c3c([H])c([H])c(Oc4c([H])c([H])c(F)c([H])c4F)c([H])c3[H])c(C(=O)N([H])[H])c2N([H])[H])C1([H])[H])C([H])([H])[H]

>  <smiles>  (58) 
[H]C([H])=C([H])c1c([H])c([H])c(OC([H])([H])C(=O)C([H])([H])Oc2c([H])c([H])c3c(c2[H])C([H])([H])N(C(=O)C([H])(N([H])C(=O)C([H])(N([H])C([H])([H])[H])C([H])([H])[H])C(C([H])([H])[H])(C([H])([H])[H])C([H])([H])[H])C([H])(C(=O)N([H])C2([H])c4c([H])c([H])c([H])c([H])c4C([H])([H])C([H])([H])C2([H])[H])C3([H])[H])c([H])c1C([H])(N([H])C(=O)N1C([H])([H])C([H])([H])C([H])([H])C([H])(n2nc(-c3c([H])c([H])c(Oc4c([H])c([H])c(F)c([H])c4F)c([H])c3[H])c(C(=O)N([H])[H])c2N([H])[H])C1([H])[H])C([H])([H])[H]

$$$$
58:0:0
     RDKit          3D

 92100  0  0  1  0  0  0  0  0999 V2000
  -28.5310  -21.7690   20.9750 C   0  0  0  0  0  2  0  0  0  0  0  0
  -28.2520  -24.0980   19.6690 C   0  0  0  0  0  3  0  0  0  0  0  0
  -28.3690  -22.7280   19.7370 C   0  0  0  0  0  0  0  0  0  0  0  0
  -28.2400  -22.0160   18.4010 C   0  0  0  0  0  1  0  0  0  0  0  0
  -28.2660  -25.2450   20.7030 C   0  0  0  0  0  2  0  0  0  0  0  0
  -28.3320  -26.5890   20.1180 O   0  0  0  0  0  0  0  0  0  0  0  0
  -24.6000  -31.8740   23.2000 C   0  0  0  0  0  0  0  0  0  0  0  0
  -27.1810  -27.3700   20.1140 C   0  0  0  0  0  0  0  0  0  0  0  0
  -23.3700  -30.4750   21.5740 C   0  0  0  0  0  3  0  0  0  0  0  0
  -24.8020  -28.9300   20.1280 C   0  0  0  0  0  0  0  0  0  0  0  0
  -25.8990  -30.8200   21.3430 C   0  0  0  0  0  2  0  0  0  0  0  0
  -25.9740  -29.4440   20.6990 C   0  0  0  0  0  0  0  0  0  0  0  0
  -27.1690  -28.6760   20.6750 C   0  0  0  0  0  3  0  0  0  0  0  0
  -25.9850  -26.8840   19.5450 C   0  0  0  0  0  3  0  0  0  0  0  0
  -24.8040  -27.6500   19.5500 C   0  0  0  0  0  3  0  0  0  0  0  0
  -23.5630  -29.7980   20.1890 C   0  0  0  0  0  2  0  0  0  0  0  0
  -24.6430  -31.0700   22.0990 N   0  0  0  0  0  0  0  0  0  0  0  0
  -23.5240  -32.1520   23.7490 O   0  0  0  0  0  0  0  0  0  0  0  0
  -22.7310  -29.4540   22.5430 C   0  0  0  0  0  0  0  0  0  0  0  0
  -21.4060  -29.2650   22.4280 N   0  0  0  0  0  0  0  0  0  0  0  0
  -23.4230  -28.8320   23.3530 O   0  0  0  0  0  0  0  0  0  0  0  0
  -20.9080  -29.8130   21.7410 H   0  0  0  0  0  0  0  0  0  0  0  0
  -18.0450  -28.0620   22.9530 C   0  0  0  0  0  0  0  0  0  0  0  0
  -20.6020  -28.3250   23.2090 C   0  0  0  0  0  3  0  0  0  0  0  0
  -20.7060  -26.8940   22.6330 C   0  0  0  0  0  2  0  0  0  0  0  0
  -19.6080  -26.5780   21.6170 C   0  0  0  0  0  2  0  0  0  0  0  0
  -18.2240  -26.7210   22.2580 C   0  0  0  0  0  2  0  0  0  0  0  0
  -19.1640  -28.8230   23.3800 C   0  0  0  0  0  0  0  0  0  0  0  0
  -18.9490  -30.0840   23.9760 C   0  0  0  0  0  3  0  0  0  0  0  0
  -17.6460  -30.5840   24.1510 C   0  0  0  0  0  3  0  0  0  0  0  0
  -16.5400  -29.8180   23.7460 C   0  0  0  0  0  3  0  0  0  0  0  0
  -16.7400  -28.5590   23.1520 C   0  0  0  0  0  3  0  0  0  0  0  0
  -25.8940  -32.5030   23.8000 C   0  0  0  0  0  3  0  0  0  0  0  0
  -26.4430  -31.7240   25.0580 C   0  0  1  0  0  0  0  0  0  0  0  0
  -25.3760  -31.4760   26.1510 C   0  0  0  0  0  1  0  0  0  0  0  0
  -27.0180  -30.3520   24.6390 C   0  0  0  0  0  1  0  0  0  0  0  0
  -27.6050  -32.5120   25.7100 C   0  0  0  0  0  1  0  0  0  0  0  0
  -25.5890  -33.8970   24.1520 N   0  0  0  0  0  0  0  0  0  0  0  0
  -25.9110  -34.9600   23.4050 C   0  0  0  0  0  0  0  0  0  0  0  0
  -26.5720  -34.8740   22.3680 O   0  0  0  0  0  0  0  0  0  0  0  0
  -25.0070  -34.0390   24.9650 H   0  0  0  0  0  0  0  0  0  0  0  0
  -24.1800  -36.7580   23.0880 C   0  0  0  0  0  1  0  0  0  0  0  0
  -25.4230  -36.3430   23.8880 C   0  0  0  0  0  3  0  0  0  0  0  0
  -27.5600  -37.2110   24.7270 C   0  0  0  0  0  1  0  0  0  0  0  0
  -26.4530  -37.3970   23.7920 N   0  0  0  0  0  0  0  0  0  0  0  0
  -26.0480  -38.3120   23.9630 H   0  0  0  0  0  0  0  0  0  0  0  0
  -29.7540  -20.9640   21.1610 O   0  0  0  0  0  0  0  0  0  0  0  0
  -30.8430  -18.5770   18.5530 C   0  0  0  0  0  3  0  0  0  0  0  0
  -30.5440  -19.7560   19.2470 C   0  0  0  0  0  3  0  0  0  0  0  0
  -29.8840  -18.4350   21.1700 C   0  0  0  0  0  3  0  0  0  0  0  0
  -30.6670  -17.3100   19.1420 C   0  0  0  0  0  0  0  0  0  0  0  0
  -30.2530  -17.2020   20.5040 C   0  0  0  0  0  0  0  0  0  0  0  0
  -29.9870  -19.7280   20.5340 C   0  0  0  0  0  0  0  0  0  0  0  0
  -30.8600  -16.1090   18.2270 C   0  0  0  0  0  1  0  0  0  0  0  0
  -30.9150  -14.7710   20.9900 C   0  0  0  0  0  0  0  0  0  0  0  0
  -30.8020  -12.4800   20.0520 C   0  0  0  0  0  2  0  0  0  0  0  0
  -29.9890  -12.4750   18.7380 C   0  0  0  0  0  2  0  0  0  0  0  0
  -28.4760  -12.3650   19.0190 C   0  0  0  0  0  2  0  0  0  0  0  0
  -27.9890  -13.3150   20.1440 C   0  0  0  0  0  3  0  0  0  0  0  0
  -28.9220  -13.2570   21.3730 C   0  0  0  0  0  2  0  0  0  0  0  0
  -30.2870  -13.5560   20.9200 N   0  0  0  0  0  0  0  0  0  0  0  0
  -32.1220  -14.8770   20.7460 O   0  0  0  0  0  0  0  0  0  0  0  0
  -30.1240  -15.8840   21.1420 N   0  0  0  0  0  0  0  0  0  0  0  0
  -29.2400  -15.7140   21.5990 H   0  0  0  0  0  0  0  0  0  0  0  0
  -25.5410  -13.9270   20.6430 C   0  0  0  0  0  0  0  0  0  0  0  0
  -24.4440  -13.1620   20.9280 C   0  0  0  0  0  0  0  0  0  0  0  0
  -24.9080  -11.8100   20.9720 C   0  0  0  0  0  0  0  0  0  0  0  0
  -26.6000  -13.0440   20.5130 N   0  0  0  0  0  0  0  0  0  0  0  0
  -26.2190  -11.7680   20.7850 N   0  0  0  0  0  0  0  0  0  0  0  0
  -24.1690  -10.5520   21.1340 C   0  0  0  0  0  0  0  0  0  0  0  0
  -24.5370   -9.5990   22.1100 C   0  0  0  0  0  3  0  0  0  0  0  0
  -23.7980   -8.4060   22.2590 C   0  0  0  0  0  3  0  0  0  0  0  0
  -22.6810   -8.1560   21.4270 C   0  0  0  0  0  0  0  0  0  0  0  0
  -22.3330   -9.0970   20.4410 C   0  0  0  0  0  3  0  0  0  0  0  0
  -23.0720  -10.2820   20.2910 C   0  0  0  0  0  3  0  0  0  0  0  0
  -21.9230   -7.0110   21.4760 O   0  0  0  0  0  0  0  0  0  0  0  0
  -21.8080   -6.2730   22.6270 C   0  0  0  0  0  0  0  0  0  0  0  0
  -21.3230   -6.8370   23.8250 C   0  0  0  0  0  3  0  0  0  0  0  0
  -21.1520   -6.0260   24.9650 C   0  0  0  0  0  3  0  0  0  0  0  0
  -21.4580   -4.6530   24.9050 C   0  0  0  0  0  0  0  0  0  0  0  0
  -21.9400   -4.0910   23.7120 C   0  0  0  0  0  3  0  0  0  0  0  0
  -22.1120   -4.8980   22.5740 C   0  0  0  0  0  0  0  0  0  0  0  0
  -22.5570   -4.3460   21.4190 F   0  0  0  0  0  0  0  0  0  0  0  0
  -21.2900   -3.8740   26.0000 F   0  0  0  0  0  0  0  0  0  0  0  0
  -23.0260  -13.6400   21.0610 C   0  0  0  0  0  0  0  0  0  0  0  0
  -22.2260  -12.9650   21.8800 N   0  0  0  0  0  0  0  0  0  0  0  0
  -22.6340  -14.6460   20.4720 O   0  0  0  0  0  0  0  0  0  0  0  0
  -22.5560  -12.1430   22.3640 H   0  0  0  0  0  0  0  0  0  0  0  0
  -21.2750  -13.2750   22.0280 H   0  0  0  0  0  0  0  0  0  0  0  0
  -25.7230  -15.2970   20.4610 N   0  0  0  0  0  0  0  0  0  0  0  0
  -24.9590  -15.9560   20.5440 H   0  0  0  0  0  0  0  0  0  0  0  0
  -26.5970  -15.7400   20.2150 H   0  0  0  0  0  0  0  0  0  0  0  0
  1 47  1  0
  2  3  2  0
  2  5  1  0
  3  1  1  0
  4  3  1  0
  6  5  1  0
  7 18  2  0
  8  6  1  0
  8 13  1  0
  9 17  1  0
  9 19  1  0
 10 16  1  0
 10 12  1  0
 11 17  1  0
 12 11  1  0
 13 12  2  0
 14 15  1  0
 14  8  2  0
 15 10  2  0
 16  9  1  0
 17  7  1  0
 19 21  2  0
 20 19  1  0
 22 20  1  0
 23 32  2  0
 23 28  1  0
 24 20  1  0
 24 28  1  0
 25 24  1  0
 26 27  1  0
 26 25  1  0
 27 23  1  0
 28 29  2  0
 29 30  1  0
 31 30  2  0
 32 31  1  0
 33  7  1  0
 33 38  1  0
 33 34  1  0
 34 37  1  1
 34 35  1  0
 36 34  1  0
 38 41  1  0
 39 43  1  0
 39 38  1  0
 40 39  2  0
 43 42  1  0
 45 43  1  0
 45 46  1  0
 45 44  1  0
 48 51  2  0
 48 49  1  0
 49 53  2  0
 51 52  1  0
 52 63  1  0
 52 50  2  0
 53 47  1  0
 53 50  1  0
 54 51  1  0
 55 63  1  0
 56 61  1  0
 57 58  1  0
 57 56  1  0
 59 58  1  0
 59 68  1  0
 59 60  1  0
 61 55  1  0
 61 60  1  0
 62 55  2  0
 63 64  1  0
 65 66  2  0
 66 67  1  0
 66 85  1  0
 67 70  1  0
 68 65  1  0
 68 69  1  0
 69 67  2  0
 70 71  1  0
 71 72  2  0
 73 76  1  0
 73 72  1  0
 74 73  2  0
 75 74  1  0
 75 70  2  0
 76 77  1  0
 77 78  1  0
 78 79  2  0
 80 79  1  0
 80 84  1  0
 81 80  2  0
 82 77  2  0
 82 81  1  0
 83 82  1  0
 85 86  1  0
 86 89  1  0
 86 88  1  0
 87 85  2  0
 90 91  1  0
 90 65  1  0
 92 90  1  0
M  ISO  4   5 101   6 101  55 100  63 100
M  END
>  <TORSDO>  (59) 
F 20

>  <SCORE>  (59) 
-13.431

>  <name>  (59) 
58

>  <ligand_id>  (59) 
58

>  <original_smiles>  (59) 
[H]C(=C(C([H])([H])[H])C([H])([H])Oc1c([H])c([H])c(C([H])([H])[H])c(N([H])C(=O)N2C([H])([H])C([H])([H])C([H])([H])C([H])(n3nc(-c4c([H])c([H])c(Oc5c([H])c([H])c(F)c([H])c5F)c([H])c4[H])c(C(=O)N([H])[H])c3N([H])[H])C2([H])[H])c1[H])C([H])([H])Oc1c([H])c([H])c2c(c1[H])C([H])([H])N(C(=O)C([H])(N([H])C(=O)C([H])(N([H])C([H])([H])[H])C([H])([H])[H])C(C([H])([H])[H])(C([H])([H])[H])C([H])([H])[H])C([H])(C(=O)N([H])C1([H])c3c([H])c([H])c([H])c([H])c3C([H])([H])C([H])([H])C1([H])[H])C2([H])[H]

>  <smiles>  (59) 
[H]C(=C(C([H])([H])[H])C([H])([H])Oc1c([H])c([H])c(C([H])([H])[H])c(N([H])C(=O)N2C([H])([H])C([H])([H])C([H])([H])C([H])(n3nc(-c4c([H])c([H])c(Oc5c([H])c([H])c(F)c([H])c5F)c([H])c4[H])c(C(=O)N([H])[H])c3N([H])[H])C2([H])[H])c1[H])C([H])([H])Oc1c([H])c([H])c2c(c1[H])C([H])([H])N(C(=O)C([H])(N([H])C(=O)C([H])(N([H])C([H])([H])[H])C([H])([H])[H])C(C([H])([H])[H])(C([H])([H])[H])C([H])([H])[H])C([H])(C(=O)N([H])C1([H])c3c([H])c([H])c([H])c([H])c3C([H])([H])C([H])([H])C1([H])[H])C2([H])[H]

$$$$
59:0:0
     RDKit          3D

 94102  0  0  1  0  0  0  0  0999 V2000
  -29.6830  -19.0590   18.9250 C   0  0  0  0  0  3  0  0  0  0  0  0
  -30.5340  -19.9760   19.5520 C   0  0  0  0  0  3  0  0  0  0  0  0
  -31.3390  -18.2100   21.0120 C   0  0  0  0  0  3  0  0  0  0  0  0
  -30.4680  -17.2630   20.4100 C   0  0  0  0  0  0  0  0  0  0  0  0
  -29.6220  -17.7090   19.3440 C   0  0  0  0  0  0  0  0  0  0  0  0
  -31.3650  -19.5630   20.6090 C   0  0  0  0  0  0  0  0  0  0  0  0
  -30.3890  -15.8930   21.0250 C   0  0  0  0  0  0  0  0  0  0  0  0
  -29.8080  -15.7820   22.1460 N   0  0  0  0  0  0  0  0  0  0  0  0
  -29.4440  -16.6760   22.4530 H   0  0  0  0  0  0  0  0  0  0  0  0
  -31.0870  -14.7300   20.2670 C   0  0  0  0  0  0  0  0  0  0  0  0
  -30.7290  -12.6740   18.9490 C   0  0  0  0  0  2  0  0  0  0  0  0
  -29.7440  -12.9910   17.7990 C   0  0  0  0  0  2  0  0  0  0  0  0
  -28.2670  -12.9120   18.2510 C   0  0  0  0  0  2  0  0  0  0  0  0
  -28.0090  -13.5750   19.6280 C   0  0  0  0  0  3  0  0  0  0  0  0
  -29.0920  -13.1580   20.6400 C   0  0  0  0  0  2  0  0  0  0  0  0
  -30.4020  -13.5540   20.0890 N   0  0  0  0  0  0  0  0  0  0  0  0
  -32.1920  -14.9280   19.7470 O   0  0  0  0  0  0  0  0  0  0  0  0
  -25.6220  -14.1970   20.3590 C   0  0  0  0  0  0  0  0  0  0  0  0
  -24.5540  -13.4280   20.7360 C   0  0  0  0  0  0  0  0  0  0  0  0
  -25.0110  -12.0750   20.6910 C   0  0  0  0  0  0  0  0  0  0  0  0
  -26.6630  -13.3090   20.1190 N   0  0  0  0  0  0  0  0  0  0  0  0
  -26.2970  -12.0280   20.3680 N   0  0  0  0  0  0  0  0  0  0  0  0
  -24.2820  -10.8170   20.8790 C   0  0  0  0  0  0  0  0  0  0  0  0
  -24.6890   -9.8670   21.8410 C   0  0  0  0  0  3  0  0  0  0  0  0
  -23.9590   -8.6720   22.0170 C   0  0  0  0  0  3  0  0  0  0  0  0
  -22.8120   -8.4190   21.2280 C   0  0  0  0  0  0  0  0  0  0  0  0
  -22.4270   -9.3560   20.2540 C   0  0  0  0  0  3  0  0  0  0  0  0
  -23.1560  -10.5440   20.0770 C   0  0  0  0  0  3  0  0  0  0  0  0
  -22.0600   -7.2720   21.3110 O   0  0  0  0  0  0  0  0  0  0  0  0
  -21.9270   -6.5810   22.4900 C   0  0  0  0  0  0  0  0  0  0  0  0
  -21.3880   -7.1820   23.6490 C   0  0  0  0  0  3  0  0  0  0  0  0
  -21.2050   -6.4190   24.8190 C   0  0  0  0  0  3  0  0  0  0  0  0
  -21.5470   -5.0530   24.8290 C   0  0  0  0  0  0  0  0  0  0  0  0
  -22.0770   -4.4500   23.6740 C   0  0  0  0  0  3  0  0  0  0  0  0
  -22.2640   -5.2110   22.5080 C   0  0  0  0  0  0  0  0  0  0  0  0
  -22.7520   -4.6190   21.3920 F   0  0  0  0  0  0  0  0  0  0  0  0
  -21.3650   -4.3190   25.9510 F   0  0  0  0  0  0  0  0  0  0  0  0
  -23.1630  -13.9100   21.0320 C   0  0  0  0  0  0  0  0  0  0  0  0
  -22.4430  -13.2160   21.9060 N   0  0  0  0  0  0  0  0  0  0  0  0
  -22.7240  -14.9420   20.5250 O   0  0  0  0  0  0  0  0  0  0  0  0
  -22.8080  -12.3800   22.3380 H   0  0  0  0  0  0  0  0  0  0  0  0
  -21.5130  -13.5260   22.1520 H   0  0  0  0  0  0  0  0  0  0  0  0
  -25.7910  -15.5670   20.1820 N   0  0  0  0  0  0  0  0  0  0  0  0
  -25.0210  -16.2260   20.2510 H   0  0  0  0  0  0  0  0  0  0  0  0
  -26.6750  -16.0120   19.9770 H   0  0  0  0  0  0  0  0  0  0  0  0
  -27.7720  -17.3800   17.5270 C   0  0  0  0  0  1  0  0  0  0  0  0
  -28.5940  -16.7920   18.6890 C   0  0  0  0  0  2  0  0  0  0  0  0
  -32.1820  -20.4500   21.2740 O   0  0  0  0  0  0  0  0  0  0  0  0
  -31.5480  -21.6530   21.7190 C   0  0  0  0  0  2  0  0  0  0  0  0
  -31.7140  -22.8510   20.7520 C   0  0  0  0  0  2  0  0  0  0  0  0
  -30.3840  -23.5350   20.4650 C   0  0  0  0  0  3  0  0  0  0  0  0
  -30.2030  -24.8240   20.1320 C   0  0  0  0  0  3  0  0  0  0  0  0
  -28.8400  -25.4300   19.8550 C   0  0  0  0  0  2  0  0  0  0  0  0
  -28.7670  -26.7800   20.3040 O   0  0  0  0  0  0  0  0  0  0  0  0
  -24.7010  -31.7740   23.2690 C   0  0  0  0  0  0  0  0  0  0  0  0
  -27.5490  -27.4230   20.2530 C   0  0  0  0  0  0  0  0  0  0  0  0
  -23.5730  -30.3350   21.6030 C   0  0  0  0  0  3  0  0  0  0  0  0
  -25.1000  -28.8400   20.2160 C   0  0  0  0  0  0  0  0  0  0  0  0
  -26.0900  -30.7730   21.4590 C   0  0  0  0  0  2  0  0  0  0  0  0
  -26.2280  -29.4060   20.8210 C   0  0  0  0  0  0  0  0  0  0  0  0
  -27.4550  -28.7080   20.8300 C   0  0  0  0  0  3  0  0  0  0  0  0
  -26.3950  -26.8620   19.6520 C   0  0  0  0  0  3  0  0  0  0  0  0
  -25.1780  -27.5670   19.6280 C   0  0  0  0  0  3  0  0  0  0  0  0
  -23.8320  -29.6620   20.2290 C   0  0  0  0  0  2  0  0  0  0  0  0
  -24.8040  -30.9770   22.1680 N   0  0  0  0  0  0  0  0  0  0  0  0
  -23.6000  -32.0140   23.7840 O   0  0  0  0  0  0  0  0  0  0  0  0
  -22.9300  -29.2970   22.5500 C   0  0  0  0  0  0  0  0  0  0  0  0
  -21.6200  -29.0590   22.3760 N   0  0  0  0  0  0  0  0  0  0  0  0
  -23.6080  -28.7080   23.3950 O   0  0  0  0  0  0  0  0  0  0  0  0
  -21.1360  -29.5890   21.6660 H   0  0  0  0  0  0  0  0  0  0  0  0
  -18.2830  -27.7200   22.7450 C   0  0  0  0  0  0  0  0  0  0  0  0
  -20.8130  -28.0960   23.1230 C   0  0  0  0  0  3  0  0  0  0  0  0
  -21.0040  -26.6630   22.5760 C   0  0  0  0  0  2  0  0  0  0  0  0
  -19.9630  -26.2750   21.5220 C   0  0  0  0  0  2  0  0  0  0  0  0
  -18.5500  -26.3690   22.1020 C   0  0  0  0  0  2  0  0  0  0  0  0
  -19.3470  -28.5380   23.2110 C   0  0  0  0  0  0  0  0  0  0  0  0
  -19.0470  -29.7990   23.7700 C   0  0  0  0  0  3  0  0  0  0  0  0
  -17.7150  -30.2440   23.8690 C   0  0  0  0  0  3  0  0  0  0  0  0
  -16.6650  -29.4240   23.4190 C   0  0  0  0  0  3  0  0  0  0  0  0
  -16.9500  -28.1630   22.8640 C   0  0  0  0  0  3  0  0  0  0  0  0
  -25.9530  -32.4410   23.9180 C   0  0  0  0  0  3  0  0  0  0  0  0
  -25.6040  -33.8370   24.2150 N   0  0  0  0  0  0  0  0  0  0  0  0
  -25.9290  -34.8820   23.4420 C   0  0  0  0  0  0  0  0  0  0  0  0
  -26.6230  -34.7760   22.4270 O   0  0  0  0  0  0  0  0  0  0  0  0
  -24.9880  -33.9930   24.9980 H   0  0  0  0  0  0  0  0  0  0  0  0
  -24.1610  -36.6220   23.0220 C   0  0  0  0  0  1  0  0  0  0  0  0
  -25.4000  -36.2680   23.8610 C   0  0  0  0  0  3  0  0  0  0  0  0
  -27.4950  -37.2270   24.7080 C   0  0  0  0  0  1  0  0  0  0  0  0
  -26.4070  -37.3440   23.7410 N   0  0  0  0  0  0  0  0  0  0  0  0
  -25.9750  -38.2570   23.8550 H   0  0  0  0  0  0  0  0  0  0  0  0
  -26.4510  -31.7010   25.2190 C   0  0  1  0  0  0  0  0  0  0  0  0
  -25.3340  -31.4510   26.2590 C   0  0  0  0  0  1  0  0  0  0  0  0
  -27.0760  -30.3310   24.8620 C   0  0  0  0  0  1  0  0  0  0  0  0
  -27.5620  -32.5320   25.9040 C   0  0  0  0  0  1  0  0  0  0  0  0
  1  5  2  0
  1  2  1  0
  2  6  2  0
  4  3  2  0
  4  7  1  0
  5  4  1  0
  6  3  1  0
  6 48  1  0
  7  8  2  0
  8  9  1  0
 10  7  1  0
 11 16  1  0
 12 13  1  0
 12 11  1  0
 14 13  1  0
 14 21  1  0
 14 15  1  0
 16 10  1  0
 16 15  1  0
 17 10  2  0
 18 19  2  0
 19 38  1  0
 20 19  1  0
 20 23  1  0
 21 18  1  0
 21 22  1  0
 22 20  2  0
 23 24  1  0
 24 25  2  0
 26 29  1  0
 26 25  1  0
 27 26  2  0
 28 27  1  0
 28 23  2  0
 29 30  1  0
 30 35  2  0
 30 31  1  0
 31 32  2  0
 32 33  1  0
 33 37  1  0
 34 33  2  0
 35 34  1  0
 36 35  1  0
 38 39  1  0
 39 42  1  0
 39 41  1  0
 40 38  2  0
 43 44  1  0
 43 18  1  0
 45 43  1  0
 46 47  1  0
 47  5  1  0
 48 49  1  0
 50 49  1  0
 51 50  1  0
 52 51  2  0
 53 52  1  0
 53 54  1  0
 55 66  2  0
 56 54  1  0
 56 61  1  0
 57 65  1  0
 57 67  1  0
 58 64  1  0
 58 60  1  0
 59 65  1  0
 60 61  2  0
 60 59  1  0
 62 56  2  0
 63 62  1  0
 63 58  2  0
 64 57  1  0
 65 55  1  0
 67 69  2  0
 68 67  1  0
 70 68  1  0
 71 80  2  0
 71 76  1  0
 72 68  1  0
 72 76  1  0
 73 72  1  0
 74 75  1  0
 74 73  1  0
 75 71  1  0
 76 77  2  0
 77 78  1  0
 79 78  2  0
 80 79  1  0
 81 55  1  0
 81 82  1  0
 81 91  1  0
 82 85  1  0
 83 87  1  0
 83 82  1  0
 84 83  2  0
 87 86  1  0
 89 90  1  0
 89 87  1  0
 89 88  1  0
 91 94  1  1
 91 92  1  0
 93 91  1  0
M  ISO  4   7 100  10 100  53 101  54 101
M  END
>  <TORSDO>  (60) 
F 23

>  <SCORE>  (60) 
-11.149

>  <name>  (60) 
59

>  <ligand_id>  (60) 
59

>  <original_smiles>  (60) 
[H]N=C(C(=O)N1C([H])([H])C([H])([H])C([H])([H])C([H])(n2nc(-c3c([H])c([H])c(Oc4c([H])c([H])c(F)c([H])c4F)c([H])c3[H])c(C(=O)N([H])[H])c2N([H])[H])C1([H])[H])c1c([H])c(OC([H])([H])C([H])([H])C([H])=C([H])C([H])([H])Oc2c([H])c([H])c3c(c2[H])C([H])([H])N(C(=O)C([H])(N([H])C(=O)C([H])(N([H])C([H])([H])[H])C([H])([H])[H])C(C([H])([H])[H])(C([H])([H])[H])C([H])([H])[H])C([H])(C(=O)N([H])C2([H])c4c([H])c([H])c([H])c([H])c4C([H])([H])C([H])([H])C2([H])[H])C3([H])[H])c([H])c([H])c1C([H])([H])C([H])([H])[H]

>  <smiles>  (60) 
[H]N=C(C(=O)N1C([H])([H])C([H])([H])C([H])([H])C([H])(n2nc(-c3c([H])c([H])c(Oc4c([H])c([H])c(F)c([H])c4F)c([H])c3[H])c(C(=O)N([H])[H])c2N([H])[H])C1([H])[H])c1c([H])c(OC([H])([H])C([H])([H])C([H])=C([H])C([H])([H])Oc2c([H])c([H])c3c(c2[H])C([H])([H])N(C(=O)C([H])(N([H])C(=O)C([H])(N([H])C([H])([H])[H])C([H])([H])[H])C(C([H])([H])[H])(C([H])([H])[H])C([H])([H])[H])C([H])(C(=O)N([H])C2([H])c4c([H])c([H])c([H])c([H])c4C([H])([H])C([H])([H])C2([H])[H])C3([H])[H])c([H])c([H])c1C([H])([H])C([H])([H])[H]

$$$$
60:0:0
     RDKit          3D

 94102  0  0  1  0  0  0  0  0999 V2000
  -32.5160  -18.2460   21.2180 C   0  0  0  0  0  3  0  0  0  0  0  0
  -29.8760  -19.1840   21.1780 C   0  0  0  0  0  3  0  0  0  0  0  0
  -32.2800  -19.6380   21.1810 C   0  0  0  0  0  0  0  0  0  0  0  0
  -31.4540  -17.3210   21.2770 C   0  0  0  0  0  0  0  0  0  0  0  0
  -30.1190  -17.7940   21.2320 C   0  0  0  0  0  0  0  0  0  0  0  0
  -30.9450  -20.1070   21.1780 C   0  0  0  0  0  0  0  0  0  0  0  0
  -28.9320  -16.8440   21.2870 C   0  0  0  0  0  1  0  0  0  0  0  0
  -34.6970  -20.3190   20.9600 C   0  0  0  0  0  2  0  0  0  0  0  0
  -33.3960  -20.6060   21.1360 C   0  0  0  0  0  3  0  0  0  0  0  0
  -31.7970  -15.8470   21.4750 C   0  0  0  0  0  2  0  0  0  0  0  0
  -31.0180  -14.2800   19.7010 C   0  0  0  0  0  0  0  0  0  0  0  0
  -30.4200  -12.2320   18.4580 C   0  0  0  0  0  2  0  0  0  0  0  0
  -29.3600  -12.4720   17.3700 C   0  0  0  0  0  2  0  0  0  0  0  0
  -27.9410  -12.3800   17.9610 C   0  0  0  0  0  2  0  0  0  0  0  0
  -27.7750  -13.2460   19.2360 C   0  0  0  0  0  3  0  0  0  0  0  0
  -28.9230  -12.9810   20.2330 C   0  0  0  0  0  2  0  0  0  0  0  0
  -30.2090  -13.2010   19.5420 N   0  0  0  0  0  0  0  0  0  0  0  0
  -31.9210  -14.5790   18.9120 O   0  0  0  0  0  0  0  0  0  0  0  0
  -30.8610  -14.9060   20.8710 N   0  0  0  0  0  0  0  0  0  0  0  0
  -30.1240  -14.5570   21.4630 H   0  0  0  0  0  0  0  0  0  0  0  0
  -25.5330  -13.9700   20.2780 C   0  0  0  0  0  0  0  0  0  0  0  0
  -24.4550  -13.2500   20.7180 C   0  0  0  0  0  0  0  0  0  0  0  0
  -24.7960  -11.8760   20.5300 C   0  0  0  0  0  0  0  0  0  0  0  0
  -26.4680  -13.0370   19.8550 N   0  0  0  0  0  0  0  0  0  0  0  0
  -26.0320  -11.7680   20.0610 N   0  0  0  0  0  0  0  0  0  0  0  0
  -23.9950  -10.6590   20.7160 C   0  0  0  0  0  0  0  0  0  0  0  0
  -24.3790   -9.6540   21.6330 C   0  0  0  0  0  3  0  0  0  0  0  0
  -23.5830   -8.5020   21.8060 C   0  0  0  0  0  3  0  0  0  0  0  0
  -22.3900   -8.3440   21.0630 C   0  0  0  0  0  0  0  0  0  0  0  0
  -22.0240   -9.3360   20.1350 C   0  0  0  0  0  3  0  0  0  0  0  0
  -22.8200  -10.4810   19.9590 C   0  0  0  0  0  3  0  0  0  0  0  0
  -21.5680   -7.2470   21.1450 O   0  0  0  0  0  0  0  0  0  0  0  0
  -21.3800   -6.5760   22.3270 C   0  0  0  0  0  0  0  0  0  0  0  0
  -20.8590   -7.2160   23.4740 C   0  0  0  0  0  3  0  0  0  0  0  0
  -20.6180   -6.4730   24.6450 C   0  0  0  0  0  3  0  0  0  0  0  0
  -20.8850   -5.0910   24.6730 C   0  0  0  0  0  0  0  0  0  0  0  0
  -21.3990   -4.4520   23.5320 C   0  0  0  0  0  3  0  0  0  0  0  0
  -21.6430   -5.1920   22.3610 C   0  0  0  0  0  0  0  0  0  0  0  0
  -22.1180   -4.5660   21.2570 F   0  0  0  0  0  0  0  0  0  0  0  0
  -20.6460   -4.3760   25.7970 F   0  0  0  0  0  0  0  0  0  0  0  0
  -23.1440  -13.8040   21.1990 C   0  0  0  0  0  0  0  0  0  0  0  0
  -22.4790  -13.1020   22.1110 N   0  0  0  0  0  0  0  0  0  0  0  0
  -22.7250  -14.8900   20.8030 O   0  0  0  0  0  0  0  0  0  0  0  0
  -22.8340  -12.2210   22.4520 H   0  0  0  0  0  0  0  0  0  0  0  0
  -21.6040  -13.4530   22.4740 H   0  0  0  0  0  0  0  0  0  0  0  0
  -25.7910  -15.3350   20.1830 N   0  0  0  0  0  0  0  0  0  0  0  0
  -25.1030  -16.0360   20.4350 H   0  0  0  0  0  0  0  0  0  0  0  0
  -26.6380  -15.7320   19.7970 H   0  0  0  0  0  0  0  0  0  0  0  0
  -30.7130  -21.4560   21.2860 O   0  0  0  0  0  0  0  0  0  0  0  0
  -29.7830  -22.0370   20.3830 C   0  0  0  0  0  2  0  0  0  0  0  0
  -29.4900  -23.4480   20.9200 C   0  0  0  0  0  2  0  0  0  0  0  0
  -28.7560  -24.3740   19.9350 C   0  0  0  0  0  2  0  0  0  0  0  0
  -28.5910  -25.7980   20.4940 C   0  0  0  0  0  2  0  0  0  0  0  0
  -28.2690  -26.6920   19.4370 O   0  0  0  0  0  0  0  0  0  0  0  0
  -24.4690  -31.5610   22.9970 C   0  0  0  0  0  0  0  0  0  0  0  0
  -27.0920  -27.3760   19.5850 C   0  0  0  0  0  0  0  0  0  0  0  0
  -23.2390  -30.2520   21.2930 C   0  0  0  0  0  3  0  0  0  0  0  0
  -24.6780  -28.8180   19.7490 C   0  0  0  0  0  0  0  0  0  0  0  0
  -25.7520  -30.6560   21.0640 C   0  0  0  0  0  2  0  0  0  0  0  0
  -25.8390  -29.3270   20.3460 C   0  0  0  0  0  0  0  0  0  0  0  0
  -27.0510  -28.6090   20.2680 C   0  0  0  0  0  3  0  0  0  0  0  0
  -25.9210  -26.8700   18.9890 C   0  0  0  0  0  3  0  0  0  0  0  0
  -24.7100  -27.5840   19.0730 C   0  0  0  0  0  3  0  0  0  0  0  0
  -23.4260  -29.6580   19.8710 C   0  0  0  0  0  2  0  0  0  0  0  0
  -24.5070  -30.8330   21.8450 N   0  0  0  0  0  0  0  0  0  0  0  0
  -23.3980  -31.7880   23.5760 O   0  0  0  0  0  0  0  0  0  0  0  0
  -22.6180  -29.1670   22.2000 C   0  0  0  0  0  0  0  0  0  0  0  0
  -21.2900  -28.9950   22.1030 N   0  0  0  0  0  0  0  0  0  0  0  0
  -23.3260  -28.4840   22.9460 O   0  0  0  0  0  0  0  0  0  0  0  0
  -20.7800  -29.6010   21.4730 H   0  0  0  0  0  0  0  0  0  0  0  0
  -17.9280  -27.7870   22.6340 C   0  0  0  0  0  0  0  0  0  0  0  0
  -20.4950  -28.0070   22.8290 C   0  0  0  0  0  3  0  0  0  0  0  0
  -20.5650  -26.6220   22.1420 C   0  0  0  0  0  2  0  0  0  0  0  0
  -19.4230  -26.3860   21.1500 C   0  0  0  0  0  2  0  0  0  0  0  0
  -18.0680  -26.4900   21.8540 C   0  0  0  0  0  2  0  0  0  0  0  0
  -19.0690  -28.5070   23.0790 C   0  0  0  0  0  0  0  0  0  0  0  0
  -18.8850  -29.7240   23.7700 C   0  0  0  0  0  3  0  0  0  0  0  0
  -17.5920  -30.2220   24.0190 C   0  0  0  0  0  3  0  0  0  0  0  0
  -16.4660  -29.4970   23.5910 C   0  0  0  0  0  3  0  0  0  0  0  0
  -16.6350  -28.2820   22.9050 C   0  0  0  0  0  3  0  0  0  0  0  0
  -25.7640  -32.1620   23.6270 C   0  0  0  0  0  3  0  0  0  0  0  0
  -25.4640  -33.5470   24.0180 N   0  0  0  0  0  0  0  0  0  0  0  0
  -25.8060  -34.6280   23.3050 C   0  0  0  0  0  0  0  0  0  0  0  0
  -26.4770  -34.5640   22.2710 O   0  0  0  0  0  0  0  0  0  0  0  0
  -24.8700  -33.6710   24.8250 H   0  0  0  0  0  0  0  0  0  0  0  0
  -24.0850  -36.4390   23.0220 C   0  0  0  0  0  1  0  0  0  0  0  0
  -25.3240  -35.9980   23.8170 C   0  0  0  0  0  3  0  0  0  0  0  0
  -27.4580  -36.8400   24.6920 C   0  0  0  0  0  1  0  0  0  0  0  0
  -26.3590  -37.0520   23.7530 N   0  0  0  0  0  0  0  0  0  0  0  0
  -25.9540  -37.9640   23.9430 H   0  0  0  0  0  0  0  0  0  0  0  0
  -26.2970  -31.3350   24.8610 C   0  0  1  0  0  0  0  0  0  0  0  0
  -25.2180  -31.0530   25.9330 C   0  0  0  0  0  1  0  0  0  0  0  0
  -26.8710  -29.9760   24.4000 C   0  0  0  0  0  1  0  0  0  0  0  0
  -27.4590  -32.0970   25.5400 C   0  0  0  0  0  1  0  0  0  0  0  0
  1  4  1  0
  2  6  2  0
  2  5  1  0
  3  1  2  0
  4 10  1  0
  5  4  2  0
  5  7  1  0
  6  3  1  0
  6 49  1  0
  8  9  2  0
  9  3  1  0
 11 19  1  0
 12 17  1  0
 13 14  1  0
 13 12  1  0
 15 14  1  0
 15 24  1  0
 15 16  1  0
 17 11  1  0
 17 16  1  0
 18 11  2  0
 19 20  1  0
 19 10  1  0
 21 22  2  0
 22 41  1  0
 23 26  1  0
 23 22  1  0
 24 25  1  0
 24 21  1  0
 25 23  2  0
 26 27  1  0
 27 28  2  0
 29 32  1  0
 29 28  1  0
 30 29  2  0
 31 30  1  0
 31 26  2  0
 32 33  1  0
 33 38  2  0
 33 34  1  0
 34 35  2  0
 35 36  1  0
 36 40  1  0
 37 36  2  0
 38 37  1  0
 39 38  1  0
 41 42  1  0
 42 44  1  0
 42 45  1  0
 43 41  2  0
 46 21  1  0
 46 47  1  0
 48 46  1  0
 50 51  1  0
 50 49  1  0
 52 53  1  0
 52 51  1  0
 54 56  1  0
 54 53  1  0
 55 66  2  0
 56 61  1  0
 57 65  1  0
 57 67  1  0
 58 64  1  0
 58 60  1  0
 59 65  1  0
 60 59  1  0
 61 60  2  0
 62 63  1  0
 62 56  2  0
 63 58  2  0
 64 57  1  0
 65 55  1  0
 67 69  2  0
 68 67  1  0
 70 68  1  0
 71 80  2  0
 71 76  1  0
 72 68  1  0
 72 76  1  0
 73 72  1  0
 74 75  1  0
 74 73  1  0
 75 71  1  0
 76 77  2  0
 77 78  1  0
 79 78  2  0
 80 79  1  0
 81 55  1  0
 81 82  1  0
 81 91  1  0
 82 85  1  0
 83 87  1  0
 83 82  1  0
 84 83  2  0
 87 86  1  0
 89 87  1  0
 89 90  1  0
 89 88  1  0
 91 94  1  1
 91 92  1  0
 93 91  1  0
M  ISO  4  11 100  19 100  53 101  54 101
M  END
>  <TORSDO>  (61) 
F 23

>  <SCORE>  (61) 
-10.873

>  <name>  (61) 
60

>  <ligand_id>  (61) 
60

>  <original_smiles>  (61) 
[H]C([H])=C([H])c1c([H])c(C([H])([H])N([H])C(=O)N2C([H])([H])C([H])([H])C([H])([H])C([H])(n3nc(-c4c([H])c([H])c(Oc5c([H])c([H])c(F)c([H])c5F)c([H])c4[H])c(C(=O)N([H])[H])c3N([H])[H])C2([H])[H])c(C([H])([H])[H])c([H])c1OC([H])([H])C([H])([H])C([H])([H])C([H])([H])Oc1c([H])c([H])c2c(c1[H])C([H])([H])N(C(=O)C([H])(N([H])C(=O)C([H])(N([H])C([H])([H])[H])C([H])([H])[H])C(C([H])([H])[H])(C([H])([H])[H])C([H])([H])[H])C([H])(C(=O)N([H])C1([H])c3c([H])c([H])c([H])c([H])c3C([H])([H])C([H])([H])C1([H])[H])C2([H])[H]

>  <smiles>  (61) 
[H]C([H])=C([H])c1c([H])c(C([H])([H])N([H])C(=O)N2C([H])([H])C([H])([H])C([H])([H])C([H])(n3nc(-c4c([H])c([H])c(Oc5c([H])c([H])c(F)c([H])c5F)c([H])c4[H])c(C(=O)N([H])[H])c3N([H])[H])C2([H])[H])c(C([H])([H])[H])c([H])c1OC([H])([H])C([H])([H])C([H])([H])C([H])([H])Oc1c([H])c([H])c2c(c1[H])C([H])([H])N(C(=O)C([H])(N([H])C(=O)C([H])(N([H])C([H])([H])[H])C([H])([H])[H])C(C([H])([H])[H])(C([H])([H])[H])C([H])([H])[H])C([H])(C(=O)N([H])C1([H])c3c([H])c([H])c([H])c([H])c3C([H])([H])C([H])([H])C1([H])[H])C2([H])[H]

$$$$
61:0:0
     RDKit          3D

 95103  0  0  1  0  0  0  0  0999 V2000
  -28.1700  -20.0440   20.3850 C   0  0  0  0  0  3  0  0  0  0  0  0
  -30.2570  -19.0610   21.0940 C   0  0  0  0  0  3  0  0  0  0  0  0
  -27.7440  -18.7960   19.8820 C   0  0  0  0  0  0  0  0  0  0  0  0
  -29.8460  -17.7760   20.6290 C   0  0  0  0  0  0  0  0  0  0  0  0
  -28.5110  -17.6210   20.1370 C   0  0  0  0  0  0  0  0  0  0  0  0
  -29.4160  -20.2050   21.0370 C   0  0  0  0  0  0  0  0  0  0  0  0
  -27.9280  -15.2830   21.1430 C   0  0  0  0  0  1  0  0  0  0  0  0
  -27.8730  -16.2340   19.9260 C   0  0  0  0  0  2  0  0  0  0  0  0
  -26.4370  -18.7830   19.0840 C   0  0  0  0  0  2  0  0  0  0  0  0
  -25.5060  -20.5130   17.4740 C   0  0  0  0  0  2  0  0  0  0  0  0
  -26.4490  -19.6200   17.8130 C   0  0  0  0  0  3  0  0  0  0  0  0
  -30.8700  -16.6110   20.7160 C   0  0  0  0  0  2  0  0  0  0  0  0
  -30.9530  -14.1900   19.9180 C   0  0  0  0  0  0  0  0  0  0  0  0
  -30.5230  -11.9640   18.9230 C   0  0  0  0  0  2  0  0  0  0  0  0
  -29.5080  -12.0620   17.7690 C   0  0  0  0  0  2  0  0  0  0  0  0
  -28.0620  -11.9920   18.3000 C   0  0  0  0  0  2  0  0  0  0  0  0
  -27.8070  -12.9480   19.4950 C   0  0  0  0  0  3  0  0  0  0  0  0
  -28.9310  -12.8000   20.5520 C   0  0  0  0  0  2  0  0  0  0  0  0
  -30.2240  -13.0390   19.8840 N   0  0  0  0  0  0  0  0  0  0  0  0
  -32.0540  -14.3050   19.3770 O   0  0  0  0  0  0  0  0  0  0  0  0
  -30.3500  -15.2480   20.4840 N   0  0  0  0  0  0  0  0  0  0  0  0
  -29.4240  -15.0730   20.8330 H   0  0  0  0  0  0  0  0  0  0  0  0
  -25.4860  -13.6580   20.3630 C   0  0  0  0  0  0  0  0  0  0  0  0
  -24.4140  -12.9420   20.8160 C   0  0  0  0  0  0  0  0  0  0  0  0
  -24.7890  -11.5710   20.7180 C   0  0  0  0  0  0  0  0  0  0  0  0
  -26.4740  -12.7330   20.0670 N   0  0  0  0  0  0  0  0  0  0  0  0
  -26.0560  -11.4660   20.3290 N   0  0  0  0  0  0  0  0  0  0  0  0
  -23.9940  -10.3510   20.9130 C   0  0  0  0  0  0  0  0  0  0  0  0
  -24.4140   -9.3380   21.8030 C   0  0  0  0  0  3  0  0  0  0  0  0
  -23.6320   -8.1780   21.9870 C   0  0  0  0  0  3  0  0  0  0  0  0
  -22.4140   -8.0280   21.2830 C   0  0  0  0  0  0  0  0  0  0  0  0
  -22.0120   -9.0300   20.3820 C   0  0  0  0  0  3  0  0  0  0  0  0
  -22.7920  -10.1790   20.1960 C   0  0  0  0  0  3  0  0  0  0  0  0
  -21.5960   -6.9300   21.3830 O   0  0  0  0  0  0  0  0  0  0  0  0
  -21.5210   -6.1890   22.5360 C   0  0  0  0  0  0  0  0  0  0  0  0
  -21.1260   -6.7620   23.7650 C   0  0  0  0  0  3  0  0  0  0  0  0
  -20.9980   -5.9510   24.9110 C   0  0  0  0  0  3  0  0  0  0  0  0
  -21.2550   -4.5680   24.8250 C   0  0  0  0  0  0  0  0  0  0  0  0
  -21.6410   -3.9950   23.6010 C   0  0  0  0  0  3  0  0  0  0  0  0
  -21.7680   -4.8050   22.4580 C   0  0  0  0  0  0  0  0  0  0  0  0
  -22.1220   -4.2450   21.2750 F   0  0  0  0  0  0  0  0  0  0  0  0
  -21.1220   -3.7850   25.9210 F   0  0  0  0  0  0  0  0  0  0  0  0
  -23.0700  -13.4930   21.2020 C   0  0  0  0  0  0  0  0  0  0  0  0
  -22.3710  -12.8240   22.1110 N   0  0  0  0  0  0  0  0  0  0  0  0
  -22.6540  -14.5520   20.7340 O   0  0  0  0  0  0  0  0  0  0  0  0
  -22.7250  -11.9710   22.5180 H   0  0  0  0  0  0  0  0  0  0  0  0
  -21.4700  -13.1730   22.4090 H   0  0  0  0  0  0  0  0  0  0  0  0
  -25.6820  -15.0130   20.1420 N   0  0  0  0  0  0  0  0  0  0  0  0
  -24.8350  -15.5730   20.0940 H   0  0  0  0  0  0  0  0  0  0  0  0
  -26.3750  -15.3030   19.4650 H   0  0  0  0  0  0  0  0  0  0  0  0
  -29.8550  -21.4250   21.5700 O   0  0  0  0  0  0  0  0  0  0  0  0
  -28.9310  -22.5400   21.6710 C   0  0  0  0  0  2  0  0  0  0  0  0
  -29.5230  -23.9740   21.4860 C   0  0  0  0  0  2  0  0  0  0  0  0
  -28.4100  -25.0700   21.5450 C   0  0  0  0  0  2  0  0  0  0  0  0
  -28.6960  -26.3340   20.8850 O   0  0  0  0  0  0  0  0  0  0  0  0
  -24.7910  -31.8110   23.2930 C   0  0  0  0  0  0  0  0  0  0  0  0
  -27.5780  -27.1320   20.7060 C   0  0  0  0  0  0  0  0  0  0  0  0
  -23.6810  -30.2990   21.6810 C   0  0  0  0  0  3  0  0  0  0  0  0
  -25.2070  -28.6690   20.4470 C   0  0  0  0  0  0  0  0  0  0  0  0
  -26.2180  -30.6350   21.6100 C   0  0  0  0  0  2  0  0  0  0  0  0
  -26.3350  -29.2210   21.0680 C   0  0  0  0  0  0  0  0  0  0  0  0
  -27.5250  -28.4630   21.1910 C   0  0  0  0  0  3  0  0  0  0  0  0
  -26.4370  -26.6070   20.0540 C   0  0  0  0  0  3  0  0  0  0  0  0
  -25.2580  -27.3650   19.9290 C   0  0  0  0  0  3  0  0  0  0  0  0
  -23.9670  -29.5280   20.3660 C   0  0  0  0  0  2  0  0  0  0  0  0
  -24.9120  -30.9360   22.2520 N   0  0  0  0  0  0  0  0  0  0  0  0
  -23.6810  -32.1180   23.7510 O   0  0  0  0  0  0  0  0  0  0  0  0
  -22.9700  -29.3500   22.6680 C   0  0  0  0  0  0  0  0  0  0  0  0
  -21.6440  -29.1930   22.5040 N   0  0  0  0  0  0  0  0  0  0  0  0
  -23.6070  -28.7520   23.5400 O   0  0  0  0  0  0  0  0  0  0  0  0
  -21.1950  -29.7180   21.7660 H   0  0  0  0  0  0  0  0  0  0  0  0
  -18.2080  -28.2060   23.0120 C   0  0  0  0  0  0  0  0  0  0  0  0
  -20.7760  -28.3240   23.2940 C   0  0  0  0  0  3  0  0  0  0  0  0
  -20.8010  -26.8740   22.7500 C   0  0  0  0  0  2  0  0  0  0  0  0
  -19.6900  -26.5960   21.7350 C   0  0  0  0  0  2  0  0  0  0  0  0
  -18.3130  -26.8350   22.3620 C   0  0  0  0  0  2  0  0  0  0  0  0
  -19.3660  -28.9120   23.4330 C   0  0  0  0  0  0  0  0  0  0  0  0
  -19.2150  -30.1990   23.9930 C   0  0  0  0  0  3  0  0  0  0  0  0
  -17.9400  -30.7780   24.1380 C   0  0  0  0  0  3  0  0  0  0  0  0
  -16.7960  -30.0650   23.7400 C   0  0  0  0  0  3  0  0  0  0  0  0
  -16.9310  -28.7830   23.1810 C   0  0  0  0  0  3  0  0  0  0  0  0
  -26.0360  -32.4830   23.9460 C   0  0  0  0  0  3  0  0  0  0  0  0
  -25.6810  -33.8670   24.2870 N   0  0  0  0  0  0  0  0  0  0  0  0
  -25.9830  -34.9380   23.5400 C   0  0  0  0  0  0  0  0  0  0  0  0
  -26.6600  -34.8680   22.5110 O   0  0  0  0  0  0  0  0  0  0  0  0
  -25.0900  -34.0020   25.0950 H   0  0  0  0  0  0  0  0  0  0  0  0
  -24.1850  -36.6600   23.1960 C   0  0  0  0  0  1  0  0  0  0  0  0
  -25.4400  -36.3020   24.0090 C   0  0  0  0  0  3  0  0  0  0  0  0
  -27.5360  -37.2630   24.8480 C   0  0  0  0  0  1  0  0  0  0  0  0
  -26.4280  -37.3980   23.9050 N   0  0  0  0  0  0  0  0  0  0  0  0
  -25.9880  -38.2990   24.0670 H   0  0  0  0  0  0  0  0  0  0  0  0
  -26.5700  -31.7170   25.2170 C   0  0  1  0  0  0  0  0  0  0  0  0
  -25.4740  -31.3720   26.2500 C   0  0  0  0  0  1  0  0  0  0  0  0
  -27.2440  -30.3920   24.7930 C   0  0  0  0  0  1  0  0  0  0  0  0
  -27.6460  -32.5710   25.9290 C   0  0  0  0  0  1  0  0  0  0  0  0
  1  6  1  0
  3  5  1  0
  3  1  2  0
  4 12  1  0
  4  2  1  0
  5  4  2  0
  6  2  2  0
  6 51  1  0
  8  5  1  0
  8  7  1  0
  9  3  1  0
 10 11  2  0
 11  9  1  0
 13 21  1  0
 14 19  1  0
 15 16  1  0
 15 14  1  0
 17 16  1  0
 17 26  1  0
 17 18  1  0
 19 13  1  0
 19 18  1  0
 20 13  2  0
 21 12  1  0
 21 22  1  0
 23 24  2  0
 24 43  1  0
 25 24  1  0
 25 28  1  0
 26 27  1  0
 26 23  1  0
 27 25  2  0
 28 29  1  0
 29 30  2  0
 31 34  1  0
 31 30  1  0
 32 31  2  0
 33 32  1  0
 33 28  2  0
 34 35  1  0
 35 36  1  0
 36 37  2  0
 38 37  1  0
 38 42  1  0
 39 38  2  0
 40 35  2  0
 40 39  1  0
 41 40  1  0
 43 44  1  0
 44 47  1  0
 44 46  1  0
 45 43  2  0
 48 23  1  0
 49 48  1  0
 50 48  1  0
 51 52  1  0
 53 54  1  0
 53 52  1  0
 55 54  1  0
 56 67  2  0
 57 55  1  0
 57 62  1  0
 58 66  1  0
 58 68  1  0
 59 61  1  0
 60 66  1  0
 61 62  2  0
 61 60  1  0
 63 57  2  0
 64 63  1  0
 64 59  2  0
 65 59  1  0
 65 58  1  0
 66 56  1  0
 68 70  2  0
 69 68  1  0
 71 69  1  0
 72 81  2  0
 72 77  1  0
 73 69  1  0
 73 77  1  0
 74 73  1  0
 75 76  1  0
 75 74  1  0
 76 72  1  0
 77 78  2  0
 78 79  1  0
 80 79  2  0
 81 80  1  0
 82 56  1  0
 82 83  1  0
 82 92  1  0
 83 86  1  0
 84 88  1  0
 84 83  1  0
 85 84  2  0
 88 87  1  0
 90 88  1  0
 90 91  1  0
 90 89  1  0
 92 95  1  1
 92 93  1  0
 94 92  1  0
M  ISO  4  13 100  21 100  54 101  55 101
M  END
>  <TORSDO>  (62) 
F 24

>  <SCORE>  (62) 
-11.707

>  <name>  (62) 
61

>  <ligand_id>  (62) 
61

>  <original_smiles>  (62) 
[H]C([H])=C([H])C([H])([H])c1c([H])c(OC([H])([H])C([H])([H])C([H])([H])Oc2c([H])c([H])c3c(c2[H])C([H])([H])N(C(=O)C([H])(N([H])C(=O)C([H])(N([H])C([H])([H])[H])C([H])([H])[H])C(C([H])([H])[H])(C([H])([H])[H])C([H])([H])[H])C([H])(C(=O)N([H])C2([H])c4c([H])c([H])c([H])c([H])c4C([H])([H])C([H])([H])C2([H])[H])C3([H])[H])c([H])c(C([H])([H])N([H])C(=O)N2C([H])([H])C([H])([H])C([H])([H])C([H])(n3nc(-c4c([H])c([H])c(Oc5c([H])c([H])c(F)c([H])c5F)c([H])c4[H])c(C(=O)N([H])[H])c3N([H])[H])C2([H])[H])c1C([H])([H])C([H])([H])[H]

>  <smiles>  (62) 
[H]C([H])=C([H])C([H])([H])c1c([H])c(OC([H])([H])C([H])([H])C([H])([H])Oc2c([H])c([H])c3c(c2[H])C([H])([H])N(C(=O)C([H])(N([H])C(=O)C([H])(N([H])C([H])([H])[H])C([H])([H])[H])C(C([H])([H])[H])(C([H])([H])[H])C([H])([H])[H])C([H])(C(=O)N([H])C2([H])c4c([H])c([H])c([H])c([H])c4C([H])([H])C([H])([H])C2([H])[H])C3([H])[H])c([H])c(C([H])([H])N([H])C(=O)N2C([H])([H])C([H])([H])C([H])([H])C([H])(n3nc(-c4c([H])c([H])c(Oc5c([H])c([H])c(F)c([H])c5F)c([H])c4[H])c(C(=O)N([H])[H])c3N([H])[H])C2([H])[H])c1C([H])([H])C([H])([H])[H]

$$$$
62:0:0
     RDKit          3D

 93101  0  0  1  0  0  0  0  0999 V2000
  -32.3390  -18.5090   21.3460 C   0  0  0  0  0  3  0  0  0  0  0  0
  -31.8500  -17.2060   21.1740 C   0  0  0  0  0  3  0  0  0  0  0  0
  -29.6840  -18.1070   20.5190 C   0  0  0  0  0  0  0  0  0  0  0  0
  -31.5250  -19.6270   21.0900 C   0  0  0  0  0  0  0  0  0  0  0  0
  -30.5240  -16.9660   20.7400 C   0  0  0  0  0  0  0  0  0  0  0  0
  -30.1930  -19.4390   20.6340 C   0  0  0  0  0  0  0  0  0  0  0  0
  -32.0900  -21.0000   21.4140 C   0  0  0  0  0  1  0  0  0  0  0  0
  -30.6430  -14.5780   19.9190 C   0  0  0  0  0  0  0  0  0  0  0  0
  -30.2210  -12.4510   18.7270 C   0  0  0  0  0  2  0  0  0  0  0  0
  -29.1620  -12.6680   17.6280 C   0  0  0  0  0  2  0  0  0  0  0  0
  -27.7460  -12.4760   18.2000 C   0  0  0  0  0  2  0  0  0  0  0  0
  -27.5250  -13.2660   19.5180 C   0  0  0  0  0  3  0  0  0  0  0  0
  -28.6940  -13.0690   20.5100 C   0  0  0  0  0  2  0  0  0  0  0  0
  -29.9410  -13.4110   19.8110 N   0  0  0  0  0  0  0  0  0  0  0  0
  -31.7140  -14.7310   19.3290 O   0  0  0  0  0  0  0  0  0  0  0  0
  -30.0370  -15.6110   20.5610 N   0  0  0  0  0  0  0  0  0  0  0  0
  -29.0830  -15.4480   20.8470 H   0  0  0  0  0  0  0  0  0  0  0  0
  -25.2160  -13.7810   20.5170 C   0  0  0  0  0  0  0  0  0  0  0  0
  -24.2030  -12.9750   20.9560 C   0  0  0  0  0  0  0  0  0  0  0  0
  -24.6670  -11.6340   20.7850 C   0  0  0  0  0  0  0  0  0  0  0  0
  -26.2380  -12.9340   20.1240 N   0  0  0  0  0  0  0  0  0  0  0  0
  -25.9160  -11.6320   20.3380 N   0  0  0  0  0  0  0  0  0  0  0  0
  -23.9700  -10.3540   20.9570 C   0  0  0  0  0  0  0  0  0  0  0  0
  -24.4470   -9.3670   21.8480 C   0  0  0  0  0  3  0  0  0  0  0  0
  -23.7460   -8.1520   22.0110 C   0  0  0  0  0  3  0  0  0  0  0  0
  -22.5560   -7.9160   21.2810 C   0  0  0  0  0  0  0  0  0  0  0  0
  -22.0990   -8.8930   20.3790 C   0  0  0  0  0  3  0  0  0  0  0  0
  -22.8010  -10.0980   20.2140 C   0  0  0  0  0  3  0  0  0  0  0  0
  -21.8240   -6.7560   21.3560 O   0  0  0  0  0  0  0  0  0  0  0  0
  -21.7340   -6.0360   22.5210 C   0  0  0  0  0  0  0  0  0  0  0  0
  -21.2290   -6.6040   23.7120 C   0  0  0  0  0  3  0  0  0  0  0  0
  -21.0910   -5.8100   24.8670 C   0  0  0  0  0  3  0  0  0  0  0  0
  -21.4460   -4.4470   24.8320 C   0  0  0  0  0  0  0  0  0  0  0  0
  -21.9420   -3.8780   23.6460 C   0  0  0  0  0  3  0  0  0  0  0  0
  -22.0840   -4.6710   22.4930 C   0  0  0  0  0  0  0  0  0  0  0  0
  -22.5440   -4.1120   21.3470 F   0  0  0  0  0  0  0  0  0  0  0  0
  -21.3040   -3.6810   25.9370 F   0  0  0  0  0  0  0  0  0  0  0  0
  -22.8430  -13.4190   21.4120 C   0  0  0  0  0  0  0  0  0  0  0  0
  -22.2210  -12.6690   22.3140 N   0  0  0  0  0  0  0  0  0  0  0  0
  -22.3430  -14.4670   21.0060 O   0  0  0  0  0  0  0  0  0  0  0  0
  -22.6360  -11.8180   22.6650 H   0  0  0  0  0  0  0  0  0  0  0  0
  -21.3150  -12.9530   22.6560 H   0  0  0  0  0  0  0  0  0  0  0  0
  -25.3400  -15.1580   20.3870 N   0  0  0  0  0  0  0  0  0  0  0  0
  -24.5640  -15.7870   20.5640 H   0  0  0  0  0  0  0  0  0  0  0  0
  -26.1320  -15.6140   19.9520 H   0  0  0  0  0  0  0  0  0  0  0  0
  -27.4380  -17.0650   20.8000 C   0  0  0  0  0  2  0  0  0  0  0  0
  -28.2470  -17.9740   20.2320 C   0  0  0  0  0  3  0  0  0  0  0  0
  -29.3280  -20.5120   20.4540 O   0  0  0  0  0  0  0  0  0  0  0  0
  -29.7590  -21.6710   19.7130 C   0  0  0  0  0  2  0  0  0  0  0  0
  -29.0710  -22.9360   20.3000 C   0  0  0  0  0  2  0  0  0  0  0  0
  -29.2300  -24.2770   19.5200 C   0  0  0  0  0  2  0  0  0  0  0  0
  -28.4160  -25.4370   20.1630 C   0  0  0  0  0  2  0  0  0  0  0  0
  -28.4560  -26.6920   19.4480 O   0  0  0  0  0  0  0  0  0  0  0  0
  -24.5860  -31.5220   23.0230 C   0  0  0  0  0  0  0  0  0  0  0  0
  -27.2960  -27.4370   19.5220 C   0  0  0  0  0  0  0  0  0  0  0  0
  -23.4030  -30.2620   21.2550 C   0  0  0  0  0  3  0  0  0  0  0  0
  -24.8760  -28.9000   19.6830 C   0  0  0  0  0  0  0  0  0  0  0  0
  -25.9220  -30.6860   21.0880 C   0  0  0  0  0  2  0  0  0  0  0  0
  -26.0300  -29.3850   20.3150 C   0  0  0  0  0  0  0  0  0  0  0  0
  -27.2440  -28.6650   20.2260 C   0  0  0  0  0  3  0  0  0  0  0  0
  -26.1280  -26.9730   18.8830 C   0  0  0  0  0  3  0  0  0  0  0  0
  -24.9220  -27.6930   18.9630 C   0  0  0  0  0  3  0  0  0  0  0  0
  -23.6170  -29.7250   19.8160 C   0  0  0  0  0  2  0  0  0  0  0  0
  -24.6550  -30.8350   21.8470 N   0  0  0  0  0  0  0  0  0  0  0  0
  -23.5000  -31.7150   23.5890 O   0  0  0  0  0  0  0  0  0  0  0  0
  -22.7740  -29.1410   22.1150 C   0  0  0  0  0  0  0  0  0  0  0  0
  -21.4430  -28.9840   22.0150 N   0  0  0  0  0  0  0  0  0  0  0  0
  -23.4770  -28.4210   22.8270 O   0  0  0  0  0  0  0  0  0  0  0  0
  -20.9340  -29.6120   21.4070 H   0  0  0  0  0  0  0  0  0  0  0  0
  -18.0700  -27.8060   22.5520 C   0  0  0  0  0  0  0  0  0  0  0  0
  -20.6460  -27.9690   22.7030 C   0  0  0  0  0  3  0  0  0  0  0  0
  -20.6760  -26.6280   21.9340 C   0  0  0  0  0  2  0  0  0  0  0  0
  -19.5100  -26.4700   20.9560 C   0  0  0  0  0  2  0  0  0  0  0  0
  -18.1700  -26.5590   21.6920 C   0  0  0  0  0  2  0  0  0  0  0  0
  -19.2330  -28.4770   23.0160 C   0  0  0  0  0  0  0  0  0  0  0  0
  -19.0830  -29.6540   23.7830 C   0  0  0  0  0  3  0  0  0  0  0  0
  -17.8050  -30.1550   24.0900 C   0  0  0  0  0  3  0  0  0  0  0  0
  -16.6570  -29.4770   23.6440 C   0  0  0  0  0  3  0  0  0  0  0  0
  -16.7910  -28.3040   22.8780 C   0  0  0  0  0  3  0  0  0  0  0  0
  -25.8610  -32.1160   23.6980 C   0  0  0  0  0  3  0  0  0  0  0  0
  -25.5330  -33.4730   24.1540 N   0  0  0  0  0  0  0  0  0  0  0  0
  -25.8590  -34.5940   23.4970 C   0  0  0  0  0  0  0  0  0  0  0  0
  -26.5390  -34.5940   22.4670 O   0  0  0  0  0  0  0  0  0  0  0  0
  -24.9310  -33.5460   24.9610 H   0  0  0  0  0  0  0  0  0  0  0  0
  -24.1180  -36.3910   23.2830 C   0  0  0  0  0  1  0  0  0  0  0  0
  -25.3500  -35.9270   24.0750 C   0  0  0  0  0  3  0  0  0  0  0  0
  -27.4570  -36.7490   25.0290 C   0  0  0  0  0  1  0  0  0  0  0  0
  -26.3720  -36.9960   24.0810 N   0  0  0  0  0  0  0  0  0  0  0  0
  -25.9540  -37.8940   24.3080 H   0  0  0  0  0  0  0  0  0  0  0  0
  -26.3930  -31.2390   24.8970 C   0  0  1  0  0  0  0  0  0  0  0  0
  -25.3070  -30.9000   25.9440 C   0  0  0  0  0  1  0  0  0  0  0  0
  -26.9850  -29.9100   24.3770 C   0  0  0  0  0  1  0  0  0  0  0  0
  -27.5410  -31.9820   25.6180 C   0  0  0  0  0  1  0  0  0  0  0  0
  2  1  1  0
  3  6  2  0
  3  5  1  0
  4  1  2  0
  4  7  1  0
  5  2  2  0
  6  4  1  0
  8 16  1  0
  9 14  1  0
 10 11  1  0
 10  9  1  0
 12 11  1  0
 12 21  1  0
 12 13  1  0
 14  8  1  0
 14 13  1  0
 15  8  2  0
 16  5  1  0
 16 17  1  0
 18 19  2  0
 19 38  1  0
 20 19  1  0
 20 23  1  0
 21 22  1  0
 21 18  1  0
 22 20  2  0
 23 24  1  0
 24 25  2  0
 26 29  1  0
 26 25  1  0
 27 26  2  0
 28 27  1  0
 28 23  2  0
 29 30  1  0
 30 31  1  0
 31 32  2  0
 33 32  1  0
 33 37  1  0
 34 33  2  0
 35 30  2  0
 35 34  1  0
 36 35  1  0
 38 39  1  0
 39 42  1  0
 39 41  1  0
 40 38  2  0
 43 18  1  0
 43 44  1  0
 45 43  1  0
 47  3  1  0
 47 46  2  0
 48  6  1  0
 49 50  1  0
 49 48  1  0
 51 52  1  0
 51 50  1  0
 53 55  1  0
 53 52  1  0
 54 65  2  0
 55 60  1  0
 56 64  1  0
 56 66  1  0
 57 63  1  0
 57 59  1  0
 58 64  1  0
 59 58  1  0
 60 59  2  0
 61 62  1  0
 61 55  2  0
 62 57  2  0
 63 56  1  0
 64 54  1  0
 66 68  2  0
 67 66  1  0
 69 67  1  0
 70 79  2  0
 70 75  1  0
 71 67  1  0
 71 75  1  0
 72 71  1  0
 73 74  1  0
 73 72  1  0
 74 70  1  0
 75 76  2  0
 76 77  1  0
 78 77  2  0
 79 78  1  0
 80 54  1  0
 80 81  1  0
 80 90  1  0
 81 84  1  0
 82 86  1  0
 82 81  1  0
 83 82  2  0
 86 85  1  0
 86 88  1  0
 88 89  1  0
 88 87  1  0
 90 93  1  1
 90 91  1  0
 92 90  1  0
M  ISO  4   8 100  16 100  52 101  53 101
M  END
>  <TORSDO>  (63) 
F 22

>  <SCORE>  (63) 
-11.670

>  <name>  (63) 
62

>  <ligand_id>  (63) 
62

>  <original_smiles>  (63) 
[H]C([H])=C([H])c1c(OC([H])([H])C([H])([H])C([H])([H])C([H])([H])Oc2c([H])c([H])c3c(c2[H])C([H])([H])N(C(=O)C([H])(N([H])C(=O)C([H])(N([H])C([H])([H])[H])C([H])([H])[H])C(C([H])([H])[H])(C([H])([H])[H])C([H])([H])[H])C([H])(C(=O)N([H])C2([H])c4c([H])c([H])c([H])c([H])c4C([H])([H])C([H])([H])C2([H])[H])C3([H])[H])c(C([H])([H])[H])c([H])c([H])c1N([H])C(=O)N1C([H])([H])C([H])([H])C([H])([H])C([H])(n2nc(-c3c([H])c([H])c(Oc4c([H])c([H])c(F)c([H])c4F)c([H])c3[H])c(C(=O)N([H])[H])c2N([H])[H])C1([H])[H]

>  <smiles>  (63) 
[H]C([H])=C([H])c1c(OC([H])([H])C([H])([H])C([H])([H])C([H])([H])Oc2c([H])c([H])c3c(c2[H])C([H])([H])N(C(=O)C([H])(N([H])C(=O)C([H])(N([H])C([H])([H])[H])C([H])([H])[H])C(C([H])([H])[H])(C([H])([H])[H])C([H])([H])[H])C([H])(C(=O)N([H])C2([H])c4c([H])c([H])c([H])c([H])c4C([H])([H])C([H])([H])C2([H])[H])C3([H])[H])c(C([H])([H])[H])c([H])c([H])c1N([H])C(=O)N1C([H])([H])C([H])([H])C([H])([H])C([H])(n2nc(-c3c([H])c([H])c(Oc4c([H])c([H])c(F)c([H])c4F)c([H])c3[H])c(C(=O)N([H])[H])c2N([H])[H])C1([H])[H]

$$$$
63:0:0
     RDKit          3D

 94100  0  0  1  0  0  0  0  0999 V2000
  -29.1890  -23.1650   19.7110 C   0  0  0  0  0  0  0  0  0  0  0  0
  -29.0430  -24.5970   20.2570 C   0  0  0  0  0  3  0  0  0  0  0  0
  -29.9210  -22.6500   18.4640 C   0  0  0  0  0  2  0  0  0  0  0  0
  -29.5410  -21.1050   18.0610 C   0  0  0  0  0  2  0  0  0  0  0  0
  -28.7400  -21.5260   20.1480 C   0  0  0  0  0  3  0  0  0  0  0  0
  -27.5160  -21.4460   21.0870 C   0  0  0  0  0  1  0  0  0  0  0  0
  -28.8930  -20.2420   19.1290 N   0  0  0  0  0  0  0  0  0  0  0  0
  -27.9500  -15.7150   17.7820 C   0  0  0  0  0  3  0  0  0  0  0  0
  -27.2820  -16.9400   17.4220 C   0  0  0  0  0  3  0  0  0  0  0  0
  -29.0320  -17.2290   19.3230 C   0  0  0  0  0  3  0  0  0  0  0  0
  -28.9820  -15.6750   18.7400 C   0  0  0  0  0  3  0  0  0  0  0  0
  -27.5750  -18.2960   17.8510 C   0  0  0  0  0  0  0  0  0  0  0  0
  -28.5500  -18.6550   18.8620 C   0  0  0  0  0  0  0  0  0  0  0  0
  -26.7110  -19.3660   17.1900 C   0  0  0  0  0  1  0  0  0  0  0  0
  -30.3150  -14.1170   18.8960 C   0  0  0  0  0 15  0  0  0  0  0  0
  -32.9070  -13.9120   21.0750 C   0  0  0  0  0  3  0  0  0  0  0  0
  -32.5970  -12.9470   18.8210 C   0  0  0  0  0  2  0  0  0  0  0  0
  -32.5090  -14.6920   18.0780 C   0  0  0  0  0  1  0  0  0  0  0  0
  -31.4300  -16.0850   19.1250 C   0  0  0  0  0 15  0  0  0  0  0  0
  -29.9680  -15.0810   20.9070 C   0  0  0  0  0  2  0  0  0  0  0  0
  -30.6000  -13.3720   21.4700 C   0  0  0  0  0  2  0  0  0  0  0  0
  -32.0750  -13.0660   20.5130 N   0  0  1  0  0  4  0  0  0  0  0  0
  -33.9360  -14.5960   20.8420 O   0  0  0  0  0  1  0  0  0  0  0  0
  -32.0710  -14.3970   20.3250 N   0  0  0  0  0  0  0  0  0  0  0  0
  -32.3890  -15.3410   20.1950 H   0  0  0  0  0  0  0  0  0  0  0  0
  -27.2920  -14.8910   20.7480 C   0  0  0  0  0  0  0  0  0  0  0  0
  -26.2840  -13.9760   20.8610 C   0  0  0  0  0  0  0  0  0  0  0  0
  -26.8350  -12.6730   20.8440 C   0  0  0  0  0  0  0  0  0  0  0  0
  -28.5080  -14.2960   20.7690 N   0  0  0  0  0  0  0  0  0  0  0  0
  -28.1590  -12.8840   20.7350 N   0  0  0  0  0  0  0  0  0  0  0  0
  -26.1390  -11.3310   20.9410 C   0  0  0  0  0  0  0  0  0  0  0  0
  -26.3180  -10.4220   22.0180 C   0  0  0  0  0  3  0  0  0  0  0  0
  -25.5420   -9.2350   22.1340 C   0  0  0  0  0  3  0  0  0  0  0  0
  -24.5520   -8.9210   21.1730 C   0  0  0  0  0  0  0  0  0  0  0  0
  -24.3770   -9.8070   20.0900 C   0  0  0  0  0  3  0  0  0  0  0  0
  -25.1530  -10.9830   19.9790 C   0  0  0  0  0  3  0  0  0  0  0  0
  -23.7680   -7.7790   21.1810 O   0  0  0  0  0  0  0  0  0  0  0  0
  -23.1640   -7.2940   22.3200 C   0  0  0  0  0  0  0  0  0  0  0  0
  -22.2580   -8.0760   23.0690 C   0  0  0  0  0  3  0  0  0  0  0  0
  -21.6050   -7.5210   24.1880 C   0  0  0  0  0  3  0  0  0  0  0  0
  -21.8430   -6.1820   24.5580 C   0  0  0  0  0  0  0  0  0  0  0  0
  -22.7290   -5.3960   23.8050 C   0  0  0  0  0  3  0  0  0  0  0  0
  -23.3850   -5.9490   22.6870 C   0  0  0  0  0  0  0  0  0  0  0  0
  -24.2210   -5.1740   21.9530 F   0  0  0  0  0  0  0  0  0  0  0  0
  -21.2170   -5.6490   25.6340 F   0  0  0  0  0  0  0  0  0  0  0  0
  -24.8540  -14.3580   20.9690 C   0  0  0  0  0  0  0  0  0  0  0  0
  -24.0940  -13.6700   21.8120 N   0  0  0  0  0  0  0  0  0  0  0  0
  -24.4260  -15.3300   20.3560 O   0  0  0  0  0  0  0  0  0  0  0  0
  -24.4710  -12.8890   22.3300 H   0  0  0  0  0  0  0  0  0  0  0  0
  -23.1280  -13.9310   21.9620 H   0  0  0  0  0  0  0  0  0  0  0  0
  -27.2800  -16.2600   20.7270 N   0  0  0  0  0  0  0  0  0  0  0  0
  -26.3860  -16.7380   20.6900 H   0  0  0  0  0  0  0  0  0  0  0  0
  -28.0080  -16.7700   20.2470 H   0  0  0  0  0  0  0  0  0  0  0  0
  -29.5490  -26.1190   20.1110 O   0  0  0  0  0  0  0  0  0  0  0  0
  -27.2120  -31.7240   25.0670 C   0  0  0  0  0  0  0  0  0  0  0  0
  -28.9340  -27.4130   20.6410 C   0  0  0  0  0  0  0  0  0  0  0  0
  -25.8850  -30.9810   23.1520 C   0  0  0  0  0  3  0  0  0  0  0  0
  -27.0880  -29.6460   21.3040 C   0  0  0  0  0  0  0  0  0  0  0  0
  -28.4610  -30.8140   23.0000 C   0  0  0  0  0  2  0  0  0  0  0  0
  -28.3190  -29.6260   21.9680 C   0  0  0  0  0  0  0  0  0  0  0  0
  -29.2600  -28.5220   21.6180 C   0  0  0  0  0  3  0  0  0  0  0  0
  -27.7220  -27.6610   20.0070 C   0  0  0  0  0  3  0  0  0  0  0  0
  -26.8260  -28.6940   20.3200 C   0  0  0  0  0  3  0  0  0  0  0  0
  -26.0410  -30.6970   21.6390 C   0  0  0  0  0  2  0  0  0  0  0  0
  -27.2190  -31.1910   23.7950 N   0  0  0  0  0  0  0  0  0  0  0  0
  -26.1550  -32.0010   25.6560 O   0  0  0  0  0  0  0  0  0  0  0  0
  -25.0490  -29.8540   23.8220 C   0  0  0  0  0  0  0  0  0  0  0  0
  -23.7750  -29.6890   23.4170 N   0  0  0  0  0  0  0  0  0  0  0  0
  -25.5630  -29.1360   24.6830 O   0  0  0  0  0  0  0  0  0  0  0  0
  -23.4060  -30.3320   22.7300 H   0  0  0  0  0  0  0  0  0  0  0  0
  -20.5520  -28.1190   22.8450 C   0  0  0  0  0  0  0  0  0  0  0  0
  -22.8640  -28.6430   23.8870 C   0  0  0  0  0  3  0  0  0  0  0  0
  -23.2950  -27.2540   23.3600 C   0  0  0  0  0  2  0  0  0  0  0  0
  -22.6020  -26.8640   22.0520 C   0  0  0  0  0  2  0  0  0  0  0  0
  -21.0810  -26.8280   22.2410 C   0  0  0  0  0  2  0  0  0  0  0  0
  -21.3910  -28.9770   23.6050 C   0  0  0  0  0  0  0  0  0  0  0  0
  -20.8550  -30.1750   24.1240 C   0  0  0  0  0  3  0  0  0  0  0  0
  -19.5130  -30.5260   23.8860 C   0  0  0  0  0  3  0  0  0  0  0  0
  -18.6840  -29.6710   23.1400 C   0  0  0  0  0  3  0  0  0  0  0  0
  -19.2020  -28.4670   22.6290 C   0  0  0  0  0  3  0  0  0  0  0  0
  -28.5300  -32.0250   25.8370 C   0  0  0  0  0  3  0  0  0  0  0  0
  -28.5260  -33.4520   26.2180 N   0  0  0  0  0  0  0  0  0  0  0  0
  -29.4010  -34.3730   25.7910 C   0  0  0  0  0  0  0  0  0  0  0  0
  -30.3530  -34.0870   25.0600 O   0  0  0  0  0  0  0  0  0  0  0  0
  -27.7410  -33.7610   26.7730 H   0  0  0  0  0  0  0  0  0  0  0  0
  -28.6900  -36.6830   25.0660 C   0  0  0  0  0  1  0  0  0  0  0  0
  -29.1990  -35.8370   26.2450 C   0  0  0  0  0  3  0  0  0  0  0  0
  -30.8570  -35.8820   28.0610 C   0  0  0  0  0  1  0  0  0  0  0  0
  -30.4250  -36.4600   26.7930 N   0  0  0  0  0  0  0  0  0  0  0  0
  -30.2970  -37.4590   26.9280 H   0  0  0  0  0  0  0  0  0  0  0  0
  -28.7070  -31.1210   27.1230 C   0  0  1  0  0  0  0  0  0  0  0  0
  -27.4830  -31.1390   28.0690 C   0  0  0  0  0  1  0  0  0  0  0  0
  -28.9570  -29.6490   26.7290 C   0  0  0  0  0  1  0  0  0  0  0  0
  -29.9520  -31.5730   27.9210 C   0  0  0  0  0  1  0  0  0  0  0  0
  1  5  1  0
  1  2  2  0
  3  1  1  0
  4  3  1  0
  4  7  1  0
  5  6  1  0
  7  5  1  0
  8 11  1  0
  9  8  2  0
  9 12  1  0
 11 10  2  0
 12 13  2  0
 13  7  1  0
 13 10  1  0
 14 12  1  0
 16 23  1  0
 22 17  1  1
 18 17  1  0
 20 21  1  0
 22 16  1  0
 22 21  1  0
 24 22  1  0
 24 16  1  0
 25 24  1  0
 26 29  1  0
 26 27  2  0
 27 46  1  0
 28 27  1  0
 28 31  1  0
 29 20  1  0
 30 29  1  0
 30 28  2  0
 31 32  1  0
 32 33  2  0
 34 37  1  0
 34 33  1  0
 35 34  2  0
 36 35  1  0
 36 31  2  0
 37 38  1  0
 38 43  2  0
 38 39  1  0
 39 40  2  0
 40 41  1  0
 41 45  1  0
 42 41  2  0
 43 42  1  0
 44 43  1  0
 46 47  1  0
 47 50  1  0
 47 49  1  0
 48 46  2  0
 51 26  1  0
 52 51  1  0
 53 51  1  0
 54  2  1  0
 54 56  1  0
 55 66  2  0
 56 61  1  0
 57 65  1  0
 57 67  1  0
 58 64  1  0
 58 60  1  0
 59 65  1  0
 60 59  1  0
 61 60  2  0
 62 63  1  0
 62 56  2  0
 63 58  2  0
 64 57  1  0
 65 55  1  0
 67 69  2  0
 68 67  1  0
 70 68  1  0
 71 76  1  0
 72 68  1  0
 73 72  1  0
 74 75  1  0
 74 73  1  0
 75 71  1  0
 76 72  1  0
 76 77  2  0
 78 77  1  0
 79 78  2  0
 80 71  2  0
 80 79  1  0
 81 55  1  0
 81 82  1  0
 81 91  1  0
 82 85  1  0
 83 82  1  0
 83 87  1  0
 84 83  2  0
 87 86  1  0
 87 89  1  0
 89 90  1  0
 89 88  1  0
 91 94  1  1
 91 92  1  0
 93 91  1  0
M  ISO  4   2 101  16 100  24 100  54 101
M  END
>  <TORSDO>  (64) 
F 18

>  <SCORE>  (64) 
0.567

>  <name>  (64) 
63

>  <ligand_id>  (64) 
63

>  <original_smiles>  (64) 
[H]C(Oc1c([H])c([H])c2c(c1[H])C([H])([H])N(C(=O)C([H])(N([H])C(=O)C([H])(N([H])C([H])([H])[H])C([H])([H])[H])C(C([H])([H])[H])(C([H])([H])[H])C([H])([H])[H])C([H])(C(=O)N([H])C1([H])c3c([H])c([H])c([H])c([H])c3C([H])([H])C([H])([H])C1([H])[H])C2([H])[H])=C1C([H])([H])C([H])([H])N(c2c([H])c(C([H])([H])N([H])C(=O)N3C([H])([H])C([H])([H])C([H])([H])C([H])(n4nc(-c5c([H])c([H])c(Oc6c([H])c([H])c(F)c([H])c6F)c([H])c5[H])c(C(=O)N([H])[H])c4N([H])[H])C3([H])[H])c([H])c([H])c2C([H])([H])[H])C1([H])C([H])([H])[H]

>  <smiles>  (64) 
[H]C(Oc1c([H])c([H])c2c(c1[H])C([H])([H])N(C(=O)C([H])(N([H])C(=O)C([H])(N([H])C([H])([H])[H])C([H])([H])[H])C(C([H])([H])[H])(C([H])([H])[H])C([H])([H])[H])C([H])(C(=O)N([H])C1([H])c3c([H])c([H])c([H])c([H])c3C([H])([H])C([H])([H])C1([H])[H])C2([H])[H])=C1C([H])([H])C([H])([H])N(c2c([H])c(C([H])([H])N([H])C(=O)N3C([H])([H])C([H])([H])C([H])([H])C([H])(n4nc(-c5c([H])c([H])c(Oc6c([H])c([H])c(F)c([H])c6F)c([H])c5[H])c(C(=O)N([H])[H])c4N([H])[H])C3([H])[H])c([H])c([H])c2C([H])([H])[H])C1([H])C([H])([H])[H]

$$$$
64:0:0
     RDKit          3D

 93101  0  0  1  0  0  0  0  0999 V2000
  -31.2360  -18.5060   22.7620 C   0  0  0  0  0  3  0  0  0  0  0  0
  -29.6360  -18.1080   20.5130 C   0  0  0  0  0  3  0  0  0  0  0  0
  -30.8060  -19.6360   22.0230 C   0  0  0  0  0  0  0  0  0  0  0  0
  -30.9120  -17.1880   22.3750 C   0  0  0  0  0  0  0  0  0  0  0  0
  -30.1370  -16.9720   21.2110 C   0  0  0  0  0  0  0  0  0  0  0  0
  -29.9400  -19.4480   20.9060 C   0  0  0  0  0  0  0  0  0  0  0  0
  -31.4120  -16.0340   23.2340 C   0  0  0  0  0  1  0  0  0  0  0  0
  -30.4940  -14.6880   20.1930 C   0  0  0  0  0  0  0  0  0  0  0  0
  -30.1980  -12.5920   18.8950 C   0  0  0  0  0  2  0  0  0  0  0  0
  -29.1760  -12.8230   17.7620 C   0  0  0  0  0  2  0  0  0  0  0  0
  -27.7350  -12.6210   18.2700 C   0  0  0  0  0  2  0  0  0  0  0  0
  -27.4560  -13.4000   19.5820 C   0  0  0  0  0  3  0  0  0  0  0  0
  -28.5670  -13.1180   20.6170 C   0  0  0  0  0  2  0  0  0  0  0  0
  -29.8510  -13.5000   20.0040 N   0  0  0  0  0  0  0  0  0  0  0  0
  -31.5980  -14.9260   19.6930 O   0  0  0  0  0  0  0  0  0  0  0  0
  -29.7590  -15.6400   20.8230 N   0  0  0  0  0  0  0  0  0  0  0  0
  -28.8190  -15.3640   21.0630 H   0  0  0  0  0  0  0  0  0  0  0  0
  -25.0830  -13.9680   20.3990 C   0  0  0  0  0  0  0  0  0  0  0  0
  -24.0430  -13.1750   20.8030 C   0  0  0  0  0  0  0  0  0  0  0  0
  -24.5230  -11.8310   20.7380 C   0  0  0  0  0  0  0  0  0  0  0  0
  -26.1290  -13.1030   20.1120 N   0  0  0  0  0  0  0  0  0  0  0  0
  -25.7990  -11.8130   20.3780 N   0  0  0  0  0  0  0  0  0  0  0  0
  -23.8270  -10.5550   20.9460 C   0  0  0  0  0  0  0  0  0  0  0  0
  -24.2940   -9.6040   21.8790 C   0  0  0  0  0  3  0  0  0  0  0  0
  -23.5990   -8.3910   22.0730 C   0  0  0  0  0  3  0  0  0  0  0  0
  -22.4240   -8.1220   21.3330 C   0  0  0  0  0  0  0  0  0  0  0  0
  -21.9750   -9.0620   20.3890 C   0  0  0  0  0  3  0  0  0  0  0  0
  -22.6720  -10.2670   20.1930 C   0  0  0  0  0  3  0  0  0  0  0  0
  -21.6970   -6.9600   21.4360 O   0  0  0  0  0  0  0  0  0  0  0  0
  -21.6570   -6.2370   22.6010 C   0  0  0  0  0  0  0  0  0  0  0  0
  -21.2090   -6.8040   23.8140 C   0  0  0  0  0  3  0  0  0  0  0  0
  -21.1180   -6.0070   24.9730 C   0  0  0  0  0  3  0  0  0  0  0  0
  -21.4650   -4.6440   24.9180 C   0  0  0  0  0  0  0  0  0  0  0  0
  -21.9060   -4.0750   23.7100 C   0  0  0  0  0  3  0  0  0  0  0  0
  -21.9990   -4.8710   22.5540 C   0  0  0  0  0  0  0  0  0  0  0  0
  -22.4040   -4.3150   21.3870 F   0  0  0  0  0  0  0  0  0  0  0  0
  -21.3700   -3.8740   26.0280 F   0  0  0  0  0  0  0  0  0  0  0  0
  -22.6500  -13.6270   21.1370 C   0  0  0  0  0  0  0  0  0  0  0  0
  -21.9670  -12.9050   22.0190 N   0  0  0  0  0  0  0  0  0  0  0  0
  -22.1750  -14.6530   20.6520 O   0  0  0  0  0  0  0  0  0  0  0  0
  -22.3620  -12.0740   22.4330 H   0  0  0  0  0  0  0  0  0  0  0  0
  -21.0330  -13.1870   22.2830 H   0  0  0  0  0  0  0  0  0  0  0  0
  -25.2210  -15.3420   20.2250 N   0  0  0  0  0  0  0  0  0  0  0  0
  -24.4520  -15.9870   20.3780 H   0  0  0  0  0  0  0  0  0  0  0  0
  -26.0450  -15.7910   19.8450 H   0  0  0  0  0  0  0  0  0  0  0  0
  -31.6200  -21.3390   23.6830 C   0  0  0  0  0  2  0  0  0  0  0  0
  -31.2830  -20.9700   22.4340 C   0  0  0  0  0  3  0  0  0  0  0  0
  -29.4630  -20.5000   20.1190 O   0  0  0  0  0  0  0  0  0  0  0  0
  -28.7710  -21.6340   20.7070 C   0  0  0  0  0  2  0  0  0  0  0  0
  -29.0470  -22.9570   19.9200 C   0  0  0  0  0  2  0  0  0  0  0  0
  -28.3790  -24.2770   20.4470 C   0  0  0  0  0  2  0  0  0  0  0  0
  -28.6900  -25.5430   19.5760 C   0  0  0  0  0  2  0  0  0  0  0  0
  -28.5010  -26.8460   20.1810 O   0  0  0  0  0  0  0  0  0  0  0  0
  -24.6290  -31.9710   23.2430 C   0  0  0  0  0  0  0  0  0  0  0  0
  -27.3040  -27.5450   20.1300 C   0  0  0  0  0  0  0  0  0  0  0  0
  -23.4240  -30.5610   21.6030 C   0  0  0  0  0  3  0  0  0  0  0  0
  -24.8870  -29.0440   20.1540 C   0  0  0  0  0  0  0  0  0  0  0  0
  -25.9410  -30.9540   21.3780 C   0  0  0  0  0  2  0  0  0  0  0  0
  -26.0410  -29.5800   20.7370 C   0  0  0  0  0  0  0  0  0  0  0  0
  -27.2460  -28.8370   20.7200 C   0  0  0  0  0  3  0  0  0  0  0  0
  -26.1280  -27.0310   19.5390 C   0  0  0  0  0  3  0  0  0  0  0  0
  -24.9290  -27.7750   19.5470 C   0  0  0  0  0  3  0  0  0  0  0  0
  -23.6300  -29.8820   20.2200 C   0  0  0  0  0  2  0  0  0  0  0  0
  -24.6840  -31.1780   22.1350 N   0  0  0  0  0  0  0  0  0  0  0  0
  -23.5490  -32.2240   23.7950 O   0  0  0  0  0  0  0  0  0  0  0  0
  -22.7950  -29.5290   22.5670 C   0  0  0  0  0  0  0  0  0  0  0  0
  -21.4730  -29.3270   22.4470 N   0  0  0  0  0  0  0  0  0  0  0  0
  -23.4960  -28.9130   23.3740 O   0  0  0  0  0  0  0  0  0  0  0  0
  -20.9710  -29.8720   21.7610 H   0  0  0  0  0  0  0  0  0  0  0  0
  -18.1240  -28.0700   22.9490 C   0  0  0  0  0  0  0  0  0  0  0  0
  -20.6770  -28.3730   23.2180 C   0  0  0  0  0  3  0  0  0  0  0  0
  -20.8040  -26.9440   22.6370 C   0  0  0  0  0  2  0  0  0  0  0  0
  -19.7080  -26.6060   21.6240 C   0  0  0  0  0  2  0  0  0  0  0  0
  -18.3250  -26.7250   22.2690 C   0  0  0  0  0  2  0  0  0  0  0  0
  -19.2290  -28.8510   23.3790 C   0  0  0  0  0  0  0  0  0  0  0  0
  -18.9890  -30.1100   23.9700 C   0  0  0  0  0  3  0  0  0  0  0  0
  -17.6760  -30.5910   24.1340 C   0  0  0  0  0  3  0  0  0  0  0  0
  -16.5860  -29.8050   23.7220 C   0  0  0  0  0  3  0  0  0  0  0  0
  -16.8100  -28.5470   23.1360 C   0  0  0  0  0  3  0  0  0  0  0  0
  -25.9130  -32.6150   23.8540 C   0  0  0  0  0  3  0  0  0  0  0  0
  -25.6000  -34.0130   24.1740 N   0  0  0  0  0  0  0  0  0  0  0  0
  -25.9360  -35.0610   23.4080 C   0  0  0  0  0  0  0  0  0  0  0  0
  -26.6090  -34.9510   22.3810 O   0  0  0  0  0  0  0  0  0  0  0  0
  -25.0020  -34.1720   24.9710 H   0  0  0  0  0  0  0  0  0  0  0  0
  -24.2050  -36.8410   23.0350 C   0  0  0  0  0  1  0  0  0  0  0  0
  -25.4430  -36.4480   23.8560 C   0  0  0  0  0  3  0  0  0  0  0  0
  -27.5690  -37.3450   24.6910 C   0  0  0  0  0  1  0  0  0  0  0  0
  -26.4720  -37.5040   23.7410 N   0  0  0  0  0  0  0  0  0  0  0  0
  -26.0610  -38.4220   23.8890 H   0  0  0  0  0  0  0  0  0  0  0  0
  -26.4400  -31.8570   25.1340 C   0  0  1  0  0  0  0  0  0  0  0  0
  -25.3480  -31.6080   26.2030 C   0  0  0  0  0  1  0  0  0  0  0  0
  -27.0380  -30.4880   24.7400 C   0  0  0  0  0  1  0  0  0  0  0  0
  -27.5830  -32.6670   25.7920 C   0  0  0  0  0  1  0  0  0  0  0  0
  2  6  2  0
  2  5  1  0
  3 47  1  0
  3  1  2  0
  4  1  1  0
  4  7  1  0
  5  4  2  0
  6  3  1  0
  8 16  1  0
  9 14  1  0
 10 11  1  0
 10  9  1  0
 12 11  1  0
 12 21  1  0
 12 13  1  0
 14  8  1  0
 14 13  1  0
 15  8  2  0
 16 17  1  0
 16  5  1  0
 18 19  2  0
 19 38  1  0
 20 19  1  0
 20 23  1  0
 21 22  1  0
 21 18  1  0
 22 20  2  0
 23 24  1  0
 24 25  2  0
 26 29  1  0
 26 25  1  0
 27 26  2  0
 28 27  1  0
 28 23  2  0
 29 30  1  0
 30 31  1  0
 31 32  2  0
 33 32  1  0
 33 37  1  0
 34 33  2  0
 35 30  2  0
 35 34  1  0
 36 35  1  0
 38 39  1  0
 39 42  1  0
 39 41  1  0
 40 38  2  0
 43 44  1  0
 43 18  1  0
 45 43  1  0
 47 46  2  0
 48 49  1  0
 48  6  1  0
 50 51  1  0
 50 49  1  0
 52 53  1  0
 52 51  1  0
 54 65  2  0
 55 53  1  0
 55 60  1  0
 56 64  1  0
 56 66  1  0
 57 63  1  0
 57 59  1  0
 58 64  1  0
 59 58  1  0
 60 59  2  0
 61 62  1  0
 61 55  2  0
 62 57  2  0
 63 56  1  0
 64 54  1  0
 66 68  2  0
 67 66  1  0
 69 67  1  0
 70 79  2  0
 70 75  1  0
 71 67  1  0
 71 75  1  0
 72 71  1  0
 73 74  1  0
 73 72  1  0
 74 70  1  0
 75 76  2  0
 76 77  1  0
 78 77  2  0
 79 78  1  0
 80 54  1  0
 80 81  1  0
 80 90  1  0
 81 84  1  0
 82 86  1  0
 82 81  1  0
 83 82  2  0
 86 85  1  0
 88 86  1  0
 88 89  1  0
 88 87  1  0
 90 93  1  1
 90 91  1  0
 92 90  1  0
M  ISO  4   8 100  16 100  52 101  53 101
M  END
>  <TORSDO>  (65) 
F 22

>  <SCORE>  (65) 
-11.461

>  <name>  (65) 
64

>  <ligand_id>  (65) 
64

>  <original_smiles>  (65) 
[H]C([H])=C([H])c1c([H])c(C([H])([H])[H])c(N([H])C(=O)N2C([H])([H])C([H])([H])C([H])([H])C([H])(n3nc(-c4c([H])c([H])c(Oc5c([H])c([H])c(F)c([H])c5F)c([H])c4[H])c(C(=O)N([H])[H])c3N([H])[H])C2([H])[H])c([H])c1OC([H])([H])C([H])([H])C([H])([H])C([H])([H])Oc1c([H])c([H])c2c(c1[H])C([H])([H])N(C(=O)C([H])(N([H])C(=O)C([H])(N([H])C([H])([H])[H])C([H])([H])[H])C(C([H])([H])[H])(C([H])([H])[H])C([H])([H])[H])C([H])(C(=O)N([H])C1([H])c3c([H])c([H])c([H])c([H])c3C([H])([H])C([H])([H])C1([H])[H])C2([H])[H]

>  <smiles>  (65) 
[H]C([H])=C([H])c1c([H])c(C([H])([H])[H])c(N([H])C(=O)N2C([H])([H])C([H])([H])C([H])([H])C([H])(n3nc(-c4c([H])c([H])c(Oc5c([H])c([H])c(F)c([H])c5F)c([H])c4[H])c(C(=O)N([H])[H])c3N([H])[H])C2([H])[H])c([H])c1OC([H])([H])C([H])([H])C([H])([H])C([H])([H])Oc1c([H])c([H])c2c(c1[H])C([H])([H])N(C(=O)C([H])(N([H])C(=O)C([H])(N([H])C([H])([H])[H])C([H])([H])[H])C(C([H])([H])[H])(C([H])([H])[H])C([H])([H])[H])C([H])(C(=O)N([H])C1([H])c3c([H])c([H])c([H])c([H])c3C([H])([H])C([H])([H])C1([H])[H])C2([H])[H]

$$$$
65:0:0
     RDKit          3D

 93101  0  0  1  0  0  0  0  0999 V2000
  -31.1020  -18.7640   22.3670 C   0  0  0  0  0  3  0  0  0  0  0  0
  -30.8250  -17.5130   21.7840 C   0  0  0  0  0  3  0  0  0  0  0  0
  -29.3970  -18.6470   20.1680 C   0  0  0  0  0  0  0  0  0  0  0  0
  -30.6170  -19.9730   21.8270 C   0  0  0  0  0  0  0  0  0  0  0  0
  -30.0140  -17.3860   20.6340 C   0  0  0  0  0  0  0  0  0  0  0  0
  -29.7190  -19.9640   20.7270 C   0  0  0  0  0  0  0  0  0  0  0  0
  -31.1670  -21.2650   22.4100 C   0  0  0  0  0  1  0  0  0  0  0  0
  -30.6180  -14.8520   20.3340 C   0  0  0  0  0  0  0  0  0  0  0  0
  -30.3910  -12.5540   19.3740 C   0  0  0  0  0  2  0  0  0  0  0  0
  -29.4490  -12.5410   18.1490 C   0  0  0  0  0  2  0  0  0  0  0  0
  -27.9810  -12.4000   18.5910 C   0  0  0  0  0  2  0  0  0  0  0  0
  -27.6000  -13.3310   19.7750 C   0  0  0  0  0  3  0  0  0  0  0  0
  -28.6650  -13.3050   20.8910 C   0  0  0  0  0  2  0  0  0  0  0  0
  -29.9480  -13.6470   20.2670 N   0  0  0  0  0  0  0  0  0  0  0  0
  -31.8460  -14.8530   20.2070 O   0  0  0  0  0  0  0  0  0  0  0  0
  -29.7550  -16.0790   18.5130 C   0  0  0  0  0  1  0  0  0  0  0  0
  -29.9250  -16.0260   19.9790 N   0  0  0  0  0  0  0  0  0  0  0  0
  -25.2130  -13.9260   20.5020 C   0  0  0  0  0  0  0  0  0  0  0  0
  -24.1460  -13.1500   20.8670 C   0  0  0  0  0  0  0  0  0  0  0  0
  -24.6120  -11.8000   20.8490 C   0  0  0  0  0  0  0  0  0  0  0  0
  -26.2600  -13.0460   20.2780 N   0  0  0  0  0  0  0  0  0  0  0  0
  -25.9070  -11.7640   20.5560 N   0  0  0  0  0  0  0  0  0  0  0  0
  -23.8890  -10.5360   21.0410 C   0  0  0  0  0  0  0  0  0  0  0  0
  -24.3220   -9.5710   21.9760 C   0  0  0  0  0  3  0  0  0  0  0  0
  -23.5980   -8.3730   22.1570 C   0  0  0  0  0  3  0  0  0  0  0  0
  -22.4270   -8.1310   21.4000 C   0  0  0  0  0  0  0  0  0  0  0  0
  -22.0120   -9.0850   20.4530 C   0  0  0  0  0  3  0  0  0  0  0  0
  -22.7380  -10.2750   20.2700 C   0  0  0  0  0  3  0  0  0  0  0  0
  -21.6770   -6.9850   21.4890 O   0  0  0  0  0  0  0  0  0  0  0  0
  -21.6340   -6.2380   22.6400 C   0  0  0  0  0  0  0  0  0  0  0  0
  -21.2250   -6.7930   23.8720 C   0  0  0  0  0  3  0  0  0  0  0  0
  -21.1260   -5.9740   25.0140 C   0  0  0  0  0  3  0  0  0  0  0  0
  -21.4280   -4.6010   24.9260 C   0  0  0  0  0  0  0  0  0  0  0  0
  -21.8330   -4.0460   23.7000 C   0  0  0  0  0  3  0  0  0  0  0  0
  -21.9310   -4.8630   22.5590 C   0  0  0  0  0  0  0  0  0  0  0  0
  -22.2970   -4.3180   21.3730 F   0  0  0  0  0  0  0  0  0  0  0  0
  -21.3270   -3.8130   26.0220 F   0  0  0  0  0  0  0  0  0  0  0  0
  -22.7440  -13.6260   21.1210 C   0  0  0  0  0  0  0  0  0  0  0  0
  -22.0080  -12.9330   21.9830 N   0  0  0  0  0  0  0  0  0  0  0  0
  -22.3090  -14.6470   20.5910 O   0  0  0  0  0  0  0  0  0  0  0  0
  -22.3740  -12.1090   22.4370 H   0  0  0  0  0  0  0  0  0  0  0  0
  -21.0690  -13.2350   22.1980 H   0  0  0  0  0  0  0  0  0  0  0  0
  -25.3760  -15.2960   20.3210 N   0  0  0  0  0  0  0  0  0  0  0  0
  -24.6110  -15.9530   20.4490 H   0  0  0  0  0  0  0  0  0  0  0  0
  -26.2410  -15.7400   20.0420 H   0  0  0  0  0  0  0  0  0  0  0  0
  -28.3260  -19.4310   18.0270 C   0  0  0  0  0  2  0  0  0  0  0  0
  -28.3810  -18.6170   19.0950 C   0  0  0  0  0  3  0  0  0  0  0  0
  -29.2980  -21.1960   20.1320 O   0  0  0  0  0  0  0  0  0  0  0  0
  -28.6520  -22.3310   20.8580 C   0  0  0  0  0  2  0  0  0  0  0  0
  -28.9620  -23.8190   20.3390 C   0  0  0  0  0  0  0  0  0  0  0  0
  -29.9680  -24.0380   19.6520 O   0  0  0  0  0  0  0  0  0  0  0  0
  -27.9800  -25.0220   20.7240 C   0  0  0  0  0  2  0  0  0  0  0  0
  -28.3180  -26.4340   20.3220 O   0  0  0  0  0  0  0  0  0  0  0  0
  -24.6110  -31.9530   23.2570 C   0  0  0  0  0  0  0  0  0  0  0  0
  -27.2360  -27.3400   20.2630 C   0  0  0  0  0  0  0  0  0  0  0  0
  -23.4200  -30.5420   21.6210 C   0  0  0  0  0  3  0  0  0  0  0  0
  -24.8800  -28.9780   20.2180 C   0  0  0  0  0  0  0  0  0  0  0  0
  -25.9630  -30.8520   21.4570 C   0  0  0  0  0  2  0  0  0  0  0  0
  -26.0480  -29.4640   20.8210 C   0  0  0  0  0  0  0  0  0  0  0  0
  -27.2310  -28.6570   20.8330 C   0  0  0  0  0  3  0  0  0  0  0  0
  -26.0520  -26.9300   19.6110 C   0  0  0  0  0  3  0  0  0  0  0  0
  -24.8870  -27.7180   19.6020 C   0  0  0  0  0  3  0  0  0  0  0  0
  -23.6440  -29.8540   20.2490 C   0  0  0  0  0  2  0  0  0  0  0  0
  -24.6830  -31.1350   22.1670 N   0  0  0  0  0  0  0  0  0  0  0  0
  -23.5240  -32.2330   23.7830 O   0  0  0  0  0  0  0  0  0  0  0  0
  -22.7500  -29.5320   22.5860 C   0  0  0  0  0  0  0  0  0  0  0  0
  -21.4250  -29.3520   22.4530 N   0  0  0  0  0  0  0  0  0  0  0  0
  -23.4230  -28.9160   23.4170 O   0  0  0  0  0  0  0  0  0  0  0  0
  -20.9400  -29.9000   21.7550 H   0  0  0  0  0  0  0  0  0  0  0  0
  -18.0500  -28.1420   22.9400 C   0  0  0  0  0  0  0  0  0  0  0  0
  -20.6040  -28.4200   23.2280 C   0  0  0  0  0  3  0  0  0  0  0  0
  -20.7190  -26.9810   22.6730 C   0  0  0  0  0  2  0  0  0  0  0  0
  -19.6280  -26.6380   21.6540 C   0  0  0  0  0  2  0  0  0  0  0  0
  -18.2400  -26.7850   22.2830 C   0  0  0  0  0  2  0  0  0  0  0  0
  -19.1610  -28.9150   23.3700 C   0  0  0  0  0  0  0  0  0  0  0  0
  -18.9300  -30.1830   23.9460 C   0  0  0  0  0  3  0  0  0  0  0  0
  -17.6200  -30.6780   24.0970 C   0  0  0  0  0  3  0  0  0  0  0  0
  -16.5240  -29.9020   23.6820 C   0  0  0  0  0  3  0  0  0  0  0  0
  -16.7400  -28.6370   23.1080 C   0  0  0  0  0  3  0  0  0  0  0  0
  -25.8890  -32.5940   23.8830 C   0  0  0  0  0  3  0  0  0  0  0  0
  -25.5730  -33.9950   24.2000 N   0  0  0  0  0  0  0  0  0  0  0  0
  -25.9110  -35.0430   23.4350 C   0  0  0  0  0  0  0  0  0  0  0  0
  -26.5880  -34.9320   22.4100 O   0  0  0  0  0  0  0  0  0  0  0  0
  -24.9730  -34.1550   24.9950 H   0  0  0  0  0  0  0  0  0  0  0  0
  -24.1860  -36.8340   23.0530 C   0  0  0  0  0  1  0  0  0  0  0  0
  -25.4190  -36.4340   23.8790 C   0  0  0  0  0  3  0  0  0  0  0  0
  -27.5460  -37.3220   24.7260 C   0  0  0  0  0  1  0  0  0  0  0  0
  -26.4540  -37.4870   23.7710 N   0  0  0  0  0  0  0  0  0  0  0  0
  -26.0460  -38.4070   23.9090 H   0  0  0  0  0  0  0  0  0  0  0  0
  -26.3980  -31.8360   25.1690 C   0  0  1  0  0  0  0  0  0  0  0  0
  -25.2980  -31.6060   26.2320 C   0  0  0  0  0  1  0  0  0  0  0  0
  -26.9870  -30.4540   24.7980 C   0  0  0  0  0  1  0  0  0  0  0  0
  -27.5450  -32.6380   25.8300 C   0  0  0  0  0  1  0  0  0  0  0  0
  2  1  2  0
  3  5  2  0
  3  6  1  0
  4  1  1  0
  4  7  1  0
  5  2  1  0
  6  4  2  0
  9 14  1  0
 10 11  1  0
 10  9  1  0
 12 11  1  0
 12 21  1  0
 12 13  1  0
 14  8  1  0
 14 13  1  0
 15  8  2  0
 16 17  1  0
 17  8  1  0
 17  5  1  0
 18 19  2  0
 19 38  1  0
 20 19  1  0
 20 23  1  0
 21 18  1  0
 21 22  1  0
 22 20  2  0
 23 24  1  0
 24 25  2  0
 26 29  1  0
 26 25  1  0
 27 26  2  0
 28 27  1  0
 28 23  2  0
 29 30  1  0
 30 31  1  0
 31 32  2  0
 33 32  1  0
 33 37  1  0
 34 33  2  0
 35 30  2  0
 35 34  1  0
 36 35  1  0
 38 39  1  0
 39 42  1  0
 39 41  1  0
 40 38  2  0
 43 44  1  0
 43 18  1  0
 45 43  1  0
 46 47  2  0
 47  3  1  0
 48  6  1  0
 48 49  1  0
 50 52  1  0
 50 49  1  0
 51 50  2  0
 53 52  1  0
 54 65  2  0
 55 53  1  0
 55 60  1  0
 56 64  1  0
 56 66  1  0
 57 63  1  0
 57 59  1  0
 58 64  1  0
 59 60  2  0
 59 58  1  0
 61 55  2  0
 62 61  1  0
 62 57  2  0
 63 56  1  0
 64 54  1  0
 66 68  2  0
 67 66  1  0
 69 67  1  0
 70 79  2  0
 70 75  1  0
 71 67  1  0
 71 75  1  0
 72 71  1  0
 73 74  1  0
 73 72  1  0
 74 70  1  0
 75 76  2  0
 76 77  1  0
 78 77  2  0
 79 78  1  0
 80 54  1  0
 80 81  1  0
 80 90  1  0
 81 84  1  0
 82 86  1  0
 82 81  1  0
 83 82  2  0
 86 85  1  0
 88 86  1  0
 88 89  1  0
 88 87  1  0
 90 93  1  1
 90 91  1  0
 92 90  1  0
M  ISO  4   8 100  17 100  52 101  53 101
M  END
>  <TORSDO>  (66) 
F 21

>  <SCORE>  (66) 
-13.567

>  <name>  (66) 
65

>  <ligand_id>  (66) 
65

>  <original_smiles>  (66) 
[H]C([H])=C([H])c1c(OC([H])([H])C(=O)C([H])([H])Oc2c([H])c([H])c3c(c2[H])C([H])([H])N(C(=O)C([H])(N([H])C(=O)C([H])(N([H])C([H])([H])[H])C([H])([H])[H])C(C([H])([H])[H])(C([H])([H])[H])C([H])([H])[H])C([H])(C(=O)N([H])C2([H])c4c([H])c([H])c([H])c([H])c4C([H])([H])C([H])([H])C2([H])[H])C3([H])[H])c(C([H])([H])[H])c([H])c([H])c1N(C(=O)N1C([H])([H])C([H])([H])C([H])([H])C([H])(n2nc(-c3c([H])c([H])c(Oc4c([H])c([H])c(F)c([H])c4F)c([H])c3[H])c(C(=O)N([H])[H])c2N([H])[H])C1([H])[H])C([H])([H])[H]

>  <smiles>  (66) 
[H]C([H])=C([H])c1c(OC([H])([H])C(=O)C([H])([H])Oc2c([H])c([H])c3c(c2[H])C([H])([H])N(C(=O)C([H])(N([H])C(=O)C([H])(N([H])C([H])([H])[H])C([H])([H])[H])C(C([H])([H])[H])(C([H])([H])[H])C([H])([H])[H])C([H])(C(=O)N([H])C2([H])c4c([H])c([H])c([H])c([H])c4C([H])([H])C([H])([H])C2([H])[H])C3([H])[H])c(C([H])([H])[H])c([H])c([H])c1N(C(=O)N1C([H])([H])C([H])([H])C([H])([H])C([H])(n2nc(-c3c([H])c([H])c(Oc4c([H])c([H])c(F)c([H])c4F)c([H])c3[H])c(C(=O)N([H])[H])c2N([H])[H])C1([H])[H])C([H])([H])[H]

$$$$
66:0:0
     RDKit          3D

 93102  0  0  1  0  0  0  0  0999 V2000
  -29.1700  -21.8940   19.0440 C   0  0  0  0  0  2  0  0  0  0  0  0
  -29.1520  -21.4240   21.4460 C   0  0  0  0  0  2  0  0  0  0  0  0
  -28.5780  -23.3290   19.2390 C   0  0  0  0  0  2  0  0  0  0  0  0
  -28.6400  -22.8900   21.7110 C   0  0  0  0  0  2  0  0  0  0  0  0
  -28.6400  -20.8670   20.0960 C   0  0  0  0  0  3  0  0  0  0  0  0
  -28.9130  -23.9770   20.6070 C   0  0  0  0  0  3  0  0  0  0  0  0
  -28.4240  -17.4950   18.1430 C   0  0  0  0  0  3  0  0  0  0  0  0
  -29.0410  -16.5640   18.9860 C   0  0  0  0  0  3  0  0  0  0  0  0
  -29.4090  -18.3350   20.6180 C   0  0  0  0  0  3  0  0  0  0  0  0
  -28.8180  -19.3290   19.7470 C   0  0  0  0  0  0  0  0  0  0  0  0
  -28.2690  -18.8420   18.5200 C   0  0  0  0  0  0  0  0  0  0  0  0
  -29.5030  -16.9360   20.2610 C   0  0  0  0  0  0  0  0  0  0  0  0
  -27.4530  -19.6960   17.5570 C   0  0  0  0  0  1  0  0  0  0  0  0
  -30.6990  -14.7670   20.7940 C   0  0  0  0  0  0  0  0  0  0  0  0
  -30.5060  -12.5260   19.7330 C   0  0  0  0  0  2  0  0  0  0  0  0
  -29.6370  -12.5960   18.4620 C   0  0  0  0  0  2  0  0  0  0  0  0
  -28.1440  -12.4380   18.8160 C   0  0  0  0  0  2  0  0  0  0  0  0
  -27.7030  -13.3190   20.0170 C   0  0  0  0  0  3  0  0  0  0  0  0
  -28.7040  -13.2450   21.1890 C   0  0  0  0  0  2  0  0  0  0  0  0
  -30.0310  -13.5790   20.6540 N   0  0  0  0  0  0  0  0  0  0  0  0
  -31.8870  -14.8670   20.4820 O   0  0  0  0  0  0  0  0  0  0  0  0
  -30.0070  -15.8950   21.1530 N   0  0  0  0  0  0  0  0  0  0  0  0
  -30.3700  -16.2780   22.0140 H   0  0  0  0  0  0  0  0  0  0  0  0
  -25.2680  -13.8840   20.5950 C   0  0  0  0  0  0  0  0  0  0  0  0
  -24.1950  -13.0960   20.9130 C   0  0  0  0  0  0  0  0  0  0  0  0
  -24.6820  -11.7520   20.9290 C   0  0  0  0  0  0  0  0  0  0  0  0
  -26.3380  -13.0180   20.4360 N   0  0  0  0  0  0  0  0  0  0  0  0
  -25.9880  -11.7340   20.6980 N   0  0  0  0  0  0  0  0  0  0  0  0
  -23.9700  -10.4800   21.0950 C   0  0  0  0  0  0  0  0  0  0  0  0
  -24.3620   -9.5340   22.0680 C   0  0  0  0  0  3  0  0  0  0  0  0
  -23.6490   -8.3270   22.2210 C   0  0  0  0  0  3  0  0  0  0  0  0
  -22.5280   -8.0550   21.4010 C   0  0  0  0  0  0  0  0  0  0  0  0
  -22.1560   -8.9890   20.4190 C   0  0  0  0  0  3  0  0  0  0  0  0
  -22.8700  -10.1880   20.2630 C   0  0  0  0  0  3  0  0  0  0  0  0
  -21.7900   -6.8980   21.4630 O   0  0  0  0  0  0  0  0  0  0  0  0
  -21.6810   -6.1750   22.6230 C   0  0  0  0  0  0  0  0  0  0  0  0
  -21.1530   -6.7380   23.8050 C   0  0  0  0  0  3  0  0  0  0  0  0
  -20.9940   -5.9390   24.9560 C   0  0  0  0  0  3  0  0  0  0  0  0
  -21.3550   -4.5780   24.9240 C   0  0  0  0  0  0  0  0  0  0  0  0
  -21.8760   -4.0150   23.7450 C   0  0  0  0  0  3  0  0  0  0  0  0
  -22.0360   -4.8110   22.5980 C   0  0  0  0  0  0  0  0  0  0  0  0
  -22.5200   -4.2590   21.4590 F   0  0  0  0  0  0  0  0  0  0  0  0
  -21.1950   -3.8090   26.0260 F   0  0  0  0  0  0  0  0  0  0  0  0
  -22.7760  -13.5510   21.0950 C   0  0  0  0  0  0  0  0  0  0  0  0
  -22.0120  -12.8520   21.9270 N   0  0  0  0  0  0  0  0  0  0  0  0
  -22.3510  -14.5610   20.5350 O   0  0  0  0  0  0  0  0  0  0  0  0
  -22.3680  -12.0360   22.4020 H   0  0  0  0  0  0  0  0  0  0  0  0
  -21.0570  -13.1390   22.0930 H   0  0  0  0  0  0  0  0  0  0  0  0
  -25.4190  -15.2550   20.4070 N   0  0  0  0  0  0  0  0  0  0  0  0
  -24.6400  -15.9000   20.4740 H   0  0  0  0  0  0  0  0  0  0  0  0
  -26.2900  -15.7060   20.1540 H   0  0  0  0  0  0  0  0  0  0  0  0
  -28.1210  -25.3270   20.9200 C   0  0  0  0  0  2  0  0  0  0  0  0
  -28.3610  -26.5970   20.2050 O   0  0  0  0  0  0  0  0  0  0  0  0
  -24.6190  -31.9380   23.2770 C   0  0  0  0  0  0  0  0  0  0  0  0
  -27.2600  -27.4580   20.1680 C   0  0  0  0  0  0  0  0  0  0  0  0
  -23.4240  -30.5530   21.6180 C   0  0  0  0  0  3  0  0  0  0  0  0
  -24.8850  -29.0350   20.1700 C   0  0  0  0  0  0  0  0  0  0  0  0
  -25.9580  -30.8980   21.4370 C   0  0  0  0  0  2  0  0  0  0  0  0
  -26.0490  -29.5300   20.7740 C   0  0  0  0  0  0  0  0  0  0  0  0
  -27.2440  -28.7520   20.7650 C   0  0  0  0  0  3  0  0  0  0  0  0
  -26.0820  -27.0160   19.5280 C   0  0  0  0  0  3  0  0  0  0  0  0
  -24.9020  -27.7820   19.5370 C   0  0  0  0  0  3  0  0  0  0  0  0
  -23.6420  -29.8970   20.2280 C   0  0  0  0  0  2  0  0  0  0  0  0
  -24.6860  -31.1450   22.1680 N   0  0  0  0  0  0  0  0  0  0  0  0
  -23.5350  -32.2020   23.8160 O   0  0  0  0  0  0  0  0  0  0  0  0
  -22.7690  -29.5190   22.5640 C   0  0  0  0  0  0  0  0  0  0  0  0
  -21.4470  -29.3200   22.4190 N   0  0  0  0  0  0  0  0  0  0  0  0
  -23.4480  -28.9000   23.3880 O   0  0  0  0  0  0  0  0  0  0  0  0
  -20.9590  -29.8730   21.7280 H   0  0  0  0  0  0  0  0  0  0  0  0
  -18.0860  -28.0570   22.8560 C   0  0  0  0  0  0  0  0  0  0  0  0
  -20.6330  -28.3660   23.1740 C   0  0  0  0  0  3  0  0  0  0  0  0
  -20.7740  -26.9380   22.6010 C   0  0  0  0  0  2  0  0  0  0  0  0
  -19.6980  -26.5940   21.5660 C   0  0  0  0  0  2  0  0  0  0  0  0
  -18.3010  -26.7120   22.1840 C   0  0  0  0  0  2  0  0  0  0  0  0
  -19.1810  -28.8410   23.3060 C   0  0  0  0  0  0  0  0  0  0  0  0
  -18.9270  -30.0990   23.8940 C   0  0  0  0  0  3  0  0  0  0  0  0
  -17.6100  -30.5750   24.0350 C   0  0  0  0  0  3  0  0  0  0  0  0
  -16.5290  -29.7890   23.6010 C   0  0  0  0  0  3  0  0  0  0  0  0
  -16.7680  -28.5310   23.0180 C   0  0  0  0  0  3  0  0  0  0  0  0
  -25.9000  -32.5690   23.9080 C   0  0  0  0  0  3  0  0  0  0  0  0
  -25.5860  -33.9640   24.2470 N   0  0  0  0  0  0  0  0  0  0  0  0
  -25.9210  -35.0230   23.4990 C   0  0  0  0  0  0  0  0  0  0  0  0
  -26.5970  -34.9290   22.4710 O   0  0  0  0  0  0  0  0  0  0  0  0
  -24.9860  -34.1110   25.0460 H   0  0  0  0  0  0  0  0  0  0  0  0
  -24.2000  -36.8220   23.1410 C   0  0  0  0  0  1  0  0  0  0  0  0
  -25.4290  -36.4070   23.9650 C   0  0  0  0  0  3  0  0  0  0  0  0
  -27.5510  -37.2810   24.8390 C   0  0  0  0  0  1  0  0  0  0  0  0
  -26.4640  -37.4600   23.8790 N   0  0  0  0  0  0  0  0  0  0  0  0
  -26.0570  -38.3790   24.0280 H   0  0  0  0  0  0  0  0  0  0  0  0
  -26.4140  -31.7890   25.1790 C   0  0  1  0  0  0  0  0  0  0  0  0
  -25.3180  -31.5400   26.2420 C   0  0  0  0  0  1  0  0  0  0  0  0
  -27.0030  -30.4160   24.7790 C   0  0  0  0  0  1  0  0  0  0  0  0
  -27.5600  -32.5810   25.8500 C   0  0  0  0  0  1  0  0  0  0  0  0
  1  3  1  0
  1  5  1  0
  2  4  1  0
  3  6  1  0
  5 10  1  0
  5  2  1  0
  6 52  1  0
  6  4  1  0
  7 11  2  0
  7  8  1  0
  8 12  2  0
 10  9  2  0
 11 10  1  0
 12  9  1  0
 12 22  1  0
 13 11  1  0
 14 22  1  0
 15 20  1  0
 16 17  1  0
 16 15  1  0
 18 17  1  0
 18 27  1  0
 18 19  1  0
 20 14  1  0
 20 19  1  0
 21 14  2  0
 22 23  1  0
 24 25  2  0
 25 26  1  0
 25 44  1  0
 26 29  1  0
 27 24  1  0
 27 28  1  0
 28 26  2  0
 29 30  1  0
 30 31  2  0
 32 35  1  0
 32 31  1  0
 33 32  2  0
 34 33  1  0
 34 29  2  0
 35 36  1  0
 36 37  1  0
 37 38  2  0
 39 38  1  0
 39 43  1  0
 40 39  2  0
 41 36  2  0
 41 40  1  0
 42 41  1  0
 44 45  1  0
 45 48  1  0
 45 47  1  0
 46 44  2  0
 49 50  1  0
 49 24  1  0
 51 49  1  0
 53 52  1  0
 54 65  2  0
 55 53  1  0
 55 60  1  0
 56 64  1  0
 56 66  1  0
 57 63  1  0
 57 59  1  0
 58 64  1  0
 59 58  1  0
 60 59  2  0
 61 62  1  0
 61 55  2  0
 62 57  2  0
 63 56  1  0
 64 54  1  0
 66 68  2  0
 67 66  1  0
 69 67  1  0
 70 79  2  0
 70 75  1  0
 71 67  1  0
 71 75  1  0
 72 71  1  0
 73 74  1  0
 73 72  1  0
 74 70  1  0
 75 76  2  0
 76 77  1  0
 78 77  2  0
 79 78  1  0
 80 54  1  0
 80 81  1  0
 80 90  1  0
 81 84  1  0
 82 86  1  0
 82 81  1  0
 83 82  2  0
 86 85  1  0
 88 86  1  0
 88 89  1  0
 88 87  1  0
 90 93  1  1
 90 91  1  0
 92 90  1  0
M  ISO  4  14 100  22 100  52 101  53 101
M  END
>  <TORSDO>  (67) 
F 18

>  <SCORE>  (67) 
-14.958

>  <name>  (67) 
66

>  <ligand_id>  (67) 
66

>  <original_smiles>  (67) 
[H]c1c([H])c([H])c2c(c1[H])C([H])([H])C([H])([H])C([H])([H])C2([H])N([H])C(=O)C1([H])N(C(=O)C([H])(N([H])C(=O)C([H])(N([H])C([H])([H])[H])C([H])([H])[H])C(C([H])([H])[H])(C([H])([H])[H])C([H])([H])[H])C([H])([H])c2c([H])c(OC([H])([H])C3([H])C([H])([H])C([H])([H])C([H])(c4c([H])c(N([H])C(=O)N5C([H])([H])C([H])([H])C([H])([H])C([H])(n6nc(-c7c([H])c([H])c(Oc8c([H])c([H])c(F)c([H])c8F)c([H])c7[H])c(C(=O)N([H])[H])c6N([H])[H])C5([H])[H])c([H])c([H])c4C([H])([H])[H])C([H])([H])C3([H])[H])c([H])c([H])c2C1([H])[H]

>  <smiles>  (67) 
[H]c1c([H])c([H])c2c(c1[H])C([H])([H])C([H])([H])C([H])([H])C2([H])N([H])C(=O)C1([H])N(C(=O)C([H])(N([H])C(=O)C([H])(N([H])C([H])([H])[H])C([H])([H])[H])C(C([H])([H])[H])(C([H])([H])[H])C([H])([H])[H])C([H])([H])c2c([H])c(OC([H])([H])C3([H])C([H])([H])C([H])([H])C([H])(c4c([H])c(N([H])C(=O)N5C([H])([H])C([H])([H])C([H])([H])C([H])(n6nc(-c7c([H])c([H])c(Oc8c([H])c([H])c(F)c([H])c8F)c([H])c7[H])c(C(=O)N([H])[H])c6N([H])[H])C5([H])[H])c([H])c([H])c4C([H])([H])[H])C([H])([H])C3([H])[H])c([H])c([H])c2C1([H])[H]

$$$$
67:0:0
     RDKit          3D

 92100  0  0  1  0  0  0  0  0999 V2000
  -29.4180  -21.1570   20.6540 C   0  0  0  0  0  3  0  0  0  0  0  0
  -28.3240  -21.8480   20.2500 C   0  0  0  0  0  3  0  0  0  0  0  0
  -30.4500  -19.1150   21.6690 C   0  0  0  0  0  3  0  0  0  0  0  0
  -30.6530  -17.7190   21.8030 C   0  0  0  0  0  3  0  0  0  0  0  0
  -29.2370  -17.3490   19.8770 C   0  0  0  0  0  3  0  0  0  0  0  0
  -29.6300  -19.6660   20.6510 C   0  0  0  0  0  0  0  0  0  0  0  0
  -29.0370  -18.7470   19.7340 C   0  0  0  0  0  0  0  0  0  0  0  0
  -30.0360  -16.8160   20.9110 C   0  0  0  0  0  0  0  0  0  0  0  0
  -28.2100  -19.2030   18.5450 C   0  0  0  0  0  1  0  0  0  0  0  0
  -30.6770  -14.4990   20.2890 C   0  0  0  0  0  0  0  0  0  0  0  0
  -30.3360  -12.3780   19.0600 C   0  0  0  0  0  2  0  0  0  0  0  0
  -29.3520  -12.6230   17.8960 C   0  0  0  0  0  2  0  0  0  0  0  0
  -27.8910  -12.4780   18.3640 C   0  0  0  0  0  2  0  0  0  0  0  0
  -27.6040  -13.2660   19.6700 C   0  0  0  0  0  3  0  0  0  0  0  0
  -28.6960  -12.9950   20.7320 C   0  0  0  0  0  2  0  0  0  0  0  0
  -30.0070  -13.3190   20.1440 N   0  0  0  0  0  0  0  0  0  0  0  0
  -31.7300  -14.7470   19.6920 O   0  0  0  0  0  0  0  0  0  0  0  0
  -30.1050  -15.4000   21.1160 N   0  0  0  0  0  0  0  0  0  0  0  0
  -29.3600  -15.0140   21.6740 H   0  0  0  0  0  0  0  0  0  0  0  0
  -25.2220  -13.8600   20.4450 C   0  0  0  0  0  0  0  0  0  0  0  0
  -24.1660  -13.0810   20.8390 C   0  0  0  0  0  0  0  0  0  0  0  0
  -24.6270  -11.7310   20.7810 C   0  0  0  0  0  0  0  0  0  0  0  0
  -26.2630  -12.9820   20.1810 N   0  0  0  0  0  0  0  0  0  0  0  0
  -25.9090  -11.6960   20.4380 N   0  0  0  0  0  0  0  0  0  0  0  0
  -23.9100  -10.4660   20.9820 C   0  0  0  0  0  0  0  0  0  0  0  0
  -24.3630   -9.5010   21.9080 C   0  0  0  0  0  3  0  0  0  0  0  0
  -23.6480   -8.2990   22.0970 C   0  0  0  0  0  3  0  0  0  0  0  0
  -22.4640   -8.0530   21.3610 C   0  0  0  0  0  0  0  0  0  0  0  0
  -22.0320   -9.0060   20.4220 C   0  0  0  0  0  3  0  0  0  0  0  0
  -22.7470  -10.2000   20.2300 C   0  0  0  0  0  3  0  0  0  0  0  0
  -21.7180   -6.9030   21.4600 O   0  0  0  0  0  0  0  0  0  0  0  0
  -21.6780   -6.1700   22.6190 C   0  0  0  0  0  0  0  0  0  0  0  0
  -21.2400   -6.7280   23.8390 C   0  0  0  0  0  3  0  0  0  0  0  0
  -21.1480   -5.9210   24.9910 C   0  0  0  0  0  3  0  0  0  0  0  0
  -21.4800   -4.5540   24.9200 C   0  0  0  0  0  0  0  0  0  0  0  0
  -21.9110   -3.9950   23.7040 C   0  0  0  0  0  3  0  0  0  0  0  0
  -22.0060   -4.8000   22.5560 C   0  0  0  0  0  0  0  0  0  0  0  0
  -22.4000   -4.2520   21.3820 F   0  0  0  0  0  0  0  0  0  0  0  0
  -21.3850   -3.7750   26.0230 F   0  0  0  0  0  0  0  0  0  0  0  0
  -22.7740  -13.5510   21.1530 C   0  0  0  0  0  0  0  0  0  0  0  0
  -22.0720  -12.8430   22.0320 N   0  0  0  0  0  0  0  0  0  0  0  0
  -22.3200  -14.5810   20.6560 O   0  0  0  0  0  0  0  0  0  0  0  0
  -22.4500  -12.0120   22.4610 H   0  0  0  0  0  0  0  0  0  0  0  0
  -21.1380  -13.1400   22.2790 H   0  0  0  0  0  0  0  0  0  0  0  0
  -25.3770  -15.2320   20.2740 N   0  0  0  0  0  0  0  0  0  0  0  0
  -24.6180  -15.8890   20.4230 H   0  0  0  0  0  0  0  0  0  0  0  0
  -26.2280  -15.6790   19.9550 H   0  0  0  0  0  0  0  0  0  0  0  0
  -28.0640  -23.3720   20.2360 C   0  0  0  0  0  2  0  0  0  0  0  0
  -29.1380  -24.3180   20.8400 C   0  0  0  0  0  2  0  0  0  0  0  0
  -29.6880  -26.3730   22.2160 C   0  0  0  0  0  1  0  0  0  0  0  0
  -28.6500  -25.7390   21.2810 C   0  0  0  0  0  3  0  0  0  0  0  0
  -28.4770  -26.6730   20.2000 O   0  0  0  0  0  0  0  0  0  0  0  0
  -24.6040  -31.8930   23.2430 C   0  0  0  0  0  0  0  0  0  0  0  0
  -27.3240  -27.4310   20.2370 C   0  0  0  0  0  0  0  0  0  0  0  0
  -23.4310  -30.4660   21.5970 C   0  0  0  0  0  3  0  0  0  0  0  0
  -24.9170  -28.9200   20.2060 C   0  0  0  0  0  0  0  0  0  0  0  0
  -25.9560  -30.8410   21.4270 C   0  0  0  0  0  2  0  0  0  0  0  0
  -26.0630  -29.4600   20.8080 C   0  0  0  0  0  0  0  0  0  0  0  0
  -27.2690  -28.7200   20.8240 C   0  0  0  0  0  3  0  0  0  0  0  0
  -26.1660  -26.9110   19.6260 C   0  0  0  0  0  3  0  0  0  0  0  0
  -24.9650  -27.6470   19.6120 C   0  0  0  0  0  3  0  0  0  0  0  0
  -23.6630  -29.7640   20.2310 C   0  0  0  0  0  2  0  0  0  0  0  0
  -24.6820  -31.0840   22.1470 N   0  0  0  0  0  0  0  0  0  0  0  0
  -23.5150  -32.1590   23.7700 O   0  0  0  0  0  0  0  0  0  0  0  0
  -22.7730  -29.4520   22.5600 C   0  0  0  0  0  0  0  0  0  0  0  0
  -21.4500  -29.2650   22.4190 N   0  0  0  0  0  0  0  0  0  0  0  0
  -23.4490  -28.8310   23.3860 O   0  0  0  0  0  0  0  0  0  0  0  0
  -20.9680  -29.8060   21.7150 H   0  0  0  0  0  0  0  0  0  0  0  0
  -18.0710  -28.0830   22.9100 C   0  0  0  0  0  0  0  0  0  0  0  0
  -20.6280  -28.3300   23.1850 C   0  0  0  0  0  3  0  0  0  0  0  0
  -20.7290  -26.9000   22.6060 C   0  0  0  0  0  2  0  0  0  0  0  0
  -19.6260  -26.5840   21.5910 C   0  0  0  0  0  2  0  0  0  0  0  0
  -18.2430  -26.7330   22.2360 C   0  0  0  0  0  2  0  0  0  0  0  0
  -19.1910  -28.8420   23.3420 C   0  0  0  0  0  0  0  0  0  0  0  0
  -18.9750  -30.1090   23.9270 C   0  0  0  0  0  3  0  0  0  0  0  0
  -17.6700  -30.6090   24.0970 C   0  0  0  0  0  3  0  0  0  0  0  0
  -16.5650  -29.8450   23.6860 C   0  0  0  0  0  3  0  0  0  0  0  0
  -16.7670  -28.5870   23.0920 C   0  0  0  0  0  3  0  0  0  0  0  0
  -25.8780  -32.5390   23.8770 C   0  0  0  0  0  3  0  0  0  0  0  0
  -26.3870  -31.7740   25.1610 C   0  0  1  0  0  0  0  0  0  0  0  0
  -25.2850  -31.5290   26.2180 C   0  0  0  0  0  1  0  0  0  0  0  0
  -26.9870  -30.4010   24.7800 C   0  0  0  0  0  1  0  0  0  0  0  0
  -27.5250  -32.5780   25.8330 C   0  0  0  0  0  1  0  0  0  0  0  0
  -25.5580  -33.9350   24.1960 N   0  0  0  0  0  0  0  0  0  0  0  0
  -25.8920  -34.9850   23.4350 C   0  0  0  0  0  0  0  0  0  0  0  0
  -26.5750  -34.8790   22.4130 O   0  0  0  0  0  0  0  0  0  0  0  0
  -24.9670  -34.0950   24.9990 H   0  0  0  0  0  0  0  0  0  0  0  0
  -24.1630  -36.7650   23.0350 C   0  0  0  0  0  1  0  0  0  0  0  0
  -25.3890  -36.3730   23.8750 C   0  0  0  0  0  3  0  0  0  0  0  0
  -27.5010  -37.2720   24.7480 C   0  0  0  0  0  1  0  0  0  0  0  0
  -26.4190  -37.4310   23.7790 N   0  0  0  0  0  0  0  0  0  0  0  0
  -26.0060  -38.3510   23.9100 H   0  0  0  0  0  0  0  0  0  0  0  0
  2  1  2  0
  3  4  1  0
  5  8  1  0
  6  1  1  0
  6  3  2  0
  7  5  2  0
  7  6  1  0
  8 18  1  0
  8  4  2  0
  9  7  1  0
 10 18  1  0
 11 16  1  0
 12 13  1  0
 12 11  1  0
 14 13  1  0
 14 23  1  0
 14 15  1  0
 16 10  1  0
 16 15  1  0
 17 10  2  0
 18 19  1  0
 20 21  2  0
 21 40  1  0
 22 21  1  0
 22 25  1  0
 23 24  1  0
 23 20  1  0
 24 22  2  0
 25 26  1  0
 26 27  2  0
 28 31  1  0
 28 27  1  0
 29 28  2  0
 30 29  1  0
 30 25  2  0
 31 32  1  0
 32 33  1  0
 33 34  2  0
 35 34  1  0
 35 39  1  0
 36 35  2  0
 37 32  2  0
 37 36  1  0
 38 37  1  0
 40 41  1  0
 41 44  1  0
 41 43  1  0
 42 40  2  0
 45 46  1  0
 45 20  1  0
 47 45  1  0
 48  2  1  0
 48 49  1  0
 49 51  1  0
 51 50  1  0
 52 54  1  0
 52 51  1  0
 53 64  2  0
 54 59  1  0
 55 63  1  0
 55 65  1  0
 56 62  1  0
 56 58  1  0
 57 63  1  0
 58 59  2  0
 58 57  1  0
 60 54  2  0
 61 60  1  0
 61 56  2  0
 62 55  1  0
 63 53  1  0
 65 67  2  0
 66 65  1  0
 68 66  1  0
 69 78  2  0
 69 74  1  0
 70 66  1  0
 70 74  1  0
 71 70  1  0
 72 73  1  0
 72 71  1  0
 73 69  1  0
 74 75  2  0
 75 76  1  0
 77 76  2  0
 78 77  1  0
 79 53  1  0
 79 84  1  0
 79 80  1  0
 80 83  1  1
 80 81  1  0
 82 80  1  0
 84 87  1  0
 85 89  1  0
 85 84  1  0
 86 85  2  0
 89 88  1  0
 91 89  1  0
 91 92  1  0
 91 90  1  0
M  ISO  4  10 100  18 100  51 101  52 101
M  END
>  <TORSDO>  (68) 
F 20

>  <SCORE>  (68) 
-14.138

>  <name>  (68) 
67

>  <ligand_id>  (68) 
67

>  <original_smiles>  (68) 
[H]C(=C([H])C([H])([H])C([H])([H])C([H])(Oc1c([H])c([H])c2c(c1[H])C([H])([H])N(C(=O)C([H])(N([H])C(=O)C([H])(N([H])C([H])([H])[H])C([H])([H])[H])C(C([H])([H])[H])(C([H])([H])[H])C([H])([H])[H])C([H])(C(=O)N([H])C1([H])c3c([H])c([H])c([H])c([H])c3C([H])([H])C([H])([H])C1([H])[H])C2([H])[H])C([H])([H])[H])c1c([H])c([H])c(N([H])C(=O)N2C([H])([H])C([H])([H])C([H])([H])C([H])(n3nc(-c4c([H])c([H])c(Oc5c([H])c([H])c(F)c([H])c5F)c([H])c4[H])c(C(=O)N([H])[H])c3N([H])[H])C2([H])[H])c([H])c1C([H])([H])[H]

>  <smiles>  (68) 
[H]C(=C([H])C([H])([H])C([H])([H])C([H])(Oc1c([H])c([H])c2c(c1[H])C([H])([H])N(C(=O)C([H])(N([H])C(=O)C([H])(N([H])C([H])([H])[H])C([H])([H])[H])C(C([H])([H])[H])(C([H])([H])[H])C([H])([H])[H])C([H])(C(=O)N([H])C1([H])c3c([H])c([H])c([H])c([H])c3C([H])([H])C([H])([H])C1([H])[H])C2([H])[H])C([H])([H])[H])c1c([H])c([H])c(N([H])C(=O)N2C([H])([H])C([H])([H])C([H])([H])C([H])(n3nc(-c4c([H])c([H])c(Oc5c([H])c([H])c(F)c([H])c5F)c([H])c4[H])c(C(=O)N([H])[H])c3N([H])[H])C2([H])[H])c([H])c1C([H])([H])[H]

$$$$
68:0:0
     RDKit          3D

 95103  0  0  1  0  0  0  0  0999 V2000
  -31.9650  -18.8540   19.1120 C   0  0  0  0  0  3  0  0  0  0  0  0
  -30.1660  -18.4210   21.1780 C   0  0  0  0  0  3  0  0  0  0  0  0
  -31.2910  -17.6050   19.1820 C   0  0  0  0  0  0  0  0  0  0  0  0
  -31.7050  -19.9030   20.0230 C   0  0  0  0  0  0  0  0  0  0  0  0
  -30.4900  -17.3140   20.3330 C   0  0  0  0  0  0  0  0  0  0  0  0
  -30.6730  -19.7270   20.9700 C   0  0  0  0  0  0  0  0  0  0  0  0
  -29.8300  -15.9710   20.6300 C   0  0  0  0  0  3  0  0  0  0  0  0
  -28.6060  -16.0260   20.9590 N   0  0  0  0  0  2  0  0  0  0  0  0
  -28.2970  -16.9900   20.9450 H   0  0  0  0  0  0  0  0  0  0  0  0
  -30.6770  -14.6370   20.5100 C   0  0  0  0  0  0  0  0  0  0  0  0
  -30.4630  -12.4020   19.4710 C   0  0  0  0  0  2  0  0  0  0  0  0
  -29.5490  -12.4940   18.2280 C   0  0  0  0  0  2  0  0  0  0  0  0
  -28.0710  -12.3100   18.6290 C   0  0  0  0  0  2  0  0  0  0  0  0
  -27.6740  -13.2100   19.8260 C   0  0  0  0  0  3  0  0  0  0  0  0
  -28.7000  -13.0760   20.9750 C   0  0  0  0  0  2  0  0  0  0  0  0
  -30.0230  -13.4310   20.4380 N   0  0  0  0  0  0  0  0  0  0  0  0
  -31.8860  -14.7080   20.2700 O   0  0  0  0  0  0  0  0  0  0  0  0
  -25.2740  -13.8530   20.4730 C   0  0  0  0  0  0  0  0  0  0  0  0
  -24.1890  -13.0890   20.8180 C   0  0  0  0  0  0  0  0  0  0  0  0
  -24.6490  -11.7380   20.8300 C   0  0  0  0  0  0  0  0  0  0  0  0
  -26.3160  -12.9600   20.2840 N   0  0  0  0  0  0  0  0  0  0  0  0
  -25.9460  -11.6870   20.5660 N   0  0  0  0  0  0  0  0  0  0  0  0
  -23.9190  -10.4810   21.0190 C   0  0  0  0  0  0  0  0  0  0  0  0
  -24.3350   -9.5280   21.9750 C   0  0  0  0  0  3  0  0  0  0  0  0
  -23.6080   -8.3310   22.1510 C   0  0  0  0  0  3  0  0  0  0  0  0
  -22.4550   -8.0800   21.3720 C   0  0  0  0  0  0  0  0  0  0  0  0
  -22.0640   -9.0210   20.4020 C   0  0  0  0  0  3  0  0  0  0  0  0
  -22.7900  -10.2090   20.2220 C   0  0  0  0  0  3  0  0  0  0  0  0
  -21.7030   -6.9350   21.4560 O   0  0  0  0  0  0  0  0  0  0  0  0
  -21.6280   -6.2080   22.6170 C   0  0  0  0  0  0  0  0  0  0  0  0
  -21.1800   -6.7790   23.8280 C   0  0  0  0  0  3  0  0  0  0  0  0
  -21.0490   -5.9750   24.9780 C   0  0  0  0  0  3  0  0  0  0  0  0
  -21.3620   -4.6050   24.9200 C   0  0  0  0  0  0  0  0  0  0  0  0
  -21.8070   -4.0350   23.7150 C   0  0  0  0  0  3  0  0  0  0  0  0
  -21.9380   -4.8340   22.5660 C   0  0  0  0  0  0  0  0  0  0  0  0
  -22.3470   -4.2760   21.4010 F   0  0  0  0  0  0  0  0  0  0  0  0
  -21.2310   -3.8300   26.0220 F   0  0  0  0  0  0  0  0  0  0  0  0
  -22.7870  -13.5750   21.0430 C   0  0  0  0  0  0  0  0  0  0  0  0
  -22.0380  -12.8880   21.9000 N   0  0  0  0  0  0  0  0  0  0  0  0
  -22.3640  -14.5920   20.4950 O   0  0  0  0  0  0  0  0  0  0  0  0
  -22.4010  -12.0730   22.3710 H   0  0  0  0  0  0  0  0  0  0  0  0
  -21.0900  -13.1800   22.0890 H   0  0  0  0  0  0  0  0  0  0  0  0
  -25.4550  -15.2180   20.2830 N   0  0  0  0  0  0  0  0  0  0  0  0
  -24.7150  -15.8970   20.4190 H   0  0  0  0  0  0  0  0  0  0  0  0
  -26.3820  -15.6310   20.2160 H   0  0  0  0  0  0  0  0  0  0  0  0
  -33.4640  -21.5370   19.1960 C   0  0  0  0  0  2  0  0  0  0  0  0
  -32.4620  -21.1770   20.0160 C   0  0  0  0  0  3  0  0  0  0  0  0
  -32.2830  -16.7200   17.0240 C   0  0  0  0  0  2  0  0  0  0  0  0
  -31.4060  -16.6650   18.0400 C   0  0  0  0  0  3  0  0  0  0  0  0
  -30.1730  -20.7970   21.6990 O   0  0  0  0  0  0  0  0  0  0  0  0
  -29.4290  -21.7660   20.9220 C   0  0  0  0  0  2  0  0  0  0  0  0
  -29.3800  -23.1880   21.5500 C   0  0  0  0  0  2  0  0  0  0  0  0
  -28.9150  -24.3040   20.5630 C   0  0  0  0  0  2  0  0  0  0  0  0
  -28.5820  -25.6790   21.2030 C   0  0  0  0  0  2  0  0  0  0  0  0
  -28.4890  -26.7240   20.2180 O   0  0  0  0  0  0  0  0  0  0  0  0
  -24.6200  -31.8990   23.2410 C   0  0  0  0  0  0  0  0  0  0  0  0
  -27.3200  -27.4530   20.2290 C   0  0  0  0  0  0  0  0  0  0  0  0
  -23.4330  -30.4790   21.5990 C   0  0  0  0  0  3  0  0  0  0  0  0
  -24.9110  -28.9340   20.2040 C   0  0  0  0  0  0  0  0  0  0  0  0
  -25.9570  -30.8560   21.4150 C   0  0  0  0  0  2  0  0  0  0  0  0
  -26.0600  -29.4810   20.7870 C   0  0  0  0  0  0  0  0  0  0  0  0
  -27.2710  -28.7500   20.7950 C   0  0  0  0  0  3  0  0  0  0  0  0
  -26.1560  -26.9150   19.6440 C   0  0  0  0  0  3  0  0  0  0  0  0
  -24.9500  -27.6480   19.6360 C   0  0  0  0  0  3  0  0  0  0  0  0
  -23.6560  -29.7830   20.2280 C   0  0  0  0  0  2  0  0  0  0  0  0
  -24.6880  -31.0920   22.1450 N   0  0  0  0  0  0  0  0  0  0  0  0
  -23.5330  -32.1670   23.7700 O   0  0  0  0  0  0  0  0  0  0  0  0
  -22.7780  -29.4600   22.5590 C   0  0  0  0  0  0  0  0  0  0  0  0
  -21.4530  -29.2780   22.4260 N   0  0  0  0  0  0  0  0  0  0  0  0
  -23.4570  -28.8380   23.3790 O   0  0  0  0  0  0  0  0  0  0  0  0
  -20.9650  -29.8330   21.7370 H   0  0  0  0  0  0  0  0  0  0  0  0
  -18.0750  -28.0970   22.9250 C   0  0  0  0  0  0  0  0  0  0  0  0
  -20.6350  -28.3450   23.1990 C   0  0  0  0  0  3  0  0  0  0  0  0
  -20.7310  -26.9140   22.6240 C   0  0  0  0  0  2  0  0  0  0  0  0
  -19.6270  -26.5940   21.6090 C   0  0  0  0  0  2  0  0  0  0  0  0
  -18.2450  -26.7470   22.2480 C   0  0  0  0  0  2  0  0  0  0  0  0
  -19.1980  -28.8550   23.3550 C   0  0  0  0  0  0  0  0  0  0  0  0
  -18.9860  -30.1200   23.9440 C   0  0  0  0  0  3  0  0  0  0  0  0
  -17.6840  -30.6310   24.1060 C   0  0  0  0  0  3  0  0  0  0  0  0
  -16.5760  -29.8700   23.6940 C   0  0  0  0  0  3  0  0  0  0  0  0
  -16.7720  -28.6050   23.1120 C   0  0  0  0  0  3  0  0  0  0  0  0
  -25.8980  -32.5380   23.8660 C   0  0  0  0  0  3  0  0  0  0  0  0
  -25.5820  -33.9370   24.1880 N   0  0  0  0  0  0  0  0  0  0  0  0
  -25.9140  -34.9860   23.4250 C   0  0  0  0  0  0  0  0  0  0  0  0
  -26.5900  -34.8820   22.3970 O   0  0  0  0  0  0  0  0  0  0  0  0
  -24.9790  -34.0930   24.9820 H   0  0  0  0  0  0  0  0  0  0  0  0
  -24.1740  -36.7630   23.0490 C   0  0  0  0  0  1  0  0  0  0  0  0
  -25.4140  -36.3730   23.8710 C   0  0  0  0  0  3  0  0  0  0  0  0
  -27.5350  -37.2740   24.7100 C   0  0  0  0  0  1  0  0  0  0  0  0
  -26.4380  -37.4340   23.7600 N   0  0  0  0  0  0  0  0  0  0  0  0
  -26.0250  -38.3510   23.9090 H   0  0  0  0  0  0  0  0  0  0  0  0
  -26.4150  -31.7740   25.1480 C   0  0  1  0  0  0  0  0  0  0  0  0
  -25.3130  -31.5100   26.2020 C   0  0  0  0  0  1  0  0  0  0  0  0
  -27.0290  -30.4070   24.7630 C   0  0  0  0  0  1  0  0  0  0  0  0
  -27.5450  -32.5860   25.8230 C   0  0  0  0  0  1  0  0  0  0  0  0
  1  3  2  0
  1  4  1  0
  3  5  1  0
  4  6  2  0
  5  7  1  0
  5  2  2  0
  6  2  1  0
  6 50  1  0
  7 10  1  0
  7  8  1  0
  9  8  1  0
 11 16  1  0
 12 13  1  0
 12 11  1  0
 14 13  1  0
 14 21  1  0
 14 15  1  0
 16 10  1  0
 16 15  1  0
 17 10  2  0
 18 19  2  0
 19 20  1  0
 19 38  1  0
 20 23  1  0
 21 18  1  0
 21 22  1  0
 22 20  2  0
 23 24  1  0
 24 25  2  0
 26 29  1  0
 26 25  1  0
 27 26  2  0
 28 27  1  0
 28 23  2  0
 29 30  1  0
 30 31  1  0
 31 32  2  0
 33 32  1  0
 33 37  1  0
 34 33  2  0
 35 30  2  0
 35 34  1  0
 36 35  1  0
 38 39  1  0
 39 42  1  0
 39 41  1  0
 40 38  2  0
 43 44  1  0
 43 18  1  0
 45 43  1  0
 46 47  2  0
 47  4  1  0
 48 49  2  0
 49  3  1  0
 51 52  1  0
 51 50  1  0
 53 54  1  0
 53 52  1  0
 55 57  1  0
 55 54  1  0
 56 67  2  0
 57 62  1  0
 58 66  1  0
 58 68  1  0
 59 65  1  0
 59 61  1  0
 60 66  1  0
 61 62  2  0
 61 60  1  0
 63 57  2  0
 64 63  1  0
 64 59  2  0
 65 58  1  0
 66 56  1  0
 68 70  2  0
 69 68  1  0
 71 69  1  0
 72 81  2  0
 72 77  1  0
 73 69  1  0
 73 77  1  0
 74 73  1  0
 75 76  1  0
 75 74  1  0
 76 72  1  0
 77 78  2  0
 78 79  1  0
 80 79  2  0
 81 80  1  0
 82 56  1  0
 82 83  1  0
 82 92  1  0
 83 86  1  0
 84 88  1  0
 84 83  1  0
 85 84  2  0
 88 87  1  0
 90 88  1  0
 90 91  1  0
 90 89  1  0
 92 95  1  1
 92 93  1  0
 94 92  1  0
M  ISO  4   7 100  10 100  54 101  55 101
M  END
>  <TORSDO>  (69) 
F 24

>  <SCORE>  (69) 
-12.634

>  <name>  (69) 
68

>  <ligand_id>  (69) 
68

>  <original_smiles>  (69) 
[H]N=C(C(=O)N1C([H])([H])C([H])([H])C([H])([H])C([H])(n2nc(-c3c([H])c([H])c(Oc4c([H])c([H])c(F)c([H])c4F)c([H])c3[H])c(C(=O)N([H])[H])c2N([H])[H])C1([H])[H])c1c([H])c(OC([H])([H])C([H])([H])C([H])([H])C([H])([H])Oc2c([H])c([H])c3c(c2[H])C([H])([H])N(C(=O)C([H])(N([H])C(=O)C([H])(N([H])C([H])([H])[H])C([H])([H])[H])C(C([H])([H])[H])(C([H])([H])[H])C([H])([H])[H])C([H])(C(=O)N([H])C2([H])c4c([H])c([H])c([H])c([H])c4C([H])([H])C([H])([H])C2([H])[H])C3([H])[H])c(C([H])=C([H])[H])c([H])c1C([H])=C([H])[H]

>  <smiles>  (69) 
[H]N=C(C(=O)N1C([H])([H])C([H])([H])C([H])([H])C([H])(n2nc(-c3c([H])c([H])c(Oc4c([H])c([H])c(F)c([H])c4F)c([H])c3[H])c(C(=O)N([H])[H])c2N([H])[H])C1([H])[H])c1c([H])c(OC([H])([H])C([H])([H])C([H])([H])C([H])([H])Oc2c([H])c([H])c3c(c2[H])C([H])([H])N(C(=O)C([H])(N([H])C(=O)C([H])(N([H])C([H])([H])[H])C([H])([H])[H])C(C([H])([H])[H])(C([H])([H])[H])C([H])([H])[H])C([H])(C(=O)N([H])C2([H])c4c([H])c([H])c([H])c([H])c4C([H])([H])C([H])([H])C2([H])[H])C3([H])[H])c(C([H])=C([H])[H])c([H])c1C([H])=C([H])[H]

$$$$
69:0:0
     RDKit          3D

 93102  0  0  1  0  0  0  0  0999 V2000
  -28.1000  -23.8060   20.6430 C   0  0  0  0  0  0  0  0  0  0  0  0
  -27.8060  -25.1810   20.7320 C   0  0  0  0  0  3  0  0  0  0  0  0
  -27.0990  -22.8960   21.3440 C   0  0  0  0  0  2  0  0  0  0  0  0
  -29.1910  -22.8510   19.9630 C   0  0  0  0  0  2  0  0  0  0  0  0
  -26.4880  -21.9390   20.3140 C   0  0  0  0  0  2  0  0  0  0  0  0
  -27.4970  -20.9170   19.7630 C   0  0  0  0  0  2  0  0  0  0  0  0
  -28.8990  -21.3280   19.9080 N   0  0  0  0  0  0  0  0  0  0  0  0
  -32.0310  -19.4060   20.8060 C   0  0  0  0  0  3  0  0  0  0  0  0
  -31.1370  -20.4500   20.4960 C   0  0  0  0  0  3  0  0  0  0  0  0
  -29.4990  -18.7570   19.9330 C   0  0  0  0  0  3  0  0  0  0  0  0
  -31.6840  -18.0370   20.7190 C   0  0  0  0  0  0  0  0  0  0  0  0
  -29.8160  -20.1900   20.0830 C   0  0  0  0  0  0  0  0  0  0  0  0
  -30.4080  -17.6380   20.2170 C   0  0  0  0  0  0  0  0  0  0  0  0
  -32.7190  -17.0620   21.2570 C   0  0  0  0  0  1  0  0  0  0  0  0
  -30.7140  -15.0190   19.7720 C   0  0  0  0  0  0  0  0  0  0  0  0
  -30.4070  -12.7280   18.7960 C   0  0  0  0  0  2  0  0  0  0  0  0
  -29.3760  -12.7810   17.6480 C   0  0  0  0  0  2  0  0  0  0  0  0
  -27.9490  -12.6030   18.1980 C   0  0  0  0  0  2  0  0  0  0  0  0
  -27.6710  -13.5050   19.4300 C   0  0  0  0  0  3  0  0  0  0  0  0
  -28.8180  -13.4480   20.4640 C   0  0  0  0  0  2  0  0  0  0  0  0
  -30.0580  -13.8020   19.7610 N   0  0  0  0  0  0  0  0  0  0  0  0
  -31.8480  -15.0730   19.2930 O   0  0  0  0  0  0  0  0  0  0  0  0
  -30.0150  -16.1830   20.1160 N   0  0  0  0  0  0  0  0  0  0  0  0
  -29.0410  -16.0040   20.3050 H   0  0  0  0  0  0  0  0  0  0  0  0
  -25.3690  -14.1000   20.3860 C   0  0  0  0  0  0  0  0  0  0  0  0
  -24.3260  -13.3280   20.8220 C   0  0  0  0  0  0  0  0  0  0  0  0
  -24.7610  -11.9720   20.7050 C   0  0  0  0  0  0  0  0  0  0  0  0
  -26.3730  -13.2150   20.0300 N   0  0  0  0  0  0  0  0  0  0  0  0
  -26.0200  -11.9280   20.2840 N   0  0  0  0  0  0  0  0  0  0  0  0
  -24.0310  -10.7140   20.9150 C   0  0  0  0  0  0  0  0  0  0  0  0
  -24.4620   -9.7600   21.8620 C   0  0  0  0  0  3  0  0  0  0  0  0
  -23.7310   -8.5680   22.0600 C   0  0  0  0  0  3  0  0  0  0  0  0
  -22.5570   -8.3230   21.3100 C   0  0  0  0  0  0  0  0  0  0  0  0
  -22.1460   -9.2670   20.3520 C   0  0  0  0  0  3  0  0  0  0  0  0
  -22.8760  -10.4490   20.1530 C   0  0  0  0  0  3  0  0  0  0  0  0
  -21.7970   -7.1820   21.4170 O   0  0  0  0  0  0  0  0  0  0  0  0
  -21.6820   -6.5030   22.6030 C   0  0  0  0  0  0  0  0  0  0  0  0
  -21.1570   -7.1130   23.7630 C   0  0  0  0  0  3  0  0  0  0  0  0
  -20.9900   -6.3580   24.9410 C   0  0  0  0  0  3  0  0  0  0  0  0
  -21.3390   -4.9940   24.9600 C   0  0  0  0  0  0  0  0  0  0  0  0
  -21.8580   -4.3840   23.8040 C   0  0  0  0  0  3  0  0  0  0  0  0
  -22.0250   -5.1370   22.6280 C   0  0  0  0  0  0  0  0  0  0  0  0
  -22.5050   -4.5380   21.5110 F   0  0  0  0  0  0  0  0  0  0  0  0
  -21.1730   -4.2670   26.0890 F   0  0  0  0  0  0  0  0  0  0  0  0
  -22.9660  -13.8160   21.2300 C   0  0  0  0  0  0  0  0  0  0  0  0
  -22.3000  -13.0970   22.1250 N   0  0  0  0  0  0  0  0  0  0  0  0
  -22.5080  -14.8710   20.7910 O   0  0  0  0  0  0  0  0  0  0  0  0
  -22.6860  -12.2450   22.5030 H   0  0  0  0  0  0  0  0  0  0  0  0
  -21.3910  -13.4060   22.4400 H   0  0  0  0  0  0  0  0  0  0  0  0
  -25.5380  -15.4730   20.2400 N   0  0  0  0  0  0  0  0  0  0  0  0
  -24.7860  -16.1290   20.4230 H   0  0  0  0  0  0  0  0  0  0  0  0
  -26.3540  -15.9120   19.8350 H   0  0  0  0  0  0  0  0  0  0  0  0
  -28.2650  -26.4570   20.2680 O   0  0  0  0  0  0  0  0  0  0  0  0
  -24.5580  -31.9530   23.3210 C   0  0  0  0  0  0  0  0  0  0  0  0
  -27.2400  -27.4420   20.1840 C   0  0  0  0  0  0  0  0  0  0  0  0
  -23.3800  -30.5580   21.6630 C   0  0  0  0  0  3  0  0  0  0  0  0
  -24.8620  -29.0640   20.1970 C   0  0  0  0  0  0  0  0  0  0  0  0
  -25.9200  -30.9120   21.4870 C   0  0  0  0  0  2  0  0  0  0  0  0
  -26.0280  -29.5440   20.8090 C   0  0  0  0  0  0  0  0  0  0  0  0
  -27.2230  -28.7450   20.7980 C   0  0  0  0  0  3  0  0  0  0  0  0
  -26.0560  -27.0500   19.5230 C   0  0  0  0  0  3  0  0  0  0  0  0
  -24.8810  -27.8250   19.5410 C   0  0  0  0  0  3  0  0  0  0  0  0
  -23.6090  -29.9180   20.2690 C   0  0  0  0  0  2  0  0  0  0  0  0
  -24.6380  -31.1600   22.2130 N   0  0  0  0  0  0  0  0  0  0  0  0
  -23.4700  -32.2000   23.8630 O   0  0  0  0  0  0  0  0  0  0  0  0
  -22.7390  -29.5130   22.6070 C   0  0  0  0  0  0  0  0  0  0  0  0
  -21.4180  -29.2980   22.4710 N   0  0  0  0  0  0  0  0  0  0  0  0
  -23.4280  -28.9010   23.4270 O   0  0  0  0  0  0  0  0  0  0  0  0
  -20.9170  -29.8440   21.7850 H   0  0  0  0  0  0  0  0  0  0  0  0
  -18.0740  -27.9940   22.9480 C   0  0  0  0  0  0  0  0  0  0  0  0
  -20.6230  -28.3290   23.2290 C   0  0  0  0  0  3  0  0  0  0  0  0
  -20.7690  -26.9060   22.6410 C   0  0  0  0  0  2  0  0  0  0  0  0
  -19.6810  -26.5610   21.6190 C   0  0  0  0  0  2  0  0  0  0  0  0
  -18.2930  -26.6580   22.2580 C   0  0  0  0  0  2  0  0  0  0  0  0
  -19.1680  -28.7860   23.3900 C   0  0  0  0  0  0  0  0  0  0  0  0
  -18.9070  -30.0340   23.9940 C   0  0  0  0  0  3  0  0  0  0  0  0
  -17.5870  -30.4930   24.1620 C   0  0  0  0  0  3  0  0  0  0  0  0
  -16.5080  -29.6990   23.7360 C   0  0  0  0  0  3  0  0  0  0  0  0
  -16.7530  -28.4520   23.1340 C   0  0  0  0  0  3  0  0  0  0  0  0
  -25.8280  -32.6060   23.9510 C   0  0  0  0  0  3  0  0  0  0  0  0
  -25.5020  -34.0060   24.2590 N   0  0  0  0  0  0  0  0  0  0  0  0
  -25.8470  -35.0540   23.5010 C   0  0  0  0  0  0  0  0  0  0  0  0
  -26.5410  -34.9460   22.4870 O   0  0  0  0  0  0  0  0  0  0  0  0
  -24.8930  -34.1640   25.0490 H   0  0  0  0  0  0  0  0  0  0  0  0
  -24.1340  -36.8460   23.0740 C   0  0  0  0  0  1  0  0  0  0  0  0
  -25.3410  -36.4440   23.9360 C   0  0  0  0  0  3  0  0  0  0  0  0
  -27.4400  -37.3330   24.8510 C   0  0  0  0  0  1  0  0  0  0  0  0
  -26.3770  -37.4990   23.8630 N   0  0  0  0  0  0  0  0  0  0  0  0
  -25.9630  -38.4170   23.9950 H   0  0  0  0  0  0  0  0  0  0  0  0
  -26.3320  -31.8570   25.2450 C   0  0  1  0  0  0  0  0  0  0  0  0
  -25.2260  -31.6190   26.2980 C   0  0  0  0  0  1  0  0  0  0  0  0
  -26.9430  -30.4820   24.8850 C   0  0  0  0  0  1  0  0  0  0  0  0
  -27.4600  -32.6750   25.9170 C   0  0  0  0  0  1  0  0  0  0  0  0
  1  2  2  0
  1  3  1  0
  4  1  1  0
  5  3  1  0
  6  7  1  0
  6  5  1  0
  7  4  1  0
  7 12  1  0
  9  8  2  0
 10 12  2  0
 10 13  1  0
 11  8  1  0
 11 14  1  0
 12  9  1  0
 13 11  2  0
 15 23  1  0
 16 21  1  0
 17 18  1  0
 17 16  1  0
 19 18  1  0
 19 28  1  0
 19 20  1  0
 21 15  1  0
 21 20  1  0
 22 15  2  0
 23 13  1  0
 23 24  1  0
 25 26  2  0
 26 45  1  0
 27 26  1  0
 27 30  1  0
 28 29  1  0
 28 25  1  0
 29 27  2  0
 30 31  1  0
 31 32  2  0
 33 36  1  0
 33 32  1  0
 34 33  2  0
 35 34  1  0
 35 30  2  0
 36 37  1  0
 37 42  2  0
 37 38  1  0
 38 39  2  0
 39 40  1  0
 40 44  1  0
 41 40  2  0
 42 41  1  0
 43 42  1  0
 45 46  1  0
 46 49  1  0
 46 48  1  0
 47 45  2  0
 50 25  1  0
 50 51  1  0
 52 50  1  0
 53  2  1  0
 54 65  2  0
 55 53  1  0
 55 60  1  0
 56 64  1  0
 56 66  1  0
 57 63  1  0
 57 59  1  0
 58 64  1  0
 59 58  1  0
 60 59  2  0
 61 62  1  0
 61 55  2  0
 62 57  2  0
 63 56  1  0
 64 54  1  0
 66 68  2  0
 67 66  1  0
 69 67  1  0
 70 79  2  0
 70 75  1  0
 71 67  1  0
 71 75  1  0
 72 71  1  0
 73 74  1  0
 73 72  1  0
 74 70  1  0
 75 76  2  0
 76 77  1  0
 78 77  2  0
 79 78  1  0
 80 54  1  0
 80 81  1  0
 80 90  1  0
 81 84  1  0
 82 86  1  0
 82 81  1  0
 83 82  2  0
 86 85  1  0
 88 86  1  0
 88 89  1  0
 88 87  1  0
 90 93  1  1
 90 91  1  0
 92 90  1  0
M  ISO  4   2 101  15 100  23 100  53 101
M  END
>  <TORSDO>  (70) 
F 17

>  <SCORE>  (70) 
-12.832

>  <name>  (70) 
69

>  <ligand_id>  (70) 
69

>  <original_smiles>  (70) 
[H]C(Oc1c([H])c([H])c2c(c1[H])C([H])([H])N(C(=O)C([H])(N([H])C(=O)C([H])(N([H])C([H])([H])[H])C([H])([H])[H])C(C([H])([H])[H])(C([H])([H])[H])C([H])([H])[H])C([H])(C(=O)N([H])C1([H])c3c([H])c([H])c([H])c([H])c3C([H])([H])C([H])([H])C1([H])[H])C2([H])[H])=C1C([H])([H])N(c2c([H])c([H])c(C([H])([H])[H])c(N([H])C(=O)N3C([H])([H])C([H])([H])C([H])([H])C([H])(n4nc(-c5c([H])c([H])c(Oc6c([H])c([H])c(F)c([H])c6F)c([H])c5[H])c(C(=O)N([H])[H])c4N([H])[H])C3([H])[H])c2[H])C([H])([H])C([H])([H])C1([H])[H]

>  <smiles>  (70) 
[H]C(Oc1c([H])c([H])c2c(c1[H])C([H])([H])N(C(=O)C([H])(N([H])C(=O)C([H])(N([H])C([H])([H])[H])C([H])([H])[H])C(C([H])([H])[H])(C([H])([H])[H])C([H])([H])[H])C([H])(C(=O)N([H])C1([H])c3c([H])c([H])c([H])c([H])c3C([H])([H])C([H])([H])C1([H])[H])C2([H])[H])=C1C([H])([H])N(c2c([H])c([H])c(C([H])([H])[H])c(N([H])C(=O)N3C([H])([H])C([H])([H])C([H])([H])C([H])(n4nc(-c5c([H])c([H])c(Oc6c([H])c([H])c(F)c([H])c6F)c([H])c5[H])c(C(=O)N([H])[H])c4N([H])[H])C3([H])[H])c2[H])C([H])([H])C([H])([H])C1([H])[H]

$$$$
70:0:0
     RDKit          3D

 93101  0  0  1  0  0  0  0  0999 V2000
  -29.7280  -21.1110   21.9730 C   0  0  0  0  0  3  0  0  0  0  0  0
  -29.0530  -22.1050   21.3480 C   0  0  0  0  0  3  0  0  0  0  0  0
  -30.6890  -18.7840   22.0400 C   0  0  0  0  0  3  0  0  0  0  0  0
  -30.8020  -17.4830   21.4980 C   0  0  0  0  0  3  0  0  0  0  0  0
  -28.9100  -19.2670   20.4860 C   0  0  0  0  0  3  0  0  0  0  0  0
  -29.7580  -19.7040   21.5170 C   0  0  0  0  0  0  0  0  0  0  0  0
  -30.0410  -17.0760   20.3700 C   0  0  0  0  0  0  0  0  0  0  0  0
  -29.0450  -17.9970   19.8930 C   0  0  0  0  0  0  0  0  0  0  0  0
  -28.1090  -17.7420   18.7110 C   0  0  0  0  0  1  0  0  0  0  0  0
  -30.3790  -15.8040   19.6270 C   0  0  0  0  0  3  0  0  0  0  0  0
  -30.1560  -15.7300   18.3830 N   0  0  0  0  0  2  0  0  0  0  0  0
  -29.7140  -16.5820   18.0690 H   0  0  0  0  0  0  0  0  0  0  0  0
  -31.1300  -14.6470   20.3090 C   0  0  0  0  0  0  0  0  0  0  0  0
  -30.8120  -12.3830   19.4130 C   0  0  0  0  0  2  0  0  0  0  0  0
  -29.9010  -12.4640   18.1690 C   0  0  0  0  0  2  0  0  0  0  0  0
  -28.4070  -12.4550   18.5590 C   0  0  0  0  0  2  0  0  0  0  0  0
  -28.0530  -13.3840   19.7540 C   0  0  0  0  0  3  0  0  0  0  0  0
  -29.0960  -13.2870   20.8910 C   0  0  0  0  0  2  0  0  0  0  0  0
  -30.4350  -13.4760   20.3180 N   0  0  0  0  0  0  0  0  0  0  0  0
  -32.3600  -14.7010   20.2310 O   0  0  0  0  0  0  0  0  0  0  0  0
  -25.6810  -14.0820   20.4510 C   0  0  0  0  0  0  0  0  0  0  0  0
  -24.5790  -13.3500   20.7960 C   0  0  0  0  0  0  0  0  0  0  0  0
  -24.9950  -11.9830   20.7840 C   0  0  0  0  0  0  0  0  0  0  0  0
  -26.6950  -13.1620   20.2360 N   0  0  0  0  0  0  0  0  0  0  0  0
  -26.2880  -11.8960   20.5020 N   0  0  0  0  0  0  0  0  0  0  0  0
  -24.2250  -10.7480   20.9660 C   0  0  0  0  0  0  0  0  0  0  0  0
  -24.5990   -9.7800   21.9220 C   0  0  0  0  0  3  0  0  0  0  0  0
  -23.8330   -8.6080   22.0920 C   0  0  0  0  0  3  0  0  0  0  0  0
  -22.6760   -8.3970   21.3030 C   0  0  0  0  0  0  0  0  0  0  0  0
  -22.3230   -9.3530   20.3360 C   0  0  0  0  0  3  0  0  0  0  0  0
  -23.0900  -10.5160   20.1650 C   0  0  0  0  0  3  0  0  0  0  0  0
  -21.8850   -7.2770   21.3790 O   0  0  0  0  0  0  0  0  0  0  0  0
  -21.7630   -6.5630   22.5440 C   0  0  0  0  0  0  0  0  0  0  0  0
  -21.2800   -7.1540   23.7320 C   0  0  0  0  0  3  0  0  0  0  0  0
  -21.1030   -6.3640   24.8870 C   0  0  0  0  0  3  0  0  0  0  0  0
  -21.3970   -4.9880   24.8540 C   0  0  0  0  0  0  0  0  0  0  0  0
  -21.8740   -4.4000   23.6690 C   0  0  0  0  0  3  0  0  0  0  0  0
  -22.0520   -5.1840   22.5180 C   0  0  0  0  0  0  0  0  0  0  0  0
  -22.4880   -4.6070   21.3720 F   0  0  0  0  0  0  0  0  0  0  0  0
  -21.2190   -4.2300   25.9610 F   0  0  0  0  0  0  0  0  0  0  0  0
  -23.1940  -13.8800   21.0350 C   0  0  0  0  0  0  0  0  0  0  0  0
  -22.4270  -13.2230   21.8980 N   0  0  0  0  0  0  0  0  0  0  0  0
  -22.8000  -14.9140   20.4940 O   0  0  0  0  0  0  0  0  0  0  0  0
  -22.7600  -12.3870   22.3560 H   0  0  0  0  0  0  0  0  0  0  0  0
  -21.4960  -13.5580   22.1010 H   0  0  0  0  0  0  0  0  0  0  0  0
  -25.8950  -15.4470   20.2840 N   0  0  0  0  0  0  0  0  0  0  0  0
  -25.1540  -16.1250   20.4150 H   0  0  0  0  0  0  0  0  0  0  0  0
  -26.7850  -15.8680   20.0620 H   0  0  0  0  0  0  0  0  0  0  0  0
  -29.0410  -23.4990   21.8160 C   0  0  0  0  0  0  0  0  0  0  0  0
  -29.1130  -23.7890   23.0140 O   0  0  0  0  0  0  0  0  0  0  0  0
  -28.9220  -24.5260   20.7590 C   0  0  0  0  0  3  0  0  0  0  0  0
  -28.4570  -25.7660   21.0020 C   0  0  0  0  0  3  0  0  0  0  0  0
  -28.3830  -26.7380   20.0330 O   0  0  0  0  0  0  0  0  0  0  0  0
  -24.5920  -31.8590   23.2010 C   0  0  0  0  0  0  0  0  0  0  0  0
  -27.2360  -27.4860   20.0490 C   0  0  0  0  0  0  0  0  0  0  0  0
  -23.3820  -30.4600   21.5550 C   0  0  0  0  0  3  0  0  0  0  0  0
  -24.8340  -28.9580   20.0940 C   0  0  0  0  0  0  0  0  0  0  0  0
  -25.8990  -30.8550   21.3290 C   0  0  0  0  0  2  0  0  0  0  0  0
  -25.9920  -29.4920   20.6760 C   0  0  0  0  0  0  0  0  0  0  0  0
  -27.2000  -28.7600   20.6520 C   0  0  0  0  0  3  0  0  0  0  0  0
  -26.0660  -26.9600   19.4620 C   0  0  0  0  0  3  0  0  0  0  0  0
  -24.8650  -27.6910   19.4820 C   0  0  0  0  0  3  0  0  0  0  0  0
  -23.5790  -29.7950   20.1660 C   0  0  0  0  0  2  0  0  0  0  0  0
  -24.6440  -31.0730   22.0870 N   0  0  0  0  0  0  0  0  0  0  0  0
  -23.5150  -32.1140   23.7550 O   0  0  0  0  0  0  0  0  0  0  0  0
  -22.7540  -29.4240   22.5140 C   0  0  0  0  0  0  0  0  0  0  0  0
  -21.4310  -29.2270   22.3970 N   0  0  0  0  0  0  0  0  0  0  0  0
  -23.4530  -28.7970   23.3150 O   0  0  0  0  0  0  0  0  0  0  0  0
  -20.9300  -29.7830   21.7190 H   0  0  0  0  0  0  0  0  0  0  0  0
  -18.0730  -27.9910   22.9080 C   0  0  0  0  0  0  0  0  0  0  0  0
  -20.6300  -28.2720   23.1610 C   0  0  0  0  0  3  0  0  0  0  0  0
  -20.7400  -26.8460   22.5680 C   0  0  0  0  0  2  0  0  0  0  0  0
  -19.6330  -26.5260   21.5590 C   0  0  0  0  0  2  0  0  0  0  0  0
  -18.2560  -26.6510   22.2160 C   0  0  0  0  0  2  0  0  0  0  0  0
  -19.1880  -28.7610   23.3360 C   0  0  0  0  0  0  0  0  0  0  0  0
  -18.9600  -30.0160   23.9390 C   0  0  0  0  0  3  0  0  0  0  0  0
  -17.6510  -30.5020   24.1210 C   0  0  0  0  0  3  0  0  0  0  0  0
  -16.5520  -29.7280   23.7100 C   0  0  0  0  0  3  0  0  0  0  0  0
  -16.7650  -28.4740   23.1100 C   0  0  0  0  0  3  0  0  0  0  0  0
  -25.8790  -32.4960   23.8140 C   0  0  0  0  0  3  0  0  0  0  0  0
  -26.4140  -31.7200   25.0810 C   0  0  1  0  0  0  0  0  0  0  0  0
  -25.3340  -31.4650   26.1570 C   0  0  0  0  0  1  0  0  0  0  0  0
  -27.0020  -30.3520   24.6690 C   0  0  0  0  0  1  0  0  0  0  0  0
  -27.5670  -32.5160   25.7360 C   0  0  0  0  0  1  0  0  0  0  0  0
  -25.5680  -33.8910   24.1510 N   0  0  0  0  0  0  0  0  0  0  0  0
  -25.9010  -34.9470   23.3990 C   0  0  0  0  0  0  0  0  0  0  0  0
  -26.5770  -34.8510   22.3700 O   0  0  0  0  0  0  0  0  0  0  0  0
  -24.9800  -34.0420   24.9580 H   0  0  0  0  0  0  0  0  0  0  0  0
  -24.1820  -36.7430   23.0270 C   0  0  0  0  0  1  0  0  0  0  0  0
  -25.4060  -36.3320   23.8600 C   0  0  0  0  0  3  0  0  0  0  0  0
  -27.5240  -37.2050   24.7430 C   0  0  0  0  0  1  0  0  0  0  0  0
  -26.4420  -37.3860   23.7800 N   0  0  0  0  0  0  0  0  0  0  0  0
  -26.0330  -38.3040   23.9340 H   0  0  0  0  0  0  0  0  0  0  0  0
  2 49  1  0
  2  1  2  0
  4  3  2  0
  5  6  2  0
  6  1  1  0
  6  3  1  0
  7  4  1  0
  8  7  2  0
  8  5  1  0
  9  8  1  0
 10 11  1  0
 10 13  1  0
 10  7  1  0
 12 11  1  0
 13 19  1  0
 14 19  1  0
 15 16  1  0
 15 14  1  0
 17 16  1  0
 17 24  1  0
 17 18  1  0
 19 18  1  0
 20 13  2  0
 21 22  2  0
 22 41  1  0
 23 22  1  0
 23 26  1  0
 24 21  1  0
 24 25  1  0
 25 23  2  0
 26 27  1  0
 27 28  2  0
 29 32  1  0
 29 28  1  0
 30 29  2  0
 31 30  1  0
 31 26  2  0
 32 33  1  0
 33 34  1  0
 34 35  2  0
 36 35  1  0
 36 40  1  0
 37 36  2  0
 38 33  2  0
 38 37  1  0
 39 38  1  0
 41 42  1  0
 42 45  1  0
 42 44  1  0
 43 41  2  0
 46 47  1  0
 46 21  1  0
 48 46  1  0
 49 50  2  0
 51 52  2  0
 51 49  1  0
 53 55  1  0
 53 52  1  0
 54 65  2  0
 55 60  1  0
 56 64  1  0
 56 66  1  0
 57 63  1  0
 57 59  1  0
 58 64  1  0
 59 58  1  0
 60 59  2  0
 61 62  1  0
 61 55  2  0
 62 57  2  0
 63 56  1  0
 64 54  1  0
 66 68  2  0
 67 66  1  0
 69 67  1  0
 70 79  2  0
 70 75  1  0
 71 67  1  0
 71 75  1  0
 72 71  1  0
 73 74  1  0
 73 72  1  0
 74 70  1  0
 75 76  2  0
 76 77  1  0
 78 77  2  0
 79 78  1  0
 80 54  1  0
 80 85  1  0
 80 81  1  0
 81 84  1  1
 81 82  1  0
 83 81  1  0
 85 88  1  0
 86 90  1  0
 86 85  1  0
 87 86  2  0
 90 89  1  0
 92 90  1  0
 92 93  1  0
 92 91  1  0
M  ISO  4  10 100  13 100  52 101  53 101
M  END
>  <TORSDO>  (71) 
F 20

>  <SCORE>  (71) 
-13.506

>  <name>  (71) 
70

>  <ligand_id>  (71) 
70

>  <original_smiles>  (71) 
[H]N=C(C(=O)N1C([H])([H])C([H])([H])C([H])([H])C([H])(n2nc(-c3c([H])c([H])c(Oc4c([H])c([H])c(F)c([H])c4F)c([H])c3[H])c(C(=O)N([H])[H])c2N([H])[H])C1([H])[H])c1c([H])c([H])c(C([H])=C([H])C(=O)C([H])=C([H])Oc2c([H])c([H])c3c(c2[H])C([H])([H])N(C(=O)C([H])(N([H])C(=O)C([H])(N([H])C([H])([H])[H])C([H])([H])[H])C(C([H])([H])[H])(C([H])([H])[H])C([H])([H])[H])C([H])(C(=O)N([H])C2([H])c4c([H])c([H])c([H])c([H])c4C([H])([H])C([H])([H])C2([H])[H])C3([H])[H])c([H])c1C([H])([H])[H]

>  <smiles>  (71) 
[H]N=C(C(=O)N1C([H])([H])C([H])([H])C([H])([H])C([H])(n2nc(-c3c([H])c([H])c(Oc4c([H])c([H])c(F)c([H])c4F)c([H])c3[H])c(C(=O)N([H])[H])c2N([H])[H])C1([H])[H])c1c([H])c([H])c(C([H])=C([H])C(=O)C([H])=C([H])Oc2c([H])c([H])c3c(c2[H])C([H])([H])N(C(=O)C([H])(N([H])C(=O)C([H])(N([H])C([H])([H])[H])C([H])([H])[H])C(C([H])([H])[H])(C([H])([H])[H])C([H])([H])[H])C([H])(C(=O)N([H])C2([H])c4c([H])c([H])c([H])c([H])c4C([H])([H])C([H])([H])C2([H])[H])C3([H])[H])c([H])c1C([H])([H])[H]

$$$$
71:0:0
     RDKit          3D

 91 99  0  0  1  0  0  0  0  0999 V2000
  -30.3600  -20.9680   20.6830 C   0  0  0  0  0  3  0  0  0  0  0  0
  -29.0960  -19.0340   19.1140 C   0  0  0  0  0  3  0  0  0  0  0  0
  -29.2110  -21.3780   19.9660 C   0  0  0  0  0  0  0  0  0  0  0  0
  -30.2370  -18.6190   19.8420 C   0  0  0  0  0  0  0  0  0  0  0  0
  -30.8570  -19.6300   20.6400 C   0  0  0  0  0  0  0  0  0  0  0  0
  -28.6020  -20.3720   19.1510 C   0  0  0  0  0  0  0  0  0  0  0  0
  -32.0800  -19.3070   21.4870 C   0  0  0  0  0  1  0  0  0  0  0  0
  -30.7980  -17.2070   19.7640 C   0  0  0  0  0  3  0  0  0  0  0  0
  -30.1950  -15.9730   19.7300 C   0  0  0  0  0  3  0  0  0  0  0  0
  -30.9930  -14.7310   19.5080 C   0  0  0  0  0  0  0  0  0  0  0  0
  -30.6720  -12.4230   18.6720 C   0  0  0  0  0  2  0  0  0  0  0  0
  -29.6080  -12.4670   17.5520 C   0  0  0  0  0  2  0  0  0  0  0  0
  -28.1920  -12.3160   18.1440 C   0  0  0  0  0  2  0  0  0  0  0  0
  -27.9480  -13.2560   19.3550 C   0  0  0  0  0  3  0  0  0  0  0  0
  -29.1270  -13.2200   20.3520 C   0  0  0  0  0  2  0  0  0  0  0  0
  -30.3590  -13.5190   19.6110 N   0  0  0  0  0  0  0  0  0  0  0  0
  -32.1340  -14.7840   19.0400 O   0  0  0  0  0  0  0  0  0  0  0  0
  -25.7180  -13.8660   20.4690 C   0  0  0  0  0  0  0  0  0  0  0  0
  -24.6800  -13.0990   20.9270 C   0  0  0  0  0  0  0  0  0  0  0  0
  -25.0710  -11.7410   20.7180 C   0  0  0  0  0  0  0  0  0  0  0  0
  -26.6740  -12.9750   20.0110 N   0  0  0  0  0  0  0  0  0  0  0  0
  -26.3010  -11.6860   20.2220 N   0  0  0  0  0  0  0  0  0  0  0  0
  -24.3210  -10.4920   20.9090 C   0  0  0  0  0  0  0  0  0  0  0  0
  -24.7700   -9.4890   21.7960 C   0  0  0  0  0  3  0  0  0  0  0  0
  -24.0210   -8.3060   21.9770 C   0  0  0  0  0  3  0  0  0  0  0  0
  -22.8090   -8.1190   21.2710 C   0  0  0  0  0  0  0  0  0  0  0  0
  -22.3790   -9.1110   20.3720 C   0  0  0  0  0  3  0  0  0  0  0  0
  -23.1270  -10.2850   20.1900 C   0  0  0  0  0  3  0  0  0  0  0  0
  -22.0290   -6.9910   21.3640 O   0  0  0  0  0  0  0  0  0  0  0  0
  -21.8840   -6.3120   22.5460 C   0  0  0  0  0  0  0  0  0  0  0  0
  -21.3780   -6.9340   23.7080 C   0  0  0  0  0  3  0  0  0  0  0  0
  -21.1810   -6.1810   24.8830 C   0  0  0  0  0  3  0  0  0  0  0  0
  -21.4800   -4.8050   24.8950 C   0  0  0  0  0  0  0  0  0  0  0  0
  -21.9780   -4.1820   23.7380 C   0  0  0  0  0  3  0  0  0  0  0  0
  -22.1760   -4.9320   22.5670 C   0  0  0  0  0  0  0  0  0  0  0  0
  -22.6370   -4.3230   21.4480 F   0  0  0  0  0  0  0  0  0  0  0  0
  -21.2840   -4.0790   26.0200 F   0  0  0  0  0  0  0  0  0  0  0  0
  -23.3590  -13.5980   21.4360 C   0  0  0  0  0  0  0  0  0  0  0  0
  -22.7400  -12.8660   22.3560 N   0  0  0  0  0  0  0  0  0  0  0  0
  -22.8920  -14.6700   21.0560 O   0  0  0  0  0  0  0  0  0  0  0  0
  -23.1310  -11.9960   22.6850 H   0  0  0  0  0  0  0  0  0  0  0  0
  -21.8590  -13.1790   22.7380 H   0  0  0  0  0  0  0  0  0  0  0  0
  -25.9180  -15.2410   20.3810 N   0  0  0  0  0  0  0  0  0  0  0  0
  -25.2040  -15.9070   20.6570 H   0  0  0  0  0  0  0  0  0  0  0  0
  -26.7290  -15.6770   19.9630 H   0  0  0  0  0  0  0  0  0  0  0  0
  -28.6280  -22.7770   20.0950 C   0  0  0  0  0  3  0  0  0  0  0  0
  -29.1840  -24.0020   20.3580 C   0  0  0  0  0  3  0  0  0  0  0  0
  -28.3400  -25.2860   20.6410 C   0  0  0  0  0  2  0  0  0  0  0  0
  -28.5660  -26.5190   19.8660 O   0  0  0  0  0  0  0  0  0  0  0  0
  -24.6650  -31.6790   23.0330 C   0  0  0  0  0  0  0  0  0  0  0  0
  -27.4540  -27.3640   19.8320 C   0  0  0  0  0  0  0  0  0  0  0  0
  -23.5290  -30.3230   21.3090 C   0  0  0  0  0  3  0  0  0  0  0  0
  -25.0470  -28.8860   19.8390 C   0  0  0  0  0  0  0  0  0  0  0  0
  -26.0570  -30.7300   21.1850 C   0  0  0  0  0  2  0  0  0  0  0  0
  -26.1880  -29.3870   20.4820 C   0  0  0  0  0  0  0  0  0  0  0  0
  -27.4000  -28.6360   20.4700 C   0  0  0  0  0  3  0  0  0  0  0  0
  -26.3010  -26.9160   19.1560 C   0  0  0  0  0  3  0  0  0  0  0  0
  -25.1040  -27.6550   19.1640 C   0  0  0  0  0  3  0  0  0  0  0  0
  -23.7830  -29.7170   19.9030 C   0  0  0  0  0  2  0  0  0  0  0  0
  -24.7670  -30.9250   21.9010 N   0  0  0  0  0  0  0  0  0  0  0  0
  -23.5650  -31.9030   23.5610 O   0  0  0  0  0  0  0  0  0  0  0  0
  -22.8790  -29.2470   22.2100 C   0  0  0  0  0  0  0  0  0  0  0  0
  -21.5540  -29.0680   22.0780 N   0  0  0  0  0  0  0  0  0  0  0  0
  -23.5650  -28.5800   22.9880 O   0  0  0  0  0  0  0  0  0  0  0  0
  -21.0590  -29.6610   21.4270 H   0  0  0  0  0  0  0  0  0  0  0  0
  -18.1720  -27.8990   22.6120 C   0  0  0  0  0  0  0  0  0  0  0  0
  -20.7450  -28.0810   22.7960 C   0  0  0  0  0  3  0  0  0  0  0  0
  -20.7890  -26.7050   22.0940 C   0  0  0  0  0  2  0  0  0  0  0  0
  -19.6410  -26.4960   21.1020 C   0  0  0  0  0  2  0  0  0  0  0  0
  -18.2890  -26.6130   21.8130 C   0  0  0  0  0  2  0  0  0  0  0  0
  -19.3260  -28.5970   23.0610 C   0  0  0  0  0  0  0  0  0  0  0  0
  -19.1600  -29.8060   23.7710 C   0  0  0  0  0  3  0  0  0  0  0  0
  -17.8740  -30.3170   24.0340 C   0  0  0  0  0  3  0  0  0  0  0  0
  -16.7370  -29.6150   23.5980 C   0  0  0  0  0  3  0  0  0  0  0  0
  -16.8870  -28.4080   22.8940 C   0  0  0  0  0  3  0  0  0  0  0  0
  -25.9210  -32.3150   23.7070 C   0  0  0  0  0  3  0  0  0  0  0  0
  -26.4280  -31.5060   24.9640 C   0  0  1  0  0  0  0  0  0  0  0  0
  -25.3210  -31.2060   26.0010 C   0  0  0  0  0  1  0  0  0  0  0  0
  -27.0450  -30.1550   24.5320 C   0  0  0  0  0  1  0  0  0  0  0  0
  -27.5500  -32.2970   25.6780 C   0  0  0  0  0  1  0  0  0  0  0  0
  -25.5710  -33.6910   24.0850 N   0  0  0  0  0  0  0  0  0  0  0  0
  -25.8730  -34.7790   23.3630 C   0  0  0  0  0  0  0  0  0  0  0  0
  -26.5450  -34.7310   22.3290 O   0  0  0  0  0  0  0  0  0  0  0  0
  -24.9720  -33.8010   24.8890 H   0  0  0  0  0  0  0  0  0  0  0  0
  -24.0830  -36.5240   23.0810 C   0  0  0  0  0  1  0  0  0  0  0  0
  -25.3450  -36.1360   23.8670 C   0  0  0  0  0  3  0  0  0  0  0  0
  -27.4580  -37.0660   24.7050 C   0  0  0  0  0  1  0  0  0  0  0  0
  -26.3400  -37.2270   23.7780 N   0  0  0  0  0  0  0  0  0  0  0  0
  -25.9050  -38.1270   23.9590 H   0  0  0  0  0  0  0  0  0  0  0  0
  -26.0650  -20.4650   18.9970 C   0  0  0  0  0  1  0  0  0  0  0  0
  -27.3980  -20.6950   18.2740 C   0  0  0  0  0  2  0  0  0  0  0  0
  2  6  2  0
  2  4  1  0
  3 46  1  0
  3  1  2  0
  4  5  2  0
  5  1  1  0
  5  7  1  0
  6  3  1  0
  8  4  1  0
  9  8  2  0
 10 16  1  0
 10  9  1  0
 11 16  1  0
 12 13  1  0
 12 11  1  0
 14 13  1  0
 14 21  1  0
 14 15  1  0
 16 15  1  0
 17 10  2  0
 18 19  2  0
 19 38  1  0
 20 23  1  0
 20 19  1  0
 21 22  1  0
 21 18  1  0
 22 20  2  0
 23 24  1  0
 24 25  2  0
 26 29  1  0
 26 25  1  0
 27 26  2  0
 28 27  1  0
 28 23  2  0
 29 30  1  0
 30 35  2  0
 30 31  1  0
 31 32  2  0
 32 33  1  0
 33 37  1  0
 34 33  2  0
 35 34  1  0
 36 35  1  0
 38 39  1  0
 39 41  1  0
 39 42  1  0
 40 38  2  0
 43 18  1  0
 43 44  1  0
 45 43  1  0
 46 47  2  0
 47 48  1  0
 49 48  1  0
 50 61  2  0
 51 49  1  0
 51 56  1  0
 52 60  1  0
 52 62  1  0
 53 59  1  0
 53 55  1  0
 54 60  1  0
 55 54  1  0
 56 55  2  0
 57 58  1  0
 57 51  2  0
 58 53  2  0
 59 52  1  0
 60 50  1  0
 62 64  2  0
 63 62  1  0
 65 63  1  0
 66 75  2  0
 66 71  1  0
 67 63  1  0
 67 71  1  0
 68 67  1  0
 69 70  1  0
 69 68  1  0
 70 66  1  0
 71 72  2  0
 72 73  1  0
 74 73  2  0
 75 74  1  0
 76 50  1  0
 76 81  1  0
 76 77  1  0
 77 80  1  1
 77 78  1  0
 79 77  1  0
 81 84  1  0
 82 86  1  0
 82 81  1  0
 83 82  2  0
 86 85  1  0
 88 86  1  0
 88 89  1  0
 88 87  1  0
 91 90  1  0
 91  6  1  0
M  ISO  4   9 100  10 100  48 101  49 101
M  END
>  <TORSDO>  (72) 
F 20

>  <SCORE>  (72) 
-12.615

>  <name>  (72) 
71

>  <ligand_id>  (72) 
71

>  <original_smiles>  (72) 
[H]C(C(=O)N1C([H])([H])C([H])([H])C([H])([H])C([H])(n2nc(-c3c([H])c([H])c(Oc4c([H])c([H])c(F)c([H])c4F)c([H])c3[H])c(C(=O)N([H])[H])c2N([H])[H])C1([H])[H])=C([H])c1c([H])c(C([H])([H])C([H])([H])[H])c(C([H])=C([H])C([H])([H])Oc2c([H])c([H])c3c(c2[H])C([H])([H])N(C(=O)C([H])(N([H])C(=O)C([H])(N([H])C([H])([H])[H])C([H])([H])[H])C(C([H])([H])[H])(C([H])([H])[H])C([H])([H])[H])C([H])(C(=O)N([H])C2([H])c4c([H])c([H])c([H])c([H])c4C([H])([H])C([H])([H])C2([H])[H])C3([H])[H])c([H])c1C([H])([H])[H]

>  <smiles>  (72) 
[H]C(C(=O)N1C([H])([H])C([H])([H])C([H])([H])C([H])(n2nc(-c3c([H])c([H])c(Oc4c([H])c([H])c(F)c([H])c4F)c([H])c3[H])c(C(=O)N([H])[H])c2N([H])[H])C1([H])[H])=C([H])c1c([H])c(C([H])([H])C([H])([H])[H])c(C([H])=C([H])C([H])([H])Oc2c([H])c([H])c3c(c2[H])C([H])([H])N(C(=O)C([H])(N([H])C(=O)C([H])(N([H])C([H])([H])[H])C([H])([H])[H])C(C([H])([H])[H])(C([H])([H])[H])C([H])([H])[H])C([H])(C(=O)N([H])C2([H])c4c([H])c([H])c([H])c([H])c4C([H])([H])C([H])([H])C2([H])[H])C3([H])[H])c([H])c1C([H])([H])[H]

$$$$
72:0:0
     RDKit          3D

 94103  0  0  1  0  0  0  0  0999 V2000
  -29.2750  -24.4310   19.9080 C   0  0  0  0  0  0  0  0  0  0  0  0
  -28.3110  -25.2970   20.2940 C   0  0  0  0  0  3  0  0  0  0  0  0
  -31.2240  -21.2570   20.0680 C   0  0  0  0  0  0  0  0  0  0  0  0
  -30.5870  -24.8280   19.2980 C   0  0  0  0  0  2  0  0  0  0  0  0
  -29.2710  -22.9120   20.0680 C   0  0  0  0  0  2  0  0  0  0  0  0
  -31.5150  -23.6510   19.6060 C   0  0  0  0  0  2  0  0  0  0  0  0
  -30.6670  -22.4830   19.8750 N   0  0  0  0  0  0  0  0  0  0  0  0
  -32.4150  -21.1440   20.3790 O   0  0  0  0  0  0  0  0  0  0  0  0
  -29.4860  -17.3600   19.2100 C   0  0  0  0  0  3  0  0  0  0  0  0
  -29.4020  -18.3840   18.2470 C   0  0  0  0  0  3  0  0  0  0  0  0
  -30.5160  -18.9300   20.7450 C   0  0  0  0  0  3  0  0  0  0  0  0
  -30.0380  -17.6230   20.4790 C   0  0  0  0  0  0  0  0  0  0  0  0
  -30.4650  -19.9750   19.7820 C   0  0  0  0  0  0  0  0  0  0  0  0
  -29.9010  -19.6820   18.5070 C   0  0  0  0  0  0  0  0  0  0  0  0
  -29.8740  -20.6870   17.3620 C   0  0  0  0  0  1  0  0  0  0  0  0
  -30.0970  -16.5880   21.5390 C   0  0  0  0  0  3  0  0  0  0  0  0
  -30.3350  -15.2510   21.5130 C   0  0  0  0  0  3  0  0  0  0  0  0
  -30.7650  -14.4490   20.3690 C   0  0  0  0  0  0  0  0  0  0  0  0
  -30.3820  -12.3740   19.0650 C   0  0  0  0  0  2  0  0  0  0  0  0
  -29.4080  -12.6370   17.9000 C   0  0  0  0  0  2  0  0  0  0  0  0
  -27.9460  -12.4930   18.3640 C   0  0  0  0  0  2  0  0  0  0  0  0
  -27.6590  -13.2820   19.6680 C   0  0  0  0  0  3  0  0  0  0  0  0
  -28.7320  -12.9890   20.7360 C   0  0  0  0  0  2  0  0  0  0  0  0
  -30.0530  -13.3050   20.1590 N   0  0  0  0  0  0  0  0  0  0  0  0
  -31.7610  -14.7340   19.6960 O   0  0  0  0  0  0  0  0  0  0  0  0
  -25.2760  -13.9050   20.4190 C   0  0  0  0  0  0  0  0  0  0  0  0
  -24.2090  -13.1390   20.8090 C   0  0  0  0  0  0  0  0  0  0  0  0
  -24.6630  -11.7850   20.7720 C   0  0  0  0  0  0  0  0  0  0  0  0
  -26.3110  -13.0170   20.1690 N   0  0  0  0  0  0  0  0  0  0  0  0
  -25.9450  -11.7380   20.4360 N   0  0  0  0  0  0  0  0  0  0  0  0
  -23.9330  -10.5280   20.9810 C   0  0  0  0  0  0  0  0  0  0  0  0
  -24.3860   -9.5550   21.9010 C   0  0  0  0  0  3  0  0  0  0  0  0
  -23.6570   -8.3620   22.0970 C   0  0  0  0  0  3  0  0  0  0  0  0
  -22.4620   -8.1340   21.3740 C   0  0  0  0  0  0  0  0  0  0  0  0
  -22.0280   -9.0950   20.4430 C   0  0  0  0  0  3  0  0  0  0  0  0
  -22.7570  -10.2790   20.2450 C   0  0  0  0  0  3  0  0  0  0  0  0
  -21.7010   -6.9940   21.4800 O   0  0  0  0  0  0  0  0  0  0  0  0
  -21.6830   -6.2450   22.6290 C   0  0  0  0  0  0  0  0  0  0  0  0
  -21.3150   -6.8000   23.8740 C   0  0  0  0  0  3  0  0  0  0  0  0
  -21.2430   -5.9810   25.0170 C   0  0  0  0  0  3  0  0  0  0  0  0
  -21.5290   -4.6050   24.9170 C   0  0  0  0  0  0  0  0  0  0  0  0
  -21.8890   -4.0490   23.6760 C   0  0  0  0  0  3  0  0  0  0  0  0
  -21.9640   -4.8670   22.5360 C   0  0  0  0  0  0  0  0  0  0  0  0
  -22.2930   -4.3230   21.3400 F   0  0  0  0  0  0  0  0  0  0  0  0
  -21.4500   -3.8140   26.0130 F   0  0  0  0  0  0  0  0  0  0  0  0
  -22.8210  -13.6260   21.1100 C   0  0  0  0  0  0  0  0  0  0  0  0
  -22.1080  -12.9360   21.9960 N   0  0  0  0  0  0  0  0  0  0  0  0
  -22.3760  -14.6520   20.5970 O   0  0  0  0  0  0  0  0  0  0  0  0
  -22.4810  -12.1040   22.4280 H   0  0  0  0  0  0  0  0  0  0  0  0
  -21.1780  -13.2440   22.2440 H   0  0  0  0  0  0  0  0  0  0  0  0
  -25.4450  -15.2740   20.2410 N   0  0  0  0  0  0  0  0  0  0  0  0
  -24.6890  -15.9380   20.3690 H   0  0  0  0  0  0  0  0  0  0  0  0
  -26.3070  -15.7110   19.9370 H   0  0  0  0  0  0  0  0  0  0  0  0
  -28.4010  -26.6710   20.1290 O   0  0  0  0  0  0  0  0  0  0  0  0
  -24.5980  -31.8830   23.2250 C   0  0  0  0  0  0  0  0  0  0  0  0
  -27.2340  -27.4160   20.1470 C   0  0  0  0  0  0  0  0  0  0  0  0
  -23.3880  -30.4730   21.5930 C   0  0  0  0  0  3  0  0  0  0  0  0
  -24.8380  -28.9320   20.1670 C   0  0  0  0  0  0  0  0  0  0  0  0
  -25.9140  -30.8300   21.3850 C   0  0  0  0  0  2  0  0  0  0  0  0
  -26.0000  -29.4540   20.7510 C   0  0  0  0  0  0  0  0  0  0  0  0
  -27.2000  -28.7020   20.7400 C   0  0  0  0  0  3  0  0  0  0  0  0
  -26.0550  -26.9190   19.5490 C   0  0  0  0  0  3  0  0  0  0  0  0
  -24.8610  -27.6630   19.5650 C   0  0  0  0  0  3  0  0  0  0  0  0
  -23.5940  -29.7890   20.2160 C   0  0  0  0  0  2  0  0  0  0  0  0
  -24.6520  -31.0780   22.1260 N   0  0  0  0  0  0  0  0  0  0  0  0
  -23.5190  -32.1530   23.7690 O   0  0  0  0  0  0  0  0  0  0  0  0
  -22.7420  -29.4540   22.5600 C   0  0  0  0  0  0  0  0  0  0  0  0
  -21.4170  -29.2710   22.4410 N   0  0  0  0  0  0  0  0  0  0  0  0
  -23.4300  -28.8300   23.3720 O   0  0  0  0  0  0  0  0  0  0  0  0
  -20.9230  -29.8250   21.7570 H   0  0  0  0  0  0  0  0  0  0  0  0
  -18.0470  -28.0710   22.9560 C   0  0  0  0  0  0  0  0  0  0  0  0
  -20.6050  -28.3350   23.2190 C   0  0  0  0  0  3  0  0  0  0  0  0
  -20.7080  -26.9020   22.6460 C   0  0  0  0  0  2  0  0  0  0  0  0
  -19.6030  -26.5740   21.6360 C   0  0  0  0  0  2  0  0  0  0  0  0
  -18.2230  -26.7200   22.2850 C   0  0  0  0  0  2  0  0  0  0  0  0
  -19.1660  -28.8370   23.3800 C   0  0  0  0  0  0  0  0  0  0  0  0
  -18.9480  -30.1020   23.9670 C   0  0  0  0  0  3  0  0  0  0  0  0
  -17.6430  -30.6030   24.1350 C   0  0  0  0  0  3  0  0  0  0  0  0
  -16.5390  -29.8360   23.7270 C   0  0  0  0  0  3  0  0  0  0  0  0
  -16.7420  -28.5720   23.1450 C   0  0  0  0  0  3  0  0  0  0  0  0
  -25.8850  -32.5170   23.8370 C   0  0  0  0  0  3  0  0  0  0  0  0
  -25.5740  -33.9130   24.1730 N   0  0  0  0  0  0  0  0  0  0  0  0
  -25.9000  -34.9690   23.4140 C   0  0  0  0  0  0  0  0  0  0  0  0
  -26.5660  -34.8690   22.3800 O   0  0  0  0  0  0  0  0  0  0  0  0
  -24.9810  -34.0640   24.9770 H   0  0  0  0  0  0  0  0  0  0  0  0
  -24.1640  -36.7550   23.0670 C   0  0  0  0  0  1  0  0  0  0  0  0
  -25.4080  -36.3540   23.8750 C   0  0  0  0  0  3  0  0  0  0  0  0
  -27.5430  -37.2420   24.7000 C   0  0  0  0  0  1  0  0  0  0  0  0
  -26.4360  -37.4110   23.7620 N   0  0  0  0  0  0  0  0  0  0  0  0
  -26.0280  -38.3290   23.9150 H   0  0  0  0  0  0  0  0  0  0  0  0
  -26.4180  -31.7450   25.1060 C   0  0  1  0  0  0  0  0  0  0  0  0
  -25.3380  -31.5000   26.1850 C   0  0  0  0  0  1  0  0  0  0  0  0
  -27.0040  -30.3720   24.7020 C   0  0  0  0  0  1  0  0  0  0  0  0
  -27.5720  -32.5420   25.7600 C   0  0  0  0  0  1  0  0  0  0  0  0
  1  5  1  0
  1  2  2  0
  3  8  2  0
  4  6  1  0
  4  1  1  0
  6  7  1  0
  7  5  1  0
  7  3  1  0
  9 12  1  0
 10 14  1  0
 10  9  2  0
 12 11  2  0
 12 16  1  0
 13  3  1  0
 13 11  1  0
 14 13  2  0
 15 14  1  0
 17 16  2  0
 18 17  1  0
 19 24  1  0
 20 21  1  0
 20 19  1  0
 22 21  1  0
 22 29  1  0
 22 23  1  0
 24 18  1  0
 24 23  1  0
 25 18  2  0
 26 27  2  0
 27 46  1  0
 28 27  1  0
 28 31  1  0
 29 26  1  0
 29 30  1  0
 30 28  2  0
 31 32  1  0
 32 33  2  0
 34 37  1  0
 34 33  1  0
 35 34  2  0
 36 35  1  0
 36 31  2  0
 37 38  1  0
 38 39  1  0
 39 40  2  0
 41 40  1  0
 41 45  1  0
 42 41  2  0
 43 38  2  0
 43 42  1  0
 44 43  1  0
 46 47  1  0
 47 50  1  0
 47 49  1  0
 48 46  2  0
 51 52  1  0
 51 26  1  0
 53 51  1  0
 54 56  1  0
 54  2  1  0
 55 66  2  0
 56 61  1  0
 57 65  1  0
 57 67  1  0
 58 64  1  0
 58 60  1  0
 59 65  1  0
 60 59  1  0
 61 60  2  0
 62 63  1  0
 62 56  2  0
 63 58  2  0
 64 57  1  0
 65 55  1  0
 67 69  2  0
 68 67  1  0
 70 68  1  0
 71 80  2  0
 71 76  1  0
 72 68  1  0
 72 76  1  0
 73 72  1  0
 74 75  1  0
 74 73  1  0
 75 71  1  0
 76 77  2  0
 77 78  1  0
 79 78  2  0
 80 79  1  0
 81 55  1  0
 81 82  1  0
 81 91  1  0
 82 85  1  0
 83 87  1  0
 83 82  1  0
 84 83  2  0
 87 86  1  0
 89 87  1  0
 89 90  1  0
 89 88  1  0
 91 94  1  1
 91 92  1  0
 93 91  1  0
M  ISO  4   2 101  17 100  18 100  54 101
M  END
>  <TORSDO>  (73) 
F 18

>  <SCORE>  (73) 
-14.946

>  <name>  (73) 
72

>  <ligand_id>  (73) 
72

>  <original_smiles>  (73) 
[H]C(Oc1c([H])c([H])c2c(c1[H])C([H])([H])N(C(=O)C([H])(N([H])C(=O)C([H])(N([H])C([H])([H])[H])C([H])([H])[H])C(C([H])([H])[H])(C([H])([H])[H])C([H])([H])[H])C([H])(C(=O)N([H])C1([H])c3c([H])c([H])c([H])c([H])c3C([H])([H])C([H])([H])C1([H])[H])C2([H])[H])=C1C([H])([H])N(C(=O)c2c([H])c(C([H])=C([H])C(=O)N3C([H])([H])C([H])([H])C([H])([H])C([H])(n4nc(-c5c([H])c([H])c(Oc6c([H])c([H])c(F)c([H])c6F)c([H])c5[H])c(C(=O)N([H])[H])c4N([H])[H])C3([H])[H])c([H])c([H])c2C([H])([H])[H])C([H])([H])C1([H])[H]

>  <smiles>  (73) 
[H]C(Oc1c([H])c([H])c2c(c1[H])C([H])([H])N(C(=O)C([H])(N([H])C(=O)C([H])(N([H])C([H])([H])[H])C([H])([H])[H])C(C([H])([H])[H])(C([H])([H])[H])C([H])([H])[H])C([H])(C(=O)N([H])C1([H])c3c([H])c([H])c([H])c([H])c3C([H])([H])C([H])([H])C1([H])[H])C2([H])[H])=C1C([H])([H])N(C(=O)c2c([H])c(C([H])=C([H])C(=O)N3C([H])([H])C([H])([H])C([H])([H])C([H])(n4nc(-c5c([H])c([H])c(Oc6c([H])c([H])c(F)c([H])c6F)c([H])c5[H])c(C(=O)N([H])[H])c4N([H])[H])C3([H])[H])c([H])c([H])c2C([H])([H])[H])C([H])([H])C1([H])[H]

$$$$
73:0:0
     RDKit          3D

 93101  0  0  1  0  0  0  0  0999 V2000
  -31.4960  -21.4440   20.0860 C   0  0  0  0  0  3  0  0  0  0  0  0
  -31.0440  -22.7290   20.1550 C   0  0  0  0  0  0  0  0  0  0  0  0
  -31.0270  -19.2400   19.0600 C   0  0  0  0  0  3  0  0  0  0  0  0
  -30.7780  -17.8500   19.1290 C   0  0  0  0  0  3  0  0  0  0  0  0
  -30.1880  -18.0910   21.4620 C   0  0  0  0  0  3  0  0  0  0  0  0
  -30.9050  -20.0790   20.1910 C   0  0  0  0  0  0  0  0  0  0  0  0
  -30.4620  -19.4850   21.4030 C   0  0  0  0  0  0  0  0  0  0  0  0
  -30.3970  -17.2400   20.3490 C   0  0  0  0  0  0  0  0  0  0  0  0
  -30.3770  -20.2990   22.6820 C   0  0  0  0  0  1  0  0  0  0  0  0
  -30.9150  -14.7900   19.9920 C   0  0  0  0  0  0  0  0  0  0  0  0
  -30.6380  -12.5800   18.9280 C   0  0  0  0  0  2  0  0  0  0  0  0
  -29.6270  -12.7270   17.7710 C   0  0  0  0  0  2  0  0  0  0  0  0
  -28.1840  -12.5510   18.2830 C   0  0  0  0  0  2  0  0  0  0  0  0
  -27.8890  -13.4050   19.5470 C   0  0  0  0  0  3  0  0  0  0  0  0
  -29.0090  -13.2470   20.6000 C   0  0  0  0  0  2  0  0  0  0  0  0
  -30.2880  -13.5800   19.9530 N   0  0  0  0  0  0  0  0  0  0  0  0
  -32.0310  -14.9630   19.4920 O   0  0  0  0  0  0  0  0  0  0  0  0
  -30.1860  -15.8190   20.4910 N   0  0  0  0  0  0  0  0  0  0  0  0
  -29.3560  -15.5420   20.9890 H   0  0  0  0  0  0  0  0  0  0  0  0
  -25.5460  -13.9690   20.4410 C   0  0  0  0  0  0  0  0  0  0  0  0
  -24.5070  -13.1770   20.8440 C   0  0  0  0  0  0  0  0  0  0  0  0
  -24.9660  -11.8290   20.7260 C   0  0  0  0  0  0  0  0  0  0  0  0
  -26.5740  -13.1020   20.1030 N   0  0  0  0  0  0  0  0  0  0  0  0
  -26.2340  -11.8080   20.3340 N   0  0  0  0  0  0  0  0  0  0  0  0
  -24.2560  -10.5570   20.9070 C   0  0  0  0  0  0  0  0  0  0  0  0
  -24.6660   -9.6150   21.8760 C   0  0  0  0  0  3  0  0  0  0  0  0
  -23.9540   -8.4080   22.0450 C   0  0  0  0  0  3  0  0  0  0  0  0
  -22.8190   -8.1340   21.2460 C   0  0  0  0  0  0  0  0  0  0  0  0
  -22.4300   -9.0650   20.2660 C   0  0  0  0  0  3  0  0  0  0  0  0
  -23.1420  -10.2630   20.0950 C   0  0  0  0  0  3  0  0  0  0  0  0
  -22.0830   -6.9770   21.3220 O   0  0  0  0  0  0  0  0  0  0  0  0
  -21.8650   -6.3400   22.5180 C   0  0  0  0  0  0  0  0  0  0  0  0
  -21.1470   -6.9530   23.5690 C   0  0  0  0  0  3  0  0  0  0  0  0
  -20.8870   -6.2370   24.7540 C   0  0  0  0  0  3  0  0  0  0  0  0
  -21.3320   -4.9070   24.8870 C   0  0  0  0  0  0  0  0  0  0  0  0
  -22.0400   -4.2940   23.8380 C   0  0  0  0  0  3  0  0  0  0  0  0
  -22.3040   -5.0080   22.6570 C   0  0  0  0  0  0  0  0  0  0  0  0
  -22.9690   -4.4060   21.6410 F   0  0  0  0  0  0  0  0  0  0  0  0
  -21.0740   -4.2160   26.0210 F   0  0  0  0  0  0  0  0  0  0  0  0
  -23.1290  -13.6350   21.2260 C   0  0  0  0  0  0  0  0  0  0  0  0
  -22.4650  -12.9050   22.1140 N   0  0  0  0  0  0  0  0  0  0  0  0
  -22.6520  -14.6760   20.7720 O   0  0  0  0  0  0  0  0  0  0  0  0
  -22.8650  -12.0640   22.5030 H   0  0  0  0  0  0  0  0  0  0  0  0
  -21.5440  -13.1910   22.4120 H   0  0  0  0  0  0  0  0  0  0  0  0
  -25.6960  -15.3470   20.3120 N   0  0  0  0  0  0  0  0  0  0  0  0
  -24.9340  -15.9900   20.4940 H   0  0  0  0  0  0  0  0  0  0  0  0
  -26.5220  -15.8060   19.9450 H   0  0  0  0  0  0  0  0  0  0  0  0
  -31.9440  -25.0410   20.3950 C   0  0  0  0  0  2  0  0  0  0  0  0
  -32.1060  -23.7320   20.1430 C   0  0  0  0  0  3  0  0  0  0  0  0
  -29.5730  -23.1830   20.2390 C   0  0  0  0  0  2  0  0  0  0  0  0
  -29.2290  -24.5060   19.4470 C   0  0  0  0  0  2  0  0  0  0  0  0
  -28.3850  -25.5670   20.2230 C   0  0  0  0  0  2  0  0  0  0  0  0
  -28.4350  -26.9020   19.6550 O   0  0  0  0  0  0  0  0  0  0  0  0
  -24.6530  -31.7820   23.2750 C   0  0  0  0  0  0  0  0  0  0  0  0
  -27.2760  -27.6530   19.7540 C   0  0  0  0  0  0  0  0  0  0  0  0
  -23.4310  -30.5240   21.5330 C   0  0  0  0  0  3  0  0  0  0  0  0
  -24.8740  -29.1460   19.9390 C   0  0  0  0  0  0  0  0  0  0  0  0
  -25.9520  -30.9240   21.3260 C   0  0  0  0  0  2  0  0  0  0  0  0
  -26.0390  -29.6200   20.5540 C   0  0  0  0  0  0  0  0  0  0  0  0
  -27.2470  -28.8860   20.4510 C   0  0  0  0  0  3  0  0  0  0  0  0
  -26.0950  -27.2040   19.1260 C   0  0  0  0  0  3  0  0  0  0  0  0
  -24.8990  -27.9410   19.2150 C   0  0  0  0  0  3  0  0  0  0  0  0
  -23.6200  -29.9810   20.0910 C   0  0  0  0  0  2  0  0  0  0  0  0
  -24.6980  -31.0870   22.1020 N   0  0  0  0  0  0  0  0  0  0  0  0
  -23.5800  -31.9900   23.8570 O   0  0  0  0  0  0  0  0  0  0  0  0
  -22.8100  -29.4100   22.4050 C   0  0  0  0  0  0  0  0  0  0  0  0
  -21.4940  -29.1850   22.2460 N   0  0  0  0  0  0  0  0  0  0  0  0
  -23.5070  -28.7510   23.1810 O   0  0  0  0  0  0  0  0  0  0  0  0
  -20.9930  -29.7670   21.5900 H   0  0  0  0  0  0  0  0  0  0  0  0
  -18.1670  -27.8170   22.5960 C   0  0  0  0  0  0  0  0  0  0  0  0
  -20.7060  -28.1610   22.9320 C   0  0  0  0  0  3  0  0  0  0  0  0
  -20.8800  -26.7820   22.2540 C   0  0  0  0  0  2  0  0  0  0  0  0
  -19.8070  -26.4890   21.1990 C   0  0  0  0  0  2  0  0  0  0  0  0
  -18.4110  -26.5300   21.8270 C   0  0  0  0  0  2  0  0  0  0  0  0
  -19.2440  -28.5920   23.1010 C   0  0  0  0  0  0  0  0  0  0  0  0
  -18.9640  -29.8000   23.7760 C   0  0  0  0  0  3  0  0  0  0  0  0
  -17.6370  -30.2330   23.9510 C   0  0  0  0  0  3  0  0  0  0  0  0
  -16.5720  -29.4550   23.4630 C   0  0  0  0  0  3  0  0  0  0  0  0
  -16.8380  -28.2490   22.7930 C   0  0  0  0  0  3  0  0  0  0  0  0
  -25.9440  -32.3690   23.9260 C   0  0  0  0  0  3  0  0  0  0  0  0
  -25.6640  -33.7660   24.2820 N   0  0  0  0  0  0  0  0  0  0  0  0
  -26.0470  -34.8270   23.5580 C   0  0  0  0  0  0  0  0  0  0  0  0
  -26.7450  -34.7290   22.5450 O   0  0  0  0  0  0  0  0  0  0  0  0
  -25.0500  -33.9170   25.0690 H   0  0  0  0  0  0  0  0  0  0  0  0
  -24.3890  -36.6820   23.1830 C   0  0  0  0  0  1  0  0  0  0  0  0
  -25.5820  -36.2160   24.0340 C   0  0  0  0  0  3  0  0  0  0  0  0
  -27.6950  -37.0200   24.9920 C   0  0  0  0  0  1  0  0  0  0  0  0
  -26.6500  -37.2400   23.9950 N   0  0  0  0  0  0  0  0  0  0  0  0
  -26.2650  -38.1700   24.1370 H   0  0  0  0  0  0  0  0  0  0  0  0
  -26.4260  -31.5580   25.1920 C   0  0  1  0  0  0  0  0  0  0  0  0
  -25.3090  -31.3160   26.2350 C   0  0  0  0  0  1  0  0  0  0  0  0
  -26.9910  -30.1780   24.7780 C   0  0  0  0  0  1  0  0  0  0  0  0
  -27.5820  -32.3150   25.8900 C   0  0  0  0  0  1  0  0  0  0  0  0
  1  2  2  0
  1  6  1  0
  2 50  1  0
  3  4  2  0
  3  6  1  0
  4  8  1  0
  6  7  2  0
  7  5  1  0
  7  9  1  0
  8 18  1  0
  8  5  2  0
 10 18  1  0
 11 16  1  0
 12 13  1  0
 12 11  1  0
 14 13  1  0
 14 23  1  0
 14 15  1  0
 16 10  1  0
 16 15  1  0
 17 10  2  0
 18 19  1  0
 20 21  2  0
 21 40  1  0
 22 21  1  0
 22 25  1  0
 23 24  1  0
 23 20  1  0
 24 22  2  0
 25 26  1  0
 26 27  2  0
 28 31  1  0
 28 27  1  0
 29 28  2  0
 30 29  1  0
 30 25  2  0
 31 32  1  0
 32 37  2  0
 32 33  1  0
 33 34  2  0
 34 35  1  0
 35 39  1  0
 36 35  2  0
 37 36  1  0
 38 37  1  0
 40 41  1  0
 41 44  1  0
 41 43  1  0
 42 40  2  0
 45 20  1  0
 45 46  1  0
 47 45  1  0
 49  2  1  0
 49 48  2  0
 51 52  1  0
 51 50  1  0
 53 55  1  0
 53 52  1  0
 54 65  2  0
 55 60  1  0
 56 64  1  0
 56 66  1  0
 57 63  1  0
 57 59  1  0
 58 64  1  0
 59 58  1  0
 60 59  2  0
 61 62  1  0
 61 55  2  0
 62 57  2  0
 63 56  1  0
 64 54  1  0
 66 68  2  0
 67 66  1  0
 69 67  1  0
 70 79  2  0
 70 75  1  0
 71 67  1  0
 71 75  1  0
 72 71  1  0
 73 74  1  0
 73 72  1  0
 74 70  1  0
 75 76  2  0
 76 77  1  0
 78 77  2  0
 79 78  1  0
 80 54  1  0
 80 81  1  0
 80 90  1  0
 81 84  1  0
 82 86  1  0
 82 81  1  0
 83 82  2  0
 86 85  1  0
 88 86  1  0
 88 89  1  0
 88 87  1  0
 90 93  1  1
 90 91  1  0
 92 90  1  0
M  ISO  4  10 100  18 100  52 101  53 101
M  END
>  <TORSDO>  (74) 
F 21

>  <SCORE>  (74) 
-12.439

>  <name>  (74) 
73

>  <ligand_id>  (74) 
73

>  <original_smiles>  (74) 
[H]C([H])=C([H])C(=C([H])c1c([H])c([H])c(N([H])C(=O)N2C([H])([H])C([H])([H])C([H])([H])C([H])(n3nc(-c4c([H])c([H])c(Oc5c([H])c([H])c(F)c([H])c5F)c([H])c4[H])c(C(=O)N([H])[H])c3N([H])[H])C2([H])[H])c([H])c1C([H])([H])[H])C([H])([H])C([H])([H])C([H])([H])Oc1c([H])c([H])c2c(c1[H])C([H])([H])N(C(=O)C([H])(N([H])C(=O)C([H])(N([H])C([H])([H])[H])C([H])([H])[H])C(C([H])([H])[H])(C([H])([H])[H])C([H])([H])[H])C([H])(C(=O)N([H])C1([H])c3c([H])c([H])c([H])c([H])c3C([H])([H])C([H])([H])C1([H])[H])C2([H])[H]

>  <smiles>  (74) 
[H]C([H])=C([H])C(=C([H])c1c([H])c([H])c(N([H])C(=O)N2C([H])([H])C([H])([H])C([H])([H])C([H])(n3nc(-c4c([H])c([H])c(Oc5c([H])c([H])c(F)c([H])c5F)c([H])c4[H])c(C(=O)N([H])[H])c3N([H])[H])C2([H])[H])c([H])c1C([H])([H])[H])C([H])([H])C([H])([H])C([H])([H])Oc1c([H])c([H])c2c(c1[H])C([H])([H])N(C(=O)C([H])(N([H])C(=O)C([H])(N([H])C([H])([H])[H])C([H])([H])[H])C(C([H])([H])[H])(C([H])([H])[H])C([H])([H])[H])C([H])(C(=O)N([H])C1([H])c3c([H])c([H])c([H])c([H])c3C([H])([H])C([H])([H])C1([H])[H])C2([H])[H]

$$$$
74:0:0
     RDKit          3D

 92100  0  0  1  0  0  0  0  0999 V2000
  -30.7590  -21.0460   20.8520 C   0  0  0  0  0  3  0  0  0  0  0  0
  -30.1970  -21.9460   20.0200 C   0  0  0  0  0  3  0  0  0  0  0  0
  -30.9950  -18.7950   21.9090 C   0  0  0  0  0  3  0  0  0  0  0  0
  -29.8060  -18.9520   19.8030 C   0  0  0  0  0  3  0  0  0  0  0  0
  -30.5200  -19.5870   20.8420 C   0  0  0  0  0  0  0  0  0  0  0  0
  -30.7660  -17.4000   21.9410 C   0  0  0  0  0  0  0  0  0  0  0  0
  -29.5760  -17.5630   19.8160 C   0  0  0  0  0  0  0  0  0  0  0  0
  -30.0660  -16.7700   20.8850 C   0  0  0  0  0  0  0  0  0  0  0  0
  -31.2740  -16.5840   23.1160 C   0  0  0  0  0  1  0  0  0  0  0  0
  -28.7790  -16.9530   18.6770 C   0  0  0  0  0  1  0  0  0  0  0  0
  -29.7740  -15.4250   20.9470 O   0  0  0  0  0  0  0  0  0  0  0  0
  -30.5320  -14.5210   20.2720 C   0  0  0  0  0  0  0  0  0  0  0  0
  -30.2190  -12.3520   19.1010 C   0  0  0  0  0  2  0  0  0  0  0  0
  -29.2390  -12.5750   17.9320 C   0  0  0  0  0  2  0  0  0  0  0  0
  -27.7770  -12.4200   18.4020 C   0  0  0  0  0  2  0  0  0  0  0  0
  -27.4680  -13.2370   19.6860 C   0  0  0  0  0  3  0  0  0  0  0  0
  -28.5490  -13.0070   20.7620 C   0  0  0  0  0  2  0  0  0  0  0  0
  -29.8620  -13.2940   20.1630 N   0  0  0  0  0  0  0  0  0  0  0  0
  -31.6030  -14.7960   19.7220 O   0  0  0  0  0  0  0  0  0  0  0  0
  -25.0800  -13.8200   20.4570 C   0  0  0  0  0  0  0  0  0  0  0  0
  -24.0310  -13.0330   20.8500 C   0  0  0  0  0  0  0  0  0  0  0  0
  -24.5070  -11.6870   20.7990 C   0  0  0  0  0  0  0  0  0  0  0  0
  -26.1290  -12.9510   20.1950 N   0  0  0  0  0  0  0  0  0  0  0  0
  -25.7880  -11.6640   20.4550 N   0  0  0  0  0  0  0  0  0  0  0  0
  -23.8040  -10.4150   21.0040 C   0  0  0  0  0  0  0  0  0  0  0  0
  -24.2780   -9.4490   21.9180 C   0  0  0  0  0  3  0  0  0  0  0  0
  -23.5750   -8.2400   22.1100 C   0  0  0  0  0  3  0  0  0  0  0  0
  -22.3830   -7.9910   21.3890 C   0  0  0  0  0  0  0  0  0  0  0  0
  -21.9280   -8.9470   20.4640 C   0  0  0  0  0  3  0  0  0  0  0  0
  -22.6320  -10.1470   20.2700 C   0  0  0  0  0  3  0  0  0  0  0  0
  -21.6480   -6.8350   21.4920 O   0  0  0  0  0  0  0  0  0  0  0  0
  -21.6530   -6.0780   22.6360 C   0  0  0  0  0  0  0  0  0  0  0  0
  -21.2710   -6.6120   23.8850 C   0  0  0  0  0  3  0  0  0  0  0  0
  -21.2250   -5.7800   25.0230 C   0  0  0  0  0  3  0  0  0  0  0  0
  -21.5510   -4.4150   24.9110 C   0  0  0  0  0  0  0  0  0  0  0  0
  -21.9260   -3.8800   23.6660 C   0  0  0  0  0  3  0  0  0  0  0  0
  -21.9740   -4.7090   22.5310 C   0  0  0  0  0  0  0  0  0  0  0  0
  -22.3160   -4.1840   21.3300 F   0  0  0  0  0  0  0  0  0  0  0  0
  -21.5000   -3.6140   26.0000 F   0  0  0  0  0  0  0  0  0  0  0  0
  -22.6370  -13.4910   21.1660 C   0  0  0  0  0  0  0  0  0  0  0  0
  -21.9440  -12.7820   22.0510 N   0  0  0  0  0  0  0  0  0  0  0  0
  -22.1700  -14.5140   20.6660 O   0  0  0  0  0  0  0  0  0  0  0  0
  -22.3340  -11.9540   22.4770 H   0  0  0  0  0  0  0  0  0  0  0  0
  -21.0100  -13.0700   22.3050 H   0  0  0  0  0  0  0  0  0  0  0  0
  -25.2220  -15.1930   20.2860 N   0  0  0  0  0  0  0  0  0  0  0  0
  -24.4560  -15.8410   20.4330 H   0  0  0  0  0  0  0  0  0  0  0  0
  -26.0760  -15.6480   19.9890 H   0  0  0  0  0  0  0  0  0  0  0  0
  -30.5050  -23.3640   20.0400 C   0  0  0  0  0  3  0  0  0  0  0  0
  -29.9700  -24.2210   19.1520 C   0  0  0  0  0  3  0  0  0  0  0  0
  -30.2830  -25.7040   19.0610 C   0  0  0  0  0  2  0  0  0  0  0  0
  -29.0310  -26.5840   18.9100 C   0  0  0  0  0  2  0  0  0  0  0  0
  -28.5060  -26.9070   20.1920 O   0  0  0  0  0  0  0  0  0  0  0  0
  -24.5850  -31.9820   23.2550 C   0  0  0  0  0  0  0  0  0  0  0  0
  -27.3200  -27.6000   20.1820 C   0  0  0  0  0  0  0  0  0  0  0  0
  -23.4090  -30.5630   21.6030 C   0  0  0  0  0  3  0  0  0  0  0  0
  -24.8950  -29.0450   20.1910 C   0  0  0  0  0  0  0  0  0  0  0  0
  -25.9280  -30.9590   21.4250 C   0  0  0  0  0  2  0  0  0  0  0  0
  -26.0360  -29.5890   20.7920 C   0  0  0  0  0  0  0  0  0  0  0  0
  -27.2480  -28.8670   20.7990 C   0  0  0  0  0  3  0  0  0  0  0  0
  -26.1600  -27.0540   19.5920 C   0  0  0  0  0  3  0  0  0  0  0  0
  -24.9470  -27.7720   19.5940 C   0  0  0  0  0  3  0  0  0  0  0  0
  -23.6380  -29.8840   20.2260 C   0  0  0  0  0  2  0  0  0  0  0  0
  -24.6580  -31.1840   22.1520 N   0  0  0  0  0  0  0  0  0  0  0  0
  -23.4970  -32.2410   23.7870 O   0  0  0  0  0  0  0  0  0  0  0  0
  -22.7640  -29.5350   22.5590 C   0  0  0  0  0  0  0  0  0  0  0  0
  -21.4410  -29.3470   22.4290 N   0  0  0  0  0  0  0  0  0  0  0  0
  -23.4500  -28.9100   23.3720 O   0  0  0  0  0  0  0  0  0  0  0  0
  -20.9490  -29.9030   21.7430 H   0  0  0  0  0  0  0  0  0  0  0  0
  -18.0700  -28.1520   22.9290 C   0  0  0  0  0  0  0  0  0  0  0  0
  -20.6280  -28.4020   23.1940 C   0  0  0  0  0  3  0  0  0  0  0  0
  -20.7270  -26.9770   22.6020 C   0  0  0  0  0  2  0  0  0  0  0  0
  -19.6200  -26.6670   21.5890 C   0  0  0  0  0  2  0  0  0  0  0  0
  -18.2420  -26.8070   22.2410 C   0  0  0  0  0  2  0  0  0  0  0  0
  -19.1910  -28.9070   23.3630 C   0  0  0  0  0  0  0  0  0  0  0  0
  -18.9780  -30.1660   23.9650 C   0  0  0  0  0  3  0  0  0  0  0  0
  -17.6750  -30.6690   24.1400 C   0  0  0  0  0  3  0  0  0  0  0  0
  -16.5670  -29.9090   23.7240 C   0  0  0  0  0  3  0  0  0  0  0  0
  -16.7660  -28.6530   23.1250 C   0  0  0  0  0  3  0  0  0  0  0  0
  -25.8610  -32.6270   23.8840 C   0  0  0  0  0  3  0  0  0  0  0  0
  -25.5380  -34.0240   24.2000 N   0  0  0  0  0  0  0  0  0  0  0  0
  -25.8750  -35.0730   23.4380 C   0  0  0  0  0  0  0  0  0  0  0  0
  -26.5600  -34.9680   22.4180 O   0  0  0  0  0  0  0  0  0  0  0  0
  -24.9300  -34.1810   24.9920 H   0  0  0  0  0  0  0  0  0  0  0  0
  -24.1400  -36.8500   23.0410 C   0  0  0  0  0  1  0  0  0  0  0  0
  -25.3700  -36.4610   23.8770 C   0  0  0  0  0  3  0  0  0  0  0  0
  -27.4840  -37.3640   24.7380 C   0  0  0  0  0  1  0  0  0  0  0  0
  -26.3970  -37.5200   23.7760 N   0  0  0  0  0  0  0  0  0  0  0  0
  -25.9820  -38.4380   23.9120 H   0  0  0  0  0  0  0  0  0  0  0  0
  -26.3740  -31.8660   25.1680 C   0  0  1  0  0  0  0  0  0  0  0  0
  -25.2740  -31.6210   26.2260 C   0  0  0  0  0  1  0  0  0  0  0  0
  -26.9750  -30.4940   24.7840 C   0  0  0  0  0  1  0  0  0  0  0  0
  -27.5110  -32.6750   25.8360 C   0  0  0  0  0  1  0  0  0  0  0  0
  2 48  1  0
  2  1  2  0
  3  6  1  0
  4  7  2  0
  4  5  1  0
  5  1  1  0
  5  3  2  0
  6  9  1  0
  7  8  1  0
  8 11  1  0
  8  6  2  0
 10  7  1  0
 12 11  1  0
 13 18  1  0
 14 15  1  0
 14 13  1  0
 16 15  1  0
 16 23  1  0
 16 17  1  0
 18 12  1  0
 18 17  1  0
 19 12  2  0
 20 21  2  0
 21 40  1  0
 22 21  1  0
 22 25  1  0
 23 24  1  0
 23 20  1  0
 24 22  2  0
 25 26  1  0
 26 27  2  0
 28 31  1  0
 28 27  1  0
 29 28  2  0
 30 29  1  0
 30 25  2  0
 31 32  1  0
 32 33  1  0
 33 34  2  0
 35 34  1  0
 35 39  1  0
 36 35  2  0
 37 32  2  0
 37 36  1  0
 38 37  1  0
 40 41  1  0
 41 44  1  0
 41 43  1  0
 42 40  2  0
 45 46  1  0
 45 20  1  0
 47 45  1  0
 49 48  2  0
 50 49  1  0
 51 50  1  0
 51 52  1  0
 53 64  2  0
 54 52  1  0
 54 59  1  0
 55 63  1  0
 55 65  1  0
 56 62  1  0
 56 58  1  0
 57 63  1  0
 58 59  2  0
 58 57  1  0
 60 61  1  0
 60 54  2  0
 61 56  2  0
 62 55  1  0
 63 53  1  0
 65 67  2  0
 66 65  1  0
 68 66  1  0
 69 78  2  0
 69 74  1  0
 70 66  1  0
 70 74  1  0
 71 70  1  0
 72 73  1  0
 72 71  1  0
 73 69  1  0
 74 75  2  0
 75 76  1  0
 77 76  2  0
 78 77  1  0
 79 53  1  0
 79 80  1  0
 79 89  1  0
 80 83  1  0
 81 85  1  0
 81 80  1  0
 82 81  2  0
 85 84  1  0
 87 85  1  0
 87 88  1  0
 87 86  1  0
 89 92  1  1
 89 90  1  0
 91 89  1  0
M  ISO  4  11 100  12 100  51 101  52 101
M  END
>  <TORSDO>  (75) 
F 21

>  <SCORE>  (75) 
-12.668

>  <name>  (75) 
74

>  <ligand_id>  (75) 
74

>  <original_smiles>  (75) 
[H]C(C([H])=C([H])C([H])([H])C([H])([H])Oc1c([H])c([H])c2c(c1[H])C([H])([H])N(C(=O)C([H])(N([H])C(=O)C([H])(N([H])C([H])([H])[H])C([H])([H])[H])C(C([H])([H])[H])(C([H])([H])[H])C([H])([H])[H])C([H])(C(=O)N([H])C1([H])c3c([H])c([H])c([H])c([H])c3C([H])([H])C([H])([H])C1([H])[H])C2([H])[H])=C([H])c1c([H])c(C([H])([H])[H])c(OC(=O)N2C([H])([H])C([H])([H])C([H])([H])C([H])(n3nc(-c4c([H])c([H])c(Oc5c([H])c([H])c(F)c([H])c5F)c([H])c4[H])c(C(=O)N([H])[H])c3N([H])[H])C2([H])[H])c(C([H])([H])[H])c1[H]

>  <smiles>  (75) 
[H]C(C([H])=C([H])C([H])([H])C([H])([H])Oc1c([H])c([H])c2c(c1[H])C([H])([H])N(C(=O)C([H])(N([H])C(=O)C([H])(N([H])C([H])([H])[H])C([H])([H])[H])C(C([H])([H])[H])(C([H])([H])[H])C([H])([H])[H])C([H])(C(=O)N([H])C1([H])c3c([H])c([H])c([H])c([H])c3C([H])([H])C([H])([H])C1([H])[H])C2([H])[H])=C([H])c1c([H])c(C([H])([H])[H])c(OC(=O)N2C([H])([H])C([H])([H])C([H])([H])C([H])(n3nc(-c4c([H])c([H])c(Oc5c([H])c([H])c(F)c([H])c5F)c([H])c4[H])c(C(=O)N([H])[H])c3N([H])[H])C2([H])[H])c(C([H])([H])[H])c1[H]

$$$$
75:0:0
     RDKit          3D

 97105  0  0  1  0  0  0  0  0999 V2000
  -29.4520  -19.3590   19.9360 C   0  0  0  0  0  3  0  0  0  0  0  0
  -28.9180  -18.3870   17.7820 C   0  0  0  0  0  3  0  0  0  0  0  0
  -30.6820  -19.8380   19.4420 C   0  0  0  0  0  0  0  0  0  0  0  0
  -28.6590  -18.4880   19.1500 C   0  0  0  0  0  0  0  0  0  0  0  0
  -30.1380  -18.8650   17.2710 C   0  0  0  0  0  0  0  0  0  0  0  0
  -31.1220  -19.3300   18.1890 C   0  0  0  0  0  0  0  0  0  0  0  0
  -33.4270  -19.0110   16.8950 C   0  0  0  0  0  1  0  0  0  0  0  0
  -32.5700  -18.8160   18.1380 C   0  0  0  0  0  2  0  0  0  0  0  0
  -31.5480  -20.5650   20.3900 C   0  0  0  0  0  3  0  0  0  0  0  0
  -31.4980  -21.8790   20.6900 C   0  0  0  0  0  3  0  0  0  0  0  0
  -30.5280  -22.9080   20.0980 C   0  0  0  0  0  2  0  0  0  0  0  0
  -31.1970  -23.9330   19.1530 C   0  0  0  0  0  0  0  0  0  0  0  0
  -30.8830  -23.9830   17.9590 O   0  0  0  0  0  0  0  0  0  0  0  0
  -32.2280  -24.9230   19.7620 C   0  0  0  0  0  2  0  0  0  0  0  0
  -32.0660  -26.2870   19.3130 O   0  0  0  0  0  0  0  0  0  0  0  0
  -34.3120  -32.5000   16.6220 C   0  0  0  0  0  0  0  0  0  0  0  0
  -33.1160  -26.9640   18.7200 C   0  0  0  0  0  0  0  0  0  0  0  0
  -35.7580  -30.5430   16.1740 C   0  0  0  0  0  3  0  0  0  0  0  0
  -35.2030  -28.4340   17.4930 C   0  0  0  0  0  0  0  0  0  0  0  0
  -34.2830  -30.6230   18.2650 C   0  0  0  0  0  2  0  0  0  0  0  0
  -34.2020  -29.1090   18.1930 C   0  0  0  0  0  0  0  0  0  0  0  0
  -33.1550  -28.3800   18.8010 C   0  0  0  0  0  3  0  0  0  0  0  0
  -34.1500  -26.3100   18.0180 C   0  0  0  0  0  3  0  0  0  0  0  0
  -35.1810  -27.0310   17.3960 C   0  0  0  0  0  3  0  0  0  0  0  0
  -36.2970  -29.2670   16.8760 C   0  0  0  0  0  2  0  0  0  0  0  0
  -34.7450  -31.2660   17.0070 N   0  0  0  0  0  0  0  0  0  0  0  0
  -34.7770  -33.0580   15.6160 O   0  0  0  0  0  0  0  0  0  0  0  0
  -35.2380  -30.1570   14.7680 C   0  0  0  0  0  0  0  0  0  0  0  0
  -36.1110  -30.2450   13.7540 N   0  0  0  0  0  0  0  0  0  0  0  0
  -34.0770  -29.7620   14.6160 O   0  0  0  0  0  0  0  0  0  0  0  0
  -37.0300  -30.6110   13.9610 H   0  0  0  0  0  0  0  0  0  0  0  0
  -37.4260  -30.4770   10.3940 C   0  0  0  0  0  0  0  0  0  0  0  0
  -35.8580  -29.8750   12.3620 C   0  0  0  0  0  3  0  0  0  0  0  0
  -36.2470  -28.4010   12.0910 C   0  0  0  0  0  2  0  0  0  0  0  0
  -37.6760  -28.2410   11.5570 C   0  0  0  0  0  2  0  0  0  0  0  0
  -37.8520  -29.0240   10.2510 C   0  0  0  0  0  2  0  0  0  0  0  0
  -36.5000  -30.8780   11.3940 C   0  0  0  0  0  0  0  0  0  0  0  0
  -36.1630  -32.2420   11.5130 C   0  0  0  0  0  3  0  0  0  0  0  0
  -36.7350  -33.1870   10.6350 C   0  0  0  0  0  3  0  0  0  0  0  0
  -37.6290  -32.7840    9.6300 C   0  0  0  0  0  3  0  0  0  0  0  0
  -37.9740  -31.4290    9.5120 C   0  0  0  0  0  3  0  0  0  0  0  0
  -33.2360  -33.2820   17.4360 C   0  0  0  0  0  3  0  0  0  0  0  0
  -33.9160  -34.3970   18.1120 N   0  0  0  0  0  0  0  0  0  0  0  0
  -34.2930  -34.3890   19.3980 C   0  0  0  0  0  0  0  0  0  0  0  0
  -34.0460  -33.4550   20.1610 O   0  0  0  0  0  0  0  0  0  0  0  0
  -34.1950  -35.1760   17.5320 H   0  0  0  0  0  0  0  0  0  0  0  0
  -36.5690  -35.2550   20.0320 C   0  0  0  0  0  1  0  0  0  0  0  0
  -35.0770  -35.6100   19.9150 C   0  0  0  0  0  3  0  0  0  0  0  0
  -33.3620  -36.9060   21.0980 C   0  0  0  0  0  1  0  0  0  0  0  0
  -34.5860  -36.1170   21.2090 N   0  0  0  0  0  0  0  0  0  0  0  0
  -35.2920  -36.6890   21.6640 H   0  0  0  0  0  0  0  0  0  0  0  0
  -32.0460  -33.8120   16.5430 C   0  0  1  0  0  0  0  0  0  0  0  0
  -32.3250  -35.1800   15.8790 C   0  0  0  0  0  1  0  0  0  0  0  0
  -31.7100  -32.7990   15.4240 C   0  0  0  0  0  1  0  0  0  0  0  0
  -30.7720  -33.9570   17.4060 C   0  0  0  0  0  1  0  0  0  0  0  0
  -30.2970  -18.9180   15.7580 C   0  0  0  0  0  2  0  0  0  0  0  0
  -31.0410  -20.7690   14.1830 C   0  0  0  0  0  2  0  0  0  0  0  0
  -30.3450  -20.3480   15.2510 C   0  0  0  0  0  3  0  0  0  0  0  0
  -27.5800  -17.6160   19.7490 C   0  0  0  0  0  2  0  0  0  0  0  0
  -26.9800  -15.2280   19.5740 C   0  0  0  0  0  0  0  0  0  0  0  0
  -26.5470  -12.9200   20.3140 C   0  0  0  0  0  2  0  0  0  0  0  0
  -26.9970  -12.8150   21.7810 C   0  0  0  0  0  2  0  0  0  0  0  0
  -28.4730  -12.3750   21.8430 C   0  0  0  0  0  2  0  0  0  0  0  0
  -29.3870  -13.2360   20.9260 C   0  0  0  0  0  3  0  0  0  0  0  0
  -28.7740  -13.4240   19.5120 C   0  0  0  0  0  2  0  0  0  0  0  0
  -27.3990  -13.9330   19.6830 N   0  0  0  0  0  0  0  0  0  0  0  0
  -25.7920  -15.5610   19.6050 O   0  0  0  0  0  0  0  0  0  0  0  0
  -27.9150  -16.1810   19.6630 N   0  0  0  0  0  0  0  0  0  0  0  0
  -28.8690  -15.8940   19.8350 H   0  0  0  0  0  0  0  0  0  0  0  0
  -31.8980  -13.2990   20.3840 C   0  0  0  0  0  0  0  0  0  0  0  0
  -32.9050  -12.3930   20.6030 C   0  0  0  0  0  0  0  0  0  0  0  0
  -32.2890  -11.2610   21.2190 C   0  0  0  0  0  0  0  0  0  0  0  0
  -30.7430  -12.7010   20.8600 N   0  0  0  0  0  0  0  0  0  0  0  0
  -30.9780  -11.4460   21.3190 N   0  0  0  0  0  0  0  0  0  0  0  0
  -32.8780  -10.0380   21.7880 C   0  0  0  0  0  0  0  0  0  0  0  0
  -33.0260   -8.8650   21.0180 C   0  0  0  0  0  3  0  0  0  0  0  0
  -33.6130   -7.7100   21.5780 C   0  0  0  0  0  3  0  0  0  0  0  0
  -34.0620   -7.7230   22.9200 C   0  0  0  0  0  0  0  0  0  0  0  0
  -33.8930   -8.8860   23.6890 C   0  0  0  0  0  3  0  0  0  0  0  0
  -33.3030  -10.0340   23.1310 C   0  0  0  0  0  3  0  0  0  0  0  0
  -34.6200   -6.6390   23.5540 O   0  0  0  0  0  0  0  0  0  0  0  0
  -35.5230   -5.8250   22.9250 C   0  0  0  0  0  0  0  0  0  0  0  0
  -36.9070   -6.1170   22.9030 C   0  0  0  0  0  3  0  0  0  0  0  0
  -37.8050   -5.2200   22.2960 C   0  0  0  0  0  3  0  0  0  0  0  0
  -37.3300   -4.0180   21.7330 C   0  0  0  0  0  0  0  0  0  0  0  0
  -35.9550   -3.7200   21.7640 C   0  0  0  0  0  3  0  0  0  0  0  0
  -35.0560   -4.6200   22.3590 C   0  0  0  0  0  0  0  0  0  0  0  0
  -33.7340   -4.3220   22.4010 F   0  0  0  0  0  0  0  0  0  0  0  0
  -38.1940   -3.1500   21.1610 F   0  0  0  0  0  0  0  0  0  0  0  0
  -34.3700  -12.6070   20.3520 C   0  0  0  0  0  0  0  0  0  0  0  0
  -34.9870  -11.7370   19.5570 N   0  0  0  0  0  0  0  0  0  0  0  0
  -34.9730  -13.5630   20.8300 O   0  0  0  0  0  0  0  0  0  0  0  0
  -34.4900  -10.9640   19.1420 H   0  0  0  0  0  0  0  0  0  0  0  0
  -35.9680  -11.8530   19.3450 H   0  0  0  0  0  0  0  0  0  0  0  0
  -31.8780  -14.5760   19.8430 N   0  0  0  0  0  0  0  0  0  0  0  0
  -32.7340  -15.0480   19.5760 H   0  0  0  0  0  0  0  0  0  0  0  0
  -31.0650  -15.1740   19.7880 H   0  0  0  0  0  0  0  0  0  0  0  0
  2  4  1  0
  3  1  1  0
  3  9  1  0
  4 59  1  0
  4  1  2  0
  5  2  2  0
  5  6  1  0
  6  3  2  0
  7  8  1  0
  8  6  1  0
  9 10  2  0
 11 10  1  0
 12 14  1  0
 12 11  1  0
 13 12  2  0
 15 14  1  0
 16 26  1  0
 17 22  1  0
 17 15  1  0
 18 28  1  0
 18 25  1  0
 18 26  1  0
 19 21  1  0
 21 20  1  0
 21 22  2  0
 23 17  2  0
 24 19  2  0
 24 23  1  0
 25 19  1  0
 26 20  1  0
 27 16  2  0
 29 31  1  0
 29 28  1  0
 30 28  2  0
 32 37  1  0
 33 29  1  0
 34 33  1  0
 35 34  1  0
 36 32  1  0
 36 35  1  0
 37 38  2  0
 37 33  1  0
 39 38  1  0
 40 39  2  0
 41 40  1  0
 41 32  2  0
 42 16  1  0
 42 43  1  0
 43 44  1  0
 44 48  1  0
 44 45  2  0
 46 43  1  0
 48 47  1  0
 48 50  1  0
 49 50  1  0
 50 51  1  0
 52 55  1  1
 52 42  1  0
 53 52  1  0
 54 52  1  0
 56  5  1  0
 57 58  2  0
 58 56  1  0
 60 67  2  0
 60 68  1  0
 60 66  1  0
 61 62  1  0
 62 63  1  0
 64 65  1  0
 64 63  1  0
 65 66  1  0
 66 61  1  0
 68 59  1  0
 68 69  1  0
 70 71  2  0
 70 73  1  0
 71 72  1  0
 72 74  2  0
 72 75  1  0
 73 64  1  0
 73 74  1  0
 75 80  1  0
 76 77  1  0
 76 75  2  0
 77 78  2  0
 78 81  1  0
 78 79  1  0
 80 79  2  0
 82 81  1  0
 83 82  1  0
 84 83  2  0
 85 86  2  0
 85 84  1  0
 86 87  1  0
 87 88  1  0
 87 82  2  0
 89 85  1  0
 90 71  1  0
 90 92  2  0
 91 90  1  0
 93 91  1  0
 94 91  1  0
 95 70  1  0
 96 95  1  0
 97 95  1  0
M  ISO  4  14 101  15 101  60 100  68 100
M  END
>  <TORSDO>  (76) 
F 24

>  <SCORE>  (76) 
-5.815

>  <name>  (76) 
75

>  <ligand_id>  (76) 
75

>  <original_smiles>  (76) 
[H]C([H])=C([H])C([H])([H])c1c([H])c(C([H])([H])N([H])C(=O)N2C([H])([H])C([H])([H])C([H])([H])C([H])(n3nc(-c4c([H])c([H])c(Oc5c([H])c([H])c(F)c([H])c5F)c([H])c4[H])c(C(=O)N([H])[H])c3N([H])[H])C2([H])[H])c([H])c(C([H])=C([H])C([H])([H])C(=O)C([H])([H])Oc2c([H])c([H])c3c(c2[H])C([H])([H])N(C(=O)C([H])(N([H])C(=O)C([H])(N([H])C([H])([H])[H])C([H])([H])[H])C(C([H])([H])[H])(C([H])([H])[H])C([H])([H])[H])C([H])(C(=O)N([H])C2([H])c4c([H])c([H])c([H])c([H])c4C([H])([H])C([H])([H])C2([H])[H])C3([H])[H])c1C([H])([H])C([H])([H])[H]

>  <smiles>  (76) 
[H]C([H])=C([H])C([H])([H])c1c([H])c(C([H])([H])N([H])C(=O)N2C([H])([H])C([H])([H])C([H])([H])C([H])(n3nc(-c4c([H])c([H])c(Oc5c([H])c([H])c(F)c([H])c5F)c([H])c4[H])c(C(=O)N([H])[H])c3N([H])[H])C2([H])[H])c([H])c(C([H])=C([H])C([H])([H])C(=O)C([H])([H])Oc2c([H])c([H])c3c(c2[H])C([H])([H])N(C(=O)C([H])(N([H])C(=O)C([H])(N([H])C([H])([H])[H])C([H])([H])[H])C(C([H])([H])[H])(C([H])([H])[H])C([H])([H])[H])C([H])(C(=O)N([H])C2([H])c4c([H])c([H])c([H])c([H])c4C([H])([H])C([H])([H])C2([H])[H])C3([H])[H])c1C([H])([H])C([H])([H])[H]

$$$$
76:0:0
     RDKit          3D

 92100  0  0  1  0  0  0  0  0999 V2000
  -27.5290  -19.3760   18.6480 C   0  0  0  0  0  3  0  0  0  0  0  0
  -29.8500  -19.8470   20.0980 C   0  0  0  0  0  3  0  0  0  0  0  0
  -28.1330  -18.3150   19.3400 C   0  0  0  0  0  0  0  0  0  0  0  0
  -29.3430  -18.5010   20.0720 C   0  0  0  0  0  0  0  0  0  0  0  0
  -28.0540  -20.6710   18.6660 C   0  0  0  0  0  0  0  0  0  0  0  0
  -29.2130  -20.9490   19.4310 C   0  0  0  0  0  0  0  0  0  0  0  0
  -27.3580  -21.6840   17.7800 C   0  0  0  0  0  1  0  0  0  0  0  0
  -26.8250  -16.5190   18.1810 C   0  0  0  0  0  2  0  0  0  0  0  0
  -27.4410  -17.0390   19.2580 C   0  0  0  0  0  3  0  0  0  0  0  0
  -30.1080  -17.3560   20.7410 C   0  0  0  0  0  3  0  0  0  0  0  0
  -30.0240  -16.0060   20.5000 C   0  0  0  0  0  3  0  0  0  0  0  0
  -30.8230  -14.9190   21.1030 C   0  0  0  0  0  0  0  0  0  0  0  0
  -30.7400  -12.6200   20.2430 C   0  0  0  0  0  2  0  0  0  0  0  0
  -29.9280  -12.6460   18.9310 C   0  0  0  0  0  2  0  0  0  0  0  0
  -28.4250  -12.4440   19.2130 C   0  0  0  0  0  2  0  0  0  0  0  0
  -27.8900  -13.3680   20.3370 C   0  0  0  0  0  3  0  0  0  0  0  0
  -28.8420  -13.4010   21.5550 C   0  0  0  0  0  2  0  0  0  0  0  0
  -30.2130  -13.6940   21.0980 N   0  0  0  0  0  0  0  0  0  0  0  0
  -32.0460  -15.0280   21.1540 O   0  0  0  0  0  0  0  0  0  0  0  0
  -25.4280  -13.9030   20.8920 C   0  0  0  0  0  0  0  0  0  0  0  0
  -24.3520  -13.1030   21.1300 C   0  0  0  0  0  0  0  0  0  0  0  0
  -24.8450  -11.7660   21.0900 C   0  0  0  0  0  0  0  0  0  0  0  0
  -26.5130  -13.0550   20.7070 N   0  0  0  0  0  0  0  0  0  0  0  0
  -26.1590  -11.7590   20.8950 N   0  0  0  0  0  0  0  0  0  0  0  0
  -24.1290  -10.4920   21.1630 C   0  0  0  0  0  0  0  0  0  0  0  0
  -24.4930   -9.4970   22.0940 C   0  0  0  0  0  3  0  0  0  0  0  0
  -23.7730   -8.2860   22.1600 C   0  0  0  0  0  3  0  0  0  0  0  0
  -22.6760   -8.0650   21.2930 C   0  0  0  0  0  0  0  0  0  0  0  0
  -22.3330   -9.0510   20.3510 C   0  0  0  0  0  3  0  0  0  0  0  0
  -23.0540  -10.2540   20.2830 C   0  0  0  0  0  3  0  0  0  0  0  0
  -21.9340   -6.9090   21.2690 O   0  0  0  0  0  0  0  0  0  0  0  0
  -21.7780   -6.1350   22.3900 C   0  0  0  0  0  0  0  0  0  0  0  0
  -21.1970   -6.6440   23.5720 C   0  0  0  0  0  3  0  0  0  0  0  0
  -20.9900   -5.7950   24.6780 C   0  0  0  0  0  3  0  0  0  0  0  0
  -21.3540   -4.4380   24.6000 C   0  0  0  0  0  0  0  0  0  0  0  0
  -21.9290   -3.9270   23.4230 C   0  0  0  0  0  3  0  0  0  0  0  0
  -22.1370   -4.7740   22.3200 C   0  0  0  0  0  0  0  0  0  0  0  0
  -22.6720   -4.2740   21.1800 F   0  0  0  0  0  0  0  0  0  0  0  0
  -21.1480   -3.6180   25.6590 F   0  0  0  0  0  0  0  0  0  0  0  0
  -22.9270  -13.5550   21.2790 C   0  0  0  0  0  0  0  0  0  0  0  0
  -22.1340  -12.8310   22.0600 N   0  0  0  0  0  0  0  0  0  0  0  0
  -22.5250  -14.5870   20.7430 O   0  0  0  0  0  0  0  0  0  0  0  0
  -22.4710  -11.9980   22.5190 H   0  0  0  0  0  0  0  0  0  0  0  0
  -21.1760  -13.1150   22.2040 H   0  0  0  0  0  0  0  0  0  0  0  0
  -25.5320  -15.2790   20.7940 N   0  0  0  0  0  0  0  0  0  0  0  0
  -24.6920  -15.8460   20.7940 H   0  0  0  0  0  0  0  0  0  0  0  0
  -26.3080  -15.7410   20.3450 H   0  0  0  0  0  0  0  0  0  0  0  0
  -29.7950  -22.2210   19.4260 O   0  0  0  0  0  0  0  0  0  0  0  0
  -29.1840  -23.3150   20.1670 C   0  0  0  0  0  2  0  0  0  0  0  0
  -28.4570  -24.4300   19.3330 C   0  0  0  0  0  2  0  0  0  0  0  0
  -28.9890  -25.8990   19.2510 C   0  0  0  0  0  2  0  0  0  0  0  0
  -28.6300  -26.8660   20.2610 O   0  0  0  0  0  0  0  0  0  0  0  0
  -24.7340  -31.9540   23.3750 C   0  0  0  0  0  0  0  0  0  0  0  0
  -27.4480  -27.5930   20.1910 C   0  0  0  0  0  0  0  0  0  0  0  0
  -23.5490  -30.5800   21.6920 C   0  0  0  0  0  3  0  0  0  0  0  0
  -25.0280  -29.0910   20.2300 C   0  0  0  0  0  0  0  0  0  0  0  0
  -26.0740  -30.9590   21.5220 C   0  0  0  0  0  2  0  0  0  0  0  0
  -26.1750  -29.6020   20.8490 C   0  0  0  0  0  0  0  0  0  0  0  0
  -27.3770  -28.8530   20.8410 C   0  0  0  0  0  3  0  0  0  0  0  0
  -26.2840  -27.1130   19.5480 C   0  0  0  0  0  3  0  0  0  0  0  0
  -25.0800  -27.8450   19.5790 C   0  0  0  0  0  3  0  0  0  0  0  0
  -23.7730  -29.9360   20.2970 C   0  0  0  0  0  2  0  0  0  0  0  0
  -24.8030  -31.1800   22.2540 N   0  0  0  0  0  0  0  0  0  0  0  0
  -23.6480  -32.2040   23.9160 O   0  0  0  0  0  0  0  0  0  0  0  0
  -22.9020  -29.5320   22.6260 C   0  0  0  0  0  0  0  0  0  0  0  0
  -21.5830  -29.3270   22.4770 N   0  0  0  0  0  0  0  0  0  0  0  0
  -23.5850  -28.9060   23.4420 O   0  0  0  0  0  0  0  0  0  0  0  0
  -21.0920  -29.8860   21.7940 H   0  0  0  0  0  0  0  0  0  0  0  0
  -18.2300  -28.0410   22.8850 C   0  0  0  0  0  0  0  0  0  0  0  0
  -20.7740  -28.3600   23.2190 C   0  0  0  0  0  3  0  0  0  0  0  0
  -20.9270  -26.9390   22.6290 C   0  0  0  0  0  2  0  0  0  0  0  0
  -19.8570  -26.6020   21.5850 C   0  0  0  0  0  2  0  0  0  0  0  0
  -18.4570  -26.7050   22.1990 C   0  0  0  0  0  2  0  0  0  0  0  0
  -19.3200  -28.8270   23.3500 C   0  0  0  0  0  0  0  0  0  0  0  0
  -19.0550  -30.0770   23.9490 C   0  0  0  0  0  3  0  0  0  0  0  0
  -17.7350  -30.5440   24.0890 C   0  0  0  0  0  3  0  0  0  0  0  0
  -16.6600  -29.7570   23.6420 C   0  0  0  0  0  3  0  0  0  0  0  0
  -16.9080  -28.5070   23.0460 C   0  0  0  0  0  3  0  0  0  0  0  0
  -26.0110  -32.5820   24.0150 C   0  0  0  0  0  3  0  0  0  0  0  0
  -25.7130  -33.9920   24.3090 N   0  0  0  0  0  0  0  0  0  0  0  0
  -26.0810  -35.0230   23.5360 C   0  0  0  0  0  0  0  0  0  0  0  0
  -26.7760  -34.8890   22.5260 O   0  0  0  0  0  0  0  0  0  0  0  0
  -25.0990  -34.1710   25.0890 H   0  0  0  0  0  0  0  0  0  0  0  0
  -24.3820  -36.8270   23.1040 C   0  0  0  0  0  1  0  0  0  0  0  0
  -25.6000  -36.4260   23.9520 C   0  0  0  0  0  3  0  0  0  0  0  0
  -27.7250  -37.3060   24.8110 C   0  0  0  0  0  1  0  0  0  0  0  0
  -26.6470  -37.4650   23.8390 N   0  0  0  0  0  0  0  0  0  0  0  0
  -26.2490  -38.3930   23.9560 H   0  0  0  0  0  0  0  0  0  0  0  0
  -26.4890  -31.8310   25.3180 C   0  0  1  0  0  0  0  0  0  0  0  0
  -25.3670  -31.6260   26.3620 C   0  0  0  0  0  1  0  0  0  0  0  0
  -27.0670  -30.4400   24.9670 C   0  0  0  0  0  1  0  0  0  0  0  0
  -27.6310  -32.6270   25.9940 C   0  0  0  0  0  1  0  0  0  0  0  0
  1  5  2  0
  1  3  1  0
  3  4  2  0
  4  2  1  0
  4 10  1  0
  5  6  1  0
  6  2  2  0
  7  5  1  0
  8  9  2  0
  9  3  1  0
 11 10  2  0
 11 12  1  0
 12 19  2  0
 13 18  1  0
 14 15  1  0
 14 13  1  0
 16 15  1  0
 16 23  1  0
 16 17  1  0
 18 12  1  0
 18 17  1  0
 20 21  2  0
 21 40  1  0
 22 21  1  0
 22 25  1  0
 23 20  1  0
 23 24  1  0
 24 22  2  0
 25 26  1  0
 26 27  2  0
 28 27  1  0
 29 28  2  0
 30 29  1  0
 30 25  2  0
 31 28  1  0
 31 32  1  0
 32 33  1  0
 33 34  2  0
 35 34  1  0
 35 39  1  0
 36 35  2  0
 37 32  2  0
 37 36  1  0
 38 37  1  0
 40 41  1  0
 41 44  1  0
 41 43  1  0
 42 40  2  0
 45 46  1  0
 45 20  1  0
 47 45  1  0
 48  6  1  0
 48 49  1  0
 50 49  1  0
 51 50  1  0
 51 52  1  0
 53 64  2  0
 54 52  1  0
 54 59  1  0
 55 63  1  0
 55 65  1  0
 56 62  1  0
 56 58  1  0
 57 63  1  0
 58 57  1  0
 59 58  2  0
 60 61  1  0
 60 54  2  0
 61 56  2  0
 62 55  1  0
 63 53  1  0
 65 67  2  0
 66 65  1  0
 68 66  1  0
 69 78  2  0
 69 74  1  0
 70 66  1  0
 70 74  1  0
 71 70  1  0
 72 73  1  0
 72 71  1  0
 73 69  1  0
 74 75  2  0
 75 76  1  0
 77 76  2  0
 78 77  1  0
 79 53  1  0
 79 80  1  0
 79 89  1  0
 80 83  1  0
 81 85  1  0
 81 80  1  0
 82 81  2  0
 85 84  1  0
 87 85  1  0
 87 88  1  0
 87 86  1  0
 89 92  1  1
 89 90  1  0
 91 89  1  0
M  ISO  4  11 100  12 100  51 101  52 101
M  END
>  <TORSDO>  (77) 
F 22

>  <SCORE>  (77) 
-10.970

>  <name>  (77) 
76

>  <ligand_id>  (77) 
76

>  <original_smiles>  (77) 
[H]C([H])=C([H])c1c([H])c(C([H])([H])[H])c(OC([H])([H])C([H])([H])C([H])([H])Oc2c([H])c([H])c3c(c2[H])C([H])([H])N(C(=O)C([H])(N([H])C(=O)C([H])(N([H])C([H])([H])[H])C([H])([H])[H])C(C([H])([H])[H])(C([H])([H])[H])C([H])([H])[H])C([H])(C(=O)N([H])C2([H])c4c([H])c([H])c([H])c([H])c4C([H])([H])C([H])([H])C2([H])[H])C3([H])[H])c([H])c1C([H])=C([H])C(=O)N1C([H])([H])C([H])([H])C([H])([H])C([H])(n2nc(-c3c([H])c([H])c(Oc4c([H])c([H])c(F)c([H])c4F)c([H])c3[H])c(C(=O)N([H])[H])c2N([H])[H])C1([H])[H]

>  <smiles>  (77) 
[H]C([H])=C([H])c1c([H])c(C([H])([H])[H])c(OC([H])([H])C([H])([H])C([H])([H])Oc2c([H])c([H])c3c(c2[H])C([H])([H])N(C(=O)C([H])(N([H])C(=O)C([H])(N([H])C([H])([H])[H])C([H])([H])[H])C(C([H])([H])[H])(C([H])([H])[H])C([H])([H])[H])C([H])(C(=O)N([H])C2([H])c4c([H])c([H])c([H])c([H])c4C([H])([H])C([H])([H])C2([H])[H])C3([H])[H])c([H])c1C([H])=C([H])C(=O)N1C([H])([H])C([H])([H])C([H])([H])C([H])(n2nc(-c3c([H])c([H])c(Oc4c([H])c([H])c(F)c([H])c4F)c([H])c3[H])c(C(=O)N([H])[H])c2N([H])[H])C1([H])[H]

$$$$
77:0:0
     RDKit          3D

 94102  0  0  1  0  0  0  0  0999 V2000
  -30.6980  -17.6520   20.1360 C   0  0  0  0  0  3  0  0  0  0  0  0
  -30.4700  -18.9870   19.7360 C   0  0  0  0  0  3  0  0  0  0  0  0
  -28.1130  -18.4990   19.5310 C   0  0  0  0  0  3  0  0  0  0  0  0
  -29.6490  -16.7010   20.2200 C   0  0  0  0  0  0  0  0  0  0  0  0
  -28.3190  -17.1540   19.9380 C   0  0  0  0  0  0  0  0  0  0  0  0
  -29.1710  -19.4220   19.4100 C   0  0  0  0  0  0  0  0  0  0  0  0
  -29.9670  -15.2870   20.6470 C   0  0  0  0  0  0  0  0  0  0  0  0
  -29.9520  -14.9450   21.8720 N   0  0  0  0  0  0  0  0  0  0  0  0
  -29.7030  -15.7350   22.4560 H   0  0  0  0  0  0  0  0  0  0  0  0
  -30.3250  -14.2840   19.5380 C   0  0  0  0  0  0  0  0  0  0  0  0
  -29.9090  -12.1050   18.4420 C   0  0  0  0  0  2  0  0  0  0  0  0
  -28.7870  -12.2140   17.3910 C   0  0  0  0  0  2  0  0  0  0  0  0
  -27.4040  -12.0240   18.0420 C   0  0  0  0  0  2  0  0  0  0  0  0
  -27.2250  -12.8900   19.3170 C   0  0  0  0  0  3  0  0  0  0  0  0
  -28.4390  -12.7350   20.2590 C   0  0  0  0  0  2  0  0  0  0  0  0
  -29.6550  -13.0920   19.5070 N   0  0  0  0  0  0  0  0  0  0  0  0
  -31.2330  -14.5540   18.7420 O   0  0  0  0  0  0  0  0  0  0  0  0
  -24.9870  -13.4410   20.4640 C   0  0  0  0  0  0  0  0  0  0  0  0
  -23.9950  -12.6440   20.9650 C   0  0  0  0  0  0  0  0  0  0  0  0
  -24.4310  -11.2990   20.7630 C   0  0  0  0  0  0  0  0  0  0  0  0
  -25.9710  -12.5810   20.0010 N   0  0  0  0  0  0  0  0  0  0  0  0
  -25.6470  -11.2830   20.2310 N   0  0  0  0  0  0  0  0  0  0  0  0
  -23.7360  -10.0250   20.9910 C   0  0  0  0  0  0  0  0  0  0  0  0
  -24.2710   -9.0350   21.8440 C   0  0  0  0  0  3  0  0  0  0  0  0
  -23.5760   -7.8260   22.0620 C   0  0  0  0  0  3  0  0  0  0  0  0
  -22.3320   -7.5990   21.4280 C   0  0  0  0  0  0  0  0  0  0  0  0
  -21.8140   -8.5790   20.5620 C   0  0  0  0  0  3  0  0  0  0  0  0
  -22.5100   -9.7800   20.3420 C   0  0  0  0  0  3  0  0  0  0  0  0
  -21.5990   -6.4450   21.5590 O   0  0  0  0  0  0  0  0  0  0  0  0
  -21.6190   -5.7070   22.7160 C   0  0  0  0  0  0  0  0  0  0  0  0
  -21.2370   -6.2580   23.9580 C   0  0  0  0  0  3  0  0  0  0  0  0
  -21.2050   -5.4470   25.1100 C   0  0  0  0  0  3  0  0  0  0  0  0
  -21.5460   -4.0830   25.0200 C   0  0  0  0  0  0  0  0  0  0  0  0
  -21.9210   -3.5310   23.7820 C   0  0  0  0  0  3  0  0  0  0  0  0
  -21.9550   -4.3410   22.6330 C   0  0  0  0  0  0  0  0  0  0  0  0
  -22.2950   -3.7990   21.4390 F   0  0  0  0  0  0  0  0  0  0  0  0
  -21.5090   -3.3010   26.1230 F   0  0  0  0  0  0  0  0  0  0  0  0
  -22.6740  -13.1000   21.5150 C   0  0  0  0  0  0  0  0  0  0  0  0
  -22.1090  -12.3490   22.4540 N   0  0  0  0  0  0  0  0  0  0  0  0
  -22.1580  -14.1540   21.1470 O   0  0  0  0  0  0  0  0  0  0  0  0
  -22.5440  -11.4950   22.7710 H   0  0  0  0  0  0  0  0  0  0  0  0
  -21.2300  -12.6330   22.8620 H   0  0  0  0  0  0  0  0  0  0  0  0
  -25.1240  -14.8200   20.3440 N   0  0  0  0  0  0  0  0  0  0  0  0
  -24.4210  -15.4610   20.6910 H   0  0  0  0  0  0  0  0  0  0  0  0
  -25.9510  -15.2900   20.0020 H   0  0  0  0  0  0  0  0  0  0  0  0
  -25.8430  -16.6290   19.9750 C   0  0  0  0  0  2  0  0  0  0  0  0
  -27.1350  -16.2710   20.0810 C   0  0  0  0  0  3  0  0  0  0  0  0
  -29.1160  -21.7620   19.5110 C   0  0  0  0  0  3  0  0  0  0  0  0
  -28.9250  -20.6850   18.8510 N   0  0  0  0  0  0  0  0  0  0  0  0
  -28.9430  -23.1340   18.8560 C   0  0  0  0  0  2  0  0  0  0  0  0
  -28.6410  -24.3060   19.8090 C   0  0  0  0  0  0  0  0  0  0  0  0
  -28.1110  -24.1390   20.9140 O   0  0  0  0  0  0  0  0  0  0  0  0
  -29.0010  -25.7110   19.2820 C   0  0  0  0  0  2  0  0  0  0  0  0
  -28.6960  -26.7650   20.2140 O   0  0  0  0  0  0  0  0  0  0  0  0
  -24.5890  -31.7570   23.1740 C   0  0  0  0  0  0  0  0  0  0  0  0
  -27.4830  -27.4260   20.1470 C   0  0  0  0  0  0  0  0  0  0  0  0
  -23.4930  -30.3500   21.4610 C   0  0  0  0  0  3  0  0  0  0  0  0
  -25.0470  -28.8730   20.0770 C   0  0  0  0  0  0  0  0  0  0  0  0
  -26.0160  -30.7720   21.3850 C   0  0  0  0  0  2  0  0  0  0  0  0
  -26.1630  -29.4150   20.7240 C   0  0  0  0  0  0  0  0  0  0  0  0
  -27.3790  -28.6970   20.7580 C   0  0  0  0  0  3  0  0  0  0  0  0
  -26.3390  -26.8890   19.5100 C   0  0  0  0  0  3  0  0  0  0  0  0
  -25.1290  -27.6090   19.4700 C   0  0  0  0  0  3  0  0  0  0  0  0
  -23.7810  -29.7000   20.0820 C   0  0  0  0  0  2  0  0  0  0  0  0
  -24.7140  -30.9740   22.0660 N   0  0  0  0  0  0  0  0  0  0  0  0
  -23.4780  -31.9930   23.6700 O   0  0  0  0  0  0  0  0  0  0  0  0
  -22.8300  -29.2950   22.3760 C   0  0  0  0  0  0  0  0  0  0  0  0
  -21.5040  -29.1310   22.2360 N   0  0  0  0  0  0  0  0  0  0  0  0
  -23.5040  -28.6290   23.1660 O   0  0  0  0  0  0  0  0  0  0  0  0
  -21.0230  -29.7180   21.5690 H   0  0  0  0  0  0  0  0  0  0  0  0
  -18.1060  -28.0040   22.7330 C   0  0  0  0  0  0  0  0  0  0  0  0
  -20.6740  -28.1730   22.9680 C   0  0  0  0  0  3  0  0  0  0  0  0
  -20.7240  -26.7780   22.3030 C   0  0  0  0  0  2  0  0  0  0  0  0
  -19.5930  -26.5470   21.2950 C   0  0  0  0  0  2  0  0  0  0  0  0
  -18.2290  -26.6940   21.9740 C   0  0  0  0  0  2  0  0  0  0  0  0
  -19.2540  -28.7080   23.1840 C   0  0  0  0  0  0  0  0  0  0  0  0
  -19.0840  -29.9410   23.8500 C   0  0  0  0  0  3  0  0  0  0  0  0
  -17.7980  -30.4670   24.0720 C   0  0  0  0  0  3  0  0  0  0  0  0
  -16.6640  -29.7590   23.6390 C   0  0  0  0  0  3  0  0  0  0  0  0
  -16.8190  -28.5300   22.9740 C   0  0  0  0  0  3  0  0  0  0  0  0
  -25.8300  -32.4120   23.8560 C   0  0  0  0  0  3  0  0  0  0  0  0
  -25.4810  -33.8040   24.1690 N   0  0  0  0  0  0  0  0  0  0  0  0
  -25.8180  -34.8590   23.4170 C   0  0  0  0  0  0  0  0  0  0  0  0
  -26.5320  -34.7660   22.4140 O   0  0  0  0  0  0  0  0  0  0  0  0
  -24.8600  -33.9490   24.9510 H   0  0  0  0  0  0  0  0  0  0  0  0
  -24.0640  -36.6090   22.9830 C   0  0  0  0  0  1  0  0  0  0  0  0
  -25.2810  -36.2390   23.8460 C   0  0  0  0  0  3  0  0  0  0  0  0
  -27.3610  -37.1770   24.7540 C   0  0  0  0  0  1  0  0  0  0  0  0
  -26.2920  -37.3160   23.7680 N   0  0  0  0  0  0  0  0  0  0  0  0
  -25.8580  -38.2270   23.8990 H   0  0  0  0  0  0  0  0  0  0  0  0
  -26.3040  -31.6500   25.1550 C   0  0  1  0  0  0  0  0  0  0  0  0
  -25.1700  -31.3890   26.1740 C   0  0  0  0  0  1  0  0  0  0  0  0
  -26.9350  -30.2840   24.7940 C   0  0  0  0  0  1  0  0  0  0  0  0
  -27.4090  -32.4660   25.8660 C   0  0  0  0  0  1  0  0  0  0  0  0
  1  4  1  0
  2  1  2  0
  3  5  1  0
  4  7  1  0
  5 47  1  0
  5  4  2  0
  6  3  2  0
  6  2  1  0
  7  8  2  0
  8  9  1  0
 10  7  1  0
 11 16  1  0
 12 13  1  0
 12 11  1  0
 14 13  1  0
 14 21  1  0
 14 15  1  0
 16 10  1  0
 16 15  1  0
 17 10  2  0
 18 19  2  0
 19 38  1  0
 20 19  1  0
 20 23  1  0
 21 22  1  0
 21 18  1  0
 22 20  2  0
 23 24  1  0
 24 25  2  0
 26 29  1  0
 26 25  1  0
 27 26  2  0
 28 27  1  0
 28 23  2  0
 29 30  1  0
 30 31  1  0
 31 32  2  0
 33 32  1  0
 33 37  1  0
 34 33  2  0
 35 30  2  0
 35 34  1  0
 36 35  1  0
 38 39  1  0
 39 41  1  0
 39 42  1  0
 40 38  2  0
 43 18  1  0
 43 44  1  0
 45 43  1  0
 46 47  2  0
 49  6  1  0
 49 48  2  0
 50 48  1  0
 50 51  1  0
 51 52  2  0
 53 51  1  0
 53 54  1  0
 55 66  2  0
 56 54  1  0
 56 61  1  0
 57 65  1  0
 57 67  1  0
 58 64  1  0
 58 60  1  0
 59 65  1  0
 60 61  2  0
 60 59  1  0
 62 56  2  0
 63 62  1  0
 63 58  2  0
 64 57  1  0
 65 55  1  0
 67 69  2  0
 68 67  1  0
 70 68  1  0
 71 80  2  0
 71 76  1  0
 72 68  1  0
 72 76  1  0
 73 72  1  0
 74 75  1  0
 74 73  1  0
 75 71  1  0
 76 77  2  0
 77 78  1  0
 79 78  2  0
 80 79  1  0
 81 55  1  0
 81 82  1  0
 81 91  1  0
 82 85  1  0
 83 87  1  0
 83 82  1  0
 84 83  2  0
 87 86  1  0
 89 87  1  0
 89 90  1  0
 89 88  1  0
 91 94  1  1
 91 92  1  0
 93 91  1  0
M  ISO  4   7 100  10 100  53 101  54 101
M  END
>  <TORSDO>  (78) 
F 22

>  <SCORE>  (78) 
-12.137

>  <name>  (78) 
77

>  <ligand_id>  (78) 
77

>  <original_smiles>  (78) 
[H]N=C(C(=O)N1C([H])([H])C([H])([H])C([H])([H])C([H])(n2nc(-c3c([H])c([H])c(Oc4c([H])c([H])c(F)c([H])c4F)c([H])c3[H])c(C(=O)N([H])[H])c2N([H])[H])C1([H])[H])c1c([H])c([H])c(N=C([H])C([H])([H])C(=O)C([H])([H])Oc2c([H])c([H])c3c(c2[H])C([H])([H])N(C(=O)C([H])(N([H])C(=O)C([H])(N([H])C([H])([H])[H])C([H])([H])[H])C(C([H])([H])[H])(C([H])([H])[H])C([H])([H])[H])C([H])(C(=O)N([H])C2([H])c4c([H])c([H])c([H])c([H])c4C([H])([H])C([H])([H])C2([H])[H])C3([H])[H])c([H])c1C([H])=C([H])[H]

>  <smiles>  (78) 
[H]N=C(C(=O)N1C([H])([H])C([H])([H])C([H])([H])C([H])(n2nc(-c3c([H])c([H])c(Oc4c([H])c([H])c(F)c([H])c4F)c([H])c3[H])c(C(=O)N([H])[H])c2N([H])[H])C1([H])[H])c1c([H])c([H])c(N=C([H])C([H])([H])C(=O)C([H])([H])Oc2c([H])c([H])c3c(c2[H])C([H])([H])N(C(=O)C([H])(N([H])C(=O)C([H])(N([H])C([H])([H])[H])C([H])([H])[H])C(C([H])([H])[H])(C([H])([H])[H])C([H])([H])[H])C([H])(C(=O)N([H])C2([H])c4c([H])c([H])c([H])c([H])c4C([H])([H])C([H])([H])C2([H])[H])C3([H])[H])c([H])c1C([H])=C([H])[H]

$$$$
78:0:0
     RDKit          3D

 94102  0  0  1  0  0  0  0  0999 V2000
  -30.9210  -18.6750   23.7040 C   0  0  0  0  0  3  0  0  0  0  0  0
  -31.1610  -19.4040   21.0130 C   0  0  0  0  0  3  0  0  0  0  0  0
  -30.8120  -20.0340   23.3500 C   0  0  0  0  0  0  0  0  0  0  0  0
  -31.1650  -17.6770   22.7430 C   0  0  0  0  0  0  0  0  0  0  0  0
  -31.2510  -18.0310   21.3720 C   0  0  0  0  0  0  0  0  0  0  0  0
  -30.9560  -20.4170   21.9900 C   0  0  0  0  0  0  0  0  0  0  0  0
  -31.3540  -16.2520   23.2430 C   0  0  0  0  0  1  0  0  0  0  0  0
  -30.1400  -22.2610   24.3550 C   0  0  0  0  0  2  0  0  0  0  0  0
  -30.5180  -20.9740   24.4540 C   0  0  0  0  0  3  0  0  0  0  0  0
  -31.4970  -16.9800   20.2800 C   0  0  0  0  0  2  0  0  0  0  0  0
  -31.8530  -14.5160   20.4860 C   0  0  0  0  0  0  0  0  0  0  0  0
  -31.7160  -12.0810   20.1260 C   0  0  0  0  0  2  0  0  0  0  0  0
  -30.8660  -11.8090   18.8670 C   0  0  0  0  0  2  0  0  0  0  0  0
  -29.3670  -11.7470   19.2210 C   0  0  0  0  0  2  0  0  0  0  0  0
  -28.9060  -12.9450   20.0930 C   0  0  0  0  0  3  0  0  0  0  0  0
  -29.8730  -13.1690   21.2770 C   0  0  0  0  0  2  0  0  0  0  0  0
  -31.2290  -13.3330   20.7270 N   0  0  0  0  0  0  0  0  0  0  0  0
  -33.0000  -14.5930   20.0380 O   0  0  0  0  0  0  0  0  0  0  0  0
  -31.0910  -15.6130   20.6290 N   0  0  0  0  0  0  0  0  0  0  0  0
  -30.1460  -15.4830   20.9550 H   0  0  0  0  0  0  0  0  0  0  0  0
  -26.5590  -13.7430   20.7860 C   0  0  0  0  0  0  0  0  0  0  0  0
  -25.4210  -13.0580   21.1190 C   0  0  0  0  0  0  0  0  0  0  0  0
  -25.7620  -11.6720   21.0540 C   0  0  0  0  0  0  0  0  0  0  0  0
  -27.5260  -12.7790   20.5450 N   0  0  0  0  0  0  0  0  0  0  0  0
  -27.0480  -11.5270   20.7620 N   0  0  0  0  0  0  0  0  0  0  0  0
  -24.9250  -10.4740   21.1960 C   0  0  0  0  0  0  0  0  0  0  0  0
  -25.1290   -9.5510   22.2470 C   0  0  0  0  0  3  0  0  0  0  0  0
  -24.3000   -8.4170   22.3730 C   0  0  0  0  0  3  0  0  0  0  0  0
  -23.2520   -8.1960   21.4480 C   0  0  0  0  0  0  0  0  0  0  0  0
  -23.0680   -9.1050   20.3920 C   0  0  0  0  0  3  0  0  0  0  0  0
  -23.8970  -10.2310   20.2630 C   0  0  0  0  0  3  0  0  0  0  0  0
  -22.4130   -7.1080   21.4780 O   0  0  0  0  0  0  0  0  0  0  0  0
  -21.7920   -6.7100   22.6340 C   0  0  0  0  0  0  0  0  0  0  0  0
  -20.9750   -7.5850   23.3820 C   0  0  0  0  0  3  0  0  0  0  0  0
  -20.3000   -7.1130   24.5260 C   0  0  0  0  0  3  0  0  0  0  0  0
  -20.4330   -5.7690   24.9180 C   0  0  0  0  0  0  0  0  0  0  0  0
  -21.2430   -4.8940   24.1720 C   0  0  0  0  0  3  0  0  0  0  0  0
  -21.9180   -5.3630   23.0310 C   0  0  0  0  0  0  0  0  0  0  0  0
  -22.6790   -4.5100   22.3040 F   0  0  0  0  0  0  0  0  0  0  0  0
  -19.7800   -5.3130   26.0130 F   0  0  0  0  0  0  0  0  0  0  0  0
  -24.0680  -13.6480   21.3890 C   0  0  0  0  0  0  0  0  0  0  0  0
  -23.2910  -13.0260   22.2680 N   0  0  0  0  0  0  0  0  0  0  0  0
  -23.7080  -14.6970   20.8530 O   0  0  0  0  0  0  0  0  0  0  0  0
  -23.5940  -12.1770   22.7230 H   0  0  0  0  0  0  0  0  0  0  0  0
  -22.3810  -13.4040   22.4920 H   0  0  0  0  0  0  0  0  0  0  0  0
  -26.8460  -15.0970   20.6500 N   0  0  0  0  0  0  0  0  0  0  0  0
  -26.1400  -15.8150   20.7690 H   0  0  0  0  0  0  0  0  0  0  0  0
  -27.7400  -15.4690   20.3530 H   0  0  0  0  0  0  0  0  0  0  0  0
  -30.9220  -21.7730   21.7190 O   0  0  0  0  0  0  0  0  0  0  0  0
  -30.6640  -22.2960   20.4190 C   0  0  0  0  0  2  0  0  0  0  0  0
  -31.0460  -24.7970   19.9210 C   0  0  0  0  0  3  0  0  0  0  0  0
  -30.4150  -23.7960   20.5680 C   0  0  0  0  0  3  0  0  0  0  0  0
  -30.8380  -26.2810   20.2270 C   0  0  0  0  0  2  0  0  0  0  0  0
  -30.2370  -27.0180   19.1560 O   0  0  0  0  0  0  0  0  0  0  0  0
  -26.4460  -29.9230   24.4510 C   0  0  0  0  0  0  0  0  0  0  0  0
  -29.0910  -27.6690   19.5440 C   0  0  0  0  0  0  0  0  0  0  0  0
  -25.2240  -29.4800   22.3450 C   0  0  0  0  0  3  0  0  0  0  0  0
  -26.6700  -28.8940   20.3260 C   0  0  0  0  0  0  0  0  0  0  0  0
  -27.7350  -29.9650   22.3190 C   0  0  0  0  0  2  0  0  0  0  0  0
  -27.8320  -29.0930   21.0840 C   0  0  0  0  0  0  0  0  0  0  0  0
  -29.0470  -28.4840   20.6970 C   0  0  0  0  0  3  0  0  0  0  0  0
  -27.9190  -27.4840   18.7840 C   0  0  0  0  0  3  0  0  0  0  0  0
  -26.7080  -28.0890   19.1720 C   0  0  0  0  0  3  0  0  0  0  0  0
  -25.4090  -29.5760   20.8070 C   0  0  0  0  0  2  0  0  0  0  0  0
  -26.4870  -29.7740   23.0960 N   0  0  0  0  0  0  0  0  0  0  0  0
  -25.3740  -29.8610   25.0700 O   0  0  0  0  0  0  0  0  0  0  0  0
  -24.6160  -28.1000   22.6850 C   0  0  0  0  0  0  0  0  0  0  0  0
  -23.3520  -27.8880   22.2870 N   0  0  0  0  0  0  0  0  0  0  0  0
  -25.2850  -27.2410   23.2660 O   0  0  0  0  0  0  0  0  0  0  0  0
  -22.8710  -28.6430   21.8200 H   0  0  0  0  0  0  0  0  0  0  0  0
  -20.2390  -26.2450   21.4670 C   0  0  0  0  0  0  0  0  0  0  0  0
  -22.5900  -26.6510   22.4620 C   0  0  0  0  0  3  0  0  0  0  0  0
  -23.0800  -25.5530   21.4900 C   0  0  0  0  0  2  0  0  0  0  0  0
  -22.2900  -25.5140   20.1790 C   0  0  0  0  0  2  0  0  0  0  0  0
  -20.8050  -25.2660   20.4520 C   0  0  0  0  0  2  0  0  0  0  0  0
  -21.0800  -26.9080   22.4000 C   0  0  0  0  0  0  0  0  0  0  0  0
  -20.5090  -27.8350   23.2990 C   0  0  0  0  0  3  0  0  0  0  0  0
  -19.1270  -28.1010   23.2770 C   0  0  0  0  0  3  0  0  0  0  0  0
  -18.2960  -27.4300   22.3630 C   0  0  0  0  0  3  0  0  0  0  0  0
  -18.8520  -26.5020   21.4640 C   0  0  0  0  0  3  0  0  0  0  0  0
  -27.7360  -30.2000   25.2820 C   0  0  0  0  0  3  0  0  0  0  0  0
  -27.5030  -31.4210   26.0650 N   0  0  0  0  0  0  0  0  0  0  0  0
  -27.9940  -32.6290   25.7560 C   0  0  0  0  0  0  0  0  0  0  0  0
  -28.7620  -32.8160   24.8070 O   0  0  0  0  0  0  0  0  0  0  0  0
  -26.8400  -31.3530   26.8240 H   0  0  0  0  0  0  0  0  0  0  0  0
  -26.4900  -34.6370   25.9150 C   0  0  0  0  0  1  0  0  0  0  0  0
  -27.5680  -33.8150   26.6400 C   0  0  0  0  0  3  0  0  0  0  0  0
  -29.6460  -34.0580   27.9250 C   0  0  0  0  0  1  0  0  0  0  0  0
  -28.6920  -34.6980   27.0230 N   0  0  0  0  0  0  0  0  0  0  0  0
  -28.3500  -35.5440   27.4710 H   0  0  0  0  0  0  0  0  0  0  0  0
  -28.1420  -29.0010   26.2240 C   0  0  1  0  0  0  0  0  0  0  0  0
  -26.9860  -28.4970   27.1200 C   0  0  0  0  0  1  0  0  0  0  0  0
  -28.6520  -27.8010   25.3920 C   0  0  0  0  0  1  0  0  0  0  0  0
  -29.3110  -29.4280   27.1430 C   0  0  0  0  0  1  0  0  0  0  0  0
  2  5  2  0
  2  6  1  0
  3  1  1  0
  3  9  1  0
  4  7  1  0
  4  1  2  0
  5  4  1  0
  6  3  2  0
  8  9  2  0
 10 19  1  0
 10  5  1  0
 11 19  1  0
 11 17  1  0
 12 17  1  0
 13 14  1  0
 13 12  1  0
 15 14  1  0
 15 24  1  0
 15 16  1  0
 17 16  1  0
 18 11  2  0
 19 20  1  0
 21 22  2  0
 22 41  1  0
 23 22  1  0
 23 26  1  0
 24 25  1  0
 24 21  1  0
 25 23  2  0
 26 27  1  0
 27 28  2  0
 29 32  1  0
 29 28  1  0
 30 29  2  0
 31 30  1  0
 31 26  2  0
 32 33  1  0
 33 38  2  0
 33 34  1  0
 34 35  2  0
 35 36  1  0
 36 40  1  0
 37 36  2  0
 38 37  1  0
 39 38  1  0
 41 42  1  0
 42 45  1  0
 42 44  1  0
 43 41  2  0
 46 47  1  0
 46 21  1  0
 48 46  1  0
 49  6  1  0
 50 52  1  0
 50 49  1  0
 51 53  1  0
 51 52  2  0
 54 56  1  0
 54 53  1  0
 55 66  2  0
 56 61  1  0
 57 67  1  0
 57 65  1  0
 58 64  1  0
 58 60  1  0
 59 65  1  0
 60 59  1  0
 61 60  2  0
 62 63  1  0
 62 56  2  0
 63 58  2  0
 64 57  1  0
 65 55  1  0
 67 69  2  0
 68 67  1  0
 70 68  1  0
 71 76  1  0
 72 68  1  0
 73 72  1  0
 74 75  1  0
 74 73  1  0
 75 71  1  0
 76 72  1  0
 76 77  2  0
 78 77  1  0
 79 78  2  0
 80 71  2  0
 80 79  1  0
 81 55  1  0
 81 82  1  0
 81 91  1  0
 82 85  1  0
 83 82  1  0
 83 87  1  0
 84 83  2  0
 87 86  1  0
 87 89  1  0
 89 90  1  0
 89 88  1  0
 91 92  1  1
 91 94  1  0
 93 91  1  0
M  ISO  4  11 100  19 100  53 101  54 101
M  END
>  <TORSDO>  (79) 
F 22

>  <SCORE>  (79) 
-6.589

>  <name>  (79) 
78

>  <ligand_id>  (79) 
78

>  <original_smiles>  (79) 
[H]C([H])=C([H])c1c([H])c(C([H])([H])[H])c(C([H])([H])N([H])C(=O)N2C([H])([H])C([H])([H])C([H])([H])C([H])(n3nc(-c4c([H])c([H])c(Oc5c([H])c([H])c(F)c([H])c5F)c([H])c4[H])c(C(=O)N([H])[H])c3N([H])[H])C2([H])[H])c([H])c1OC([H])([H])C([H])=C([H])C([H])([H])Oc1c([H])c([H])c2c(c1[H])C([H])([H])N(C(=O)C([H])(N([H])C(=O)C([H])(N([H])C([H])([H])[H])C([H])([H])[H])C(C([H])([H])[H])(C([H])([H])[H])C([H])([H])[H])C([H])(C(=O)N([H])C1([H])c3c([H])c([H])c([H])c([H])c3C([H])([H])C([H])([H])C1([H])[H])C2([H])[H]

>  <smiles>  (79) 
[H]C([H])=C([H])c1c([H])c(C([H])([H])[H])c(C([H])([H])N([H])C(=O)N2C([H])([H])C([H])([H])C([H])([H])C([H])(n3nc(-c4c([H])c([H])c(Oc5c([H])c([H])c(F)c([H])c5F)c([H])c4[H])c(C(=O)N([H])[H])c3N([H])[H])C2([H])[H])c([H])c1OC([H])([H])C([H])=C([H])C([H])([H])Oc1c([H])c([H])c2c(c1[H])C([H])([H])N(C(=O)C([H])(N([H])C(=O)C([H])(N([H])C([H])([H])[H])C([H])([H])[H])C(C([H])([H])[H])(C([H])([H])[H])C([H])([H])[H])C([H])(C(=O)N([H])C1([H])c3c([H])c([H])c([H])c([H])c3C([H])([H])C([H])([H])C1([H])[H])C2([H])[H]

$$$$
79:0:0
     RDKit          3D

 96104  0  0  1  0  0  0  0  0999 V2000
  -29.5310  -17.1350   19.5910 C   0  0  0  0  0  3  0  0  0  0  0  0
  -30.5770  -18.0800   21.5720 C   0  0  0  0  0  3  0  0  0  0  0  0
  -29.0200  -18.3990   19.2530 C   0  0  0  0  0  0  0  0  0  0  0  0
  -29.3080  -19.5310   20.0620 C   0  0  0  0  0  0  0  0  0  0  0  0
  -30.2810  -16.9410   20.7670 C   0  0  0  0  0  0  0  0  0  0  0  0
  -30.1450  -19.3990   21.2110 C   0  0  0  0  0  0  0  0  0  0  0  0
  -31.1460  -14.6690   20.3270 C   0  0  0  0  0  0  0  0  0  0  0  0
  -30.6930  -12.6830   18.9200 C   0  0  0  0  0  2  0  0  0  0  0  0
  -29.7250  -13.0800   17.7850 C   0  0  0  0  0  2  0  0  0  0  0  0
  -28.2580  -12.9690   18.2440 C   0  0  0  0  0  2  0  0  0  0  0  0
  -28.0080  -13.6370   19.6210 C   0  0  0  0  0  3  0  0  0  0  0  0
  -29.0880  -13.2400   20.6550 C   0  0  0  0  0  2  0  0  0  0  0  0
  -30.4130  -13.5430   20.0870 N   0  0  0  0  0  0  0  0  0  0  0  0
  -32.2210  -14.8910   19.7570 O   0  0  0  0  0  0  0  0  0  0  0  0
  -30.6070  -15.5940   21.1570 N   0  0  0  0  0  0  0  0  0  0  0  0
  -29.9870  -15.2130   21.8570 H   0  0  0  0  0  0  0  0  0  0  0  0
  -25.6310  -14.2640   20.3760 C   0  0  0  0  0  0  0  0  0  0  0  0
  -24.5500  -13.5040   20.7310 C   0  0  0  0  0  0  0  0  0  0  0  0
  -24.9800  -12.1450   20.6500 C   0  0  0  0  0  0  0  0  0  0  0  0
  -26.6540  -13.3700   20.1070 N   0  0  0  0  0  0  0  0  0  0  0  0
  -26.2660  -12.0870   20.3240 N   0  0  0  0  0  0  0  0  0  0  0  0
  -24.2290  -10.8920   20.8100 C   0  0  0  0  0  0  0  0  0  0  0  0
  -24.6270   -9.9040   21.7400 C   0  0  0  0  0  3  0  0  0  0  0  0
  -23.8770   -8.7170   21.8850 C   0  0  0  0  0  3  0  0  0  0  0  0
  -22.7150   -8.5100   21.1030 C   0  0  0  0  0  0  0  0  0  0  0  0
  -22.3380   -9.4860   20.1670 C   0  0  0  0  0  3  0  0  0  0  0  0
  -23.0880  -10.6650   20.0170 C   0  0  0  0  0  3  0  0  0  0  0  0
  -21.9360   -7.3780   21.1650 O   0  0  0  0  0  0  0  0  0  0  0  0
  -21.8320   -6.6390   22.3160 C   0  0  0  0  0  0  0  0  0  0  0  0
  -21.3550   -7.2000   23.5210 C   0  0  0  0  0  3  0  0  0  0  0  0
  -21.1920   -6.3880   24.6600 C   0  0  0  0  0  3  0  0  0  0  0  0
  -21.5020   -5.0150   24.5980 C   0  0  0  0  0  0  0  0  0  0  0  0
  -21.9760   -4.4550   23.3970 C   0  0  0  0  0  3  0  0  0  0  0  0
  -22.1370   -5.2640   22.2600 C   0  0  0  0  0  0  0  0  0  0  0  0
  -22.5740   -4.7150   21.1020 F   0  0  0  0  0  0  0  0  0  0  0  0
  -21.3400   -4.2330   25.6900 F   0  0  0  0  0  0  0  0  0  0  0  0
  -23.1680  -14.0050   21.0390 C   0  0  0  0  0  0  0  0  0  0  0  0
  -22.4410  -13.3090   21.9060 N   0  0  0  0  0  0  0  0  0  0  0  0
  -22.7440  -15.0500   20.5480 O   0  0  0  0  0  0  0  0  0  0  0  0
  -22.7970  -12.4630   22.3230 H   0  0  0  0  0  0  0  0  0  0  0  0
  -21.5180  -13.6350   22.1580 H   0  0  0  0  0  0  0  0  0  0  0  0
  -25.8330  -15.6340   20.2440 N   0  0  0  0  0  0  0  0  0  0  0  0
  -25.0930  -16.3150   20.3770 H   0  0  0  0  0  0  0  0  0  0  0  0
  -26.7150  -16.0450   19.9640 H   0  0  0  0  0  0  0  0  0  0  0  0
  -28.6410  -20.8170   19.7240 C   0  0  0  0  0  0  0  0  0  0  0  0
  -27.4650  -21.1890   20.6070 C   0  0  0  0  0  1  0  0  0  0  0  0
  -28.9760  -21.5570   18.7960 O   0  0  0  0  0  0  0  0  0  0  0  0
  -26.8430  -18.2670   18.1360 C   0  0  0  0  0  2  0  0  0  0  0  0
  -28.1710  -18.4720   18.0540 C   0  0  0  0  0  0  0  0  0  0  0  0
  -28.8730  -18.7810   16.7480 C   0  0  0  0  0  1  0  0  0  0  0  0
  -30.4640  -20.4640   22.0650 O   0  0  0  0  0  0  0  0  0  0  0  0
  -30.9790  -21.7260   21.5470 C   0  0  0  0  0  2  0  0  0  0  0  0
  -30.1690  -22.9950   22.0070 C   0  0  0  0  0  2  0  0  0  0  0  0
  -30.1960  -24.2630   21.0730 C   0  0  0  0  0  3  0  0  0  0  0  0
  -29.3380  -25.4840   21.5730 C   0  0  0  0  0  3  0  0  0  0  0  0
  -29.4340  -26.7200   20.8070 O   0  0  0  0  0  0  0  0  0  0  0  0
  -24.9830  -31.7210   23.3510 C   0  0  0  0  0  0  0  0  0  0  0  0
  -28.2470  -27.4220   20.6620 C   0  0  0  0  0  0  0  0  0  0  0  0
  -24.0620  -30.2180   21.6150 C   0  0  0  0  0  3  0  0  0  0  0  0
  -25.7670  -28.7730   20.3760 C   0  0  0  0  0  0  0  0  0  0  0  0
  -26.5660  -30.7540   21.6780 C   0  0  0  0  0  2  0  0  0  0  0  0
  -26.8190  -29.3850   21.0720 C   0  0  0  0  0  0  0  0  0  0  0  0
  -28.0680  -28.7210   21.2000 C   0  0  0  0  0  3  0  0  0  0  0  0
  -27.1780  -26.8340   19.9520 C   0  0  0  0  0  3  0  0  0  0  0  0
  -25.9460  -27.5010   19.8080 C   0  0  0  0  0  3  0  0  0  0  0  0
  -24.4660  -29.5400   20.2780 C   0  0  0  0  0  2  0  0  0  0  0  0
  -25.2130  -30.9160   22.2740 N   0  0  0  0  0  0  0  0  0  0  0  0
  -23.8330  -31.9160   23.7720 O   0  0  0  0  0  0  0  0  0  0  0  0
  -23.3860  -29.1640   22.5240 C   0  0  0  0  0  0  0  0  0  0  0  0
  -22.0820  -28.9240   22.3040 N   0  0  0  0  0  0  0  0  0  0  0  0
  -24.0370  -28.5650   23.3850 O   0  0  0  0  0  0  0  0  0  0  0  0
  -21.6190  -29.4640   21.5860 H   0  0  0  0  0  0  0  0  0  0  0  0
  -18.7280  -27.6100   22.6010 C   0  0  0  0  0  0  0  0  0  0  0  0
  -21.2570  -27.9440   23.0110 C   0  0  0  0  0  3  0  0  0  0  0  0
  -21.4370  -26.5310   22.4110 C   0  0  0  0  0  2  0  0  0  0  0  0
  -20.4020  -26.1960   21.3340 C   0  0  0  0  0  2  0  0  0  0  0  0
  -18.9840  -26.2830   21.9050 C   0  0  0  0  0  2  0  0  0  0  0  0
  -19.7960  -28.3980   23.1050 C   0  0  0  0  0  0  0  0  0  0  0  0
  -19.5070  -29.6390   23.7110 C   0  0  0  0  0  3  0  0  0  0  0  0
  -18.1790  -30.0940   23.8210 C   0  0  0  0  0  3  0  0  0  0  0  0
  -17.1230  -29.3030   23.3320 C   0  0  0  0  0  3  0  0  0  0  0  0
  -17.3990  -28.0630   22.7290 C   0  0  0  0  0  3  0  0  0  0  0  0
  -26.1470  -32.4550   24.0880 C   0  0  0  0  0  3  0  0  0  0  0  0
  -25.7070  -33.8330   24.3510 N   0  0  0  0  0  0  0  0  0  0  0  0
  -26.0290  -34.8900   23.5950 C   0  0  0  0  0  0  0  0  0  0  0  0
  -26.7960  -34.8180   22.6300 O   0  0  0  0  0  0  0  0  0  0  0  0
  -25.0360  -33.9580   25.0940 H   0  0  0  0  0  0  0  0  0  0  0  0
  -24.1990  -36.5300   23.0530 C   0  0  0  0  0  1  0  0  0  0  0  0
  -25.4010  -36.2470   23.9690 C   0  0  0  0  0  3  0  0  0  0  0  0
  -27.3820  -37.3280   24.9360 C   0  0  0  0  0  1  0  0  0  0  0  0
  -26.3530  -37.3760   23.9020 N   0  0  0  0  0  0  0  0  0  0  0  0
  -25.8630  -38.2640   23.9830 H   0  0  0  0  0  0  0  0  0  0  0  0
  -26.5800  -31.7450   25.4300 C   0  0  1  0  0  0  0  0  0  0  0  0
  -25.4030  -31.4430   26.3840 C   0  0  0  0  0  1  0  0  0  0  0  0
  -27.3020  -30.4100   25.1330 C   0  0  0  0  0  1  0  0  0  0  0  0
  -27.5890  -32.6360   26.1940 C   0  0  0  0  0  1  0  0  0  0  0  0
  1  5  1  0
  3  1  2  0
  3  4  1  0
  4  6  2  0
  5 15  1  0
  5  2  2  0
  6  2  1  0
  6 51  1  0
  7 15  1  0
  8 13  1  0
  9 10  1  0
  9  8  1  0
 11 10  1  0
 11 20  1  0
 11 12  1  0
 13  7  1  0
 13 12  1  0
 14  7  2  0
 15 16  1  0
 17 18  2  0
 18 37  1  0
 19 18  1  0
 19 22  1  0
 20 21  1  0
 20 17  1  0
 21 19  2  0
 22 23  1  0
 23 24  2  0
 25 28  1  0
 25 24  1  0
 26 25  2  0
 27 26  1  0
 27 22  2  0
 28 29  1  0
 29 30  1  0
 30 31  2  0
 32 31  1  0
 32 36  1  0
 33 32  2  0
 34 29  2  0
 34 33  1  0
 35 34  1  0
 37 38  1  0
 38 41  1  0
 38 40  1  0
 39 37  2  0
 42 17  1  0
 42 43  1  0
 44 42  1  0
 45  4  1  0
 45 46  1  0
 47 45  2  0
 49 48  2  0
 49  3  1  0
 50 49  1  0
 52 53  1  0
 52 51  1  0
 54 55  2  0
 54 53  1  0
 56 55  1  0
 57 68  2  0
 58 56  1  0
 58 63  1  0
 59 67  1  0
 59 69  1  0
 60 62  1  0
 61 67  1  0
 62 63  2  0
 62 61  1  0
 64 58  2  0
 65 64  1  0
 65 60  2  0
 66 60  1  0
 66 59  1  0
 67 57  1  0
 69 71  2  0
 70 69  1  0
 72 70  1  0
 73 82  2  0
 73 78  1  0
 74 70  1  0
 74 78  1  0
 75 74  1  0
 76 77  1  0
 76 75  1  0
 77 73  1  0
 78 79  2  0
 79 80  1  0
 81 80  2  0
 82 81  1  0
 83 57  1  0
 83 84  1  0
 83 93  1  0
 84 87  1  0
 85 89  1  0
 85 84  1  0
 86 85  2  0
 89 88  1  0
 91 89  1  0
 91 92  1  0
 91 90  1  0
 93 96  1  1
 93 94  1  0
 95 93  1  0
M  ISO  4   7 100  15 100  55 101  56 101
M  END
>  <TORSDO>  (80) 
F 23

>  <SCORE>  (80) 
-11.496

>  <name>  (80) 
79

>  <ligand_id>  (80) 
79

>  <original_smiles>  (80) 
[H]C([H])=C(c1c([H])c(N([H])C(=O)N2C([H])([H])C([H])([H])C([H])([H])C([H])(n3nc(-c4c([H])c([H])c(Oc5c([H])c([H])c(F)c([H])c5F)c([H])c4[H])c(C(=O)N([H])[H])c3N([H])[H])C2([H])[H])c([H])c(OC([H])([H])C([H])([H])C([H])([H])C([H])([H])Oc2c([H])c([H])c3c(c2[H])C([H])([H])N(C(=O)C([H])(N([H])C(=O)C([H])(N([H])C([H])([H])[H])C([H])([H])[H])C(C([H])([H])[H])(C([H])([H])[H])C([H])([H])[H])C([H])(C(=O)N([H])C2([H])c4c([H])c([H])c([H])c([H])c4C([H])([H])C([H])([H])C2([H])[H])C3([H])[H])c1C(=O)C([H])([H])[H])C([H])([H])[H]

>  <smiles>  (80) 
[H]C([H])=C(c1c([H])c(N([H])C(=O)N2C([H])([H])C([H])([H])C([H])([H])C([H])(n3nc(-c4c([H])c([H])c(Oc5c([H])c([H])c(F)c([H])c5F)c([H])c4[H])c(C(=O)N([H])[H])c3N([H])[H])C2([H])[H])c([H])c(OC([H])([H])C([H])([H])C([H])([H])C([H])([H])Oc2c([H])c([H])c3c(c2[H])C([H])([H])N(C(=O)C([H])(N([H])C(=O)C([H])(N([H])C([H])([H])[H])C([H])([H])[H])C(C([H])([H])[H])(C([H])([H])[H])C([H])([H])[H])C([H])(C(=O)N([H])C2([H])c4c([H])c([H])c([H])c([H])c4C([H])([H])C([H])([H])C2([H])[H])C3([H])[H])c1C(=O)C([H])([H])[H])C([H])([H])[H]

$$$$
80:0:0
     RDKit          3D

 89 97  0  0  1  0  0  0  0  0999 V2000
  -28.3800  -23.5860   19.7050 C   0  0  0  0  0  2  0  0  0  0  0  0
  -29.2500  -22.5550   20.0850 C   0  0  0  0  0  3  0  0  0  0  0  0
  -30.6060  -22.9100   20.6640 C   0  0  0  0  0  1  0  0  0  0  0  0
  -28.8540  -19.3320   18.0000 C   0  0  0  0  0  3  0  0  0  0  0  0
  -29.2190  -18.2530   18.8350 C   0  0  0  0  0  3  0  0  0  0  0  0
  -28.7870  -20.6640   18.4730 C   0  0  0  0  0  3  0  0  0  0  0  0
  -29.4640  -19.8640   20.6440 C   0  0  0  0  0  3  0  0  0  0  0  0
  -29.4910  -18.4610   20.1990 C   0  0  0  0  0  0  0  0  0  0  0  0
  -29.1210  -21.0130   19.8010 C   0  0  0  0  0  0  0  0  0  0  0  0
  -29.6700  -17.2310   21.1310 C   0  0  0  0  0  3  0  0  0  0  0  0
  -29.9970  -15.8630   21.1810 C   0  0  0  0  0  3  0  0  0  0  0  0
  -30.5960  -14.7970   20.2890 C   0  0  0  0  0  0  0  0  0  0  0  0
  -30.3880  -12.5280   19.2110 C   0  0  0  0  0  2  0  0  0  0  0  0
  -29.4300  -12.6170   17.9990 C   0  0  0  0  0  2  0  0  0  0  0  0
  -27.9670  -12.4350   18.4450 C   0  0  0  0  0  2  0  0  0  0  0  0
  -27.6180  -13.2970   19.6860 C   0  0  0  0  0  3  0  0  0  0  0  0
  -28.6890  -13.1680   20.7910 C   0  0  0  0  0  2  0  0  0  0  0  0
  -29.9810  -13.5570   20.2040 N   0  0  0  0  0  0  0  0  0  0  0  0
  -31.6800  -14.9530   19.7180 O   0  0  0  0  0  0  0  0  0  0  0  0
  -25.2370  -13.8950   20.4330 C   0  0  0  0  0  0  0  0  0  0  0  0
  -24.1730  -13.1250   20.8140 C   0  0  0  0  0  0  0  0  0  0  0  0
  -24.6310  -11.7710   20.7810 C   0  0  0  0  0  0  0  0  0  0  0  0
  -26.2760  -13.0120   20.1860 N   0  0  0  0  0  0  0  0  0  0  0  0
  -25.9180  -11.7290   20.4560 N   0  0  0  0  0  0  0  0  0  0  0  0
  -23.9020  -10.5130   20.9840 C   0  0  0  0  0  0  0  0  0  0  0  0
  -24.3390   -9.5470   21.9180 C   0  0  0  0  0  3  0  0  0  0  0  0
  -23.6090   -8.3530   22.1080 C   0  0  0  0  0  3  0  0  0  0  0  0
  -22.4290   -8.1160   21.3650 C   0  0  0  0  0  0  0  0  0  0  0  0
  -22.0110   -9.0690   20.4200 C   0  0  0  0  0  3  0  0  0  0  0  0
  -22.7410  -10.2550   20.2280 C   0  0  0  0  0  3  0  0  0  0  0  0
  -21.6720   -6.9740   21.4630 O   0  0  0  0  0  0  0  0  0  0  0  0
  -21.6270   -6.2370   22.6190 C   0  0  0  0  0  0  0  0  0  0  0  0
  -21.2120   -6.8000   23.8460 C   0  0  0  0  0  3  0  0  0  0  0  0
  -21.1130   -5.9920   24.9950 C   0  0  0  0  0  3  0  0  0  0  0  0
  -21.4210   -4.6200   24.9200 C   0  0  0  0  0  0  0  0  0  0  0  0
  -21.8290   -4.0560   23.6980 C   0  0  0  0  0  3  0  0  0  0  0  0
  -21.9290   -4.8620   22.5510 C   0  0  0  0  0  0  0  0  0  0  0  0
  -22.3030   -4.3090   21.3720 F   0  0  0  0  0  0  0  0  0  0  0  0
  -21.3190   -3.8410   26.0220 F   0  0  0  0  0  0  0  0  0  0  0  0
  -22.7810  -13.6080   21.1040 C   0  0  0  0  0  0  0  0  0  0  0  0
  -22.0610  -12.9180   21.9810 N   0  0  0  0  0  0  0  0  0  0  0  0
  -22.3400  -14.6350   20.5870 O   0  0  0  0  0  0  0  0  0  0  0  0
  -22.4290  -12.0900   22.4240 H   0  0  0  0  0  0  0  0  0  0  0  0
  -21.1280  -13.2260   22.2150 H   0  0  0  0  0  0  0  0  0  0  0  0
  -25.4060  -15.2640   20.2540 N   0  0  0  0  0  0  0  0  0  0  0  0
  -24.6510  -15.9270   20.3880 H   0  0  0  0  0  0  0  0  0  0  0  0
  -26.2690  -15.7010   19.9560 H   0  0  0  0  0  0  0  0  0  0  0  0
  -28.6200  -25.1640   19.4290 C   0  0  0  0  0  2  0  0  0  0  0  0
  -28.2920  -26.3370   20.3150 O   0  0  0  0  0  0  0  0  0  0  0  0
  -24.5970  -31.8580   23.2130 C   0  0  0  0  0  0  0  0  0  0  0  0
  -27.2040  -27.2360   20.1600 C   0  0  0  0  0  0  0  0  0  0  0  0
  -23.3950  -30.4570   21.5740 C   0  0  0  0  0  3  0  0  0  0  0  0
  -24.8460  -28.8960   20.1370 C   0  0  0  0  0  0  0  0  0  0  0  0
  -25.9380  -30.7550   21.3980 C   0  0  0  0  0  2  0  0  0  0  0  0
  -26.0130  -29.3710   20.7460 C   0  0  0  0  0  0  0  0  0  0  0  0
  -27.1870  -28.5480   20.7540 C   0  0  0  0  0  3  0  0  0  0  0  0
  -26.0180  -26.8320   19.5120 C   0  0  0  0  0  3  0  0  0  0  0  0
  -24.8550  -27.6370   19.5100 C   0  0  0  0  0  3  0  0  0  0  0  0
  -23.6090  -29.7760   20.1930 C   0  0  0  0  0  2  0  0  0  0  0  0
  -24.6620  -31.0440   22.1170 N   0  0  0  0  0  0  0  0  0  0  0  0
  -23.5140  -32.1380   23.7480 O   0  0  0  0  0  0  0  0  0  0  0  0
  -22.7280  -29.4480   22.5400 C   0  0  0  0  0  0  0  0  0  0  0  0
  -21.3990  -29.2780   22.4210 N   0  0  0  0  0  0  0  0  0  0  0  0
  -23.4060  -28.8190   23.3560 O   0  0  0  0  0  0  0  0  0  0  0  0
  -20.9110  -29.8370   21.7360 H   0  0  0  0  0  0  0  0  0  0  0  0
  -18.0190  -28.0950   22.9440 C   0  0  0  0  0  0  0  0  0  0  0  0
  -20.5810  -28.3430   23.1950 C   0  0  0  0  0  3  0  0  0  0  0  0
  -20.6720  -26.9130   22.6150 C   0  0  0  0  0  2  0  0  0  0  0  0
  -19.5610  -26.5980   21.6070 C   0  0  0  0  0  2  0  0  0  0  0  0
  -18.1840  -26.7480   22.2610 C   0  0  0  0  0  2  0  0  0  0  0  0
  -19.1440  -28.8510   23.3690 C   0  0  0  0  0  0  0  0  0  0  0  0
  -18.9340  -30.1120   23.9670 C   0  0  0  0  0  3  0  0  0  0  0  0
  -17.6330  -30.6180   24.1460 C   0  0  0  0  0  3  0  0  0  0  0  0
  -16.5230  -29.8580   23.7380 C   0  0  0  0  0  3  0  0  0  0  0  0
  -16.7160  -28.5990   23.1420 C   0  0  0  0  0  3  0  0  0  0  0  0
  -25.8790  -32.4950   23.8360 C   0  0  0  0  0  3  0  0  0  0  0  0
  -26.4000  -31.7220   25.1100 C   0  0  1  0  0  0  0  0  0  0  0  0
  -25.3100  -31.4810   26.1810 C   0  0  0  0  0  1  0  0  0  0  0  0
  -26.9840  -30.3460   24.7180 C   0  0  0  0  0  1  0  0  0  0  0  0
  -27.5520  -32.5160   25.7700 C   0  0  0  0  0  1  0  0  0  0  0  0
  -25.5650  -33.8900   24.1750 N   0  0  0  0  0  0  0  0  0  0  0  0
  -25.8880  -34.9510   23.4220 C   0  0  0  0  0  0  0  0  0  0  0  0
  -26.5510  -34.8570   22.3850 O   0  0  0  0  0  0  0  0  0  0  0  0
  -24.9740  -34.0360   24.9800 H   0  0  0  0  0  0  0  0  0  0  0  0
  -24.1510  -36.7420   23.0980 C   0  0  0  0  0  1  0  0  0  0  0  0
  -25.4020  -36.3360   23.8940 C   0  0  0  0  0  3  0  0  0  0  0  0
  -27.5410  -37.2250   24.7080 C   0  0  0  0  0  1  0  0  0  0  0  0
  -26.4290  -37.3930   23.7760 N   0  0  0  0  0  0  0  0  0  0  0  0
  -26.0210  -38.3110   23.9310 H   0  0  0  0  0  0  0  0  0  0  0  0
  1  2  1  0
  2  3  1  0
  4  6  2  0
  4  5  1  0
  5  8  2  0
  6  9  1  0
  8  7  1  0
  8 10  1  0
  9  2  1  0
  9  7  2  0
 10 11  2  0
 12 11  1  0
 13 18  1  0
 14 15  1  0
 14 13  1  0
 16 15  1  0
 16 23  1  0
 16 17  1  0
 18 12  1  0
 18 17  1  0
 19 12  2  0
 20 21  2  0
 21 40  1  0
 22 21  1  0
 22 25  1  0
 23 20  1  0
 23 24  1  0
 24 22  2  0
 25 26  1  0
 26 27  2  0
 28 31  1  0
 28 27  1  0
 29 28  2  0
 30 29  1  0
 30 25  2  0
 31 32  1  0
 32 33  1  0
 33 34  2  0
 35 34  1  0
 35 39  1  0
 36 35  2  0
 37 32  2  0
 37 36  1  0
 38 37  1  0
 40 41  1  0
 41 44  1  0
 41 43  1  0
 42 40  2  0
 45 46  1  0
 45 20  1  0
 47 45  1  0
 48  1  1  0
 48 49  1  0
 50 61  2  0
 51 49  1  0
 51 56  1  0
 52 60  1  0
 52 62  1  0
 53 59  1  0
 53 55  1  0
 54 60  1  0
 55 56  2  0
 55 54  1  0
 57 51  2  0
 58 57  1  0
 58 53  2  0
 59 52  1  0
 60 50  1  0
 62 64  2  0
 63 62  1  0
 65 63  1  0
 66 75  2  0
 66 71  1  0
 67 63  1  0
 67 71  1  0
 68 67  1  0
 69 70  1  0
 69 68  1  0
 70 66  1  0
 71 72  2  0
 72 73  1  0
 74 73  2  0
 75 74  1  0
 76 50  1  0
 76 81  1  0
 76 77  1  0
 77 80  1  1
 77 78  1  0
 79 77  1  0
 81 84  1  0
 82 86  1  0
 82 81  1  0
 83 82  2  0
 86 85  1  0
 88 86  1  0
 88 89  1  0
 88 87  1  0
M  ISO  4  11 100  12 100  48 101  49 101
M  END
>  <TORSDO>  (81) 
F 19

>  <SCORE>  (81) 
-14.385

>  <name>  (81) 
80

>  <ligand_id>  (81) 
80

>  <original_smiles>  (81) 
[H]C(C(=O)N1C([H])([H])C([H])([H])C([H])([H])C([H])(n2nc(-c3c([H])c([H])c(Oc4c([H])c([H])c(F)c([H])c4F)c([H])c3[H])c(C(=O)N([H])[H])c2N([H])[H])C1([H])[H])=C([H])c1c([H])c([H])c([H])c(C(=C([H])C([H])([H])Oc2c([H])c([H])c3c(c2[H])C([H])([H])N(C(=O)C([H])(N([H])C(=O)C([H])(N([H])C([H])([H])[H])C([H])([H])[H])C(C([H])([H])[H])(C([H])([H])[H])C([H])([H])[H])C([H])(C(=O)N([H])C2([H])c4c([H])c([H])c([H])c([H])c4C([H])([H])C([H])([H])C2([H])[H])C3([H])[H])C([H])([H])[H])c1[H]

>  <smiles>  (81) 
[H]C(C(=O)N1C([H])([H])C([H])([H])C([H])([H])C([H])(n2nc(-c3c([H])c([H])c(Oc4c([H])c([H])c(F)c([H])c4F)c([H])c3[H])c(C(=O)N([H])[H])c2N([H])[H])C1([H])[H])=C([H])c1c([H])c([H])c([H])c(C(=C([H])C([H])([H])Oc2c([H])c([H])c3c(c2[H])C([H])([H])N(C(=O)C([H])(N([H])C(=O)C([H])(N([H])C([H])([H])[H])C([H])([H])[H])C(C([H])([H])[H])(C([H])([H])[H])C([H])([H])[H])C([H])(C(=O)N([H])C2([H])c4c([H])c([H])c([H])c([H])c4C([H])([H])C([H])([H])C2([H])[H])C3([H])[H])C([H])([H])[H])c1[H]

$$$$
81:0:0
     RDKit          3D

 93101  0  0  1  0  0  0  0  0999 V2000
  -30.4620  -19.1460   22.8770 C   0  0  0  0  0  3  0  0  0  0  0  0
  -30.1620  -18.1040   21.9830 C   0  0  0  0  0  3  0  0  0  0  0  0
  -30.1240  -19.7180   20.1700 C   0  0  0  0  0  3  0  0  0  0  0  0
  -30.6270  -20.4810   22.4340 C   0  0  0  0  0  0  0  0  0  0  0  0
  -30.4190  -20.7890   21.0570 C   0  0  0  0  0  0  0  0  0  0  0  0
  -30.0100  -18.3750   20.6110 C   0  0  0  0  0  0  0  0  0  0  0  0
  -31.0360  -21.5100   23.4140 C   0  0  0  0  0  3  0  0  0  0  0  0
  -31.2630  -21.3240   24.7280 C   0  0  0  0  0  3  0  0  0  0  0  0
  -31.7070  -22.4210   25.6700 C   0  0  0  0  0  1  0  0  0  0  0  0
  -30.4890  -22.1670   20.4800 C   0  0  0  0  0  3  0  0  0  0  0  0
  -29.8810  -23.2950   20.9240 C   0  0  0  0  0  3  0  0  0  0  0  0
  -30.0740  -24.7110   20.3640 C   0  0  0  0  0  2  0  0  0  0  0  0
  -28.7620  -25.4040   19.9180 C   0  0  0  0  0  2  0  0  0  0  0  0
  -28.8390  -26.8480   19.9550 O   0  0  0  0  0  0  0  0  0  0  0  0
  -24.6050  -31.6030   23.1700 C   0  0  0  0  0  0  0  0  0  0  0  0
  -27.6290  -27.5210   19.9260 C   0  0  0  0  0  0  0  0  0  0  0  0
  -23.5370  -30.1950   21.4410 C   0  0  0  0  0  3  0  0  0  0  0  0
  -25.1270  -28.8580   19.9590 C   0  0  0  0  0  0  0  0  0  0  0  0
  -26.0330  -30.7560   21.3070 C   0  0  0  0  0  2  0  0  0  0  0  0
  -26.2350  -29.4310   20.5970 C   0  0  0  0  0  0  0  0  0  0  0  0
  -27.4880  -28.7730   20.5720 C   0  0  0  0  0  3  0  0  0  0  0  0
  -26.5010  -26.9740   19.2710 C   0  0  0  0  0  3  0  0  0  0  0  0
  -25.2580  -27.6320   19.2870 C   0  0  0  0  0  3  0  0  0  0  0  0
  -23.8190  -29.6130   20.0310 C   0  0  0  0  0  2  0  0  0  0  0  0
  -24.7420  -30.8650   22.0320 N   0  0  0  0  0  0  0  0  0  0  0  0
  -23.4990  -31.7620   23.7050 O   0  0  0  0  0  0  0  0  0  0  0  0
  -22.9580  -29.0770   22.3370 C   0  0  0  0  0  0  0  0  0  0  0  0
  -21.6610  -28.7750   22.1580 N   0  0  0  0  0  0  0  0  0  0  0  0
  -23.6730  -28.4850   23.1520 O   0  0  0  0  0  0  0  0  0  0  0  0
  -21.1400  -29.3100   21.4770 H   0  0  0  0  0  0  0  0  0  0  0  0
  -18.4040  -27.2440   22.4860 C   0  0  0  0  0  0  0  0  0  0  0  0
  -20.9140  -27.7330   22.8630 C   0  0  0  0  0  3  0  0  0  0  0  0
  -21.1740  -26.3430   22.2390 C   0  0  0  0  0  2  0  0  0  0  0  0
  -20.1440  -25.9580   21.1730 C   0  0  0  0  0  2  0  0  0  0  0  0
  -18.7330  -25.9450   21.7700 C   0  0  0  0  0  2  0  0  0  0  0  0
  -19.4290  -28.0920   22.9850 C   0  0  0  0  0  0  0  0  0  0  0  0
  -19.0690  -29.3050   23.6120 C   0  0  0  0  0  3  0  0  0  0  0  0
  -17.7170  -29.6720   23.7470 C   0  0  0  0  0  3  0  0  0  0  0  0
  -16.7070  -28.8220   23.2660 C   0  0  0  0  0  3  0  0  0  0  0  0
  -17.0510  -27.6100   22.6410 C   0  0  0  0  0  3  0  0  0  0  0  0
  -25.8290  -32.3030   23.8420 C   0  0  0  0  0  3  0  0  0  0  0  0
  -25.4380  -33.6870   24.1400 N   0  0  0  0  0  0  0  0  0  0  0  0
  -25.7320  -34.7440   23.3700 C   0  0  0  0  0  0  0  0  0  0  0  0
  -26.4330  -34.6590   22.3570 O   0  0  0  0  0  0  0  0  0  0  0  0
  -24.8190  -33.8240   24.9270 H   0  0  0  0  0  0  0  0  0  0  0  0
  -23.9140  -36.4280   22.9460 C   0  0  0  0  0  1  0  0  0  0  0  0
  -25.1580  -36.1100   23.7900 C   0  0  0  0  0  3  0  0  0  0  0  0
  -27.2220  -37.1300   24.6460 C   0  0  0  0  0  1  0  0  0  0  0  0
  -26.1330  -37.2180   23.6760 N   0  0  0  0  0  0  0  0  0  0  0  0
  -25.6720  -38.1150   23.7970 H   0  0  0  0  0  0  0  0  0  0  0  0
  -26.3260  -31.5690   25.1460 C   0  0  1  0  0  0  0  0  0  0  0  0
  -25.2020  -31.2860   26.1700 C   0  0  0  0  0  1  0  0  0  0  0  0
  -26.9910  -30.2180   24.7930 C   0  0  0  0  0  1  0  0  0  0  0  0
  -27.4070  -32.4230   25.8490 C   0  0  0  0  0  1  0  0  0  0  0  0
  -29.7580  -17.2550   19.5930 C   0  0  0  0  0  2  0  0  0  0  0  0
  -30.3710  -14.8450   19.8530 C   0  0  0  0  0  0  0  0  0  0  0  0
  -30.1540  -12.5830   18.9160 C   0  0  0  0  0  2  0  0  0  0  0  0
  -29.1340  -12.6530   17.7610 C   0  0  0  0  0  2  0  0  0  0  0  0
  -27.7000  -12.4550   18.2930 C   0  0  0  0  0  2  0  0  0  0  0  0
  -27.3810  -13.3540   19.5180 C   0  0  0  0  0  3  0  0  0  0  0  0
  -28.5160  -13.2900   20.5690 C   0  0  0  0  0  2  0  0  0  0  0  0
  -29.7800  -13.6200   19.8910 N   0  0  0  0  0  0  0  0  0  0  0  0
  -31.4910  -15.0290   19.3710 O   0  0  0  0  0  0  0  0  0  0  0  0
  -29.5590  -15.8890   20.1200 N   0  0  0  0  0  0  0  0  0  0  0  0
  -28.6370  -15.6650   20.4600 H   0  0  0  0  0  0  0  0  0  0  0  0
  -25.0410  -13.8710   20.4560 C   0  0  0  0  0  0  0  0  0  0  0  0
  -24.0260  -13.0580   20.8870 C   0  0  0  0  0  0  0  0  0  0  0  0
  -24.5140  -11.7210   20.7650 C   0  0  0  0  0  0  0  0  0  0  0  0
  -26.0820  -13.0270   20.1030 N   0  0  0  0  0  0  0  0  0  0  0  0
  -25.7730  -11.7260   20.3450 N   0  0  0  0  0  0  0  0  0  0  0  0
  -23.8360  -10.4350   20.9670 C   0  0  0  0  0  0  0  0  0  0  0  0
  -24.3320   -9.4730   21.8760 C   0  0  0  0  0  3  0  0  0  0  0  0
  -23.6510   -8.2510   22.0670 C   0  0  0  0  0  3  0  0  0  0  0  0
  -22.4600   -7.9820   21.3500 C   0  0  0  0  0  0  0  0  0  0  0  0
  -21.9830   -8.9330   20.4300 C   0  0  0  0  0  3  0  0  0  0  0  0
  -22.6670  -10.1460   20.2360 C   0  0  0  0  0  3  0  0  0  0  0  0
  -21.7490   -6.8110   21.4490 O   0  0  0  0  0  0  0  0  0  0  0  0
  -21.7260   -6.0780   22.6090 C   0  0  0  0  0  0  0  0  0  0  0  0
  -21.2660   -6.6260   23.8270 C   0  0  0  0  0  3  0  0  0  0  0  0
  -21.1940   -5.8200   24.9790 C   0  0  0  0  0  3  0  0  0  0  0  0
  -21.5730   -4.4640   24.9160 C   0  0  0  0  0  0  0  0  0  0  0  0
  -22.0280   -3.9170   23.7030 C   0  0  0  0  0  3  0  0  0  0  0  0
  -22.1010   -4.7220   22.5530 C   0  0  0  0  0  0  0  0  0  0  0  0
  -22.5190   -4.1830   21.3820 F   0  0  0  0  0  0  0  0  0  0  0  0
  -21.4980   -3.6870   26.0210 F   0  0  0  0  0  0  0  0  0  0  0  0
  -22.6460  -13.4890   21.2950 C   0  0  0  0  0  0  0  0  0  0  0  0
  -22.0150  -12.7540   22.2020 N   0  0  0  0  0  0  0  0  0  0  0  0
  -22.1370  -14.5140   20.8430 O   0  0  0  0  0  0  0  0  0  0  0  0
  -22.4390  -11.9250   22.5940 H   0  0  0  0  0  0  0  0  0  0  0  0
  -21.0940  -13.0260   22.5180 H   0  0  0  0  0  0  0  0  0  0  0  0
  -25.1580  -15.2510   20.3180 N   0  0  0  0  0  0  0  0  0  0  0  0
  -24.3910  -15.8830   20.5200 H   0  0  0  0  0  0  0  0  0  0  0  0
  -25.9600  -15.7250   19.9230 H   0  0  0  0  0  0  0  0  0  0  0  0
  2  1  2  0
  3  6  2  0
  3  5  1  0
  4  1  1  0
  4  7  1  0
  5  4  2  0
  6  2  1  0
  7  8  2  0
  8  9  1  0
 10 11  2  0
 10  5  1  0
 12 11  1  0
 13 14  1  0
 13 12  1  0
 15 26  2  0
 16 14  1  0
 16 21  1  0
 17 25  1  0
 17 27  1  0
 18 24  1  0
 18 20  1  0
 19 25  1  0
 20 19  1  0
 21 20  2  0
 22 23  1  0
 22 16  2  0
 23 18  2  0
 24 17  1  0
 25 15  1  0
 27 29  2  0
 28 27  1  0
 30 28  1  0
 31 40  2  0
 31 36  1  0
 32 28  1  0
 32 36  1  0
 33 32  1  0
 34 35  1  0
 34 33  1  0
 35 31  1  0
 36 37  2  0
 37 38  1  0
 39 38  2  0
 40 39  1  0
 41 15  1  0
 41 42  1  0
 41 51  1  0
 42 45  1  0
 43 47  1  0
 43 42  1  0
 44 43  2  0
 47 46  1  0
 49 47  1  0
 49 50  1  0
 49 48  1  0
 51 54  1  1
 51 52  1  0
 53 51  1  0
 55 64  1  0
 55  6  1  0
 56 62  1  0
 56 64  1  0
 57 62  1  0
 58 59  1  0
 58 57  1  0
 60 59  1  0
 60 69  1  0
 60 61  1  0
 62 61  1  0
 63 56  2  0
 64 65  1  0
 66 67  2  0
 67 86  1  0
 68 67  1  0
 68 71  1  0
 69 70  1  0
 69 66  1  0
 70 68  2  0
 71 72  1  0
 72 73  2  0
 74 77  1  0
 74 73  1  0
 75 74  2  0
 76 75  1  0
 76 71  2  0
 77 78  1  0
 78 79  1  0
 79 80  2  0
 81 80  1  0
 81 85  1  0
 82 81  2  0
 83 78  2  0
 83 82  1  0
 84 83  1  0
 86 87  1  0
 87 90  1  0
 87 89  1  0
 88 86  2  0
 91 66  1  0
 91 92  1  0
 93 91  1  0
M  ISO  4  13 101  14 101  56 100  64 100
M  END
>  <TORSDO>  (82) 
F 21

>  <SCORE>  (82) 
-11.274

>  <name>  (82) 
81

>  <ligand_id>  (82) 
81

>  <original_smiles>  (82) 
[H]C(=C([H])C([H])([H])[H])c1c([H])c([H])c(C([H])([H])N([H])C(=O)N2C([H])([H])C([H])([H])C([H])([H])C([H])(n3nc(-c4c([H])c([H])c(Oc5c([H])c([H])c(F)c([H])c5F)c([H])c4[H])c(C(=O)N([H])[H])c3N([H])[H])C2([H])[H])c([H])c1C([H])=C([H])C([H])([H])C([H])([H])Oc1c([H])c([H])c2c(c1[H])C([H])([H])N(C(=O)C([H])(N([H])C(=O)C([H])(N([H])C([H])([H])[H])C([H])([H])[H])C(C([H])([H])[H])(C([H])([H])[H])C([H])([H])[H])C([H])(C(=O)N([H])C1([H])c3c([H])c([H])c([H])c([H])c3C([H])([H])C([H])([H])C1([H])[H])C2([H])[H]

>  <smiles>  (82) 
[H]C(=C([H])C([H])([H])[H])c1c([H])c([H])c(C([H])([H])N([H])C(=O)N2C([H])([H])C([H])([H])C([H])([H])C([H])(n3nc(-c4c([H])c([H])c(Oc5c([H])c([H])c(F)c([H])c5F)c([H])c4[H])c(C(=O)N([H])[H])c3N([H])[H])C2([H])[H])c([H])c1C([H])=C([H])C([H])([H])C([H])([H])Oc1c([H])c([H])c2c(c1[H])C([H])([H])N(C(=O)C([H])(N([H])C(=O)C([H])(N([H])C([H])([H])[H])C([H])([H])[H])C(C([H])([H])[H])(C([H])([H])[H])C([H])([H])[H])C([H])(C(=O)N([H])C1([H])c3c([H])c([H])c([H])c([H])c3C([H])([H])C([H])([H])C1([H])[H])C2([H])[H]

$$$$
82:0:0
     RDKit          3D

 93101  0  0  1  0  0  0  0  0999 V2000
  -31.9810  -18.7930   22.1400 C   0  0  0  0  0  3  0  0  0  0  0  0
  -29.7950  -19.0160   21.1150 C   0  0  0  0  0  3  0  0  0  0  0  0
  -30.8630  -18.1860   21.5360 C   0  0  0  0  0  0  0  0  0  0  0  0
  -32.1200  -20.1910   22.2180 C   0  0  0  0  0  0  0  0  0  0  0  0
  -31.1020  -21.0180   21.6790 C   0  0  0  0  0  0  0  0  0  0  0  0
  -29.8930  -20.4350   21.1940 C   0  0  0  0  0  0  0  0  0  0  0  0
  -31.3810  -22.5130   21.5170 C   0  0  0  0  0  1  0  0  0  0  0  0
  -30.9990  -16.7340   21.2710 C   0  0  0  0  0  3  0  0  0  0  0  0
  -30.1360  -15.7700   20.8600 C   0  0  0  0  0  3  0  0  0  0  0  0
  -30.7450  -14.5140   20.3940 C   0  0  0  0  0  0  0  0  0  0  0  0
  -30.3370  -12.3510   19.2950 C   0  0  0  0  0  2  0  0  0  0  0  0
  -29.4310  -12.5620   18.0680 C   0  0  0  0  0  2  0  0  0  0  0  0
  -27.9540  -12.4360   18.4830 C   0  0  0  0  0  2  0  0  0  0  0  0
  -27.6070  -13.3000   19.7260 C   0  0  0  0  0  3  0  0  0  0  0  0
  -28.6530  -13.1460   20.8530 C   0  0  0  0  0  2  0  0  0  0  0  0
  -29.9840  -13.3880   20.2840 N   0  0  0  0  0  0  0  0  0  0  0  0
  -31.8870  -14.5370   19.9290 O   0  0  0  0  0  0  0  0  0  0  0  0
  -25.2080  -13.9030   20.4230 C   0  0  0  0  0  0  0  0  0  0  0  0
  -24.1380  -13.1320   20.7920 C   0  0  0  0  0  0  0  0  0  0  0  0
  -24.6010  -11.7810   20.7750 C   0  0  0  0  0  0  0  0  0  0  0  0
  -26.2540  -13.0230   20.2040 N   0  0  0  0  0  0  0  0  0  0  0  0
  -25.8940  -11.7410   20.4760 N   0  0  0  0  0  0  0  0  0  0  0  0
  -23.8730  -10.5200   20.9700 C   0  0  0  0  0  0  0  0  0  0  0  0
  -24.2950   -9.5610   21.9180 C   0  0  0  0  0  3  0  0  0  0  0  0
  -23.5670   -8.3660   22.1010 C   0  0  0  0  0  3  0  0  0  0  0  0
  -22.4020   -8.1200   21.3360 C   0  0  0  0  0  0  0  0  0  0  0  0
  -21.9990   -9.0660   20.3790 C   0  0  0  0  0  3  0  0  0  0  0  0
  -22.7270  -10.2540   20.1930 C   0  0  0  0  0  3  0  0  0  0  0  0
  -21.6470   -6.9750   21.4280 O   0  0  0  0  0  0  0  0  0  0  0  0
  -21.5840   -6.2450   22.5880 C   0  0  0  0  0  0  0  0  0  0  0  0
  -21.1410   -6.8140   23.8030 C   0  0  0  0  0  3  0  0  0  0  0  0
  -21.0240   -6.0090   24.9540 C   0  0  0  0  0  3  0  0  0  0  0  0
  -21.3410   -4.6390   24.8930 C   0  0  0  0  0  0  0  0  0  0  0  0
  -21.7760   -4.0720   23.6820 C   0  0  0  0  0  3  0  0  0  0  0  0
  -21.8940   -4.8720   22.5320 C   0  0  0  0  0  0  0  0  0  0  0  0
  -22.2940   -4.3150   21.3640 F   0  0  0  0  0  0  0  0  0  0  0  0
  -21.2220   -3.8650   25.9960 F   0  0  0  0  0  0  0  0  0  0  0  0
  -22.7390  -13.6110   21.0490 C   0  0  0  0  0  0  0  0  0  0  0  0
  -22.0040  -12.9220   21.9140 N   0  0  0  0  0  0  0  0  0  0  0  0
  -22.3060  -14.6330   20.5180 O   0  0  0  0  0  0  0  0  0  0  0  0
  -22.3650  -12.0960   22.3680 H   0  0  0  0  0  0  0  0  0  0  0  0
  -21.0640  -13.2270   22.1270 H   0  0  0  0  0  0  0  0  0  0  0  0
  -25.3700  -15.2730   20.2350 N   0  0  0  0  0  0  0  0  0  0  0  0
  -24.6000  -15.9250   20.3360 H   0  0  0  0  0  0  0  0  0  0  0  0
  -26.2240  -15.7160   19.9150 H   0  0  0  0  0  0  0  0  0  0  0  0
  -34.5950  -20.2060   22.6200 C   0  0  0  0  0  2  0  0  0  0  0  0
  -33.3770  -20.7620   22.7390 C   0  0  0  0  0  3  0  0  0  0  0  0
  -28.8450  -21.1840   20.6800 O   0  0  0  0  0  0  0  0  0  0  0  0
  -28.2810  -22.2300   21.4880 C   0  0  0  0  0  2  0  0  0  0  0  0
  -28.1620  -23.5780   20.7180 C   0  0  0  0  0  2  0  0  0  0  0  0
  -27.8620  -24.8000   21.6260 C   0  0  0  0  0  2  0  0  0  0  0  0
  -28.6940  -26.0810   21.3410 C   0  0  0  0  0  2  0  0  0  0  0  0
  -28.3740  -26.7430   20.1120 O   0  0  0  0  0  0  0  0  0  0  0  0
  -24.5650  -31.9110   23.2430 C   0  0  0  0  0  0  0  0  0  0  0  0
  -27.2330  -27.5070   20.1430 C   0  0  0  0  0  0  0  0  0  0  0  0
  -23.3720  -30.5200   21.5820 C   0  0  0  0  0  3  0  0  0  0  0  0
  -24.8400  -29.0010   20.1470 C   0  0  0  0  0  0  0  0  0  0  0  0
  -25.8960  -30.8900   21.4000 C   0  0  0  0  0  2  0  0  0  0  0  0
  -25.9890  -29.5230   20.7540 C   0  0  0  0  0  0  0  0  0  0  0  0
  -27.1910  -28.7800   20.7580 C   0  0  0  0  0  3  0  0  0  0  0  0
  -26.0770  -27.0030   19.5170 C   0  0  0  0  0  3  0  0  0  0  0  0
  -24.8760  -27.7390   19.5250 C   0  0  0  0  0  3  0  0  0  0  0  0
  -23.5920  -29.8560   20.1950 C   0  0  0  0  0  2  0  0  0  0  0  0
  -24.6280  -31.1230   22.1330 N   0  0  0  0  0  0  0  0  0  0  0  0
  -23.4810  -32.1750   23.7830 O   0  0  0  0  0  0  0  0  0  0  0  0
  -22.7230  -29.4860   22.5290 C   0  0  0  0  0  0  0  0  0  0  0  0
  -21.3980  -29.3060   22.4030 N   0  0  0  0  0  0  0  0  0  0  0  0
  -23.4100  -28.8470   23.3320 O   0  0  0  0  0  0  0  0  0  0  0  0
  -20.9060  -29.8730   21.7270 H   0  0  0  0  0  0  0  0  0  0  0  0
  -18.0210  -28.1250   22.9030 C   0  0  0  0  0  0  0  0  0  0  0  0
  -20.5820  -28.3590   23.1630 C   0  0  0  0  0  3  0  0  0  0  0  0
  -20.6700  -26.9380   22.5590 C   0  0  0  0  0  2  0  0  0  0  0  0
  -19.5590  -26.6430   21.5460 C   0  0  0  0  0  2  0  0  0  0  0  0
  -18.1820  -26.7860   22.2030 C   0  0  0  0  0  2  0  0  0  0  0  0
  -19.1480  -28.8700   23.3410 C   0  0  0  0  0  0  0  0  0  0  0  0
  -18.9430  -30.1250   23.9550 C   0  0  0  0  0  3  0  0  0  0  0  0
  -17.6430  -30.6330   24.1380 C   0  0  0  0  0  3  0  0  0  0  0  0
  -16.5300  -29.8830   23.7170 C   0  0  0  0  0  3  0  0  0  0  0  0
  -16.7200  -28.6320   23.1050 C   0  0  0  0  0  3  0  0  0  0  0  0
  -25.8460  -32.5410   23.8750 C   0  0  0  0  0  3  0  0  0  0  0  0
  -25.5400  -33.9400   24.1950 N   0  0  0  0  0  0  0  0  0  0  0  0
  -25.8810  -34.9870   23.4310 C   0  0  0  0  0  0  0  0  0  0  0  0
  -26.5610  -34.8760   22.4070 O   0  0  0  0  0  0  0  0  0  0  0  0
  -24.9400  -34.1020   24.9910 H   0  0  0  0  0  0  0  0  0  0  0  0
  -24.1640  -36.7810   23.0410 C   0  0  0  0  0  1  0  0  0  0  0  0
  -25.3910  -36.3790   23.8740 C   0  0  0  0  0  3  0  0  0  0  0  0
  -27.5170  -37.2630   24.7290 C   0  0  0  0  0  1  0  0  0  0  0  0
  -26.4290  -37.4280   23.7690 N   0  0  0  0  0  0  0  0  0  0  0  0
  -26.0250  -38.3510   23.9040 H   0  0  0  0  0  0  0  0  0  0  0  0
  -26.3510  -31.7700   25.1570 C   0  0  1  0  0  0  0  0  0  0  0  0
  -25.2500  -31.5360   26.2180 C   0  0  0  0  0  1  0  0  0  0  0  0
  -26.9330  -30.3890   24.7700 C   0  0  0  0  0  1  0  0  0  0  0  0
  -27.4990  -32.5610   25.8270 C   0  0  0  0  0  1  0  0  0  0  0  0
  1  4  1  0
  2  6  2  0
  2  3  1  0
  3  1  2  0
  4 47  1  0
  5  4  2  0
  6  5  1  0
  7  5  1  0
  8  3  1  0
  9  8  2  0
 10  9  1  0
 11 16  1  0
 12 13  1  0
 12 11  1  0
 14 13  1  0
 14 21  1  0
 14 15  1  0
 16 10  1  0
 16 15  1  0
 17 10  2  0
 18 19  2  0
 19 38  1  0
 20 19  1  0
 20 23  1  0
 21 18  1  0
 21 22  1  0
 22 20  2  0
 23 24  1  0
 24 25  2  0
 26 29  1  0
 26 25  1  0
 27 26  2  0
 28 27  1  0
 28 23  2  0
 29 30  1  0
 30 31  1  0
 31 32  2  0
 33 32  1  0
 33 37  1  0
 34 33  2  0
 35 30  2  0
 35 34  1  0
 36 35  1  0
 38 39  1  0
 39 42  1  0
 39 41  1  0
 40 38  2  0
 43 44  1  0
 43 18  1  0
 45 43  1  0
 46 47  2  0
 48  6  1  0
 48 49  1  0
 50 49  1  0
 50 51  1  0
 52 51  1  0
 53 55  1  0
 53 52  1  0
 54 65  2  0
 55 60  1  0
 56 64  1  0
 56 66  1  0
 57 63  1  0
 57 59  1  0
 58 64  1  0
 59 60  2  0
 59 58  1  0
 61 62  1  0
 61 55  2  0
 62 57  2  0
 63 56  1  0
 64 54  1  0
 66 68  2  0
 67 66  1  0
 69 67  1  0
 70 79  2  0
 70 75  1  0
 71 67  1  0
 71 75  1  0
 72 71  1  0
 73 74  1  0
 73 72  1  0
 74 70  1  0
 75 76  2  0
 76 77  1  0
 78 77  2  0
 79 78  1  0
 80 54  1  0
 80 81  1  0
 80 90  1  0
 81 84  1  0
 82 86  1  0
 82 81  1  0
 83 82  2  0
 86 85  1  0
 88 86  1  0
 88 89  1  0
 88 87  1  0
 90 93  1  1
 90 91  1  0
 92 90  1  0
M  ISO  4   9 100  10 100  52 101  53 101
M  END
>  <TORSDO>  (83) 
F 23

>  <SCORE>  (83) 
-13.188

>  <name>  (83) 
82

>  <ligand_id>  (83) 
82

>  <original_smiles>  (83) 
[H]C([H])=C([H])c1c([H])c(C([H])=C([H])C(=O)N2C([H])([H])C([H])([H])C([H])([H])C([H])(n3nc(-c4c([H])c([H])c(Oc5c([H])c([H])c(F)c([H])c5F)c([H])c4[H])c(C(=O)N([H])[H])c3N([H])[H])C2([H])[H])c([H])c(OC([H])([H])C([H])([H])C([H])([H])C([H])([H])Oc2c([H])c([H])c3c(c2[H])C([H])([H])N(C(=O)C([H])(N([H])C(=O)C([H])(N([H])C([H])([H])[H])C([H])([H])[H])C(C([H])([H])[H])(C([H])([H])[H])C([H])([H])[H])C([H])(C(=O)N([H])C2([H])c4c([H])c([H])c([H])c([H])c4C([H])([H])C([H])([H])C2([H])[H])C3([H])[H])c1C([H])([H])[H]

>  <smiles>  (83) 
[H]C([H])=C([H])c1c([H])c(C([H])=C([H])C(=O)N2C([H])([H])C([H])([H])C([H])([H])C([H])(n3nc(-c4c([H])c([H])c(Oc5c([H])c([H])c(F)c([H])c5F)c([H])c4[H])c(C(=O)N([H])[H])c3N([H])[H])C2([H])[H])c([H])c(OC([H])([H])C([H])([H])C([H])([H])C([H])([H])Oc2c([H])c([H])c3c(c2[H])C([H])([H])N(C(=O)C([H])(N([H])C(=O)C([H])(N([H])C([H])([H])[H])C([H])([H])[H])C(C([H])([H])[H])(C([H])([H])[H])C([H])([H])[H])C([H])(C(=O)N([H])C2([H])c4c([H])c([H])c([H])c([H])c4C([H])([H])C([H])([H])C2([H])[H])C3([H])[H])c1C([H])([H])[H]

$$$$
83:0:0
     RDKit          3D

 93102  0  0  1  0  0  0  0  0999 V2000
  -28.7360  -21.2840   20.2940 C   0  0  0  0  0  0  0  0  0  0  0  0
  -29.7610  -23.9170   22.6980 C   0  0  0  0  0  2  0  0  0  0  0  0
  -28.3430  -24.2860   22.2970 C   0  0  0  0  0  2  0  0  0  0  0  0
  -30.0740  -22.6430   21.9050 C   0  0  0  0  0  2  0  0  0  0  0  0
  -28.2320  -23.8200   20.8420 C   0  0  0  0  0  3  0  0  0  0  0  0
  -29.0900  -22.5320   20.8200 N   0  0  0  0  0  0  0  0  0  0  0  0
  -27.7250  -21.2260   19.5880 O   0  0  0  0  0  0  0  0  0  0  0  0
  -31.0070  -18.0510   20.6650 C   0  0  0  0  0  3  0  0  0  0  0  0
  -30.8140  -19.4950   20.5950 C   0  0  0  0  0  0  0  0  0  0  0  0
  -29.4900  -19.9220   20.5290 C   0  0  0  0  0  0  0  0  0  0  0  0
  -29.8780  -17.2620   20.6250 C   0  0  0  0  0  0  0  0  0  0  0  0
  -32.0200  -20.3840   20.5520 C   0  0  0  0  0  1  0  0  0  0  0  0
  -28.5100  -18.4160   20.5340 S   0  0  0  0  0  0  0  0  0  0  0  0
  -30.5560  -14.7990   20.3140 C   0  0  0  0  0  0  0  0  0  0  0  0
  -30.3930  -12.5500   19.2220 C   0  0  0  0  0  2  0  0  0  0  0  0
  -29.4330  -12.6550   18.0130 C   0  0  0  0  0  2  0  0  0  0  0  0
  -27.9650  -12.4740   18.4510 C   0  0  0  0  0  2  0  0  0  0  0  0
  -27.6120  -13.3160   19.7060 C   0  0  0  0  0  3  0  0  0  0  0  0
  -28.6800  -13.1650   20.8100 C   0  0  0  0  0  2  0  0  0  0  0  0
  -29.9680  -13.5570   20.2210 N   0  0  0  0  0  0  0  0  0  0  0  0
  -31.7220  -14.9560   19.9340 O   0  0  0  0  0  0  0  0  0  0  0  0
  -29.7310  -15.8620   20.6620 N   0  0  0  0  0  0  0  0  0  0  0  0
  -28.8040  -15.5520   20.9110 H   0  0  0  0  0  0  0  0  0  0  0  0
  -25.2250  -13.8980   20.4450 C   0  0  0  0  0  0  0  0  0  0  0  0
  -24.1670  -13.1180   20.8270 C   0  0  0  0  0  0  0  0  0  0  0  0
  -24.6360  -11.7690   20.7880 C   0  0  0  0  0  0  0  0  0  0  0  0
  -26.2700  -13.0220   20.2000 N   0  0  0  0  0  0  0  0  0  0  0  0
  -25.9240  -11.7370   20.4670 N   0  0  0  0  0  0  0  0  0  0  0  0
  -23.9160  -10.5030   20.9840 C   0  0  0  0  0  0  0  0  0  0  0  0
  -24.3450   -9.5460   21.9310 C   0  0  0  0  0  3  0  0  0  0  0  0
  -23.6240   -8.3450   22.1130 C   0  0  0  0  0  3  0  0  0  0  0  0
  -22.4600   -8.0940   21.3470 C   0  0  0  0  0  0  0  0  0  0  0  0
  -22.0510   -9.0400   20.3910 C   0  0  0  0  0  3  0  0  0  0  0  0
  -22.7730  -10.2310   20.2070 C   0  0  0  0  0  3  0  0  0  0  0  0
  -21.7120   -6.9440   21.4370 O   0  0  0  0  0  0  0  0  0  0  0  0
  -21.6420   -6.2210   22.6010 C   0  0  0  0  0  0  0  0  0  0  0  0
  -21.1570   -6.7900   23.8010 C   0  0  0  0  0  3  0  0  0  0  0  0
  -21.0340   -5.9930   24.9570 C   0  0  0  0  0  3  0  0  0  0  0  0
  -21.3840   -4.6300   24.9150 C   0  0  0  0  0  0  0  0  0  0  0  0
  -21.8620   -4.0620   23.7210 C   0  0  0  0  0  3  0  0  0  0  0  0
  -21.9860   -4.8560   22.5670 C   0  0  0  0  0  0  0  0  0  0  0  0
  -22.4260   -4.2990   21.4120 F   0  0  0  0  0  0  0  0  0  0  0  0
  -21.2590   -3.8620   26.0230 F   0  0  0  0  0  0  0  0  0  0  0  0
  -22.7700  -13.5890   21.1120 C   0  0  0  0  0  0  0  0  0  0  0  0
  -22.0510  -12.8850   21.9800 N   0  0  0  0  0  0  0  0  0  0  0  0
  -22.3240  -14.6150   20.6020 O   0  0  0  0  0  0  0  0  0  0  0  0
  -22.4230  -12.0540   22.4140 H   0  0  0  0  0  0  0  0  0  0  0  0
  -21.1160  -13.1860   22.2160 H   0  0  0  0  0  0  0  0  0  0  0  0
  -25.3820  -15.2690   20.2650 N   0  0  0  0  0  0  0  0  0  0  0  0
  -24.6140  -15.9210   20.3770 H   0  0  0  0  0  0  0  0  0  0  0  0
  -26.2110  -15.7060   19.8820 H   0  0  0  0  0  0  0  0  0  0  0  0
  -28.5400  -25.0600   19.8440 C   0  0  0  0  0  2  0  0  0  0  0  0
  -28.4200  -26.5040   20.2570 O   0  0  0  0  0  0  0  0  0  0  0  0
  -24.6130  -31.8800   23.2300 C   0  0  0  0  0  0  0  0  0  0  0  0
  -27.2670  -27.3160   20.1760 C   0  0  0  0  0  0  0  0  0  0  0  0
  -23.4230  -30.4860   21.5720 C   0  0  0  0  0  3  0  0  0  0  0  0
  -24.8900  -28.9340   20.1480 C   0  0  0  0  0  0  0  0  0  0  0  0
  -25.9600  -30.8100   21.4020 C   0  0  0  0  0  2  0  0  0  0  0  0
  -26.0500  -29.4270   20.7560 C   0  0  0  0  0  0  0  0  0  0  0  0
  -27.2350  -28.6280   20.7580 C   0  0  0  0  0  3  0  0  0  0  0  0
  -26.0800  -26.8740   19.5530 C   0  0  0  0  0  3  0  0  0  0  0  0
  -24.9060  -27.6650   19.5390 C   0  0  0  0  0  3  0  0  0  0  0  0
  -23.6540  -29.8150   20.1900 C   0  0  0  0  0  2  0  0  0  0  0  0
  -24.6840  -31.0790   22.1270 N   0  0  0  0  0  0  0  0  0  0  0  0
  -23.5260  -32.1520   23.7620 O   0  0  0  0  0  0  0  0  0  0  0  0
  -22.7550  -29.4660   22.5270 C   0  0  0  0  0  0  0  0  0  0  0  0
  -21.4300  -29.2910   22.3960 N   0  0  0  0  0  0  0  0  0  0  0  0
  -23.4320  -28.8350   23.3430 O   0  0  0  0  0  0  0  0  0  0  0  0
  -20.9440  -29.8610   21.7180 H   0  0  0  0  0  0  0  0  0  0  0  0
  -18.0500  -28.0910   22.8730 C   0  0  0  0  0  0  0  0  0  0  0  0
  -20.6080  -28.3440   23.1520 C   0  0  0  0  0  3  0  0  0  0  0  0
  -20.7090  -26.9190   22.5610 C   0  0  0  0  0  2  0  0  0  0  0  0
  -19.6110  -26.6100   21.5400 C   0  0  0  0  0  2  0  0  0  0  0  0
  -18.2260  -26.7490   22.1810 C   0  0  0  0  0  2  0  0  0  0  0  0
  -19.1680  -28.8460   23.3140 C   0  0  0  0  0  0  0  0  0  0  0  0
  -18.9520  -30.1030   23.9190 C   0  0  0  0  0  3  0  0  0  0  0  0
  -17.6470  -30.6030   24.0930 C   0  0  0  0  0  3  0  0  0  0  0  0
  -16.5430  -29.8440   23.6680 C   0  0  0  0  0  3  0  0  0  0  0  0
  -16.7440  -28.5900   23.0630 C   0  0  0  0  0  3  0  0  0  0  0  0
  -25.8910  -32.5120   23.8640 C   0  0  0  0  0  3  0  0  0  0  0  0
  -25.5850  -33.9160   24.1830 N   0  0  0  0  0  0  0  0  0  0  0  0
  -25.9290  -34.9630   23.4220 C   0  0  0  0  0  0  0  0  0  0  0  0
  -26.6080  -34.8490   22.3980 O   0  0  0  0  0  0  0  0  0  0  0  0
  -24.9850  -34.0770   24.9780 H   0  0  0  0  0  0  0  0  0  0  0  0
  -24.2220  -36.7700   23.0360 C   0  0  0  0  0  1  0  0  0  0  0  0
  -25.4450  -36.3570   23.8690 C   0  0  0  0  0  3  0  0  0  0  0  0
  -27.5680  -37.2340   24.7360 C   0  0  0  0  0  1  0  0  0  0  0  0
  -26.4850  -37.4040   23.7710 N   0  0  0  0  0  0  0  0  0  0  0  0
  -26.0810  -38.3250   23.9060 H   0  0  0  0  0  0  0  0  0  0  0  0
  -26.3870  -31.7510   25.1530 C   0  0  1  0  0  0  0  0  0  0  0  0
  -25.2810  -31.5260   26.2100 C   0  0  0  0  0  1  0  0  0  0  0  0
  -26.9700  -30.3690   24.7760 C   0  0  0  0  0  1  0  0  0  0  0  0
  -27.5300  -32.5470   25.8270 C   0  0  0  0  0  1  0  0  0  0  0  0
  1 10  1  0
  1  6  1  0
  3  2  1  0
  4  2  1  0
  5 52  1  0
  5  3  1  0
  6  5  1  0
  6  4  1  0
  7  1  2  0
  9  8  1  0
 10 13  1  0
 10  9  2  0
 11 22  1  0
 11  8  2  0
 12  9  1  0
 13 11  1  0
 14 22  1  0
 15 20  1  0
 16 17  1  0
 16 15  1  0
 18 17  1  0
 18 27  1  0
 18 19  1  0
 20 14  1  0
 20 19  1  0
 21 14  2  0
 22 23  1  0
 24 25  2  0
 25 44  1  0
 26 25  1  0
 26 29  1  0
 27 24  1  0
 27 28  1  0
 28 26  2  0
 29 30  1  0
 30 31  2  0
 32 35  1  0
 32 31  1  0
 33 32  2  0
 34 33  1  0
 34 29  2  0
 35 36  1  0
 36 37  1  0
 37 38  2  0
 39 38  1  0
 39 43  1  0
 40 39  2  0
 41 36  2  0
 41 40  1  0
 42 41  1  0
 44 45  1  0
 45 48  1  0
 45 47  1  0
 46 44  2  0
 49 50  1  0
 49 24  1  0
 51 49  1  0
 52 53  1  0
 54 65  2  0
 55 53  1  0
 55 60  1  0
 56 64  1  0
 56 66  1  0
 57 63  1  0
 57 59  1  0
 58 64  1  0
 59 60  2  0
 59 58  1  0
 61 55  2  0
 62 61  1  0
 62 57  2  0
 63 56  1  0
 64 54  1  0
 66 68  2  0
 67 66  1  0
 69 67  1  0
 70 79  2  0
 70 75  1  0
 71 67  1  0
 71 75  1  0
 72 71  1  0
 73 74  1  0
 73 72  1  0
 74 70  1  0
 75 76  2  0
 76 77  1  0
 78 77  2  0
 79 78  1  0
 80 54  1  0
 80 81  1  0
 80 90  1  0
 81 84  1  0
 82 86  1  0
 82 81  1  0
 83 82  2  0
 86 85  1  0
 88 86  1  0
 88 89  1  0
 88 87  1  0
 90 93  1  1
 90 91  1  0
 92 90  1  0
M  ISO  4  14 100  22 100  52 101  53 101
M  END
>  <TORSDO>  (84) 
F 18

>  <SCORE>  (84) 
-14.896

>  <name>  (84) 
83

>  <ligand_id>  (84) 
83

>  <original_smiles>  (84) 
[H]c1c([H])c([H])c2c(c1[H])C([H])([H])C([H])([H])C([H])([H])C2([H])N([H])C(=O)C1([H])N(C(=O)C([H])(N([H])C(=O)C([H])(N([H])C([H])([H])[H])C([H])([H])[H])C(C([H])([H])[H])(C([H])([H])[H])C([H])([H])[H])C([H])([H])c2c([H])c(OC([H])([H])C3([H])N(C(=O)c4sc(N([H])C(=O)N5C([H])([H])C([H])([H])C([H])([H])C([H])(n6nc(-c7c([H])c([H])c(Oc8c([H])c([H])c(F)c([H])c8F)c([H])c7[H])c(C(=O)N([H])[H])c6N([H])[H])C5([H])[H])c([H])c4C([H])([H])[H])C([H])([H])C([H])([H])C3([H])[H])c([H])c([H])c2C1([H])[H]

>  <smiles>  (84) 
[H]c1c([H])c([H])c2c(c1[H])C([H])([H])C([H])([H])C([H])([H])C2([H])N([H])C(=O)C1([H])N(C(=O)C([H])(N([H])C(=O)C([H])(N([H])C([H])([H])[H])C([H])([H])[H])C(C([H])([H])[H])(C([H])([H])[H])C([H])([H])[H])C([H])([H])c2c([H])c(OC([H])([H])C3([H])N(C(=O)c4sc(N([H])C(=O)N5C([H])([H])C([H])([H])C([H])([H])C([H])(n6nc(-c7c([H])c([H])c(Oc8c([H])c([H])c(F)c([H])c8F)c([H])c7[H])c(C(=O)N([H])[H])c6N([H])[H])C5([H])[H])c([H])c4C([H])([H])[H])C([H])([H])C([H])([H])C3([H])[H])c([H])c([H])c2C1([H])[H]

$$$$
84:0:0
     RDKit          3D

 93102  0  0  1  0  0  0  0  0999 V2000
  -28.8090  -23.8730   20.2660 C   0  0  0  0  0  0  0  0  0  0  0  0
  -28.5240  -25.1320   19.7170 C   0  0  0  0  0  3  0  0  0  0  0  0
  -28.9230  -23.4550   21.7250 C   0  0  0  0  0  3  0  0  0  0  0  0
  -29.1950  -21.9010   21.7840 C   0  0  0  0  0  3  0  0  0  0  0  0
  -29.1490  -22.5590   19.4860 C   0  0  0  0  0  3  0  0  0  0  0  0
  -30.4580  -22.8040   18.7100 C   0  0  0  0  0  1  0  0  0  0  0  0
  -29.2870  -21.3780   20.4170 N   0  0  0  0  0  0  0  0  0  0  0  0
  -29.7250  -18.4460   18.1020 C   0  0  0  0  0  3  0  0  0  0  0  0
  -29.5150  -19.7220   18.6410 C   0  0  0  0  0  3  0  0  0  0  0  0
  -29.6340  -18.7540   20.8560 C   0  0  0  0  0  3  0  0  0  0  0  0
  -29.8810  -17.3020   18.9040 C   0  0  0  0  0  0  0  0  0  0  0  0
  -29.4820  -19.9680   20.0290 C   0  0  0  0  0  0  0  0  0  0  0  0
  -29.8450  -17.3880   20.3270 C   0  0  0  0  0  0  0  0  0  0  0  0
  -29.9860  -15.9890   18.1510 C   0  0  0  0  0  1  0  0  0  0  0  0
  -30.6540  -14.9610   21.0780 C   0  0  0  0  0  0  0  0  0  0  0  0
  -30.6390  -12.5830   20.2800 C   0  0  0  0  0  2  0  0  0  0  0  0
  -29.8600  -12.4720   18.9490 C   0  0  0  0  0  2  0  0  0  0  0  0
  -28.3440  -12.3460   19.1960 C   0  0  0  0  0  2  0  0  0  0  0  0
  -27.8080  -13.3110   20.2870 C   0  0  0  0  0  3  0  0  0  0  0  0
  -28.7230  -13.3510   21.5290 C   0  0  0  0  0  2  0  0  0  0  0  0
  -30.0700  -13.7080   21.0670 N   0  0  0  0  0  0  0  0  0  0  0  0
  -31.8720  -15.0510   20.8950 O   0  0  0  0  0  0  0  0  0  0  0  0
  -29.8440  -16.1070   21.1290 N   0  0  0  0  0  0  0  0  0  0  0  0
  -28.9590  -15.9230   21.5760 H   0  0  0  0  0  0  0  0  0  0  0  0
  -25.3490  -13.8920   20.7210 C   0  0  0  0  0  0  0  0  0  0  0  0
  -24.2540  -13.1170   20.9930 C   0  0  0  0  0  0  0  0  0  0  0  0
  -24.7310  -11.7730   21.0650 C   0  0  0  0  0  0  0  0  0  0  0  0
  -26.4200  -13.0200   20.6370 N   0  0  0  0  0  0  0  0  0  0  0  0
  -26.0490  -11.7430   20.9110 N   0  0  0  0  0  0  0  0  0  0  0  0
  -24.0000  -10.5080   21.2140 C   0  0  0  0  0  0  0  0  0  0  0  0
  -24.3630   -9.5540   22.1900 C   0  0  0  0  0  3  0  0  0  0  0  0
  -23.6320   -8.3550   22.3270 C   0  0  0  0  0  3  0  0  0  0  0  0
  -22.5220   -8.1000   21.4870 C   0  0  0  0  0  0  0  0  0  0  0  0
  -22.1780   -9.0420   20.5000 C   0  0  0  0  0  3  0  0  0  0  0  0
  -22.9110  -10.2330   20.3620 C   0  0  0  0  0  3  0  0  0  0  0  0
  -21.7700   -6.9510   21.5300 O   0  0  0  0  0  0  0  0  0  0  0  0
  -21.6670   -6.2010   22.6740 C   0  0  0  0  0  0  0  0  0  0  0  0
  -21.1680   -6.7430   23.8780 C   0  0  0  0  0  3  0  0  0  0  0  0
  -21.0130   -5.9180   25.0100 C   0  0  0  0  0  3  0  0  0  0  0  0
  -21.3480   -4.5520   24.9390 C   0  0  0  0  0  0  0  0  0  0  0  0
  -21.8410   -4.0110   23.7390 C   0  0  0  0  0  3  0  0  0  0  0  0
  -21.9960   -4.8320   22.6090 C   0  0  0  0  0  0  0  0  0  0  0  0
  -22.4520   -4.2990   21.4490 F   0  0  0  0  0  0  0  0  0  0  0  0
  -21.1920   -3.7590   26.0230 F   0  0  0  0  0  0  0  0  0  0  0  0
  -22.8300  -13.5850   21.0820 C   0  0  0  0  0  0  0  0  0  0  0  0
  -22.0170  -12.9170   21.8930 N   0  0  0  0  0  0  0  0  0  0  0  0
  -22.4440  -14.5790   20.4680 O   0  0  0  0  0  0  0  0  0  0  0  0
  -22.3390  -12.1160   22.4140 H   0  0  0  0  0  0  0  0  0  0  0  0
  -21.0560  -13.2140   21.9950 H   0  0  0  0  0  0  0  0  0  0  0  0
  -25.5200  -15.2580   20.5130 N   0  0  0  0  0  0  0  0  0  0  0  0
  -24.7410  -15.9060   20.5000 H   0  0  0  0  0  0  0  0  0  0  0  0
  -26.3970  -15.6890   20.2480 H   0  0  0  0  0  0  0  0  0  0  0  0
  -28.4350  -26.4340   20.3050 O   0  0  0  0  0  0  0  0  0  0  0  0
  -24.6110  -31.9020   23.1490 C   0  0  0  0  0  0  0  0  0  0  0  0
  -27.3370  -27.3210   20.1480 C   0  0  0  0  0  0  0  0  0  0  0  0
  -23.4540  -30.4740   21.5030 C   0  0  0  0  0  3  0  0  0  0  0  0
  -24.9500  -28.9380   20.0920 C   0  0  0  0  0  0  0  0  0  0  0  0
  -25.9940  -30.8220   21.3520 C   0  0  0  0  0  2  0  0  0  0  0  0
  -26.1040  -29.4380   20.7060 C   0  0  0  0  0  0  0  0  0  0  0  0
  -27.2960  -28.6390   20.7250 C   0  0  0  0  0  3  0  0  0  0  0  0
  -26.1570  -26.8900   19.5010 C   0  0  0  0  0  3  0  0  0  0  0  0
  -24.9830  -27.6740   19.4770 C   0  0  0  0  0  3  0  0  0  0  0  0
  -23.6970  -29.7960   20.1270 C   0  0  0  0  0  2  0  0  0  0  0  0
  -24.7040  -31.0860   22.0580 N   0  0  0  0  0  0  0  0  0  0  0  0
  -23.5150  -32.1640   23.6690 O   0  0  0  0  0  0  0  0  0  0  0  0
  -22.7940  -29.4530   22.4620 C   0  0  0  0  0  0  0  0  0  0  0  0
  -21.4660  -29.2800   22.3490 N   0  0  0  0  0  0  0  0  0  0  0  0
  -23.4790  -28.8200   23.2710 O   0  0  0  0  0  0  0  0  0  0  0  0
  -20.9720  -29.8420   21.6700 H   0  0  0  0  0  0  0  0  0  0  0  0
  -18.0890  -28.0960   22.8920 C   0  0  0  0  0  0  0  0  0  0  0  0
  -20.6540  -28.3370   23.1200 C   0  0  0  0  0  3  0  0  0  0  0  0
  -20.7360  -26.9130   22.5220 C   0  0  0  0  0  2  0  0  0  0  0  0
  -19.6150  -26.6120   21.5230 C   0  0  0  0  0  2  0  0  0  0  0  0
  -18.2460  -26.7570   22.1930 C   0  0  0  0  0  2  0  0  0  0  0  0
  -19.2200  -28.8450   23.3140 C   0  0  0  0  0  0  0  0  0  0  0  0
  -19.0180  -30.0990   23.9300 C   0  0  0  0  0  3  0  0  0  0  0  0
  -17.7200  -30.6050   24.1270 C   0  0  0  0  0  3  0  0  0  0  0  0
  -16.6040  -29.8520   23.7210 C   0  0  0  0  0  3  0  0  0  0  0  0
  -16.7890  -28.6000   23.1090 C   0  0  0  0  0  3  0  0  0  0  0  0
  -25.8720  -32.5650   23.7850 C   0  0  0  0  0  3  0  0  0  0  0  0
  -25.5170  -33.9450   24.1490 N   0  0  0  0  0  0  0  0  0  0  0  0
  -25.8830  -35.0340   23.4620 C   0  0  0  0  0  0  0  0  0  0  0  0
  -26.6230  -34.9850   22.4750 O   0  0  0  0  0  0  0  0  0  0  0  0
  -24.8650  -34.0560   24.9120 H   0  0  0  0  0  0  0  0  0  0  0  0
  -24.1760  -36.8360   23.0470 C   0  0  0  0  0  1  0  0  0  0  0  0
  -25.3440  -36.3960   23.9440 C   0  0  0  0  0  3  0  0  0  0  0  0
  -27.3950  -37.2450   24.9970 C   0  0  0  0  0  1  0  0  0  0  0  0
  -26.3730  -37.4590   23.9760 N   0  0  0  0  0  0  0  0  0  0  0  0
  -25.9480  -38.3680   24.1380 H   0  0  0  0  0  0  0  0  0  0  0  0
  -26.4150  -31.7840   25.0430 C   0  0  1  0  0  0  0  0  0  0  0  0
  -25.3350  -31.5000   26.1130 C   0  0  0  0  0  1  0  0  0  0  0  0
  -27.0310  -30.4290   24.6250 C   0  0  0  0  0  1  0  0  0  0  0  0
  -27.5500  -32.5950   25.7130 C   0  0  0  0  0  1  0  0  0  0  0  0
  1  3  1  0
  2  1  2  0
  2 53  1  0
  3  4  2  0
  5  6  1  0
  5  1  1  0
  5  7  1  0
  7  4  1  0
  8  9  2  0
  8 11  1  0
  9 12  1  0
 11 13  2  0
 12  7  1  0
 12 10  2  0
 13 10  1  0
 13 23  1  0
 14 11  1  0
 15 23  1  0
 16 21  1  0
 17 18  1  0
 17 16  1  0
 19 18  1  0
 19 28  1  0
 19 20  1  0
 21 15  1  0
 21 20  1  0
 22 15  2  0
 23 24  1  0
 25 26  2  0
 26 27  1  0
 26 45  1  0
 27 30  1  0
 28 25  1  0
 28 29  1  0
 29 27  2  0
 30 31  1  0
 31 32  2  0
 33 36  1  0
 33 32  1  0
 34 33  2  0
 35 34  1  0
 35 30  2  0
 36 37  1  0
 37 38  1  0
 38 39  2  0
 40 39  1  0
 40 44  1  0
 41 40  2  0
 42 37  2  0
 42 41  1  0
 43 42  1  0
 45 46  1  0
 46 49  1  0
 46 48  1  0
 47 45  2  0
 50 25  1  0
 51 50  1  0
 52 50  1  0
 54 65  2  0
 55 53  1  0
 55 60  1  0
 56 64  1  0
 56 66  1  0
 57 63  1  0
 57 59  1  0
 58 64  1  0
 59 60  2  0
 59 58  1  0
 61 55  2  0
 62 61  1  0
 62 57  2  0
 63 56  1  0
 64 54  1  0
 66 68  2  0
 67 66  1  0
 69 67  1  0
 70 79  2  0
 70 75  1  0
 71 67  1  0
 71 75  1  0
 72 71  1  0
 73 74  1  0
 73 72  1  0
 74 70  1  0
 75 76  2  0
 76 77  1  0
 78 77  2  0
 79 78  1  0
 80 54  1  0
 80 81  1  0
 80 90  1  0
 81 84  1  0
 82 86  1  0
 82 81  1  0
 83 82  2  0
 86 85  1  0
 86 88  1  0
 88 89  1  0
 88 87  1  0
 90 93  1  1
 90 91  1  0
 92 90  1  0
M  ISO  4   2 101  15 100  23 100  53 101
M  END
>  <TORSDO>  (85) 
F 17

>  <SCORE>  (85) 
-14.228

>  <name>  (85) 
84

>  <ligand_id>  (85) 
84

>  <original_smiles>  (85) 
[H]C(Oc1c([H])c([H])c2c(c1[H])C([H])([H])N(C(=O)C([H])(N([H])C(=O)C([H])(N([H])C([H])([H])[H])C([H])([H])[H])C(C([H])([H])[H])(C([H])([H])[H])C([H])([H])[H])C([H])(C(=O)N([H])C1([H])c3c([H])c([H])c([H])c([H])c3C([H])([H])C([H])([H])C1([H])[H])C2([H])[H])=C1C([H])([H])C([H])([H])N(c2c([H])c([H])c(C([H])([H])[H])c(N([H])C(=O)N3C([H])([H])C([H])([H])C([H])([H])C([H])(n4nc(-c5c([H])c([H])c(Oc6c([H])c([H])c(F)c([H])c6F)c([H])c5[H])c(C(=O)N([H])[H])c4N([H])[H])C3([H])[H])c2[H])C1([H])C([H])([H])[H]

>  <smiles>  (85) 
[H]C(Oc1c([H])c([H])c2c(c1[H])C([H])([H])N(C(=O)C([H])(N([H])C(=O)C([H])(N([H])C([H])([H])[H])C([H])([H])[H])C(C([H])([H])[H])(C([H])([H])[H])C([H])([H])[H])C([H])(C(=O)N([H])C1([H])c3c([H])c([H])c([H])c([H])c3C([H])([H])C([H])([H])C1([H])[H])C2([H])[H])=C1C([H])([H])C([H])([H])N(c2c([H])c([H])c(C([H])([H])[H])c(N([H])C(=O)N3C([H])([H])C([H])([H])C([H])([H])C([H])(n4nc(-c5c([H])c([H])c(Oc6c([H])c([H])c(F)c([H])c6F)c([H])c5[H])c(C(=O)N([H])[H])c4N([H])[H])C3([H])[H])c2[H])C1([H])C([H])([H])[H]

$$$$
85:0:0
     RDKit          3D

 92100  0  0  1  0  0  0  0  0999 V2000
  -31.0620  -17.9220   20.0220 C   0  0  0  0  0  3  0  0  0  0  0  0
  -28.6740  -19.3680   20.2110 C   0  0  0  0  0  3  0  0  0  0  0  0
  -31.0570  -19.3460   19.8940 C   0  0  0  0  0  0  0  0  0  0  0  0
  -28.6840  -17.9460   20.3910 C   0  0  0  0  0  0  0  0  0  0  0  0
  -29.8830  -17.1720   20.2670 C   0  0  0  0  0  0  0  0  0  0  0  0
  -29.8580  -20.1130   19.9540 C   0  0  0  0  0  0  0  0  0  0  0  0
  -32.3920  -20.0480   19.7010 C   0  0  0  0  0  1  0  0  0  0  0  0
  -27.3660  -17.2800   20.7680 C   0  0  0  0  0  1  0  0  0  0  0  0
  -30.6030  -14.6770   19.8910 C   0  0  0  0  0  0  0  0  0  0  0  0
  -30.3490  -12.4360   18.8270 C   0  0  0  0  0  2  0  0  0  0  0  0
  -29.3250  -12.5540   17.6770 C   0  0  0  0  0  2  0  0  0  0  0  0
  -27.8840  -12.3820   18.1990 C   0  0  0  0  0  2  0  0  0  0  0  0
  -27.5990  -13.2390   19.4610 C   0  0  0  0  0  3  0  0  0  0  0  0
  -28.7300  -13.0840   20.5050 C   0  0  0  0  0  2  0  0  0  0  0  0
  -29.9960  -13.4450   19.8490 N   0  0  0  0  0  0  0  0  0  0  0  0
  -31.7210  -14.8500   19.3990 O   0  0  0  0  0  0  0  0  0  0  0  0
  -29.8360  -15.7050   20.3890 N   0  0  0  0  0  0  0  0  0  0  0  0
  -28.9890  -15.3620   20.8130 H   0  0  0  0  0  0  0  0  0  0  0  0
  -25.2610  -13.8230   20.3520 C   0  0  0  0  0  0  0  0  0  0  0  0
  -24.2240  -13.0440   20.7890 C   0  0  0  0  0  0  0  0  0  0  0  0
  -24.6780  -11.6920   20.6900 C   0  0  0  0  0  0  0  0  0  0  0  0
  -26.2860  -12.9470   20.0300 N   0  0  0  0  0  0  0  0  0  0  0  0
  -25.9430  -11.6590   20.2890 N   0  0  0  0  0  0  0  0  0  0  0  0
  -23.9610  -10.4270   20.9000 C   0  0  0  0  0  0  0  0  0  0  0  0
  -24.4160   -9.4650   21.8290 C   0  0  0  0  0  3  0  0  0  0  0  0
  -23.7000   -8.2640   22.0250 C   0  0  0  0  0  3  0  0  0  0  0  0
  -22.5130   -8.0180   21.2940 C   0  0  0  0  0  0  0  0  0  0  0  0
  -22.0780   -8.9690   20.3560 C   0  0  0  0  0  3  0  0  0  0  0  0
  -22.7950  -10.1610   20.1560 C   0  0  0  0  0  3  0  0  0  0  0  0
  -21.7670   -6.8680   21.4020 O   0  0  0  0  0  0  0  0  0  0  0  0
  -21.6980   -6.1620   22.5750 C   0  0  0  0  0  0  0  0  0  0  0  0
  -21.2090   -6.7420   23.7670 C   0  0  0  0  0  3  0  0  0  0  0  0
  -21.0880   -5.9610   24.9330 C   0  0  0  0  0  3  0  0  0  0  0  0
  -21.4470   -4.6000   24.9090 C   0  0  0  0  0  0  0  0  0  0  0  0
  -21.9280   -4.0180   23.7220 C   0  0  0  0  0  3  0  0  0  0  0  0
  -22.0510   -4.7970   22.5590 C   0  0  0  0  0  0  0  0  0  0  0  0
  -22.4950   -4.2270   21.4130 F   0  0  0  0  0  0  0  0  0  0  0  0
  -21.3230   -3.8470   26.0270 F   0  0  0  0  0  0  0  0  0  0  0  0
  -22.8510  -13.5180   21.1710 C   0  0  0  0  0  0  0  0  0  0  0  0
  -22.1910  -12.8140   22.0840 N   0  0  0  0  0  0  0  0  0  0  0  0
  -22.3750  -14.5470   20.6940 O   0  0  0  0  0  0  0  0  0  0  0  0
  -22.5880  -11.9800   22.4910 H   0  0  0  0  0  0  0  0  0  0  0  0
  -21.2720  -13.1100   22.3780 H   0  0  0  0  0  0  0  0  0  0  0  0
  -25.4080  -15.1950   20.1730 N   0  0  0  0  0  0  0  0  0  0  0  0
  -24.6390  -15.8390   20.3280 H   0  0  0  0  0  0  0  0  0  0  0  0
  -26.1900  -15.6290   19.6990 H   0  0  0  0  0  0  0  0  0  0  0  0
  -29.9330  -21.5180   19.8060 O   0  0  0  0  0  0  0  0  0  0  0  0
  -28.7580  -22.3990   19.7650 C   0  0  0  0  0  2  0  0  0  0  0  0
  -29.1080  -23.9490   19.8130 C   0  0  0  0  0  0  0  0  0  0  0  0
  -30.2540  -24.3250   20.0890 O   0  0  0  0  0  0  0  0  0  0  0  0
  -27.9780  -25.0060   19.5010 C   0  0  0  0  0  2  0  0  0  0  0  0
  -28.2470  -26.4400   19.7940 O   0  0  0  0  0  0  0  0  0  0  0  0
  -24.4980  -31.6780   23.0710 C   0  0  0  0  0  0  0  0  0  0  0  0
  -27.1300  -27.2960   19.7820 C   0  0  0  0  0  0  0  0  0  0  0  0
  -23.2950  -30.3470   21.3770 C   0  0  0  0  0  3  0  0  0  0  0  0
  -24.7490  -28.8890   19.8660 C   0  0  0  0  0  0  0  0  0  0  0  0
  -25.8300  -30.7030   21.1880 C   0  0  0  0  0  2  0  0  0  0  0  0
  -25.9200  -29.3570   20.4770 C   0  0  0  0  0  0  0  0  0  0  0  0
  -27.1130  -28.5740   20.4260 C   0  0  0  0  0  3  0  0  0  0  0  0
  -25.9330  -26.8910   19.1430 C   0  0  0  0  0  3  0  0  0  0  0  0
  -24.7600  -27.6630   19.1890 C   0  0  0  0  0  3  0  0  0  0  0  0
  -23.5040  -29.7460   19.9640 C   0  0  0  0  0  2  0  0  0  0  0  0
  -24.5610  -30.9240   21.9370 N   0  0  0  0  0  0  0  0  0  0  0  0
  -23.4160  -31.9180   23.6260 O   0  0  0  0  0  0  0  0  0  0  0  0
  -22.6520  -29.2760   22.2920 C   0  0  0  0  0  0  0  0  0  0  0  0
  -21.3250  -29.1030   22.1810 N   0  0  0  0  0  0  0  0  0  0  0  0
  -23.3460  -28.6060   23.0610 O   0  0  0  0  0  0  0  0  0  0  0  0
  -20.8240  -29.6930   21.5310 H   0  0  0  0  0  0  0  0  0  0  0  0
  -17.9500  -27.9040   22.7010 C   0  0  0  0  0  0  0  0  0  0  0  0
  -20.5170  -28.1280   22.9170 C   0  0  0  0  0  3  0  0  0  0  0  0
  -20.5910  -26.7330   22.2540 C   0  0  0  0  0  2  0  0  0  0  0  0
  -19.4590  -26.4820   21.2530 C   0  0  0  0  0  2  0  0  0  0  0  0
  -18.0960  -26.5970   21.9420 C   0  0  0  0  0  2  0  0  0  0  0  0
  -19.0870  -28.6300   23.1460 C   0  0  0  0  0  0  0  0  0  0  0  0
  -18.8950  -29.8570   23.8200 C   0  0  0  0  0  3  0  0  0  0  0  0
  -17.5990  -30.3570   24.0510 C   0  0  0  0  0  3  0  0  0  0  0  0
  -16.4770  -29.6260   23.6210 C   0  0  0  0  0  3  0  0  0  0  0  0
  -16.6540  -28.4020   22.9520 C   0  0  0  0  0  3  0  0  0  0  0  0
  -25.7790  -32.2930   23.7120 C   0  0  0  0  0  3  0  0  0  0  0  0
  -26.2850  -31.4960   24.9770 C   0  0  1  0  0  0  0  0  0  0  0  0
  -25.1870  -31.2550   26.0400 C   0  0  0  0  0  1  0  0  0  0  0  0
  -26.8490  -30.1170   24.5640 C   0  0  0  0  0  1  0  0  0  0  0  0
  -27.4460  -32.2640   25.6500 C   0  0  0  0  0  1  0  0  0  0  0  0
  -25.4710  -33.6860   24.0660 N   0  0  0  0  0  0  0  0  0  0  0  0
  -25.7940  -34.7520   23.3210 C   0  0  0  0  0  0  0  0  0  0  0  0
  -26.4530  -34.6650   22.2810 O   0  0  0  0  0  0  0  0  0  0  0  0
  -24.8820  -33.8270   24.8750 H   0  0  0  0  0  0  0  0  0  0  0  0
  -24.0560  -36.5440   23.0200 C   0  0  0  0  0  1  0  0  0  0  0  0
  -25.3120  -36.1330   23.8050 C   0  0  0  0  0  3  0  0  0  0  0  0
  -27.4520  -37.0140   24.6210 C   0  0  0  0  0  1  0  0  0  0  0  0
  -26.3400  -37.1890   23.6910 N   0  0  0  0  0  0  0  0  0  0  0  0
  -25.9330  -38.1060   23.8500 H   0  0  0  0  0  0  0  0  0  0  0  0
  1  5  1  0
  2  4  1  0
  3  6  1  0
  3  1  2  0
  4  8  1  0
  5 17  1  0
  5  4  2  0
  6  2  2  0
  7  3  1  0
  9 17  1  0
 10 15  1  0
 11 12  1  0
 11 10  1  0
 13 12  1  0
 13 22  1  0
 13 14  1  0
 15  9  1  0
 15 14  1  0
 16  9  2  0
 17 18  1  0
 19 20  2  0
 20 39  1  0
 21 20  1  0
 21 24  1  0
 22 23  1  0
 22 19  1  0
 23 21  2  0
 24 25  1  0
 25 26  2  0
 27 30  1  0
 27 26  1  0
 28 27  2  0
 29 28  1  0
 29 24  2  0
 30 31  1  0
 31 32  1  0
 32 33  2  0
 34 33  1  0
 34 38  1  0
 35 34  2  0
 36 31  2  0
 36 35  1  0
 37 36  1  0
 39 40  1  0
 40 43  1  0
 40 42  1  0
 41 39  2  0
 44 45  1  0
 44 19  1  0
 46 44  1  0
 47  6  1  0
 48 47  1  0
 48 49  1  0
 49 50  2  0
 51 52  1  0
 51 49  1  0
 53 64  2  0
 54 52  1  0
 54 59  1  0
 55 63  1  0
 55 65  1  0
 56 62  1  0
 56 58  1  0
 57 63  1  0
 58 57  1  0
 59 58  2  0
 60 61  1  0
 60 54  2  0
 61 56  2  0
 62 55  1  0
 63 53  1  0
 65 67  2  0
 66 65  1  0
 68 66  1  0
 69 78  2  0
 69 74  1  0
 70 66  1  0
 70 74  1  0
 71 70  1  0
 72 73  1  0
 72 71  1  0
 73 69  1  0
 74 75  2  0
 75 76  1  0
 77 76  2  0
 78 77  1  0
 79 53  1  0
 79 84  1  0
 79 80  1  0
 80 83  1  1
 80 81  1  0
 82 80  1  0
 84 87  1  0
 85 89  1  0
 85 84  1  0
 86 85  2  0
 89 88  1  0
 91 89  1  0
 91 92  1  0
 91 90  1  0
M  ISO  4   9 100  17 100  51 101  52 101
M  END
>  <TORSDO>  (86) 
F 20

>  <SCORE>  (86) 
-13.042

>  <name>  (86) 
85

>  <ligand_id>  (86) 
85

>  <original_smiles>  (86) 
[H]c1c([H])c([H])c2c(c1[H])C([H])([H])C([H])([H])C([H])([H])C2([H])N([H])C(=O)C1([H])N(C(=O)C([H])(N([H])C(=O)C([H])(N([H])C([H])([H])[H])C([H])([H])[H])C(C([H])([H])[H])(C([H])([H])[H])C([H])([H])[H])C([H])([H])c2c([H])c(OC([H])([H])C(=O)C([H])([H])Oc3c([H])c(C([H])([H])[H])c(N([H])C(=O)N4C([H])([H])C([H])([H])C([H])([H])C([H])(n5nc(-c6c([H])c([H])c(Oc7c([H])c([H])c(F)c([H])c7F)c([H])c6[H])c(C(=O)N([H])[H])c5N([H])[H])C4([H])[H])c([H])c3C([H])([H])[H])c([H])c([H])c2C1([H])[H]

>  <smiles>  (86) 
[H]c1c([H])c([H])c2c(c1[H])C([H])([H])C([H])([H])C([H])([H])C2([H])N([H])C(=O)C1([H])N(C(=O)C([H])(N([H])C(=O)C([H])(N([H])C([H])([H])[H])C([H])([H])[H])C(C([H])([H])[H])(C([H])([H])[H])C([H])([H])[H])C([H])([H])c2c([H])c(OC([H])([H])C(=O)C([H])([H])Oc3c([H])c(C([H])([H])[H])c(N([H])C(=O)N4C([H])([H])C([H])([H])C([H])([H])C([H])(n5nc(-c6c([H])c([H])c(Oc7c([H])c([H])c(F)c([H])c7F)c([H])c6[H])c(C(=O)N([H])[H])c5N([H])[H])C4([H])[H])c([H])c3C([H])([H])[H])c([H])c([H])c2C1([H])[H]

$$$$
86:0:0
     RDKit          3D

 91 99  0  0  1  0  0  0  0  0999 V2000
  -30.1380  -22.0160   20.3850 C   0  0  0  0  0  0  0  0  0  0  0  0
  -31.3440  -22.0960   20.6350 O   0  0  0  0  0  0  0  0  0  0  0  0
  -30.2810  -19.4970   19.9290 C   0  0  0  0  0  3  0  0  0  0  0  0
  -28.4310  -18.2840   18.9190 C   0  0  0  0  0  3  0  0  0  0  0  0
  -28.2430  -20.6790   19.3170 C   0  0  0  0  0  3  0  0  0  0  0  0
  -29.7300  -18.2650   19.4760 C   0  0  0  0  0  0  0  0  0  0  0  0
  -29.5450  -20.7190   19.8740 C   0  0  0  0  0  0  0  0  0  0  0  0
  -27.7060  -19.4850   18.8090 C   0  0  0  0  0  0  0  0  0  0  0  0
  -26.3550  -19.5070   18.1240 C   0  0  0  0  0  1  0  0  0  0  0  0
  -30.5090  -16.9970   19.5530 C   0  0  0  0  0  3  0  0  0  0  0  0
  -30.0300  -15.7690   19.8980 C   0  0  0  0  0  3  0  0  0  0  0  0
  -30.8760  -14.5690   19.8550 C   0  0  0  0  0  0  0  0  0  0  0  0
  -30.7460  -12.1120   19.5940 C   0  0  0  0  0  2  0  0  0  0  0  0
  -29.8730  -11.8060   18.3550 C   0  0  0  0  0  2  0  0  0  0  0  0
  -28.3850  -11.7330   18.7540 C   0  0  0  0  0  2  0  0  0  0  0  0
  -27.9350  -12.9480   19.6110 C   0  0  0  0  0  3  0  0  0  0  0  0
  -28.9300  -13.1970   20.7620 C   0  0  0  0  0  2  0  0  0  0  0  0
  -30.2680  -13.3830   20.1720 N   0  0  0  0  0  0  0  0  0  0  0  0
  -32.0290  -14.6040   19.4200 O   0  0  0  0  0  0  0  0  0  0  0  0
  -25.6050  -13.7390   20.3590 C   0  0  0  0  0  0  0  0  0  0  0  0
  -24.4810  -13.0520   20.7340 C   0  0  0  0  0  0  0  0  0  0  0  0
  -24.8320  -11.6670   20.6830 C   0  0  0  0  0  0  0  0  0  0  0  0
  -26.5690  -12.7790   20.1040 N   0  0  0  0  0  0  0  0  0  0  0  0
  -26.1100  -11.5250   20.3540 N   0  0  0  0  0  0  0  0  0  0  0  0
  -24.0120  -10.4640   20.8720 C   0  0  0  0  0  0  0  0  0  0  0  0
  -24.3780   -9.4550   21.7920 C   0  0  0  0  0  3  0  0  0  0  0  0
  -23.5630   -8.3150   21.9630 C   0  0  0  0  0  3  0  0  0  0  0  0
  -22.3690   -8.1790   21.2160 C   0  0  0  0  0  0  0  0  0  0  0  0
  -22.0220   -9.1740   20.2870 C   0  0  0  0  0  3  0  0  0  0  0  0
  -22.8360  -10.3060   20.1130 C   0  0  0  0  0  3  0  0  0  0  0  0
  -21.5270   -7.0960   21.3010 O   0  0  0  0  0  0  0  0  0  0  0  0
  -21.3870   -6.3860   22.4670 C   0  0  0  0  0  0  0  0  0  0  0  0
  -20.9860   -7.0010   23.6720 C   0  0  0  0  0  3  0  0  0  0  0  0
  -20.7890   -6.2220   24.8310 C   0  0  0  0  0  3  0  0  0  0  0  0
  -20.9820   -4.8280   24.7810 C   0  0  0  0  0  0  0  0  0  0  0  0
  -21.3770   -4.2120   23.5800 C   0  0  0  0  0  3  0  0  0  0  0  0
  -21.5760   -4.9900   22.4250 C   0  0  0  0  0  0  0  0  0  0  0  0
  -21.9380   -4.3880   21.2650 F   0  0  0  0  0  0  0  0  0  0  0  0
  -20.7860   -4.0760   25.8890 F   0  0  0  0  0  0  0  0  0  0  0  0
  -23.1310  -13.6370   21.0340 C   0  0  0  0  0  0  0  0  0  0  0  0
  -22.3750  -12.9990   21.9210 N   0  0  0  0  0  0  0  0  0  0  0  0
  -22.7610  -14.6890   20.5190 O   0  0  0  0  0  0  0  0  0  0  0  0
  -22.6870  -12.1390   22.3460 H   0  0  0  0  0  0  0  0  0  0  0  0
  -21.4670  -13.3690   22.1670 H   0  0  0  0  0  0  0  0  0  0  0  0
  -25.8880  -15.0900   20.1890 N   0  0  0  0  0  0  0  0  0  0  0  0
  -25.1930  -15.8220   20.2780 H   0  0  0  0  0  0  0  0  0  0  0  0
  -26.7850  -15.4320   19.8690 H   0  0  0  0  0  0  0  0  0  0  0  0
  -29.2330  -23.1930   20.5890 C   0  0  0  0  0  3  0  0  0  0  0  0
  -29.6120  -24.4300   20.9850 C   0  0  0  0  0  3  0  0  0  0  0  0
  -28.6040  -25.5490   21.2710 C   0  0  0  0  0  2  0  0  0  0  0  0
  -28.7050  -26.6940   20.4100 O   0  0  0  0  0  0  0  0  0  0  0  0
  -24.5870  -31.7640   23.2960 C   0  0  0  0  0  0  0  0  0  0  0  0
  -27.5390  -27.4280   20.3490 C   0  0  0  0  0  0  0  0  0  0  0  0
  -23.5250  -30.3610   21.5570 C   0  0  0  0  0  3  0  0  0  0  0  0
  -25.1090  -28.8770   20.2110 C   0  0  0  0  0  0  0  0  0  0  0  0
  -26.0470  -30.7810   21.5290 C   0  0  0  0  0  2  0  0  0  0  0  0
  -26.2100  -29.4170   20.8880 C   0  0  0  0  0  0  0  0  0  0  0  0
  -27.4290  -28.7010   20.9600 C   0  0  0  0  0  3  0  0  0  0  0  0
  -26.4240  -26.8980   19.6700 C   0  0  0  0  0  3  0  0  0  0  0  0
  -25.2120  -27.6150   19.5970 C   0  0  0  0  0  3  0  0  0  0  0  0
  -23.8480  -29.7160   20.1830 C   0  0  0  0  0  2  0  0  0  0  0  0
  -24.7340  -30.9810   22.1900 N   0  0  0  0  0  0  0  0  0  0  0  0
  -23.4670  -32.0060   23.7660 O   0  0  0  0  0  0  0  0  0  0  0  0
  -22.8340  -29.3090   22.4540 C   0  0  0  0  0  0  0  0  0  0  0  0
  -21.5150  -29.1330   22.2680 N   0  0  0  0  0  0  0  0  0  0  0  0
  -23.4810  -28.6560   23.2770 O   0  0  0  0  0  0  0  0  0  0  0  0
  -21.0530  -29.7190   21.5860 H   0  0  0  0  0  0  0  0  0  0  0  0
  -18.1070  -27.9920   22.6790 C   0  0  0  0  0  0  0  0  0  0  0  0
  -20.6720  -28.1570   22.9560 C   0  0  0  0  0  3  0  0  0  0  0  0
  -20.7380  -26.7790   22.2520 C   0  0  0  0  0  2  0  0  0  0  0  0
  -19.5970  -26.5440   21.2570 C   0  0  0  0  0  2  0  0  0  0  0  0
  -18.2480  -26.6610   21.9650 C   0  0  0  0  0  2  0  0  0  0  0  0
  -19.2470  -28.6920   23.1500 C   0  0  0  0  0  0  0  0  0  0  0  0
  -19.0670  -29.9230   23.8130 C   0  0  0  0  0  3  0  0  0  0  0  0
  -17.7780  -30.4610   23.9980 C   0  0  0  0  0  3  0  0  0  0  0  0
  -16.6510  -29.7620   23.5300 C   0  0  0  0  0  3  0  0  0  0  0  0
  -16.8170  -28.5250   22.8820 C   0  0  0  0  0  3  0  0  0  0  0  0
  -25.8160  -32.4110   24.0090 C   0  0  0  0  0  3  0  0  0  0  0  0
  -26.2340  -31.6570   25.3290 C   0  0  1  0  0  0  0  0  0  0  0  0
  -25.0580  -31.4220   26.3060 C   0  0  0  0  0  1  0  0  0  0  0  0
  -26.8530  -30.2800   24.9930 C   0  0  0  0  0  1  0  0  0  0  0  0
  -27.3270  -32.4610   26.0720 C   0  0  0  0  0  1  0  0  0  0  0  0
  -25.4810  -33.8130   24.2910 N   0  0  0  0  0  0  0  0  0  0  0  0
  -25.8550  -34.8510   23.5300 C   0  0  0  0  0  0  0  0  0  0  0  0
  -26.5890  -34.7290   22.5460 O   0  0  0  0  0  0  0  0  0  0  0  0
  -24.8430  -33.9850   25.0540 H   0  0  0  0  0  0  0  0  0  0  0  0
  -24.1380  -36.6150   23.0280 C   0  0  0  0  0  1  0  0  0  0  0  0
  -25.3310  -36.2460   23.9230 C   0  0  0  0  0  3  0  0  0  0  0  0
  -27.4050  -37.1680   24.8580 C   0  0  0  0  0  1  0  0  0  0  0  0
  -26.3620  -37.3040   23.8460 N   0  0  0  0  0  0  0  0  0  0  0  0
  -25.9430  -38.2250   23.9440 H   0  0  0  0  0  0  0  0  0  0  0  0
  1 48  1  0
  1  2  2  0
  4  6  1  0
  5  7  2  0
  6 10  1  0
  6  3  2  0
  7  3  1  0
  7  1  1  0
  8  4  2  0
  8  5  1  0
  9  8  1  0
 10 11  2  0
 12 11  1  0
 12 18  1  0
 13 18  1  0
 14 15  1  0
 14 13  1  0
 16 15  1  0
 16 23  1  0
 16 17  1  0
 18 17  1  0
 19 12  2  0
 20 21  2  0
 21 40  1  0
 22 21  1  0
 22 25  1  0
 23 24  1  0
 23 20  1  0
 24 22  2  0
 25 26  1  0
 26 27  2  0
 28 31  1  0
 28 27  1  0
 29 28  2  0
 30 29  1  0
 30 25  2  0
 31 32  1  0
 32 33  1  0
 33 34  2  0
 35 34  1  0
 35 39  1  0
 36 35  2  0
 37 32  2  0
 37 36  1  0
 38 37  1  0
 40 41  1  0
 41 44  1  0
 41 43  1  0
 42 40  2  0
 45 46  1  0
 45 20  1  0
 47 45  1  0
 48 49  2  0
 49 50  1  0
 51 50  1  0
 52 63  2  0
 53 51  1  0
 53 58  1  0
 54 62  1  0
 54 64  1  0
 55 57  1  0
 56 62  1  0
 57 58  2  0
 57 56  1  0
 59 53  2  0
 60 59  1  0
 60 55  2  0
 61 55  1  0
 61 54  1  0
 62 52  1  0
 64 66  2  0
 65 64  1  0
 67 65  1  0
 68 77  2  0
 68 73  1  0
 69 65  1  0
 69 73  1  0
 70 69  1  0
 71 72  1  0
 71 70  1  0
 72 68  1  0
 73 74  2  0
 74 75  1  0
 76 75  2  0
 77 76  1  0
 78 52  1  0
 78 83  1  0
 78 79  1  0
 79 82  1  1
 79 80  1  0
 81 79  1  0
 83 86  1  0
 84 88  1  0
 84 83  1  0
 85 84  2  0
 88 87  1  0
 90 88  1  0
 90 91  1  0
 90 89  1  0
M  ISO  4  11 100  12 100  50 101  51 101
M  END
>  <TORSDO>  (87) 
F 20

>  <SCORE>  (87) 
-13.316

>  <name>  (87) 
86

>  <ligand_id>  (87) 
86

>  <original_smiles>  (87) 
[H]C(C(=O)N1C([H])([H])C([H])([H])C([H])([H])C([H])(n2nc(-c3c([H])c([H])c(Oc4c([H])c([H])c(F)c([H])c4F)c([H])c3[H])c(C(=O)N([H])[H])c2N([H])[H])C1([H])[H])=C([H])c1c([H])c(C(=O)C([H])=C([H])C([H])([H])Oc2c([H])c([H])c3c(c2[H])C([H])([H])N(C(=O)C([H])(N([H])C(=O)C([H])(N([H])C([H])([H])[H])C([H])([H])[H])C(C([H])([H])[H])(C([H])([H])[H])C([H])([H])[H])C([H])(C(=O)N([H])C2([H])c4c([H])c([H])c([H])c([H])c4C([H])([H])C([H])([H])C2([H])[H])C3([H])[H])c([H])c(C([H])([H])[H])c1[H]

>  <smiles>  (87) 
[H]C(C(=O)N1C([H])([H])C([H])([H])C([H])([H])C([H])(n2nc(-c3c([H])c([H])c(Oc4c([H])c([H])c(F)c([H])c4F)c([H])c3[H])c(C(=O)N([H])[H])c2N([H])[H])C1([H])[H])=C([H])c1c([H])c(C(=O)C([H])=C([H])C([H])([H])Oc2c([H])c([H])c3c(c2[H])C([H])([H])N(C(=O)C([H])(N([H])C(=O)C([H])(N([H])C([H])([H])[H])C([H])([H])[H])C(C([H])([H])[H])(C([H])([H])[H])C([H])([H])[H])C([H])(C(=O)N([H])C2([H])c4c([H])c([H])c([H])c([H])c4C([H])([H])C([H])([H])C2([H])[H])C3([H])[H])c([H])c(C([H])([H])[H])c1[H]

$$$$
87:0:0
     RDKit          3D

 92101  0  0  1  0  0  0  0  0999 V2000
  -29.0980  -24.8790   21.4760 C   0  0  0  0  0  0  0  0  0  0  0  0
  -28.7220  -26.1560   21.2230 C   0  0  0  0  0  3  0  0  0  0  0  0
  -29.2090  -24.3600   22.8850 C   0  0  0  0  0  2  0  0  0  0  0  0
  -29.0380  -22.8470   22.7750 C   0  0  0  0  0  2  0  0  0  0  0  0
  -29.3980  -23.7140   20.5330 C   0  0  0  0  0  3  0  0  0  0  0  0
  -30.8440  -23.8580   20.0260 C   0  0  0  0  0  1  0  0  0  0  0  0
  -29.2220  -22.5030   21.3660 N   0  0  0  0  0  0  0  0  0  0  0  0
  -29.6710  -18.7550   21.6140 C   0  0  0  0  0  3  0  0  0  0  0  0
  -29.8250  -19.4020   19.2930 C   0  0  0  0  0  3  0  0  0  0  0  0
  -29.4150  -20.1040   21.9570 C   0  0  0  0  0  3  0  0  0  0  0  0
  -29.5490  -20.7470   19.6340 C   0  0  0  0  0  3  0  0  0  0  0  0
  -29.9300  -18.3910   20.2770 C   0  0  0  0  0  0  0  0  0  0  0  0
  -29.3890  -21.1410   20.9840 C   0  0  0  0  0  0  0  0  0  0  0  0
  -30.3450  -17.0220   19.8750 C   0  0  0  0  0  3  0  0  0  0  0  0
  -30.2610  -15.8420   20.5460 C   0  0  0  0  0  3  0  0  0  0  0  0
  -30.9100  -14.6670   19.9500 C   0  0  0  0  0  0  0  0  0  0  0  0
  -30.5030  -12.5090   18.8400 C   0  0  0  0  0  2  0  0  0  0  0  0
  -29.4920  -12.7450   17.6990 C   0  0  0  0  0  2  0  0  0  0  0  0
  -28.0510  -12.5960   18.2230 C   0  0  0  0  0  2  0  0  0  0  0  0
  -27.8000  -13.4090   19.5230 C   0  0  0  0  0  3  0  0  0  0  0  0
  -28.9320  -13.1920   20.5520 C   0  0  0  0  0  2  0  0  0  0  0  0
  -30.2140  -13.4950   19.8980 N   0  0  0  0  0  0  0  0  0  0  0  0
  -32.0090  -14.7780   19.3990 O   0  0  0  0  0  0  0  0  0  0  0  0
  -25.4710  -13.9830   20.4470 C   0  0  0  0  0  0  0  0  0  0  0  0
  -24.4300  -13.1960   20.8620 C   0  0  0  0  0  0  0  0  0  0  0  0
  -24.8790  -11.8460   20.7340 C   0  0  0  0  0  0  0  0  0  0  0  0
  -26.4890  -13.1120   20.0950 N   0  0  0  0  0  0  0  0  0  0  0  0
  -26.1420  -11.8180   20.3250 N   0  0  0  0  0  0  0  0  0  0  0  0
  -24.1620  -10.5780   20.9250 C   0  0  0  0  0  0  0  0  0  0  0  0
  -24.6000   -9.6150   21.8600 C   0  0  0  0  0  3  0  0  0  0  0  0
  -23.8820   -8.4130   22.0370 C   0  0  0  0  0  3  0  0  0  0  0  0
  -22.7130   -8.1650   21.2810 C   0  0  0  0  0  0  0  0  0  0  0  0
  -22.2940   -9.1170   20.3340 C   0  0  0  0  0  3  0  0  0  0  0  0
  -23.0120  -10.3120   20.1550 C   0  0  0  0  0  3  0  0  0  0  0  0
  -21.9660   -7.0150   21.3670 O   0  0  0  0  0  0  0  0  0  0  0  0
  -21.8250   -6.3360   22.5510 C   0  0  0  0  0  0  0  0  0  0  0  0
  -21.2780   -6.9480   23.7000 C   0  0  0  0  0  3  0  0  0  0  0  0
  -21.0870   -6.1940   24.8760 C   0  0  0  0  0  3  0  0  0  0  0  0
  -21.4310   -4.8280   24.9010 C   0  0  0  0  0  0  0  0  0  0  0  0
  -21.9700   -4.2170   23.7550 C   0  0  0  0  0  3  0  0  0  0  0  0
  -22.1630   -4.9690   22.5830 C   0  0  0  0  0  0  0  0  0  0  0  0
  -22.6630   -4.3680   21.4760 F   0  0  0  0  0  0  0  0  0  0  0  0
  -21.2410   -4.1020   26.0260 F   0  0  0  0  0  0  0  0  0  0  0  0
  -23.0610  -13.6650   21.2650 C   0  0  0  0  0  0  0  0  0  0  0  0
  -22.4030  -12.9380   22.1600 N   0  0  0  0  0  0  0  0  0  0  0  0
  -22.5860  -14.7100   20.8200 O   0  0  0  0  0  0  0  0  0  0  0  0
  -22.8000  -12.0910   22.5400 H   0  0  0  0  0  0  0  0  0  0  0  0
  -21.4890  -13.2330   22.4710 H   0  0  0  0  0  0  0  0  0  0  0  0
  -25.6310  -15.3600   20.3200 N   0  0  0  0  0  0  0  0  0  0  0  0
  -24.8840  -16.0150   20.5240 H   0  0  0  0  0  0  0  0  0  0  0  0
  -26.4700  -15.8110   19.9770 H   0  0  0  0  0  0  0  0  0  0  0  0
  -28.5080  -26.7610   20.0040 O   0  0  0  0  0  0  0  0  0  0  0  0
  -24.6230  -31.8140   23.1960 C   0  0  0  0  0  0  0  0  0  0  0  0
  -27.3690  -27.5370   19.9750 C   0  0  0  0  0  0  0  0  0  0  0  0
  -23.4350  -30.3870   21.5600 C   0  0  0  0  0  3  0  0  0  0  0  0
  -24.9180  -28.9420   20.0630 C   0  0  0  0  0  0  0  0  0  0  0  0
  -25.9360  -30.8610   21.3010 C   0  0  0  0  0  2  0  0  0  0  0  0
  -26.0660  -29.5070   20.6340 C   0  0  0  0  0  0  0  0  0  0  0  0
  -27.2970  -28.8120   20.5880 C   0  0  0  0  0  3  0  0  0  0  0  0
  -26.2110  -26.9930   19.3890 C   0  0  0  0  0  3  0  0  0  0  0  0
  -24.9850  -27.6840   19.4350 C   0  0  0  0  0  3  0  0  0  0  0  0
  -23.6370  -29.7410   20.1620 C   0  0  0  0  0  2  0  0  0  0  0  0
  -24.6830  -31.0350   22.0770 N   0  0  0  0  0  0  0  0  0  0  0  0
  -23.5460  -32.0300   23.7680 O   0  0  0  0  0  0  0  0  0  0  0  0
  -22.8540  -29.3240   22.5210 C   0  0  0  0  0  0  0  0  0  0  0  0
  -21.5490  -29.0390   22.3810 N   0  0  0  0  0  0  0  0  0  0  0  0
  -23.5750  -28.7570   23.3460 O   0  0  0  0  0  0  0  0  0  0  0  0
  -21.0250  -29.5540   21.6860 H   0  0  0  0  0  0  0  0  0  0  0  0
  -18.2960  -27.5140   22.7700 C   0  0  0  0  0  0  0  0  0  0  0  0
  -20.7970  -28.0460   23.1470 C   0  0  0  0  0  3  0  0  0  0  0  0
  -21.0750  -26.6160   22.6280 C   0  0  0  0  0  2  0  0  0  0  0  0
  -20.0620  -26.1500   21.5780 C   0  0  0  0  0  2  0  0  0  0  0  0
  -18.6430  -26.1700   22.1540 C   0  0  0  0  0  2  0  0  0  0  0  0
  -19.3080  -28.4020   23.2230 C   0  0  0  0  0  0  0  0  0  0  0  0
  -18.9310  -29.6540   23.7550 C   0  0  0  0  0  3  0  0  0  0  0  0
  -17.5760  -30.0200   23.8440 C   0  0  0  0  0  3  0  0  0  0  0  0
  -16.5770  -29.1310   23.4100 C   0  0  0  0  0  3  0  0  0  0  0  0
  -16.9390  -27.8800   22.8780 C   0  0  0  0  0  3  0  0  0  0  0  0
  -25.8970  -32.4890   23.7930 C   0  0  0  0  0  3  0  0  0  0  0  0
  -25.5500  -33.8780   24.1200 N   0  0  0  0  0  0  0  0  0  0  0  0
  -25.8270  -34.9340   23.3430 C   0  0  0  0  0  0  0  0  0  0  0  0
  -26.4720  -34.8450   22.2950 O   0  0  0  0  0  0  0  0  0  0  0  0
  -24.9740  -34.0190   24.9370 H   0  0  0  0  0  0  0  0  0  0  0  0
  -24.0220  -36.6570   23.0240 C   0  0  0  0  0  1  0  0  0  0  0  0
  -25.3010  -36.3080   23.8030 C   0  0  0  0  0  3  0  0  0  0  0  0
  -27.4260  -37.2800   24.5570 C   0  0  0  0  0  1  0  0  0  0  0  0
  -26.2890  -37.3990   23.6490 N   0  0  0  0  0  0  0  0  0  0  0  0
  -25.8530  -38.3040   23.8060 H   0  0  0  0  0  0  0  0  0  0  0  0
  -26.4620  -31.7390   25.0600 C   0  0  1  0  0  0  0  0  0  0  0  0
  -25.3980  -31.4680   26.1480 C   0  0  0  0  0  1  0  0  0  0  0  0
  -27.0850  -30.3820   24.6580 C   0  0  0  0  0  1  0  0  0  0  0  0
  -27.5960  -32.5740   25.7020 C   0  0  0  0  0  1  0  0  0  0  0  0
  1  3  1  0
  2  1  2  0
  4  3  1  0
  5  6  1  0
  5  7  1  0
  5  1  1  0
  7  4  1  0
  8 10  1  0
  9 11  2  0
  9 12  1  0
 11 13  1  0
 12  8  2  0
 13  7  1  0
 13 10  2  0
 14 12  1  0
 14 15  2  0
 16 15  1  0
 17 22  1  0
 18 19  1  0
 18 17  1  0
 20 19  1  0
 20 27  1  0
 20 21  1  0
 22 16  1  0
 22 21  1  0
 23 16  2  0
 24 25  2  0
 25 44  1  0
 26 25  1  0
 26 29  1  0
 27 28  1  0
 27 24  1  0
 28 26  2  0
 29 30  1  0
 30 31  2  0
 32 35  1  0
 32 31  1  0
 33 32  2  0
 34 33  1  0
 34 29  2  0
 35 36  1  0
 36 41  2  0
 36 37  1  0
 37 38  2  0
 38 39  1  0
 39 43  1  0
 40 39  2  0
 41 40  1  0
 42 41  1  0
 44 45  1  0
 45 48  1  0
 45 47  1  0
 46 44  2  0
 49 24  1  0
 49 50  1  0
 51 49  1  0
 52  2  1  0
 53 64  2  0
 54 52  1  0
 54 59  1  0
 55 63  1  0
 55 65  1  0
 56 62  1  0
 56 58  1  0
 57 63  1  0
 58 57  1  0
 59 58  2  0
 60 61  1  0
 60 54  2  0
 61 56  2  0
 62 55  1  0
 63 53  1  0
 65 67  2  0
 66 65  1  0
 68 66  1  0
 69 78  2  0
 69 74  1  0
 70 66  1  0
 70 74  1  0
 71 70  1  0
 72 73  1  0
 72 71  1  0
 73 69  1  0
 74 75  2  0
 75 76  1  0
 77 76  2  0
 78 77  1  0
 79 53  1  0
 79 80  1  0
 79 89  1  0
 80 83  1  0
 81 85  1  0
 81 80  1  0
 82 81  2  0
 85 84  1  0
 87 85  1  0
 87 88  1  0
 87 86  1  0
 89 92  1  1
 89 90  1  0
 91 89  1  0
M  ISO  4   2 101  15 100  16 100  52 101
M  END
>  <TORSDO>  (88) 
F 18

>  <SCORE>  (88) 
-12.807

>  <name>  (88) 
87

>  <ligand_id>  (88) 
87

>  <original_smiles>  (88) 
[H]C(Oc1c([H])c([H])c2c(c1[H])C([H])([H])N(C(=O)C([H])(N([H])C(=O)C([H])(N([H])C([H])([H])[H])C([H])([H])[H])C(C([H])([H])[H])(C([H])([H])[H])C([H])([H])[H])C([H])(C(=O)N([H])C1([H])c3c([H])c([H])c([H])c([H])c3C([H])([H])C([H])([H])C1([H])[H])C2([H])[H])=C1C([H])([H])C([H])([H])N(c2c([H])c([H])c(C([H])=C([H])C(=O)N3C([H])([H])C([H])([H])C([H])([H])C([H])(n4nc(-c5c([H])c([H])c(Oc6c([H])c([H])c(F)c([H])c6F)c([H])c5[H])c(C(=O)N([H])[H])c4N([H])[H])C3([H])[H])c([H])c2[H])C1([H])C([H])([H])[H]

>  <smiles>  (88) 
[H]C(Oc1c([H])c([H])c2c(c1[H])C([H])([H])N(C(=O)C([H])(N([H])C(=O)C([H])(N([H])C([H])([H])[H])C([H])([H])[H])C(C([H])([H])[H])(C([H])([H])[H])C([H])([H])[H])C([H])(C(=O)N([H])C1([H])c3c([H])c([H])c([H])c([H])c3C([H])([H])C([H])([H])C1([H])[H])C2([H])[H])=C1C([H])([H])C([H])([H])N(c2c([H])c([H])c(C([H])=C([H])C(=O)N3C([H])([H])C([H])([H])C([H])([H])C([H])(n4nc(-c5c([H])c([H])c(Oc6c([H])c([H])c(F)c([H])c6F)c([H])c5[H])c(C(=O)N([H])[H])c4N([H])[H])C3([H])[H])c([H])c2[H])C1([H])C([H])([H])[H]

$$$$
88:0:0
     RDKit          3D

 89 97  0  0  1  0  0  0  0  0999 V2000
  -29.1560  -19.8970   20.0090 C   0  0  0  0  0  3  0  0  0  0  0  0
  -29.9360  -18.8670   20.7170 C   0  0  0  0  0  0  0  0  0  0  0  0
  -29.1960  -21.1980   20.5490 C   0  0  0  0  0  0  0  0  0  0  0  0
  -30.5940  -19.4400   21.7900 C   0  0  0  0  0  0  0  0  0  0  0  0
  -30.2520  -21.1680   21.9360 S   0  0  0  0  0  0  0  0  0  0  0  0
  -30.2670  -17.4300   20.2300 C   0  0  0  0  0  3  0  0  0  0  0  0
  -30.0260  -16.1510   20.7220 C   0  0  0  0  0  3  0  0  0  0  0  0
  -30.6830  -14.9120   20.1500 C   0  0  0  0  0  0  0  0  0  0  0  0
  -30.4070  -12.6540   19.1130 C   0  0  0  0  0  2  0  0  0  0  0  0
  -29.4480  -12.7770   17.9060 C   0  0  0  0  0  2  0  0  0  0  0  0
  -27.9860  -12.6060   18.3560 C   0  0  0  0  0  2  0  0  0  0  0  0
  -27.6540  -13.4580   19.6100 C   0  0  0  0  0  3  0  0  0  0  0  0
  -28.7390  -13.3270   20.7030 C   0  0  0  0  0  2  0  0  0  0  0  0
  -30.0260  -13.6940   20.1010 N   0  0  0  0  0  0  0  0  0  0  0  0
  -31.8130  -14.9810   19.6560 O   0  0  0  0  0  0  0  0  0  0  0  0
  -25.2770  -14.0340   20.3810 C   0  0  0  0  0  0  0  0  0  0  0  0
  -24.2250  -13.2580   20.7760 C   0  0  0  0  0  0  0  0  0  0  0  0
  -24.6910  -11.9080   20.7370 C   0  0  0  0  0  0  0  0  0  0  0  0
  -26.3200  -13.1610   20.1240 N   0  0  0  0  0  0  0  0  0  0  0  0
  -25.9760  -11.8740   20.3980 N   0  0  0  0  0  0  0  0  0  0  0  0
  -23.9740  -10.6430   20.9500 C   0  0  0  0  0  0  0  0  0  0  0  0
  -24.4250   -9.6800   21.8800 C   0  0  0  0  0  3  0  0  0  0  0  0
  -23.7040   -8.4840   22.0820 C   0  0  0  0  0  3  0  0  0  0  0  0
  -22.5160   -8.2400   21.3510 C   0  0  0  0  0  0  0  0  0  0  0  0
  -22.0850   -9.1900   20.4070 C   0  0  0  0  0  3  0  0  0  0  0  0
  -22.8080  -10.3780   20.2040 C   0  0  0  0  0  3  0  0  0  0  0  0
  -21.7640   -7.0960   21.4600 O   0  0  0  0  0  0  0  0  0  0  0  0
  -21.7310   -6.3640   22.6210 C   0  0  0  0  0  0  0  0  0  0  0  0
  -21.2970   -6.9270   23.8420 C   0  0  0  0  0  3  0  0  0  0  0  0
  -21.2100   -6.1210   24.9940 C   0  0  0  0  0  3  0  0  0  0  0  0
  -21.5500   -4.7560   24.9270 C   0  0  0  0  0  0  0  0  0  0  0  0
  -21.9830   -4.1950   23.7120 C   0  0  0  0  0  3  0  0  0  0  0  0
  -22.0680   -4.9970   22.5610 C   0  0  0  0  0  0  0  0  0  0  0  0
  -22.4620   -4.4480   21.3870 F   0  0  0  0  0  0  0  0  0  0  0  0
  -21.4620   -3.9790   26.0330 F   0  0  0  0  0  0  0  0  0  0  0  0
  -22.8330  -13.7290   21.0850 C   0  0  0  0  0  0  0  0  0  0  0  0
  -22.1380  -13.0280   21.9720 N   0  0  0  0  0  0  0  0  0  0  0  0
  -22.3730  -14.7470   20.5700 O   0  0  0  0  0  0  0  0  0  0  0  0
  -22.5310  -12.2020   22.3990 H   0  0  0  0  0  0  0  0  0  0  0  0
  -21.2030  -13.3130   22.2280 H   0  0  0  0  0  0  0  0  0  0  0  0
  -25.4360  -15.4060   20.1980 N   0  0  0  0  0  0  0  0  0  0  0  0
  -24.6790  -16.0660   20.3320 H   0  0  0  0  0  0  0  0  0  0  0  0
  -26.2810  -15.8360   19.8490 H   0  0  0  0  0  0  0  0  0  0  0  0
  -28.5460  -22.4800   20.1280 C   0  0  0  0  0  3  0  0  0  0  0  0
  -28.7700  -23.8400   20.3240 C   0  0  0  0  0  3  0  0  0  0  0  0
  -27.8320  -25.0210   19.8240 C   0  0  0  0  0  2  0  0  0  0  0  0
  -28.1280  -26.4730   20.0910 O   0  0  0  0  0  0  0  0  0  0  0  0
  -24.5220  -31.9610   23.1890 C   0  0  0  0  0  0  0  0  0  0  0  0
  -27.0460  -27.3890   20.0360 C   0  0  0  0  0  0  0  0  0  0  0  0
  -23.2800  -30.5800   21.5680 C   0  0  0  0  0  3  0  0  0  0  0  0
  -24.7000  -29.0570   20.0820 C   0  0  0  0  0  0  0  0  0  0  0  0
  -25.8240  -30.8890   21.3340 C   0  0  0  0  0  2  0  0  0  0  0  0
  -25.8870  -29.5170   20.6640 C   0  0  0  0  0  0  0  0  0  0  0  0
  -27.0620  -28.6970   20.6310 C   0  0  0  0  0  3  0  0  0  0  0  0
  -25.8310  -27.0070   19.4150 C   0  0  0  0  0  3  0  0  0  0  0  0
  -24.6770  -27.8090   19.4470 C   0  0  0  0  0  3  0  0  0  0  0  0
  -23.4660  -29.9380   20.1700 C   0  0  0  0  0  2  0  0  0  0  0  0
  -24.5620  -31.1590   22.0860 N   0  0  0  0  0  0  0  0  0  0  0  0
  -23.4500  -32.2310   23.7530 O   0  0  0  0  0  0  0  0  0  0  0  0
  -22.6410  -29.5460   22.5280 C   0  0  0  0  0  0  0  0  0  0  0  0
  -21.3160  -29.3510   22.4210 N   0  0  0  0  0  0  0  0  0  0  0  0
  -23.3400  -28.9270   23.3330 O   0  0  0  0  0  0  0  0  0  0  0  0
  -20.8070  -29.9040   21.7460 H   0  0  0  0  0  0  0  0  0  0  0  0
  -17.9690  -28.0890   22.9560 C   0  0  0  0  0  0  0  0  0  0  0  0
  -20.5230  -28.4050   23.2100 C   0  0  0  0  0  3  0  0  0  0  0  0
  -20.6530  -26.9690   22.6530 C   0  0  0  0  0  2  0  0  0  0  0  0
  -19.5560  -26.6160   21.6450 C   0  0  0  0  0  2  0  0  0  0  0  0
  -18.1710  -26.7390   22.2880 C   0  0  0  0  0  2  0  0  0  0  0  0
  -19.0730  -28.8780   23.3750 C   0  0  0  0  0  0  0  0  0  0  0  0
  -18.8290  -30.1390   23.9600 C   0  0  0  0  0  3  0  0  0  0  0  0
  -17.5150  -30.6120   24.1290 C   0  0  0  0  0  3  0  0  0  0  0  0
  -16.4260  -29.8220   23.7260 C   0  0  0  0  0  3  0  0  0  0  0  0
  -16.6540  -28.5620   23.1430 C   0  0  0  0  0  3  0  0  0  0  0  0
  -25.8160  -32.5940   23.7820 C   0  0  0  0  0  3  0  0  0  0  0  0
  -26.3600  -31.8240   25.0490 C   0  0  1  0  0  0  0  0  0  0  0  0
  -25.2850  -31.5830   26.1340 C   0  0  0  0  0  1  0  0  0  0  0  0
  -26.9350  -30.4430   24.6560 C   0  0  0  0  0  1  0  0  0  0  0  0
  -27.5280  -32.6150   25.6830 C   0  0  0  0  0  1  0  0  0  0  0  0
  -25.5110  -33.9930   24.1160 N   0  0  0  0  0  0  0  0  0  0  0  0
  -25.8340  -35.0470   23.3520 C   0  0  0  0  0  0  0  0  0  0  0  0
  -26.4880  -34.9430   22.3120 O   0  0  0  0  0  0  0  0  0  0  0  0
  -24.9200  -34.1480   24.9190 H   0  0  0  0  0  0  0  0  0  0  0  0
  -24.1160  -36.8540   23.0080 C   0  0  0  0  0  1  0  0  0  0  0  0
  -25.3560  -36.4380   23.8160 C   0  0  0  0  0  3  0  0  0  0  0  0
  -27.4940  -37.3100   24.6510 C   0  0  0  0  0  1  0  0  0  0  0  0
  -26.3950  -37.4860   23.7070 N   0  0  0  0  0  0  0  0  0  0  0  0
  -25.9940  -38.4080   23.8630 H   0  0  0  0  0  0  0  0  0  0  0  0
  -31.2360  -18.9050   24.2060 C   0  0  0  0  0  1  0  0  0  0  0  0
  -31.6110  -18.8340   22.7180 C   0  0  0  0  0  2  0  0  0  0  0  0
  1  3  2  0
  1  2  1  0
  2  4  2  0
  3  5  1  0
  4  5  1  0
  4 89  1  0
  6  2  1  0
  6  7  2  0
  8  7  1  0
  9 14  1  0
 10 11  1  0
 10  9  1  0
 12 11  1  0
 12 19  1  0
 12 13  1  0
 14  8  1  0
 14 13  1  0
 15  8  2  0
 16 17  2  0
 17 36  1  0
 18 17  1  0
 18 21  1  0
 19 16  1  0
 19 20  1  0
 20 18  2  0
 21 22  1  0
 22 23  2  0
 24 27  1  0
 24 23  1  0
 25 24  2  0
 26 25  1  0
 26 21  2  0
 27 28  1  0
 28 29  1  0
 29 30  2  0
 31 30  1  0
 31 35  1  0
 32 31  2  0
 33 28  2  0
 33 32  1  0
 34 33  1  0
 36 37  1  0
 37 40  1  0
 37 39  1  0
 38 36  2  0
 41 42  1  0
 41 16  1  0
 43 41  1  0
 44 45  2  0
 44  3  1  0
 46 47  1  0
 46 45  1  0
 48 59  2  0
 49 47  1  0
 49 54  1  0
 50 58  1  0
 50 60  1  0
 51 57  1  0
 51 53  1  0
 52 58  1  0
 53 52  1  0
 54 53  2  0
 55 56  1  0
 55 49  2  0
 56 51  2  0
 57 50  1  0
 58 48  1  0
 60 62  2  0
 61 60  1  0
 63 61  1  0
 64 73  2  0
 64 69  1  0
 65 61  1  0
 65 69  1  0
 66 65  1  0
 67 68  1  0
 67 66  1  0
 68 64  1  0
 69 70  2  0
 70 71  1  0
 72 71  2  0
 73 72  1  0
 74 48  1  0
 74 79  1  0
 74 75  1  0
 75 78  1  1
 75 76  1  0
 77 75  1  0
 79 82  1  0
 80 84  1  0
 80 79  1  0
 81 80  2  0
 84 83  1  0
 86 84  1  0
 86 87  1  0
 86 85  1  0
 89 88  1  0
M  ISO  4   7 100   8 100  46 101  47 101
M  END
>  <TORSDO>  (89) 
F 20

>  <SCORE>  (89) 
-12.880

>  <name>  (89) 
88

>  <ligand_id>  (89) 
88

>  <original_smiles>  (89) 
[H]C(C(=O)N1C([H])([H])C([H])([H])C([H])([H])C([H])(n2nc(-c3c([H])c([H])c(Oc4c([H])c([H])c(F)c([H])c4F)c([H])c3[H])c(C(=O)N([H])[H])c2N([H])[H])C1([H])[H])=C([H])c1c(C([H])([H])C([H])([H])[H])sc(C([H])=C([H])C([H])([H])Oc2c([H])c([H])c3c(c2[H])C([H])([H])N(C(=O)C([H])(N([H])C(=O)C([H])(N([H])C([H])([H])[H])C([H])([H])[H])C(C([H])([H])[H])(C([H])([H])[H])C([H])([H])[H])C([H])(C(=O)N([H])C2([H])c4c([H])c([H])c([H])c([H])c4C([H])([H])C([H])([H])C2([H])[H])C3([H])[H])c1[H]

>  <smiles>  (89) 
[H]C(C(=O)N1C([H])([H])C([H])([H])C([H])([H])C([H])(n2nc(-c3c([H])c([H])c(Oc4c([H])c([H])c(F)c([H])c4F)c([H])c3[H])c(C(=O)N([H])[H])c2N([H])[H])C1([H])[H])=C([H])c1c(C([H])([H])C([H])([H])[H])sc(C([H])=C([H])C([H])([H])Oc2c([H])c([H])c3c(c2[H])C([H])([H])N(C(=O)C([H])(N([H])C(=O)C([H])(N([H])C([H])([H])[H])C([H])([H])[H])C(C([H])([H])[H])(C([H])([H])[H])C([H])([H])[H])C([H])(C(=O)N([H])C2([H])c4c([H])c([H])c([H])c([H])c4C([H])([H])C([H])([H])C2([H])[H])C3([H])[H])c1[H]

$$$$
89:0:0
     RDKit          3D

100109  0  0  1  0  0  0  0  0999 V2000
  -28.8730  -24.7240   19.6480 C   0  0  0  0  0  0  0  0  0  0  0  0
  -29.2240  -23.6350   18.9330 C   0  0  0  0  0  0  0  0  0  0  0  0
  -27.6900  -22.2080   21.3390 C   0  0  0  0  0  0  0  0  0  0  0  0
  -28.5500  -24.6360   21.1460 C   0  0  0  0  0  2  0  0  0  0  0  0
  -27.3660  -23.7000   21.4890 C   0  0  0  0  0  2  0  0  0  0  0  0
  -28.0440  -21.6700   19.9520 C   0  0  0  0  0  2  0  0  0  0  0  0
  -29.4260  -23.5900   17.4240 C   0  0  0  0  0  1  0  0  0  0  0  0
  -29.3440  -22.2880   19.5980 N   0  0  1  0  0  4  0  0  0  0  0  0
  -27.7250  -21.4720   22.3270 O   0  0  0  0  0  0  0  0  0  0  0  0
  -29.6690  -22.5090   20.5290 H   0  0  0  0  0  0  0  0  0  0  0  0
  -30.4740  -21.3910   19.1910 C   0  0  0  0  0  2  0  0  0  0  0  0
  -30.5830  -19.3880   20.7440 C   0  0  0  0  0  3  0  0  0  0  0  0
  -30.0210  -17.5710   18.6930 C   0  0  0  0  0  3  0  0  0  0  0  0
  -30.3400  -19.8800   19.4410 C   0  0  0  0  0  0  0  0  0  0  0  0
  -30.5240  -18.0080   21.0410 C   0  0  0  0  0  0  0  0  0  0  0  0
  -30.0350  -18.9520   18.4080 C   0  0  0  0  0  0  0  0  0  0  0  0
  -30.2790  -17.0840   19.9950 C   0  0  0  0  0  0  0  0  0  0  0  0
  -29.6920  -19.3830   16.9930 C   0  0  0  0  0  1  0  0  0  0  0  0
  -30.8520  -14.6830   19.6980 C   0  0  0  0  0  0  0  0  0  0  0  0
  -30.5810  -12.3900   18.8430 C   0  0  0  0  0  2  0  0  0  0  0  0
  -29.5960  -12.4330   17.6570 C   0  0  0  0  0  2  0  0  0  0  0  0
  -28.1410  -12.3320   18.1570 C   0  0  0  0  0  2  0  0  0  0  0  0
  -27.8320  -13.3190   19.3140 C   0  0  0  0  0  3  0  0  0  0  0  0
  -28.9220  -13.2330   20.4050 C   0  0  0  0  0  2  0  0  0  0  0  0
  -30.2270  -13.4800   19.7640 N   0  0  0  0  0  0  0  0  0  0  0  0
  -31.9210  -14.8560   19.1010 O   0  0  0  0  0  0  0  0  0  0  0  0
  -30.1730  -15.6940   20.2690 N   0  0  0  0  0  0  0  0  0  0  0  0
  -29.4090  -15.4190   20.8690 H   0  0  0  0  0  0  0  0  0  0  0  0
  -25.5080  -14.0230   20.1690 C   0  0  0  0  0  0  0  0  0  0  0  0
  -24.4330  -13.2940   20.6030 C   0  0  0  0  0  0  0  0  0  0  0  0
  -24.8320  -11.9250   20.5310 C   0  0  0  0  0  0  0  0  0  0  0  0
  -26.4980  -13.1000   19.8670 N   0  0  0  0  0  0  0  0  0  0  0  0
  -26.0980  -11.8320   20.1400 N   0  0  0  0  0  0  0  0  0  0  0  0
  -24.0670  -10.6940   20.7600 C   0  0  0  0  0  0  0  0  0  0  0  0
  -24.4950   -9.7200   21.6890 C   0  0  0  0  0  3  0  0  0  0  0  0
  -23.7340   -8.5500   21.9050 C   0  0  0  0  0  3  0  0  0  0  0  0
  -22.5300   -8.3470   21.1920 C   0  0  0  0  0  0  0  0  0  0  0  0
  -22.1180   -9.3090   20.2500 C   0  0  0  0  0  3  0  0  0  0  0  0
  -22.8800  -10.4700   20.0340 C   0  0  0  0  0  3  0  0  0  0  0  0
  -21.7390   -7.2320   21.3150 O   0  0  0  0  0  0  0  0  0  0  0  0
  -21.6770   -6.5200   22.4860 C   0  0  0  0  0  0  0  0  0  0  0  0
  -21.3060   -7.1230   23.7070 C   0  0  0  0  0  3  0  0  0  0  0  0
  -21.1900   -6.3400   24.8750 C   0  0  0  0  0  3  0  0  0  0  0  0
  -21.4320   -4.9550   24.8190 C   0  0  0  0  0  0  0  0  0  0  0  0
  -21.7950   -4.3510   23.6030 C   0  0  0  0  0  3  0  0  0  0  0  0
  -21.9150   -5.1300   22.4400 C   0  0  0  0  0  0  0  0  0  0  0  0
  -22.2460   -4.5400   21.2660 F   0  0  0  0  0  0  0  0  0  0  0  0
  -21.3100   -4.2020   25.9360 F   0  0  0  0  0  0  0  0  0  0  0  0
  -23.0780  -13.8300   20.9680 C   0  0  0  0  0  0  0  0  0  0  0  0
  -22.3930  -13.1790   21.9040 N   0  0  0  0  0  0  0  0  0  0  0  0
  -22.6390  -14.8580   20.4610 O   0  0  0  0  0  0  0  0  0  0  0  0
  -22.7640  -12.3470   22.3400 H   0  0  0  0  0  0  0  0  0  0  0  0
  -21.4870  -13.5200   22.1890 H   0  0  0  0  0  0  0  0  0  0  0  0
  -25.7200  -15.3860   19.9950 N   0  0  0  0  0  0  0  0  0  0  0  0
  -24.9820  -16.0670   20.1390 H   0  0  0  0  0  0  0  0  0  0  0  0
  -26.5720  -15.7980   19.6270 H   0  0  0  0  0  0  0  0  0  0  0  0
  -31.8110  -16.5680   22.7620 C   0  0  0  0  0  1  0  0  0  0  0  0
  -30.6850  -17.5810   22.5000 C   0  0  0  0  0  2  0  0  0  0  0  0
  -28.8050  -26.1060   18.9870 C   0  0  0  0  0  2  0  0  0  0  0  0
  -28.5600  -27.1740   19.8980 O   0  0  0  0  0  0  0  0  0  0  0  0
  -24.6300  -31.8440   23.4820 C   0  0  0  0  0  0  0  0  0  0  0  0
  -27.3290  -27.7970   19.9500 C   0  0  0  0  0  0  0  0  0  0  0  0
  -23.4260  -30.5850   21.7220 C   0  0  0  0  0  3  0  0  0  0  0  0
  -24.8880  -29.2150   20.1460 C   0  0  0  0  0  0  0  0  0  0  0  0
  -25.9360  -31.0160   21.5300 C   0  0  0  0  0  2  0  0  0  0  0  0
  -26.0400  -29.7130   20.7650 C   0  0  0  0  0  0  0  0  0  0  0  0
  -27.2570  -29.0120   20.6640 C   0  0  0  0  0  3  0  0  0  0  0  0
  -26.1480  -27.2920   19.3490 C   0  0  0  0  0  3  0  0  0  0  0  0
  -24.9370  -28.0030   19.4380 C   0  0  0  0  0  3  0  0  0  0  0  0
  -23.6280  -30.0420   20.2820 C   0  0  0  0  0  2  0  0  0  0  0  0
  -24.6840  -31.1570   22.3060 N   0  0  0  0  0  0  0  0  0  0  0  0
  -23.5520  -32.0440   24.0560 O   0  0  0  0  0  0  0  0  0  0  0  0
  -22.8050  -29.4670   22.5840 C   0  0  0  0  0  0  0  0  0  0  0  0
  -21.4980  -29.2280   22.3930 N   0  0  0  0  0  0  0  0  0  0  0  0
  -23.4950  -28.8180   23.3730 O   0  0  0  0  0  0  0  0  0  0  0  0
  -21.0060  -29.8060   21.7240 H   0  0  0  0  0  0  0  0  0  0  0  0
  -18.1950  -27.7900   22.6240 C   0  0  0  0  0  0  0  0  0  0  0  0
  -20.7080  -28.1980   23.0610 C   0  0  0  0  0  3  0  0  0  0  0  0
  -20.9410  -26.8120   22.4170 C   0  0  0  0  0  2  0  0  0  0  0  0
  -19.9220  -26.4760   21.3230 C   0  0  0  0  0  2  0  0  0  0  0  0
  -18.5010  -26.4940   21.8910 C   0  0  0  0  0  2  0  0  0  0  0  0
  -19.2320  -28.5970   23.1600 C   0  0  0  0  0  0  0  0  0  0  0  0
  -18.8970  -29.8090   23.8020 C   0  0  0  0  0  3  0  0  0  0  0  0
  -17.5550  -30.2160   23.9160 C   0  0  0  0  0  3  0  0  0  0  0  0
  -16.5300  -29.4060   23.3980 C   0  0  0  0  0  3  0  0  0  0  0  0
  -16.8500  -28.1960   22.7580 C   0  0  0  0  0  3  0  0  0  0  0  0
  -25.9140  -32.4330   24.1460 C   0  0  0  0  0  3  0  0  0  0  0  0
  -26.4030  -31.6000   25.3920 C   0  0  1  0  0  0  0  0  0  0  0  0
  -25.2920  -31.3170   26.4300 C   0  0  0  0  0  1  0  0  0  0  0  0
  -26.9870  -30.2410   24.9430 C   0  0  0  0  0  1  0  0  0  0  0  0
  -27.5450  -32.3560   26.1150 C   0  0  0  0  0  1  0  0  0  0  0  0
  -25.6150  -33.8180   24.5330 N   0  0  0  0  0  0  0  0  0  0  0  0
  -25.9550  -34.9000   23.8180 C   0  0  0  0  0  0  0  0  0  0  0  0
  -26.6280  -34.8350   22.7860 O   0  0  0  0  0  0  0  0  0  0  0  0
  -25.0170  -33.9400   25.3360 H   0  0  0  0  0  0  0  0  0  0  0  0
  -24.2380  -36.7150   23.5270 C   0  0  0  0  0  1  0  0  0  0  0  0
  -25.4720  -36.2710   24.3290 C   0  0  0  0  0  3  0  0  0  0  0  0
  -27.6020  -37.1090   25.2170 C   0  0  0  0  0  1  0  0  0  0  0  0
  -26.5120  -37.3220   24.2690 N   0  0  0  0  0  0  0  0  0  0  0  0
  -26.1090  -38.2370   24.4500 H   0  0  0  0  0  0  0  0  0  0  0  0
  1  4  1  0
  2  8  1  0
  2  1  2  0
  3  5  1  0
  3  9  2  0
  4  5  1  0
  6  3  1  0
  7  2  1  0
  8  6  1  0
  8 10  1  1
 11 14  1  0
 11  8  1  0
 12 15  1  0
 13 17  1  0
 14 12  2  0
 15 58  1  0
 16 13  2  0
 16 14  1  0
 17 27  1  0
 17 15  2  0
 18 16  1  0
 19 25  1  0
 19 27  1  0
 20 25  1  0
 21 22  1  0
 21 20  1  0
 23 22  1  0
 23 32  1  0
 23 24  1  0
 25 24  1  0
 26 19  2  0
 27 28  1  0
 29 30  2  0
 30 49  1  0
 31 30  1  0
 31 34  1  0
 32 33  1  0
 32 29  1  0
 33 31  2  0
 34 35  1  0
 35 36  2  0
 37 40  1  0
 37 36  1  0
 38 37  2  0
 39 38  1  0
 39 34  2  0
 40 41  1  0
 41 42  1  0
 42 43  2  0
 44 43  1  0
 44 48  1  0
 45 44  2  0
 46 41  2  0
 46 45  1  0
 47 46  1  0
 49 50  1  0
 50 53  1  0
 50 52  1  0
 51 49  2  0
 54 55  1  0
 54 29  1  0
 56 54  1  0
 58 57  1  0
 59  1  1  0
 59 60  1  0
 60 62  1  0
 61 72  2  0
 62 67  1  0
 63 71  1  0
 63 73  1  0
 64 70  1  0
 64 66  1  0
 65 71  1  0
 66 65  1  0
 67 66  2  0
 68 69  1  0
 68 62  2  0
 69 64  2  0
 70 63  1  0
 71 61  1  0
 73 75  2  0
 74 73  1  0
 76 74  1  0
 77 86  2  0
 77 82  1  0
 78 74  1  0
 78 82  1  0
 79 78  1  0
 80 81  1  0
 80 79  1  0
 81 77  1  0
 82 83  2  0
 83 84  1  0
 85 84  2  0
 86 85  1  0
 87 61  1  0
 87 92  1  0
 87 88  1  0
 88 91  1  1
 88 89  1  0
 90 88  1  0
 92 95  1  0
 93 97  1  0
 93 92  1  0
 94 93  2  0
 97 96  1  0
 99 97  1  0
 99100  1  0
 99 98  1  0
M  ISO  4  19 100  27 100  59 101  60 101
M  END
>  <TORSDO>  (90) 
F 20

>  <SCORE>  (90) 
-11.167

>  <name>  (90) 
89

>  <ligand_id>  (90) 
89

>  <original_smiles>  (90) 
[H]c1c([H])c([H])c2c(c1[H])C([H])([H])C([H])([H])C([H])([H])C2([H])N([H])C(=O)C1([H])N(C(=O)C([H])(N([H])C(=O)C([H])(N([H])C([H])([H])[H])C([H])([H])[H])C(C([H])([H])[H])(C([H])([H])[H])C([H])([H])[H])C([H])([H])c2c([H])c(OC([H])([H])C3=C(C([H])([H])[H])[N+]([H])(C([H])([H])c4c([H])c(C([H])([H])C([H])([H])[H])c(N([H])C(=O)N5C([H])([H])C([H])([H])C([H])([H])C([H])(n6nc(-c7c([H])c([H])c(Oc8c([H])c([H])c(F)c([H])c8F)c([H])c7[H])c(C(=O)N([H])[H])c6N([H])[H])C5([H])[H])c([H])c4C([H])([H])[H])C([H])([H])C(=O)C([H])([H])C3([H])[H])c([H])c([H])c2C1([H])[H]

>  <smiles>  (90) 
[H]c1c([H])c([H])c2c(c1[H])C([H])([H])C([H])([H])C([H])([H])C2([H])N([H])C(=O)C1([H])N(C(=O)C([H])(N([H])C(=O)C([H])(N([H])C([H])([H])[H])C([H])([H])[H])C(C([H])([H])[H])(C([H])([H])[H])C([H])([H])[H])C([H])([H])c2c([H])c(OC([H])([H])C3=C(C([H])([H])[H])[N+]([H])(C([H])([H])c4c([H])c(C([H])([H])C([H])([H])[H])c(N([H])C(=O)N5C([H])([H])C([H])([H])C([H])([H])C([H])(n6nc(-c7c([H])c([H])c(Oc8c([H])c([H])c(F)c([H])c8F)c([H])c7[H])c(C(=O)N([H])[H])c6N([H])[H])C5([H])[H])c([H])c4C([H])([H])[H])C([H])([H])C(=O)C([H])([H])C3([H])[H])c([H])c([H])c2C1([H])[H]

$$$$
90:0:0
     RDKit          3D

 93101  0  0  1  0  0  0  0  0999 V2000
  -29.4280  -18.2680   20.3940 C   0  0  0  0  0  3  0  0  0  0  0  0
  -31.5230  -17.4510   21.3020 C   0  0  0  0  0  3  0  0  0  0  0  0
  -31.1430  -19.8790   21.0970 C   0  0  0  0  0  0  0  0  0  0  0  0
  -30.2580  -17.1610   20.7540 C   0  0  0  0  0  0  0  0  0  0  0  0
  -29.8530  -19.6290   20.5440 C   0  0  0  0  0  0  0  0  0  0  0  0
  -31.9600  -18.7790   21.4670 C   0  0  0  0  0  0  0  0  0  0  0  0
  -33.1890  -18.9790   22.0020 F   0  0  0  0  0  0  0  0  0  0  0  0
  -30.5820  -14.6970   20.2630 C   0  0  0  0  0  0  0  0  0  0  0  0
  -30.3260  -12.4670   19.2150 C   0  0  0  0  0  2  0  0  0  0  0  0
  -29.3610  -12.5780   18.0160 C   0  0  0  0  0  2  0  0  0  0  0  0
  -27.8990  -12.4170   18.4750 C   0  0  0  0  0  2  0  0  0  0  0  0
  -27.5570  -13.3060   19.7010 C   0  0  0  0  0  3  0  0  0  0  0  0
  -28.6330  -13.1790   20.8030 C   0  0  0  0  0  2  0  0  0  0  0  0
  -29.9330  -13.4970   20.1920 N   0  0  0  0  0  0  0  0  0  0  0  0
  -31.7350  -14.8320   19.8430 O   0  0  0  0  0  0  0  0  0  0  0  0
  -29.8290  -15.7800   20.6130 N   0  0  0  0  0  0  0  0  0  0  0  0
  -28.8500  -15.5940   20.7640 H   0  0  0  0  0  0  0  0  0  0  0  0
  -25.1820  -13.9060   20.4800 C   0  0  0  0  0  0  0  0  0  0  0  0
  -24.1230  -13.1320   20.8680 C   0  0  0  0  0  0  0  0  0  0  0  0
  -24.5820  -11.7790   20.8140 C   0  0  0  0  0  0  0  0  0  0  0  0
  -26.2190  -13.0260   20.2140 N   0  0  0  0  0  0  0  0  0  0  0  0
  -25.8640  -11.7420   20.4740 N   0  0  0  0  0  0  0  0  0  0  0  0
  -23.8600  -10.5170   21.0080 C   0  0  0  0  0  0  0  0  0  0  0  0
  -24.3030   -9.5460   21.9330 C   0  0  0  0  0  3  0  0  0  0  0  0
  -23.5810   -8.3470   22.1150 C   0  0  0  0  0  3  0  0  0  0  0  0
  -22.4010   -8.1110   21.3720 C   0  0  0  0  0  0  0  0  0  0  0  0
  -21.9770   -9.0690   20.4340 C   0  0  0  0  0  3  0  0  0  0  0  0
  -22.6990  -10.2590   20.2500 C   0  0  0  0  0  3  0  0  0  0  0  0
  -21.6490   -6.9640   21.4650 O   0  0  0  0  0  0  0  0  0  0  0  0
  -21.5960   -6.2290   22.6220 C   0  0  0  0  0  0  0  0  0  0  0  0
  -21.1120   -6.7750   23.8310 C   0  0  0  0  0  3  0  0  0  0  0  0
  -21.0130   -5.9630   24.9790 C   0  0  0  0  0  3  0  0  0  0  0  0
  -21.3860   -4.6060   24.9170 C   0  0  0  0  0  0  0  0  0  0  0  0
  -21.8610   -4.0610   23.7110 C   0  0  0  0  0  3  0  0  0  0  0  0
  -21.9640   -4.8700   22.5670 C   0  0  0  0  0  0  0  0  0  0  0  0
  -22.4040   -4.3340   21.4030 F   0  0  0  0  0  0  0  0  0  0  0  0
  -21.2840   -3.8230   26.0160 F   0  0  0  0  0  0  0  0  0  0  0  0
  -22.7330  -13.6090   21.1770 C   0  0  0  0  0  0  0  0  0  0  0  0
  -22.0210  -12.9000   22.0460 N   0  0  0  0  0  0  0  0  0  0  0  0
  -22.2870  -14.6440   20.6830 O   0  0  0  0  0  0  0  0  0  0  0  0
  -22.3960  -12.0640   22.4690 H   0  0  0  0  0  0  0  0  0  0  0  0
  -21.0890  -13.1990   22.2940 H   0  0  0  0  0  0  0  0  0  0  0  0
  -25.3450  -15.2770   20.3100 N   0  0  0  0  0  0  0  0  0  0  0  0
  -24.5760  -15.9280   20.4360 H   0  0  0  0  0  0  0  0  0  0  0  0
  -26.1760  -15.7190   19.9390 H   0  0  0  0  0  0  0  0  0  0  0  0
  -32.9350  -21.6550   20.9700 C   0  0  0  0  0  2  0  0  0  0  0  0
  -31.6740  -21.2560   21.2100 C   0  0  0  0  0  3  0  0  0  0  0  0
  -29.0790  -20.6570   19.9960 O   0  0  0  0  0  0  0  0  0  0  0  0
  -28.4730  -21.6750   20.8310 C   0  0  0  0  0  2  0  0  0  0  0  0
  -28.7100  -23.1550   20.3410 C   0  0  0  0  0  2  0  0  0  0  0  0
  -27.7870  -24.2440   20.9930 C   0  0  0  0  0  2  0  0  0  0  0  0
  -28.3540  -25.6900   21.2400 C   0  0  0  0  0  2  0  0  0  0  0  0
  -28.2200  -26.6990   20.2100 O   0  0  0  0  0  0  0  0  0  0  0  0
  -24.5120  -31.9880   23.3560 C   0  0  0  0  0  0  0  0  0  0  0  0
  -27.0840  -27.4870   20.2650 C   0  0  0  0  0  0  0  0  0  0  0  0
  -23.2810  -30.5940   21.7270 C   0  0  0  0  0  3  0  0  0  0  0  0
  -24.7120  -29.0420   20.2880 C   0  0  0  0  0  0  0  0  0  0  0  0
  -25.8110  -30.9220   21.5100 C   0  0  0  0  0  2  0  0  0  0  0  0
  -25.8810  -29.5460   20.8710 C   0  0  0  0  0  0  0  0  0  0  0  0
  -27.0710  -28.7760   20.8610 C   0  0  0  0  0  3  0  0  0  0  0  0
  -25.9010  -27.0080   19.6690 C   0  0  0  0  0  3  0  0  0  0  0  0
  -24.7180  -27.7720   19.6840 C   0  0  0  0  0  3  0  0  0  0  0  0
  -23.4750  -29.9130   20.3450 C   0  0  0  0  0  2  0  0  0  0  0  0
  -24.5540  -31.1840   22.2550 N   0  0  0  0  0  0  0  0  0  0  0  0
  -23.4370  -32.2690   23.9070 O   0  0  0  0  0  0  0  0  0  0  0  0
  -22.6310  -29.5770   22.6930 C   0  0  0  0  0  0  0  0  0  0  0  0
  -21.3090  -29.3790   22.5570 N   0  0  0  0  0  0  0  0  0  0  0  0
  -23.3130  -28.9700   23.5230 O   0  0  0  0  0  0  0  0  0  0  0  0
  -20.8220  -29.9200   21.8550 H   0  0  0  0  0  0  0  0  0  0  0  0
  -17.9470  -28.1340   23.0170 C   0  0  0  0  0  0  0  0  0  0  0  0
  -20.4950  -28.4410   23.3290 C   0  0  0  0  0  3  0  0  0  0  0  0
  -20.6320  -27.0020   22.7820 C   0  0  0  0  0  2  0  0  0  0  0  0
  -19.5540  -26.6420   21.7540 C   0  0  0  0  0  2  0  0  0  0  0  0
  -18.1580  -26.7760   22.3690 C   0  0  0  0  0  2  0  0  0  0  0  0
  -19.0450  -28.9220   23.4530 C   0  0  0  0  0  0  0  0  0  0  0  0
  -18.7940  -30.1920   24.0170 C   0  0  0  0  0  3  0  0  0  0  0  0
  -17.4790  -30.6750   24.1490 C   0  0  0  0  0  3  0  0  0  0  0  0
  -16.3950  -29.8820   23.7320 C   0  0  0  0  0  3  0  0  0  0  0  0
  -16.6300  -28.6140   23.1720 C   0  0  0  0  0  3  0  0  0  0  0  0
  -25.8090  -32.6100   23.9630 C   0  0  0  0  0  3  0  0  0  0  0  0
  -25.5250  -34.0200   24.2610 N   0  0  0  0  0  0  0  0  0  0  0  0
  -25.8820  -35.0490   23.4810 C   0  0  0  0  0  0  0  0  0  0  0  0
  -26.5540  -34.9100   22.4550 O   0  0  0  0  0  0  0  0  0  0  0  0
  -24.9310  -34.2040   25.0550 H   0  0  0  0  0  0  0  0  0  0  0  0
  -24.1980  -36.8710   23.0610 C   0  0  0  0  0  1  0  0  0  0  0  0
  -25.4140  -36.4550   23.9040 C   0  0  0  0  0  3  0  0  0  0  0  0
  -27.5470  -37.3100   24.7640 C   0  0  0  0  0  1  0  0  0  0  0  0
  -26.4690  -37.4860   23.7970 N   0  0  0  0  0  0  0  0  0  0  0  0
  -26.0780  -38.4160   23.9250 H   0  0  0  0  0  0  0  0  0  0  0  0
  -26.3120  -31.8580   25.2570 C   0  0  1  0  0  0  0  0  0  0  0  0
  -25.2120  -31.6560   26.3250 C   0  0  0  0  0  1  0  0  0  0  0  0
  -26.8790  -30.4660   24.8930 C   0  0  0  0  0  1  0  0  0  0  0  0
  -27.4710  -32.6510   25.9040 C   0  0  0  0  0  1  0  0  0  0  0  0
  1  5  2  0
  1  4  1  0
  2  6  1  0
  3 47  1  0
  3  6  2  0
  4  2  2  0
  5  3  1  0
  6  7  1  0
  8 16  1  0
  9 14  1  0
 10 11  1  0
 10  9  1  0
 12 11  1  0
 12 21  1  0
 12 13  1  0
 14  8  1  0
 14 13  1  0
 15  8  2  0
 16  4  1  0
 16 17  1  0
 18 19  2  0
 19 38  1  0
 20 19  1  0
 20 23  1  0
 21 22  1  0
 21 18  1  0
 22 20  2  0
 23 24  1  0
 24 25  2  0
 26 29  1  0
 26 25  1  0
 27 26  2  0
 28 27  1  0
 28 23  2  0
 29 30  1  0
 30 31  1  0
 31 32  2  0
 33 32  1  0
 33 37  1  0
 34 33  2  0
 35 30  2  0
 35 34  1  0
 36 35  1  0
 38 39  1  0
 39 42  1  0
 39 41  1  0
 40 38  2  0
 43 44  1  0
 43 18  1  0
 45 43  1  0
 46 47  2  0
 48  5  1  0
 48 49  1  0
 50 49  1  0
 50 51  1  0
 51 52  1  0
 53 55  1  0
 53 52  1  0
 54 65  2  0
 55 60  1  0
 56 64  1  0
 56 66  1  0
 57 63  1  0
 57 59  1  0
 58 64  1  0
 59 58  1  0
 60 59  2  0
 61 62  1  0
 61 55  2  0
 62 57  2  0
 63 56  1  0
 64 54  1  0
 66 68  2  0
 67 66  1  0
 69 67  1  0
 70 79  2  0
 70 75  1  0
 71 67  1  0
 71 75  1  0
 72 71  1  0
 73 74  1  0
 73 72  1  0
 74 70  1  0
 75 76  2  0
 76 77  1  0
 78 77  2  0
 79 78  1  0
 80 54  1  0
 80 81  1  0
 80 90  1  0
 81 84  1  0
 82 86  1  0
 82 81  1  0
 83 82  2  0
 86 85  1  0
 88 86  1  0
 88 89  1  0
 88 87  1  0
 90 93  1  1
 90 91  1  0
 92 90  1  0
M  ISO  4   8 100  16 100  52 101  53 101
M  END
>  <TORSDO>  (91) 
F 22

>  <SCORE>  (91) 
-13.239

>  <name>  (91) 
90

>  <ligand_id>  (91) 
90

>  <original_smiles>  (91) 
[H]C([H])=C([H])c1c(F)c([H])c(N([H])C(=O)N2C([H])([H])C([H])([H])C([H])([H])C([H])(n3nc(-c4c([H])c([H])c(Oc5c([H])c([H])c(F)c([H])c5F)c([H])c4[H])c(C(=O)N([H])[H])c3N([H])[H])C2([H])[H])c([H])c1OC([H])([H])C([H])([H])C([H])([H])C([H])([H])Oc1c([H])c([H])c2c(c1[H])C([H])([H])N(C(=O)C([H])(N([H])C(=O)C([H])(N([H])C([H])([H])[H])C([H])([H])[H])C(C([H])([H])[H])(C([H])([H])[H])C([H])([H])[H])C([H])(C(=O)N([H])C1([H])c3c([H])c([H])c([H])c([H])c3C([H])([H])C([H])([H])C1([H])[H])C2([H])[H]

>  <smiles>  (91) 
[H]C([H])=C([H])c1c(F)c([H])c(N([H])C(=O)N2C([H])([H])C([H])([H])C([H])([H])C([H])(n3nc(-c4c([H])c([H])c(Oc5c([H])c([H])c(F)c([H])c5F)c([H])c4[H])c(C(=O)N([H])[H])c3N([H])[H])C2([H])[H])c([H])c1OC([H])([H])C([H])([H])C([H])([H])C([H])([H])Oc1c([H])c([H])c2c(c1[H])C([H])([H])N(C(=O)C([H])(N([H])C(=O)C([H])(N([H])C([H])([H])[H])C([H])([H])[H])C(C([H])([H])[H])(C([H])([H])[H])C([H])([H])[H])C([H])(C(=O)N([H])C1([H])c3c([H])c([H])c([H])c([H])c3C([H])([H])C([H])([H])C1([H])[H])C2([H])[H]

$$$$
91:0:0
     RDKit          3D

 93 95  0  0  1  0  0  0  0  0999 V2000
  -26.1180  -22.3050   19.6300 C   0  0  0  0  0  2  0  0  0  0  0  0
  -24.5140  -21.4380   17.8030 C   0  0  0  0  0  3  0  0  0  0  0  0
  -26.5230  -20.6640   19.2130 C   0  0  0  0  0  2  0  0  0  0  0  0
  -24.9530  -23.5240   19.1980 C   0  0  0  0  0  2  0  0  0  0  0  0
  -25.3510  -20.4360   18.4070 C   0  0  0  0  0  3  0  0  0  0  0  0
  -24.3800  -22.8350   18.0920 C   0  0  0  0  0  0  0  0  0  0  0  0
  -24.8100  -19.0140   18.2580 C   0  0  0  0  0  1  0  0  0  0  0  0
  -23.5930  -23.5750   17.1950 N   0  0  0  0  0  0  0  0  0  0  0  0
  -23.1050  -23.1820   16.3940 H   0  0  0  0  0  0  0  0  0  0  0  0
  -23.3420  -24.5300   17.4360 H   0  0  0  0  0  0  0  0  0  0  0  0
  -27.6250  -18.9350   19.2150 C   0  0  0  0  0  1  0  0  0  0  0  0
  -28.8450  -17.8660   19.5270 C   0  0  0  0  0  2  0  0  0  0  0  0
  -29.7970  -16.2260   19.4510 C   0  0  0  0  0  0  0  0  0  0  0  0
  -30.4400  -13.5580   18.8830 C   0  0  0  0  0  2  0  0  0  0  0  0
  -29.6350  -12.8060   17.7720 C   0  0  0  0  0  2  0  0  0  0  0  0
  -28.2810  -12.3380   18.3170 C   0  0  0  0  0  2  0  0  0  0  0  0
  -27.7130  -13.4030   19.2800 C   0  0  0  0  0  3  0  0  0  0  0  0
  -28.6790  -13.9420   20.3250 C   0  0  0  0  0  2  0  0  0  0  0  0
  -29.6130  -14.7270   19.5440 N   0  0  0  0  0  0  0  0  0  0  0  0
  -31.0430  -16.1760   19.2190 O   0  0  0  0  0  0  0  0  0  0  0  0
  -25.5310  -13.9890   20.3370 C   0  0  0  0  0  0  0  0  0  0  0  0
  -24.4890  -13.2360   20.7830 C   0  0  0  0  0  0  0  0  0  0  0  0
  -24.8960  -11.8720   20.6330 C   0  0  0  0  0  0  0  0  0  0  0  0
  -26.4740  -13.0790   19.9110 N   0  0  0  0  0  0  0  0  0  0  0  0
  -26.1360  -11.7960   20.1650 N   0  0  0  0  0  0  0  0  0  0  0  0
  -24.1430  -10.6340   20.8320 C   0  0  0  0  0  0  0  0  0  0  0  0
  -24.5880   -9.6300   21.7190 C   0  0  0  0  0  3  0  0  0  0  0  0
  -23.8210   -8.4620   21.9090 C   0  0  0  0  0  3  0  0  0  0  0  0
  -22.6020   -8.2940   21.2100 C   0  0  0  0  0  0  0  0  0  0  0  0
  -22.1820   -9.2860   20.3090 C   0  0  0  0  0  3  0  0  0  0  0  0
  -22.9470  -10.4450   20.1160 C   0  0  0  0  0  3  0  0  0  0  0  0
  -21.8050   -7.1800   21.3100 O   0  0  0  0  0  0  0  0  0  0  0  0
  -21.7290   -6.4530   22.4690 C   0  0  0  0  0  0  0  0  0  0  0  0
  -21.3230   -7.0340   23.6900 C   0  0  0  0  0  3  0  0  0  0  0  0
  -21.1930   -6.2320   24.8420 C   0  0  0  0  0  3  0  0  0  0  0  0
  -21.4600   -4.8520   24.7740 C   0  0  0  0  0  0  0  0  0  0  0  0
  -21.8620   -4.2710   23.5580 C   0  0  0  0  0  3  0  0  0  0  0  0
  -21.9920   -5.0690   22.4080 C   0  0  0  0  0  0  0  0  0  0  0  0
  -22.3590   -4.5010   21.2340 F   0  0  0  0  0  0  0  0  0  0  0  0
  -21.3280   -4.0810   25.8780 F   0  0  0  0  0  0  0  0  0  0  0  0
  -23.1560  -13.7620   21.2110 C   0  0  0  0  0  0  0  0  0  0  0  0
  -22.4980  -13.0640   22.1250 N   0  0  0  0  0  0  0  0  0  0  0  0
  -22.7220  -14.8260   20.7730 O   0  0  0  0  0  0  0  0  0  0  0  0
  -22.8760  -12.2060   22.4980 H   0  0  0  0  0  0  0  0  0  0  0  0
  -21.6030  -13.3920   22.4580 H   0  0  0  0  0  0  0  0  0  0  0  0
  -25.7360  -15.3620   20.2300 N   0  0  0  0  0  0  0  0  0  0  0  0
  -24.9990  -16.0080   20.4860 H   0  0  0  0  0  0  0  0  0  0  0  0
  -26.5510  -15.8110   19.8390 H   0  0  0  0  0  0  0  0  0  0  0  0
  -24.1970  -25.3930   19.1800 C   0  0  0  0  0  1  0  0  0  0  0  0
  -23.4780  -26.8850   19.3580 C   0  0  0  0  0  1  0  0  0  0  0  0
  -22.4720  -28.5200   20.2750 C   0  0  0  0  0 15  0  0  0  0  0  0
  -23.0240  -29.4180   22.5270 C   0  0  0  0  0 15  0  0  0  0  0  0
  -25.2970  -28.8390   22.8370 O   0  0  0  0  0  1  0  0  0  0  0  0
  -24.5920  -31.5380   22.8920 C   0  0  0  0  0  0  0  0  0  0  0  0
  -26.4720  -28.0910   22.0060 C   0  0  0  0  0  3  0  0  0  0  0  0
  -24.3880  -29.1600   20.8740 C   0  0  0  0  0  2  0  0  0  0  0  0
  -25.9880  -28.9070   19.6420 C   0  0  0  0  0  3  0  0  0  0  0  0
  -26.1960  -31.0310   21.1010 C   0  0  0  0  0  2  0  0  0  0  0  0
  -26.7630  -29.7190   20.5670 C   0  0  0  0  0  3  0  0  0  0  0  0
  -27.4340  -28.9800   21.5340 C   0  0  0  0  0  2  0  0  0  0  0  0
  -26.3930  -27.0700   20.9360 C   0  0  0  0  0  2  0  0  0  0  0  0
  -26.0820  -27.5180   19.6520 C   0  0  0  0  0  2  0  0  0  0  0  0
  -24.6330  -29.2930   19.4150 C   0  0  0  0  0  2  0  0  0  0  0  0
  -24.8650  -30.7590   21.6300 N   0  0  0  0  0  0  0  0  0  0  0  0
  -23.4530  -31.8160   23.3430 O   0  0  0  0  0  0  0  0  0  0  0  0
  -23.7810  -27.2140   22.2420 C   0  0  0  0  0  2  0  0  0  0  0  0
  -22.4160  -27.1460   22.9550 N   0  0  0  0  0  0  0  0  0  0  0  0
  -24.3050  -26.8350   23.2870 O   0  0  0  0  0  1  0  0  0  0  0  0
  -22.6460  -26.5720   23.7570 H   0  0  0  0  0  0  0  0  0  0  0  0
  -18.2730  -28.0690   22.5050 C   0  0  0  0  0  0  0  0  0  0  0  0
  -20.8170  -27.3860   22.9910 C   0  0  0  0  0  3  0  0  0  0  0  0
  -20.4360  -26.2090   22.1110 C   0  0  0  0  0  2  0  0  0  0  0  0
  -19.4450  -26.4660   21.0000 C   0  0  0  0  0  2  0  0  0  0  0  0
  -18.1470  -26.8130   21.6850 C   0  0  0  0  0  2  0  0  0  0  0  0
  -19.5530  -28.4930   23.0510 C   0  0  0  0  0  0  0  0  0  0  0  0
  -19.4280  -29.7170   23.7950 C   0  0  0  0  0  3  0  0  0  0  0  0
  -18.1600  -30.3820   24.0100 C   0  0  0  0  0  3  0  0  0  0  0  0
  -16.9540  -29.8730   23.4870 C   0  0  0  0  0  3  0  0  0  0  0  0
  -17.0230  -28.7180   22.7110 C   0  0  0  0  0  3  0  0  0  0  0  0
  -25.6230  -32.2150   23.9460 C   0  0  0  0  0  3  0  0  0  0  0  0
  -25.2190  -33.6290   24.1880 N   0  0  0  0  0  0  0  0  0  0  0  0
  -25.6860  -34.7010   23.5320 C   0  0  0  0  0  0  0  0  0  0  0  0
  -26.5370  -34.6010   22.6460 O   0  0  0  0  0  0  0  0  0  0  0  0
  -24.5240  -33.7640   24.9050 H   0  0  0  0  0  0  0  0  0  0  0  0
  -24.0080  -36.4760   22.9110 C   0  0  0  0  0  1  0  0  0  0  0  0
  -25.1300  -36.1030   23.8960 C   0  0  0  0  0  3  0  0  0  0  0  0
  -27.1360  -37.0650   24.9610 C   0  0  0  0  0  1  0  0  0  0  0  0
  -26.1600  -37.1730   23.8790 N   0  0  0  0  0  0  0  0  0  0  0  0
  -25.7250  -38.0910   23.9420 H   0  0  0  0  0  0  0  0  0  0  0  0
  -25.7340  -31.5610   25.4150 C   0  0  1  0  0  0  0  0  0  0  0  0
  -24.3890  -31.3960   26.1740 C   0  0  0  0  0  1  0  0  0  0  0  0
  -26.4200  -30.1810   25.3950 C   0  0  0  0  0  1  0  0  0  0  0  0
  -26.6360  -32.4380   26.3370 C   0  0  0  0  0  1  0  0  0  0  0  0
  2  6  2  0
  2  5  1  0
  3  1  1  0
  4  1  1  0
  5  7  1  0
  5  3  1  0
  6  4  1  0
  8 10  1  0
  8  6  1  0
  9  8  1  0
 11 12  1  0
 13 12  1  0
 13 19  1  0
 14 19  1  0
 15 16  1  0
 15 14  1  0
 17 16  1  0
 17 24  1  0
 17 18  1  0
 19 18  1  0
 20 13  2  0
 21 22  2  0
 22 41  1  0
 23 22  1  0
 23 26  1  0
 24 25  1  0
 24 21  1  0
 25 23  2  0
 26 27  1  0
 27 28  2  0
 29 32  1  0
 29 28  1  0
 30 29  2  0
 31 30  1  0
 31 26  2  0
 32 33  1  0
 33 34  1  0
 34 35  2  0
 36 35  1  0
 36 40  1  0
 37 36  2  0
 38 33  2  0
 38 37  1  0
 39 38  1  0
 41 42  1  0
 42 45  1  0
 42 44  1  0
 43 41  2  0
 46 21  1  0
 46 47  1  0
 48 46  1  0
 49 50  1  0
 54 65  2  0
 55 53  1  0
 56 64  1  0
 57 63  1  0
 57 62  1  0
 57 59  1  0
 58 64  1  0
 59 58  1  0
 59 60  1  0
 60 55  1  0
 61 55  1  0
 62 61  1  0
 63 56  1  0
 64 54  1  0
 66 67  1  0
 66 68  1  0
 67 69  1  0
 70 79  2  0
 70 75  1  0
 71 67  1  0
 71 75  1  0
 72 71  1  0
 73 74  1  0
 73 72  1  0
 74 70  1  0
 75 76  2  0
 76 77  1  0
 78 77  2  0
 79 78  1  0
 80 54  1  0
 80 81  1  0
 80 90  1  0
 81 84  1  0
 82 86  1  0
 82 81  1  0
 83 82  2  0
 86 85  1  0
 88 86  1  0
 88 89  1  0
 88 87  1  0
 90 91  1  1
 90 93  1  0
 92 90  1  0
M  ISO  4  12 100  13 100  52 101  53 101
M  END
>  <TORSDO>  (92) 
F 21

>  <SCORE>  (92) 
-13.004

>  <name>  (92) 
91

>  <ligand_id>  (92) 
91

>  <original_smiles>  (92) 
[H]C(C(=O)N1C([H])([H])C([H])([H])C([H])([H])C([H])(n2nc(-c3c([H])c([H])c(Oc4c([H])c([H])c(F)c([H])c4F)c([H])c3[H])c(C(=O)N([H])[H])c2N([H])[H])C1([H])[H])=C([H])c1c([H])c(C([H])=C([H])C([H])([H])C([H])([H])Oc2c([H])c([H])c3c(c2[H])C([H])([H])N(C(=O)C([H])(N([H])C(=O)C([H])(N([H])C([H])([H])[H])C([H])([H])[H])C(C([H])([H])[H])(C([H])([H])[H])C([H])([H])[H])C([H])(C(=O)N([H])C2([H])c4c([H])c([H])c([H])c([H])c4C([H])([H])C([H])([H])C2([H])[H])C3([H])[H])c(N([H])[H])c([H])c1C([H])([H])[H]

>  <smiles>  (92) 
[H]C(C(=O)N1C([H])([H])C([H])([H])C([H])([H])C([H])(n2nc(-c3c([H])c([H])c(Oc4c([H])c([H])c(F)c([H])c4F)c([H])c3[H])c(C(=O)N([H])[H])c2N([H])[H])C1([H])[H])=C([H])c1c([H])c(C([H])=C([H])C([H])([H])C([H])([H])Oc2c([H])c([H])c3c(c2[H])C([H])([H])N(C(=O)C([H])(N([H])C(=O)C([H])(N([H])C([H])([H])[H])C([H])([H])[H])C(C([H])([H])[H])(C([H])([H])[H])C([H])([H])[H])C([H])(C(=O)N([H])C2([H])c4c([H])c([H])c([H])c([H])c4C([H])([H])C([H])([H])C2([H])[H])C3([H])[H])c(N([H])[H])c([H])c1C([H])([H])[H]

$$$$
92:0:0
     RDKit          3D

 94102  0  0  1  0  0  0  0  0999 V2000
  -31.9510  -18.2760   18.9430 C   0  0  0  0  0  3  0  0  0  0  0  0
  -31.1990  -20.5270   18.4220 C   0  0  0  0  0  3  0  0  0  0  0  0
  -30.2110  -19.3510   20.3250 C   0  0  0  0  0  0  0  0  0  0  0  0
  -31.0800  -18.2280   20.0510 C   0  0  0  0  0  0  0  0  0  0  0  0
  -30.3230  -20.5730   19.5410 C   0  0  0  0  0  0  0  0  0  0  0  0
  -31.9880  -19.4050   18.1190 C   0  0  0  0  0  0  0  0  0  0  0  0
  -32.8180  -19.4290   17.0490 F   0  0  0  0  0  0  0  0  0  0  0  0
  -29.1360  -19.1330   21.3600 C   0  0  0  0  0  0  0  0  0  0  0  0
  -28.8020  -20.2290   22.3600 C   0  0  0  0  0  1  0  0  0  0  0  0
  -28.4990  -18.0760   21.4430 O   0  0  0  0  0  0  0  0  0  0  0  0
  -29.8910  -22.9660   19.3770 C   0  0  0  0  0  3  0  0  0  0  0  0
  -29.6120  -21.7900   19.8600 N   0  0  0  0  0  0  0  0  0  0  0  0
  -29.2550  -24.3290   19.8000 C   0  0  0  0  0  3  0  0  0  0  0  0
  -29.3800  -25.5130   18.7550 C   0  0  0  0  0  3  0  0  0  0  0  0
  -29.1180  -26.8830   19.2090 O   0  0  0  0  0  0  0  0  0  0  0  0
  -24.6630  -31.2290   22.7340 C   0  0  0  0  0  0  0  0  0  0  0  0
  -27.8530  -27.4700   19.2220 C   0  0  0  0  0  0  0  0  0  0  0  0
  -23.6440  -29.8830   20.9250 C   0  0  0  0  0  3  0  0  0  0  0  0
  -25.2850  -28.7050   19.3570 C   0  0  0  0  0  0  0  0  0  0  0  0
  -26.1100  -30.5670   20.8070 C   0  0  0  0  0  2  0  0  0  0  0  0
  -26.3700  -29.2920   20.0160 C   0  0  0  0  0  0  0  0  0  0  0  0
  -27.6520  -28.6890   19.9330 C   0  0  0  0  0  3  0  0  0  0  0  0
  -26.7320  -26.9030   18.5660 C   0  0  0  0  0  3  0  0  0  0  0  0
  -25.4650  -27.5150   18.6310 C   0  0  0  0  0  3  0  0  0  0  0  0
  -23.9480  -29.4050   19.4790 C   0  0  0  0  0  2  0  0  0  0  0  0
  -24.8230  -30.5700   21.5500 N   0  0  0  0  0  0  0  0  0  0  0  0
  -23.5530  -31.3050   23.2830 O   0  0  0  0  0  0  0  0  0  0  0  0
  -23.1210  -28.6890   21.7550 C   0  0  0  0  0  0  0  0  0  0  0  0
  -21.8210  -28.3810   21.6110 N   0  0  0  0  0  0  0  0  0  0  0  0
  -23.8820  -28.0490   22.4870 O   0  0  0  0  0  0  0  0  0  0  0  0
  -21.2650  -28.9600   21.0000 H   0  0  0  0  0  0  0  0  0  0  0  0
  -18.6030  -26.7800   21.9920 C   0  0  0  0  0  0  0  0  0  0  0  0
  -21.1270  -27.2700   22.2640 C   0  0  0  0  0  3  0  0  0  0  0  0
  -21.3620  -25.9430   21.5040 C   0  0  0  0  0  2  0  0  0  0  0  0
  -20.2700  -25.6390   20.4730 C   0  0  0  0  0  2  0  0  0  0  0  0
  -18.8990  -25.5540   21.1460 C   0  0  0  0  0  2  0  0  0  0  0  0
  -19.6480  -27.5910   22.5070 C   0  0  0  0  0  0  0  0  0  0  0  0
  -19.3180  -28.7360   23.2640 C   0  0  0  0  0  3  0  0  0  0  0  0
  -17.9720  -29.0690   23.5130 C   0  0  0  0  0  3  0  0  0  0  0  0
  -16.9410  -28.2550   23.0130 C   0  0  0  0  0  3  0  0  0  0  0  0
  -17.2580  -27.1140   22.2560 C   0  0  0  0  0  3  0  0  0  0  0  0
  -25.8610  -31.9360   23.4400 C   0  0  0  0  0  3  0  0  0  0  0  0
  -25.3900  -33.2460   23.9100 N   0  0  0  0  0  0  0  0  0  0  0  0
  -25.6230  -34.4070   23.2850 C   0  0  0  0  0  0  0  0  0  0  0  0
  -26.3360  -34.4950   22.2820 O   0  0  0  0  0  0  0  0  0  0  0  0
  -24.7610  -33.2450   24.6990 H   0  0  0  0  0  0  0  0  0  0  0  0
  -23.7200  -36.0260   23.0520 C   0  0  0  0  0  1  0  0  0  0  0  0
  -24.9700  -35.6720   23.8720 C   0  0  0  0  0  3  0  0  0  0  0  0
  -26.9550  -36.6840   24.8980 C   0  0  0  0  0  1  0  0  0  0  0  0
  -25.8800  -36.8340   23.9210 N   0  0  0  0  0  0  0  0  0  0  0  0
  -25.3680  -37.6830   24.1430 H   0  0  0  0  0  0  0  0  0  0  0  0
  -26.4570  -31.0990   24.6360 C   0  0  1  0  0  0  0  0  0  0  0  0
  -25.3880  -30.6350   25.6520 C   0  0  0  0  0  1  0  0  0  0  0  0
  -27.1960  -29.8440   24.1140 C   0  0  0  0  0  1  0  0  0  0  0  0
  -27.5100  -31.9420   25.3930 C   0  0  0  0  0  1  0  0  0  0  0  0
  -31.2380  -16.9880   20.9720 C   0  0  0  0  0  2  0  0  0  0  0  0
  -31.0730  -14.7110   19.9400 C   0  0  0  0  0  0  0  0  0  0  0  0
  -30.6100  -12.5570   18.8260 C   0  0  0  0  0  2  0  0  0  0  0  0
  -29.6320  -12.8110   17.6670 C   0  0  0  0  0  2  0  0  0  0  0  0
  -28.1780  -12.7120   18.1720 C   0  0  0  0  0  2  0  0  0  0  0  0
  -27.9280  -13.5370   19.4660 C   0  0  0  0  0  3  0  0  0  0  0  0
  -29.0430  -13.3090   20.5120 C   0  0  0  0  0  2  0  0  0  0  0  0
  -30.3340  -13.5700   19.8580 N   0  0  0  0  0  0  0  0  0  0  0  0
  -32.1670  -14.8320   19.3810 O   0  0  0  0  0  0  0  0  0  0  0  0
  -30.5240  -15.7510   20.5950 N   0  0  0  0  0  0  0  0  0  0  0  0
  -29.6050  -15.6160   20.9900 H   0  0  0  0  0  0  0  0  0  0  0  0
  -25.6050  -14.1820   20.3660 C   0  0  0  0  0  0  0  0  0  0  0  0
  -24.5320  -13.4250   20.7620 C   0  0  0  0  0  0  0  0  0  0  0  0
  -24.9360  -12.0630   20.6280 C   0  0  0  0  0  0  0  0  0  0  0  0
  -26.5980  -13.2800   20.0190 N   0  0  0  0  0  0  0  0  0  0  0  0
  -26.2020  -11.9970   20.2350 N   0  0  0  0  0  0  0  0  0  0  0  0
  -24.1720  -10.8200   20.7950 C   0  0  0  0  0  0  0  0  0  0  0  0
  -24.5970   -9.8110   21.6860 C   0  0  0  0  0  3  0  0  0  0  0  0
  -23.8380   -8.6290   21.8490 C   0  0  0  0  0  3  0  0  0  0  0  0
  -22.6370   -8.4500   21.1180 C   0  0  0  0  0  0  0  0  0  0  0  0
  -22.2270   -9.4520   20.2190 C   0  0  0  0  0  3  0  0  0  0  0  0
  -22.9870  -10.6230   20.0560 C   0  0  0  0  0  3  0  0  0  0  0  0
  -21.8510   -7.3240   21.1890 O   0  0  0  0  0  0  0  0  0  0  0  0
  -21.7760   -6.5740   22.3340 C   0  0  0  0  0  0  0  0  0  0  0  0
  -21.3450   -7.1260   23.5620 C   0  0  0  0  0  3  0  0  0  0  0  0
  -21.2140   -6.2980   24.6960 C   0  0  0  0  0  3  0  0  0  0  0  0
  -21.4990   -4.9220   24.6000 C   0  0  0  0  0  0  0  0  0  0  0  0
  -21.9230   -4.3720   23.3780 C   0  0  0  0  0  3  0  0  0  0  0  0
  -22.0540   -5.1970   22.2470 C   0  0  0  0  0  0  0  0  0  0  0  0
  -22.4400   -4.6580   21.0650 F   0  0  0  0  0  0  0  0  0  0  0  0
  -21.3660   -4.1270   25.6880 F   0  0  0  0  0  0  0  0  0  0  0  0
  -23.1790  -13.9380   21.1530 C   0  0  0  0  0  0  0  0  0  0  0  0
  -22.4840  -13.2290   22.0380 N   0  0  0  0  0  0  0  0  0  0  0  0
  -22.7430  -14.9990   20.7130 O   0  0  0  0  0  0  0  0  0  0  0  0
  -22.8480  -12.3740   22.4290 H   0  0  0  0  0  0  0  0  0  0  0  0
  -21.5740  -13.5540   22.3300 H   0  0  0  0  0  0  0  0  0  0  0  0
  -25.8120  -15.5540   20.2570 N   0  0  0  0  0  0  0  0  0  0  0  0
  -25.0760  -16.2250   20.4500 H   0  0  0  0  0  0  0  0  0  0  0  0
  -26.6820  -15.9900   19.9800 H   0  0  0  0  0  0  0  0  0  0  0  0
  1  4  1  0
  2  5  2  0
  3  8  1  0
  4  3  2  0
  4 56  1  0
  5 12  1  0
  5  3  1  0
  6  2  1  0
  6  1  2  0
  7  6  1  0
  8 10  2  0
  8  9  1  0
 11 13  1  0
 11 12  2  0
 14 15  1  0
 14 13  2  0
 15 17  1  0
 16 27  2  0
 17 22  1  0
 18 26  1  0
 18 28  1  0
 19 25  1  0
 19 21  1  0
 20 26  1  0
 21 20  1  0
 22 21  2  0
 23 24  1  0
 23 17  2  0
 24 19  2  0
 25 18  1  0
 26 16  1  0
 28 30  2  0
 29 28  1  0
 31 29  1  0
 32 41  2  0
 32 37  1  0
 33 29  1  0
 33 37  1  0
 34 33  1  0
 35 36  1  0
 35 34  1  0
 36 32  1  0
 37 38  2  0
 38 39  1  0
 40 39  2  0
 41 40  1  0
 42 16  1  0
 42 43  1  0
 42 52  1  0
 43 46  1  0
 44 48  1  0
 44 43  1  0
 45 44  2  0
 48 47  1  0
 48 50  1  0
 50 51  1  0
 50 49  1  0
 52 55  1  1
 52 53  1  0
 54 52  1  0
 57 65  1  0
 58 63  1  0
 59 60  1  0
 59 58  1  0
 61 60  1  0
 61 70  1  0
 61 62  1  0
 63 57  1  0
 63 62  1  0
 64 57  2  0
 65 56  1  0
 65 66  1  0
 67 68  2  0
 68 87  1  0
 69 68  1  0
 69 72  1  0
 70 71  1  0
 70 67  1  0
 71 69  2  0
 72 73  1  0
 73 74  2  0
 75 78  1  0
 75 74  1  0
 76 75  2  0
 77 76  1  0
 77 72  2  0
 78 79  1  0
 79 80  1  0
 80 81  2  0
 82 81  1  0
 82 86  1  0
 83 82  2  0
 84 79  2  0
 84 83  1  0
 85 84  1  0
 87 88  1  0
 88 91  1  0
 88 90  1  0
 89 87  2  0
 92 67  1  0
 92 93  1  0
 94 92  1  0
M  ISO  4  14 101  15 101  57 100  65 100
M  END
>  <TORSDO>  (93) 
F 21

>  <SCORE>  (93) 
-7.873

>  <name>  (93) 
92

>  <ligand_id>  (93) 
92

>  <original_smiles>  (93) 
[H]C(=Nc1c([H])c(F)c([H])c(C([H])([H])N([H])C(=O)N2C([H])([H])C([H])([H])C([H])([H])C([H])(n3nc(-c4c([H])c([H])c(Oc5c([H])c([H])c(F)c([H])c5F)c([H])c4[H])c(C(=O)N([H])[H])c3N([H])[H])C2([H])[H])c1C(=O)C([H])([H])[H])C([H])([H])C([H])([H])Oc1c([H])c([H])c2c(c1[H])C([H])([H])N(C(=O)C([H])(N([H])C(=O)C([H])(N([H])C([H])([H])[H])C([H])([H])[H])C(C([H])([H])[H])(C([H])([H])[H])C([H])([H])[H])C([H])(C(=O)N([H])C1([H])c3c([H])c([H])c([H])c([H])c3C([H])([H])C([H])([H])C1([H])[H])C2([H])[H]

>  <smiles>  (93) 
[H]C(=Nc1c([H])c(F)c([H])c(C([H])([H])N([H])C(=O)N2C([H])([H])C([H])([H])C([H])([H])C([H])(n3nc(-c4c([H])c([H])c(Oc5c([H])c([H])c(F)c([H])c5F)c([H])c4[H])c(C(=O)N([H])[H])c3N([H])[H])C2([H])[H])c1C(=O)C([H])([H])[H])C([H])([H])C([H])([H])Oc1c([H])c([H])c2c(c1[H])C([H])([H])N(C(=O)C([H])(N([H])C(=O)C([H])(N([H])C([H])([H])[H])C([H])([H])[H])C(C([H])([H])[H])(C([H])([H])[H])C([H])([H])[H])C([H])(C(=O)N([H])C1([H])c3c([H])c([H])c([H])c([H])c3C([H])([H])C([H])([H])C1([H])[H])C2([H])[H]

$$$$
93:0:0
     RDKit          3D

 93101  0  0  1  0  0  0  0  0999 V2000
  -28.8330  -20.5920   20.3820 C   0  0  0  0  0  3  0  0  0  0  0  0
  -28.8230  -21.9250   20.1010 C   0  0  0  0  0  3  0  0  0  0  0  0
  -29.5280  -18.1560   20.3770 C   0  0  0  0  0  3  0  0  0  0  0  0
  -31.1950  -18.4630   18.1830 C   0  0  0  0  0  3  0  0  0  0  0  0
  -29.6530  -19.4630   19.8030 C   0  0  0  0  0  0  0  0  0  0  0  0
  -30.5310  -19.5940   18.6880 C   0  0  0  0  0  0  0  0  0  0  0  0
  -31.0240  -17.1790   18.7220 C   0  0  0  0  0  0  0  0  0  0  0  0
  -30.2050  -16.9990   19.8790 C   0  0  0  0  0  0  0  0  0  0  0  0
  -30.7860  -20.8880   17.9330 C   0  0  0  0  0  1  0  0  0  0  0  0
  -31.7160  -16.0690   17.9430 C   0  0  0  0  0  1  0  0  0  0  0  0
  -30.7140  -14.5920   20.5360 C   0  0  0  0  0  0  0  0  0  0  0  0
  -30.4550  -12.3820   19.5070 C   0  0  0  0  0  2  0  0  0  0  0  0
  -29.5450  -12.5210   18.2660 C   0  0  0  0  0  2  0  0  0  0  0  0
  -28.0600  -12.3980   18.6580 C   0  0  0  0  0  2  0  0  0  0  0  0
  -27.6790  -13.2790   19.8780 C   0  0  0  0  0  3  0  0  0  0  0  0
  -28.7080  -13.1330   21.0240 C   0  0  0  0  0  2  0  0  0  0  0  0
  -30.0400  -13.4120   20.4720 N   0  0  0  0  0  0  0  0  0  0  0  0
  -31.9330  -14.6550   20.3790 O   0  0  0  0  0  0  0  0  0  0  0  0
  -29.9430  -15.7110   20.5030 N   0  0  0  0  0  0  0  0  0  0  0  0
  -29.0040  -15.5750   20.8400 H   0  0  0  0  0  0  0  0  0  0  0  0
  -25.2650  -13.8930   20.5150 C   0  0  0  0  0  0  0  0  0  0  0  0
  -24.1840  -13.1250   20.8590 C   0  0  0  0  0  0  0  0  0  0  0  0
  -24.6470  -11.7720   20.8610 C   0  0  0  0  0  0  0  0  0  0  0  0
  -26.3160  -13.0090   20.3280 N   0  0  0  0  0  0  0  0  0  0  0  0
  -25.9470  -11.7300   20.5970 N   0  0  0  0  0  0  0  0  0  0  0  0
  -23.9140  -10.5140   21.0440 C   0  0  0  0  0  0  0  0  0  0  0  0
  -24.3190   -9.5560   21.9980 C   0  0  0  0  0  3  0  0  0  0  0  0
  -23.5900   -8.3580   22.1660 C   0  0  0  0  0  3  0  0  0  0  0  0
  -22.4400   -8.1130   21.3780 C   0  0  0  0  0  0  0  0  0  0  0  0
  -22.0540   -9.0590   20.4120 C   0  0  0  0  0  3  0  0  0  0  0  0
  -22.7850  -10.2480   20.2430 C   0  0  0  0  0  3  0  0  0  0  0  0
  -21.6830   -6.9700   21.4550 O   0  0  0  0  0  0  0  0  0  0  0  0
  -21.6010   -6.2370   22.6120 C   0  0  0  0  0  0  0  0  0  0  0  0
  -21.1280   -6.8000   23.8180 C   0  0  0  0  0  3  0  0  0  0  0  0
  -20.9940   -5.9940   24.9660 C   0  0  0  0  0  3  0  0  0  0  0  0
  -21.3210   -4.6250   24.9080 C   0  0  0  0  0  0  0  0  0  0  0  0
  -21.7850   -4.0620   23.7070 C   0  0  0  0  0  3  0  0  0  0  0  0
  -21.9210   -4.8660   22.5600 C   0  0  0  0  0  0  0  0  0  0  0  0
  -22.3490   -4.3130   21.4000 F   0  0  0  0  0  0  0  0  0  0  0  0
  -21.1850   -3.8490   26.0080 F   0  0  0  0  0  0  0  0  0  0  0  0
  -22.7800  -13.6060   21.0770 C   0  0  0  0  0  0  0  0  0  0  0  0
  -22.0220  -12.9170   21.9240 N   0  0  0  0  0  0  0  0  0  0  0  0
  -22.3610  -14.6260   20.5330 O   0  0  0  0  0  0  0  0  0  0  0  0
  -22.3730  -12.0920   22.3870 H   0  0  0  0  0  0  0  0  0  0  0  0
  -21.0770  -13.2210   22.1150 H   0  0  0  0  0  0  0  0  0  0  0  0
  -25.4350  -15.2610   20.3210 N   0  0  0  0  0  0  0  0  0  0  0  0
  -24.6580  -15.9090   20.3830 H   0  0  0  0  0  0  0  0  0  0  0  0
  -26.2870  -15.6950   19.9920 H   0  0  0  0  0  0  0  0  0  0  0  0
  -27.8590  -22.9600   20.6920 C   0  0  0  0  0  2  0  0  0  0  0  0
  -28.4740  -24.3580   20.9330 C   0  0  0  0  0  0  0  0  0  0  0  0
  -28.9100  -24.6630   22.0480 O   0  0  0  0  0  0  0  0  0  0  0  0
  -28.5140  -25.3730   19.7650 C   0  0  0  0  0  2  0  0  0  0  0  0
  -28.4350  -26.7440   20.2250 O   0  0  0  0  0  0  0  0  0  0  0  0
  -24.5630  -31.9150   23.2440 C   0  0  0  0  0  0  0  0  0  0  0  0
  -27.2370  -27.4420   20.2000 C   0  0  0  0  0  0  0  0  0  0  0  0
  -23.3720  -30.5090   21.5960 C   0  0  0  0  0  3  0  0  0  0  0  0
  -24.8380  -28.9670   20.1880 C   0  0  0  0  0  0  0  0  0  0  0  0
  -25.9030  -30.8610   21.4210 C   0  0  0  0  0  2  0  0  0  0  0  0
  -25.9920  -29.4870   20.7840 C   0  0  0  0  0  0  0  0  0  0  0  0
  -27.1900  -28.7330   20.7860 C   0  0  0  0  0  3  0  0  0  0  0  0
  -26.0530  -26.9380   19.6100 C   0  0  0  0  0  3  0  0  0  0  0  0
  -24.8640  -27.6910   19.6010 C   0  0  0  0  0  3  0  0  0  0  0  0
  -23.5930  -29.8260   20.2200 C   0  0  0  0  0  2  0  0  0  0  0  0
  -24.6310  -31.1100   22.1450 N   0  0  0  0  0  0  0  0  0  0  0  0
  -23.4770  -32.1890   23.7730 O   0  0  0  0  0  0  0  0  0  0  0  0
  -22.7140  -29.4890   22.5520 C   0  0  0  0  0  0  0  0  0  0  0  0
  -21.3880  -29.3160   22.4220 N   0  0  0  0  0  0  0  0  0  0  0  0
  -23.3920  -28.8570   23.3650 O   0  0  0  0  0  0  0  0  0  0  0  0
  -20.9020  -29.8790   21.7380 H   0  0  0  0  0  0  0  0  0  0  0  0
  -18.0010  -28.1700   22.9320 C   0  0  0  0  0  0  0  0  0  0  0  0
  -20.5640  -28.3820   23.1880 C   0  0  0  0  0  3  0  0  0  0  0  0
  -20.6390  -26.9560   22.5920 C   0  0  0  0  0  2  0  0  0  0  0  0
  -19.5240  -26.6640   21.5840 C   0  0  0  0  0  2  0  0  0  0  0  0
  -18.1500  -26.8250   22.2400 C   0  0  0  0  0  2  0  0  0  0  0  0
  -19.1340  -28.9080   23.3630 C   0  0  0  0  0  0  0  0  0  0  0  0
  -18.9410  -30.1690   23.9670 C   0  0  0  0  0  3  0  0  0  0  0  0
  -17.6460  -30.6890   24.1480 C   0  0  0  0  0  3  0  0  0  0  0  0
  -16.5260  -29.9460   23.7350 C   0  0  0  0  0  3  0  0  0  0  0  0
  -16.7050  -28.6890   23.1320 C   0  0  0  0  0  3  0  0  0  0  0  0
  -25.8430  -32.5480   23.8740 C   0  0  0  0  0  3  0  0  0  0  0  0
  -26.3460  -31.7850   25.1610 C   0  0  1  0  0  0  0  0  0  0  0  0
  -25.2420  -31.5540   26.2180 C   0  0  0  0  0  1  0  0  0  0  0  0
  -26.9320  -30.4040   24.7810 C   0  0  0  0  0  1  0  0  0  0  0  0
  -27.4880  -32.5830   25.8320 C   0  0  0  0  0  1  0  0  0  0  0  0
  -25.5330  -33.9490   24.1910 N   0  0  0  0  0  0  0  0  0  0  0  0
  -25.8760  -34.9950   23.4270 C   0  0  0  0  0  0  0  0  0  0  0  0
  -26.5590  -34.8830   22.4060 O   0  0  0  0  0  0  0  0  0  0  0  0
  -24.9300  -34.1090   24.9840 H   0  0  0  0  0  0  0  0  0  0  0  0
  -24.1630  -36.7910   23.0280 C   0  0  0  0  0  1  0  0  0  0  0  0
  -25.3840  -36.3860   23.8690 C   0  0  0  0  0  3  0  0  0  0  0  0
  -27.5020  -37.2700   24.7420 C   0  0  0  0  0  1  0  0  0  0  0  0
  -26.4220  -37.4360   23.7720 N   0  0  0  0  0  0  0  0  0  0  0  0
  -26.0150  -38.3580   23.9060 H   0  0  0  0  0  0  0  0  0  0  0  0
  2  1  2  0
  2 49  1  0
  4  6  2  0
  4  7  1  0
  5  3  2  0
  5  1  1  0
  6  5  1  0
  7  8  2  0
  8  3  1  0
  8 19  1  0
  9  6  1  0
 10  7  1  0
 12 17  1  0
 13 14  1  0
 13 12  1  0
 15 14  1  0
 15 24  1  0
 15 16  1  0
 17 11  1  0
 17 16  1  0
 18 11  2  0
 19 11  1  0
 19 20  1  0
 21 22  2  0
 22 23  1  0
 22 41  1  0
 23 26  1  0
 24 21  1  0
 24 25  1  0
 25 23  2  0
 26 27  1  0
 27 28  2  0
 29 32  1  0
 29 28  1  0
 30 29  2  0
 31 30  1  0
 31 26  2  0
 32 33  1  0
 33 34  1  0
 34 35  2  0
 36 35  1  0
 36 40  1  0
 37 36  2  0
 38 33  2  0
 38 37  1  0
 39 38  1  0
 41 42  1  0
 42 45  1  0
 42 44  1  0
 43 41  2  0
 46 47  1  0
 46 21  1  0
 48 46  1  0
 49 50  1  0
 50 51  2  0
 52 53  1  0
 52 50  1  0
 54 65  2  0
 55 53  1  0
 55 60  1  0
 56 64  1  0
 56 66  1  0
 57 63  1  0
 57 59  1  0
 58 64  1  0
 59 60  2  0
 59 58  1  0
 61 55  2  0
 62 61  1  0
 62 57  2  0
 63 56  1  0
 64 54  1  0
 66 68  2  0
 67 66  1  0
 69 67  1  0
 70 79  2  0
 70 75  1  0
 71 67  1  0
 71 75  1  0
 72 71  1  0
 73 74  1  0
 73 72  1  0
 74 70  1  0
 75 76  2  0
 76 77  1  0
 78 77  2  0
 79 78  1  0
 80 54  1  0
 80 85  1  0
 80 81  1  0
 81 84  1  1
 81 82  1  0
 83 81  1  0
 85 88  1  0
 86 90  1  0
 86 85  1  0
 87 86  2  0
 90 89  1  0
 92 90  1  0
 92 93  1  0
 92 91  1  0
M  ISO  4  11 100  19 100  52 101  53 101
M  END
>  <TORSDO>  (94) 
F 20

>  <SCORE>  (94) 
-13.991

>  <name>  (94) 
93

>  <ligand_id>  (94) 
93

>  <original_smiles>  (94) 
[H]C(=C([H])C([H])([H])C(=O)C([H])([H])Oc1c([H])c([H])c2c(c1[H])C([H])([H])N(C(=O)C([H])(N([H])C(=O)C([H])(N([H])C([H])([H])[H])C([H])([H])[H])C(C([H])([H])[H])(C([H])([H])[H])C([H])([H])[H])C([H])(C(=O)N([H])C1([H])c3c([H])c([H])c([H])c([H])c3C([H])([H])C([H])([H])C1([H])[H])C2([H])[H])c1c([H])c(N([H])C(=O)N2C([H])([H])C([H])([H])C([H])([H])C([H])(n3nc(-c4c([H])c([H])c(Oc5c([H])c([H])c(F)c([H])c5F)c([H])c4[H])c(C(=O)N([H])[H])c3N([H])[H])C2([H])[H])c(C([H])([H])[H])c([H])c1C([H])([H])[H]

>  <smiles>  (94) 
[H]C(=C([H])C([H])([H])C(=O)C([H])([H])Oc1c([H])c([H])c2c(c1[H])C([H])([H])N(C(=O)C([H])(N([H])C(=O)C([H])(N([H])C([H])([H])[H])C([H])([H])[H])C(C([H])([H])[H])(C([H])([H])[H])C([H])([H])[H])C([H])(C(=O)N([H])C1([H])c3c([H])c([H])c([H])c([H])c3C([H])([H])C([H])([H])C1([H])[H])C2([H])[H])c1c([H])c(N([H])C(=O)N2C([H])([H])C([H])([H])C([H])([H])C([H])(n3nc(-c4c([H])c([H])c(Oc5c([H])c([H])c(F)c([H])c5F)c([H])c4[H])c(C(=O)N([H])[H])c3N([H])[H])C2([H])[H])c(C([H])([H])[H])c([H])c1C([H])([H])[H]

$$$$
