0:0:0
     RDKit          3D

 88 96  0  0  1  0  0  0  0  0999 V2000
  -30.7080  -21.1300   20.6460 C   0  0  0  0  0  3  0  0  0  0  0  0
  -31.1960  -19.7640   20.6950 C   0  0  0  0  0  0  0  0  0  0  0  0
  -30.2320  -18.7800   20.5340 C   0  0  0  0  0  0  0  0  0  0  0  0
  -29.3540  -21.2870   20.4460 C   0  0  0  0  0  0  0  0  0  0  0  0
  -32.6590  -19.4730   20.8910 C   0  0  0  0  0  1  0  0  0  0  0  0
  -28.6670  -19.6210   20.3650 S   0  0  0  0  0  0  0  0  0  0  0  0
  -30.5160  -17.3070   20.4940 C   0  0  0  0  0  3  0  0  0  0  0  0
  -29.8900  -16.0730   20.6170 C   0  0  0  0  0  3  0  0  0  0  0  0
  -30.6330  -14.7690   20.4100 C   0  0  0  0  0  0  0  0  0  0  0  0
  -30.3730  -12.4920   19.4320 C   0  0  0  0  0  2  0  0  0  0  0  0
  -29.4510  -12.5760   18.1960 C   0  0  0  0  0  2  0  0  0  0  0  0
  -27.9790  -12.4060   18.6160 C   0  0  0  0  0  2  0  0  0  0  0  0
  -27.5970  -13.3000   19.8260 C   0  0  0  0  0  3  0  0  0  0  0  0
  -28.6510  -13.2400   20.9500 C   0  0  0  0  0  2  0  0  0  0  0  0
  -29.9590  -13.5660   20.3680 N   0  0  0  0  0  0  0  0  0  0  0  0
  -31.8260  -14.7750   20.0960 O   0  0  0  0  0  0  0  0  0  0  0  0
  -25.2070  -13.8760   20.5550 C   0  0  0  0  0  0  0  0  0  0  0  0
  -24.1430  -13.0970   20.9200 C   0  0  0  0  0  0  0  0  0  0  0  0
  -24.6100  -11.7480   20.8870 C   0  0  0  0  0  0  0  0  0  0  0  0
  -26.2540  -13.0020   20.3160 N   0  0  0  0  0  0  0  0  0  0  0  0
  -25.9020  -11.7160   20.5800 N   0  0  0  0  0  0  0  0  0  0  0  0
  -23.8860  -10.4830   21.0720 C   0  0  0  0  0  0  0  0  0  0  0  0
  -24.3230   -9.5110   21.9990 C   0  0  0  0  0  3  0  0  0  0  0  0
  -23.6010   -8.3100   22.1730 C   0  0  0  0  0  3  0  0  0  0  0  0
  -22.4260   -8.0740   21.4200 C   0  0  0  0  0  0  0  0  0  0  0  0
  -22.0070   -9.0350   20.4830 C   0  0  0  0  0  3  0  0  0  0  0  0
  -22.7290  -10.2270   20.3080 C   0  0  0  0  0  3  0  0  0  0  0  0
  -21.6720   -6.9280   21.5060 O   0  0  0  0  0  0  0  0  0  0  0  0
  -21.6340   -6.1750   22.6520 C   0  0  0  0  0  0  0  0  0  0  0  0
  -21.2050   -6.7160   23.8840 C   0  0  0  0  0  3  0  0  0  0  0  0
  -21.1160   -5.8890   25.0210 C   0  0  0  0  0  3  0  0  0  0  0  0
  -21.4410   -4.5220   24.9270 C   0  0  0  0  0  0  0  0  0  0  0  0
  -21.8610   -3.9810   23.7000 C   0  0  0  0  0  3  0  0  0  0  0  0
  -21.9530   -4.8060   22.5640 C   0  0  0  0  0  0  0  0  0  0  0  0
  -22.3390   -4.2750   21.3790 F   0  0  0  0  0  0  0  0  0  0  0  0
  -21.3450   -3.7260   26.0170 F   0  0  0  0  0  0  0  0  0  0  0  0
  -22.7430  -13.5690   21.1860 C   0  0  0  0  0  0  0  0  0  0  0  0
  -22.0140  -12.8710   22.0500 N   0  0  0  0  0  0  0  0  0  0  0  0
  -22.3040  -14.5940   20.6630 O   0  0  0  0  0  0  0  0  0  0  0  0
  -22.3810  -12.0450   22.4980 H   0  0  0  0  0  0  0  0  0  0  0  0
  -21.0730  -13.1680   22.2680 H   0  0  0  0  0  0  0  0  0  0  0  0
  -25.3690  -15.2480   20.3830 N   0  0  0  0  0  0  0  0  0  0  0  0
  -24.6020  -15.9000   20.5060 H   0  0  0  0  0  0  0  0  0  0  0  0
  -26.2230  -15.6930   20.0730 H   0  0  0  0  0  0  0  0  0  0  0  0
  -28.9090  -23.7170   20.3750 C   0  0  0  0  0  3  0  0  0  0  0  0
  -28.5490  -22.4500   20.2970 N   0  0  0  0  0  0  0  0  0  0  0  0
  -27.9070  -24.9290   20.1010 C   0  0  0  0  0  2  0  0  0  0  0  0
  -28.2500  -26.3830   20.3110 O   0  0  0  0  0  0  0  0  0  0  0  0
  -24.6090  -31.9360   23.2860 C   0  0  0  0  0  0  0  0  0  0  0  0
  -27.1730  -27.3070   20.2390 C   0  0  0  0  0  0  0  0  0  0  0  0
  -23.4010  -30.5470   21.6500 C   0  0  0  0  0  3  0  0  0  0  0  0
  -24.8380  -28.9870   20.2240 C   0  0  0  0  0  0  0  0  0  0  0  0
  -25.9480  -30.8280   21.4760 C   0  0  0  0  0  2  0  0  0  0  0  0
  -26.0170  -29.4470   20.8240 C   0  0  0  0  0  0  0  0  0  0  0  0
  -27.1890  -28.6210   20.8210 C   0  0  0  0  0  3  0  0  0  0  0  0
  -25.9660  -26.9270   19.6010 C   0  0  0  0  0  3  0  0  0  0  0  0
  -24.8180  -27.7340   19.6030 C   0  0  0  0  0  3  0  0  0  0  0  0
  -23.6120  -29.8760   20.2700 C   0  0  0  0  0  2  0  0  0  0  0  0
  -24.6730  -31.1220   22.1930 N   0  0  0  0  0  0  0  0  0  0  0  0
  -23.5250  -32.2250   23.8150 O   0  0  0  0  0  0  0  0  0  0  0  0
  -22.7250  -29.5340   22.6070 C   0  0  0  0  0  0  0  0  0  0  0  0
  -21.3980  -29.3630   22.4740 N   0  0  0  0  0  0  0  0  0  0  0  0
  -23.3950  -28.9070   23.4310 O   0  0  0  0  0  0  0  0  0  0  0  0
  -20.9180  -29.9180   21.7790 H   0  0  0  0  0  0  0  0  0  0  0  0
  -18.0100  -28.1840   22.9580 C   0  0  0  0  0  0  0  0  0  0  0  0
  -20.5690  -28.4340   23.2430 C   0  0  0  0  0  3  0  0  0  0  0  0
  -20.6680  -27.0000   22.6760 C   0  0  0  0  0  2  0  0  0  0  0  0
  -19.5710  -26.6760   21.6570 C   0  0  0  0  0  2  0  0  0  0  0  0
  -18.1860  -26.8300   22.2910 C   0  0  0  0  0  2  0  0  0  0  0  0
  -19.1300  -28.9440   23.3900 C   0  0  0  0  0  0  0  0  0  0  0  0
  -18.9110  -30.2120   23.9730 C   0  0  0  0  0  3  0  0  0  0  0  0
  -17.6070  -30.7180   24.1290 C   0  0  0  0  0  3  0  0  0  0  0  0
  -16.5020  -29.9550   23.7110 C   0  0  0  0  0  3  0  0  0  0  0  0
  -16.7060  -28.6900   23.1320 C   0  0  0  0  0  3  0  0  0  0  0  0
  -25.8940  -32.5600   23.9110 C   0  0  0  0  0  3  0  0  0  0  0  0
  -26.3970  -31.7910   25.1920 C   0  0  1  0  0  0  0  0  0  0  0  0
  -25.2980  -31.5670   26.2560 C   0  0  0  0  0  1  0  0  0  0  0  0
  -26.9700  -30.4060   24.8110 C   0  0  0  0  0  1  0  0  0  0  0  0
  -27.5520  -32.5780   25.8540 C   0  0  0  0  0  1  0  0  0  0  0  0
  -25.5940  -33.9630   24.2350 N   0  0  0  0  0  0  0  0  0  0  0  0
  -25.9150  -35.0100   23.4630 C   0  0  0  0  0  0  0  0  0  0  0  0
  -26.5650  -34.8980   22.4200 O   0  0  0  0  0  0  0  0  0  0  0  0
  -25.0110  -34.1260   25.0430 H   0  0  0  0  0  0  0  0  0  0  0  0
  -24.1760  -36.7990   23.1420 C   0  0  0  0  0  1  0  0  0  0  0  0
  -25.4410  -36.4030   23.9200 C   0  0  0  0  0  3  0  0  0  0  0  0
  -27.5990  -37.2950   24.6780 C   0  0  0  0  0  1  0  0  0  0  0  0
  -26.4680  -37.4560   23.7690 N   0  0  0  0  0  0  0  0  0  0  0  0
  -26.0650  -38.3770   23.9250 H   0  0  0  0  0  0  0  0  0  0  0  0
  1  2  1  0
  2  5  1  0
  3  2  2  0
  4  1  2  0
  6  4  1  0
  6  3  1  0
  7  3  1  0
  7  8  2  0
  9  8  1  0
 10 15  1  0
 11 12  1  0
 11 10  1  0
 13 12  1  0
 13 20  1  0
 13 14  1  0
 15  9  1  0
 15 14  1  0
 16  9  2  0
 17 18  2  0
 18 37  1  0
 19 18  1  0
 19 22  1  0
 20 17  1  0
 20 21  1  0
 21 19  2  0
 22 23  1  0
 23 24  2  0
 25 28  1  0
 25 24  1  0
 26 25  2  0
 27 26  1  0
 27 22  2  0
 28 29  1  0
 29 30  1  0
 30 31  2  0
 32 31  1  0
 32 36  1  0
 33 32  2  0
 34 29  2  0
 34 33  1  0
 35 34  1  0
 37 38  1  0
 38 41  1  0
 38 40  1  0
 39 37  2  0
 42 43  1  0
 42 17  1  0
 44 42  1  0
 46 45  2  0
 46  4  1  0
 47 48  1  0
 47 45  1  0
 49 60  2  0
 50 48  1  0
 50 55  1  0
 51 59  1  0
 51 61  1  0
 52 58  1  0
 52 54  1  0
 53 59  1  0
 54 53  1  0
 55 54  2  0
 56 57  1  0
 56 50  2  0
 57 52  2  0
 58 51  1  0
 59 49  1  0
 61 63  2  0
 62 61  1  0
 64 62  1  0
 65 74  2  0
 65 70  1  0
 66 62  1  0
 66 70  1  0
 67 66  1  0
 68 69  1  0
 68 67  1  0
 69 65  1  0
 70 71  2  0
 71 72  1  0
 73 72  2  0
 74 73  1  0
 75 49  1  0
 75 80  1  0
 75 76  1  0
 76 79  1  1
 76 77  1  0
 78 76  1  0
 80 83  1  0
 81 85  1  0
 81 80  1  0
 82 81  2  0
 85 84  1  0
 87 85  1  0
 87 88  1  0
 87 86  1  0
M  ISO  4   8 100   9 100  47 101  48 101
M  END
>  <TORSDO>  (1) 
F 19

>  <SCORE>  (1) 
-14.264

>  <name>  (1) 
0

>  <ligand_id>  (1) 
0

>  <original_smiles>  (1) 
[H]C(=Nc1sc(C([H])=C([H])C(=O)N2C([H])([H])C([H])([H])C([H])([H])C([H])(n3nc(-c4c([H])c([H])c(Oc5c([H])c([H])c(F)c([H])c5F)c([H])c4[H])c(C(=O)N([H])[H])c3N([H])[H])C2([H])[H])c(C([H])([H])[H])c1[H])C([H])([H])Oc1c([H])c([H])c2c(c1[H])C([H])([H])N(C(=O)C([H])(N([H])C(=O)C([H])(N([H])C([H])([H])[H])C([H])([H])[H])C(C([H])([H])[H])(C([H])([H])[H])C([H])([H])[H])C([H])(C(=O)N([H])C1([H])c3c([H])c([H])c([H])c([H])c3C([H])([H])C([H])([H])C1([H])[H])C2([H])[H]

>  <smiles>  (1) 
[H]C(=Nc1sc(C([H])=C([H])C(=O)N2C([H])([H])C([H])([H])C([H])([H])C([H])(n3nc(-c4c([H])c([H])c(Oc5c([H])c([H])c(F)c([H])c5F)c([H])c4[H])c(C(=O)N([H])[H])c3N([H])[H])C2([H])[H])c(C([H])([H])[H])c1[H])C([H])([H])Oc1c([H])c([H])c2c(c1[H])C([H])([H])N(C(=O)C([H])(N([H])C(=O)C([H])(N([H])C([H])([H])[H])C([H])([H])[H])C(C([H])([H])[H])(C([H])([H])[H])C([H])([H])[H])C([H])(C(=O)N([H])C1([H])c3c([H])c([H])c([H])c([H])c3C([H])([H])C([H])([H])C1([H])[H])C2([H])[H]

$$$$
1:0:0
     RDKit          3D

 96105  0  0  1  0  0  0  0  0999 V2000
  -27.3820  -18.2780   19.8990 C   0  0  0  0  0  3  0  0  0  0  0  0
  -30.0460  -18.2870   20.6020 C   0  0  0  0  0  3  0  0  0  0  0  0
  -27.9710  -17.0750   20.3510 C   0  0  0  0  0  0  0  0  0  0  0  0
  -29.3900  -16.9790   20.5280 C   0  0  0  0  0  0  0  0  0  0  0  0
  -28.0720  -19.5060   19.8540 C   0  0  0  0  0  0  0  0  0  0  0  0
  -29.3810  -19.5750   20.3840 C   0  0  0  0  0  0  0  0  0  0  0  0
  -30.0100  -15.5780   20.9250 C   0  0  0  0  0  0  0  0  0  0  0  0
  -30.1900  -15.3710   22.1640 N   0  0  0  0  0  0  0  0  0  0  0  0
  -29.8830  -16.1650   22.7120 H   0  0  0  0  0  0  0  0  0  0  0  0
  -30.4820  -14.3990   19.9340 C   0  0  0  0  0  0  0  0  0  0  0  0
  -30.2830  -12.1120   18.9030 C   0  0  0  0  0  2  0  0  0  0  0  0
  -29.2540  -12.1170   17.7490 C   0  0  0  0  0  2  0  0  0  0  0  0
  -27.8260  -11.8940   18.2830 C   0  0  0  0  0  2  0  0  0  0  0  0
  -27.5130  -12.7850   19.5160 C   0  0  0  0  0  3  0  0  0  0  0  0
  -28.6540  -12.6970   20.5560 C   0  0  0  0  0  2  0  0  0  0  0  0
  -29.8860  -13.1460   19.8980 N   0  0  0  0  0  0  0  0  0  0  0  0
  -31.5160  -14.5810   19.2790 O   0  0  0  0  0  0  0  0  0  0  0  0
  -25.1410  -13.3100   20.3450 C   0  0  0  0  0  0  0  0  0  0  0  0
  -24.1340  -12.5150   20.8170 C   0  0  0  0  0  0  0  0  0  0  0  0
  -24.6380  -11.1800   20.7800 C   0  0  0  0  0  0  0  0  0  0  0  0
  -26.2080  -12.4650   20.0870 N   0  0  0  0  0  0  0  0  0  0  0  0
  -25.9100  -11.1760   20.3960 N   0  0  0  0  0  0  0  0  0  0  0  0
  -23.9630   -9.9000   21.0320 C   0  0  0  0  0  0  0  0  0  0  0  0
  -24.4300   -9.0000   22.0140 C   0  0  0  0  0  3  0  0  0  0  0  0
  -23.7510   -7.7850   22.2510 C   0  0  0  0  0  3  0  0  0  0  0  0
  -22.5920   -7.4620   21.5050 C   0  0  0  0  0  0  0  0  0  0  0  0
  -22.1450   -8.3510   20.5120 C   0  0  0  0  0  3  0  0  0  0  0  0
  -22.8250   -9.5580   20.2740 C   0  0  0  0  0  3  0  0  0  0  0  0
  -21.8840   -6.2940   21.6490 O   0  0  0  0  0  0  0  0  0  0  0  0
  -21.8130   -5.6390   22.8530 C   0  0  0  0  0  0  0  0  0  0  0  0
  -21.2810   -6.2570   24.0060 C   0  0  0  0  0  3  0  0  0  0  0  0
  -21.1610   -5.5260   25.2040 C   0  0  0  0  0  3  0  0  0  0  0  0
  -21.5650   -4.1780   25.2510 C   0  0  0  0  0  0  0  0  0  0  0  0
  -22.0890   -3.5600   24.1020 C   0  0  0  0  0  3  0  0  0  0  0  0
  -22.2100   -4.2880   22.9060 C   0  0  0  0  0  0  0  0  0  0  0  0
  -22.6950   -3.6820   21.7960 F   0  0  0  0  0  0  0  0  0  0  0  0
  -21.4430   -3.4740   26.4000 F   0  0  0  0  0  0  0  0  0  0  0  0
  -22.7460  -12.9570   21.1800 C   0  0  0  0  0  0  0  0  0  0  0  0
  -22.1090  -12.2660   22.1180 N   0  0  0  0  0  0  0  0  0  0  0  0
  -22.2370  -13.9540   20.6680 O   0  0  0  0  0  0  0  0  0  0  0  0
  -22.5360  -11.4600   22.5510 H   0  0  0  0  0  0  0  0  0  0  0  0
  -21.1830  -12.5460   22.4090 H   0  0  0  0  0  0  0  0  0  0  0  0
  -25.2200  -14.6700   20.0860 N   0  0  0  0  0  4  0  0  0  0  0  0
  -24.4420  -15.2930   20.2640 H   0  0  0  0  0  0  0  0  0  0  0  0
  -26.0480  -15.1500   19.7580 H   0  0  0  0  0  0  0  0  0  0  0  0
  -25.6850  -16.0760   20.7730 C   0  0  0  0  0  2  0  0  0  0  0  0
  -27.0300  -16.0100   20.7820 C   0  0  0  0  0  2  0  0  0  0  0  0
  -27.5140  -20.6540   19.3250 O   0  0  0  0  0  0  0  0  0  0  0  0
  -26.4920  -20.5440   18.3430 C   0  0  0  0  0  2  0  0  0  0  0  0
  -25.2230  -22.5950   17.5660 C   0  0  0  0  0  2  0  0  0  0  0  0
  -26.3450  -21.8570   17.6040 C   0  0  0  0  0  3  0  0  0  0  0  0
  -29.9760  -20.8630   20.5810 O   0  0  0  0  0  0  0  0  0  0  0  0
  -29.2050  -22.0480   21.1120 C   0  0  0  0  0  2  0  0  0  0  0  0
  -29.4420  -23.5660   20.5760 C   0  0  0  0  0  3  0  0  0  0  0  0
  -28.5310  -24.7790   21.1600 C   0  0  0  0  0  3  0  0  0  0  0  0
  -28.7380  -26.2300   20.8100 O   0  0  0  0  0  0  0  0  0  0  0  0
  -24.7250  -31.7590   23.3160 C   0  0  0  0  0  0  0  0  0  0  0  0
  -27.6180  -27.0830   20.6840 C   0  0  0  0  0  0  0  0  0  0  0  0
  -23.6700  -30.2780   21.6450 C   0  0  0  0  0  3  0  0  0  0  0  0
  -25.2470  -28.6810   20.4100 C   0  0  0  0  0  0  0  0  0  0  0  0
  -26.2150  -30.6150   21.6510 C   0  0  0  0  0  2  0  0  0  0  0  0
  -26.3620  -29.2090   21.0730 C   0  0  0  0  0  0  0  0  0  0  0  0
  -27.5550  -28.4250   21.1900 C   0  0  0  0  0  3  0  0  0  0  0  0
  -26.4780  -26.6140   19.9970 C   0  0  0  0  0  3  0  0  0  0  0  0
  -25.3110  -27.3900   19.8610 C   0  0  0  0  0  3  0  0  0  0  0  0
  -24.0030  -29.5460   20.3180 C   0  0  0  0  0  2  0  0  0  0  0  0
  -24.8850  -30.9060   22.2610 N   0  0  0  0  0  0  0  0  0  0  0  0
  -23.5980  -32.0420   23.7510 O   0  0  0  0  0  0  0  0  0  0  0  0
  -22.9400  -29.2950   22.5940 C   0  0  0  0  0  0  0  0  0  0  0  0
  -21.6160  -29.1510   22.4170 N   0  0  0  0  0  0  0  0  0  0  0  0
  -23.5680  -28.6640   23.4480 O   0  0  0  0  0  0  0  0  0  0  0  0
  -21.1700  -29.7130   21.7050 H   0  0  0  0  0  0  0  0  0  0  0  0
  -18.1720  -28.1430   22.8860 C   0  0  0  0  0  0  0  0  0  0  0  0
  -20.7410  -28.2460   23.1640 C   0  0  0  0  0  3  0  0  0  0  0  0
  -20.7610  -26.8240   22.5580 C   0  0  0  0  0  2  0  0  0  0  0  0
  -19.6440  -26.5880   21.5350 C   0  0  0  0  0  2  0  0  0  0  0  0
  -18.2710  -26.8000   22.1800 C   0  0  0  0  0  2  0  0  0  0  0  0
  -19.3320  -28.8290   23.3340 C   0  0  0  0  0  0  0  0  0  0  0  0
  -19.1860  -30.0900   23.9520 C   0  0  0  0  0  3  0  0  0  0  0  0
  -17.9120  -30.6610   24.1300 C   0  0  0  0  0  3  0  0  0  0  0  0
  -16.7660  -29.9710   23.6990 C   0  0  0  0  0  3  0  0  0  0  0  0
  -16.8970  -28.7140   23.0820 C   0  0  0  0  0  3  0  0  0  0  0  0
  -25.9460  -32.4360   24.0110 C   0  0  0  0  0  3  0  0  0  0  0  0
  -26.3770  -31.7120   25.3460 C   0  0  1  0  0  0  0  0  0  0  0  0
  -25.2090  -31.4740   26.3320 C   0  0  0  0  0  1  0  0  0  0  0  0
  -27.0250  -30.3420   25.0420 C   0  0  0  0  0  1  0  0  0  0  0  0
  -27.4500  -32.5560   26.0750 C   0  0  0  0  0  1  0  0  0  0  0  0
  -25.5900  -33.8370   24.2770 N   0  0  0  0  0  0  0  0  0  0  0  0
  -25.9400  -34.8720   23.5020 C   0  0  0  0  0  0  0  0  0  0  0  0
  -26.6650  -34.7500   22.5100 O   0  0  0  0  0  0  0  0  0  0  0  0
  -24.9580  -34.0040   25.0450 H   0  0  0  0  0  0  0  0  0  0  0  0
  -24.1900  -36.6100   23.0100 C   0  0  0  0  0  1  0  0  0  0  0  0
  -25.4030  -36.2640   23.8880 C   0  0  0  0  0  3  0  0  0  0  0  0
  -27.4740  -37.2320   24.7810 C   0  0  0  0  0  1  0  0  0  0  0  0
  -26.4150  -37.3380   23.7820 N   0  0  0  0  0  0  0  0  0  0  0  0
  -25.9810  -38.2520   23.8750 H   0  0  0  0  0  0  0  0  0  0  0  0
  1  3  1  0
  3  4  2  0
  3 47  1  0
  4  2  1  0
  4  7  1  0
  5  1  2  0
  5  6  1  0
  6 52  1  0
  6  2  2  0
  7  8  2  0
  8  9  1  0
 10  7  1  0
 11 16  1  0
 12 13  1  0
 12 11  1  0
 14 13  1  0
 14 21  1  0
 14 15  1  0
 16 10  1  0
 16 15  1  0
 17 10  2  0
 18 19  2  0
 19 38  1  0
 20 19  1  0
 20 23  1  0
 21 18  1  0
 21 22  1  0
 22 20  2  0
 23 24  1  0
 24 25  2  0
 26 29  1  0
 26 25  1  0
 27 26  2  0
 28 27  1  0
 28 23  2  0
 29 30  1  0
 30 35  2  0
 30 31  1  0
 31 32  2  0
 32 33  1  0
 33 37  1  0
 34 33  2  0
 35 34  1  0
 36 35  1  0
 38 39  1  0
 39 42  1  0
 39 41  1  0
 40 38  2  0
 43 44  1  0
 43 18  1  0
 43 46  1  0
 45 43  1  0
 46 47  1  0
 48  5  1  0
 49 48  1  0
 50 51  2  0
 51 49  1  0
 52 53  1  0
 54 53  1  0
 54 55  2  0
 56 55  1  0
 57 68  2  0
 58 56  1  0
 58 63  1  0
 59 67  1  0
 59 69  1  0
 60 62  1  0
 61 67  1  0
 62 63  2  0
 62 61  1  0
 64 58  2  0
 65 64  1  0
 65 60  2  0
 66 60  1  0
 66 59  1  0
 67 57  1  0
 69 71  2  0
 70 69  1  0
 72 70  1  0
 73 82  2  0
 73 78  1  0
 74 70  1  0
 74 78  1  0
 75 74  1  0
 76 77  1  0
 76 75  1  0
 77 73  1  0
 78 79  2  0
 79 80  1  0
 81 80  2  0
 82 81  1  0
 83 57  1  0
 83 88  1  0
 83 84  1  0
 84 87  1  1
 84 85  1  0
 86 84  1  0
 88 91  1  0
 89 93  1  0
 89 88  1  0
 90 89  2  0
 93 92  1  0
 95 96  1  0
 95 93  1  0
 95 94  1  0
M  ISO  4   7 100  10 100  55 101  56 101
M  END
>  <TORSDO>  (2) 
F 25

>  <SCORE>  (2) 
-10.602

>  <name>  (2) 
1

>  <ligand_id>  (2) 
1

>  <original_smiles>  (2) 
[H]N=C(C(=O)N1C([H])([H])C([H])([H])C([H])([H])C([H])(n2nc(-c3c([H])c([H])c(Oc4c([H])c([H])c(F)c([H])c4F)c([H])c3[H])c(C(=O)N([H])[H])c2N([H])[H])C1([H])[H])c1c([H])c(OC([H])([H])C([H])([H])C([H])([H])Oc2c([H])c([H])c3c(c2[H])C([H])([H])N(C(=O)C([H])(N([H])C(=O)C([H])(N([H])C([H])([H])[H])C([H])([H])[H])C(C([H])([H])[H])(C([H])([H])[H])C([H])([H])[H])C([H])(C(=O)N([H])C2([H])c4c([H])c([H])c([H])c([H])c4C([H])([H])C([H])([H])C2([H])[H])C3([H])[H])c(OC([H])([H])C([H])=C([H])[H])c([H])c1C([H])=C([H])[H]

>  <smiles>  (2) 
[H]N=C(C(=O)N1C([H])([H])C([H])([H])C([H])([H])C([H])(n2nc(-c3c([H])c([H])c(Oc4c([H])c([H])c(F)c([H])c4F)c([H])c3[H])c(C(=O)N([H])[H])c2N([H])[H])C1([H])[H])c1c([H])c(OC([H])([H])C([H])([H])C([H])([H])Oc2c([H])c([H])c3c(c2[H])C([H])([H])N(C(=O)C([H])(N([H])C(=O)C([H])(N([H])C([H])([H])[H])C([H])([H])[H])C(C([H])([H])[H])(C([H])([H])[H])C([H])([H])[H])C([H])(C(=O)N([H])C2([H])c4c([H])c([H])c([H])c([H])c4C([H])([H])C([H])([H])C2([H])[H])C3([H])[H])c(OC([H])([H])C([H])=C([H])[H])c([H])c1C([H])=C([H])[H]

$$$$
2:0:0
     RDKit          3D

 96105  0  0  1  0  0  0  0  0999 V2000
  -27.1340  -23.6430   18.5450 C   0  0  0  0  0  3  0  0  0  0  0  0
  -28.3140  -23.9270   19.1370 C   0  0  0  0  0  0  0  0  0  0  0  0
  -26.5860  -22.2900   18.4700 C   0  0  0  0  0  0  0  0  0  0  0  0
  -27.5480  -21.1050   18.5020 C   0  0  0  0  0  2  0  0  0  0  0  0
  -29.1890  -22.7110   19.6790 C   0  0  0  0  0  3  0  0  0  0  0  0
  -30.6980  -22.9870   19.6150 C   0  0  0  0  0  1  0  0  0  0  0  0
  -28.8860  -21.3660   19.0500 N   0  0  0  0  0  0  0  0  0  0  0  0
  -25.3770  -22.0800   18.3540 O   0  0  0  0  0  0  0  0  0  0  0  0
  -29.4670  -19.4460   20.5770 C   0  0  0  0  0  3  0  0  0  0  0  0
  -29.8580  -19.2390   18.2270 C   0  0  0  0  0  3  0  0  0  0  0  0
  -29.7420  -18.0480   20.7400 C   0  0  0  0  0  0  0  0  0  0  0  0
  -30.1450  -17.8420   18.3660 C   0  0  0  0  0  0  0  0  0  0  0  0
  -29.4840  -20.0800   19.3080 C   0  0  0  0  0  0  0  0  0  0  0  0
  -30.0950  -17.1980   19.6430 C   0  0  0  0  0  0  0  0  0  0  0  0
  -29.5750  -17.4440   22.1260 C   0  0  0  0  0  1  0  0  0  0  0  0
  -30.4000  -17.0600   17.0890 C   0  0  0  0  0  1  0  0  0  0  0  0
  -30.9790  -14.7100   19.4390 C   0  0  0  0  0  0  0  0  0  0  0  0
  -30.6850  -12.4430   18.4630 C   0  0  0  0  0  2  0  0  0  0  0  0
  -29.5830  -12.5480   17.3840 C   0  0  0  0  0  2  0  0  0  0  0  0
  -28.1810  -12.3860   18.0070 C   0  0  0  0  0  2  0  0  0  0  0  0
  -27.9860  -13.2610   19.2740 C   0  0  0  0  0  3  0  0  0  0  0  0
  -29.1850  -13.1170   20.2370 C   0  0  0  0  0  2  0  0  0  0  0  0
  -30.4010  -13.4680   19.4870 N   0  0  0  0  0  0  0  0  0  0  0  0
  -32.0820  -14.8750   18.9090 O   0  0  0  0  0  0  0  0  0  0  0  0
  -30.1940  -15.7460   19.8930 N   0  0  0  0  0  0  0  0  0  0  0  0
  -29.4430  -15.3950   20.4660 H   0  0  0  0  0  0  0  0  0  0  0  0
  -25.7650  -13.8720   20.4090 C   0  0  0  0  0  0  0  0  0  0  0  0
  -24.7310  -13.1050   20.8730 C   0  0  0  0  0  0  0  0  0  0  0  0
  -25.1150  -11.7470   20.6520 C   0  0  0  0  0  0  0  0  0  0  0  0
  -26.7160  -12.9810   19.9380 N   0  0  0  0  0  0  0  0  0  0  0  0
  -26.3390  -11.6920   20.1420 N   0  0  0  0  0  0  0  0  0  0  0  0
  -24.3660  -10.4980   20.8430 C   0  0  0  0  0  0  0  0  0  0  0  0
  -24.8160   -9.4960   21.7310 C   0  0  0  0  0  3  0  0  0  0  0  0
  -24.0680   -8.3120   21.9110 C   0  0  0  0  0  3  0  0  0  0  0  0
  -22.8570   -8.1220   21.2030 C   0  0  0  0  0  0  0  0  0  0  0  0
  -22.4250   -9.1140   20.3060 C   0  0  0  0  0  3  0  0  0  0  0  0
  -23.1730  -10.2900   20.1230 C   0  0  0  0  0  3  0  0  0  0  0  0
  -22.0790   -6.9940   21.2980 O   0  0  0  0  0  0  0  0  0  0  0  0
  -21.9580   -6.2990   22.4730 C   0  0  0  0  0  0  0  0  0  0  0  0
  -21.4810   -6.9090   23.6550 C   0  0  0  0  0  3  0  0  0  0  0  0
  -21.3070   -6.1410   24.8230 C   0  0  0  0  0  3  0  0  0  0  0  0
  -21.5980   -4.7640   24.8110 C   0  0  0  0  0  0  0  0  0  0  0  0
  -22.0670   -4.1520   23.6350 C   0  0  0  0  0  3  0  0  0  0  0  0
  -22.2430   -4.9180   22.4690 C   0  0  0  0  0  0  0  0  0  0  0  0
  -22.6760   -4.3200   21.3320 F   0  0  0  0  0  0  0  0  0  0  0  0
  -21.4210   -4.0250   25.9300 F   0  0  0  0  0  0  0  0  0  0  0  0
  -23.4160  -13.6040   21.4000 C   0  0  0  0  0  0  0  0  0  0  0  0
  -22.8140  -12.8780   22.3370 N   0  0  0  0  0  0  0  0  0  0  0  0
  -22.9370  -14.6700   21.0170 O   0  0  0  0  0  0  0  0  0  0  0  0
  -23.2150  -12.0130   22.6670 H   0  0  0  0  0  0  0  0  0  0  0  0
  -21.9380  -13.1940   22.7300 H   0  0  0  0  0  0  0  0  0  0  0  0
  -25.9690  -15.2460   20.3240 N   0  0  0  0  0  0  0  0  0  0  0  0
  -25.2580  -15.9140   20.6030 H   0  0  0  0  0  0  0  0  0  0  0  0
  -26.7530  -15.6790   19.8530 H   0  0  0  0  0  0  0  0  0  0  0  0
  -28.8300  -25.4210   18.9610 C   0  0  0  0  0  2  0  0  0  0  0  0
  -28.5140  -26.5250   19.9000 O   0  0  0  0  0  0  0  0  0  0  0  0
  -24.6410  -31.7170   23.0610 C   0  0  0  0  0  0  0  0  0  0  0  0
  -27.3740  -27.3440   19.8260 C   0  0  0  0  0  0  0  0  0  0  0  0
  -23.4720  -30.3460   21.3720 C   0  0  0  0  0  3  0  0  0  0  0  0
  -24.9610  -28.8900   19.8860 C   0  0  0  0  0  0  0  0  0  0  0  0
  -26.0020  -30.7360   21.2010 C   0  0  0  0  0  2  0  0  0  0  0  0
  -26.1160  -29.3860   20.5040 C   0  0  0  0  0  0  0  0  0  0  0  0
  -27.3180  -28.6170   20.4760 C   0  0  0  0  0  3  0  0  0  0  0  0
  -26.1920  -26.9060   19.1940 C   0  0  0  0  0  3  0  0  0  0  0  0
  -25.0000  -27.6550   19.2250 C   0  0  0  0  0  3  0  0  0  0  0  0
  -23.7010  -29.7270   19.9680 C   0  0  0  0  0  2  0  0  0  0  0  0
  -24.7240  -30.9490   21.9350 N   0  0  0  0  0  0  0  0  0  0  0  0
  -23.5520  -31.9460   23.6060 O   0  0  0  0  0  0  0  0  0  0  0  0
  -22.8380  -29.2780   22.2960 C   0  0  0  0  0  0  0  0  0  0  0  0
  -21.5100  -29.0970   22.1880 N   0  0  0  0  0  0  0  0  0  0  0  0
  -23.5370  -28.6210   23.0710 O   0  0  0  0  0  0  0  0  0  0  0  0
  -21.0060  -29.6800   21.5360 H   0  0  0  0  0  0  0  0  0  0  0  0
  -18.1470  -27.8850   22.7350 C   0  0  0  0  0  0  0  0  0  0  0  0
  -20.7130  -28.1190   22.9310 C   0  0  0  0  0  3  0  0  0  0  0  0
  -20.7880  -26.7250   22.2660 C   0  0  0  0  0  2  0  0  0  0  0  0
  -19.6500  -26.4670   21.2740 C   0  0  0  0  0  2  0  0  0  0  0  0
  -18.2920  -26.5790   21.9740 C   0  0  0  0  0  2  0  0  0  0  0  0
  -19.2840  -28.6170   23.1700 C   0  0  0  0  0  0  0  0  0  0  0  0
  -19.0930  -29.8430   23.8440 C   0  0  0  0  0  3  0  0  0  0  0  0
  -17.7960  -30.3370   24.0860 C   0  0  0  0  0  3  0  0  0  0  0  0
  -16.6740  -29.6030   23.6660 C   0  0  0  0  0  3  0  0  0  0  0  0
  -16.8500  -28.3780   22.9960 C   0  0  0  0  0  3  0  0  0  0  0  0
  -25.9080  -32.3600   23.7050 C   0  0  0  0  0  3  0  0  0  0  0  0
  -25.5590  -33.7320   24.0960 N   0  0  0  0  0  0  0  0  0  0  0  0
  -25.8510  -34.8270   23.3810 C   0  0  0  0  0  0  0  0  0  0  0  0
  -26.5140  -34.7880   22.3390 O   0  0  0  0  0  0  0  0  0  0  0  0
  -24.9670  -33.8330   24.9080 H   0  0  0  0  0  0  0  0  0  0  0  0
  -24.0690  -36.5830   23.1150 C   0  0  0  0  0  1  0  0  0  0  0  0
  -25.3260  -36.1790   23.9010 C   0  0  0  0  0  3  0  0  0  0  0  0
  -27.4370  -37.0910   24.7660 C   0  0  0  0  0  1  0  0  0  0  0  0
  -26.3270  -37.2660   23.8320 N   0  0  0  0  0  0  0  0  0  0  0  0
  -25.8950  -38.1670   24.0200 H   0  0  0  0  0  0  0  0  0  0  0  0
  -26.4530  -31.5510   24.9450 C   0  0  1  0  0  0  0  0  0  0  0  0
  -25.3740  -31.2460   26.0110 C   0  0  0  0  0  1  0  0  0  0  0  0
  -27.0650  -30.2030   24.4960 C   0  0  0  0  0  1  0  0  0  0  0  0
  -27.5900  -32.3440   25.6300 C   0  0  0  0  0  1  0  0  0  0  0  0
  1  2  2  0
  2  5  1  0
  3  4  1  0
  3  1  1  0
  4  7  1  0
  5  6  1  0
  7 13  1  0
  7  5  1  0
  8  3  2  0
  9 11  1  0
 10 12  2  0
 10 13  1  0
 11 15  1  0
 12 14  1  0
 13  9  2  0
 14 25  1  0
 14 11  2  0
 16 12  1  0
 17 23  1  0
 17 25  1  0
 18 23  1  0
 19 20  1  0
 19 18  1  0
 21 20  1  0
 21 30  1  0
 21 22  1  0
 23 22  1  0
 24 17  2  0
 25 26  1  0
 27 28  2  0
 28 47  1  0
 29 32  1  0
 29 28  1  0
 30 31  1  0
 30 27  1  0
 31 29  2  0
 32 33  1  0
 33 34  2  0
 35 38  1  0
 35 34  1  0
 36 35  2  0
 37 36  1  0
 37 32  2  0
 38 39  1  0
 39 40  1  0
 40 41  2  0
 42 41  1  0
 42 46  1  0
 43 42  2  0
 44 39  2  0
 44 43  1  0
 45 44  1  0
 47 48  1  0
 48 50  1  0
 48 51  1  0
 49 47  2  0
 52 27  1  0
 52 53  1  0
 54 52  1  0
 55  2  1  0
 55 56  1  0
 57 68  2  0
 58 56  1  0
 58 63  1  0
 59 67  1  0
 59 69  1  0
 60 66  1  0
 60 62  1  0
 61 67  1  0
 62 61  1  0
 63 62  2  0
 64 65  1  0
 64 58  2  0
 65 60  2  0
 66 59  1  0
 67 57  1  0
 69 71  2  0
 70 69  1  0
 72 70  1  0
 73 82  2  0
 73 78  1  0
 74 70  1  0
 74 78  1  0
 75 74  1  0
 76 77  1  0
 76 75  1  0
 77 73  1  0
 78 79  2  0
 79 80  1  0
 81 80  2  0
 82 81  1  0
 83 57  1  0
 83 84  1  0
 83 93  1  0
 84 87  1  0
 85 89  1  0
 85 84  1  0
 86 85  2  0
 89 88  1  0
 91 89  1  0
 91 92  1  0
 91 90  1  0
 93 96  1  1
 93 94  1  0
 95 93  1  0
M  ISO  4  17 100  25 100  55 101  56 101
M  END
>  <TORSDO>  (3) 
F 18

>  <SCORE>  (3) 
-12.159

>  <name>  (3) 
2

>  <ligand_id>  (3) 
2

>  <original_smiles>  (3) 
[H]C1=C(C([H])([H])Oc2c([H])c([H])c3c(c2[H])C([H])([H])N(C(=O)C([H])(N([H])C(=O)C([H])(N([H])C([H])([H])[H])C([H])([H])[H])C(C([H])([H])[H])(C([H])([H])[H])C([H])([H])[H])C([H])(C(=O)N([H])C2([H])c4c([H])c([H])c([H])c([H])c4C([H])([H])C([H])([H])C2([H])[H])C3([H])[H])C([H])(C([H])([H])[H])N(c2c([H])c(C([H])([H])[H])c(N([H])C(=O)N3C([H])([H])C([H])([H])C([H])([H])C([H])(n4nc(-c5c([H])c([H])c(Oc6c([H])c([H])c(F)c([H])c6F)c([H])c5[H])c(C(=O)N([H])[H])c4N([H])[H])C3([H])[H])c(C([H])([H])[H])c2[H])C([H])([H])C1=O

>  <smiles>  (3) 
[H]C1=C(C([H])([H])Oc2c([H])c([H])c3c(c2[H])C([H])([H])N(C(=O)C([H])(N([H])C(=O)C([H])(N([H])C([H])([H])[H])C([H])([H])[H])C(C([H])([H])[H])(C([H])([H])[H])C([H])([H])[H])C([H])(C(=O)N([H])C2([H])c4c([H])c([H])c([H])c([H])c4C([H])([H])C([H])([H])C2([H])[H])C3([H])[H])C([H])(C([H])([H])[H])N(c2c([H])c(C([H])([H])[H])c(N([H])C(=O)N3C([H])([H])C([H])([H])C([H])([H])C([H])(n4nc(-c5c([H])c([H])c(Oc6c([H])c([H])c(F)c([H])c6F)c([H])c5[H])c(C(=O)N([H])[H])c4N([H])[H])C3([H])[H])c(C([H])([H])[H])c2[H])C([H])([H])C1=O

$$$$
3:0:0
     RDKit          3D

 94102  0  0  1  0  0  0  0  0999 V2000
  -27.2030  -18.0750   20.4840 C   0  0  0  0  0  3  0  0  0  0  0  0
  -28.1480  -17.0420   20.5860 C   0  0  0  0  0  3  0  0  0  0  0  0
  -27.5940  -19.3900   20.1950 C   0  0  0  0  0  3  0  0  0  0  0  0
  -29.5280  -17.2500   20.3990 C   0  0  0  0  0  0  0  0  0  0  0  0
  -29.9270  -18.6360   20.0770 C   0  0  0  0  0  0  0  0  0  0  0  0
  -28.9430  -19.7390   19.9880 C   0  0  0  0  0  0  0  0  0  0  0  0
  -28.9470  -22.3460   20.2270 C   0  0  0  0  0  0  0  0  0  0  0  0
  -29.0990  -21.1520   19.5250 N   0  0  0  0  0  0  0  0  0  0  0  0
  -29.4490  -22.4520   21.3470 O   0  0  0  0  0  0  0  0  0  0  0  0
  -28.8630  -21.2610   18.5480 H   0  0  0  0  0  0  0  0  0  0  0  0
  -28.0990  -23.6090   19.6790 C   0  0  0  0  0  2  0  0  0  0  0  0
  -28.6790  -25.0750   19.2650 C   0  0  0  0  0  2  0  0  0  0  0  0
  -28.4920  -26.4030   19.9550 O   0  0  0  0  0  0  0  0  0  0  0  0
  -24.7470  -31.6910   23.1600 C   0  0  0  0  0  0  0  0  0  0  0  0
  -27.3640  -27.2530   19.8790 C   0  0  0  0  0  0  0  0  0  0  0  0
  -23.5410  -30.3620   21.4610 C   0  0  0  0  0  3  0  0  0  0  0  0
  -24.9910  -28.8800   19.9480 C   0  0  0  0  0  0  0  0  0  0  0  0
  -26.0780  -30.6920   21.2790 C   0  0  0  0  0  2  0  0  0  0  0  0
  -26.1590  -29.3420   20.5650 C   0  0  0  0  0  0  0  0  0  0  0  0
  -27.3410  -28.5370   20.5220 C   0  0  0  0  0  3  0  0  0  0  0  0
  -26.1760  -26.8540   19.2310 C   0  0  0  0  0  3  0  0  0  0  0  0
  -25.0050  -27.6460   19.2690 C   0  0  0  0  0  3  0  0  0  0  0  0
  -23.7490  -29.7470   20.0500 C   0  0  0  0  0  2  0  0  0  0  0  0
  -24.8080  -30.9330   22.0240 N   0  0  0  0  0  0  0  0  0  0  0  0
  -23.6660  -31.9370   23.7150 O   0  0  0  0  0  0  0  0  0  0  0  0
  -22.8850  -29.3050   22.3820 C   0  0  0  0  0  0  0  0  0  0  0  0
  -21.5570  -29.1370   22.2660 N   0  0  0  0  0  0  0  0  0  0  0  0
  -23.5740  -28.6370   23.1600 O   0  0  0  0  0  0  0  0  0  0  0  0
  -21.0600  -29.7270   21.6120 H   0  0  0  0  0  0  0  0  0  0  0  0
  -18.1860  -27.9200   22.7580 C   0  0  0  0  0  0  0  0  0  0  0  0
  -20.7490  -28.1610   22.9990 C   0  0  0  0  0  3  0  0  0  0  0  0
  -20.8380  -26.7620   22.3460 C   0  0  0  0  0  2  0  0  0  0  0  0
  -19.7190  -26.4970   21.3340 C   0  0  0  0  0  2  0  0  0  0  0  0
  -18.3480  -26.6090   22.0070 C   0  0  0  0  0  2  0  0  0  0  0  0
  -19.3130  -28.6560   23.2110 C   0  0  0  0  0  0  0  0  0  0  0  0
  -19.1070  -29.8850   23.8750 C   0  0  0  0  0  3  0  0  0  0  0  0
  -17.8060  -30.3770   24.0910 C   0  0  0  0  0  3  0  0  0  0  0  0
  -16.6930  -29.6370   23.6540 C   0  0  0  0  0  3  0  0  0  0  0  0
  -16.8840  -28.4100   22.9940 C   0  0  0  0  0  3  0  0  0  0  0  0
  -26.0300  -32.3010   23.8040 C   0  0  0  0  0  3  0  0  0  0  0  0
  -25.7120  -33.6770   24.2130 N   0  0  0  0  0  0  0  0  0  0  0  0
  -26.0300  -34.7750   23.5130 C   0  0  0  0  0  0  0  0  0  0  0  0
  -26.6910  -34.7340   22.4720 O   0  0  0  0  0  0  0  0  0  0  0  0
  -25.1230  -33.7820   25.0260 H   0  0  0  0  0  0  0  0  0  0  0  0
  -24.2880  -36.5740   23.2760 C   0  0  0  0  0  1  0  0  0  0  0  0
  -25.5390  -36.1320   24.0520 C   0  0  0  0  0  3  0  0  0  0  0  0
  -27.6690  -36.9900   24.9230 C   0  0  0  0  0  1  0  0  0  0  0  0
  -26.5640  -37.1970   23.9900 N   0  0  0  0  0  0  0  0  0  0  0  0
  -26.1520  -38.1060   24.1830 H   0  0  0  0  0  0  0  0  0  0  0  0
  -26.5640  -31.4690   25.0350 C   0  0  1  0  0  0  0  0  0  0  0  0
  -25.4830  -31.1700   26.0990 C   0  0  0  0  0  1  0  0  0  0  0  0
  -27.1510  -30.1170   24.5690 C   0  0  0  0  0  1  0  0  0  0  0  0
  -27.7170  -32.2360   25.7250 C   0  0  0  0  0  1  0  0  0  0  0  0
  -30.3780  -16.0110   20.8700 C   0  0  0  0  0  0  0  0  0  0  0  0
  -30.7050  -15.9960   22.0960 N   0  0  0  0  0  0  0  0  0  0  0  0
  -30.3500  -16.8190   22.5700 H   0  0  0  0  0  0  0  0  0  0  0  0
  -30.8610  -14.7680   19.9790 C   0  0  0  0  0  0  0  0  0  0  0  0
  -30.5910  -12.4670   19.0150 C   0  0  0  0  0  2  0  0  0  0  0  0
  -29.6100  -12.4960   17.8240 C   0  0  0  0  0  2  0  0  0  0  0  0
  -28.1630  -12.3150   18.3150 C   0  0  0  0  0  2  0  0  0  0  0  0
  -27.8310  -13.2310   19.5230 C   0  0  0  0  0  3  0  0  0  0  0  0
  -28.9340  -13.1890   20.6080 C   0  0  0  0  0  2  0  0  0  0  0  0
  -30.2070  -13.5450   19.9670 N   0  0  0  0  0  0  0  0  0  0  0  0
  -31.9330  -14.8810   19.3750 O   0  0  0  0  0  0  0  0  0  0  0  0
  -25.4720  -13.8110   20.3470 C   0  0  0  0  0  0  0  0  0  0  0  0
  -24.4320  -13.0400   20.7830 C   0  0  0  0  0  0  0  0  0  0  0  0
  -24.8930  -11.6900   20.7280 C   0  0  0  0  0  0  0  0  0  0  0  0
  -26.5110  -12.9380   20.0720 N   0  0  0  0  0  0  0  0  0  0  0  0
  -26.1680  -11.6540   20.3570 N   0  0  0  0  0  0  0  0  0  0  0  0
  -24.1730  -10.4300   20.9450 C   0  0  0  0  0  0  0  0  0  0  0  0
  -24.5700   -9.5150   21.9450 C   0  0  0  0  0  3  0  0  0  0  0  0
  -23.8460   -8.3200   22.1480 C   0  0  0  0  0  3  0  0  0  0  0  0
  -22.7110   -8.0330   21.3540 C   0  0  0  0  0  0  0  0  0  0  0  0
  -22.3330   -8.9370   20.3450 C   0  0  0  0  0  3  0  0  0  0  0  0
  -23.0580  -10.1230   20.1390 C   0  0  0  0  0  3  0  0  0  0  0  0
  -21.9620   -6.8870   21.4640 O   0  0  0  0  0  0  0  0  0  0  0  0
  -21.7700   -6.2680   22.6730 C   0  0  0  0  0  0  0  0  0  0  0  0
  -21.1440   -6.9240   23.7550 C   0  0  0  0  0  3  0  0  0  0  0  0
  -20.9050   -6.2280   24.9580 C   0  0  0  0  0  3  0  0  0  0  0  0
  -21.2810   -4.8760   25.0760 C   0  0  0  0  0  0  0  0  0  0  0  0
  -21.9010   -4.2200   23.9980 C   0  0  0  0  0  3  0  0  0  0  0  0
  -22.1410   -4.9140   22.7990 C   0  0  0  0  0  0  0  0  0  0  0  0
  -22.7190   -4.2710   21.7550 F   0  0  0  0  0  0  0  0  0  0  0  0
  -21.0450   -4.2050   26.2270 F   0  0  0  0  0  0  0  0  0  0  0  0
  -23.0510  -13.5220   21.1230 C   0  0  0  0  0  0  0  0  0  0  0  0
  -22.3680  -12.8330   22.0310 N   0  0  0  0  0  0  0  0  0  0  0  0
  -22.5910  -14.5480   20.6230 O   0  0  0  0  0  0  0  0  0  0  0  0
  -22.7550  -12.0040   22.4560 H   0  0  0  0  0  0  0  0  0  0  0  0
  -21.4460  -13.1400   22.3030 H   0  0  0  0  0  0  0  0  0  0  0  0
  -25.5990  -15.1760   20.1310 N   0  0  0  0  0  0  0  0  0  0  0  0
  -24.7970  -15.7910   20.2140 H   0  0  0  0  0  0  0  0  0  0  0  0
  -26.3770  -15.6050   19.6460 H   0  0  0  0  0  0  0  0  0  0  0  0
  -32.0270  -20.0450   20.1100 C   0  0  0  0  0  2  0  0  0  0  0  0
  -31.3750  -18.8850   19.9230 C   0  0  0  0  0  3  0  0  0  0  0  0
  1  2  1  0
  3  1  2  0
  4  2  2  0
  4 54  1  0
  5  4  1  0
  6  5  2  0
  6  3  1  0
  7  9  2  0
  8  6  1  0
  8  7  1  0
 10  8  1  0
 11  7  1  0
 12 11  1  0
 12 13  1  0
 14 25  2  0
 15 13  1  0
 15 20  1  0
 16 24  1  0
 16 26  1  0
 17 23  1  0
 17 19  1  0
 18 24  1  0
 19 18  1  0
 20 19  2  0
 21 22  1  0
 21 15  2  0
 22 17  2  0
 23 16  1  0
 24 14  1  0
 26 28  2  0
 27 26  1  0
 29 27  1  0
 30 39  2  0
 30 35  1  0
 31 27  1  0
 31 35  1  0
 32 31  1  0
 33 34  1  0
 33 32  1  0
 34 30  1  0
 35 36  2  0
 36 37  1  0
 38 37  2  0
 39 38  1  0
 40 14  1  0
 40 41  1  0
 40 50  1  0
 41 44  1  0
 42 46  1  0
 42 41  1  0
 43 42  2  0
 46 45  1  0
 48 46  1  0
 48 49  1  0
 48 47  1  0
 50 53  1  1
 50 51  1  0
 52 50  1  0
 54 55  2  0
 55 56  1  0
 57 54  1  0
 58 63  1  0
 59 60  1  0
 59 58  1  0
 61 60  1  0
 61 68  1  0
 61 62  1  0
 63 57  1  0
 63 62  1  0
 64 57  2  0
 65 66  2  0
 66 85  1  0
 67 66  1  0
 67 70  1  0
 68 65  1  0
 68 69  1  0
 69 67  2  0
 70 71  1  0
 71 72  2  0
 73 76  1  0
 73 72  1  0
 74 73  2  0
 75 74  1  0
 75 70  2  0
 76 77  1  0
 77 82  2  0
 77 78  1  0
 78 79  2  0
 79 80  1  0
 80 84  1  0
 81 80  2  0
 82 81  1  0
 83 82  1  0
 85 86  1  0
 86 89  1  0
 86 88  1  0
 87 85  2  0
 90 91  1  0
 90 65  1  0
 92 90  1  0
 94  5  1  0
 94 93  2  0
M  ISO  4  12 101  13 101  54 100  57 100
M  END
>  <TORSDO>  (4) 
F 21

>  <SCORE>  (4) 
-12.844

>  <name>  (4) 
3

>  <ligand_id>  (4) 
3

>  <original_smiles>  (4) 
[H]N=C(C(=O)N1C([H])([H])C([H])([H])C([H])([H])C([H])(n2nc(-c3c([H])c([H])c(Oc4c([H])c([H])c(F)c([H])c4F)c([H])c3[H])c(C(=O)N([H])[H])c2N([H])[H])C1([H])[H])c1c([H])c([H])c([H])c(N([H])C(=O)C([H])([H])C([H])([H])Oc2c([H])c([H])c3c(c2[H])C([H])([H])N(C(=O)C([H])(N([H])C(=O)C([H])(N([H])C([H])([H])[H])C([H])([H])[H])C(C([H])([H])[H])(C([H])([H])[H])C([H])([H])[H])C([H])(C(=O)N([H])C2([H])c4c([H])c([H])c([H])c([H])c4C([H])([H])C([H])([H])C2([H])[H])C3([H])[H])c1C([H])=C([H])[H]

>  <smiles>  (4) 
[H]N=C(C(=O)N1C([H])([H])C([H])([H])C([H])([H])C([H])(n2nc(-c3c([H])c([H])c(Oc4c([H])c([H])c(F)c([H])c4F)c([H])c3[H])c(C(=O)N([H])[H])c2N([H])[H])C1([H])[H])c1c([H])c([H])c([H])c(N([H])C(=O)C([H])([H])C([H])([H])Oc2c([H])c([H])c3c(c2[H])C([H])([H])N(C(=O)C([H])(N([H])C(=O)C([H])(N([H])C([H])([H])[H])C([H])([H])[H])C(C([H])([H])[H])(C([H])([H])[H])C([H])([H])[H])C([H])(C(=O)N([H])C2([H])c4c([H])c([H])c([H])c([H])c4C([H])([H])C([H])([H])C2([H])[H])C3([H])[H])c1C([H])=C([H])[H]

$$$$
4:0:0
     RDKit          3D

 92100  0  0  1  0  0  0  0  0999 V2000
  -29.1850  -18.5990   18.6160 C   0  0  0  0  0  3  0  0  0  0  0  0
  -28.7030  -20.9950   18.6320 C   0  0  0  0  0  3  0  0  0  0  0  0
  -29.7330  -18.6390   19.9150 C   0  0  0  0  0  0  0  0  0  0  0  0
  -29.1720  -21.1450   19.9560 C   0  0  0  0  0  0  0  0  0  0  0  0
  -29.7050  -19.9340   20.5890 C   0  0  0  0  0  0  0  0  0  0  0  0
  -28.6890  -19.7470   17.9760 C   0  0  0  0  0  0  0  0  0  0  0  0
  -30.2640  -20.0220   22.0020 C   0  0  0  0  0  1  0  0  0  0  0  0
  -28.1690  -19.6370   16.6850 N   0  0  0  0  0  0  0  0  0  0  0  0
  -28.2900  -18.7810   16.1520 H   0  0  0  0  0  0  0  0  0  0  0  0
  -28.0010  -20.4580   16.1080 H   0  0  0  0  0  0  0  0  0  0  0  0
  -30.3580  -17.3080   20.3800 C   0  0  0  0  0  3  0  0  0  0  0  0
  -29.9330  -16.0190   20.1030 C   0  0  0  0  0  3  0  0  0  0  0  0
  -30.7410  -14.7620   20.2640 C   0  0  0  0  0  0  0  0  0  0  0  0
  -30.4780  -12.5030   19.2540 C   0  0  0  0  0  2  0  0  0  0  0  0
  -29.5350  -12.6210   18.0370 C   0  0  0  0  0  2  0  0  0  0  0  0
  -28.0660  -12.4410   18.4740 C   0  0  0  0  0  2  0  0  0  0  0  0
  -27.7010  -13.3140   19.7040 C   0  0  0  0  0  3  0  0  0  0  0  0
  -28.7780  -13.2380   20.8100 C   0  0  0  0  0  2  0  0  0  0  0  0
  -30.0790  -13.5560   20.2100 N   0  0  0  0  0  0  0  0  0  0  0  0
  -31.9600  -14.7960   20.0900 O   0  0  0  0  0  0  0  0  0  0  0  0
  -25.3180  -13.8970   20.4500 C   0  0  0  0  0  0  0  0  0  0  0  0
  -24.2560  -13.1170   20.8230 C   0  0  0  0  0  0  0  0  0  0  0  0
  -24.7280  -11.7700   20.7960 C   0  0  0  0  0  0  0  0  0  0  0  0
  -26.3650  -13.0210   20.2120 N   0  0  0  0  0  0  0  0  0  0  0  0
  -26.0190  -11.7380   20.4840 N   0  0  0  0  0  0  0  0  0  0  0  0
  -24.0120  -10.5020   20.9900 C   0  0  0  0  0  0  0  0  0  0  0  0
  -24.4500   -9.5460   21.9320 C   0  0  0  0  0  3  0  0  0  0  0  0
  -23.7340   -8.3430   22.1140 C   0  0  0  0  0  3  0  0  0  0  0  0
  -22.5690   -8.0880   21.3530 C   0  0  0  0  0  0  0  0  0  0  0  0
  -22.1530   -9.0320   20.3980 C   0  0  0  0  0  3  0  0  0  0  0  0
  -22.8680  -10.2280   20.2150 C   0  0  0  0  0  3  0  0  0  0  0  0
  -21.8260   -6.9360   21.4430 O   0  0  0  0  0  0  0  0  0  0  0  0
  -21.7610   -6.2110   22.6040 C   0  0  0  0  0  0  0  0  0  0  0  0
  -21.2820   -6.7700   23.8100 C   0  0  0  0  0  3  0  0  0  0  0  0
  -21.1720   -5.9680   24.9640 C   0  0  0  0  0  3  0  0  0  0  0  0
  -21.5270   -4.6060   24.9120 C   0  0  0  0  0  0  0  0  0  0  0  0
  -21.9960   -4.0450   23.7120 C   0  0  0  0  0  3  0  0  0  0  0  0
  -22.1100   -4.8450   22.5610 C   0  0  0  0  0  0  0  0  0  0  0  0
  -22.5450   -4.2960   21.4010 F   0  0  0  0  0  0  0  0  0  0  0  0
  -21.4100   -3.8340   26.0170 F   0  0  0  0  0  0  0  0  0  0  0  0
  -22.8540  -13.5850   21.0920 C   0  0  0  0  0  0  0  0  0  0  0  0
  -22.1350  -12.8820   21.9630 N   0  0  0  0  0  0  0  0  0  0  0  0
  -22.4060  -14.6050   20.5720 O   0  0  0  0  0  0  0  0  0  0  0  0
  -22.5170  -12.0600   22.4060 H   0  0  0  0  0  0  0  0  0  0  0  0
  -21.1940  -13.1690   22.1890 H   0  0  0  0  0  0  0  0  0  0  0  0
  -25.4710  -15.2690   20.2680 N   0  0  0  0  0  0  0  0  0  0  0  0
  -24.7010  -15.9230   20.3810 H   0  0  0  0  0  0  0  0  0  0  0  0
  -26.3240  -15.7160   19.9560 H   0  0  0  0  0  0  0  0  0  0  0  0
  -29.0250  -22.5540   20.5890 C   0  0  0  0  0  3  0  0  0  0  0  0
  -28.6390  -23.7720   20.0380 C   0  0  0  0  0  3  0  0  0  0  0  0
  -28.3250  -25.1310   20.8010 C   0  0  0  0  0  2  0  0  0  0  0  0
  -28.5220  -26.4710   20.1570 O   0  0  0  0  0  0  0  0  0  0  0  0
  -24.6670  -31.8480   23.1710 C   0  0  0  0  0  0  0  0  0  0  0  0
  -27.4130  -27.3440   20.1260 C   0  0  0  0  0  0  0  0  0  0  0  0
  -23.5170  -30.4390   21.5050 C   0  0  0  0  0  3  0  0  0  0  0  0
  -25.0240  -28.9330   20.0810 C   0  0  0  0  0  0  0  0  0  0  0  0
  -26.0560  -30.8020   21.3670 C   0  0  0  0  0  2  0  0  0  0  0  0
  -26.1750  -29.4310   20.7050 C   0  0  0  0  0  0  0  0  0  0  0  0
  -27.3750  -28.6520   20.7110 C   0  0  0  0  0  3  0  0  0  0  0  0
  -26.2440  -26.9110   19.4670 C   0  0  0  0  0  3  0  0  0  0  0  0
  -25.0630  -27.6800   19.4490 C   0  0  0  0  0  3  0  0  0  0  0  0
  -23.7650  -29.7800   20.1240 C   0  0  0  0  0  2  0  0  0  0  0  0
  -24.7650  -31.0490   22.0690 N   0  0  0  0  0  0  0  0  0  0  0  0
  -23.5710  -32.0990   23.6930 O   0  0  0  0  0  0  0  0  0  0  0  0
  -22.8600  -29.4020   22.4440 C   0  0  0  0  0  0  0  0  0  0  0  0
  -21.5410  -29.1960   22.2910 N   0  0  0  0  0  0  0  0  0  0  0  0
  -23.5380  -28.7830   23.2700 O   0  0  0  0  0  0  0  0  0  0  0  0
  -21.0550  -29.7410   21.5930 H   0  0  0  0  0  0  0  0  0  0  0  0
  -18.1790  -27.9330   22.7190 C   0  0  0  0  0  0  0  0  0  0  0  0
  -20.7270  -28.2360   23.0380 C   0  0  0  0  0  3  0  0  0  0  0  0
  -20.8680  -26.8140   22.4480 C   0  0  0  0  0  2  0  0  0  0  0  0
  -19.7880  -26.4820   21.4130 C   0  0  0  0  0  2  0  0  0  0  0  0
  -18.3920  -26.5940   22.0320 C   0  0  0  0  0  2  0  0  0  0  0  0
  -19.2750  -28.7120   23.1750 C   0  0  0  0  0  0  0  0  0  0  0  0
  -19.0220  -29.9660   23.7710 C   0  0  0  0  0  3  0  0  0  0  0  0
  -17.7040  -30.4420   23.9170 C   0  0  0  0  0  3  0  0  0  0  0  0
  -16.6230  -29.6580   23.4800 C   0  0  0  0  0  3  0  0  0  0  0  0
  -16.8600  -28.4060   22.8870 C   0  0  0  0  0  3  0  0  0  0  0  0
  -25.9270  -32.5000   23.8170 C   0  0  0  0  0  3  0  0  0  0  0  0
  -26.4300  -31.7310   25.0990 C   0  0  1  0  0  0  0  0  0  0  0  0
  -25.3220  -31.4720   26.1450 C   0  0  0  0  0  1  0  0  0  0  0  0
  -27.0430  -30.3640   24.7150 C   0  0  0  0  0  1  0  0  0  0  0  0
  -27.5490  -32.5450   25.7910 C   0  0  0  0  0  1  0  0  0  0  0  0
  -25.5860  -33.8890   24.1490 N   0  0  0  0  0  0  0  0  0  0  0  0
  -25.9040  -34.9540   23.3990 C   0  0  0  0  0  0  0  0  0  0  0  0
  -26.5830  -34.8700   22.3730 O   0  0  0  0  0  0  0  0  0  0  0  0
  -24.9850  -34.0260   24.9470 H   0  0  0  0  0  0  0  0  0  0  0  0
  -24.1410  -36.7120   23.0400 C   0  0  0  0  0  1  0  0  0  0  0  0
  -25.3830  -36.3290   23.8600 C   0  0  0  0  0  3  0  0  0  0  0  0
  -27.4870  -37.2550   24.7200 C   0  0  0  0  0  1  0  0  0  0  0  0
  -26.3930  -37.4060   23.7660 N   0  0  0  0  0  0  0  0  0  0  0  0
  -25.9640  -38.3140   23.9190 H   0  0  0  0  0  0  0  0  0  0  0  0
  1  3  1  0
  2  4  2  0
  3 11  1  0
  3  5  2  0
  4  5  1  0
  4 49  1  0
  5  7  1  0
  6  1  2  0
  6  2  1  0
  8  6  1  0
  9  8  1  0
 10  8  1  0
 12 13  1  0
 12 11  2  0
 14 19  1  0
 15 16  1  0
 15 14  1  0
 17 16  1  0
 17 24  1  0
 17 18  1  0
 19 13  1  0
 19 18  1  0
 20 13  2  0
 21 22  2  0
 22 41  1  0
 23 22  1  0
 23 26  1  0
 24 21  1  0
 24 25  1  0
 25 23  2  0
 26 27  1  0
 27 28  2  0
 29 32  1  0
 29 28  1  0
 30 29  2  0
 31 30  1  0
 31 26  2  0
 32 33  1  0
 33 34  1  0
 34 35  2  0
 36 35  1  0
 36 40  1  0
 37 36  2  0
 38 33  2  0
 38 37  1  0
 39 38  1  0
 41 42  1  0
 42 45  1  0
 42 44  1  0
 43 41  2  0
 46 47  1  0
 46 21  1  0
 48 46  1  0
 50 49  2  0
 50 51  1  0
 52 51  1  0
 53 64  2  0
 54 52  1  0
 54 59  1  0
 55 63  1  0
 55 65  1  0
 56 62  1  0
 56 58  1  0
 57 63  1  0
 58 59  2  0
 58 57  1  0
 60 54  2  0
 61 60  1  0
 61 56  2  0
 62 55  1  0
 63 53  1  0
 65 67  2  0
 66 65  1  0
 68 66  1  0
 69 78  2  0
 69 74  1  0
 70 66  1  0
 70 74  1  0
 71 70  1  0
 72 73  1  0
 72 71  1  0
 73 69  1  0
 74 75  2  0
 75 76  1  0
 77 76  2  0
 78 77  1  0
 79 53  1  0
 79 84  1  0
 79 80  1  0
 80 83  1  1
 80 81  1  0
 82 80  1  0
 84 87  1  0
 85 89  1  0
 85 84  1  0
 86 85  2  0
 89 88  1  0
 91 89  1  0
 91 92  1  0
 91 90  1  0
M  ISO  4  12 100  13 100  51 101  52 101
M  END
>  <TORSDO>  (5) 
F 20

>  <SCORE>  (5) 
-13.975

>  <name>  (5) 
4

>  <ligand_id>  (5) 
4

>  <original_smiles>  (5) 
[H]C(C(=O)N1C([H])([H])C([H])([H])C([H])([H])C([H])(n2nc(-c3c([H])c([H])c(Oc4c([H])c([H])c(F)c([H])c4F)c([H])c3[H])c(C(=O)N([H])[H])c2N([H])[H])C1([H])[H])=C([H])c1c([H])c(N([H])[H])c([H])c(C([H])=C([H])C([H])([H])Oc2c([H])c([H])c3c(c2[H])C([H])([H])N(C(=O)C([H])(N([H])C(=O)C([H])(N([H])C([H])([H])[H])C([H])([H])[H])C(C([H])([H])[H])(C([H])([H])[H])C([H])([H])[H])C([H])(C(=O)N([H])C2([H])c4c([H])c([H])c([H])c([H])c4C([H])([H])C([H])([H])C2([H])[H])C3([H])[H])c1C([H])([H])[H]

>  <smiles>  (5) 
[H]C(C(=O)N1C([H])([H])C([H])([H])C([H])([H])C([H])(n2nc(-c3c([H])c([H])c(Oc4c([H])c([H])c(F)c([H])c4F)c([H])c3[H])c(C(=O)N([H])[H])c2N([H])[H])C1([H])[H])=C([H])c1c([H])c(N([H])[H])c([H])c(C([H])=C([H])C([H])([H])Oc2c([H])c([H])c3c(c2[H])C([H])([H])N(C(=O)C([H])(N([H])C(=O)C([H])(N([H])C([H])([H])[H])C([H])([H])[H])C(C([H])([H])[H])(C([H])([H])[H])C([H])([H])[H])C([H])(C(=O)N([H])C2([H])c4c([H])c([H])c([H])c([H])c4C([H])([H])C([H])([H])C2([H])[H])C3([H])[H])c1C([H])([H])[H]

$$$$
5:0:0
     RDKit          3D

 93101  0  0  1  0  0  0  0  0999 V2000
  -32.3390  -18.5090   21.3460 C   0  0  0  0  0  3  0  0  0  0  0  0
  -31.8500  -17.2060   21.1740 C   0  0  0  0  0  3  0  0  0  0  0  0
  -29.6840  -18.1070   20.5190 C   0  0  0  0  0  0  0  0  0  0  0  0
  -31.5250  -19.6270   21.0900 C   0  0  0  0  0  0  0  0  0  0  0  0
  -30.5240  -16.9660   20.7400 C   0  0  0  0  0  0  0  0  0  0  0  0
  -30.1930  -19.4390   20.6340 C   0  0  0  0  0  0  0  0  0  0  0  0
  -32.0900  -21.0000   21.4140 C   0  0  0  0  0  1  0  0  0  0  0  0
  -30.6430  -14.5780   19.9190 C   0  0  0  0  0  0  0  0  0  0  0  0
  -30.2210  -12.4510   18.7270 C   0  0  0  0  0  2  0  0  0  0  0  0
  -29.1620  -12.6680   17.6280 C   0  0  0  0  0  2  0  0  0  0  0  0
  -27.7460  -12.4760   18.2000 C   0  0  0  0  0  2  0  0  0  0  0  0
  -27.5250  -13.2660   19.5180 C   0  0  0  0  0  3  0  0  0  0  0  0
  -28.6940  -13.0690   20.5100 C   0  0  0  0  0  2  0  0  0  0  0  0
  -29.9410  -13.4110   19.8110 N   0  0  0  0  0  0  0  0  0  0  0  0
  -31.7140  -14.7310   19.3290 O   0  0  0  0  0  0  0  0  0  0  0  0
  -30.0370  -15.6110   20.5610 N   0  0  0  0  0  0  0  0  0  0  0  0
  -29.0830  -15.4480   20.8470 H   0  0  0  0  0  0  0  0  0  0  0  0
  -25.2160  -13.7810   20.5170 C   0  0  0  0  0  0  0  0  0  0  0  0
  -24.2030  -12.9750   20.9560 C   0  0  0  0  0  0  0  0  0  0  0  0
  -24.6670  -11.6340   20.7850 C   0  0  0  0  0  0  0  0  0  0  0  0
  -26.2380  -12.9340   20.1240 N   0  0  0  0  0  0  0  0  0  0  0  0
  -25.9160  -11.6320   20.3380 N   0  0  0  0  0  0  0  0  0  0  0  0
  -23.9700  -10.3540   20.9570 C   0  0  0  0  0  0  0  0  0  0  0  0
  -24.4470   -9.3670   21.8480 C   0  0  0  0  0  3  0  0  0  0  0  0
  -23.7460   -8.1520   22.0110 C   0  0  0  0  0  3  0  0  0  0  0  0
  -22.5560   -7.9160   21.2810 C   0  0  0  0  0  0  0  0  0  0  0  0
  -22.0990   -8.8930   20.3790 C   0  0  0  0  0  3  0  0  0  0  0  0
  -22.8010  -10.0980   20.2140 C   0  0  0  0  0  3  0  0  0  0  0  0
  -21.8240   -6.7560   21.3560 O   0  0  0  0  0  0  0  0  0  0  0  0
  -21.7340   -6.0360   22.5210 C   0  0  0  0  0  0  0  0  0  0  0  0
  -21.2290   -6.6040   23.7120 C   0  0  0  0  0  3  0  0  0  0  0  0
  -21.0910   -5.8100   24.8670 C   0  0  0  0  0  3  0  0  0  0  0  0
  -21.4460   -4.4470   24.8320 C   0  0  0  0  0  0  0  0  0  0  0  0
  -21.9420   -3.8780   23.6460 C   0  0  0  0  0  3  0  0  0  0  0  0
  -22.0840   -4.6710   22.4930 C   0  0  0  0  0  0  0  0  0  0  0  0
  -22.5440   -4.1120   21.3470 F   0  0  0  0  0  0  0  0  0  0  0  0
  -21.3040   -3.6810   25.9370 F   0  0  0  0  0  0  0  0  0  0  0  0
  -22.8430  -13.4190   21.4120 C   0  0  0  0  0  0  0  0  0  0  0  0
  -22.2210  -12.6690   22.3140 N   0  0  0  0  0  0  0  0  0  0  0  0
  -22.3430  -14.4670   21.0060 O   0  0  0  0  0  0  0  0  0  0  0  0
  -22.6360  -11.8180   22.6650 H   0  0  0  0  0  0  0  0  0  0  0  0
  -21.3150  -12.9530   22.6560 H   0  0  0  0  0  0  0  0  0  0  0  0
  -25.3400  -15.1580   20.3870 N   0  0  0  0  0  0  0  0  0  0  0  0
  -24.5640  -15.7870   20.5640 H   0  0  0  0  0  0  0  0  0  0  0  0
  -26.1320  -15.6140   19.9520 H   0  0  0  0  0  0  0  0  0  0  0  0
  -27.4380  -17.0650   20.8000 C   0  0  0  0  0  2  0  0  0  0  0  0
  -28.2470  -17.9740   20.2320 C   0  0  0  0  0  3  0  0  0  0  0  0
  -29.3280  -20.5120   20.4540 O   0  0  0  0  0  0  0  0  0  0  0  0
  -29.7590  -21.6710   19.7130 C   0  0  0  0  0  2  0  0  0  0  0  0
  -29.0710  -22.9360   20.3000 C   0  0  0  0  0  2  0  0  0  0  0  0
  -29.2300  -24.2770   19.5200 C   0  0  0  0  0  2  0  0  0  0  0  0
  -28.4160  -25.4370   20.1630 C   0  0  0  0  0  2  0  0  0  0  0  0
  -28.4560  -26.6920   19.4480 O   0  0  0  0  0  0  0  0  0  0  0  0
  -24.5860  -31.5220   23.0230 C   0  0  0  0  0  0  0  0  0  0  0  0
  -27.2960  -27.4370   19.5220 C   0  0  0  0  0  0  0  0  0  0  0  0
  -23.4030  -30.2620   21.2550 C   0  0  0  0  0  3  0  0  0  0  0  0
  -24.8760  -28.9000   19.6830 C   0  0  0  0  0  0  0  0  0  0  0  0
  -25.9220  -30.6860   21.0880 C   0  0  0  0  0  2  0  0  0  0  0  0
  -26.0300  -29.3850   20.3150 C   0  0  0  0  0  0  0  0  0  0  0  0
  -27.2440  -28.6650   20.2260 C   0  0  0  0  0  3  0  0  0  0  0  0
  -26.1280  -26.9730   18.8830 C   0  0  0  0  0  3  0  0  0  0  0  0
  -24.9220  -27.6930   18.9630 C   0  0  0  0  0  3  0  0  0  0  0  0
  -23.6170  -29.7250   19.8160 C   0  0  0  0  0  2  0  0  0  0  0  0
  -24.6550  -30.8350   21.8470 N   0  0  0  0  0  0  0  0  0  0  0  0
  -23.5000  -31.7150   23.5890 O   0  0  0  0  0  0  0  0  0  0  0  0
  -22.7740  -29.1410   22.1150 C   0  0  0  0  0  0  0  0  0  0  0  0
  -21.4430  -28.9840   22.0150 N   0  0  0  0  0  0  0  0  0  0  0  0
  -23.4770  -28.4210   22.8270 O   0  0  0  0  0  0  0  0  0  0  0  0
  -20.9340  -29.6120   21.4070 H   0  0  0  0  0  0  0  0  0  0  0  0
  -18.0700  -27.8060   22.5520 C   0  0  0  0  0  0  0  0  0  0  0  0
  -20.6460  -27.9690   22.7030 C   0  0  0  0  0  3  0  0  0  0  0  0
  -20.6760  -26.6280   21.9340 C   0  0  0  0  0  2  0  0  0  0  0  0
  -19.5100  -26.4700   20.9560 C   0  0  0  0  0  2  0  0  0  0  0  0
  -18.1700  -26.5590   21.6920 C   0  0  0  0  0  2  0  0  0  0  0  0
  -19.2330  -28.4770   23.0160 C   0  0  0  0  0  0  0  0  0  0  0  0
  -19.0830  -29.6540   23.7830 C   0  0  0  0  0  3  0  0  0  0  0  0
  -17.8050  -30.1550   24.0900 C   0  0  0  0  0  3  0  0  0  0  0  0
  -16.6570  -29.4770   23.6440 C   0  0  0  0  0  3  0  0  0  0  0  0
  -16.7910  -28.3040   22.8780 C   0  0  0  0  0  3  0  0  0  0  0  0
  -25.8610  -32.1160   23.6980 C   0  0  0  0  0  3  0  0  0  0  0  0
  -25.5330  -33.4730   24.1540 N   0  0  0  0  0  0  0  0  0  0  0  0
  -25.8590  -34.5940   23.4970 C   0  0  0  0  0  0  0  0  0  0  0  0
  -26.5390  -34.5940   22.4670 O   0  0  0  0  0  0  0  0  0  0  0  0
  -24.9310  -33.5460   24.9610 H   0  0  0  0  0  0  0  0  0  0  0  0
  -24.1180  -36.3910   23.2830 C   0  0  0  0  0  1  0  0  0  0  0  0
  -25.3500  -35.9270   24.0750 C   0  0  0  0  0  3  0  0  0  0  0  0
  -27.4570  -36.7490   25.0290 C   0  0  0  0  0  1  0  0  0  0  0  0
  -26.3720  -36.9960   24.0810 N   0  0  0  0  0  0  0  0  0  0  0  0
  -25.9540  -37.8940   24.3080 H   0  0  0  0  0  0  0  0  0  0  0  0
  -26.3930  -31.2390   24.8970 C   0  0  1  0  0  0  0  0  0  0  0  0
  -25.3070  -30.9000   25.9440 C   0  0  0  0  0  1  0  0  0  0  0  0
  -26.9850  -29.9100   24.3770 C   0  0  0  0  0  1  0  0  0  0  0  0
  -27.5410  -31.9820   25.6180 C   0  0  0  0  0  1  0  0  0  0  0  0
  2  1  1  0
  3  6  2  0
  3  5  1  0
  4  1  2  0
  4  7  1  0
  5  2  2  0
  6  4  1  0
  8 16  1  0
  9 14  1  0
 10 11  1  0
 10  9  1  0
 12 11  1  0
 12 21  1  0
 12 13  1  0
 14  8  1  0
 14 13  1  0
 15  8  2  0
 16  5  1  0
 16 17  1  0
 18 19  2  0
 19 38  1  0
 20 19  1  0
 20 23  1  0
 21 22  1  0
 21 18  1  0
 22 20  2  0
 23 24  1  0
 24 25  2  0
 26 29  1  0
 26 25  1  0
 27 26  2  0
 28 27  1  0
 28 23  2  0
 29 30  1  0
 30 31  1  0
 31 32  2  0
 33 32  1  0
 33 37  1  0
 34 33  2  0
 35 30  2  0
 35 34  1  0
 36 35  1  0
 38 39  1  0
 39 42  1  0
 39 41  1  0
 40 38  2  0
 43 18  1  0
 43 44  1  0
 45 43  1  0
 47  3  1  0
 47 46  2  0
 48  6  1  0
 49 50  1  0
 49 48  1  0
 51 52  1  0
 51 50  1  0
 53 55  1  0
 53 52  1  0
 54 65  2  0
 55 60  1  0
 56 64  1  0
 56 66  1  0
 57 63  1  0
 57 59  1  0
 58 64  1  0
 59 58  1  0
 60 59  2  0
 61 62  1  0
 61 55  2  0
 62 57  2  0
 63 56  1  0
 64 54  1  0
 66 68  2  0
 67 66  1  0
 69 67  1  0
 70 79  2  0
 70 75  1  0
 71 67  1  0
 71 75  1  0
 72 71  1  0
 73 74  1  0
 73 72  1  0
 74 70  1  0
 75 76  2  0
 76 77  1  0
 78 77  2  0
 79 78  1  0
 80 54  1  0
 80 81  1  0
 80 90  1  0
 81 84  1  0
 82 86  1  0
 82 81  1  0
 83 82  2  0
 86 85  1  0
 86 88  1  0
 88 89  1  0
 88 87  1  0
 90 93  1  1
 90 91  1  0
 92 90  1  0
M  ISO  4   8 100  16 100  52 101  53 101
M  END
>  <TORSDO>  (6) 
F 22

>  <SCORE>  (6) 
-11.670

>  <name>  (6) 
5

>  <ligand_id>  (6) 
5

>  <original_smiles>  (6) 
[H]C([H])=C([H])c1c(OC([H])([H])C([H])([H])C([H])([H])C([H])([H])Oc2c([H])c([H])c3c(c2[H])C([H])([H])N(C(=O)C([H])(N([H])C(=O)C([H])(N([H])C([H])([H])[H])C([H])([H])[H])C(C([H])([H])[H])(C([H])([H])[H])C([H])([H])[H])C([H])(C(=O)N([H])C2([H])c4c([H])c([H])c([H])c([H])c4C([H])([H])C([H])([H])C2([H])[H])C3([H])[H])c(C([H])([H])[H])c([H])c([H])c1N([H])C(=O)N1C([H])([H])C([H])([H])C([H])([H])C([H])(n2nc(-c3c([H])c([H])c(Oc4c([H])c([H])c(F)c([H])c4F)c([H])c3[H])c(C(=O)N([H])[H])c2N([H])[H])C1([H])[H]

>  <smiles>  (6) 
[H]C([H])=C([H])c1c(OC([H])([H])C([H])([H])C([H])([H])C([H])([H])Oc2c([H])c([H])c3c(c2[H])C([H])([H])N(C(=O)C([H])(N([H])C(=O)C([H])(N([H])C([H])([H])[H])C([H])([H])[H])C(C([H])([H])[H])(C([H])([H])[H])C([H])([H])[H])C([H])(C(=O)N([H])C2([H])c4c([H])c([H])c([H])c([H])c4C([H])([H])C([H])([H])C2([H])[H])C3([H])[H])c(C([H])([H])[H])c([H])c([H])c1N([H])C(=O)N1C([H])([H])C([H])([H])C([H])([H])C([H])(n2nc(-c3c([H])c([H])c(Oc4c([H])c([H])c(F)c([H])c4F)c([H])c3[H])c(C(=O)N([H])[H])c2N([H])[H])C1([H])[H]

$$$$
6:0:0
     RDKit          3D

 93101  0  0  1  0  0  0  0  0999 V2000
  -27.7400  -17.3640   21.1580 C   0  0  0  0  0  3  0  0  0  0  0  0
  -28.1910  -18.6360   20.7660 C   0  0  0  0  0  3  0  0  0  0  0  0
  -30.2780  -17.6380   20.0500 C   0  0  0  0  0  3  0  0  0  0  0  0
  -28.5640  -16.2180   21.0780 C   0  0  0  0  0  0  0  0  0  0  0  0
  -29.8480  -16.3180   20.4480 C   0  0  0  0  0  0  0  0  0  0  0  0
  -29.4890  -18.8270   20.2490 C   0  0  0  0  0  0  0  0  0  0  0  0
  -30.7980  -15.1090   20.4540 C   0  0  0  0  0  0  0  0  0  0  0  0
  -31.5890  -14.9540   21.4360 N   0  0  0  0  0  0  0  0  0  0  0  0
  -31.4680  -15.6820   22.1300 H   0  0  0  0  0  0  0  0  0  0  0  0
  -30.9150  -14.0930   19.2800 C   0  0  0  0  0  0  0  0  0  0  0  0
  -30.3800  -11.8830   18.2550 C   0  0  0  0  0  2  0  0  0  0  0  0
  -29.3230  -12.0400   17.1470 C   0  0  0  0  0  2  0  0  0  0  0  0
  -27.9080  -11.9330   17.7480 C   0  0  0  0  0  2  0  0  0  0  0  0
  -27.7380  -12.8310   19.0030 C   0  0  0  0  0  3  0  0  0  0  0  0
  -28.9140  -12.6840   19.9930 C   0  0  0  0  0  2  0  0  0  0  0  0
  -30.1610  -12.9440   19.2640 N   0  0  0  0  0  0  0  0  0  0  0  0
  -31.8460  -14.2560   18.4800 O   0  0  0  0  0  0  0  0  0  0  0  0
  -25.4870  -13.5160   20.0270 C   0  0  0  0  0  0  0  0  0  0  0  0
  -24.4530  -12.7830   20.5420 C   0  0  0  0  0  0  0  0  0  0  0  0
  -24.8580  -11.4160   20.4590 C   0  0  0  0  0  0  0  0  0  0  0  0
  -26.4560  -12.5980   19.6610 N   0  0  0  0  0  0  0  0  0  0  0  0
  -26.0930  -11.3300   19.9780 N   0  0  0  0  0  0  0  0  0  0  0  0
  -24.1190  -10.1820   20.7550 C   0  0  0  0  0  0  0  0  0  0  0  0
  -24.5540   -9.2820   21.7550 C   0  0  0  0  0  3  0  0  0  0  0  0
  -23.8140   -8.1140   22.0380 C   0  0  0  0  0  3  0  0  0  0  0  0
  -22.6260   -7.8350   21.3180 C   0  0  0  0  0  0  0  0  0  0  0  0
  -22.2130   -8.7180   20.3070 C   0  0  0  0  0  3  0  0  0  0  0  0
  -22.9530   -9.8780   20.0240 C   0  0  0  0  0  3  0  0  0  0  0  0
  -21.8610   -6.7080   21.5010 O   0  0  0  0  0  0  0  0  0  0  0  0
  -21.7190   -6.1280   22.7360 C   0  0  0  0  0  0  0  0  0  0  0  0
  -21.1900   -6.8370   23.8360 C   0  0  0  0  0  3  0  0  0  0  0  0
  -20.9940   -6.1830   25.0690 C   0  0  0  0  0  3  0  0  0  0  0  0
  -21.3190   -4.8200   25.2030 C   0  0  0  0  0  0  0  0  0  0  0  0
  -21.8410   -4.1100   24.1070 C   0  0  0  0  0  3  0  0  0  0  0  0
  -22.0370   -4.7620   22.8770 C   0  0  0  0  0  0  0  0  0  0  0  0
  -22.5200   -4.0680   21.8180 F   0  0  0  0  0  0  0  0  0  0  0  0
  -21.1250   -4.1880   26.3830 F   0  0  0  0  0  0  0  0  0  0  0  0
  -23.1250  -13.3120   20.9990 C   0  0  0  0  0  0  0  0  0  0  0  0
  -22.5140  -12.6570   21.9790 N   0  0  0  0  0  0  0  0  0  0  0  0
  -22.6430  -14.3380   20.5210 O   0  0  0  0  0  0  0  0  0  0  0  0
  -22.9230  -11.8240   22.3750 H   0  0  0  0  0  0  0  0  0  0  0  0
  -21.6290  -12.9900   22.3370 H   0  0  0  0  0  0  0  0  0  0  0  0
  -25.6730  -14.8790   19.8220 N   0  0  0  0  0  0  0  0  0  0  0  0
  -24.9640  -15.5600   20.0690 H   0  0  0  0  0  0  0  0  0  0  0  0
  -26.5140  -15.2970   19.4440 H   0  0  0  0  0  0  0  0  0  0  0  0
  -26.7710  -14.5280   21.7060 C   0  0  0  0  0  2  0  0  0  0  0  0
  -28.0450  -14.9680   21.6950 C   0  0  0  0  0  3  0  0  0  0  0  0
  -29.9770  -20.1240   19.9740 O   0  0  0  0  0  0  0  0  0  0  0  0
  -29.2320  -21.2910   20.4670 C   0  0  0  0  0  2  0  0  0  0  0  0
  -29.7030  -22.6960   19.9970 C   0  0  0  0  0  3  0  0  0  0  0  0
  -28.9160  -23.8160   19.9110 C   0  0  0  0  0  3  0  0  0  0  0  0
  -29.3100  -25.2310   19.4010 C   0  0  0  0  0  2  0  0  0  0  0  0
  -28.9740  -26.3790   20.2470 O   0  0  0  0  0  0  0  0  0  0  0  0
  -24.6710  -31.3490   23.1220 C   0  0  0  0  0  0  0  0  0  0  0  0
  -27.7570  -27.0570   20.1490 C   0  0  0  0  0  0  0  0  0  0  0  0
  -23.6430  -29.8610   21.4360 C   0  0  0  0  0  3  0  0  0  0  0  0
  -25.2610  -28.4370   20.0600 C   0  0  0  0  0  0  0  0  0  0  0  0
  -26.1500  -30.3920   21.3390 C   0  0  0  0  0  2  0  0  0  0  0  0
  -26.3580  -29.0270   20.6990 C   0  0  0  0  0  0  0  0  0  0  0  0
  -27.6020  -28.3420   20.7480 C   0  0  0  0  0  3  0  0  0  0  0  0
  -26.6340  -26.5030   19.4950 C   0  0  0  0  0  3  0  0  0  0  0  0
  -25.3960  -27.1770   19.4540 C   0  0  0  0  0  3  0  0  0  0  0  0
  -23.9590  -29.2100   20.0610 C   0  0  0  0  0  2  0  0  0  0  0  0
  -24.8380  -30.5560   22.0210 N   0  0  0  0  0  0  0  0  0  0  0  0
  -23.5540  -31.5310   23.6210 O   0  0  0  0  0  0  0  0  0  0  0  0
  -23.0340  -28.7910   22.3760 C   0  0  0  0  0  0  0  0  0  0  0  0
  -21.7330  -28.5030   22.2020 N   0  0  0  0  0  0  0  0  0  0  0  0
  -23.7330  -28.2260   23.2200 O   0  0  0  0  0  0  0  0  0  0  0  0
  -21.2220  -29.0200   21.5000 H   0  0  0  0  0  0  0  0  0  0  0  0
  -18.4380  -27.0610   22.5900 C   0  0  0  0  0  0  0  0  0  0  0  0
  -20.9640  -27.4990   22.9430 C   0  0  0  0  0  3  0  0  0  0  0  0
  -21.1860  -26.0840   22.3590 C   0  0  0  0  0  2  0  0  0  0  0  0
  -20.1420  -25.6930   21.3110 C   0  0  0  0  0  2  0  0  0  0  0  0
  -18.7330  -25.7330   21.9100 C   0  0  0  0  0  2  0  0  0  0  0  0
  -19.4860  -27.8980   23.0580 C   0  0  0  0  0  0  0  0  0  0  0  0
  -19.1560  -29.1370   23.6480 C   0  0  0  0  0  3  0  0  0  0  0  0
  -17.8140  -29.5400   23.7780 C   0  0  0  0  0  3  0  0  0  0  0  0
  -16.7810  -28.7020   23.3250 C   0  0  0  0  0  3  0  0  0  0  0  0
  -17.0940  -27.4630   22.7370 C   0  0  0  0  0  3  0  0  0  0  0  0
  -25.8800  -32.0790   23.7920 C   0  0  0  0  0  3  0  0  0  0  0  0
  -25.4470  -33.4470   24.1070 N   0  0  0  0  0  0  0  0  0  0  0  0
  -25.7190  -34.5230   23.3570 C   0  0  0  0  0  0  0  0  0  0  0  0
  -26.4240  -34.4740   22.3450 O   0  0  0  0  0  0  0  0  0  0  0  0
  -24.8220  -33.5520   24.8920 H   0  0  0  0  0  0  0  0  0  0  0  0
  -23.8490  -36.1580   22.9580 C   0  0  0  0  0  1  0  0  0  0  0  0
  -25.1050  -35.8660   23.7980 C   0  0  0  0  0  3  0  0  0  0  0  0
  -27.1430  -36.9280   24.6580 C   0  0  0  0  0  1  0  0  0  0  0  0
  -26.0440  -37.0040   23.6990 N   0  0  0  0  0  0  0  0  0  0  0  0
  -25.5560  -37.8850   23.8390 H   0  0  0  0  0  0  0  0  0  0  0  0
  -26.4050  -31.3530   25.0910 C   0  0  1  0  0  0  0  0  0  0  0  0
  -25.2940  -31.0070   26.1090 C   0  0  0  0  0  1  0  0  0  0  0  0
  -27.1310  -30.0420   24.7180 C   0  0  0  0  0  1  0  0  0  0  0  0
  -27.4450  -32.2480   25.8040 C   0  0  0  0  0  1  0  0  0  0  0  0
  2  1  2  0
  3  6  2  0
  3  5  1  0
  4  1  1  0
  4 47  1  0
  5  7  1  0
  5  4  2  0
  6  2  1  0
  7  8  2  0
  8  9  1  0
 10  7  1  0
 11 16  1  0
 12 13  1  0
 12 11  1  0
 14 13  1  0
 14 21  1  0
 14 15  1  0
 16 10  1  0
 16 15  1  0
 17 10  2  0
 18 19  2  0
 19 38  1  0
 20 19  1  0
 20 23  1  0
 21 22  1  0
 21 18  1  0
 22 20  2  0
 23 24  1  0
 24 25  2  0
 26 29  1  0
 26 25  1  0
 27 26  2  0
 28 27  1  0
 28 23  2  0
 29 30  1  0
 30 35  2  0
 30 31  1  0
 31 32  2  0
 32 33  1  0
 33 37  1  0
 34 33  2  0
 35 34  1  0
 36 35  1  0
 38 39  1  0
 39 42  1  0
 39 41  1  0
 40 38  2  0
 43 18  1  0
 43 44  1  0
 45 43  1  0
 47 46  2  0
 48  6  1  0
 48 49  1  0
 50 49  1  0
 51 50  2  0
 52 51  1  0
 52 53  1  0
 54 65  2  0
 55 53  1  0
 55 60  1  0
 56 64  1  0
 56 66  1  0
 57 63  1  0
 57 59  1  0
 58 64  1  0
 59 60  2  0
 59 58  1  0
 61 55  2  0
 62 61  1  0
 62 57  2  0
 63 56  1  0
 64 54  1  0
 66 68  2  0
 67 66  1  0
 69 67  1  0
 70 79  2  0
 70 75  1  0
 71 67  1  0
 71 75  1  0
 72 71  1  0
 73 74  1  0
 73 72  1  0
 74 70  1  0
 75 76  2  0
 76 77  1  0
 78 77  2  0
 79 78  1  0
 80 54  1  0
 80 81  1  0
 80 90  1  0
 81 84  1  0
 82 86  1  0
 82 81  1  0
 83 82  2  0
 86 85  1  0
 88 86  1  0
 88 89  1  0
 88 87  1  0
 90 93  1  1
 90 91  1  0
 92 90  1  0
M  ISO  4   7 100  10 100  52 101  53 101
M  END
>  <TORSDO>  (7) 
F 22

>  <SCORE>  (7) 
-7.290

>  <name>  (7) 
6

>  <ligand_id>  (7) 
6

>  <original_smiles>  (7) 
[H]N=C(C(=O)N1C([H])([H])C([H])([H])C([H])([H])C([H])(n2nc(-c3c([H])c([H])c(Oc4c([H])c([H])c(F)c([H])c4F)c([H])c3[H])c(C(=O)N([H])[H])c2N([H])[H])C1([H])[H])c1c([H])c(OC([H])([H])C([H])=C([H])C([H])([H])Oc2c([H])c([H])c3c(c2[H])C([H])([H])N(C(=O)C([H])(N([H])C(=O)C([H])(N([H])C([H])([H])[H])C([H])([H])[H])C(C([H])([H])[H])(C([H])([H])[H])C([H])([H])[H])C([H])(C(=O)N([H])C2([H])c4c([H])c([H])c([H])c([H])c4C([H])([H])C([H])([H])C2([H])[H])C3([H])[H])c([H])c([H])c1C([H])=C([H])[H]

>  <smiles>  (7) 
[H]N=C(C(=O)N1C([H])([H])C([H])([H])C([H])([H])C([H])(n2nc(-c3c([H])c([H])c(Oc4c([H])c([H])c(F)c([H])c4F)c([H])c3[H])c(C(=O)N([H])[H])c2N([H])[H])C1([H])[H])c1c([H])c(OC([H])([H])C([H])=C([H])C([H])([H])Oc2c([H])c([H])c3c(c2[H])C([H])([H])N(C(=O)C([H])(N([H])C(=O)C([H])(N([H])C([H])([H])[H])C([H])([H])[H])C(C([H])([H])[H])(C([H])([H])[H])C([H])([H])[H])C([H])(C(=O)N([H])C2([H])c4c([H])c([H])c([H])c([H])c4C([H])([H])C([H])([H])C2([H])[H])C3([H])[H])c([H])c([H])c1C([H])=C([H])[H]

$$$$
7:0:0
     RDKit          3D

 92100  0  0  1  0  0  0  0  0999 V2000
  -30.8560  -17.9510   19.4230 C   0  0  0  0  0  3  0  0  0  0  0  0
  -28.5190  -17.7490   19.9220 C   0  0  0  0  0  3  0  0  0  0  0  0
  -30.6360  -19.3090   19.0070 C   0  0  0  0  0  0  0  0  0  0  0  0
  -29.7920  -17.1160   19.8630 C   0  0  0  0  0  0  0  0  0  0  0  0
  -28.2830  -19.1060   19.5110 C   0  0  0  0  0  0  0  0  0  0  0  0
  -29.3440  -19.9150   19.0250 C   0  0  0  0  0  0  0  0  0  0  0  0
  -31.8090  -20.1110   18.4740 C   0  0  0  0  0  1  0  0  0  0  0  0
  -30.6700  -14.6190   19.8240 C   0  0  0  0  0  0  0  0  0  0  0  0
  -30.4780  -12.2670   19.0060 C   0  0  0  0  0  2  0  0  0  0  0  0
  -29.5030  -12.2530   17.8050 C   0  0  0  0  0  2  0  0  0  0  0  0
  -28.0390  -12.1430   18.2810 C   0  0  0  0  0  2  0  0  0  0  0  0
  -27.7070  -13.1320   19.4290 C   0  0  0  0  0  3  0  0  0  0  0  0
  -28.7880  -13.0820   20.5330 C   0  0  0  0  0  2  0  0  0  0  0  0
  -30.0830  -13.3790   19.8990 N   0  0  0  0  0  0  0  0  0  0  0  0
  -31.8090  -14.7560   19.3680 O   0  0  0  0  0  0  0  0  0  0  0  0
  -29.8640  -15.6770   20.1850 N   0  0  0  0  0  0  0  0  0  0  0  0
  -29.0420  -15.3400   20.6630 H   0  0  0  0  0  0  0  0  0  0  0  0
  -25.3730  -13.8440   20.2300 C   0  0  0  0  0  0  0  0  0  0  0  0
  -24.2860  -13.1220   20.6480 C   0  0  0  0  0  0  0  0  0  0  0  0
  -24.6880  -11.7510   20.6150 C   0  0  0  0  0  0  0  0  0  0  0  0
  -26.3670  -12.9160   19.9660 N   0  0  0  0  0  0  0  0  0  0  0  0
  -25.9630  -11.6530   20.2580 N   0  0  0  0  0  0  0  0  0  0  0  0
  -23.9160  -10.5230   20.8480 C   0  0  0  0  0  0  0  0  0  0  0  0
  -24.3670   -9.5260   21.7410 C   0  0  0  0  0  3  0  0  0  0  0  0
  -23.5980   -8.3640   21.9630 C   0  0  0  0  0  3  0  0  0  0  0  0
  -22.3650   -8.1890   21.2910 C   0  0  0  0  0  0  0  0  0  0  0  0
  -21.9310   -9.1750   20.3880 C   0  0  0  0  0  3  0  0  0  0  0  0
  -22.7010  -10.3290   20.1640 C   0  0  0  0  0  3  0  0  0  0  0  0
  -21.5670   -7.0780   21.4220 O   0  0  0  0  0  0  0  0  0  0  0  0
  -21.6080   -6.2910   22.5440 C   0  0  0  0  0  0  0  0  0  0  0  0
  -21.3730   -6.8180   23.8320 C   0  0  0  0  0  3  0  0  0  0  0  0
  -21.3540   -5.9620   24.9510 C   0  0  0  0  0  3  0  0  0  0  0  0
  -21.5620   -4.5800   24.7840 C   0  0  0  0  0  0  0  0  0  0  0  0
  -21.7930   -4.0520   23.5020 C   0  0  0  0  0  3  0  0  0  0  0  0
  -21.8130   -4.9060   22.3840 C   0  0  0  0  0  0  0  0  0  0  0  0
  -22.0130   -4.3880   21.1480 F   0  0  0  0  0  0  0  0  0  0  0  0
  -21.5370   -3.7560   25.8580 F   0  0  0  0  0  0  0  0  0  0  0  0
  -22.9230  -13.6630   20.9670 C   0  0  0  0  0  0  0  0  0  0  0  0
  -22.2090  -13.0230   21.8860 N   0  0  0  0  0  0  0  0  0  0  0  0
  -22.5010  -14.6900   20.4350 O   0  0  0  0  0  0  0  0  0  0  0  0
  -22.5630  -12.1930   22.3380 H   0  0  0  0  0  0  0  0  0  0  0  0
  -21.2960  -13.3710   22.1440 H   0  0  0  0  0  0  0  0  0  0  0  0
  -25.5900  -15.2040   20.0320 N   0  0  0  0  0  0  0  0  0  0  0  0
  -24.8510  -15.8880   20.1480 H   0  0  0  0  0  0  0  0  0  0  0  0
  -26.4280  -15.5960   19.6210 H   0  0  0  0  0  0  0  0  0  0  0  0
  -25.8900  -18.8580   19.6090 C   0  0  0  0  0  1  0  0  0  0  0  0
  -27.0340  -19.6940   19.5130 O   0  0  0  0  0  0  0  0  0  0  0  0
  -29.0660  -21.1620   18.4080 O   0  0  0  0  0  0  0  0  0  0  0  0
  -29.2510  -22.4350   19.1130 C   0  0  0  0  0  2  0  0  0  0  0  0
  -28.1590  -23.6150   18.9770 C   0  0  0  0  0  2  0  0  0  0  0  0
  -28.3900  -24.9030   18.0590 C   0  0  0  0  0  2  0  0  0  0  0  0
  -28.3450  -26.2690   18.6460 O   0  0  0  0  0  0  0  0  0  0  0  0
  -24.7940  -31.0220   22.7270 C   0  0  0  0  0  0  0  0  0  0  0  0
  -27.1910  -27.0570   18.7840 C   0  0  0  0  0  0  0  0  0  0  0  0
  -23.4840  -29.9280   20.9400 C   0  0  0  0  0  3  0  0  0  0  0  0
  -24.8350  -28.6400   19.1850 C   0  0  0  0  0  0  0  0  0  0  0  0
  -26.0110  -30.2710   20.6700 C   0  0  0  0  0  2  0  0  0  0  0  0
  -26.0370  -29.0250   19.7920 C   0  0  0  0  0  0  0  0  0  0  0  0
  -27.2110  -28.2440   19.5830 C   0  0  0  0  0  3  0  0  0  0  0  0
  -25.9630  -26.7170   18.1760 C   0  0  0  0  0  3  0  0  0  0  0  0
  -24.8010  -27.4940   18.3710 C   0  0  0  0  0  3  0  0  0  0  0  0
  -23.6130  -29.4950   19.4540 C   0  0  0  0  0  2  0  0  0  0  0  0
  -24.7850  -30.4160   21.5030 N   0  0  0  0  0  0  0  0  0  0  0  0
  -23.7470  -31.2030   23.3640 O   0  0  0  0  0  0  0  0  0  0  0  0
  -22.8660  -28.7640   21.7500 C   0  0  0  0  0  0  0  0  0  0  0  0
  -21.5330  -28.6150   21.6740 N   0  0  0  0  0  0  0  0  0  0  0  0
  -23.5820  -28.0040   22.4060 O   0  0  0  0  0  0  0  0  0  0  0  0
  -21.0130  -29.2820   21.1190 H   0  0  0  0  0  0  0  0  0  0  0  0
  -18.1780  -27.3510   22.1470 C   0  0  0  0  0  0  0  0  0  0  0  0
  -20.7490  -27.5610   22.3180 C   0  0  0  0  0  3  0  0  0  0  0  0
  -20.8060  -26.2480   21.5030 C   0  0  0  0  0  2  0  0  0  0  0  0
  -19.6490  -26.1030   20.5090 C   0  0  0  0  0  2  0  0  0  0  0  0
  -18.3050  -26.1360   21.2430 C   0  0  0  0  0  2  0  0  0  0  0  0
  -19.3250  -28.0290   22.6390 C   0  0  0  0  0  0  0  0  0  0  0  0
  -19.1490  -29.1720   23.4490 C   0  0  0  0  0  3  0  0  0  0  0  0
  -17.8590  -29.6380   23.7670 C   0  0  0  0  0  3  0  0  0  0  0  0
  -16.7280  -28.9550   23.2900 C   0  0  0  0  0  3  0  0  0  0  0  0
  -16.8880  -27.8110   22.4860 C   0  0  0  0  0  3  0  0  0  0  0  0
  -26.1170  -31.5360   23.3760 C   0  0  0  0  0  3  0  0  0  0  0  0
  -25.8310  -32.8360   24.0000 N   0  0  0  0  0  0  0  0  0  0  0  0
  -26.1570  -34.0230   23.4730 C   0  0  0  0  0  0  0  0  0  0  0  0
  -26.8000  -34.1350   22.4260 O   0  0  0  0  0  0  0  0  0  0  0  0
  -25.2570  -32.8210   24.8300 H   0  0  0  0  0  0  0  0  0  0  0  0
  -24.4420  -35.8620   23.5500 C   0  0  0  0  0  1  0  0  0  0  0  0
  -25.6970  -35.2870   24.2250 C   0  0  0  0  0  3  0  0  0  0  0  0
  -27.8630  -35.9620   25.1660 C   0  0  0  0  0  1  0  0  0  0  0  0
  -26.7400  -36.3340   24.3090 N   0  0  0  0  0  0  0  0  0  0  0  0
  -26.3490  -37.2050   24.6590 H   0  0  0  0  0  0  0  0  0  0  0  0
  -26.7190  -30.5340   24.4370 C   0  0  1  0  0  0  0  0  0  0  0  0
  -25.7030  -30.0880   25.5140 C   0  0  0  0  0  1  0  0  0  0  0  0
  -27.2620  -29.2630   23.7440 C   0  0  0  0  0  1  0  0  0  0  0  0
  -27.9230  -31.1900   25.1540 C   0  0  0  0  0  1  0  0  0  0  0  0
  1  4  1  0
  3  6  1  0
  3  1  2  0
  4  2  2  0
  4 16  1  0
  5 47  1  0
  5  2  1  0
  6  5  2  0
  7  3  1  0
  8 14  1  0
  8 16  1  0
  9 14  1  0
 10 11  1  0
 10  9  1  0
 12 11  1  0
 12 21  1  0
 12 13  1  0
 14 13  1  0
 15  8  2  0
 16 17  1  0
 18 19  2  0
 19 38  1  0
 20 19  1  0
 20 23  1  0
 21 18  1  0
 21 22  1  0
 22 20  2  0
 23 24  1  0
 24 25  2  0
 26 29  1  0
 26 25  1  0
 27 26  2  0
 28 27  1  0
 28 23  2  0
 29 30  1  0
 30 31  1  0
 31 32  2  0
 33 32  1  0
 33 37  1  0
 34 33  2  0
 35 30  2  0
 35 34  1  0
 36 35  1  0
 38 39  1  0
 39 42  1  0
 39 41  1  0
 40 38  2  0
 43 44  1  0
 43 18  1  0
 45 43  1  0
 47 46  1  0
 48  6  1  0
 48 49  1  0
 50 49  1  0
 51 52  1  0
 51 50  1  0
 52 54  1  0
 53 64  2  0
 54 59  1  0
 55 63  1  0
 55 65  1  0
 56 62  1  0
 56 58  1  0
 57 63  1  0
 58 57  1  0
 59 58  2  0
 60 61  1  0
 60 54  2  0
 61 56  2  0
 62 55  1  0
 63 53  1  0
 65 67  2  0
 66 65  1  0
 68 66  1  0
 69 78  2  0
 69 74  1  0
 70 66  1  0
 70 74  1  0
 71 70  1  0
 72 73  1  0
 72 71  1  0
 73 69  1  0
 74 75  2  0
 75 76  1  0
 77 76  2  0
 78 77  1  0
 79 53  1  0
 79 80  1  0
 79 89  1  0
 80 83  1  0
 81 80  1  0
 81 85  1  0
 82 81  2  0
 85 84  1  0
 85 87  1  0
 87 88  1  0
 87 86  1  0
 89 92  1  1
 89 90  1  0
 91 89  1  0
M  ISO  4   8 100  16 100  51 101  52 101
M  END
>  <TORSDO>  (8) 
F 21

>  <SCORE>  (8) 
-10.417

>  <name>  (8) 
7

>  <ligand_id>  (8) 
7

>  <original_smiles>  (8) 
[H]c1c([H])c([H])c2c(c1[H])C([H])([H])C([H])([H])C([H])([H])C2([H])N([H])C(=O)C1([H])N(C(=O)C([H])(N([H])C(=O)C([H])(N([H])C([H])([H])[H])C([H])([H])[H])C(C([H])([H])[H])(C([H])([H])[H])C([H])([H])[H])C([H])([H])c2c([H])c(OC([H])([H])C([H])([H])C([H])([H])Oc3c(OC([H])([H])[H])c([H])c(N([H])C(=O)N4C([H])([H])C([H])([H])C([H])([H])C([H])(n5nc(-c6c([H])c([H])c(Oc7c([H])c([H])c(F)c([H])c7F)c([H])c6[H])c(C(=O)N([H])[H])c5N([H])[H])C4([H])[H])c([H])c3C([H])([H])[H])c([H])c([H])c2C1([H])[H]

>  <smiles>  (8) 
[H]c1c([H])c([H])c2c(c1[H])C([H])([H])C([H])([H])C([H])([H])C2([H])N([H])C(=O)C1([H])N(C(=O)C([H])(N([H])C(=O)C([H])(N([H])C([H])([H])[H])C([H])([H])[H])C(C([H])([H])[H])(C([H])([H])[H])C([H])([H])[H])C([H])([H])c2c([H])c(OC([H])([H])C([H])([H])C([H])([H])Oc3c(OC([H])([H])[H])c([H])c(N([H])C(=O)N4C([H])([H])C([H])([H])C([H])([H])C([H])(n5nc(-c6c([H])c([H])c(Oc7c([H])c([H])c(F)c([H])c7F)c([H])c6[H])c(C(=O)N([H])[H])c5N([H])[H])C4([H])[H])c([H])c3C([H])([H])[H])c([H])c([H])c2C1([H])[H]

$$$$
8:0:0
     RDKit          3D

 92100  0  0  1  0  0  0  0  0999 V2000
  -30.1530  -19.6150   21.2280 C   0  0  0  0  0  3  0  0  0  0  0  0
  -30.7710  -18.3590   21.6010 C   0  0  0  0  0  0  0  0  0  0  0  0
  -30.9700  -17.4360   20.5620 C   0  0  0  0  0  0  0  0  0  0  0  0
  -29.8550  -19.8020   19.9030 C   0  0  0  0  0  0  0  0  0  0  0  0
  -30.3520  -18.2610   19.0860 S   0  0  0  0  0  0  0  0  0  0  0  0
  -31.6320  -16.0320   20.7000 C   0  0  0  0  0  0  0  0  0  0  0  0
  -32.0560  -15.6750   21.8400 N   0  0  0  0  0  0  0  0  0  0  0  0
  -31.8590  -16.3840   22.5330 H   0  0  0  0  0  0  0  0  0  0  0  0
  -31.9290  -14.9660   19.5550 C   0  0  0  0  0  0  0  0  0  0  0  0
  -31.4200  -12.7590   18.4580 C   0  0  0  0  0  2  0  0  0  0  0  0
  -30.3220  -12.9220   17.3820 C   0  0  0  0  0  2  0  0  0  0  0  0
  -28.9170  -12.8260   18.0050 C   0  0  0  0  0  2  0  0  0  0  0  0
  -28.7810  -13.6920   19.2840 C   0  0  0  0  0  3  0  0  0  0  0  0
  -29.9660  -13.4520   20.2420 C   0  0  0  0  0  2  0  0  0  0  0  0
  -31.2100  -13.7790   19.5170 N   0  0  0  0  0  0  0  0  0  0  0  0
  -32.8990  -15.1250   18.8050 O   0  0  0  0  0  0  0  0  0  0  0  0
  -26.6280  -14.4350   20.4710 C   0  0  0  0  0  0  0  0  0  0  0  0
  -25.5360  -13.7370   20.9120 C   0  0  0  0  0  0  0  0  0  0  0  0
  -25.8030  -12.3630   20.6250 C   0  0  0  0  0  0  0  0  0  0  0  0
  -27.4960  -13.4910   19.9460 N   0  0  0  0  0  0  0  0  0  0  0  0
  -27.0130  -12.2300   20.0950 N   0  0  0  0  0  0  0  0  0  0  0  0
  -24.9510  -11.1760   20.7700 C   0  0  0  0  0  0  0  0  0  0  0  0
  -25.3020  -10.1160   21.6350 C   0  0  0  0  0  3  0  0  0  0  0  0
  -24.4570   -8.9930   21.7710 C   0  0  0  0  0  3  0  0  0  0  0  0
  -23.2470   -8.9230   21.0420 C   0  0  0  0  0  0  0  0  0  0  0  0
  -22.9120   -9.9710   20.1660 C   0  0  0  0  0  3  0  0  0  0  0  0
  -23.7560  -11.0850   20.0270 C   0  0  0  0  0  3  0  0  0  0  0  0
  -22.3780   -7.8600   21.0900 O   0  0  0  0  0  0  0  0  0  0  0  0
  -22.1200   -7.1930   22.2610 C   0  0  0  0  0  0  0  0  0  0  0  0
  -21.5960   -7.8530   23.3950 C   0  0  0  0  0  3  0  0  0  0  0  0
  -21.2800   -7.1170   24.5540 C   0  0  0  0  0  3  0  0  0  0  0  0
  -21.4800   -5.7230   24.5810 C   0  0  0  0  0  0  0  0  0  0  0  0
  -21.9990   -5.0640   23.4540 C   0  0  0  0  0  3  0  0  0  0  0  0
  -22.3160   -5.7970   22.2960 C   0  0  0  0  0  0  0  0  0  0  0  0
  -22.7940   -5.1540   21.2030 F   0  0  0  0  0  0  0  0  0  0  0  0
  -21.1710   -5.0150   25.6920 F   0  0  0  0  0  0  0  0  0  0  0  0
  -24.2730  -14.3210   21.4780 C   0  0  0  0  0  0  0  0  0  0  0  0
  -23.6190  -13.6040   22.3850 N   0  0  0  0  0  0  0  0  0  0  0  0
  -23.8860  -15.4430   21.1540 O   0  0  0  0  0  0  0  0  0  0  0  0
  -23.9500  -12.6940   22.6680 H   0  0  0  0  0  0  0  0  0  0  0  0
  -22.7760  -13.9740   22.8010 H   0  0  0  0  0  0  0  0  0  0  0  0
  -26.9440  -15.7890   20.4520 N   0  0  0  0  0  0  0  0  0  0  0  0
  -26.2990  -16.4970   20.7880 H   0  0  0  0  0  0  0  0  0  0  0  0
  -27.7900  -16.1810   20.0580 H   0  0  0  0  0  0  0  0  0  0  0  0
  -28.9480  -22.0930   19.8160 C   0  0  0  0  0  3  0  0  0  0  0  0
  -29.3090  -20.9510   19.2430 N   0  0  0  0  0  0  0  0  0  0  0  0
  -28.4090  -23.4700   19.1910 C   0  0  0  0  0  0  0  0  0  0  0  0
  -28.4280  -23.6400   17.9640 O   0  0  0  0  0  0  0  0  0  0  0  0
  -27.8210  -24.6540   20.1020 C   0  0  0  0  0  2  0  0  0  0  0  0
  -28.0610  -26.0910   19.6960 O   0  0  0  0  0  0  0  0  0  0  0  0
  -24.6360  -31.5770   23.0480 C   0  0  0  0  0  0  0  0  0  0  0  0
  -26.9790  -27.0000   19.7630 C   0  0  0  0  0  0  0  0  0  0  0  0
  -23.3200  -30.2450   21.4400 C   0  0  0  0  0  3  0  0  0  0  0  0
  -24.6620  -28.6910   19.9070 C   0  0  0  0  0  0  0  0  0  0  0  0
  -25.8570  -30.5030   21.1360 C   0  0  0  0  0  2  0  0  0  0  0  0
  -25.8740  -29.1350   20.4530 C   0  0  0  0  0  0  0  0  0  0  0  0
  -27.0380  -28.3030   20.3650 C   0  0  0  0  0  3  0  0  0  0  0  0
  -25.7450  -26.6250   19.1930 C   0  0  0  0  0  3  0  0  0  0  0  0
  -24.6010  -27.4440   19.2660 C   0  0  0  0  0  3  0  0  0  0  0  0
  -23.4510  -29.5950   20.0360 C   0  0  0  0  0  2  0  0  0  0  0  0
  -24.6270  -30.7910   21.9310 N   0  0  0  0  0  0  0  0  0  0  0  0
  -23.5850  -31.8650   23.6420 O   0  0  0  0  0  0  0  0  0  0  0  0
  -22.6800  -29.2240   22.4110 C   0  0  0  0  0  0  0  0  0  0  0  0
  -21.3520  -29.0410   22.3100 N   0  0  0  0  0  0  0  0  0  0  0  0
  -23.3770  -28.6000   23.2150 O   0  0  0  0  0  0  0  0  0  0  0  0
  -20.8470  -29.5970   21.6350 H   0  0  0  0  0  0  0  0  0  0  0  0
  -18.0110  -27.7340   22.7920 C   0  0  0  0  0  0  0  0  0  0  0  0
  -20.5530  -28.0940   23.0930 C   0  0  0  0  0  3  0  0  0  0  0  0
  -20.7160  -26.6530   22.5560 C   0  0  0  0  0  2  0  0  0  0  0  0
  -19.6430  -26.2660   21.5340 C   0  0  0  0  0  2  0  0  0  0  0  0
  -18.2470  -26.3760   22.1530 C   0  0  0  0  0  2  0  0  0  0  0  0
  -19.0940  -28.5480   23.2180 C   0  0  0  0  0  0  0  0  0  0  0  0
  -18.8200  -29.8150   23.7770 C   0  0  0  0  0  3  0  0  0  0  0  0
  -17.4960  -30.2730   23.9090 C   0  0  0  0  0  3  0  0  0  0  0  0
  -16.4260  -29.4580   23.5000 C   0  0  0  0  0  3  0  0  0  0  0  0
  -16.6850  -28.1910   22.9470 C   0  0  0  0  0  3  0  0  0  0  0  0
  -25.9610  -32.1670   23.6210 C   0  0  0  0  0  3  0  0  0  0  0  0
  -25.6890  -33.5510   24.0350 N   0  0  0  0  0  0  0  0  0  0  0  0
  -26.0210  -34.6390   23.3260 C   0  0  0  0  0  0  0  0  0  0  0  0
  -26.6570  -34.5790   22.2700 O   0  0  0  0  0  0  0  0  0  0  0  0
  -25.1180  -33.6720   24.8570 H   0  0  0  0  0  0  0  0  0  0  0  0
  -24.3230  -36.4830   23.1300 C   0  0  0  0  0  1  0  0  0  0  0  0
  -25.5810  -36.0090   23.8740 C   0  0  0  0  0  3  0  0  0  0  0  0
  -27.7580  -36.8080   24.6830 C   0  0  0  0  0  1  0  0  0  0  0  0
  -26.6320  -37.0450   23.7830 N   0  0  0  0  0  0  0  0  0  0  0  0
  -26.2520  -37.9650   23.9890 H   0  0  0  0  0  0  0  0  0  0  0  0
  -26.5410  -31.3320   24.8290 C   0  0  1  0  0  0  0  0  0  0  0  0
  -25.4990  -31.0260   25.9310 C   0  0  0  0  0  1  0  0  0  0  0  0
  -27.1130  -29.9820   24.3370 C   0  0  0  0  0  1  0  0  0  0  0  0
  -27.7190  -32.0980   25.4760 C   0  0  0  0  0  1  0  0  0  0  0  0
  -30.2280  -17.2390   23.8250 C   0  0  0  0  0  1  0  0  0  0  0  0
  -31.1480  -18.2020   23.0570 C   0  0  0  0  0  2  0  0  0  0  0  0
  1  2  1  0
  2 92  1  0
  3  6  1  0
  3  2  2  0
  4  1  2  0
  5  4  1  0
  5  3  1  0
  6  7  2  0
  7  8  1  0
  9  6  1  0
 10 15  1  0
 11 12  1  0
 11 10  1  0
 13 12  1  0
 13 20  1  0
 13 14  1  0
 15  9  1  0
 15 14  1  0
 16  9  2  0
 17 18  2  0
 18 37  1  0
 19 22  1  0
 19 18  1  0
 20 21  1  0
 20 17  1  0
 21 19  2  0
 22 23  1  0
 23 24  2  0
 25 28  1  0
 25 24  1  0
 26 25  2  0
 27 26  1  0
 27 22  2  0
 28 29  1  0
 29 34  2  0
 29 30  1  0
 30 31  2  0
 31 32  1  0
 32 36  1  0
 33 32  2  0
 34 33  1  0
 35 34  1  0
 37 38  1  0
 38 40  1  0
 38 41  1  0
 39 37  2  0
 42 17  1  0
 42 43  1  0
 44 42  1  0
 46 45  2  0
 46  4  1  0
 47 45  1  0
 47 49  1  0
 48 47  2  0
 50 52  1  0
 50 49  1  0
 51 62  2  0
 52 57  1  0
 53 61  1  0
 53 63  1  0
 54 60  1  0
 54 56  1  0
 55 61  1  0
 56 55  1  0
 57 56  2  0
 58 59  1  0
 58 52  2  0
 59 54  2  0
 60 53  1  0
 61 51  1  0
 63 65  2  0
 64 63  1  0
 66 64  1  0
 67 76  2  0
 67 72  1  0
 68 64  1  0
 68 72  1  0
 69 68  1  0
 70 71  1  0
 70 69  1  0
 71 67  1  0
 72 73  2  0
 73 74  1  0
 75 74  2  0
 76 75  1  0
 77 51  1  0
 77 78  1  0
 77 87  1  0
 78 81  1  0
 79 83  1  0
 79 78  1  0
 80 79  2  0
 83 82  1  0
 85 83  1  0
 85 86  1  0
 85 84  1  0
 87 90  1  1
 87 88  1  0
 89 87  1  0
 92 91  1  0
M  ISO  4   6 100   9 100  49 101  50 101
M  END
>  <TORSDO>  (9) 
F 21

>  <SCORE>  (9) 
-8.396

>  <name>  (9) 
8

>  <ligand_id>  (9) 
8

>  <original_smiles>  (9) 
[H]N=C(C(=O)N1C([H])([H])C([H])([H])C([H])([H])C([H])(n2nc(-c3c([H])c([H])c(Oc4c([H])c([H])c(F)c([H])c4F)c([H])c3[H])c(C(=O)N([H])[H])c2N([H])[H])C1([H])[H])c1sc(N=C([H])C(=O)C([H])([H])Oc2c([H])c([H])c3c(c2[H])C([H])([H])N(C(=O)C([H])(N([H])C(=O)C([H])(N([H])C([H])([H])[H])C([H])([H])[H])C(C([H])([H])[H])(C([H])([H])[H])C([H])([H])[H])C([H])(C(=O)N([H])C2([H])c4c([H])c([H])c([H])c([H])c4C([H])([H])C([H])([H])C2([H])[H])C3([H])[H])c([H])c1C([H])([H])C([H])([H])[H]

>  <smiles>  (9) 
[H]N=C(C(=O)N1C([H])([H])C([H])([H])C([H])([H])C([H])(n2nc(-c3c([H])c([H])c(Oc4c([H])c([H])c(F)c([H])c4F)c([H])c3[H])c(C(=O)N([H])[H])c2N([H])[H])C1([H])[H])c1sc(N=C([H])C(=O)C([H])([H])Oc2c([H])c([H])c3c(c2[H])C([H])([H])N(C(=O)C([H])(N([H])C(=O)C([H])(N([H])C([H])([H])[H])C([H])([H])[H])C(C([H])([H])[H])(C([H])([H])[H])C([H])([H])[H])C([H])(C(=O)N([H])C2([H])c4c([H])c([H])c([H])c([H])c4C([H])([H])C([H])([H])C2([H])[H])C3([H])[H])c([H])c1C([H])([H])C([H])([H])[H]

$$$$
9:0:0
     RDKit          3D

 94102  0  0  1  0  0  0  0  0999 V2000
  -30.0480  -20.1010   22.5960 C   0  0  0  0  0  3  0  0  0  0  0  0
  -29.4120  -19.6680   19.9250 C   0  0  0  0  0  3  0  0  0  0  0  0
  -30.1120  -18.7840   22.0890 C   0  0  0  0  0  0  0  0  0  0  0  0
  -29.8130  -18.5460   20.7180 C   0  0  0  0  0  0  0  0  0  0  0  0
  -29.6750  -21.2090   21.8020 C   0  0  0  0  0  0  0  0  0  0  0  0
  -29.3400  -21.0000   20.4460 C   0  0  0  0  0  0  0  0  0  0  0  0
  -30.1080  -17.2060   20.0980 C   0  0  0  0  0  3  0  0  0  0  0  0
  -29.7550  -15.9420   20.4910 C   0  0  0  0  0  3  0  0  0  0  0  0
  -30.4050  -14.7670   19.8650 C   0  0  0  0  0  0  0  0  0  0  0  0
  -30.1230  -12.5100   18.8970 C   0  0  0  0  0  2  0  0  0  0  0  0
  -29.0860  -12.5780   17.7560 C   0  0  0  0  0  2  0  0  0  0  0  0
  -27.6620  -12.3840   18.3070 C   0  0  0  0  0  2  0  0  0  0  0  0
  -27.3730  -13.2760   19.5460 C   0  0  0  0  0  3  0  0  0  0  0  0
  -28.5240  -13.1990   20.5740 C   0  0  0  0  0  2  0  0  0  0  0  0
  -29.7730  -13.5520   19.8870 N   0  0  0  0  0  0  0  0  0  0  0  0
  -31.4790  -14.8950   19.2740 O   0  0  0  0  0  0  0  0  0  0  0  0
  -25.0490  -13.7960   20.5120 C   0  0  0  0  0  0  0  0  0  0  0  0
  -24.0380  -12.9850   20.9520 C   0  0  0  0  0  0  0  0  0  0  0  0
  -24.5200  -11.6460   20.8250 C   0  0  0  0  0  0  0  0  0  0  0  0
  -26.0830  -12.9490   20.1460 N   0  0  0  0  0  0  0  0  0  0  0  0
  -25.7750  -11.6500   20.3930 N   0  0  0  0  0  0  0  0  0  0  0  0
  -23.8410  -10.3600   21.0340 C   0  0  0  0  0  0  0  0  0  0  0  0
  -24.3470   -9.3930   21.9300 C   0  0  0  0  0  3  0  0  0  0  0  0
  -23.6630   -8.1730   22.1280 C   0  0  0  0  0  3  0  0  0  0  0  0
  -22.4610   -7.9110   21.4310 C   0  0  0  0  0  0  0  0  0  0  0  0
  -21.9730   -8.8680   20.5230 C   0  0  0  0  0  3  0  0  0  0  0  0
  -22.6570  -10.0790   20.3220 C   0  0  0  0  0  3  0  0  0  0  0  0
  -21.7430   -6.7450   21.5410 O   0  0  0  0  0  0  0  0  0  0  0  0
  -21.7290   -6.0160   22.7020 C   0  0  0  0  0  0  0  0  0  0  0  0
  -21.2610   -6.5590   23.9180 C   0  0  0  0  0  3  0  0  0  0  0  0
  -21.1980   -5.7520   25.0720 C   0  0  0  0  0  3  0  0  0  0  0  0
  -21.5960   -4.4040   25.0120 C   0  0  0  0  0  0  0  0  0  0  0  0
  -22.0580   -3.8600   23.8010 C   0  0  0  0  0  3  0  0  0  0  0  0
  -22.1220   -4.6630   22.6490 C   0  0  0  0  0  0  0  0  0  0  0  0
  -22.5480   -4.1280   21.4800 F   0  0  0  0  0  0  0  0  0  0  0  0
  -21.5290   -3.6260   26.1180 F   0  0  0  0  0  0  0  0  0  0  0  0
  -22.6660  -13.4190   21.3760 C   0  0  0  0  0  0  0  0  0  0  0  0
  -22.0470  -12.6830   22.2940 N   0  0  0  0  0  0  0  0  0  0  0  0
  -22.1540  -14.4460   20.9320 O   0  0  0  0  0  0  0  0  0  0  0  0
  -22.4730  -11.8500   22.6700 H   0  0  0  0  0  0  0  0  0  0  0  0
  -21.1330  -12.9600   22.6270 H   0  0  0  0  0  0  0  0  0  0  0  0
  -25.1690  -15.1750   20.3740 N   0  0  0  0  0  0  0  0  0  0  0  0
  -24.4120  -15.8120   20.5940 H   0  0  0  0  0  0  0  0  0  0  0  0
  -25.9870  -15.6460   20.0050 H   0  0  0  0  0  0  0  0  0  0  0  0
  -31.2370  -17.8850   24.1550 C   0  0  0  0  0  2  0  0  0  0  0  0
  -30.5950  -17.7110   22.9870 C   0  0  0  0  0  3  0  0  0  0  0  0
  -29.5900  -22.4920   22.3000 O   0  0  0  0  0  0  0  0  0  0  0  0
  -29.6190  -24.1810   24.0040 C   0  0  0  0  0  1  0  0  0  0  0  0
  -29.9790  -22.7370   23.6470 C   0  0  0  0  0  2  0  0  0  0  0  0
  -28.9060  -22.0650   19.6530 O   0  0  0  0  0  0  0  0  0  0  0  0
  -29.8050  -23.1850   19.4380 C   0  0  0  0  0  2  0  0  0  0  0  0
  -29.4570  -24.6010   20.0310 C   0  0  0  0  0  2  0  0  0  0  0  0
  -28.3600  -25.4710   19.3520 C   0  0  0  0  0  2  0  0  0  0  0  0
  -28.3730  -26.8500   19.8320 O   0  0  0  0  0  0  0  0  0  0  0  0
  -24.4560  -31.8140   23.2100 C   0  0  0  0  0  0  0  0  0  0  0  0
  -27.1900  -27.5840   19.8490 C   0  0  0  0  0  0  0  0  0  0  0  0
  -23.2790  -30.4660   21.5060 C   0  0  0  0  0  3  0  0  0  0  0  0
  -24.7610  -29.0590   19.9770 C   0  0  0  0  0  0  0  0  0  0  0  0
  -25.7970  -30.8970   21.3110 C   0  0  0  0  0  2  0  0  0  0  0  0
  -25.9140  -29.5660   20.5870 C   0  0  0  0  0  0  0  0  0  0  0  0
  -27.1300  -28.8350   20.5230 C   0  0  0  0  0  3  0  0  0  0  0  0
  -26.0120  -27.1160   19.2190 C   0  0  0  0  0  3  0  0  0  0  0  0
  -24.8070  -27.8370   19.2900 C   0  0  0  0  0  3  0  0  0  0  0  0
  -23.4940  -29.8790   20.0880 C   0  0  0  0  0  2  0  0  0  0  0  0
  -24.5290  -31.0710   22.0670 N   0  0  0  0  0  0  0  0  0  0  0  0
  -23.3700  -32.0240   23.7690 O   0  0  0  0  0  0  0  0  0  0  0  0
  -22.6700  -29.3710   22.4120 C   0  0  0  0  0  0  0  0  0  0  0  0
  -21.3600  -29.1210   22.2530 N   0  0  0  0  0  0  0  0  0  0  0  0
  -23.3730  -28.7520   23.2150 O   0  0  0  0  0  0  0  0  0  0  0  0
  -20.8490  -29.6760   21.5800 H   0  0  0  0  0  0  0  0  0  0  0  0
  -18.0520  -27.7140   22.6340 C   0  0  0  0  0  0  0  0  0  0  0  0
  -20.5830  -28.1080   22.9700 C   0  0  0  0  0  3  0  0  0  0  0  0
  -20.7810  -26.7070   22.3440 C   0  0  0  0  0  2  0  0  0  0  0  0
  -19.7190  -26.3610   21.2950 C   0  0  0  0  0  2  0  0  0  0  0  0
  -18.3190  -26.4030   21.9130 C   0  0  0  0  0  2  0  0  0  0  0  0
  -19.1160  -28.5220   23.1160 C   0  0  0  0  0  0  0  0  0  0  0  0
  -18.8120  -29.7490   23.7450 C   0  0  0  0  0  3  0  0  0  0  0  0
  -17.4770  -30.1690   23.8970 C   0  0  0  0  0  3  0  0  0  0  0  0
  -16.4270  -29.3560   23.4350 C   0  0  0  0  0  3  0  0  0  0  0  0
  -16.7150  -28.1300   22.8080 C   0  0  0  0  0  3  0  0  0  0  0  0
  -25.7260  -32.4520   23.8520 C   0  0  0  0  0  3  0  0  0  0  0  0
  -25.4030  -33.8490   24.1710 N   0  0  0  0  0  0  0  0  0  0  0  0
  -25.7420  -34.9000   23.4130 C   0  0  0  0  0  0  0  0  0  0  0  0
  -26.4290  -34.7960   22.3930 O   0  0  0  0  0  0  0  0  0  0  0  0
  -24.7900  -34.0000   24.9590 H   0  0  0  0  0  0  0  0  0  0  0  0
  -24.0050  -36.6780   23.0290 C   0  0  0  0  0  1  0  0  0  0  0  0
  -25.2390  -36.2860   23.8570 C   0  0  0  0  0  3  0  0  0  0  0  0
  -27.3520  -37.1960   24.7170 C   0  0  0  0  0  1  0  0  0  0  0  0
  -26.2650  -37.3460   23.7510 N   0  0  0  0  0  0  0  0  0  0  0  0
  -25.8480  -38.2630   23.8860 H   0  0  0  0  0  0  0  0  0  0  0  0
  -26.2260  -31.6860   25.1390 C   0  0  1  0  0  0  0  0  0  0  0  0
  -25.1130  -31.4350   26.1850 C   0  0  0  0  0  1  0  0  0  0  0  0
  -26.8310  -30.3140   24.7590 C   0  0  0  0  0  1  0  0  0  0  0  0
  -27.3570  -32.4910   25.8210 C   0  0  0  0  0  1  0  0  0  0  0  0
  2  6  2  0
  2  4  1  0
  3  1  1  0
  3 46  1  0
  4  3  2  0
  5 47  1  0
  5  1  2  0
  6  5  1  0
  7  8  2  0
  7  4  1  0
  9 15  1  0
  9  8  1  0
 10 15  1  0
 11 12  1  0
 11 10  1  0
 13 12  1  0
 13 20  1  0
 13 14  1  0
 15 14  1  0
 16  9  2  0
 17 18  2  0
 18 37  1  0
 19 18  1  0
 19 22  1  0
 20 21  1  0
 20 17  1  0
 21 19  2  0
 22 23  1  0
 23 24  2  0
 25 28  1  0
 25 24  1  0
 26 25  2  0
 27 26  1  0
 27 22  2  0
 28 29  1  0
 29 30  1  0
 30 31  2  0
 32 31  1  0
 32 36  1  0
 33 32  2  0
 34 29  2  0
 34 33  1  0
 35 34  1  0
 37 38  1  0
 38 41  1  0
 38 40  1  0
 39 37  2  0
 42 17  1  0
 42 43  1  0
 44 42  1  0
 46 45  2  0
 47 49  1  0
 49 48  1  0
 50  6  1  0
 51 50  1  0
 51 52  1  0
 53 54  1  0
 53 52  1  0
 54 56  1  0
 55 66  2  0
 56 61  1  0
 57 65  1  0
 57 67  1  0
 58 64  1  0
 58 60  1  0
 59 65  1  0
 60 59  1  0
 61 60  2  0
 62 63  1  0
 62 56  2  0
 63 58  2  0
 64 57  1  0
 65 55  1  0
 67 69  2  0
 68 67  1  0
 70 68  1  0
 71 80  2  0
 71 76  1  0
 72 68  1  0
 72 76  1  0
 73 72  1  0
 74 75  1  0
 74 73  1  0
 75 71  1  0
 76 77  2  0
 77 78  1  0
 79 78  2  0
 80 79  1  0
 81 55  1  0
 81 82  1  0
 81 91  1  0
 82 85  1  0
 83 87  1  0
 83 82  1  0
 84 83  2  0
 87 86  1  0
 89 87  1  0
 89 90  1  0
 89 88  1  0
 91 94  1  1
 91 92  1  0
 93 91  1  0
M  ISO  4   8 100   9 100  53 101  54 101
M  END
>  <TORSDO>  (10) 
F 24

>  <SCORE>  (10) 
-9.771

>  <name>  (10) 
9

>  <ligand_id>  (10) 
9

>  <original_smiles>  (10) 
[H]C([H])=C([H])c1c([H])c(OC([H])([H])C([H])([H])[H])c(OC([H])([H])C([H])([H])C([H])([H])Oc2c([H])c([H])c3c(c2[H])C([H])([H])N(C(=O)C([H])(N([H])C(=O)C([H])(N([H])C([H])([H])[H])C([H])([H])[H])C(C([H])([H])[H])(C([H])([H])[H])C([H])([H])[H])C([H])(C(=O)N([H])C2([H])c4c([H])c([H])c([H])c([H])c4C([H])([H])C([H])([H])C2([H])[H])C3([H])[H])c([H])c1C([H])=C([H])C(=O)N1C([H])([H])C([H])([H])C([H])([H])C([H])(n2nc(-c3c([H])c([H])c(Oc4c([H])c([H])c(F)c([H])c4F)c([H])c3[H])c(C(=O)N([H])[H])c2N([H])[H])C1([H])[H]

>  <smiles>  (10) 
[H]C([H])=C([H])c1c([H])c(OC([H])([H])C([H])([H])[H])c(OC([H])([H])C([H])([H])C([H])([H])Oc2c([H])c([H])c3c(c2[H])C([H])([H])N(C(=O)C([H])(N([H])C(=O)C([H])(N([H])C([H])([H])[H])C([H])([H])[H])C(C([H])([H])[H])(C([H])([H])[H])C([H])([H])[H])C([H])(C(=O)N([H])C2([H])c4c([H])c([H])c([H])c([H])c4C([H])([H])C([H])([H])C2([H])[H])C3([H])[H])c([H])c1C([H])=C([H])C(=O)N1C([H])([H])C([H])([H])C([H])([H])C([H])(n2nc(-c3c([H])c([H])c(Oc4c([H])c([H])c(F)c([H])c4F)c([H])c3[H])c(C(=O)N([H])[H])c2N([H])[H])C1([H])[H]

$$$$
10:0:0
     RDKit          3D

 92100  0  0  1  0  0  0  0  0999 V2000
  -31.3020  -19.3470   20.7790 C   0  0  0  0  0  3  0  0  0  0  0  0
  -29.9920  -19.6970   20.5270 C   0  0  0  0  0  0  0  0  0  0  0  0
  -29.3710  -18.3920   20.2420 C   0  0  0  0  0  0  0  0  0  0  0  0
  -30.2920  -17.3600   20.4690 C   0  0  0  0  0  0  0  0  0  0  0  0
  -31.4940  -17.9580   20.7690 O   0  0  0  0  0  0  0  0  0  0  0  0
  -30.7320  -14.8190   20.0510 C   0  0  0  0  0  0  0  0  0  0  0  0
  -30.4660  -12.5310   19.0080 C   0  0  0  0  0  2  0  0  0  0  0  0
  -29.4580  -12.5720   17.8360 C   0  0  0  0  0  2  0  0  0  0  0  0
  -28.0250  -12.3520   18.3550 C   0  0  0  0  0  2  0  0  0  0  0  0
  -27.6970  -13.2280   19.5930 C   0  0  0  0  0  3  0  0  0  0  0  0
  -28.8260  -13.2050   20.6510 C   0  0  0  0  0  2  0  0  0  0  0  0
  -30.0820  -13.5870   19.9840 N   0  0  0  0  0  0  0  0  0  0  0  0
  -31.8840  -14.8920   19.6100 O   0  0  0  0  0  0  0  0  0  0  0  0
  -30.0220  -15.9610   20.4460 N   0  0  0  0  0  0  0  0  0  0  0  0
  -29.0850  -15.7530   20.7500 H   0  0  0  0  0  0  0  0  0  0  0  0
  -25.3620  -13.7680   20.5070 C   0  0  0  0  0  0  0  0  0  0  0  0
  -24.3170  -12.9740   20.9050 C   0  0  0  0  0  0  0  0  0  0  0  0
  -24.7730  -11.6290   20.7800 C   0  0  0  0  0  0  0  0  0  0  0  0
  -26.3860  -12.9020   20.1590 N   0  0  0  0  0  0  0  0  0  0  0  0
  -26.0430  -11.6070   20.3880 N   0  0  0  0  0  0  0  0  0  0  0  0
  -24.0540  -10.3570   20.9640 C   0  0  0  0  0  0  0  0  0  0  0  0
  -24.5080   -9.3730   21.8720 C   0  0  0  0  0  3  0  0  0  0  0  0
  -23.7860   -8.1700   22.0430 C   0  0  0  0  0  3  0  0  0  0  0  0
  -22.6000   -7.9430   21.3060 C   0  0  0  0  0  0  0  0  0  0  0  0
  -22.1640   -8.9160   20.3910 C   0  0  0  0  0  3  0  0  0  0  0  0
  -22.8840  -10.1100   20.2180 C   0  0  0  0  0  3  0  0  0  0  0  0
  -21.8520   -6.7920   21.3860 O   0  0  0  0  0  0  0  0  0  0  0  0
  -21.7460   -6.0830   22.5560 C   0  0  0  0  0  0  0  0  0  0  0  0
  -21.2530   -6.6720   23.7390 C   0  0  0  0  0  3  0  0  0  0  0  0
  -21.0930   -5.8910   24.9010 C   0  0  0  0  0  3  0  0  0  0  0  0
  -21.4140   -4.5190   24.8800 C   0  0  0  0  0  0  0  0  0  0  0  0
  -21.9010   -3.9310   23.6980 C   0  0  0  0  0  3  0  0  0  0  0  0
  -22.0630   -4.7100   22.5400 C   0  0  0  0  0  0  0  0  0  0  0  0
  -22.5120   -4.1320   21.3990 F   0  0  0  0  0  0  0  0  0  0  0  0
  -21.2550   -3.7660   25.9930 F   0  0  0  0  0  0  0  0  0  0  0  0
  -22.9420  -13.4430   21.2870 C   0  0  0  0  0  0  0  0  0  0  0  0
  -22.2720  -12.7230   22.1840 N   0  0  0  0  0  0  0  0  0  0  0  0
  -22.4700  -14.4810   20.8300 O   0  0  0  0  0  0  0  0  0  0  0  0
  -22.6690  -11.8860   22.5860 H   0  0  0  0  0  0  0  0  0  0  0  0
  -21.3530  -13.0230   22.4770 H   0  0  0  0  0  0  0  0  0  0  0  0
  -25.5140  -15.1410   20.3850 N   0  0  0  0  0  0  0  0  0  0  0  0
  -24.7620  -15.7900   20.5850 H   0  0  0  0  0  0  0  0  0  0  0  0
  -26.3420  -15.6070   20.0330 H   0  0  0  0  0  0  0  0  0  0  0  0
  -29.2210  -21.0580   20.7330 C   0  0  0  0  0  3  0  0  0  0  0  0
  -29.0670  -22.4430   20.5230 C   0  0  0  0  0  3  0  0  0  0  0  0
  -29.5740  -23.7690   19.7780 C   0  0  0  0  0  2  0  0  0  0  0  0
  -28.4060  -24.8490   19.3280 C   0  0  0  0  0  2  0  0  0  0  0  0
  -28.5380  -26.3580   19.3350 O   0  0  0  0  0  0  0  0  0  0  0  0
  -24.7270  -31.2500   23.0680 C   0  0  0  0  0  0  0  0  0  0  0  0
  -27.3890  -27.2050   19.3840 C   0  0  0  0  0  0  0  0  0  0  0  0
  -23.5210  -30.1380   21.2110 C   0  0  0  0  0  3  0  0  0  0  0  0
  -24.9890  -28.8120   19.5740 C   0  0  0  0  0  0  0  0  0  0  0  0
  -26.0580  -30.4860   21.0850 C   0  0  0  0  0  2  0  0  0  0  0  0
  -26.1530  -29.2190   20.2350 C   0  0  0  0  0  0  0  0  0  0  0  0
  -27.3500  -28.4410   20.1160 C   0  0  0  0  0  3  0  0  0  0  0  0
  -26.1930  -26.8600   18.7070 C   0  0  0  0  0  3  0  0  0  0  0  0
  -25.0160  -27.6400   18.7930 C   0  0  0  0  0  3  0  0  0  0  0  0
  -23.7470  -29.6660   19.7470 C   0  0  0  0  0  2  0  0  0  0  0  0
  -24.7830  -30.6360   21.8480 N   0  0  0  0  0  0  0  0  0  0  0  0
  -23.6450  -31.4360   23.6460 O   0  0  0  0  0  0  0  0  0  0  0  0
  -22.8400  -28.9980   22.0090 C   0  0  0  0  0  0  0  0  0  0  0  0
  -21.5020  -28.8980   21.9080 N   0  0  0  0  0  0  0  0  0  0  0  0
  -23.5160  -28.2060   22.6720 O   0  0  0  0  0  0  0  0  0  0  0  0
  -21.0200  -29.6000   21.3620 H   0  0  0  0  0  0  0  0  0  0  0  0
  -18.0890  -27.7710   22.3530 C   0  0  0  0  0  0  0  0  0  0  0  0
  -20.6680  -27.8620   22.5250 C   0  0  0  0  0  3  0  0  0  0  0  0
  -20.6650  -26.5700   21.6760 C   0  0  0  0  0  2  0  0  0  0  0  0
  -19.5030  -26.5050   20.6800 C   0  0  0  0  0  2  0  0  0  0  0  0
  -18.1620  -26.5760   21.4170 C   0  0  0  0  0  2  0  0  0  0  0  0
  -19.2660  -28.3830   22.8620 C   0  0  0  0  0  0  0  0  0  0  0  0
  -19.1430  -29.5090   23.7050 C   0  0  0  0  0  3  0  0  0  0  0  0
  -17.8760  -30.0210   24.0430 C   0  0  0  0  0  3  0  0  0  0  0  0
  -16.7140  -29.4010   23.5500 C   0  0  0  0  0  3  0  0  0  0  0  0
  -16.8220  -28.2780   22.7100 C   0  0  0  0  0  3  0  0  0  0  0  0
  -26.0140  -31.7640   23.7860 C   0  0  0  0  0  3  0  0  0  0  0  0
  -25.7480  -33.1300   24.2540 N   0  0  0  0  0  0  0  0  0  0  0  0
  -26.1700  -34.2440   23.6450 C   0  0  0  0  0  0  0  0  0  0  0  0
  -26.8960  -34.2260   22.6470 O   0  0  0  0  0  0  0  0  0  0  0  0
  -25.1090  -33.2190   25.0320 H   0  0  0  0  0  0  0  0  0  0  0  0
  -24.5750  -36.1720   23.3910 C   0  0  0  0  0  1  0  0  0  0  0  0
  -25.7230  -35.5950   24.2360 C   0  0  0  0  0  3  0  0  0  0  0  0
  -27.8220  -36.2380   25.3320 C   0  0  0  0  0  1  0  0  0  0  0  0
  -26.8130  -36.5880   24.3350 N   0  0  0  0  0  0  0  0  0  0  0  0
  -26.4430  -37.5050   24.5700 H   0  0  0  0  0  0  0  0  0  0  0  0
  -26.4640  -30.8450   24.9880 C   0  0  1  0  0  0  0  0  0  0  0  0
  -25.3410  -30.5630   26.0120 C   0  0  0  0  0  1  0  0  0  0  0  0
  -26.9890  -29.4830   24.4800 C   0  0  0  0  0  1  0  0  0  0  0  0
  -27.6290  -31.5170   25.7540 C   0  0  0  0  0  1  0  0  0  0  0  0
  -28.0590  -18.1860   19.8750 O   0  0  0  0  0  0  0  0  0  0  0  0
  -27.7190  -18.6020   18.5450 C   0  0  0  0  0  2  0  0  0  0  0  0
  -25.4190  -19.2390   19.4360 C   0  0  0  0  0  2  0  0  0  0  0  0
  -26.3810  -19.3210   18.5010 C   0  0  0  0  0  3  0  0  0  0  0  0
  2 44  1  0
  2  1  2  0
  3  4  2  0
  3  2  1  0
  4  5  1  0
  5  1  1  0
  6 14  1  0
  7 12  1  0
  8  9  1  0
  8  7  1  0
 10  9  1  0
 10 19  1  0
 10 11  1  0
 12  6  1  0
 12 11  1  0
 13  6  2  0
 14  4  1  0
 14 15  1  0
 16 17  2  0
 17 36  1  0
 18 17  1  0
 18 21  1  0
 19 20  1  0
 19 16  1  0
 20 18  2  0
 21 22  1  0
 22 23  2  0
 24 27  1  0
 24 23  1  0
 25 24  2  0
 26 25  1  0
 26 21  2  0
 27 28  1  0
 28 29  1  0
 29 30  2  0
 31 30  1  0
 31 35  1  0
 32 31  2  0
 33 28  2  0
 33 32  1  0
 34 33  1  0
 36 37  1  0
 37 40  1  0
 37 39  1  0
 38 36  2  0
 41 16  1  0
 41 42  1  0
 43 41  1  0
 45 44  2  0
 46 45  1  0
 47 48  1  0
 47 46  1  0
 48 50  1  0
 49 60  2  0
 50 55  1  0
 51 59  1  0
 51 61  1  0
 52 58  1  0
 52 54  1  0
 53 59  1  0
 54 53  1  0
 55 54  2  0
 56 57  1  0
 56 50  2  0
 57 52  2  0
 58 51  1  0
 59 49  1  0
 61 63  2  0
 62 61  1  0
 64 62  1  0
 65 74  2  0
 65 70  1  0
 66 62  1  0
 66 70  1  0
 67 66  1  0
 68 69  1  0
 68 67  1  0
 69 65  1  0
 70 71  2  0
 71 72  1  0
 73 72  2  0
 74 73  1  0
 75 49  1  0
 75 76  1  0
 75 85  1  0
 76 79  1  0
 77 81  1  0
 77 76  1  0
 78 77  2  0
 81 80  1  0
 81 83  1  0
 83 84  1  0
 83 82  1  0
 85 88  1  1
 85 86  1  0
 87 85  1  0
 89  3  1  0
 90 89  1  0
 92 90  1  0
 92 91  2  0
M  ISO  4   6 100  14 100  47 101  48 101
M  END
>  <TORSDO>  (11) 
F 22

>  <SCORE>  (11) 
-10.810

>  <name>  (11) 
10

>  <ligand_id>  (11) 
10

>  <original_smiles>  (11) 
[H]C([H])=C([H])C([H])([H])Oc1c(N([H])C(=O)N2C([H])([H])C([H])([H])C([H])([H])C([H])(n3nc(-c4c([H])c([H])c(Oc5c([H])c([H])c(F)c([H])c5F)c([H])c4[H])c(C(=O)N([H])[H])c3N([H])[H])C2([H])[H])oc([H])c1C([H])=C([H])C([H])([H])C([H])([H])Oc1c([H])c([H])c2c(c1[H])C([H])([H])N(C(=O)C([H])(N([H])C(=O)C([H])(N([H])C([H])([H])[H])C([H])([H])[H])C(C([H])([H])[H])(C([H])([H])[H])C([H])([H])[H])C([H])(C(=O)N([H])C1([H])c3c([H])c([H])c([H])c([H])c3C([H])([H])C([H])([H])C1([H])[H])C2([H])[H]

>  <smiles>  (11) 
[H]C([H])=C([H])C([H])([H])Oc1c(N([H])C(=O)N2C([H])([H])C([H])([H])C([H])([H])C([H])(n3nc(-c4c([H])c([H])c(Oc5c([H])c([H])c(F)c([H])c5F)c([H])c4[H])c(C(=O)N([H])[H])c3N([H])[H])C2([H])[H])oc([H])c1C([H])=C([H])C([H])([H])C([H])([H])Oc1c([H])c([H])c2c(c1[H])C([H])([H])N(C(=O)C([H])(N([H])C(=O)C([H])(N([H])C([H])([H])[H])C([H])([H])[H])C(C([H])([H])[H])(C([H])([H])[H])C([H])([H])[H])C([H])(C(=O)N([H])C1([H])c3c([H])c([H])c([H])c([H])c3C([H])([H])C([H])([H])C1([H])[H])C2([H])[H]

$$$$
11:0:0
     RDKit          3D

 93101  0  0  1  0  0  0  0  0999 V2000
  -29.0970  -19.2530   20.3610 C   0  0  0  0  0  3  0  0  0  0  0  0
  -31.4690  -17.7720   20.2500 C   0  0  0  0  0  3  0  0  0  0  0  0
  -29.0650  -17.8230   20.5170 C   0  0  0  0  0  0  0  0  0  0  0  0
  -30.2680  -17.0420   20.4520 C   0  0  0  0  0  0  0  0  0  0  0  0
  -30.3030  -19.9800   20.1680 C   0  0  0  0  0  0  0  0  0  0  0  0
  -31.4840  -19.1910   20.1190 C   0  0  0  0  0  0  0  0  0  0  0  0
  -33.0060  -19.9730   19.8760 Cl  0  0  0  0  0  0  0  0  0  0  0  0
  -30.9510  -14.5540   20.0040 C   0  0  0  0  0  0  0  0  0  0  0  0
  -30.6500  -12.3790   18.8330 C   0  0  0  0  0  2  0  0  0  0  0  0
  -29.6430  -12.5930   17.6810 C   0  0  0  0  0  2  0  0  0  0  0  0
  -28.1910  -12.4390   18.1780 C   0  0  0  0  0  2  0  0  0  0  0  0
  -27.9200  -13.2320   19.4840 C   0  0  0  0  0  3  0  0  0  0  0  0
  -29.0330  -12.9850   20.5280 C   0  0  0  0  0  2  0  0  0  0  0  0
  -30.3180  -13.3410   19.9030 N   0  0  0  0  0  0  0  0  0  0  0  0
  -32.0790  -14.7260   19.5320 O   0  0  0  0  0  0  0  0  0  0  0  0
  -30.2050  -15.5740   20.5360 N   0  0  0  0  0  0  0  0  0  0  0  0
  -29.3690  -15.2290   20.9800 H   0  0  0  0  0  0  0  0  0  0  0  0
  -25.5720  -13.8370   20.3370 C   0  0  0  0  0  0  0  0  0  0  0  0
  -24.5140  -13.0640   20.7320 C   0  0  0  0  0  0  0  0  0  0  0  0
  -24.9550  -11.7100   20.6310 C   0  0  0  0  0  0  0  0  0  0  0  0
  -26.5920  -12.9520   20.0220 N   0  0  0  0  0  0  0  0  0  0  0  0
  -26.2280  -11.6660   20.2570 N   0  0  0  0  0  0  0  0  0  0  0  0
  -24.2210  -10.4510   20.8150 C   0  0  0  0  0  0  0  0  0  0  0  0
  -24.6090   -9.5020   21.7860 C   0  0  0  0  0  3  0  0  0  0  0  0
  -23.8770   -8.3070   21.9550 C   0  0  0  0  0  3  0  0  0  0  0  0
  -22.7400   -8.0540   21.1510 C   0  0  0  0  0  0  0  0  0  0  0  0
  -22.3700   -8.9910   20.1700 C   0  0  0  0  0  3  0  0  0  0  0  0
  -23.1040  -10.1760   19.9990 C   0  0  0  0  0  3  0  0  0  0  0  0
  -21.9820   -6.9100   21.2270 O   0  0  0  0  0  0  0  0  0  0  0  0
  -21.7700   -6.2660   22.4200 C   0  0  0  0  0  0  0  0  0  0  0  0
  -21.1690   -6.9140   23.5200 C   0  0  0  0  0  3  0  0  0  0  0  0
  -20.9060   -6.1950   24.7040 C   0  0  0  0  0  3  0  0  0  0  0  0
  -21.2330   -4.8290   24.7860 C   0  0  0  0  0  0  0  0  0  0  0  0
  -21.8260   -4.1790   23.6890 C   0  0  0  0  0  3  0  0  0  0  0  0
  -22.0910   -4.8950   22.5080 C   0  0  0  0  0  0  0  0  0  0  0  0
  -22.6430   -4.2610   21.4460 F   0  0  0  0  0  0  0  0  0  0  0  0
  -20.9730   -4.1350   25.9190 F   0  0  0  0  0  0  0  0  0  0  0  0
  -23.1390  -13.5500   21.0910 C   0  0  0  0  0  0  0  0  0  0  0  0
  -22.4610  -12.8550   21.9970 N   0  0  0  0  0  0  0  0  0  0  0  0
  -22.6760  -14.5800   20.6030 O   0  0  0  0  0  0  0  0  0  0  0  0
  -22.8490  -12.0200   22.4110 H   0  0  0  0  0  0  0  0  0  0  0  0
  -21.5410  -13.1600   22.2810 H   0  0  0  0  0  0  0  0  0  0  0  0
  -25.7470  -15.2110   20.2000 N   0  0  0  0  0  0  0  0  0  0  0  0
  -25.0020  -15.8710   20.3960 H   0  0  0  0  0  0  0  0  0  0  0  0
  -26.5870  -15.6570   19.8550 H   0  0  0  0  0  0  0  0  0  0  0  0
  -26.5550  -17.5370   20.3260 C   0  0  0  0  0  2  0  0  0  0  0  0
  -27.7680  -17.1400   20.7490 C   0  0  0  0  0  3  0  0  0  0  0  0
  -30.4120  -21.3880   20.0530 O   0  0  0  0  0  0  0  0  0  0  0  0
  -29.2610  -22.2990   20.0550 C   0  0  0  0  0  2  0  0  0  0  0  0
  -29.6390  -23.8320   19.8700 C   0  0  0  0  0  0  0  0  0  0  0  0
  -30.7940  -24.2190   20.0790 O   0  0  0  0  0  0  0  0  0  0  0  0
  -28.5260  -24.8540   19.4170 C   0  0  0  0  0  2  0  0  0  0  0  0
  -28.7780  -26.3130   19.5930 O   0  0  0  0  0  0  0  0  0  0  0  0
  -24.7850  -31.3570   22.8980 C   0  0  0  0  0  0  0  0  0  0  0  0
  -27.6390  -27.1410   19.5740 C   0  0  0  0  0  0  0  0  0  0  0  0
  -23.6720  -30.0380   21.1370 C   0  0  0  0  0  3  0  0  0  0  0  0
  -25.2110  -28.6610   19.6330 C   0  0  0  0  0  0  0  0  0  0  0  0
  -26.2010  -30.4690   21.0330 C   0  0  0  0  0  2  0  0  0  0  0  0
  -26.3500  -29.1480   20.2860 C   0  0  0  0  0  0  0  0  0  0  0  0
  -27.5690  -28.4020   20.2470 C   0  0  0  0  0  3  0  0  0  0  0  0
  -26.4710  -26.7170   18.8950 C   0  0  0  0  0  3  0  0  0  0  0  0
  -25.2740  -27.4520   18.9280 C   0  0  0  0  0  3  0  0  0  0  0  0
  -23.9390  -29.4770   19.7160 C   0  0  0  0  0  2  0  0  0  0  0  0
  -24.9030  -30.6350   21.7470 N   0  0  0  0  0  0  0  0  0  0  0  0
  -23.6810  -31.5510   23.4270 O   0  0  0  0  0  0  0  0  0  0  0  0
  -23.0350  -28.9250   22.0040 C   0  0  0  0  0  0  0  0  0  0  0  0
  -21.7160  -28.7180   21.8500 N   0  0  0  0  0  0  0  0  0  0  0  0
  -23.7260  -28.2560   22.7760 O   0  0  0  0  0  0  0  0  0  0  0  0
  -21.2170  -29.3140   21.2040 H   0  0  0  0  0  0  0  0  0  0  0  0
  -18.3560  -27.4530   22.2990 C   0  0  0  0  0  0  0  0  0  0  0  0
  -20.9190  -27.6980   22.5340 C   0  0  0  0  0  3  0  0  0  0  0  0
  -21.0120  -26.3370   21.8060 C   0  0  0  0  0  2  0  0  0  0  0  0
  -19.8870  -26.1170   20.7900 C   0  0  0  0  0  2  0  0  0  0  0  0
  -18.5200  -26.1850   21.4800 C   0  0  0  0  0  2  0  0  0  0  0  0
  -19.4820  -28.1730   22.7800 C   0  0  0  0  0  0  0  0  0  0  0  0
  -19.2730  -29.3640   23.5080 C   0  0  0  0  0  3  0  0  0  0  0  0
  -17.9700  -29.8350   23.7590 C   0  0  0  0  0  3  0  0  0  0  0  0
  -16.8590  -29.1120   23.2930 C   0  0  0  0  0  3  0  0  0  0  0  0
  -17.0530  -27.9220   22.5680 C   0  0  0  0  0  3  0  0  0  0  0  0
  -26.0280  -31.9930   23.5940 C   0  0  0  0  0  3  0  0  0  0  0  0
  -25.6620  -33.3580   23.9970 N   0  0  0  0  0  0  0  0  0  0  0  0
  -25.9600  -34.4640   23.3020 C   0  0  0  0  0  0  0  0  0  0  0  0
  -26.6440  -34.4440   22.2740 O   0  0  0  0  0  0  0  0  0  0  0  0
  -25.0560  -33.4450   24.7990 H   0  0  0  0  0  0  0  0  0  0  0  0
  -24.1600  -36.2000   23.0380 C   0  0  0  0  0  1  0  0  0  0  0  0
  -25.4170  -35.8050   23.8300 C   0  0  0  0  0  3  0  0  0  0  0  0
  -27.5060  -36.7380   24.7200 C   0  0  0  0  0  1  0  0  0  0  0  0
  -26.4040  -36.9040   23.7750 N   0  0  0  0  0  0  0  0  0  0  0  0
  -25.9600  -37.7980   23.9610 H   0  0  0  0  0  0  0  0  0  0  0  0
  -26.5360  -31.1640   24.8370 C   0  0  1  0  0  0  0  0  0  0  0  0
  -25.4210  -30.8170   25.8500 C   0  0  0  0  0  1  0  0  0  0  0  0
  -27.1880  -29.8380   24.3810 C   0  0  0  0  0  1  0  0  0  0  0  0
  -27.6310  -31.9600   25.5850 C   0  0  0  0  0  1  0  0  0  0  0  0
  1  3  1  0
  2  4  1  0
  3 47  1  0
  4  3  2  0
  4 16  1  0
  5  1  2  0
  6  5  1  0
  6  2  2  0
  7  6  1  0
  8 16  1  0
  9 14  1  0
 10 11  1  0
 10  9  1  0
 12 11  1  0
 12 21  1  0
 12 13  1  0
 14  8  1  0
 14 13  1  0
 15  8  2  0
 16 17  1  0
 18 19  2  0
 19 38  1  0
 20 19  1  0
 20 23  1  0
 21 22  1  0
 21 18  1  0
 22 20  2  0
 23 24  1  0
 24 25  2  0
 26 29  1  0
 26 25  1  0
 27 26  2  0
 28 27  1  0
 28 23  2  0
 29 30  1  0
 30 35  2  0
 30 31  1  0
 31 32  2  0
 32 33  1  0
 33 37  1  0
 34 33  2  0
 35 34  1  0
 36 35  1  0
 38 39  1  0
 39 42  1  0
 39 41  1  0
 40 38  2  0
 43 18  1  0
 43 44  1  0
 45 43  1  0
 46 47  2  0
 48 49  1  0
 48  5  1  0
 50 49  1  0
 50 51  2  0
 52 53  1  0
 52 50  1  0
 54 65  2  0
 55 53  1  0
 55 60  1  0
 56 64  1  0
 56 66  1  0
 57 63  1  0
 57 59  1  0
 58 64  1  0
 59 58  1  0
 60 59  2  0
 61 62  1  0
 61 55  2  0
 62 57  2  0
 63 56  1  0
 64 54  1  0
 66 68  2  0
 67 66  1  0
 69 67  1  0
 70 79  2  0
 70 75  1  0
 71 67  1  0
 71 75  1  0
 72 71  1  0
 73 74  1  0
 73 72  1  0
 74 70  1  0
 75 76  2  0
 76 77  1  0
 78 77  2  0
 79 78  1  0
 80 54  1  0
 80 81  1  0
 80 90  1  0
 81 84  1  0
 82 86  1  0
 82 81  1  0
 83 82  2  0
 86 85  1  0
 88 86  1  0
 88 89  1  0
 88 87  1  0
 90 93  1  1
 90 91  1  0
 92 90  1  0
M  ISO  4   8 100  16 100  52 101  53 101
M  END
>  <TORSDO>  (12) 
F 21

>  <SCORE>  (12) 
-11.539

>  <name>  (12) 
11

>  <ligand_id>  (12) 
11

>  <original_smiles>  (12) 
[H]C([H])=C([H])c1c([H])c(OC([H])([H])C(=O)C([H])([H])Oc2c([H])c([H])c3c(c2[H])C([H])([H])N(C(=O)C([H])(N([H])C(=O)C([H])(N([H])C([H])([H])[H])C([H])([H])[H])C(C([H])([H])[H])(C([H])([H])[H])C([H])([H])[H])C([H])(C(=O)N([H])C2([H])c4c([H])c([H])c([H])c([H])c4C([H])([H])C([H])([H])C2([H])[H])C3([H])[H])c(Cl)c([H])c1N([H])C(=O)N1C([H])([H])C([H])([H])C([H])([H])C([H])(n2nc(-c3c([H])c([H])c(Oc4c([H])c([H])c(F)c([H])c4F)c([H])c3[H])c(C(=O)N([H])[H])c2N([H])[H])C1([H])[H]

>  <smiles>  (12) 
[H]C([H])=C([H])c1c([H])c(OC([H])([H])C(=O)C([H])([H])Oc2c([H])c([H])c3c(c2[H])C([H])([H])N(C(=O)C([H])(N([H])C(=O)C([H])(N([H])C([H])([H])[H])C([H])([H])[H])C(C([H])([H])[H])(C([H])([H])[H])C([H])([H])[H])C([H])(C(=O)N([H])C2([H])c4c([H])c([H])c([H])c([H])c4C([H])([H])C([H])([H])C2([H])[H])C3([H])[H])c(Cl)c([H])c1N([H])C(=O)N1C([H])([H])C([H])([H])C([H])([H])C([H])(n2nc(-c3c([H])c([H])c(Oc4c([H])c([H])c(F)c([H])c4F)c([H])c3[H])c(C(=O)N([H])[H])c2N([H])[H])C1([H])[H]

$$$$
12:0:0
     RDKit          3D

 93101  0  0  1  0  0  0  0  0999 V2000
  -29.7210  -20.3470   22.3250 C   0  0  0  0  0  3  0  0  0  0  0  0
  -29.1550  -21.0160   21.2240 C   0  0  0  0  0  3  0  0  0  0  0  0
  -29.6270  -19.0830   19.8340 C   0  0  0  0  0  3  0  0  0  0  0  0
  -30.1830  -19.0090   22.2100 C   0  0  0  0  0  0  0  0  0  0  0  0
  -30.2190  -18.3850   20.9280 C   0  0  0  0  0  0  0  0  0  0  0  0
  -29.0780  -20.3890   19.9740 C   0  0  0  0  0  0  0  0  0  0  0  0
  -30.8940  -17.0430   20.7040 C   0  0  0  0  0  0  0  0  0  0  0  0
  -32.2440  -16.8770   21.4150 C   0  0  0  0  0  1  0  0  0  0  0  0
  -30.4030  -16.1380   19.9310 N   0  0  0  0  0  0  0  0  0  0  0  0
  -31.1870  -15.0480   19.5350 C   0  0  0  0  0  0  0  0  0  0  0  0
  -30.8520  -12.8770   18.4670 C   0  0  0  0  0  2  0  0  0  0  0  0
  -29.7550  -13.0760   17.3980 C   0  0  0  0  0  2  0  0  0  0  0  0
  -28.3380  -12.9460   17.9970 C   0  0  0  0  0  2  0  0  0  0  0  0
  -28.1660  -13.7280   19.3260 C   0  0  0  0  0  3  0  0  0  0  0  0
  -29.3550  -13.4940   20.2760 C   0  0  0  0  0  2  0  0  0  0  0  0
  -30.5870  -13.8300   19.5540 N   0  0  0  0  0  0  0  0  0  0  0  0
  -32.3070  -15.1970   19.0410 O   0  0  0  0  0  0  0  0  0  0  0  0
  -25.9270  -14.3080   20.4400 C   0  0  0  0  0  0  0  0  0  0  0  0
  -24.8960  -13.5290   20.8810 C   0  0  0  0  0  0  0  0  0  0  0  0
  -25.2940  -12.1760   20.6520 C   0  0  0  0  0  0  0  0  0  0  0  0
  -26.8950  -13.4330   19.9730 N   0  0  0  0  0  0  0  0  0  0  0  0
  -26.5260  -12.1380   20.1600 N   0  0  0  0  0  0  0  0  0  0  0  0
  -24.5590  -10.9180   20.8240 C   0  0  0  0  0  0  0  0  0  0  0  0
  -24.9600   -9.9530   21.7750 C   0  0  0  0  0  3  0  0  0  0  0  0
  -24.2230   -8.7620   21.9380 C   0  0  0  0  0  3  0  0  0  0  0  0
  -23.0740   -8.5230   21.1470 C   0  0  0  0  0  0  0  0  0  0  0  0
  -22.6940   -9.4750   20.1850 C   0  0  0  0  0  3  0  0  0  0  0  0
  -23.4280  -10.6590   20.0200 C   0  0  0  0  0  3  0  0  0  0  0  0
  -22.3100   -7.3840   21.2200 O   0  0  0  0  0  0  0  0  0  0  0  0
  -22.0060   -6.7970   22.4210 C   0  0  0  0  0  0  0  0  0  0  0  0
  -21.3100   -7.4900   23.4350 C   0  0  0  0  0  3  0  0  0  0  0  0
  -20.9560   -6.8260   24.6260 C   0  0  0  0  0  3  0  0  0  0  0  0
  -21.2850   -5.4680   24.8020 C   0  0  0  0  0  0  0  0  0  0  0  0
  -21.9700   -4.7740   23.7890 C   0  0  0  0  0  3  0  0  0  0  0  0
  -22.3280   -5.4360   22.6020 C   0  0  0  0  0  0  0  0  0  0  0  0
  -22.9740   -4.7570   21.6230 F   0  0  0  0  0  0  0  0  0  0  0  0
  -20.9350   -4.8280   25.9420 F   0  0  0  0  0  0  0  0  0  0  0  0
  -23.5680  -14.0080   21.3950 C   0  0  0  0  0  0  0  0  0  0  0  0
  -22.9540  -13.2590   22.3020 N   0  0  0  0  0  0  0  0  0  0  0  0
  -23.0870  -15.0790   21.0210 O   0  0  0  0  0  0  0  0  0  0  0  0
  -23.3590  -12.3970   22.6330 H   0  0  0  0  0  0  0  0  0  0  0  0
  -22.0630  -13.5570   22.6730 H   0  0  0  0  0  0  0  0  0  0  0  0
  -26.1150  -15.6880   20.3840 N   0  0  0  0  0  0  0  0  0  0  0  0
  -25.4020  -16.3430   20.6830 H   0  0  0  0  0  0  0  0  0  0  0  0
  -26.9490  -16.1330   20.0190 H   0  0  0  0  0  0  0  0  0  0  0  0
  -31.3690  -18.6790   24.4090 C   0  0  0  0  0  2  0  0  0  0  0  0
  -30.5480  -18.2660   23.4360 C   0  0  0  0  0  3  0  0  0  0  0  0
  -28.3770  -21.0040   18.9510 O   0  0  0  0  0  0  0  0  0  0  0  0
  -29.0140  -22.0370   18.1720 C   0  0  0  0  0  2  0  0  0  0  0  0
  -29.1440  -23.4510   18.8100 C   0  0  0  0  0  2  0  0  0  0  0  0
  -27.8310  -24.2880   18.8180 C   0  0  0  0  0  2  0  0  0  0  0  0
  -27.8080  -25.5850   17.9500 C   0  0  0  0  0  2  0  0  0  0  0  0
  -27.8290  -26.8480   18.6490 O   0  0  0  0  0  0  0  0  0  0  0  0
  -24.5990  -31.4440   23.0190 C   0  0  0  0  0  0  0  0  0  0  0  0
  -26.6640  -27.5440   18.9150 C   0  0  0  0  0  0  0  0  0  0  0  0
  -23.1380  -30.3210   21.3720 C   0  0  0  0  0  3  0  0  0  0  0  0
  -24.3290  -29.0340   19.5290 C   0  0  0  0  0  0  0  0  0  0  0  0
  -25.6090  -30.7100   20.8560 C   0  0  0  0  0  2  0  0  0  0  0  0
  -25.5700  -29.4580   20.0070 C   0  0  0  0  0  0  0  0  0  0  0  0
  -26.7330  -28.7130   19.7110 C   0  0  0  0  0  3  0  0  0  0  0  0
  -25.3940  -27.1280   18.4490 C   0  0  0  0  0  3  0  0  0  0  0  0
  -24.2280  -27.8590   18.7680 C   0  0  0  0  0  3  0  0  0  0  0  0
  -23.1400  -29.8890   19.8820 C   0  0  0  0  0  2  0  0  0  0  0  0
  -24.4760  -30.8310   21.8100 N   0  0  0  0  0  0  0  0  0  0  0  0
  -23.6170  -31.6240   23.7520 O   0  0  0  0  0  0  0  0  0  0  0  0
  -22.6070  -29.1520   22.2360 C   0  0  0  0  0  0  0  0  0  0  0  0
  -21.2930  -28.8890   22.1510 N   0  0  0  0  0  0  0  0  0  0  0  0
  -23.3740  -28.4910   22.9390 O   0  0  0  0  0  0  0  0  0  0  0  0
  -20.7230  -29.4720   21.5530 H   0  0  0  0  0  0  0  0  0  0  0  0
  -18.0900  -27.2340   22.4870 C   0  0  0  0  0  0  0  0  0  0  0  0
  -20.5890  -27.7940   22.8240 C   0  0  0  0  0  3  0  0  0  0  0  0
  -20.8870  -26.4340   22.1440 C   0  0  0  0  0  2  0  0  0  0  0  0
  -19.8340  -26.0130   21.1130 C   0  0  0  0  0  2  0  0  0  0  0  0
  -18.4350  -25.9600   21.7380 C   0  0  0  0  0  2  0  0  0  0  0  0
  -19.0950  -28.1040   22.9820 C   0  0  0  0  0  0  0  0  0  0  0  0
  -18.7030  -29.2970   23.6320 C   0  0  0  0  0  3  0  0  0  0  0  0
  -17.3440  -29.6310   23.7740 C   0  0  0  0  0  3  0  0  0  0  0  0
  -16.3520  -28.7630   23.2830 C   0  0  0  0  0  3  0  0  0  0  0  0
  -16.7300  -27.5570   22.6660 C   0  0  0  0  0  3  0  0  0  0  0  0
  -25.9770  -31.9740   23.5270 C   0  0  0  0  0  3  0  0  0  0  0  0
  -25.7750  -33.3330   24.0460 N   0  0  0  0  0  0  0  0  0  0  0  0
  -26.0670  -34.4580   23.3790 C   0  0  0  0  0  0  0  0  0  0  0  0
  -26.6140  -34.4620   22.2730 O   0  0  0  0  0  0  0  0  0  0  0  0
  -25.2930  -33.4100   24.9290 H   0  0  0  0  0  0  0  0  0  0  0  0
  -24.3900  -36.3340   23.4240 C   0  0  0  0  0  1  0  0  0  0  0  0
  -25.6850  -35.7910   24.0460 C   0  0  0  0  0  3  0  0  0  0  0  0
  -27.9250  -36.5060   24.7590 C   0  0  0  0  0  1  0  0  0  0  0  0
  -26.7460  -36.8170   23.9590 N   0  0  0  0  0  0  0  0  0  0  0  0
  -26.3870  -37.7190   24.2650 H   0  0  0  0  0  0  0  0  0  0  0  0
  -26.6420  -31.0470   24.6190 C   0  0  1  0  0  0  0  0  0  0  0  0
  -25.6990  -30.6940   25.7900 C   0  0  0  0  0  1  0  0  0  0  0  0
  -27.1240  -29.7180   23.9860 C   0  0  0  0  0  1  0  0  0  0  0  0
  -27.8880  -31.7410   25.2220 C   0  0  0  0  0  1  0  0  0  0  0  0
  2  1  2  0
  3  6  2  0
  3  5  1  0
  4  1  1  0
  4 47  1  0
  5  4  2  0
  6  2  1  0
  7  5  1  0
  7  8  1  0
  9  7  2  0
 10 16  1  0
 10  9  1  0
 11 16  1  0
 12 13  1  0
 12 11  1  0
 14 13  1  0
 14 21  1  0
 14 15  1  0
 16 15  1  0
 17 10  2  0
 18 19  2  0
 19 38  1  0
 20 23  1  0
 20 19  1  0
 21 22  1  0
 21 18  1  0
 22 20  2  0
 23 24  1  0
 24 25  2  0
 26 29  1  0
 26 25  1  0
 27 26  2  0
 28 27  1  0
 28 23  2  0
 29 30  1  0
 30 35  2  0
 30 31  1  0
 31 32  2  0
 32 33  1  0
 33 37  1  0
 34 33  2  0
 35 34  1  0
 36 35  1  0
 38 39  1  0
 39 41  1  0
 39 42  1  0
 40 38  2  0
 43 18  1  0
 43 44  1  0
 45 43  1  0
 47 46  2  0
 48  6  1  0
 49 50  1  0
 49 48  1  0
 50 51  1  0
 52 53  1  0
 52 51  1  0
 53 55  1  0
 54 65  2  0
 55 60  1  0
 56 64  1  0
 56 66  1  0
 57 63  1  0
 57 59  1  0
 58 64  1  0
 59 58  1  0
 60 59  2  0
 61 62  1  0
 61 55  2  0
 62 57  2  0
 63 56  1  0
 64 54  1  0
 66 68  2  0
 67 66  1  0
 69 67  1  0
 70 79  2  0
 70 75  1  0
 71 67  1  0
 71 75  1  0
 72 71  1  0
 73 74  1  0
 73 72  1  0
 74 70  1  0
 75 76  2  0
 76 77  1  0
 78 77  2  0
 79 78  1  0
 80 54  1  0
 80 81  1  0
 80 90  1  0
 81 84  1  0
 82 81  1  0
 82 86  1  0
 83 82  2  0
 86 85  1  0
 88 86  1  0
 88 89  1  0
 88 87  1  0
 90 93  1  1
 90 91  1  0
 92 90  1  0
M  ISO  4   9 100  10 100  52 101  53 101
M  END
>  <TORSDO>  (13) 
F 23

>  <SCORE>  (13) 
-6.553

>  <name>  (13) 
12

>  <ligand_id>  (13) 
12

>  <original_smiles>  (13) 
[H]C([H])=C([H])c1c([H])c([H])c(OC([H])([H])C([H])([H])C([H])([H])C([H])([H])Oc2c([H])c([H])c3c(c2[H])C([H])([H])N(C(=O)C([H])(N([H])C(=O)C([H])(N([H])C([H])([H])[H])C([H])([H])[H])C(C([H])([H])[H])(C([H])([H])[H])C([H])([H])[H])C([H])(C(=O)N([H])C2([H])c4c([H])c([H])c([H])c([H])c4C([H])([H])C([H])([H])C2([H])[H])C3([H])[H])c([H])c1C(=NC(=O)N1C([H])([H])C([H])([H])C([H])([H])C([H])(n2nc(-c3c([H])c([H])c(Oc4c([H])c([H])c(F)c([H])c4F)c([H])c3[H])c(C(=O)N([H])[H])c2N([H])[H])C1([H])[H])C([H])([H])[H]

>  <smiles>  (13) 
[H]C([H])=C([H])c1c([H])c([H])c(OC([H])([H])C([H])([H])C([H])([H])C([H])([H])Oc2c([H])c([H])c3c(c2[H])C([H])([H])N(C(=O)C([H])(N([H])C(=O)C([H])(N([H])C([H])([H])[H])C([H])([H])[H])C(C([H])([H])[H])(C([H])([H])[H])C([H])([H])[H])C([H])(C(=O)N([H])C2([H])c4c([H])c([H])c([H])c([H])c4C([H])([H])C([H])([H])C2([H])[H])C3([H])[H])c([H])c1C(=NC(=O)N1C([H])([H])C([H])([H])C([H])([H])C([H])(n2nc(-c3c([H])c([H])c(Oc4c([H])c([H])c(F)c([H])c4F)c([H])c3[H])c(C(=O)N([H])[H])c2N([H])[H])C1([H])[H])C([H])([H])[H]

$$$$
13:0:0
     RDKit          3D

 94102  0  0  1  0  0  0  0  0999 V2000
  -29.3770  -17.2680   19.6770 C   0  0  0  0  0  3  0  0  0  0  0  0
  -31.2260  -17.8180   21.1330 C   0  0  0  0  0  3  0  0  0  0  0  0
  -29.1130  -18.6520   19.4690 C   0  0  0  0  0  0  0  0  0  0  0  0
  -30.4270  -16.8230   20.5160 C   0  0  0  0  0  0  0  0  0  0  0  0
  -29.9190  -19.6350   20.1080 C   0  0  0  0  0  0  0  0  0  0  0  0
  -30.9800  -19.1960   20.9360 C   0  0  0  0  0  0  0  0  0  0  0  0
  -31.8010  -20.1010   21.5220 F   0  0  0  0  0  0  0  0  0  0  0  0
  -31.0150  -14.5740   19.7170 C   0  0  0  0  0  0  0  0  0  0  0  0
  -30.4670  -12.5690   18.3590 C   0  0  0  0  0  2  0  0  0  0  0  0
  -29.3630  -12.8770   17.3260 C   0  0  0  0  0  2  0  0  0  0  0  0
  -27.9670  -12.6890   17.9490 C   0  0  0  0  0  2  0  0  0  0  0  0
  -27.8260  -13.4110   19.3120 C   0  0  0  0  0  3  0  0  0  0  0  0
  -29.0190  -13.0870   20.2320 C   0  0  0  0  0  2  0  0  0  0  0  0
  -30.2640  -13.4450   19.5280 N   0  0  0  0  0  0  0  0  0  0  0  0
  -31.9680  -14.8540   18.9800 O   0  0  0  0  0  0  0  0  0  0  0  0
  -30.6690  -15.4070   20.7400 N   0  0  0  0  0  0  0  0  0  0  0  0
  -25.5770  -13.9660   20.4350 C   0  0  0  0  0  0  0  0  0  0  0  0
  -24.5570  -13.1710   20.8820 C   0  0  0  0  0  0  0  0  0  0  0  0
  -24.9740  -11.8240   20.6460 C   0  0  0  0  0  0  0  0  0  0  0  0
  -26.5530  -13.1030   19.9590 N   0  0  0  0  0  0  0  0  0  0  0  0
  -26.2020  -11.8040   20.1430 N   0  0  0  0  0  0  0  0  0  0  0  0
  -24.2520  -10.5570   20.8150 C   0  0  0  0  0  0  0  0  0  0  0  0
  -24.7550   -9.5250   21.6390 C   0  0  0  0  0  3  0  0  0  0  0  0
  -24.0330   -8.3230   21.8010 C   0  0  0  0  0  3  0  0  0  0  0  0
  -22.7950   -8.1430   21.1400 C   0  0  0  0  0  0  0  0  0  0  0  0
  -22.3110   -9.1650   20.3030 C   0  0  0  0  0  3  0  0  0  0  0  0
  -23.0320  -10.3580   20.1380 C   0  0  0  0  0  3  0  0  0  0  0  0
  -22.0400   -6.9980   21.2150 O   0  0  0  0  0  0  0  0  0  0  0  0
  -22.0190   -6.2230   22.3470 C   0  0  0  0  0  0  0  0  0  0  0  0
  -21.6370   -6.7460   23.6030 C   0  0  0  0  0  3  0  0  0  0  0  0
  -21.5620   -5.8980   24.7250 C   0  0  0  0  0  3  0  0  0  0  0  0
  -21.8580   -4.5280   24.5960 C   0  0  0  0  0  0  0  0  0  0  0  0
  -22.2340   -4.0050   23.3460 C   0  0  0  0  0  3  0  0  0  0  0  0
  -22.3120   -4.8490   22.2240 C   0  0  0  0  0  0  0  0  0  0  0  0
  -22.6540   -4.3360   21.0180 F   0  0  0  0  0  0  0  0  0  0  0  0
  -21.7790   -3.7120   25.6720 F   0  0  0  0  0  0  0  0  0  0  0  0
  -23.2290  -13.6310   21.4080 C   0  0  0  0  0  0  0  0  0  0  0  0
  -22.6260  -12.8650   22.3100 N   0  0  0  0  0  0  0  0  0  0  0  0
  -22.7380  -14.7030   21.0550 O   0  0  0  0  0  0  0  0  0  0  0  0
  -23.0380  -11.9970   22.6190 H   0  0  0  0  0  0  0  0  0  0  0  0
  -21.7390  -13.1540   22.7000 H   0  0  0  0  0  0  0  0  0  0  0  0
  -25.7470  -15.3460   20.3760 N   0  0  0  0  0  0  0  0  0  0  0  0
  -25.0200  -15.9900   20.6640 H   0  0  0  0  0  0  0  0  0  0  0  0
  -26.5580  -15.8140   19.9900 H   0  0  0  0  0  0  0  0  0  0  0  0
  -30.6110  -15.5940   23.1930 C   0  0  0  0  0  2  0  0  0  0  0  0
  -30.8860  -14.9330   22.0540 C   0  0  0  0  0  3  0  0  0  0  0  0
  -27.2430  -18.3010   17.8120 C   0  0  0  0  0  2  0  0  0  0  0  0
  -28.0130  -19.0880   18.5840 C   0  0  0  0  0  3  0  0  0  0  0  0
  -29.7350  -20.9870   19.8300 O   0  0  0  0  0  0  0  0  0  0  0  0
  -29.2470  -21.8390   20.8810 C   0  0  0  0  0  2  0  0  0  0  0  0
  -29.4550  -23.3550   20.5590 C   0  0  0  0  0  2  0  0  0  0  0  0
  -28.5530  -24.3200   21.3870 C   0  0  0  0  0  2  0  0  0  0  0  0
  -29.0280  -25.7980   21.5570 C   0  0  0  0  0  2  0  0  0  0  0  0
  -28.8590  -26.6790   20.4300 O   0  0  0  0  0  0  0  0  0  0  0  0
  -24.7890  -31.8280   23.3060 C   0  0  0  0  0  0  0  0  0  0  0  0
  -27.6890  -27.4080   20.4150 C   0  0  0  0  0  0  0  0  0  0  0  0
  -23.6950  -30.3620   21.6410 C   0  0  0  0  0  3  0  0  0  0  0  0
  -25.2530  -28.8450   20.3040 C   0  0  0  0  0  0  0  0  0  0  0  0
  -26.2140  -30.7950   21.5380 C   0  0  0  0  0  2  0  0  0  0  0  0
  -26.3700  -29.4140   20.9320 C   0  0  0  0  0  0  0  0  0  0  0  0
  -27.5930  -28.7000   20.9880 C   0  0  0  0  0  3  0  0  0  0  0  0
  -26.5600  -26.8590   19.7770 C   0  0  0  0  0  3  0  0  0  0  0  0
  -25.3430  -27.5670   19.7260 C   0  0  0  0  0  3  0  0  0  0  0  0
  -23.9820  -29.6650   20.2840 C   0  0  0  0  0  2  0  0  0  0  0  0
  -24.9150  -31.0120   22.2210 N   0  0  0  0  0  0  0  0  0  0  0  0
  -23.6790  -32.0730   23.7990 O   0  0  0  0  0  0  0  0  0  0  0  0
  -23.0390  -29.3380   22.5940 C   0  0  0  0  0  0  0  0  0  0  0  0
  -21.7260  -29.1090   22.4150 N   0  0  0  0  0  0  0  0  0  0  0  0
  -23.7070  -28.7500   23.4490 O   0  0  0  0  0  0  0  0  0  0  0  0
  -21.2490  -29.6360   21.6970 H   0  0  0  0  0  0  0  0  0  0  0  0
  -18.3790  -27.8010   22.7890 C   0  0  0  0  0  0  0  0  0  0  0  0
  -20.9100  -28.1570   23.1680 C   0  0  0  0  0  3  0  0  0  0  0  0
  -21.0900  -26.7210   22.6280 C   0  0  0  0  0  2  0  0  0  0  0  0
  -20.0470  -26.3380   21.5730 C   0  0  0  0  0  2  0  0  0  0  0  0
  -18.6330  -26.4450   22.1510 C   0  0  0  0  0  2  0  0  0  0  0  0
  -19.4490  -28.6110   23.2540 C   0  0  0  0  0  0  0  0  0  0  0  0
  -19.1580  -29.8760   23.8080 C   0  0  0  0  0  3  0  0  0  0  0  0
  -17.8320  -30.3340   23.9040 C   0  0  0  0  0  3  0  0  0  0  0  0
  -16.7750  -29.5210   23.4580 C   0  0  0  0  0  3  0  0  0  0  0  0
  -17.0490  -28.2570   22.9060 C   0  0  0  0  0  3  0  0  0  0  0  0
  -26.0290  -32.5090   23.9650 C   0  0  0  0  0  3  0  0  0  0  0  0
  -25.6660  -33.9030   24.2530 N   0  0  0  0  0  0  0  0  0  0  0  0
  -25.9900  -34.9490   23.4800 C   0  0  0  0  0  0  0  0  0  0  0  0
  -26.6950  -34.8450   22.4740 O   0  0  0  0  0  0  0  0  0  0  0  0
  -25.0400  -34.0560   25.0300 H   0  0  0  0  0  0  0  0  0  0  0  0
  -24.2080  -36.6700   23.0400 C   0  0  0  0  0  1  0  0  0  0  0  0
  -25.4430  -36.3300   23.8900 C   0  0  0  0  0  3  0  0  0  0  0  0
  -27.5280  -37.3100   24.7420 C   0  0  0  0  0  1  0  0  0  0  0  0
  -26.4410  -37.4150   23.7710 N   0  0  0  0  0  0  0  0  0  0  0  0
  -26.0010  -38.3240   23.8860 H   0  0  0  0  0  0  0  0  0  0  0  0
  -26.5190  -31.7770   25.2760 C   0  0  1  0  0  0  0  0  0  0  0  0
  -25.3930  -31.5250   26.3050 C   0  0  0  0  0  1  0  0  0  0  0  0
  -27.1580  -30.4120   24.9320 C   0  0  0  0  0  1  0  0  0  0  0  0
  -27.6180  -32.6190   25.9670 C   0  0  0  0  0  1  0  0  0  0  0  0
  1  4  1  0
  3  1  2  0
  3  5  1  0
  4 16  1  0
  4  2  2  0
  5  6  2  0
  6  2  1  0
  6  7  1  0
  8 16  1  0
  9 14  1  0
 10 11  1  0
 10  9  1  0
 12 11  1  0
 12 20  1  0
 12 13  1  0
 14  8  1  0
 14 13  1  0
 15  8  2  0
 16 46  1  0
 17 18  2  0
 18 37  1  0
 19 22  1  0
 19 18  1  0
 20 21  1  0
 20 17  1  0
 21 19  2  0
 22 23  1  0
 23 24  2  0
 25 28  1  0
 25 24  1  0
 26 25  2  0
 27 26  1  0
 27 22  2  0
 28 29  1  0
 29 30  1  0
 30 31  2  0
 32 31  1  0
 32 36  1  0
 33 32  2  0
 34 29  2  0
 34 33  1  0
 35 34  1  0
 37 38  1  0
 38 40  1  0
 38 41  1  0
 39 37  2  0
 42 17  1  0
 42 43  1  0
 44 42  1  0
 46 45  2  0
 47 48  2  0
 48  3  1  0
 49  5  1  0
 49 50  1  0
 51 50  1  0
 51 52  1  0
 52 53  1  0
 54 53  1  0
 55 66  2  0
 56 54  1  0
 56 61  1  0
 57 65  1  0
 57 67  1  0
 58 60  1  0
 59 65  1  0
 60 61  2  0
 60 59  1  0
 62 56  2  0
 63 62  1  0
 63 58  2  0
 64 58  1  0
 64 57  1  0
 65 55  1  0
 67 69  2  0
 68 67  1  0
 70 68  1  0
 71 80  2  0
 71 76  1  0
 72 68  1  0
 72 76  1  0
 73 72  1  0
 74 75  1  0
 74 73  1  0
 75 71  1  0
 76 77  2  0
 77 78  1  0
 79 78  2  0
 80 79  1  0
 81 55  1  0
 81 82  1  0
 81 91  1  0
 82 85  1  0
 83 87  1  0
 83 82  1  0
 84 83  2  0
 87 86  1  0
 89 90  1  0
 89 87  1  0
 89 88  1  0
 91 94  1  1
 91 92  1  0
 93 91  1  0
M  ISO  4   8 100  16 100  53 101  54 101
M  END
>  <TORSDO>  (14) 
F 23

>  <SCORE>  (14) 
-8.956

>  <name>  (14) 
13

>  <ligand_id>  (14) 
13

>  <original_smiles>  (14) 
[H]C([H])=C([H])c1c([H])c(N(C(=O)N2C([H])([H])C([H])([H])C([H])([H])C([H])(n3nc(-c4c([H])c([H])c(Oc5c([H])c([H])c(F)c([H])c5F)c([H])c4[H])c(C(=O)N([H])[H])c3N([H])[H])C2([H])[H])C([H])=C([H])[H])c([H])c(F)c1OC([H])([H])C([H])([H])C([H])([H])C([H])([H])Oc1c([H])c([H])c2c(c1[H])C([H])([H])N(C(=O)C([H])(N([H])C(=O)C([H])(N([H])C([H])([H])[H])C([H])([H])[H])C(C([H])([H])[H])(C([H])([H])[H])C([H])([H])[H])C([H])(C(=O)N([H])C1([H])c3c([H])c([H])c([H])c([H])c3C([H])([H])C([H])([H])C1([H])[H])C2([H])[H]

>  <smiles>  (14) 
[H]C([H])=C([H])c1c([H])c(N(C(=O)N2C([H])([H])C([H])([H])C([H])([H])C([H])(n3nc(-c4c([H])c([H])c(Oc5c([H])c([H])c(F)c([H])c5F)c([H])c4[H])c(C(=O)N([H])[H])c3N([H])[H])C2([H])[H])C([H])=C([H])[H])c([H])c(F)c1OC([H])([H])C([H])([H])C([H])([H])C([H])([H])Oc1c([H])c([H])c2c(c1[H])C([H])([H])N(C(=O)C([H])(N([H])C(=O)C([H])(N([H])C([H])([H])[H])C([H])([H])[H])C(C([H])([H])[H])(C([H])([H])[H])C([H])([H])[H])C([H])(C(=O)N([H])C1([H])c3c([H])c([H])c([H])c([H])c3C([H])([H])C([H])([H])C1([H])[H])C2([H])[H]

$$$$
14:0:0
     RDKit          3D

 93101  0  0  1  0  0  0  0  0999 V2000
  -29.1320  -16.8210   19.1670 C   0  0  0  0  0  3  0  0  0  0  0  0
  -29.8110  -17.9880   21.1840 C   0  0  0  0  0  3  0  0  0  0  0  0
  -28.6050  -19.2070   19.4320 C   0  0  0  0  0  0  0  0  0  0  0  0
  -28.5400  -18.0030   18.6760 C   0  0  0  0  0  0  0  0  0  0  0  0
  -29.7300  -16.7790   20.4430 C   0  0  0  0  0  0  0  0  0  0  0  0
  -29.2990  -19.2160   20.6760 C   0  0  0  0  0  0  0  0  0  0  0  0
  -27.7710  -17.9150   17.3660 C   0  0  0  0  0  1  0  0  0  0  0  0
  -30.7640  -14.5310   20.3710 C   0  0  0  0  0  0  0  0  0  0  0  0
  -30.4370  -12.4330   19.1210 C   0  0  0  0  0  2  0  0  0  0  0  0
  -29.4690  -12.7190   17.9520 C   0  0  0  0  0  2  0  0  0  0  0  0
  -28.0000  -12.5870   18.3990 C   0  0  0  0  0  2  0  0  0  0  0  0
  -27.7020  -13.3360   19.7270 C   0  0  0  0  0  3  0  0  0  0  0  0
  -28.7790  -13.0290   20.7930 C   0  0  0  0  0  2  0  0  0  0  0  0
  -30.0980  -13.3510   20.2210 N   0  0  0  0  0  0  0  0  0  0  0  0
  -31.8670  -14.7440   19.8590 O   0  0  0  0  0  0  0  0  0  0  0  0
  -30.0940  -15.5120   21.0150 N   0  0  0  0  0  0  0  0  0  0  0  0
  -29.4010  -15.1460   21.6520 H   0  0  0  0  0  0  0  0  0  0  0  0
  -25.3050  -13.9360   20.4460 C   0  0  0  0  0  0  0  0  0  0  0  0
  -24.2410  -13.1610   20.8250 C   0  0  0  0  0  0  0  0  0  0  0  0
  -24.7090  -11.8110   20.7990 C   0  0  0  0  0  0  0  0  0  0  0  0
  -26.3520  -13.0580   20.2140 N   0  0  0  0  0  0  0  0  0  0  0  0
  -25.9980  -11.7760   20.4820 N   0  0  0  0  0  0  0  0  0  0  0  0
  -23.9930  -10.5460   21.0020 C   0  0  0  0  0  0  0  0  0  0  0  0
  -24.4360   -9.5860   21.9390 C   0  0  0  0  0  3  0  0  0  0  0  0
  -23.7180   -8.3860   22.1290 C   0  0  0  0  0  3  0  0  0  0  0  0
  -22.5420   -8.1350   21.3820 C   0  0  0  0  0  0  0  0  0  0  0  0
  -22.1180   -9.0850   20.4360 C   0  0  0  0  0  3  0  0  0  0  0  0
  -22.8360  -10.2760   20.2460 C   0  0  0  0  0  3  0  0  0  0  0  0
  -21.7990   -6.9860   21.4780 O   0  0  0  0  0  0  0  0  0  0  0  0
  -21.7630   -6.2470   22.6360 C   0  0  0  0  0  0  0  0  0  0  0  0
  -21.3440   -6.8040   23.8630 C   0  0  0  0  0  3  0  0  0  0  0  0
  -21.2550   -5.9920   25.0100 C   0  0  0  0  0  3  0  0  0  0  0  0
  -21.5730   -4.6230   24.9310 C   0  0  0  0  0  0  0  0  0  0  0  0
  -21.9900   -4.0670   23.7100 C   0  0  0  0  0  3  0  0  0  0  0  0
  -22.0790   -4.8770   22.5630 C   0  0  0  0  0  0  0  0  0  0  0  0
  -22.4570   -4.3290   21.3840 F   0  0  0  0  0  0  0  0  0  0  0  0
  -21.4820   -3.8420   26.0330 F   0  0  0  0  0  0  0  0  0  0  0  0
  -22.8440  -13.6350   21.1040 C   0  0  0  0  0  0  0  0  0  0  0  0
  -22.1220  -12.9440   21.9790 N   0  0  0  0  0  0  0  0  0  0  0  0
  -22.3990  -14.6570   20.5830 O   0  0  0  0  0  0  0  0  0  0  0  0
  -22.4890  -12.1150   22.4230 H   0  0  0  0  0  0  0  0  0  0  0  0
  -21.1900  -13.2570   22.2120 H   0  0  0  0  0  0  0  0  0  0  0  0
  -25.4630  -15.3070   20.2630 N   0  0  0  0  0  0  0  0  0  0  0  0
  -24.6980  -15.9620   20.3810 H   0  0  0  0  0  0  0  0  0  0  0  0
  -26.3200  -15.7480   19.9550 H   0  0  0  0  0  0  0  0  0  0  0  0
  -28.0500  -21.0470   17.8240 C   0  0  0  0  0  2  0  0  0  0  0  0
  -27.8730  -20.4090   18.9930 C   0  0  0  0  0  3  0  0  0  0  0  0
  -29.3960  -20.3490   21.4780 O   0  0  0  0  0  0  0  0  0  0  0  0
  -29.9380  -21.5770   20.9400 C   0  0  0  0  0  2  0  0  0  0  0  0
  -29.0390  -22.7940   21.3110 C   0  0  0  0  0  2  0  0  0  0  0  0
  -29.4820  -24.1970   20.7870 C   0  0  0  0  0  2  0  0  0  0  0  0
  -28.5030  -25.3310   21.2090 C   0  0  0  0  0  2  0  0  0  0  0  0
  -28.7150  -26.6300   20.5960 O   0  0  0  0  0  0  0  0  0  0  0  0
  -24.7040  -31.8950   23.2860 C   0  0  0  0  0  0  0  0  0  0  0  0
  -27.5690  -27.3990   20.4820 C   0  0  0  0  0  0  0  0  0  0  0  0
  -23.6080  -30.4340   21.6200 C   0  0  0  0  0  3  0  0  0  0  0  0
  -25.1620  -28.8900   20.3070 C   0  0  0  0  0  0  0  0  0  0  0  0
  -26.1370  -30.8270   21.5480 C   0  0  0  0  0  2  0  0  0  0  0  0
  -26.2800  -29.4410   20.9470 C   0  0  0  0  0  0  0  0  0  0  0  0
  -27.4890  -28.7030   21.0300 C   0  0  0  0  0  3  0  0  0  0  0  0
  -26.4390  -26.8810   19.8120 C   0  0  0  0  0  3  0  0  0  0  0  0
  -25.2390  -27.6110   19.7330 C   0  0  0  0  0  3  0  0  0  0  0  0
  -23.9020  -29.7260   20.2700 C   0  0  0  0  0  2  0  0  0  0  0  0
  -24.8320  -31.0690   22.2100 N   0  0  0  0  0  0  0  0  0  0  0  0
  -23.5920  -32.1610   23.7630 O   0  0  0  0  0  0  0  0  0  0  0  0
  -22.9250  -29.4250   22.5710 C   0  0  0  0  0  0  0  0  0  0  0  0
  -21.6050  -29.2350   22.3980 N   0  0  0  0  0  0  0  0  0  0  0  0
  -23.5780  -28.8120   23.4190 O   0  0  0  0  0  0  0  0  0  0  0  0
  -21.1380  -29.7800   21.6880 H   0  0  0  0  0  0  0  0  0  0  0  0
  -18.2090  -28.0760   22.8270 C   0  0  0  0  0  0  0  0  0  0  0  0
  -20.7640  -28.3070   23.1520 C   0  0  0  0  0  3  0  0  0  0  0  0
  -20.8630  -26.8730   22.5800 C   0  0  0  0  0  2  0  0  0  0  0  0
  -19.7800  -26.5610   21.5430 C   0  0  0  0  0  2  0  0  0  0  0  0
  -18.3850  -26.7240   22.1560 C   0  0  0  0  0  2  0  0  0  0  0  0
  -19.3270  -28.8260   23.2800 C   0  0  0  0  0  0  0  0  0  0  0  0
  -19.1120  -30.0930   23.8640 C   0  0  0  0  0  3  0  0  0  0  0  0
  -17.8100  -30.6110   24.0010 C   0  0  0  0  0  3  0  0  0  0  0  0
  -16.7060  -29.8570   23.5670 C   0  0  0  0  0  3  0  0  0  0  0  0
  -16.9050  -28.5910   22.9870 C   0  0  0  0  0  3  0  0  0  0  0  0
  -25.9470  -32.5640   23.9530 C   0  0  0  0  0  3  0  0  0  0  0  0
  -25.5950  -33.9610   24.2410 N   0  0  0  0  0  0  0  0  0  0  0  0
  -25.9310  -35.0050   23.4710 C   0  0  0  0  0  0  0  0  0  0  0  0
  -26.6400  -34.8950   22.4660 O   0  0  0  0  0  0  0  0  0  0  0  0
  -24.9740  -34.1210   25.0200 H   0  0  0  0  0  0  0  0  0  0  0  0
  -24.1700  -36.7410   23.0190 C   0  0  0  0  0  1  0  0  0  0  0  0
  -25.3950  -36.3900   23.8790 C   0  0  0  0  0  3  0  0  0  0  0  0
  -27.4800  -37.3490   24.7530 C   0  0  0  0  0  1  0  0  0  0  0  0
  -26.4030  -37.4670   23.7720 N   0  0  0  0  0  0  0  0  0  0  0  0
  -25.9700  -38.3790   23.8880 H   0  0  0  0  0  0  0  0  0  0  0  0
  -26.4230  -31.8270   25.2640 C   0  0  1  0  0  0  0  0  0  0  0  0
  -25.2880  -31.5830   26.2850 C   0  0  0  0  0  1  0  0  0  0  0  0
  -27.0550  -30.4570   24.9220 C   0  0  0  0  0  1  0  0  0  0  0  0
  -27.5230  -32.6590   25.9660 C   0  0  0  0  0  1  0  0  0  0  0  0
  1  5  1  0
  3  6  2  0
  4  1  2  0
  4  3  1  0
  5 16  1  0
  5  2  2  0
  6  2  1  0
  6 48  1  0
  7  4  1  0
  8 16  1  0
  9 14  1  0
 10 11  1  0
 10  9  1  0
 12 11  1  0
 12 21  1  0
 12 13  1  0
 14  8  1  0
 14 13  1  0
 15  8  2  0
 16 17  1  0
 18 19  2  0
 19 38  1  0
 20 19  1  0
 20 23  1  0
 21 18  1  0
 21 22  1  0
 22 20  2  0
 23 24  1  0
 24 25  2  0
 26 29  1  0
 26 25  1  0
 27 26  2  0
 28 27  1  0
 28 23  2  0
 29 30  1  0
 30 31  1  0
 31 32  2  0
 33 32  1  0
 33 37  1  0
 34 33  2  0
 35 30  2  0
 35 34  1  0
 36 35  1  0
 38 39  1  0
 39 42  1  0
 39 41  1  0
 40 38  2  0
 43 44  1  0
 43 18  1  0
 45 43  1  0
 46 47  2  0
 47  3  1  0
 49 50  1  0
 49 48  1  0
 51 52  1  0
 51 50  1  0
 53 52  1  0
 54 65  2  0
 55 53  1  0
 55 60  1  0
 56 64  1  0
 56 66  1  0
 57 59  1  0
 58 64  1  0
 59 60  2  0
 59 58  1  0
 61 55  2  0
 62 61  1  0
 62 57  2  0
 63 57  1  0
 63 56  1  0
 64 54  1  0
 66 68  2  0
 67 66  1  0
 69 67  1  0
 70 79  2  0
 70 75  1  0
 71 67  1  0
 71 75  1  0
 72 71  1  0
 73 74  1  0
 73 72  1  0
 74 70  1  0
 75 76  2  0
 76 77  1  0
 78 77  2  0
 79 78  1  0
 80 54  1  0
 80 81  1  0
 80 90  1  0
 81 84  1  0
 82 86  1  0
 82 81  1  0
 83 82  2  0
 86 85  1  0
 88 86  1  0
 88 89  1  0
 88 87  1  0
 90 93  1  1
 90 91  1  0
 92 90  1  0
M  ISO  4   8 100  16 100  52 101  53 101
M  END
>  <TORSDO>  (15) 
F 22

>  <SCORE>  (15) 
-12.996

>  <name>  (15) 
14

>  <ligand_id>  (15) 
14

>  <original_smiles>  (15) 
[H]C([H])=C([H])c1c(OC([H])([H])C([H])([H])C([H])([H])C([H])([H])Oc2c([H])c([H])c3c(c2[H])C([H])([H])N(C(=O)C([H])(N([H])C(=O)C([H])(N([H])C([H])([H])[H])C([H])([H])[H])C(C([H])([H])[H])(C([H])([H])[H])C([H])([H])[H])C([H])(C(=O)N([H])C2([H])c4c([H])c([H])c([H])c([H])c4C([H])([H])C([H])([H])C2([H])[H])C3([H])[H])c([H])c(N([H])C(=O)N2C([H])([H])C([H])([H])C([H])([H])C([H])(n3nc(-c4c([H])c([H])c(Oc5c([H])c([H])c(F)c([H])c5F)c([H])c4[H])c(C(=O)N([H])[H])c3N([H])[H])C2([H])[H])c([H])c1C([H])([H])[H]

>  <smiles>  (15) 
[H]C([H])=C([H])c1c(OC([H])([H])C([H])([H])C([H])([H])C([H])([H])Oc2c([H])c([H])c3c(c2[H])C([H])([H])N(C(=O)C([H])(N([H])C(=O)C([H])(N([H])C([H])([H])[H])C([H])([H])[H])C(C([H])([H])[H])(C([H])([H])[H])C([H])([H])[H])C([H])(C(=O)N([H])C2([H])c4c([H])c([H])c([H])c([H])c4C([H])([H])C([H])([H])C2([H])[H])C3([H])[H])c([H])c(N([H])C(=O)N2C([H])([H])C([H])([H])C([H])([H])C([H])(n3nc(-c4c([H])c([H])c(Oc5c([H])c([H])c(F)c([H])c5F)c([H])c4[H])c(C(=O)N([H])[H])c3N([H])[H])C2([H])[H])c([H])c1C([H])([H])[H]

$$$$
15:0:0
     RDKit          3D

 98107  0  0  1  0  0  0  0  0999 V2000
  -28.7840  -24.2040   18.8100 C   0  0  0  0  0  0  0  0  0  0  0  0
  -27.5170  -24.7680   18.7340 C   0  0  0  0  0  3  0  0  0  0  0  0
  -32.2410  -22.7990   20.1070 C   0  0  0  0  0  0  0  0  0  0  0  0
  -29.7660  -24.6240   17.7270 C   0  0  0  0  0  2  0  0  0  0  0  0
  -29.5570  -23.2360   19.8040 C   0  0  0  0  0  2  0  0  0  0  0  0
  -30.8980  -25.4560   18.3470 C   0  0  0  0  0  2  0  0  0  0  0  0
  -31.1950  -25.0150   19.7980 C   0  0  0  0  0  2  0  0  0  0  0  0
  -31.0560  -23.5370   19.9240 N   0  0  0  0  0  0  0  0  0  0  0  0
  -33.3120  -23.4110   20.2210 O   0  0  0  0  0  0  0  0  0  0  0  0
  -33.7570  -20.6600   20.2690 C   0  0  0  0  0  3  0  0  0  0  0  0
  -31.3300  -20.3880   20.1620 C   0  0  0  0  0  3  0  0  0  0  0  0
  -32.8050  -18.4370   20.3160 C   0  0  0  0  0  3  0  0  0  0  0  0
  -32.4340  -21.2650   20.1450 C   0  0  0  0  0  0  0  0  0  0  0  0
  -33.9720  -19.2340   20.3440 C   0  0  0  0  0  0  0  0  0  0  0  0
  -31.5070  -18.9940   20.2430 C   0  0  0  0  0  0  0  0  0  0  0  0
  -36.5160  -18.5560   20.7360 C   0  0  0  0  0  0  0  0  0  0  0  0
  -38.8090  -17.7970   20.0950 C   0  0  0  0  0  2  0  0  0  0  0  0
  -39.0330  -18.1490   18.6070 C   0  0  0  0  0  2  0  0  0  0  0  0
  -38.4860  -17.0410   17.6810 C   0  0  0  0  0  2  0  0  0  0  0  0
  -37.0560  -16.5830   18.0770 C   0  0  0  0  0  3  0  0  0  0  0  0
  -36.9610  -16.3280   19.6000 C   0  0  0  0  0  2  0  0  0  0  0  0
  -37.3630  -17.5700   20.2880 N   0  0  0  0  0  0  0  0  0  0  0  0
  -36.9360  -19.5170   21.3880 O   0  0  0  0  0  0  0  0  0  0  0  0
  -35.2270  -18.4660   20.2690 N   0  0  0  0  0  0  0  0  0  0  0  0
  -35.1050  -17.5720   19.8180 H   0  0  0  0  0  0  0  0  0  0  0  0
  -35.6340  -15.3570   16.3220 C   0  0  0  0  0  0  0  0  0  0  0  0
  -35.6650  -14.0740   15.8450 C   0  0  0  0  0  0  0  0  0  0  0  0
  -36.6970  -13.4080   16.5730 C   0  0  0  0  0  0  0  0  0  0  0  0
  -36.6170  -15.4270   17.2970 N   0  0  0  0  0  0  0  0  0  0  0  0
  -37.2210  -14.2240   17.4810 N   0  0  0  0  0  0  0  0  0  0  0  0
  -37.2560  -12.0590   16.4160 C   0  0  0  0  0  0  0  0  0  0  0  0
  -37.3070  -11.1520   17.4990 C   0  0  0  0  0  3  0  0  0  0  0  0
  -37.8350   -9.8540   17.3210 C   0  0  0  0  0  3  0  0  0  0  0  0
  -38.3150   -9.4520   16.0510 C   0  0  0  0  0  0  0  0  0  0  0  0
  -38.2840  -10.3640   14.9820 C   0  0  0  0  0  3  0  0  0  0  0  0
  -37.7630  -11.6580   15.1630 C   0  0  0  0  0  3  0  0  0  0  0  0
  -38.8670   -8.2200   15.7880 O   0  0  0  0  0  0  0  0  0  0  0  0
  -38.5190   -7.1060   16.5080 C   0  0  0  0  0  0  0  0  0  0  0  0
  -37.1860   -6.6440   16.5680 C   0  0  0  0  0  3  0  0  0  0  0  0
  -36.8820   -5.4570   17.2640 C   0  0  0  0  0  3  0  0  0  0  0  0
  -37.9090   -4.7250   17.8900 C   0  0  0  0  0  0  0  0  0  0  0  0
  -39.2380   -5.1830   17.8320 C   0  0  0  0  0  3  0  0  0  0  0  0
  -39.5410   -6.3680   17.1380 C   0  0  0  0  0  0  0  0  0  0  0  0
  -40.8250   -6.7930   17.0640 F   0  0  0  0  0  0  0  0  0  0  0  0
  -37.6210   -3.5800   18.5530 F   0  0  0  0  0  0  0  0  0  0  0  0
  -34.8520  -13.5220   14.7100 C   0  0  0  0  0  0  0  0  0  0  0  0
  -34.4910  -12.2450   14.7730 N   0  0  0  0  0  0  0  0  0  0  0  0
  -34.4890  -14.2370   13.7780 O   0  0  0  0  0  0  0  0  0  0  0  0
  -34.7630  -11.6600   15.5490 H   0  0  0  0  0  0  0  0  0  0  0  0
  -33.9290  -11.8470   14.0350 H   0  0  0  0  0  0  0  0  0  0  0  0
  -34.8640  -16.4690   15.9960 N   0  0  0  0  0  0  0  0  0  0  0  0
  -34.1790  -16.4470   15.2450 H   0  0  0  0  0  0  0  0  0  0  0  0
  -34.9820  -17.3900   16.3990 H   0  0  0  0  0  0  0  0  0  0  0  0
  -30.3840  -18.2010   20.1990 O   0  0  0  0  0  0  0  0  0  0  0  0
  -30.2730  -17.2050   21.2140 C   0  0  0  0  0  2  0  0  0  0  0  0
  -31.1550  -15.2200   19.8410 C   0  0  0  0  0  1  0  0  0  0  0  0
  -29.9690  -15.8320   20.5950 C   0  0  0  0  0  2  0  0  0  0  0  0
  -26.3220  -24.6930   19.4740 O   0  0  0  0  0  0  0  0  0  0  0  0
  -19.0720  -25.2470   19.3160 C   0  0  0  0  0  0  0  0  0  0  0  0
  -25.1580  -25.2970   18.9350 C   0  0  0  0  0  0  0  0  0  0  0  0
  -20.2990  -26.1180   17.3600 C   0  0  0  0  0  3  0  0  0  0  0  0
  -22.8250  -26.3880   17.6570 C   0  0  0  0  0  0  0  0  0  0  0  0
  -21.3990  -26.1140   19.6820 C   0  0  0  0  0  2  0  0  0  0  0  0
  -22.7550  -25.9730   18.9930 C   0  0  0  0  0  0  0  0  0  0  0  0
  -23.9160  -25.4370   19.6360 C   0  0  0  0  0  3  0  0  0  0  0  0
  -25.1700  -25.7320   17.5870 C   0  0  0  0  0  3  0  0  0  0  0  0
  -24.0330  -26.2730   16.9560 C   0  0  0  0  0  3  0  0  0  0  0  0
  -21.5670  -26.9420   17.0150 C   0  0  0  0  0  2  0  0  0  0  0  0
  -20.2260  -25.7840   18.8210 N   0  0  0  0  0  0  0  0  0  0  0  0
  -18.0830  -25.0640   18.5910 O   0  0  0  0  0  0  0  0  0  0  0  0
  -20.2440  -24.8720   16.4440 C   0  0  0  0  0  0  0  0  0  0  0  0
  -19.8390  -25.0690   15.1760 N   0  0  0  0  0  0  0  0  0  0  0  0
  -20.5800  -23.7660   16.8680 O   0  0  0  0  0  0  0  0  0  0  0  0
  -19.5650  -26.0020   14.9070 H   0  0  0  0  0  0  0  0  0  0  0  0
  -18.8180  -24.4610   11.7570 C   0  0  0  0  0  0  0  0  0  0  0  0
  -19.7550  -24.0450   14.1300 C   0  0  0  0  0  3  0  0  0  0  0  0
  -21.1230  -23.8350   13.4390 C   0  0  0  0  0  2  0  0  0  0  0  0
  -21.3010  -24.6900   12.1800 C   0  0  0  0  0  2  0  0  0  0  0  0
  -20.2100  -24.3690   11.1550 C   0  0  0  0  0  2  0  0  0  0  0  0
  -18.6070  -24.3250   13.1540 C   0  0  0  0  0  0  0  0  0  0  0  0
  -17.2950  -24.4510   13.6610 C   0  0  0  0  0  3  0  0  0  0  0  0
  -16.2110  -24.7070   12.8010 C   0  0  0  0  0  3  0  0  0  0  0  0
  -16.4250  -24.8290   11.4170 C   0  0  0  0  0  3  0  0  0  0  0  0
  -17.7260  -24.7000   10.8980 C   0  0  0  0  0  3  0  0  0  0  0  0
  -18.9310  -24.8660   20.8220 C   0  0  0  0  0  3  0  0  0  0  0  0
  -18.5860  -23.3430   21.0470 C   0  0  1  0  0  0  0  0  0  0  0  0
  -17.3900  -22.8430   20.2050 C   0  0  0  0  0  1  0  0  0  0  0  0
  -19.8060  -22.4560   20.7090 C   0  0  0  0  0  1  0  0  0  0  0  0
  -18.2570  -23.0950   22.5370 C   0  0  0  0  0  1  0  0  0  0  0  0
  -17.8850  -25.7220   21.4030 N   0  0  0  0  0  0  0  0  0  0  0  0
  -18.0900  -26.6250   22.3740 C   0  0  0  0  0  0  0  0  0  0  0  0
  -19.1810  -26.7750   22.9280 O   0  0  0  0  0  0  0  0  0  0  0  0
  -16.9780  -25.6890   20.9610 H   0  0  0  0  0  0  0  0  0  0  0  0
  -17.1610  -28.9630   22.4020 C   0  0  0  0  0  1  0  0  0  0  0  0
  -16.8940  -27.5010   22.7960 C   0  0  0  0  0  3  0  0  0  0  0  0
  -15.8960  -26.1890   24.6170 C   0  0  0  0  0  1  0  0  0  0  0  0
  -16.5860  -27.4200   24.2410 N   0  0  0  0  0  0  0  0  0  0  0  0
  -16.0130  -28.2080   24.5300 H   0  0  0  0  0  0  0  0  0  0  0  0
  1  5  1  0
  2  1  2  0
  2 58  1  0
  3 13  1  0
  3  9  2  0
  4  6  1  0
  4  1  1  0
  5  8  1  0
  6  7  1  0
  7  8  1  0
  8  3  1  0
 10 14  1  0
 11 15  2  0
 12 14  2  0
 13 11  1  0
 13 10  2  0
 15 12  1  0
 16 23  2  0
 17 22  1  0
 18 17  1  0
 19 20  1  0
 19 18  1  0
 20 29  1  0
 20 21  1  0
 21 22  1  0
 22 16  1  0
 24 14  1  0
 24 16  1  0
 25 24  1  0
 26 29  1  0
 27 26  2  0
 27 28  1  0
 28 30  2  0
 29 30  1  0
 31 28  1  0
 31 32  1  0
 33 32  2  0
 34 33  1  0
 35 36  1  0
 35 34  2  0
 36 31  2  0
 37 34  1  0
 37 38  1  0
 38 39  2  0
 38 43  1  0
 39 40  1  0
 40 41  2  0
 41 45  1  0
 42 41  1  0
 43 42  2  0
 44 43  1  0
 46 47  1  0
 46 27  1  0
 47 49  1  0
 48 46  2  0
 50 47  1  0
 51 26  1  0
 51 53  1  0
 52 51  1  0
 54 15  1  0
 54 55  1  0
 56 57  1  0
 57 55  1  0
 60 58  1  0
 60 65  1  0
 61 71  1  0
 61 69  1  0
 62 64  1  0
 64 65  2  0
 64 63  1  0
 66 60  2  0
 67 66  1  0
 67 62  2  0
 68 61  1  0
 68 62  1  0
 69 59  1  0
 69 63  1  0
 70 59  2  0
 71 73  2  0
 72 71  1  0
 74 72  1  0
 75 80  1  0
 76 72  1  0
 77 76  1  0
 78 77  1  0
 79 75  1  0
 79 78  1  0
 80 81  2  0
 80 76  1  0
 82 81  1  0
 83 82  2  0
 84 83  1  0
 84 75  2  0
 85 59  1  0
 85 86  1  0
 85 90  1  0
 86 89  1  1
 87 86  1  0
 88 86  1  0
 90 91  1  0
 91 95  1  0
 91 92  2  0
 93 90  1  0
 95 94  1  0
 95 97  1  0
 97 98  1  0
 97 96  1  0
M  ISO  4   2 101  16 100  24 100  58 101
M  END
>  <TORSDO>  (16) 
F 20

>  <SCORE>  (16) 
-4.614

>  <name>  (16) 
15

>  <ligand_id>  (16) 
15

>  <original_smiles>  (16) 
[H]C(Oc1c([H])c([H])c2c(c1[H])C([H])([H])N(C(=O)C([H])(N([H])C(=O)C([H])(N([H])C([H])([H])[H])C([H])([H])[H])C(C([H])([H])[H])(C([H])([H])[H])C([H])([H])[H])C([H])(C(=O)N([H])C1([H])c3c([H])c([H])c([H])c([H])c3C([H])([H])C([H])([H])C1([H])[H])C2([H])[H])=C1C([H])([H])N(C(=O)c2c([H])c(OC([H])([H])C([H])([H])C([H])([H])[H])c([H])c(N([H])C(=O)N3C([H])([H])C([H])([H])C([H])([H])C([H])(n4nc(-c5c([H])c([H])c(Oc6c([H])c([H])c(F)c([H])c6F)c([H])c5[H])c(C(=O)N([H])[H])c4N([H])[H])C3([H])[H])c2[H])C([H])([H])C([H])([H])C1([H])[H]

>  <smiles>  (16) 
[H]C(Oc1c([H])c([H])c2c(c1[H])C([H])([H])N(C(=O)C([H])(N([H])C(=O)C([H])(N([H])C([H])([H])[H])C([H])([H])[H])C(C([H])([H])[H])(C([H])([H])[H])C([H])([H])[H])C([H])(C(=O)N([H])C1([H])c3c([H])c([H])c([H])c([H])c3C([H])([H])C([H])([H])C1([H])[H])C2([H])[H])=C1C([H])([H])N(C(=O)c2c([H])c(OC([H])([H])C([H])([H])C([H])([H])[H])c([H])c(N([H])C(=O)N3C([H])([H])C([H])([H])C([H])([H])C([H])(n4nc(-c5c([H])c([H])c(Oc6c([H])c([H])c(F)c([H])c6F)c([H])c5[H])c(C(=O)N([H])[H])c4N([H])[H])C3([H])[H])c2[H])C([H])([H])C([H])([H])C1([H])[H]

$$$$
16:0:0
     RDKit          3D

 93101  0  0  1  0  0  0  0  0999 V2000
  -29.5800  -17.1450   19.0550 C   0  0  0  0  0  3  0  0  0  0  0  0
  -29.4260  -19.5760   19.1890 C   0  0  0  0  0  3  0  0  0  0  0  0
  -30.0950  -18.2830   21.1350 C   0  0  0  0  0  3  0  0  0  0  0  0
  -29.3010  -18.3860   18.4390 C   0  0  0  0  0  0  0  0  0  0  0  0
  -29.9920  -17.0620   20.4070 C   0  0  0  0  0  0  0  0  0  0  0  0
  -29.8190  -19.5470   20.5470 C   0  0  0  0  0  0  0  0  0  0  0  0
  -30.2450  -15.7230   21.0620 C   0  0  0  0  0  0  0  0  0  0  0  0
  -30.0360  -15.5550   22.3030 N   0  0  0  0  0  0  0  0  0  0  0  0
  -29.6670  -16.3970   22.7260 H   0  0  0  0  0  0  0  0  0  0  0  0
  -30.8310  -14.6090   20.1650 C   0  0  0  0  0  0  0  0  0  0  0  0
  -30.3660  -12.6020   18.8050 C   0  0  0  0  0  2  0  0  0  0  0  0
  -29.3750  -12.9740   17.6800 C   0  0  0  0  0  2  0  0  0  0  0  0
  -27.9180  -12.8490   18.1670 C   0  0  0  0  0  2  0  0  0  0  0  0
  -27.6860  -13.5450   19.5340 C   0  0  0  0  0  3  0  0  0  0  0  0
  -28.7800  -13.1420   20.5460 C   0  0  0  0  0  2  0  0  0  0  0  0
  -30.0900  -13.4760   19.9610 N   0  0  0  0  0  0  0  0  0  0  0  0
  -31.9060  -14.8110   19.5880 O   0  0  0  0  0  0  0  0  0  0  0  0
  -25.3170  -14.1620   20.3240 C   0  0  0  0  0  0  0  0  0  0  0  0
  -24.2570  -13.3940   20.7290 C   0  0  0  0  0  0  0  0  0  0  0  0
  -24.7100  -12.0400   20.6800 C   0  0  0  0  0  0  0  0  0  0  0  0
  -26.3480  -13.2760   20.0550 N   0  0  0  0  0  0  0  0  0  0  0  0
  -25.9880  -11.9950   20.3240 N   0  0  0  0  0  0  0  0  0  0  0  0
  -23.9850  -10.7820   20.8930 C   0  0  0  0  0  0  0  0  0  0  0  0
  -24.4340   -9.8180   21.8220 C   0  0  0  0  0  3  0  0  0  0  0  0
  -23.7090   -8.6230   22.0210 C   0  0  0  0  0  3  0  0  0  0  0  0
  -22.5200   -8.3850   21.2920 C   0  0  0  0  0  0  0  0  0  0  0  0
  -22.0880   -9.3380   20.3530 C   0  0  0  0  0  3  0  0  0  0  0  0
  -22.8150  -10.5240   20.1510 C   0  0  0  0  0  3  0  0  0  0  0  0
  -21.7650   -7.2430   21.4020 O   0  0  0  0  0  0  0  0  0  0  0  0
  -21.7310   -6.5100   22.5620 C   0  0  0  0  0  0  0  0  0  0  0  0
  -21.3360   -7.0810   23.7910 C   0  0  0  0  0  3  0  0  0  0  0  0
  -21.2480   -6.2760   24.9440 C   0  0  0  0  0  3  0  0  0  0  0  0
  -21.5450   -4.9020   24.8700 C   0  0  0  0  0  0  0  0  0  0  0  0
  -21.9320   -4.3300   23.6430 C   0  0  0  0  0  3  0  0  0  0  0  0
  -22.0210   -5.1330   22.4930 C   0  0  0  0  0  0  0  0  0  0  0  0
  -22.3740   -4.5740   21.3100 F   0  0  0  0  0  0  0  0  0  0  0  0
  -21.4520   -4.1260   25.9750 F   0  0  0  0  0  0  0  0  0  0  0  0
  -22.8740  -13.8800   21.0530 C   0  0  0  0  0  0  0  0  0  0  0  0
  -22.1810  -13.1940   21.9560 N   0  0  0  0  0  0  0  0  0  0  0  0
  -22.4180  -14.8990   20.5390 O   0  0  0  0  0  0  0  0  0  0  0  0
  -22.5640  -12.3680   22.3920 H   0  0  0  0  0  0  0  0  0  0  0  0
  -21.2540  -13.5010   22.2150 H   0  0  0  0  0  0  0  0  0  0  0  0
  -25.4830  -15.5320   20.1450 N   0  0  0  0  0  0  0  0  0  0  0  0
  -24.7250  -16.1910   20.2860 H   0  0  0  0  0  0  0  0  0  0  0  0
  -26.3270  -15.9700   19.8000 H   0  0  0  0  0  0  0  0  0  0  0  0
  -28.5970  -17.4530   16.2080 C   0  0  0  0  0  2  0  0  0  0  0  0
  -28.8500  -18.4790   17.0380 C   0  0  0  0  0  3  0  0  0  0  0  0
  -29.9330  -20.6870   21.3340 O   0  0  0  0  0  0  0  0  0  0  0  0
  -29.7430  -21.9940   20.7500 C   0  0  0  0  0  2  0  0  0  0  0  0
  -29.8520  -23.0840   21.8500 C   0  0  0  0  0  2  0  0  0  0  0  0
  -29.9130  -24.5810   21.4080 C   0  0  0  0  0  2  0  0  0  0  0  0
  -28.5840  -25.2430   20.9610 C   0  0  0  0  0  2  0  0  0  0  0  0
  -28.6940  -26.6840   20.8740 O   0  0  0  0  0  0  0  0  0  0  0  0
  -24.5360  -31.9690   23.2850 C   0  0  0  0  0  0  0  0  0  0  0  0
  -27.5120  -27.3920   20.7210 C   0  0  0  0  0  0  0  0  0  0  0  0
  -23.4860  -30.4120   21.6760 C   0  0  0  0  0  3  0  0  0  0  0  0
  -25.0780  -28.8300   20.4640 C   0  0  0  0  0  0  0  0  0  0  0  0
  -26.0110  -30.8420   21.6160 C   0  0  0  0  0  2  0  0  0  0  0  0
  -26.1820  -29.4310   21.0820 C   0  0  0  0  0  0  0  0  0  0  0  0
  -27.4030  -28.7220   21.2010 C   0  0  0  0  0  3  0  0  0  0  0  0
  -26.3850  -26.8130   20.0910 C   0  0  0  0  0  3  0  0  0  0  0  0
  -25.1770  -27.5220   19.9640 C   0  0  0  0  0  3  0  0  0  0  0  0
  -23.8090  -29.6470   20.3670 C   0  0  0  0  0  2  0  0  0  0  0  0
  -24.6920  -31.0940   22.2500 N   0  0  0  0  0  0  0  0  0  0  0  0
  -23.4120  -32.2390   23.7320 O   0  0  0  0  0  0  0  0  0  0  0  0
  -22.8040  -29.4380   22.6650 C   0  0  0  0  0  0  0  0  0  0  0  0
  -21.4920  -29.2170   22.4800 N   0  0  0  0  0  0  0  0  0  0  0  0
  -23.4540  -28.8820   23.5540 O   0  0  0  0  0  0  0  0  0  0  0  0
  -21.0280  -29.7190   21.7350 H   0  0  0  0  0  0  0  0  0  0  0  0
  -18.1090  -28.0200   22.9100 C   0  0  0  0  0  0  0  0  0  0  0  0
  -20.6540  -28.3110   23.2640 C   0  0  0  0  0  3  0  0  0  0  0  0
  -20.7860  -26.8540   22.7620 C   0  0  0  0  0  2  0  0  0  0  0  0
  -19.7250  -26.4750   21.7250 C   0  0  0  0  0  2  0  0  0  0  0  0
  -18.3190  -26.6400   22.3100 C   0  0  0  0  0  2  0  0  0  0  0  0
  -19.2060  -28.8100   23.3450 C   0  0  0  0  0  0  0  0  0  0  0  0
  -18.9590  -30.1000   23.8630 C   0  0  0  0  0  3  0  0  0  0  0  0
  -17.6450  -30.5980   23.9560 C   0  0  0  0  0  3  0  0  0  0  0  0
  -16.5620  -29.8050   23.5400 C   0  0  0  0  0  3  0  0  0  0  0  0
  -16.7950  -28.5190   23.0230 C   0  0  0  0  0  3  0  0  0  0  0  0
  -25.7560  -32.6890   23.9380 C   0  0  0  0  0  3  0  0  0  0  0  0
  -25.3590  -34.0780   24.2040 N   0  0  0  0  0  0  0  0  0  0  0  0
  -25.6530  -35.1180   23.4110 C   0  0  0  0  0  0  0  0  0  0  0  0
  -26.3570  -35.0140   22.4040 O   0  0  0  0  0  0  0  0  0  0  0  0
  -24.7310  -34.2290   24.9800 H   0  0  0  0  0  0  0  0  0  0  0  0
  -23.8230  -36.7840   22.9530 C   0  0  0  0  0  1  0  0  0  0  0  0
  -25.0740  -36.4920   23.7990 C   0  0  0  0  0  3  0  0  0  0  0  0
  -27.1360  -37.5420   24.6190 C   0  0  0  0  0  1  0  0  0  0  0  0
  -26.0420  -37.6020   23.6540 N   0  0  0  0  0  0  0  0  0  0  0  0
  -25.5780  -38.5010   23.7560 H   0  0  0  0  0  0  0  0  0  0  0  0
  -26.2550  -31.9890   25.2610 C   0  0  1  0  0  0  0  0  0  0  0  0
  -25.1240  -31.6880   26.2720 C   0  0  0  0  0  1  0  0  0  0  0  0
  -26.9660  -30.6530   24.9380 C   0  0  0  0  0  1  0  0  0  0  0  0
  -27.3010  -32.8850   25.9660 C   0  0  0  0  0  1  0  0  0  0  0  0
  1  5  1  0
  2  6  2  0
  4  1  2  0
  4  2  1  0
  5  7  1  0
  5  3  2  0
  6  3  1  0
  6 48  1  0
  7  8  2  0
  8  9  1  0
 10  7  1  0
 11 16  1  0
 12 13  1  0
 12 11  1  0
 14 13  1  0
 14 21  1  0
 14 15  1  0
 16 10  1  0
 16 15  1  0
 17 10  2  0
 18 19  2  0
 19 38  1  0
 20 19  1  0
 20 23  1  0
 21 18  1  0
 21 22  1  0
 22 20  2  0
 23 24  1  0
 24 25  2  0
 26 29  1  0
 26 25  1  0
 27 26  2  0
 28 27  1  0
 28 23  2  0
 29 30  1  0
 30 31  1  0
 31 32  2  0
 33 32  1  0
 33 37  1  0
 34 33  2  0
 35 30  2  0
 35 34  1  0
 36 35  1  0
 38 39  1  0
 39 42  1  0
 39 41  1  0
 40 38  2  0
 43 44  1  0
 43 18  1  0
 45 43  1  0
 46 47  2  0
 47  4  1  0
 49 48  1  0
 49 50  1  0
 51 50  1  0
 52 51  1  0
 53 52  1  0
 54 65  2  0
 55 53  1  0
 55 60  1  0
 56 64  1  0
 56 66  1  0
 57 59  1  0
 58 64  1  0
 59 60  2  0
 59 58  1  0
 61 55  2  0
 62 61  1  0
 62 57  2  0
 63 57  1  0
 63 56  1  0
 64 54  1  0
 66 68  2  0
 67 66  1  0
 69 67  1  0
 70 79  2  0
 70 75  1  0
 71 67  1  0
 71 75  1  0
 72 71  1  0
 73 74  1  0
 73 72  1  0
 74 70  1  0
 75 76  2  0
 76 77  1  0
 78 77  2  0
 79 78  1  0
 80 54  1  0
 80 81  1  0
 80 90  1  0
 81 84  1  0
 82 86  1  0
 82 81  1  0
 83 82  2  0
 86 85  1  0
 88 89  1  0
 88 86  1  0
 88 87  1  0
 90 93  1  1
 90 91  1  0
 92 90  1  0
M  ISO  4   7 100  10 100  52 101  53 101
M  END
>  <TORSDO>  (17) 
F 23

>  <SCORE>  (17) 
-10.254

>  <name>  (17) 
16

>  <ligand_id>  (17) 
16

>  <original_smiles>  (17) 
[H]N=C(C(=O)N1C([H])([H])C([H])([H])C([H])([H])C([H])(n2nc(-c3c([H])c([H])c(Oc4c([H])c([H])c(F)c([H])c4F)c([H])c3[H])c(C(=O)N([H])[H])c2N([H])[H])C1([H])[H])c1c([H])c(OC([H])([H])C([H])([H])C([H])([H])C([H])([H])Oc2c([H])c([H])c3c(c2[H])C([H])([H])N(C(=O)C([H])(N([H])C(=O)C([H])(N([H])C([H])([H])[H])C([H])([H])[H])C(C([H])([H])[H])(C([H])([H])[H])C([H])([H])[H])C([H])(C(=O)N([H])C2([H])c4c([H])c([H])c([H])c([H])c4C([H])([H])C([H])([H])C2([H])[H])C3([H])[H])c([H])c(C([H])=C([H])[H])c1[H]

>  <smiles>  (17) 
[H]N=C(C(=O)N1C([H])([H])C([H])([H])C([H])([H])C([H])(n2nc(-c3c([H])c([H])c(Oc4c([H])c([H])c(F)c([H])c4F)c([H])c3[H])c(C(=O)N([H])[H])c2N([H])[H])C1([H])[H])c1c([H])c(OC([H])([H])C([H])([H])C([H])([H])C([H])([H])Oc2c([H])c([H])c3c(c2[H])C([H])([H])N(C(=O)C([H])(N([H])C(=O)C([H])(N([H])C([H])([H])[H])C([H])([H])[H])C(C([H])([H])[H])(C([H])([H])[H])C([H])([H])[H])C([H])(C(=O)N([H])C2([H])c4c([H])c([H])c([H])c([H])c4C([H])([H])C([H])([H])C2([H])[H])C3([H])[H])c([H])c(C([H])=C([H])[H])c1[H]

$$$$
17:0:0
     RDKit          3D

 92100  0  0  1  0  0  0  0  0999 V2000
  -28.9290  -17.8450   18.2120 C   0  0  0  0  0  3  0  0  0  0  0  0
  -29.3880  -16.7010   18.8850 C   0  0  0  0  0  3  0  0  0  0  0  0
  -29.5070  -17.9860   20.9440 C   0  0  0  0  0  3  0  0  0  0  0  0
  -28.7300  -19.0680   18.8900 C   0  0  0  0  0  0  0  0  0  0  0  0
  -29.6510  -16.7420   20.2710 C   0  0  0  0  0  0  0  0  0  0  0  0
  -29.0890  -19.1710   20.2670 C   0  0  0  0  0  0  0  0  0  0  0  0
  -30.6490  -14.4910   20.4830 C   0  0  0  0  0  0  0  0  0  0  0  0
  -30.3620  -12.3210   19.3540 C   0  0  0  0  0  2  0  0  0  0  0  0
  -29.4270  -12.5390   18.1450 C   0  0  0  0  0  2  0  0  0  0  0  0
  -27.9480  -12.4200   18.5640 C   0  0  0  0  0  2  0  0  0  0  0  0
  -27.6140  -13.2420   19.8360 C   0  0  0  0  0  3  0  0  0  0  0  0
  -28.6630  -13.0040   20.9470 C   0  0  0  0  0  2  0  0  0  0  0  0
  -29.9950  -13.3010   20.3910 N   0  0  0  0  0  0  0  0  0  0  0  0
  -31.7760  -14.6730   20.0110 O   0  0  0  0  0  0  0  0  0  0  0  0
  -29.9340  -15.5240   20.9810 N   0  0  0  0  0  0  0  0  0  0  0  0
  -29.2070  -15.2440   21.6230 H   0  0  0  0  0  0  0  0  0  0  0  0
  -25.2110  -13.8560   20.5240 C   0  0  0  0  0  0  0  0  0  0  0  0
  -24.1390  -13.0870   20.8880 C   0  0  0  0  0  0  0  0  0  0  0  0
  -24.5960  -11.7340   20.8650 C   0  0  0  0  0  0  0  0  0  0  0  0
  -26.2560  -12.9720   20.3040 N   0  0  0  0  0  0  0  0  0  0  0  0
  -25.8880  -11.6910   20.5670 N   0  0  0  0  0  0  0  0  0  0  0  0
  -23.8650  -10.4750   21.0570 C   0  0  0  0  0  0  0  0  0  0  0  0
  -24.2960   -9.5050   21.9890 C   0  0  0  0  0  3  0  0  0  0  0  0
  -23.5660   -8.3100   22.1690 C   0  0  0  0  0  3  0  0  0  0  0  0
  -22.3920   -8.0760   21.4150 C   0  0  0  0  0  0  0  0  0  0  0  0
  -21.9790   -9.0350   20.4730 C   0  0  0  0  0  3  0  0  0  0  0  0
  -22.7100  -10.2210   20.2920 C   0  0  0  0  0  3  0  0  0  0  0  0
  -21.6330   -6.9330   21.5030 O   0  0  0  0  0  0  0  0  0  0  0  0
  -21.5910   -6.1850   22.6520 C   0  0  0  0  0  0  0  0  0  0  0  0
  -21.1800   -6.7350   23.8850 C   0  0  0  0  0  3  0  0  0  0  0  0
  -21.0840   -5.9120   25.0250 C   0  0  0  0  0  3  0  0  0  0  0  0
  -21.3900   -4.5410   24.9330 C   0  0  0  0  0  0  0  0  0  0  0  0
  -21.7970   -3.9900   23.7050 C   0  0  0  0  0  3  0  0  0  0  0  0
  -21.8940   -4.8100   22.5680 C   0  0  0  0  0  0  0  0  0  0  0  0
  -22.2650   -4.2700   21.3810 F   0  0  0  0  0  0  0  0  0  0  0  0
  -21.2920   -3.7490   26.0270 F   0  0  0  0  0  0  0  0  0  0  0  0
  -22.7410  -13.5700   21.1510 C   0  0  0  0  0  0  0  0  0  0  0  0
  -22.0070  -12.8800   22.0180 N   0  0  0  0  0  0  0  0  0  0  0  0
  -22.3080  -14.5940   20.6250 O   0  0  0  0  0  0  0  0  0  0  0  0
  -22.3700  -12.0510   22.4650 H   0  0  0  0  0  0  0  0  0  0  0  0
  -21.0710  -13.1870   22.2390 H   0  0  0  0  0  0  0  0  0  0  0  0
  -25.3830  -15.2250   20.3440 N   0  0  0  0  0  0  0  0  0  0  0  0
  -24.6210  -15.8860   20.4500 H   0  0  0  0  0  0  0  0  0  0  0  0
  -26.2450  -15.6610   20.0410 H   0  0  0  0  0  0  0  0  0  0  0  0
  -28.0600  -20.1660   18.1390 C   0  0  0  0  0  3  0  0  0  0  0  0
  -27.8390  -20.1480   16.9230 O   0  0  0  0  0  0  0  0  0  0  0  0
  -28.9460  -20.3340   21.0170 O   0  0  0  0  0  0  0  0  0  0  0  0
  -29.5810  -21.5590   20.5870 C   0  0  0  0  0  2  0  0  0  0  0  0
  -28.6730  -22.7770   20.9240 C   0  0  0  0  0  2  0  0  0  0  0  0
  -29.1260  -24.1740   20.3990 C   0  0  0  0  0  2  0  0  0  0  0  0
  -28.2320  -25.3320   20.9250 C   0  0  0  0  0  2  0  0  0  0  0  0
  -28.4260  -26.6200   20.2890 O   0  0  0  0  0  0  0  0  0  0  0  0
  -24.6100  -31.8910   23.2410 C   0  0  0  0  0  0  0  0  0  0  0  0
  -27.2880  -27.4050   20.2400 C   0  0  0  0  0  0  0  0  0  0  0  0
  -23.4250  -30.4720   21.5990 C   0  0  0  0  0  3  0  0  0  0  0  0
  -24.8980  -28.9270   20.1990 C   0  0  0  0  0  0  0  0  0  0  0  0
  -25.9540  -30.8300   21.4260 C   0  0  0  0  0  2  0  0  0  0  0  0
  -26.0510  -29.4530   20.7970 C   0  0  0  0  0  0  0  0  0  0  0  0
  -27.2520  -28.7010   20.8120 C   0  0  0  0  0  3  0  0  0  0  0  0
  -26.1230  -26.9100   19.6150 C   0  0  0  0  0  3  0  0  0  0  0  0
  -24.9310  -27.6570   19.6020 C   0  0  0  0  0  3  0  0  0  0  0  0
  -23.6510  -29.7820   20.2270 C   0  0  0  0  0  2  0  0  0  0  0  0
  -24.6810  -31.0800   22.1470 N   0  0  0  0  0  0  0  0  0  0  0  0
  -23.5230  -32.1650   23.7680 O   0  0  0  0  0  0  0  0  0  0  0  0
  -22.7660  -29.4560   22.5620 C   0  0  0  0  0  0  0  0  0  0  0  0
  -21.4420  -29.2740   22.4270 N   0  0  0  0  0  0  0  0  0  0  0  0
  -23.4440  -28.8370   23.3870 O   0  0  0  0  0  0  0  0  0  0  0  0
  -20.9570  -29.8230   21.7320 H   0  0  0  0  0  0  0  0  0  0  0  0
  -18.0640  -28.0850   22.9120 C   0  0  0  0  0  0  0  0  0  0  0  0
  -20.6200  -28.3420   23.1990 C   0  0  0  0  0  3  0  0  0  0  0  0
  -20.7250  -26.9070   22.6320 C   0  0  0  0  0  2  0  0  0  0  0  0
  -19.6290  -26.5800   21.6120 C   0  0  0  0  0  2  0  0  0  0  0  0
  -18.2420  -26.7310   22.2460 C   0  0  0  0  0  2  0  0  0  0  0  0
  -19.1800  -28.8480   23.3450 C   0  0  0  0  0  0  0  0  0  0  0  0
  -18.9600  -30.1160   23.9260 C   0  0  0  0  0  3  0  0  0  0  0  0
  -17.6550  -30.6210   24.0790 C   0  0  0  0  0  3  0  0  0  0  0  0
  -16.5530  -29.8550   23.6640 C   0  0  0  0  0  3  0  0  0  0  0  0
  -16.7570  -28.5890   23.0860 C   0  0  0  0  0  3  0  0  0  0  0  0
  -25.8880  -32.5320   23.8670 C   0  0  0  0  0  3  0  0  0  0  0  0
  -25.5730  -33.9320   24.1810 N   0  0  0  0  0  0  0  0  0  0  0  0
  -25.9110  -34.9770   23.4140 C   0  0  0  0  0  0  0  0  0  0  0  0
  -26.5900  -34.8650   22.3900 O   0  0  0  0  0  0  0  0  0  0  0  0
  -24.9730  -34.0940   24.9760 H   0  0  0  0  0  0  0  0  0  0  0  0
  -24.1840  -36.7620   23.0200 C   0  0  0  0  0  1  0  0  0  0  0  0
  -25.4150  -36.3680   23.8520 C   0  0  0  0  0  3  0  0  0  0  0  0
  -27.5380  -37.2630   24.7020 C   0  0  0  0  0  1  0  0  0  0  0  0
  -26.4470  -37.4220   23.7430 N   0  0  0  0  0  0  0  0  0  0  0  0
  -26.0380  -38.3430   23.8770 H   0  0  0  0  0  0  0  0  0  0  0  0
  -26.3980  -31.7720   25.1520 C   0  0  1  0  0  0  0  0  0  0  0  0
  -25.2980  -31.5390   26.2140 C   0  0  0  0  0  1  0  0  0  0  0  0
  -26.9870  -30.3930   24.7740 C   0  0  0  0  0  1  0  0  0  0  0  0
  -27.5420  -32.5750   25.8160 C   0  0  0  0  0  1  0  0  0  0  0  0
  1  2  2  0
  1  4  1  0
  2  5  1  0
  4  6  2  0
  5  3  2  0
  5 15  1  0
  6  3  1  0
  6 47  1  0
  7 15  1  0
  8 13  1  0
  9 10  1  0
  9  8  1  0
 11 10  1  0
 11 20  1  0
 11 12  1  0
 13  7  1  0
 13 12  1  0
 14  7  2  0
 15 16  1  0
 17 18  2  0
 18 37  1  0
 19 18  1  0
 19 22  1  0
 20 17  1  0
 20 21  1  0
 21 19  2  0
 22 23  1  0
 23 24  2  0
 25 28  1  0
 25 24  1  0
 26 25  2  0
 27 26  1  0
 27 22  2  0
 28 29  1  0
 29 30  1  0
 30 31  2  0
 32 31  1  0
 32 36  1  0
 33 32  2  0
 34 29  2  0
 34 33  1  0
 35 34  1  0
 37 38  1  0
 38 41  1  0
 38 40  1  0
 39 37  2  0
 42 43  1  0
 42 17  1  0
 44 42  1  0
 45  4  1  0
 46 45  2  0
 48 49  1  0
 48 47  1  0
 50 49  1  0
 50 51  1  0
 52 51  1  0
 53 64  2  0
 54 52  1  0
 54 59  1  0
 55 63  1  0
 55 65  1  0
 56 62  1  0
 56 58  1  0
 57 63  1  0
 58 59  2  0
 58 57  1  0
 60 54  2  0
 61 60  1  0
 61 56  2  0
 62 55  1  0
 63 53  1  0
 65 67  2  0
 66 65  1  0
 68 66  1  0
 69 78  2  0
 69 74  1  0
 70 66  1  0
 70 74  1  0
 71 70  1  0
 72 73  1  0
 72 71  1  0
 73 69  1  0
 74 75  2  0
 75 76  1  0
 77 76  2  0
 78 77  1  0
 79 53  1  0
 79 80  1  0
 79 89  1  0
 80 83  1  0
 81 85  1  0
 81 80  1  0
 82 81  2  0
 85 84  1  0
 87 85  1  0
 87 88  1  0
 87 86  1  0
 89 92  1  1
 89 90  1  0
 91 89  1  0
M  ISO  4   7 100  15 100  51 101  52 101
M  END
>  <TORSDO>  (18) 
F 22

>  <SCORE>  (18) 
-13.385

>  <name>  (18) 
17

>  <ligand_id>  (18) 
17

>  <original_smiles>  (18) 
[H]C(=O)c1c([H])c([H])c(N([H])C(=O)N2C([H])([H])C([H])([H])C([H])([H])C([H])(n3nc(-c4c([H])c([H])c(Oc5c([H])c([H])c(F)c([H])c5F)c([H])c4[H])c(C(=O)N([H])[H])c3N([H])[H])C2([H])[H])c([H])c1OC([H])([H])C([H])([H])C([H])([H])C([H])([H])Oc1c([H])c([H])c2c(c1[H])C([H])([H])N(C(=O)C([H])(N([H])C(=O)C([H])(N([H])C([H])([H])[H])C([H])([H])[H])C(C([H])([H])[H])(C([H])([H])[H])C([H])([H])[H])C([H])(C(=O)N([H])C1([H])c3c([H])c([H])c([H])c([H])c3C([H])([H])C([H])([H])C1([H])[H])C2([H])[H]

>  <smiles>  (18) 
[H]C(=O)c1c([H])c([H])c(N([H])C(=O)N2C([H])([H])C([H])([H])C([H])([H])C([H])(n3nc(-c4c([H])c([H])c(Oc5c([H])c([H])c(F)c([H])c5F)c([H])c4[H])c(C(=O)N([H])[H])c3N([H])[H])C2([H])[H])c([H])c1OC([H])([H])C([H])([H])C([H])([H])C([H])([H])Oc1c([H])c([H])c2c(c1[H])C([H])([H])N(C(=O)C([H])(N([H])C(=O)C([H])(N([H])C([H])([H])[H])C([H])([H])[H])C(C([H])([H])[H])(C([H])([H])[H])C([H])([H])[H])C([H])(C(=O)N([H])C1([H])c3c([H])c([H])c([H])c([H])c3C([H])([H])C([H])([H])C1([H])[H])C2([H])[H]

$$$$
18:0:0
     RDKit          3D

 89 97  0  0  1  0  0  0  0  0999 V2000
  -30.3920  -21.1670   21.6050 C   0  0  0  0  0  3  0  0  0  0  0  0
  -30.8330  -19.8020   21.7290 C   0  0  0  0  0  0  0  0  0  0  0  0
  -29.4260  -21.2710   20.6450 C   0  0  0  0  0  0  0  0  0  0  0  0
  -30.1010  -19.0270   20.8440 C   0  0  0  0  0  0  0  0  0  0  0  0
  -29.2670  -19.9500   20.1420 O   0  0  0  0  0  0  0  0  0  0  0  0
  -28.6540  -22.4680   20.1630 C   0  0  0  0  0  3  0  0  0  0  0  0
  -28.7740  -23.8460   20.3690 C   0  0  0  0  0  3  0  0  0  0  0  0
  -27.7630  -25.0100   19.9270 C   0  0  0  0  0  2  0  0  0  0  0  0
  -28.0690  -26.4920   20.0730 O   0  0  0  0  0  0  0  0  0  0  0  0
  -24.4670  -31.9920   23.2450 C   0  0  0  0  0  0  0  0  0  0  0  0
  -26.9820  -27.4140   20.0520 C   0  0  0  0  0  0  0  0  0  0  0  0
  -23.2160  -30.6050   21.6360 C   0  0  0  0  0  3  0  0  0  0  0  0
  -24.6220  -29.0770   20.1390 C   0  0  0  0  0  0  0  0  0  0  0  0
  -25.7530  -30.9210   21.3690 C   0  0  0  0  0  2  0  0  0  0  0  0
  -25.8170  -29.5440   20.7020 C   0  0  0  0  0  0  0  0  0  0  0  0
  -26.9970  -28.7270   20.6470 C   0  0  0  0  0  3  0  0  0  0  0  0
  -25.7590  -27.0310   19.4510 C   0  0  0  0  0  3  0  0  0  0  0  0
  -24.6010  -27.8310   19.4960 C   0  0  0  0  0  3  0  0  0  0  0  0
  -23.3860  -29.9520   20.2410 C   0  0  0  0  0  2  0  0  0  0  0  0
  -24.4980  -31.1910   22.1400 N   0  0  0  0  0  0  0  0  0  0  0  0
  -23.3980  -32.2580   23.8180 O   0  0  0  0  0  0  0  0  0  0  0  0
  -22.5870  -29.5750   22.6070 C   0  0  0  0  0  0  0  0  0  0  0  0
  -21.2650  -29.3540   22.4900 N   0  0  0  0  0  0  0  0  0  0  0  0
  -23.2890  -28.9790   23.4280 O   0  0  0  0  0  0  0  0  0  0  0  0
  -20.7560  -29.8850   21.7970 H   0  0  0  0  0  0  0  0  0  0  0  0
  -17.9400  -28.0210   23.0040 C   0  0  0  0  0  0  0  0  0  0  0  0
  -20.4840  -28.3970   23.2770 C   0  0  0  0  0  3  0  0  0  0  0  0
  -20.6510  -26.9620   22.7290 C   0  0  0  0  0  2  0  0  0  0  0  0
  -19.5700  -26.5710   21.7150 C   0  0  0  0  0  2  0  0  0  0  0  0
  -18.1790  -26.6700   22.3490 C   0  0  0  0  0  2  0  0  0  0  0  0
  -19.0230  -28.8370   23.4250 C   0  0  0  0  0  0  0  0  0  0  0  0
  -18.7480  -30.0980   23.9990 C   0  0  0  0  0  3  0  0  0  0  0  0
  -17.4230  -30.5470   24.1480 C   0  0  0  0  0  3  0  0  0  0  0  0
  -16.3540  -29.7300   23.7430 C   0  0  0  0  0  3  0  0  0  0  0  0
  -16.6120  -28.4660   23.1800 C   0  0  0  0  0  3  0  0  0  0  0  0
  -25.7630  -32.6280   23.8310 C   0  0  0  0  0  3  0  0  0  0  0  0
  -26.3200  -31.8570   25.0900 C   0  0  1  0  0  0  0  0  0  0  0  0
  -25.2570  -31.6140   26.1860 C   0  0  0  0  0  1  0  0  0  0  0  0
  -26.8920  -30.4790   24.6830 C   0  0  0  0  0  1  0  0  0  0  0  0
  -27.4940  -32.6480   25.7130 C   0  0  0  0  0  1  0  0  0  0  0  0
  -25.4610  -34.0260   24.1670 N   0  0  0  0  0  0  0  0  0  0  0  0
  -25.7770  -35.0810   23.4020 C   0  0  0  0  0  0  0  0  0  0  0  0
  -26.4240  -34.9780   22.3580 O   0  0  0  0  0  0  0  0  0  0  0  0
  -24.8830  -34.1800   24.9810 H   0  0  0  0  0  0  0  0  0  0  0  0
  -24.0530  -36.8870   23.0800 C   0  0  0  0  0  1  0  0  0  0  0  0
  -25.3010  -36.4690   23.8740 C   0  0  0  0  0  3  0  0  0  0  0  0
  -27.4440  -37.3420   24.6940 C   0  0  0  0  0  1  0  0  0  0  0  0
  -26.3370  -37.5180   23.7580 N   0  0  0  0  0  0  0  0  0  0  0  0
  -25.9330  -38.4390   23.9120 H   0  0  0  0  0  0  0  0  0  0  0  0
  -30.3250  -17.5960   20.4090 C   0  0  0  0  0  3  0  0  0  0  0  0
  -30.0280  -16.2990   20.8620 C   0  0  0  0  0  3  0  0  0  0  0  0
  -30.6470  -15.0280   20.2910 C   0  0  0  0  0  0  0  0  0  0  0  0
  -30.3980  -12.7290   19.3030 C   0  0  0  0  0  2  0  0  0  0  0  0
  -29.4550  -12.7850   18.0790 C   0  0  0  0  0  2  0  0  0  0  0  0
  -27.9950  -12.5730   18.5220 C   0  0  0  0  0  2  0  0  0  0  0  0
  -27.6200  -13.4520   19.7460 C   0  0  0  0  0  3  0  0  0  0  0  0
  -28.6990  -13.4290   20.8550 C   0  0  0  0  0  2  0  0  0  0  0  0
  -29.9880  -13.8020   20.2530 N   0  0  0  0  0  0  0  0  0  0  0  0
  -31.7730  -15.0750   19.7920 O   0  0  0  0  0  0  0  0  0  0  0  0
  -25.2290  -13.9760   20.5150 C   0  0  0  0  0  0  0  0  0  0  0  0
  -24.1860  -13.1770   20.8970 C   0  0  0  0  0  0  0  0  0  0  0  0
  -24.6760  -11.8350   20.8480 C   0  0  0  0  0  0  0  0  0  0  0  0
  -26.2910  -13.1220   20.2580 N   0  0  0  0  0  0  0  0  0  0  0  0
  -25.9640  -11.8290   20.5190 N   0  0  0  0  0  0  0  0  0  0  0  0
  -23.9730  -10.5590   21.0480 C   0  0  0  0  0  0  0  0  0  0  0  0
  -24.4290   -9.6080   21.9890 C   0  0  0  0  0  3  0  0  0  0  0  0
  -23.7290   -8.3970   22.1780 C   0  0  0  0  0  3  0  0  0  0  0  0
  -22.5590   -8.1270   21.4270 C   0  0  0  0  0  0  0  0  0  0  0  0
  -22.1250   -9.0650   20.4750 C   0  0  0  0  0  3  0  0  0  0  0  0
  -22.8240  -10.2700   20.2830 C   0  0  0  0  0  3  0  0  0  0  0  0
  -21.8290   -6.9650   21.5220 O   0  0  0  0  0  0  0  0  0  0  0  0
  -21.7800   -6.2420   22.6870 C   0  0  0  0  0  0  0  0  0  0  0  0
  -21.2990   -6.7980   23.8930 C   0  0  0  0  0  3  0  0  0  0  0  0
  -21.2020   -5.9940   25.0490 C   0  0  0  0  0  3  0  0  0  0  0  0
  -21.5790   -4.6390   24.9990 C   0  0  0  0  0  0  0  0  0  0  0  0
  -22.0520   -4.0820   23.7960 C   0  0  0  0  0  3  0  0  0  0  0  0
  -22.1530   -4.8820   22.6450 C   0  0  0  0  0  0  0  0  0  0  0  0
  -22.5890   -4.3380   21.4840 F   0  0  0  0  0  0  0  0  0  0  0  0
  -21.4820   -3.8660   26.1050 F   0  0  0  0  0  0  0  0  0  0  0  0
  -22.7860  -13.6260   21.1970 C   0  0  0  0  0  0  0  0  0  0  0  0
  -22.0890  -12.9140   22.0760 N   0  0  0  0  0  0  0  0  0  0  0  0
  -22.3170  -14.6430   20.6840 O   0  0  0  0  0  0  0  0  0  0  0  0
  -22.4830  -12.0960   22.5180 H   0  0  0  0  0  0  0  0  0  0  0  0
  -21.1460  -13.1910   22.3120 H   0  0  0  0  0  0  0  0  0  0  0  0
  -25.3610  -15.3510   20.3480 N   0  0  0  0  0  0  0  0  0  0  0  0
  -24.5840  -15.9840   20.4940 H   0  0  0  0  0  0  0  0  0  0  0  0
  -26.2080  -15.8170   20.0480 H   0  0  0  0  0  0  0  0  0  0  0  0
  -32.2030  -20.2880   23.8500 C   0  0  0  0  0  1  0  0  0  0  0  0
  -31.9700  -19.3590   22.6390 C   0  0  0  0  0  2  0  0  0  0  0  0
  1  2  1  0
  2 89  1  0
  3  1  2  0
  4  2  2  0
  5  3  1  0
  5  4  1  0
  6  7  2  0
  6  3  1  0
  8  9  1  0
  8  7  1  0
 10 21  2  0
 11  9  1  0
 11 16  1  0
 12 20  1  0
 12 22  1  0
 13 19  1  0
 13 15  1  0
 14 20  1  0
 15 14  1  0
 16 15  2  0
 17 18  1  0
 17 11  2  0
 18 13  2  0
 19 12  1  0
 20 10  1  0
 22 24  2  0
 23 22  1  0
 25 23  1  0
 26 35  2  0
 26 31  1  0
 27 23  1  0
 27 31  1  0
 28 27  1  0
 29 30  1  0
 29 28  1  0
 30 26  1  0
 31 32  2  0
 32 33  1  0
 34 33  2  0
 35 34  1  0
 36 10  1  0
 36 41  1  0
 36 37  1  0
 37 40  1  1
 37 38  1  0
 39 37  1  0
 41 44  1  0
 42 46  1  0
 42 41  1  0
 43 42  2  0
 46 45  1  0
 48 46  1  0
 48 49  1  0
 48 47  1  0
 50  4  1  0
 50 51  2  0
 52 51  1  0
 53 58  1  0
 54 55  1  0
 54 53  1  0
 56 55  1  0
 56 63  1  0
 56 57  1  0
 58 52  1  0
 58 57  1  0
 59 52  2  0
 60 61  2  0
 61 80  1  0
 62 61  1  0
 62 65  1  0
 63 60  1  0
 63 64  1  0
 64 62  2  0
 65 66  1  0
 66 67  2  0
 68 71  1  0
 68 67  1  0
 69 68  2  0
 70 69  1  0
 70 65  2  0
 71 72  1  0
 72 73  1  0
 73 74  2  0
 75 74  1  0
 75 79  1  0
 76 75  2  0
 77 72  2  0
 77 76  1  0
 78 77  1  0
 80 81  1  0
 81 84  1  0
 81 83  1  0
 82 80  2  0
 85 86  1  0
 85 60  1  0
 87 85  1  0
 89 88  1  0
M  ISO  4   8 101   9 101  51 100  52 100
M  END
>  <TORSDO>  (19) 
F 20

>  <SCORE>  (19) 
-13.550

>  <name>  (19) 
18

>  <ligand_id>  (19) 
18

>  <original_smiles>  (19) 
[H]C(C(=O)N1C([H])([H])C([H])([H])C([H])([H])C([H])(n2nc(-c3c([H])c([H])c(Oc4c([H])c([H])c(F)c([H])c4F)c([H])c3[H])c(C(=O)N([H])[H])c2N([H])[H])C1([H])[H])=C([H])c1oc(C([H])=C([H])C([H])([H])Oc2c([H])c([H])c3c(c2[H])C([H])([H])N(C(=O)C([H])(N([H])C(=O)C([H])(N([H])C([H])([H])[H])C([H])([H])[H])C(C([H])([H])[H])(C([H])([H])[H])C([H])([H])[H])C([H])(C(=O)N([H])C2([H])c4c([H])c([H])c([H])c([H])c4C([H])([H])C([H])([H])C2([H])[H])C3([H])[H])c([H])c1C([H])([H])C([H])([H])[H]

>  <smiles>  (19) 
[H]C(C(=O)N1C([H])([H])C([H])([H])C([H])([H])C([H])(n2nc(-c3c([H])c([H])c(Oc4c([H])c([H])c(F)c([H])c4F)c([H])c3[H])c(C(=O)N([H])[H])c2N([H])[H])C1([H])[H])=C([H])c1oc(C([H])=C([H])C([H])([H])Oc2c([H])c([H])c3c(c2[H])C([H])([H])N(C(=O)C([H])(N([H])C(=O)C([H])(N([H])C([H])([H])[H])C([H])([H])[H])C(C([H])([H])[H])(C([H])([H])[H])C([H])([H])[H])C([H])(C(=O)N([H])C2([H])c4c([H])c([H])c([H])c([H])c4C([H])([H])C([H])([H])C2([H])[H])C3([H])[H])c([H])c1C([H])([H])C([H])([H])[H]

$$$$
19:0:0
     RDKit          3D

 91 99  0  0  1  0  0  0  0  0999 V2000
  -29.2110  -19.8410   20.6040 C   0  0  0  0  0  3  0  0  0  0  0  0
  -31.0780  -21.1380   19.8270 C   0  0  0  0  0  0  0  0  0  0  0  0
  -29.7230  -21.1560   20.2820 C   0  0  0  0  0  0  0  0  0  0  0  0
  -29.9680  -18.6090   20.4760 C   0  0  0  0  0  0  0  0  0  0  0  0
  -31.7520  -19.8780   19.6960 C   0  0  0  0  0  0  0  0  0  0  0  0
  -33.1960  -19.7820   19.2300 C   0  0  0  0  0  1  0  0  0  0  0  0
  -31.2160  -18.6670   19.9930 N   0  0  0  0  0  0  0  0  0  0  0  0
  -32.3510  -22.7050   18.3450 C   0  0  0  0  0  2  0  0  0  0  0  0
  -31.8130  -22.3800   19.5330 C   0  0  0  0  0  3  0  0  0  0  0  0
  -29.3950  -17.2570   20.9240 C   0  0  0  0  0  3  0  0  0  0  0  0
  -29.5700  -15.8700   20.9230 C   0  0  0  0  0  3  0  0  0  0  0  0
  -30.5110  -14.8100   20.3850 C   0  0  0  0  0  0  0  0  0  0  0  0
  -30.4200  -12.5590   19.2550 C   0  0  0  0  0  2  0  0  0  0  0  0
  -29.4560  -12.6680   18.0470 C   0  0  0  0  0  2  0  0  0  0  0  0
  -27.9790  -12.4870   18.4630 C   0  0  0  0  0  2  0  0  0  0  0  0
  -27.6220  -13.2930   19.7390 C   0  0  0  0  0  3  0  0  0  0  0  0
  -28.6900  -13.0570   20.8290 C   0  0  0  0  0  2  0  0  0  0  0  0
  -29.9770  -13.5320   20.2820 N   0  0  0  0  0  0  0  0  0  0  0  0
  -31.6580  -15.0090   19.9710 O   0  0  0  0  0  0  0  0  0  0  0  0
  -25.2210  -13.8860   20.4400 C   0  0  0  0  0  0  0  0  0  0  0  0
  -24.1560  -13.1110   20.8100 C   0  0  0  0  0  0  0  0  0  0  0  0
  -24.6250  -11.7620   20.7890 C   0  0  0  0  0  0  0  0  0  0  0  0
  -26.2720  -13.0090   20.2140 N   0  0  0  0  0  0  0  0  0  0  0  0
  -25.9160  -11.7260   20.4810 N   0  0  0  0  0  0  0  0  0  0  0  0
  -23.9050  -10.4970   20.9850 C   0  0  0  0  0  0  0  0  0  0  0  0
  -24.3360   -9.5410   21.9310 C   0  0  0  0  0  3  0  0  0  0  0  0
  -23.6170   -8.3410   22.1140 C   0  0  0  0  0  3  0  0  0  0  0  0
  -22.4510   -8.0890   21.3530 C   0  0  0  0  0  0  0  0  0  0  0  0
  -22.0400   -9.0340   20.3970 C   0  0  0  0  0  3  0  0  0  0  0  0
  -22.7590  -10.2260   20.2110 C   0  0  0  0  0  3  0  0  0  0  0  0
  -21.7030   -6.9410   21.4440 O   0  0  0  0  0  0  0  0  0  0  0  0
  -21.6420   -6.2130   22.6060 C   0  0  0  0  0  0  0  0  0  0  0  0
  -21.1870   -6.7790   23.8170 C   0  0  0  0  0  3  0  0  0  0  0  0
  -21.0740   -5.9770   24.9700 C   0  0  0  0  0  3  0  0  0  0  0  0
  -21.4060   -4.6110   24.9140 C   0  0  0  0  0  0  0  0  0  0  0  0
  -21.8540   -4.0440   23.7070 C   0  0  0  0  0  3  0  0  0  0  0  0
  -21.9690   -4.8430   22.5560 C   0  0  0  0  0  0  0  0  0  0  0  0
  -22.3810   -4.2870   21.3910 F   0  0  0  0  0  0  0  0  0  0  0  0
  -21.2910   -3.8380   26.0190 F   0  0  0  0  0  0  0  0  0  0  0  0
  -22.7560  -13.5840   21.0760 C   0  0  0  0  0  0  0  0  0  0  0  0
  -22.0280  -12.8910   21.9440 N   0  0  0  0  0  0  0  0  0  0  0  0
  -22.3160  -14.6050   20.5490 O   0  0  0  0  0  0  0  0  0  0  0  0
  -22.3950  -12.0650   22.3940 H   0  0  0  0  0  0  0  0  0  0  0  0
  -21.0890  -13.1920   22.1620 H   0  0  0  0  0  0  0  0  0  0  0  0
  -25.3810  -15.2570   20.2570 N   0  0  0  0  0  0  0  0  0  0  0  0
  -24.6130  -15.9100   20.3640 H   0  0  0  0  0  0  0  0  0  0  0  0
  -26.2300  -15.6990   19.9270 H   0  0  0  0  0  0  0  0  0  0  0  0
  -28.8720  -22.3140   20.4190 O   0  0  0  0  0  0  0  0  0  0  0  0
  -29.2360  -23.7650   20.2370 C   0  0  0  0  0  3  0  0  0  0  0  0
  -28.0620  -24.8910   20.1800 C   0  0  0  0  0  3  0  0  0  0  0  0
  -28.3040  -26.3860   20.2320 O   0  0  0  0  0  0  0  0  0  0  0  0
  -24.6070  -31.9030   23.2400 C   0  0  0  0  0  0  0  0  0  0  0  0
  -27.1980  -27.2790   20.1920 C   0  0  0  0  0  0  0  0  0  0  0  0
  -23.3990  -30.5070   21.6050 C   0  0  0  0  0  3  0  0  0  0  0  0
  -24.8420  -28.9450   20.1810 C   0  0  0  0  0  0  0  0  0  0  0  0
  -25.9460  -30.7990   21.4260 C   0  0  0  0  0  2  0  0  0  0  0  0
  -26.0200  -29.4170   20.7750 C   0  0  0  0  0  0  0  0  0  0  0  0
  -27.1990  -28.5990   20.7650 C   0  0  0  0  0  3  0  0  0  0  0  0
  -25.9890  -26.8800   19.5730 C   0  0  0  0  0  3  0  0  0  0  0  0
  -24.8340  -27.6840   19.5700 C   0  0  0  0  0  3  0  0  0  0  0  0
  -23.6100  -29.8280   20.2270 C   0  0  0  0  0  2  0  0  0  0  0  0
  -24.6700  -31.0890   22.1460 N   0  0  0  0  0  0  0  0  0  0  0  0
  -23.5240  -32.1870   23.7730 O   0  0  0  0  0  0  0  0  0  0  0  0
  -22.7300  -29.4960   22.5680 C   0  0  0  0  0  0  0  0  0  0  0  0
  -21.4020  -29.3250   22.4430 N   0  0  0  0  0  0  0  0  0  0  0  0
  -23.4050  -28.8680   23.3880 O   0  0  0  0  0  0  0  0  0  0  0  0
  -20.9150  -29.8810   21.7540 H   0  0  0  0  0  0  0  0  0  0  0  0
  -18.0190  -28.1470   22.9580 C   0  0  0  0  0  0  0  0  0  0  0  0
  -20.5800  -28.3930   23.2190 C   0  0  0  0  0  3  0  0  0  0  0  0
  -20.6730  -26.9600   22.6460 C   0  0  0  0  0  2  0  0  0  0  0  0
  -19.5660  -26.6420   21.6360 C   0  0  0  0  0  2  0  0  0  0  0  0
  -18.1870  -26.7960   22.2830 C   0  0  0  0  0  2  0  0  0  0  0  0
  -19.1440  -28.9030   23.3830 C   0  0  0  0  0  0  0  0  0  0  0  0
  -18.9320  -30.1670   23.9760 C   0  0  0  0  0  3  0  0  0  0  0  0
  -17.6300  -30.6750   24.1470 C   0  0  0  0  0  3  0  0  0  0  0  0
  -16.5200  -29.9150   23.7370 C   0  0  0  0  0  3  0  0  0  0  0  0
  -16.7160  -28.6530   23.1490 C   0  0  0  0  0  3  0  0  0  0  0  0
  -25.8910  -32.5340   23.8600 C   0  0  0  0  0  3  0  0  0  0  0  0
  -25.5830  -33.9340   24.1880 N   0  0  0  0  0  0  0  0  0  0  0  0
  -25.9140  -34.9860   23.4270 C   0  0  0  0  0  0  0  0  0  0  0  0
  -26.5780  -34.8800   22.3920 O   0  0  0  0  0  0  0  0  0  0  0  0
  -24.9870  -34.0870   24.9870 H   0  0  0  0  0  0  0  0  0  0  0  0
  -24.1860  -36.7850   23.0840 C   0  0  0  0  0  1  0  0  0  0  0  0
  -25.4330  -36.3780   23.8870 C   0  0  0  0  0  3  0  0  0  0  0  0
  -27.5760  -37.2600   24.6980 C   0  0  0  0  0  1  0  0  0  0  0  0
  -26.4660  -37.4280   23.7630 N   0  0  0  0  0  0  0  0  0  0  0  0
  -26.0630  -38.3490   23.9130 H   0  0  0  0  0  0  0  0  0  0  0  0
  -26.4020  -31.7650   25.1410 C   0  0  1  0  0  0  0  0  0  0  0  0
  -25.3050  -31.5420   26.2090 C   0  0  0  0  0  1  0  0  0  0  0  0
  -26.9770  -30.3810   24.7620 C   0  0  0  0  0  1  0  0  0  0  0  0
  -27.5550  -32.5570   25.8010 C   0  0  0  0  0  1  0  0  0  0  0  0
  2  3  1  0
  3 48  1  0
  3  1  2  0
  4  1  1  0
  4 10  1  0
  5  2  2  0
  5  7  1  0
  6  5  1  0
  7  4  2  0
  8  9  2  0
  9  2  1  0
 11 10  2  0
 12 11  1  0
 13 18  1  0
 14 15  1  0
 14 13  1  0
 16 15  1  0
 16 23  1  0
 16 17  1  0
 18 12  1  0
 18 17  1  0
 19 12  2  0
 20 21  2  0
 21 40  1  0
 22 21  1  0
 22 25  1  0
 23 20  1  0
 23 24  1  0
 24 22  2  0
 25 26  1  0
 26 27  2  0
 28 31  1  0
 28 27  1  0
 29 28  2  0
 30 29  1  0
 30 25  2  0
 31 32  1  0
 32 33  1  0
 33 34  2  0
 35 34  1  0
 35 39  1  0
 36 35  2  0
 37 32  2  0
 37 36  1  0
 38 37  1  0
 40 41  1  0
 41 44  1  0
 41 43  1  0
 42 40  2  0
 45 46  1  0
 45 20  1  0
 47 45  1  0
 49 48  1  0
 50 51  1  0
 50 49  2  0
 52 63  2  0
 53 51  1  0
 53 58  1  0
 54 62  1  0
 54 64  1  0
 55 61  1  0
 55 57  1  0
 56 62  1  0
 57 56  1  0
 58 57  2  0
 59 53  2  0
 60 59  1  0
 60 55  2  0
 61 54  1  0
 62 52  1  0
 64 66  2  0
 65 64  1  0
 67 65  1  0
 68 77  2  0
 68 73  1  0
 69 65  1  0
 69 73  1  0
 70 69  1  0
 71 72  1  0
 71 70  1  0
 72 68  1  0
 73 74  2  0
 74 75  1  0
 76 75  2  0
 77 76  1  0
 78 52  1  0
 78 79  1  0
 78 88  1  0
 79 82  1  0
 80 84  1  0
 80 79  1  0
 81 80  2  0
 84 83  1  0
 86 84  1  0
 86 87  1  0
 86 85  1  0
 88 91  1  1
 88 89  1  0
 90 88  1  0
M  ISO  4  11 100  12 100  50 101  51 101
M  END
>  <TORSDO>  (20) 
F 21

>  <SCORE>  (20) 
-13.621

>  <name>  (20) 
19

>  <ligand_id>  (20) 
19

>  <original_smiles>  (20) 
[H]C([H])=C([H])c1c(C([H])([H])[H])nc(C([H])=C([H])C(=O)N2C([H])([H])C([H])([H])C([H])([H])C([H])(n3nc(-c4c([H])c([H])c(Oc5c([H])c([H])c(F)c([H])c5F)c([H])c4[H])c(C(=O)N([H])[H])c3N([H])[H])C2([H])[H])c([H])c1OC([H])([H])C([H])([H])Oc1c([H])c([H])c2c(c1[H])C([H])([H])N(C(=O)C([H])(N([H])C(=O)C([H])(N([H])C([H])([H])[H])C([H])([H])[H])C(C([H])([H])[H])(C([H])([H])[H])C([H])([H])[H])C([H])(C(=O)N([H])C1([H])c3c([H])c([H])c([H])c([H])c3C([H])([H])C([H])([H])C1([H])[H])C2([H])[H]

>  <smiles>  (20) 
[H]C([H])=C([H])c1c(C([H])([H])[H])nc(C([H])=C([H])C(=O)N2C([H])([H])C([H])([H])C([H])([H])C([H])(n3nc(-c4c([H])c([H])c(Oc5c([H])c([H])c(F)c([H])c5F)c([H])c4[H])c(C(=O)N([H])[H])c3N([H])[H])C2([H])[H])c([H])c1OC([H])([H])C([H])([H])Oc1c([H])c([H])c2c(c1[H])C([H])([H])N(C(=O)C([H])(N([H])C(=O)C([H])(N([H])C([H])([H])[H])C([H])([H])[H])C(C([H])([H])[H])(C([H])([H])[H])C([H])([H])[H])C([H])(C(=O)N([H])C1([H])c3c([H])c([H])c([H])c([H])c3C([H])([H])C([H])([H])C1([H])[H])C2([H])[H]

$$$$
20:0:0
     RDKit          3D

 94102  0  0  1  0  0  0  0  0999 V2000
  -30.8940  -18.0270   21.0630 C   0  0  0  0  0  3  0  0  0  0  0  0
  -28.7400  -18.0200   19.9980 C   0  0  0  0  0  3  0  0  0  0  0  0
  -29.8700  -17.2730   20.4330 C   0  0  0  0  0  0  0  0  0  0  0  0
  -30.8140  -19.4550   21.1820 C   0  0  0  0  0  0  0  0  0  0  0  0
  -29.7220  -20.2020   20.6510 C   0  0  0  0  0  0  0  0  0  0  0  0
  -28.6590  -19.4390   20.0900 C   0  0  0  0  0  0  0  0  0  0  0  0
  -27.5560  -20.0510   19.5970 F   0  0  0  0  0  0  0  0  0  0  0  0
  -30.7200  -14.8330   20.5600 C   0  0  0  0  0  0  0  0  0  0  0  0
  -30.5490  -12.5000   19.7190 C   0  0  0  0  0  2  0  0  0  0  0  0
  -29.6620  -12.4450   18.4540 C   0  0  0  0  0  2  0  0  0  0  0  0
  -28.1670  -12.3610   18.8220 C   0  0  0  0  0  2  0  0  0  0  0  0
  -27.7420  -13.3320   19.9570 C   0  0  0  0  0  3  0  0  0  0  0  0
  -28.7540  -13.3350   21.1230 C   0  0  0  0  0  2  0  0  0  0  0  0
  -30.0750  -13.6210   20.5530 N   0  0  0  0  0  0  0  0  0  0  0  0
  -31.9500  -14.8870   20.5040 O   0  0  0  0  0  0  0  0  0  0  0  0
  -29.9900  -15.8190   18.5140 C   0  0  0  0  0  1  0  0  0  0  0  0
  -30.0100  -15.8780   19.9900 N   0  0  0  0  0  0  0  0  0  0  0  0
  -25.3340  -13.9630   20.5900 C   0  0  0  0  0  0  0  0  0  0  0  0
  -24.2440  -13.2030   20.9140 C   0  0  0  0  0  0  0  0  0  0  0  0
  -24.6930  -11.8460   20.9100 C   0  0  0  0  0  0  0  0  0  0  0  0
  -26.3770  -13.0690   20.4020 N   0  0  0  0  0  0  0  0  0  0  0  0
  -25.9940  -11.7920   20.6610 N   0  0  0  0  0  0  0  0  0  0  0  0
  -23.9480  -10.5920   21.0740 C   0  0  0  0  0  0  0  0  0  0  0  0
  -24.3500   -9.6110   22.0050 C   0  0  0  0  0  3  0  0  0  0  0  0
  -23.6050   -8.4210   22.1570 C   0  0  0  0  0  3  0  0  0  0  0  0
  -22.4460   -8.2060   21.3740 C   0  0  0  0  0  0  0  0  0  0  0  0
  -22.0640   -9.1770   20.4310 C   0  0  0  0  0  3  0  0  0  0  0  0
  -22.8100  -10.3570   20.2780 C   0  0  0  0  0  3  0  0  0  0  0  0
  -21.6750   -7.0710   21.4360 O   0  0  0  0  0  0  0  0  0  0  0  0
  -21.6200   -6.2980   22.5690 C   0  0  0  0  0  0  0  0  0  0  0  0
  -21.2040   -6.8250   23.8110 C   0  0  0  0  0  3  0  0  0  0  0  0
  -21.0970   -5.9790   24.9330 C   0  0  0  0  0  3  0  0  0  0  0  0
  -21.3950   -4.6090   24.8140 C   0  0  0  0  0  0  0  0  0  0  0  0
  -21.8050   -4.0820   23.5770 C   0  0  0  0  0  3  0  0  0  0  0  0
  -21.9150   -4.9250   22.4570 C   0  0  0  0  0  0  0  0  0  0  0  0
  -22.2900   -4.4080   21.2620 F   0  0  0  0  0  0  0  0  0  0  0  0
  -21.2840   -3.7950   25.8900 F   0  0  0  0  0  0  0  0  0  0  0  0
  -22.8420  -13.6960   21.1190 C   0  0  0  0  0  0  0  0  0  0  0  0
  -22.0690  -13.0120   21.9560 N   0  0  0  0  0  0  0  0  0  0  0  0
  -22.4390  -14.7240   20.5760 O   0  0  0  0  0  0  0  0  0  0  0  0
  -22.4080  -12.1810   22.4160 H   0  0  0  0  0  0  0  0  0  0  0  0
  -21.1250  -13.3230   22.1360 H   0  0  0  0  0  0  0  0  0  0  0  0
  -25.5250  -15.3290   20.4150 N   0  0  0  0  0  0  0  0  0  0  0  0
  -24.7670  -15.9990   20.4820 H   0  0  0  0  0  0  0  0  0  0  0  0
  -26.4030  -15.7440   20.1310 H   0  0  0  0  0  0  0  0  0  0  0  0
  -31.8460  -20.1790   21.7360 O   0  0  0  0  0  0  0  0  0  0  0  0
  -32.1520  -19.9520   23.1100 C   0  0  0  0  0  2  0  0  0  0  0  0
  -30.1930  -21.2860   24.1100 C   0  0  0  0  0  1  0  0  0  0  0  0
  -31.7150  -21.1620   23.9520 C   0  0  0  0  0  2  0  0  0  0  0  0
  -29.7890  -21.6140   20.7350 O   0  0  0  0  0  0  0  0  0  0  0  0
  -28.7830  -22.5180   20.1820 C   0  0  0  0  0  3  0  0  0  0  0  0
  -29.1360  -24.0720   20.2950 C   0  0  0  0  0  3  0  0  0  0  0  0
  -28.0120  -25.1030   19.8540 C   0  0  0  0  0  2  0  0  0  0  0  0
  -28.2520  -26.5650   19.9170 O   0  0  0  0  0  0  0  0  0  0  0  0
  -24.5200  -31.8850   23.0350 C   0  0  0  0  0  0  0  0  0  0  0  0
  -27.1280  -27.4080   19.8740 C   0  0  0  0  0  0  0  0  0  0  0  0
  -23.3010  -30.4960   21.3990 C   0  0  0  0  0  3  0  0  0  0  0  0
  -24.7440  -28.9900   19.9230 C   0  0  0  0  0  0  0  0  0  0  0  0
  -25.8310  -30.8550   21.1690 C   0  0  0  0  0  2  0  0  0  0  0  0
  -25.9190  -29.4870   20.5040 C   0  0  0  0  0  0  0  0  0  0  0  0
  -27.1130  -28.7070   20.4700 C   0  0  0  0  0  3  0  0  0  0  0  0
  -25.9300  -26.9720   19.2590 C   0  0  0  0  0  3  0  0  0  0  0  0
  -24.7530  -27.7400   19.2900 C   0  0  0  0  0  3  0  0  0  0  0  0
  -23.4970  -29.8460   20.0050 C   0  0  0  0  0  2  0  0  0  0  0  0
  -24.5710  -31.0950   21.9250 N   0  0  0  0  0  0  0  0  0  0  0  0
  -23.4440  -32.1400   23.5960 O   0  0  0  0  0  0  0  0  0  0  0  0
  -22.6730  -29.4560   22.3560 C   0  0  0  0  0  0  0  0  0  0  0  0
  -21.3410  -29.2910   22.2770 N   0  0  0  0  0  0  0  0  0  0  0  0
  -23.3790  -28.8040   23.1300 O   0  0  0  0  0  0  0  0  0  0  0  0
  -20.8330  -29.8700   21.6240 H   0  0  0  0  0  0  0  0  0  0  0  0
  -17.9730  -28.1140   22.8790 C   0  0  0  0  0  0  0  0  0  0  0  0
  -20.5430  -28.3400   23.0530 C   0  0  0  0  0  3  0  0  0  0  0  0
  -20.6060  -26.9250   22.4310 C   0  0  0  0  0  2  0  0  0  0  0  0
  -19.4590  -26.6440   21.4560 C   0  0  0  0  0  2  0  0  0  0  0  0
  -18.1070  -26.7830   22.1600 C   0  0  0  0  0  2  0  0  0  0  0  0
  -19.1170  -28.8540   23.2840 C   0  0  0  0  0  0  0  0  0  0  0  0
  -18.9370  -30.1020   23.9180 C   0  0  0  0  0  3  0  0  0  0  0  0
  -17.6450  -30.6090   24.1530 C   0  0  0  0  0  3  0  0  0  0  0  0
  -16.5160  -29.8670   23.7620 C   0  0  0  0  0  3  0  0  0  0  0  0
  -16.6820  -28.6220   23.1290 C   0  0  0  0  0  3  0  0  0  0  0  0
  -25.8080  -32.5230   23.6420 C   0  0  0  0  0  3  0  0  0  0  0  0
  -25.4800  -33.9040   24.0240 N   0  0  0  0  0  0  0  0  0  0  0  0
  -25.8000  -34.9900   23.3070 C   0  0  0  0  0  0  0  0  0  0  0  0
  -26.4740  -34.9340   22.2750 O   0  0  0  0  0  0  0  0  0  0  0  0
  -24.8810  -34.0180   24.8290 H   0  0  0  0  0  0  0  0  0  0  0  0
  -24.0600  -36.7820   23.0090 C   0  0  0  0  0  1  0  0  0  0  0  0
  -25.2950  -36.3540   23.8180 C   0  0  0  0  0  3  0  0  0  0  0  0
  -27.4070  -37.2230   24.7140 C   0  0  0  0  0  1  0  0  0  0  0  0
  -26.3170  -37.4210   23.7630 N   0  0  0  0  0  0  0  0  0  0  0  0
  -25.9000  -38.3300   23.9430 H   0  0  0  0  0  0  0  0  0  0  0  0
  -26.3720  -31.7210   24.8790 C   0  0  1  0  0  0  0  0  0  0  0  0
  -25.3140  -31.4350   25.9700 C   0  0  0  0  0  1  0  0  0  0  0  0
  -26.9590  -30.3630   24.4280 C   0  0  0  0  0  1  0  0  0  0  0  0
  -27.5300  -32.5110   25.5300 C   0  0  0  0  0  1  0  0  0  0  0  0
  1  4  1  0
  2  6  2  0
  2  3  1  0
  3  1  2  0
  4 46  1  0
  5 50  1  0
  5  4  2  0
  6  5  1  0
  7  6  1  0
  9 14  1  0
 10 11  1  0
 10  9  1  0
 12 11  1  0
 12 21  1  0
 12 13  1  0
 14  8  1  0
 14 13  1  0
 15  8  2  0
 16 17  1  0
 17  3  1  0
 17  8  1  0
 18 19  2  0
 19 38  1  0
 20 19  1  0
 20 23  1  0
 21 18  1  0
 21 22  1  0
 22 20  2  0
 23 24  1  0
 24 25  2  0
 26 29  1  0
 26 25  1  0
 27 26  2  0
 28 27  1  0
 28 23  2  0
 29 30  1  0
 30 31  1  0
 31 32  2  0
 33 32  1  0
 33 37  1  0
 34 33  2  0
 35 30  2  0
 35 34  1  0
 36 35  1  0
 38 39  1  0
 39 42  1  0
 39 41  1  0
 40 38  2  0
 43 44  1  0
 43 18  1  0
 45 43  1  0
 46 47  1  0
 47 49  1  0
 49 48  1  0
 51 52  2  0
 51 50  1  0
 53 54  1  0
 53 52  1  0
 55 66  2  0
 56 54  1  0
 56 61  1  0
 57 65  1  0
 57 67  1  0
 58 64  1  0
 58 60  1  0
 59 65  1  0
 60 59  1  0
 61 60  2  0
 62 63  1  0
 62 56  2  0
 63 58  2  0
 64 57  1  0
 65 55  1  0
 67 69  2  0
 68 67  1  0
 70 68  1  0
 71 80  2  0
 71 76  1  0
 72 68  1  0
 72 76  1  0
 73 72  1  0
 74 75  1  0
 74 73  1  0
 75 71  1  0
 76 77  2  0
 77 78  1  0
 79 78  2  0
 80 79  1  0
 81 55  1  0
 81 82  1  0
 81 91  1  0
 82 85  1  0
 83 87  1  0
 83 82  1  0
 84 83  2  0
 87 86  1  0
 89 87  1  0
 89 90  1  0
 89 88  1  0
 91 94  1  1
 91 92  1  0
 93 91  1  0
M  ISO  4   8 100  17 100  53 101  54 101
M  END
>  <TORSDO>  (21) 
F 23

>  <SCORE>  (21) 
-13.108

>  <name>  (21) 
20

>  <ligand_id>  (21) 
20

>  <original_smiles>  (21) 
[H]c1c([H])c([H])c2c(c1[H])C([H])([H])C([H])([H])C([H])([H])C2([H])N([H])C(=O)C1([H])N(C(=O)C([H])(N([H])C(=O)C([H])(N([H])C([H])([H])[H])C([H])([H])[H])C(C([H])([H])[H])(C([H])([H])[H])C([H])([H])[H])C([H])([H])c2c([H])c(OC([H])([H])C([H])([H])C([H])([H])Oc3c(F)c([H])c(N(C(=O)N4C([H])([H])C([H])([H])C([H])([H])C([H])(n5nc(-c6c([H])c([H])c(Oc7c([H])c([H])c(F)c([H])c7F)c([H])c6[H])c(C(=O)N([H])[H])c5N([H])[H])C4([H])[H])C([H])([H])[H])c([H])c3OC([H])([H])C([H])([H])C([H])([H])[H])c([H])c([H])c2C1([H])[H]

>  <smiles>  (21) 
[H]c1c([H])c([H])c2c(c1[H])C([H])([H])C([H])([H])C([H])([H])C2([H])N([H])C(=O)C1([H])N(C(=O)C([H])(N([H])C(=O)C([H])(N([H])C([H])([H])[H])C([H])([H])[H])C(C([H])([H])[H])(C([H])([H])[H])C([H])([H])[H])C([H])([H])c2c([H])c(OC([H])([H])C([H])([H])C([H])([H])Oc3c(F)c([H])c(N(C(=O)N4C([H])([H])C([H])([H])C([H])([H])C([H])(n5nc(-c6c([H])c([H])c(Oc7c([H])c([H])c(F)c([H])c7F)c([H])c6[H])c(C(=O)N([H])[H])c5N([H])[H])C4([H])[H])C([H])([H])[H])c([H])c3OC([H])([H])C([H])([H])C([H])([H])[H])c([H])c([H])c2C1([H])[H]

$$$$
21:0:0
     RDKit          3D

 96104  0  0  1  0  0  0  0  0999 V2000
  -29.5040  -18.8210   21.0330 C   0  0  0  0  0  3  0  0  0  0  0  0
  -31.1780  -20.3510   19.3630 C   0  0  0  0  0  0  0  0  0  0  0  0
  -30.2000  -18.1740   19.9910 C   0  0  0  0  0  0  0  0  0  0  0  0
  -31.0740  -18.9410   19.1680 C   0  0  0  0  0  0  0  0  0  0  0  0
  -30.4340  -20.9960   20.3840 C   0  0  0  0  0  0  0  0  0  0  0  0
  -29.6120  -20.2120   21.2320 C   0  0  0  0  0  0  0  0  0  0  0  0
  -28.9080  -20.7810   22.2400 F   0  0  0  0  0  0  0  0  0  0  0  0
  -31.8720  -21.3580   17.1790 C   0  0  0  0  0  2  0  0  0  0  0  0
  -32.0100  -21.2180   18.5070 C   0  0  0  0  0  3  0  0  0  0  0  0
  -31.9020  -18.2490   18.0820 C   0  0  0  0  0  2  0  0  0  0  0  0
  -31.8190  -17.9710   15.5680 C   0  0  0  0  0  2  0  0  0  0  0  0
  -31.1940  -18.1490   16.7430 C   0  0  0  0  0  3  0  0  0  0  0  0
  -29.8620  -16.7080   19.6810 C   0  0  0  0  0  2  0  0  0  0  0  0
  -31.0020  -14.6320   20.2650 C   0  0  0  0  0  0  0  0  0  0  0  0
  -30.6760  -12.4860   19.1200 C   0  0  0  0  0  2  0  0  0  0  0  0
  -29.7080  -12.7440   17.9430 C   0  0  0  0  0  2  0  0  0  0  0  0
  -28.2430  -12.6120   18.4040 C   0  0  0  0  0  2  0  0  0  0  0  0
  -27.9490  -13.4190   19.6980 C   0  0  0  0  0  3  0  0  0  0  0  0
  -29.0280  -13.1500   20.7750 C   0  0  0  0  0  2  0  0  0  0  0  0
  -30.3480  -13.4410   20.1890 N   0  0  0  0  0  0  0  0  0  0  0  0
  -32.1150  -14.8270   19.7670 O   0  0  0  0  0  0  0  0  0  0  0  0
  -30.2270  -15.6630   20.6480 N   0  0  0  0  0  0  0  0  0  0  0  0
  -29.4610  -15.3840   21.2420 H   0  0  0  0  0  0  0  0  0  0  0  0
  -25.5780  -14.0510   20.4790 C   0  0  0  0  0  0  0  0  0  0  0  0
  -24.5060  -13.2870   20.8560 C   0  0  0  0  0  0  0  0  0  0  0  0
  -24.9440  -11.9290   20.7780 C   0  0  0  0  0  0  0  0  0  0  0  0
  -26.6010  -13.1580   20.1990 N   0  0  0  0  0  0  0  0  0  0  0  0
  -26.2240  -11.8750   20.4350 N   0  0  0  0  0  0  0  0  0  0  0  0
  -24.2030  -10.6730   20.9540 C   0  0  0  0  0  0  0  0  0  0  0  0
  -24.6200   -9.6930   21.8830 C   0  0  0  0  0  3  0  0  0  0  0  0
  -23.8810   -8.5030   22.0470 C   0  0  0  0  0  3  0  0  0  0  0  0
  -22.7120   -8.2830   21.2820 C   0  0  0  0  0  0  0  0  0  0  0  0
  -22.3130   -9.2500   20.3430 C   0  0  0  0  0  3  0  0  0  0  0  0
  -23.0530  -10.4330   20.1770 C   0  0  0  0  0  3  0  0  0  0  0  0
  -21.9440   -7.1450   21.3560 O   0  0  0  0  0  0  0  0  0  0  0  0
  -21.8450   -6.4180   22.5160 C   0  0  0  0  0  0  0  0  0  0  0  0
  -21.3530   -6.9870   23.7110 C   0  0  0  0  0  3  0  0  0  0  0  0
  -21.2030   -6.1860   24.8610 C   0  0  0  0  0  3  0  0  0  0  0  0
  -21.5360   -4.8190   24.8160 C   0  0  0  0  0  0  0  0  0  0  0  0
  -22.0210   -4.2500   23.6240 C   0  0  0  0  0  3  0  0  0  0  0  0
  -22.1720   -5.0490   22.4770 C   0  0  0  0  0  0  0  0  0  0  0  0
  -22.6210   -4.4930   21.3260 F   0  0  0  0  0  0  0  0  0  0  0  0
  -21.3830   -4.0470   25.9170 F   0  0  0  0  0  0  0  0  0  0  0  0
  -23.1250  -13.7770   21.1800 C   0  0  0  0  0  0  0  0  0  0  0  0
  -22.4180  -13.0810   22.0630 N   0  0  0  0  0  0  0  0  0  0  0  0
  -22.6820  -14.8130   20.6850 O   0  0  0  0  0  0  0  0  0  0  0  0
  -22.7880  -12.2430   22.4860 H   0  0  0  0  0  0  0  0  0  0  0  0
  -21.4920  -13.3920   22.3210 H   0  0  0  0  0  0  0  0  0  0  0  0
  -25.7600  -15.4240   20.3360 N   0  0  0  0  0  0  0  0  0  0  0  0
  -25.0090  -16.0890   20.4900 H   0  0  0  0  0  0  0  0  0  0  0  0
  -26.6070  -15.8620   20.0000 H   0  0  0  0  0  0  0  0  0  0  0  0
  -30.5680  -22.3730   20.4950 O   0  0  0  0  0  0  0  0  0  0  0  0
  -29.4280  -23.1440   20.8820 C   0  0  0  0  0  2  0  0  0  0  0  0
  -29.5680  -24.5920   20.3500 C   0  0  0  0  0  2  0  0  0  0  0  0
  -28.3680  -25.4900   20.7110 C   0  0  0  0  0  2  0  0  0  0  0  0
  -28.4890  -26.8240   20.1830 O   0  0  0  0  0  0  0  0  0  0  0  0
  -24.6120  -31.9610   23.2510 C   0  0  0  0  0  0  0  0  0  0  0  0
  -27.3190  -27.5550   20.1730 C   0  0  0  0  0  0  0  0  0  0  0  0
  -23.4300  -30.5490   21.6000 C   0  0  0  0  0  3  0  0  0  0  0  0
  -24.9080  -29.0370   20.1750 C   0  0  0  0  0  0  0  0  0  0  0  0
  -25.9530  -30.9390   21.4140 C   0  0  0  0  0  2  0  0  0  0  0  0
  -26.0580  -29.5720   20.7690 C   0  0  0  0  0  0  0  0  0  0  0  0
  -27.2680  -28.8400   20.7630 C   0  0  0  0  0  3  0  0  0  0  0  0
  -26.1540  -27.0440   19.5580 C   0  0  0  0  0  3  0  0  0  0  0  0
  -24.9510  -27.7730   19.5640 C   0  0  0  0  0  3  0  0  0  0  0  0
  -23.6530  -29.8790   20.2190 C   0  0  0  0  0  2  0  0  0  0  0  0
  -24.6830  -31.1640   22.1470 N   0  0  0  0  0  0  0  0  0  0  0  0
  -23.5250  -32.2170   23.7880 O   0  0  0  0  0  0  0  0  0  0  0  0
  -22.7870  -29.5160   22.5540 C   0  0  0  0  0  0  0  0  0  0  0  0
  -21.4650  -29.3210   22.4220 N   0  0  0  0  0  0  0  0  0  0  0  0
  -23.4760  -28.8930   23.3670 O   0  0  0  0  0  0  0  0  0  0  0  0
  -20.9710  -29.8770   21.7380 H   0  0  0  0  0  0  0  0  0  0  0  0
  -18.0960  -28.1190   22.9290 C   0  0  0  0  0  0  0  0  0  0  0  0
  -20.6560  -28.3730   23.1860 C   0  0  0  0  0  3  0  0  0  0  0  0
  -20.7540  -26.9500   22.5870 C   0  0  0  0  0  2  0  0  0  0  0  0
  -19.6450  -26.6410   21.5780 C   0  0  0  0  0  2  0  0  0  0  0  0
  -18.2680  -26.7790   22.2340 C   0  0  0  0  0  2  0  0  0  0  0  0
  -19.2180  -28.8740   23.3610 C   0  0  0  0  0  0  0  0  0  0  0  0
  -19.0030  -30.1290   23.9710 C   0  0  0  0  0  3  0  0  0  0  0  0
  -17.6990  -30.6290   24.1510 C   0  0  0  0  0  3  0  0  0  0  0  0
  -16.5930  -29.8690   23.7360 C   0  0  0  0  0  3  0  0  0  0  0  0
  -16.7920  -28.6160   23.1300 C   0  0  0  0  0  3  0  0  0  0  0  0
  -25.8860  -32.6050   23.8790 C   0  0  0  0  0  3  0  0  0  0  0  0
  -25.5640  -34.0020   24.2000 N   0  0  0  0  0  0  0  0  0  0  0  0
  -25.9030  -35.0530   23.4420 C   0  0  0  0  0  0  0  0  0  0  0  0
  -26.5900  -34.9500   22.4210 O   0  0  0  0  0  0  0  0  0  0  0  0
  -24.9560  -34.1560   24.9910 H   0  0  0  0  0  0  0  0  0  0  0  0
  -24.1790  -36.8390   23.0390 C   0  0  0  0  0  1  0  0  0  0  0  0
  -25.3980  -36.4400   23.8860 C   0  0  0  0  0  3  0  0  0  0  0  0
  -27.5040  -37.3320   24.7790 C   0  0  0  0  0  1  0  0  0  0  0  0
  -26.4300  -37.4950   23.8020 N   0  0  0  0  0  0  0  0  0  0  0  0
  -26.0180  -38.4140   23.9350 H   0  0  0  0  0  0  0  0  0  0  0  0
  -26.4020  -31.8410   25.1600 C   0  0  1  0  0  0  0  0  0  0  0  0
  -25.3010  -31.5860   26.2160 C   0  0  0  0  0  1  0  0  0  0  0  0
  -27.0100  -30.4740   24.7710 C   0  0  0  0  0  1  0  0  0  0  0  0
  -27.5330  -32.6530   25.8340 C   0  0  0  0  0  1  0  0  0  0  0  0
  1  6  1  0
  2  5  1  0
  3  1  2  0
  4  2  2  0
  4  3  1  0
  5 52  1  0
  5  6  2  0
  6  7  1  0
  8  9  2  0
  9  2  1  0
 10  4  1  0
 11 12  2  0
 12 10  1  0
 13  3  1  0
 13 22  1  0
 14 22  1  0
 15 20  1  0
 16 17  1  0
 16 15  1  0
 18 17  1  0
 18 27  1  0
 18 19  1  0
 20 14  1  0
 20 19  1  0
 21 14  2  0
 22 23  1  0
 24 25  2  0
 25 44  1  0
 26 25  1  0
 26 29  1  0
 27 28  1  0
 27 24  1  0
 28 26  2  0
 29 30  1  0
 30 31  2  0
 32 35  1  0
 32 31  1  0
 33 32  2  0
 34 33  1  0
 34 29  2  0
 35 36  1  0
 36 37  1  0
 37 38  2  0
 39 38  1  0
 39 43  1  0
 40 39  2  0
 41 36  2  0
 41 40  1  0
 42 41  1  0
 44 45  1  0
 45 48  1  0
 45 47  1  0
 46 44  2  0
 49 24  1  0
 49 50  1  0
 51 49  1  0
 52 53  1  0
 54 55  1  0
 54 53  1  0
 56 55  1  0
 57 68  2  0
 58 56  1  0
 58 63  1  0
 59 67  1  0
 59 69  1  0
 60 66  1  0
 60 62  1  0
 61 67  1  0
 62 61  1  0
 63 62  2  0
 64 65  1  0
 64 58  2  0
 65 60  2  0
 66 59  1  0
 67 57  1  0
 69 71  2  0
 70 69  1  0
 72 70  1  0
 73 82  2  0
 73 78  1  0
 74 70  1  0
 74 78  1  0
 75 74  1  0
 76 77  1  0
 76 75  1  0
 77 73  1  0
 78 79  2  0
 79 80  1  0
 81 80  2  0
 82 81  1  0
 83 57  1  0
 83 84  1  0
 83 93  1  0
 84 87  1  0
 85 89  1  0
 85 84  1  0
 86 85  2  0
 89 88  1  0
 91 89  1  0
 91 92  1  0
 91 90  1  0
 93 96  1  1
 93 94  1  0
 95 93  1  0
M  ISO  4  14 100  22 100  55 101  56 101
M  END
>  <TORSDO>  (22) 
F 24

>  <SCORE>  (22) 
-12.207

>  <name>  (22) 
21

>  <ligand_id>  (22) 
21

>  <original_smiles>  (22) 
[H]C([H])=C([H])c1c(OC([H])([H])C([H])([H])C([H])([H])Oc2c([H])c([H])c3c(c2[H])C([H])([H])N(C(=O)C([H])(N([H])C(=O)C([H])(N([H])C([H])([H])[H])C([H])([H])[H])C(C([H])([H])[H])(C([H])([H])[H])C([H])([H])[H])C([H])(C(=O)N([H])C2([H])c4c([H])c([H])c([H])c([H])c4C([H])([H])C([H])([H])C2([H])[H])C3([H])[H])c(F)c([H])c(C([H])([H])N([H])C(=O)N2C([H])([H])C([H])([H])C([H])([H])C([H])(n3nc(-c4c([H])c([H])c(Oc5c([H])c([H])c(F)c([H])c5F)c([H])c4[H])c(C(=O)N([H])[H])c3N([H])[H])C2([H])[H])c1C([H])([H])C([H])=C([H])[H]

>  <smiles>  (22) 
[H]C([H])=C([H])c1c(OC([H])([H])C([H])([H])C([H])([H])Oc2c([H])c([H])c3c(c2[H])C([H])([H])N(C(=O)C([H])(N([H])C(=O)C([H])(N([H])C([H])([H])[H])C([H])([H])[H])C(C([H])([H])[H])(C([H])([H])[H])C([H])([H])[H])C([H])(C(=O)N([H])C2([H])c4c([H])c([H])c([H])c([H])c4C([H])([H])C([H])([H])C2([H])[H])C3([H])[H])c(F)c([H])c(C([H])([H])N([H])C(=O)N2C([H])([H])C([H])([H])C([H])([H])C([H])(n3nc(-c4c([H])c([H])c(Oc5c([H])c([H])c(F)c([H])c5F)c([H])c4[H])c(C(=O)N([H])[H])c3N([H])[H])C2([H])[H])c1C([H])([H])C([H])=C([H])[H]

$$$$
22:0:0
     RDKit          3D

 90 98  0  0  1  0  0  0  0  0999 V2000
  -28.0250  -19.1980   20.0270 C   0  0  0  0  0  3  0  0  0  0  0  0
  -27.8340  -20.6230   19.8560 C   0  0  0  0  0  0  0  0  0  0  0  0
  -29.3340  -18.7600   20.1980 C   0  0  0  0  0  0  0  0  0  0  0  0
  -28.9960  -21.3590   19.9340 C   0  0  0  0  0  0  0  0  0  0  0  0
  -30.3590  -20.2200   20.1800 S   0  0  0  0  0  0  0  0  0  0  0  0
  -29.8290  -17.3480   20.3390 C   0  0  0  0  0  3  0  0  0  0  0  0
  -29.6530  -15.9760   20.5650 C   0  0  0  0  0  3  0  0  0  0  0  0
  -30.5830  -14.8080   20.3260 C   0  0  0  0  0  0  0  0  0  0  0  0
  -30.4530  -12.5280   19.3380 C   0  0  0  0  0  2  0  0  0  0  0  0
  -29.4940  -12.5760   18.1220 C   0  0  0  0  0  2  0  0  0  0  0  0
  -28.0330  -12.3620   18.5590 C   0  0  0  0  0  2  0  0  0  0  0  0
  -27.6500  -13.2640   19.7590 C   0  0  0  0  0  3  0  0  0  0  0  0
  -28.7110  -13.1740   20.8800 C   0  0  0  0  0  2  0  0  0  0  0  0
  -30.0080  -13.5540   20.3000 N   0  0  0  0  0  0  0  0  0  0  0  0
  -31.7750  -14.9280   20.0110 O   0  0  0  0  0  0  0  0  0  0  0  0
  -25.2630  -13.8850   20.4800 C   0  0  0  0  0  0  0  0  0  0  0  0
  -24.1900  -13.1170   20.8460 C   0  0  0  0  0  0  0  0  0  0  0  0
  -24.6450  -11.7650   20.8260 C   0  0  0  0  0  0  0  0  0  0  0  0
  -26.3000  -12.9960   20.2480 N   0  0  0  0  0  0  0  0  0  0  0  0
  -25.9370  -11.7180   20.5250 N   0  0  0  0  0  0  0  0  0  0  0  0
  -23.9130  -10.5060   21.0190 C   0  0  0  0  0  0  0  0  0  0  0  0
  -24.3350   -9.5400   21.9570 C   0  0  0  0  0  3  0  0  0  0  0  0
  -23.6020   -8.3470   22.1350 C   0  0  0  0  0  3  0  0  0  0  0  0
  -22.4340   -8.1130   21.3720 C   0  0  0  0  0  0  0  0  0  0  0  0
  -22.0330   -9.0670   20.4200 C   0  0  0  0  0  3  0  0  0  0  0  0
  -22.7670  -10.2500   20.2410 C   0  0  0  0  0  3  0  0  0  0  0  0
  -21.6730   -6.9710   21.4590 O   0  0  0  0  0  0  0  0  0  0  0  0
  -21.6180   -6.2350   22.6170 C   0  0  0  0  0  0  0  0  0  0  0  0
  -21.1780   -6.7930   23.8360 C   0  0  0  0  0  3  0  0  0  0  0  0
  -21.0720   -5.9840   24.9860 C   0  0  0  0  0  3  0  0  0  0  0  0
  -21.3950   -4.6160   24.9150 C   0  0  0  0  0  0  0  0  0  0  0  0
  -21.8240   -4.0550   23.6990 C   0  0  0  0  0  3  0  0  0  0  0  0
  -21.9340   -4.8630   22.5530 C   0  0  0  0  0  0  0  0  0  0  0  0
  -22.3320   -4.3120   21.3790 F   0  0  0  0  0  0  0  0  0  0  0  0
  -21.2830   -3.8360   26.0150 F   0  0  0  0  0  0  0  0  0  0  0  0
  -22.7900  -13.6020   21.1080 C   0  0  0  0  0  0  0  0  0  0  0  0
  -22.0520  -12.9080   21.9700 N   0  0  0  0  0  0  0  0  0  0  0  0
  -22.3590  -14.6320   20.5910 O   0  0  0  0  0  0  0  0  0  0  0  0
  -22.4100  -12.0700   22.4020 H   0  0  0  0  0  0  0  0  0  0  0  0
  -21.1180  -13.2250   22.2020 H   0  0  0  0  0  0  0  0  0  0  0  0
  -25.4380  -15.2520   20.2970 N   0  0  0  0  0  0  0  0  0  0  0  0
  -24.6940  -15.9260   20.4350 H   0  0  0  0  0  0  0  0  0  0  0  0
  -26.2980  -15.6690   19.9650 H   0  0  0  0  0  0  0  0  0  0  0  0
  -29.1630  -22.8220   19.7580 C   0  0  0  0  0  3  0  0  0  0  0  0
  -28.3170  -23.9060   19.8700 C   0  0  0  0  0  3  0  0  0  0  0  0
  -28.6080  -25.3770   19.3890 C   0  0  0  0  0  2  0  0  0  0  0  0
  -28.4010  -26.5420   20.2760 O   0  0  0  0  0  0  0  0  0  0  0  0
  -24.6210  -31.9080   23.2310 C   0  0  0  0  0  0  0  0  0  0  0  0
  -27.2690  -27.3620   20.1880 C   0  0  0  0  0  0  0  0  0  0  0  0
  -23.4300  -30.4970   21.5910 C   0  0  0  0  0  3  0  0  0  0  0  0
  -24.8960  -28.9570   20.1710 C   0  0  0  0  0  0  0  0  0  0  0  0
  -25.9700  -30.8280   21.4260 C   0  0  0  0  0  2  0  0  0  0  0  0
  -26.0580  -29.4530   20.7730 C   0  0  0  0  0  0  0  0  0  0  0  0
  -27.2450  -28.6650   20.7750 C   0  0  0  0  0  3  0  0  0  0  0  0
  -26.0820  -26.9090   19.5730 C   0  0  0  0  0  3  0  0  0  0  0  0
  -24.9120  -27.6920   19.5620 C   0  0  0  0  0  3  0  0  0  0  0  0
  -23.6450  -29.8110   20.2170 C   0  0  0  0  0  2  0  0  0  0  0  0
  -24.6910  -31.0920   22.1390 N   0  0  0  0  0  0  0  0  0  0  0  0
  -23.5350  -32.1820   23.7620 O   0  0  0  0  0  0  0  0  0  0  0  0
  -22.7680  -29.4830   22.5540 C   0  0  0  0  0  0  0  0  0  0  0  0
  -21.4430  -29.3050   22.4220 N   0  0  0  0  0  0  0  0  0  0  0  0
  -23.4460  -28.8560   23.3720 O   0  0  0  0  0  0  0  0  0  0  0  0
  -20.9550  -29.8440   21.7190 H   0  0  0  0  0  0  0  0  0  0  0  0
  -18.0640  -28.1400   22.9390 C   0  0  0  0  0  0  0  0  0  0  0  0
  -20.6260  -28.3710   23.1940 C   0  0  0  0  0  3  0  0  0  0  0  0
  -20.7120  -26.9430   22.6060 C   0  0  0  0  0  2  0  0  0  0  0  0
  -19.6010  -26.6410   21.5970 C   0  0  0  0  0  2  0  0  0  0  0  0
  -18.2230  -26.7960   22.2470 C   0  0  0  0  0  2  0  0  0  0  0  0
  -19.1940  -28.8880   23.3680 C   0  0  0  0  0  0  0  0  0  0  0  0
  -18.9930  -30.1500   23.9690 C   0  0  0  0  0  3  0  0  0  0  0  0
  -17.6940  -30.6630   24.1480 C   0  0  0  0  0  3  0  0  0  0  0  0
  -16.5800  -29.9110   23.7400 C   0  0  0  0  0  3  0  0  0  0  0  0
  -16.7650  -28.6520   23.1420 C   0  0  0  0  0  3  0  0  0  0  0  0
  -25.9010  -32.5470   23.8570 C   0  0  0  0  0  3  0  0  0  0  0  0
  -25.5880  -33.9460   24.1760 N   0  0  0  0  0  0  0  0  0  0  0  0
  -25.9250  -34.9940   23.4140 C   0  0  0  0  0  0  0  0  0  0  0  0
  -26.5990  -34.8850   22.3880 O   0  0  0  0  0  0  0  0  0  0  0  0
  -24.9990  -34.1070   24.9800 H   0  0  0  0  0  0  0  0  0  0  0  0
  -24.2020  -36.7830   23.0270 C   0  0  0  0  0  1  0  0  0  0  0  0
  -25.4300  -36.3840   23.8580 C   0  0  0  0  0  3  0  0  0  0  0  0
  -27.5460  -37.2780   24.7220 C   0  0  0  0  0  1  0  0  0  0  0  0
  -26.4630  -37.4370   23.7550 N   0  0  0  0  0  0  0  0  0  0  0  0
  -26.0540  -38.3570   23.8900 H   0  0  0  0  0  0  0  0  0  0  0  0
  -26.4070  -31.7840   25.1460 C   0  0  1  0  0  0  0  0  0  0  0  0
  -25.3030  -31.5520   26.2050 C   0  0  0  0  0  1  0  0  0  0  0  0
  -26.9940  -30.4020   24.7760 C   0  0  0  0  0  1  0  0  0  0  0  0
  -27.5490  -32.5860   25.8130 C   0  0  0  0  0  1  0  0  0  0  0  0
  -26.6340  -21.1930   19.5940 O   0  0  0  0  0  0  0  0  0  0  0  0
  -25.8040  -22.4770   17.6960 C   0  0  0  0  0  1  0  0  0  0  0  0
  -26.2180  -21.0960   18.2270 C   0  0  0  0  0  2  0  0  0  0  0  0
  1  3  2  0
  2  4  2  0
  2  1  1  0
  3  6  1  0
  4  5  1  0
  5  3  1  0
  6  7  2  0
  8  7  1  0
  9 14  1  0
 10 11  1  0
 10  9  1  0
 12 11  1  0
 12 19  1  0
 12 13  1  0
 14  8  1  0
 14 13  1  0
 15  8  2  0
 16 17  2  0
 17 36  1  0
 18 17  1  0
 18 21  1  0
 19 16  1  0
 19 20  1  0
 20 18  2  0
 21 22  1  0
 22 23  2  0
 24 27  1  0
 24 23  1  0
 25 24  2  0
 26 25  1  0
 26 21  2  0
 27 28  1  0
 28 29  1  0
 29 30  2  0
 31 30  1  0
 31 35  1  0
 32 31  2  0
 33 28  2  0
 33 32  1  0
 34 33  1  0
 36 37  1  0
 37 40  1  0
 37 39  1  0
 38 36  2  0
 41 42  1  0
 41 16  1  0
 43 41  1  0
 44 45  2  0
 44  4  1  0
 46 45  1  0
 46 47  1  0
 48 59  2  0
 49 47  1  0
 49 54  1  0
 50 58  1  0
 50 60  1  0
 51 57  1  0
 51 53  1  0
 52 58  1  0
 53 54  2  0
 53 52  1  0
 55 49  2  0
 56 55  1  0
 56 51  2  0
 57 50  1  0
 58 48  1  0
 60 62  2  0
 61 60  1  0
 63 61  1  0
 64 73  2  0
 64 69  1  0
 65 61  1  0
 65 69  1  0
 66 65  1  0
 67 68  1  0
 67 66  1  0
 68 64  1  0
 69 70  2  0
 70 71  1  0
 72 71  2  0
 73 72  1  0
 74 48  1  0
 74 75  1  0
 74 84  1  0
 75 78  1  0
 76 80  1  0
 76 75  1  0
 77 76  2  0
 80 79  1  0
 82 80  1  0
 82 83  1  0
 82 81  1  0
 84 87  1  1
 84 85  1  0
 86 84  1  0
 88  2  1  0
 89 90  1  0
 90 88  1  0
M  ISO  4   7 100   8 100  46 101  47 101
M  END
>  <TORSDO>  (23) 
F 21

>  <SCORE>  (23) 
-13.221

>  <name>  (23) 
22

>  <ligand_id>  (23) 
22

>  <original_smiles>  (23) 
[H]C(C(=O)N1C([H])([H])C([H])([H])C([H])([H])C([H])(n2nc(-c3c([H])c([H])c(Oc4c([H])c([H])c(F)c([H])c4F)c([H])c3[H])c(C(=O)N([H])[H])c2N([H])[H])C1([H])[H])=C([H])c1sc(C([H])=C([H])C([H])([H])Oc2c([H])c([H])c3c(c2[H])C([H])([H])N(C(=O)C([H])(N([H])C(=O)C([H])(N([H])C([H])([H])[H])C([H])([H])[H])C(C([H])([H])[H])(C([H])([H])[H])C([H])([H])[H])C([H])(C(=O)N([H])C2([H])c4c([H])c([H])c([H])c([H])c4C([H])([H])C([H])([H])C2([H])[H])C3([H])[H])c(OC([H])([H])C([H])([H])[H])c1[H]

>  <smiles>  (23) 
[H]C(C(=O)N1C([H])([H])C([H])([H])C([H])([H])C([H])(n2nc(-c3c([H])c([H])c(Oc4c([H])c([H])c(F)c([H])c4F)c([H])c3[H])c(C(=O)N([H])[H])c2N([H])[H])C1([H])[H])=C([H])c1sc(C([H])=C([H])C([H])([H])Oc2c([H])c([H])c3c(c2[H])C([H])([H])N(C(=O)C([H])(N([H])C(=O)C([H])(N([H])C([H])([H])[H])C([H])([H])[H])C(C([H])([H])[H])(C([H])([H])[H])C([H])([H])[H])C([H])(C(=O)N([H])C2([H])c4c([H])c([H])c([H])c([H])c4C([H])([H])C([H])([H])C2([H])[H])C3([H])[H])c(OC([H])([H])C([H])([H])[H])c1[H]

$$$$
23:0:0
     RDKit          3D

 94103  0  0  1  0  0  0  0  0999 V2000
  -29.4870  -22.6740   22.1770 C   0  0  0  0  0  0  0  0  0  0  0  0
  -30.2580  -23.9800   22.3020 C   0  0  0  0  0  2  0  0  0  0  0  0
  -30.5610  -24.3180   20.8490 C   0  0  0  0  0  2  0  0  0  0  0  0
  -29.3470  -23.7280   20.1330 C   0  0  0  0  0  3  0  0  0  0  0  0
  -29.1970  -22.3540   20.8910 N   0  0  0  0  0  0  0  0  0  0  0  0
  -29.1970  -22.0220   23.1840 O   0  0  0  0  0  0  0  0  0  0  0  0
  -30.2100  -20.3890   19.4020 C   0  0  0  0  0  3  0  0  0  0  0  0
  -30.4980  -18.9800   19.1660 C   0  0  0  0  0  3  0  0  0  0  0  0
  -29.0060  -19.7640   21.3260 C   0  0  0  0  0  3  0  0  0  0  0  0
  -29.4430  -20.8770   20.5100 C   0  0  0  0  0  0  0  0  0  0  0  0
  -30.0640  -17.8790   19.9970 C   0  0  0  0  0  0  0  0  0  0  0  0
  -29.2950  -18.3590   21.1000 C   0  0  0  0  0  0  0  0  0  0  0  0
  -28.7590  -17.4470   21.9470 F   0  0  0  0  0  0  0  0  0  0  0  0
  -30.9060  -15.2820   19.9180 C   0  0  0  0  0  0  0  0  0  0  0  0
  -30.8020  -12.9140   19.0160 C   0  0  0  0  0  2  0  0  0  0  0  0
  -29.7950  -12.7730   17.8500 C   0  0  0  0  0  2  0  0  0  0  0  0
  -28.3580  -12.5720   18.3710 C   0  0  0  0  0  2  0  0  0  0  0  0
  -27.9950  -13.5030   19.5580 C   0  0  0  0  0  3  0  0  0  0  0  0
  -29.1200  -13.5770   20.6110 C   0  0  0  0  0  2  0  0  0  0  0  0
  -30.3320  -14.0100   19.9040 N   0  0  0  0  0  0  0  0  0  0  0  0
  -32.1300  -15.3460   19.7660 O   0  0  0  0  0  0  0  0  0  0  0  0
  -30.1040  -16.4090   19.5540 N   0  0  0  0  0  0  0  0  0  0  0  0
  -25.6710  -14.0280   20.4920 C   0  0  0  0  0  0  0  0  0  0  0  0
  -24.6360  -13.2260   20.8870 C   0  0  0  0  0  0  0  0  0  0  0  0
  -25.1070  -11.8830   20.7580 C   0  0  0  0  0  0  0  0  0  0  0  0
  -26.7010  -13.1720   20.1420 N   0  0  0  0  0  0  0  0  0  0  0  0
  -26.3760  -11.8730   20.3690 N   0  0  0  0  0  0  0  0  0  0  0  0
  -24.4030  -10.6060   20.9270 C   0  0  0  0  0  0  0  0  0  0  0  0
  -24.8160   -9.6560   21.8860 C   0  0  0  0  0  3  0  0  0  0  0  0
  -24.1110   -8.4430   22.0420 C   0  0  0  0  0  3  0  0  0  0  0  0
  -22.9790   -8.1710   21.2380 C   0  0  0  0  0  0  0  0  0  0  0  0
  -22.5870   -9.1100   20.2680 C   0  0  0  0  0  3  0  0  0  0  0  0
  -23.2920  -10.3140   20.1090 C   0  0  0  0  0  3  0  0  0  0  0  0
  -22.2480   -7.0100   21.3030 O   0  0  0  0  0  0  0  0  0  0  0  0
  -22.0190   -6.3700   22.4940 C   0  0  0  0  0  0  0  0  0  0  0  0
  -21.3530   -7.0050   23.5650 C   0  0  0  0  0  3  0  0  0  0  0  0
  -21.0770   -6.2870   24.7470 C   0  0  0  0  0  3  0  0  0  0  0  0
  -21.4560   -4.9350   24.8560 C   0  0  0  0  0  0  0  0  0  0  0  0
  -22.1130   -4.3000   23.7880 C   0  0  0  0  0  3  0  0  0  0  0  0
  -22.3910   -5.0150   22.6090 C   0  0  0  0  0  0  0  0  0  0  0  0
  -23.0060   -4.3920   21.5750 F   0  0  0  0  0  0  0  0  0  0  0  0
  -21.1830   -4.2440   25.9860 F   0  0  0  0  0  0  0  0  0  0  0  0
  -23.2550  -13.6750   21.2670 C   0  0  0  0  0  0  0  0  0  0  0  0
  -22.5930  -12.9370   22.1500 N   0  0  0  0  0  0  0  0  0  0  0  0
  -22.7750  -14.7140   20.8170 O   0  0  0  0  0  0  0  0  0  0  0  0
  -22.9970  -12.0960   22.5370 H   0  0  0  0  0  0  0  0  0  0  0  0
  -21.6690  -13.2170   22.4470 H   0  0  0  0  0  0  0  0  0  0  0  0
  -25.8170  -15.4070   20.3770 N   0  0  0  0  0  0  0  0  0  0  0  0
  -25.0660  -16.0540   20.5900 H   0  0  0  0  0  0  0  0  0  0  0  0
  -26.6650  -15.8680   20.0720 H   0  0  0  0  0  0  0  0  0  0  0  0
  -28.4900  -16.9450   17.7890 C   0  0  0  0  0  2  0  0  0  0  0  0
  -29.5740  -16.2940   18.2530 C   0  0  0  0  0  3  0  0  0  0  0  0
  -28.1810  -24.9380   20.2310 C   0  0  0  0  0  2  0  0  0  0  0  0
  -28.4130  -26.4710   20.1180 O   0  0  0  0  0  0  0  0  0  0  0  0
  -24.6880  -31.9820   23.2690 C   0  0  0  0  0  0  0  0  0  0  0  0
  -27.3220  -27.4070   20.1070 C   0  0  0  0  0  0  0  0  0  0  0  0
  -23.4960  -30.6040   21.6110 C   0  0  0  0  0  3  0  0  0  0  0  0
  -24.9570  -29.0910   20.1380 C   0  0  0  0  0  0  0  0  0  0  0  0
  -26.0400  -30.9270   21.4230 C   0  0  0  0  0  2  0  0  0  0  0  0
  -26.1330  -29.5530   20.7410 C   0  0  0  0  0  0  0  0  0  0  0  0
  -27.3180  -28.7290   20.7060 C   0  0  0  0  0  3  0  0  0  0  0  0
  -26.1160  -27.0420   19.4700 C   0  0  0  0  0  3  0  0  0  0  0  0
  -24.9590  -27.8490   19.4870 C   0  0  0  0  0  3  0  0  0  0  0  0
  -23.7130  -29.9620   20.2160 C   0  0  0  0  0  2  0  0  0  0  0  0
  -24.7620  -31.1910   22.1570 N   0  0  0  0  0  0  0  0  0  0  0  0
  -23.6040  -32.2340   23.8150 O   0  0  0  0  0  0  0  0  0  0  0  0
  -22.8470  -29.5610   22.5560 C   0  0  0  0  0  0  0  0  0  0  0  0
  -21.5300  -29.3340   22.4040 N   0  0  0  0  0  0  0  0  0  0  0  0
  -23.5310  -28.9600   23.3870 O   0  0  0  0  0  0  0  0  0  0  0  0
  -21.0330  -29.8720   21.7080 H   0  0  0  0  0  0  0  0  0  0  0  0
  -18.1930  -27.9970   22.8450 C   0  0  0  0  0  0  0  0  0  0  0  0
  -20.7350  -28.3590   23.1560 C   0  0  0  0  0  3  0  0  0  0  0  0
  -20.9030  -26.9360   22.5730 C   0  0  0  0  0  2  0  0  0  0  0  0
  -19.8300  -26.5770   21.5390 C   0  0  0  0  0  2  0  0  0  0  0  0
  -18.4340  -26.6610   22.1620 C   0  0  0  0  0  2  0  0  0  0  0  0
  -19.2730  -28.8000   23.2970 C   0  0  0  0  0  0  0  0  0  0  0  0
  -18.9920  -30.0470   23.8970 C   0  0  0  0  0  3  0  0  0  0  0  0
  -17.6660  -30.4920   24.0490 C   0  0  0  0  0  3  0  0  0  0  0  0
  -16.6000  -29.6870   23.6120 C   0  0  0  0  0  3  0  0  0  0  0  0
  -16.8650  -28.4410   23.0160 C   0  0  0  0  0  3  0  0  0  0  0  0
  -25.9620  -32.6240   23.8990 C   0  0  0  0  0  3  0  0  0  0  0  0
  -26.4720  -31.8600   25.1830 C   0  0  1  0  0  0  0  0  0  0  0  0
  -25.3710  -31.6140   26.2400 C   0  0  0  0  0  1  0  0  0  0  0  0
  -27.0720  -30.4860   24.8020 C   0  0  0  0  0  1  0  0  0  0  0  0
  -27.6100  -32.6660   25.8540 C   0  0  0  0  0  1  0  0  0  0  0  0
  -25.6410  -34.0220   24.2290 N   0  0  0  0  0  0  0  0  0  0  0  0
  -25.9490  -35.0780   23.4630 C   0  0  0  0  0  0  0  0  0  0  0  0
  -26.6000  -34.9780   22.4190 O   0  0  0  0  0  0  0  0  0  0  0  0
  -25.0590  -34.1720   25.0400 H   0  0  0  0  0  0  0  0  0  0  0  0
  -24.1900  -36.8500   23.1530 C   0  0  0  0  0  1  0  0  0  0  0  0
  -25.4600  -36.4630   23.9280 C   0  0  0  0  0  3  0  0  0  0  0  0
  -27.6020  -37.3870   24.6960 C   0  0  0  0  0  1  0  0  0  0  0  0
  -26.4760  -37.5280   23.7780 N   0  0  0  0  0  0  0  0  0  0  0  0
  -26.0620  -38.4450   23.9220 H   0  0  0  0  0  0  0  0  0  0  0  0
  1  2  1  0
  1  6  2  0
  3  2  1  0
  4 53  1  0
  4  3  1  0
  4  5  1  0
  5  1  1  0
  7 10  1  0
  8  7  2  0
  8 11  1  0
 10  5  1  0
 10  9  2  0
 11 12  2  0
 12  9  1  0
 12 13  1  0
 15 20  1  0
 16 17  1  0
 16 15  1  0
 18 17  1  0
 18 26  1  0
 18 19  1  0
 20 14  1  0
 20 19  1  0
 21 14  2  0
 22 14  1  0
 22 11  1  0
 23 24  2  0
 24 43  1  0
 25 24  1  0
 25 28  1  0
 26 27  1  0
 26 23  1  0
 27 25  2  0
 28 29  1  0
 29 30  2  0
 31 34  1  0
 31 30  1  0
 32 31  2  0
 33 32  1  0
 33 28  2  0
 34 35  1  0
 35 40  2  0
 35 36  1  0
 36 37  2  0
 37 38  1  0
 38 42  1  0
 39 38  2  0
 40 39  1  0
 41 40  1  0
 43 44  1  0
 44 47  1  0
 44 46  1  0
 45 43  2  0
 48 23  1  0
 48 49  1  0
 50 48  1  0
 51 52  2  0
 52 22  1  0
 54 53  1  0
 55 66  2  0
 56 54  1  0
 56 61  1  0
 57 65  1  0
 57 67  1  0
 58 64  1  0
 58 60  1  0
 59 65  1  0
 60 59  1  0
 61 60  2  0
 62 63  1  0
 62 56  2  0
 63 58  2  0
 64 57  1  0
 65 55  1  0
 67 69  2  0
 68 67  1  0
 70 68  1  0
 71 80  2  0
 71 76  1  0
 72 68  1  0
 72 76  1  0
 73 72  1  0
 74 75  1  0
 74 73  1  0
 75 71  1  0
 76 77  2  0
 77 78  1  0
 79 78  2  0
 80 79  1  0
 81 55  1  0
 81 86  1  0
 81 82  1  0
 82 85  1  1
 82 83  1  0
 84 82  1  0
 86 89  1  0
 87 91  1  0
 87 86  1  0
 88 87  2  0
 91 90  1  0
 93 94  1  0
 93 91  1  0
 93 92  1  0
M  ISO  4  14 100  22 100  53 101  54 101
M  END
>  <TORSDO>  (24) 
F 19

>  <SCORE>  (24) 
-11.150

>  <name>  (24) 
23

>  <ligand_id>  (24) 
23

>  <original_smiles>  (24) 
[H]C([H])=C([H])N(C(=O)N1C([H])([H])C([H])([H])C([H])([H])C([H])(n2nc(-c3c([H])c([H])c(Oc4c([H])c([H])c(F)c([H])c4F)c([H])c3[H])c(C(=O)N([H])[H])c2N([H])[H])C1([H])[H])c1c([H])c([H])c(N2C(=O)C([H])([H])C([H])([H])C2([H])C([H])([H])Oc2c([H])c([H])c3c(c2[H])C([H])([H])N(C(=O)C([H])(N([H])C(=O)C([H])(N([H])C([H])([H])[H])C([H])([H])[H])C(C([H])([H])[H])(C([H])([H])[H])C([H])([H])[H])C([H])(C(=O)N([H])C2([H])c4c([H])c([H])c([H])c([H])c4C([H])([H])C([H])([H])C2([H])[H])C3([H])[H])c([H])c1F

>  <smiles>  (24) 
[H]C([H])=C([H])N(C(=O)N1C([H])([H])C([H])([H])C([H])([H])C([H])(n2nc(-c3c([H])c([H])c(Oc4c([H])c([H])c(F)c([H])c4F)c([H])c3[H])c(C(=O)N([H])[H])c2N([H])[H])C1([H])[H])c1c([H])c([H])c(N2C(=O)C([H])([H])C([H])([H])C2([H])C([H])([H])Oc2c([H])c([H])c3c(c2[H])C([H])([H])N(C(=O)C([H])(N([H])C(=O)C([H])(N([H])C([H])([H])[H])C([H])([H])[H])C(C([H])([H])[H])(C([H])([H])[H])C([H])([H])[H])C([H])(C(=O)N([H])C2([H])c4c([H])c([H])c([H])c([H])c4C([H])([H])C([H])([H])C2([H])[H])C3([H])[H])c([H])c1F

$$$$
24:0:0
     RDKit          3D

 92100  0  0  1  0  0  0  0  0999 V2000
  -30.6460  -17.9080   18.7250 C   0  0  0  0  0  3  0  0  0  0  0  0
  -30.4220  -20.2340   17.9960 C   0  0  0  0  0  3  0  0  0  0  0  0
  -30.3690  -18.2570   20.0630 C   0  0  0  0  0  0  0  0  0  0  0  0
  -30.1200  -19.6570   20.3440 C   0  0  0  0  0  0  0  0  0  0  0  0
  -30.1490  -20.6630   19.3160 C   0  0  0  0  0  0  0  0  0  0  0  0
  -30.6680  -18.8790   17.7070 C   0  0  0  0  0  0  0  0  0  0  0  0
  -30.9310  -18.5030   16.4320 F   0  0  0  0  0  0  0  0  0  0  0  0
  -30.3250  -17.1960   21.1430 C   0  0  0  0  0  3  0  0  0  0  0  0
  -30.6310  -15.8650   21.2880 C   0  0  0  0  0  3  0  0  0  0  0  0
  -31.2180  -14.8730   20.3700 C   0  0  0  0  0  0  0  0  0  0  0  0
  -30.9580  -12.6240   19.3330 C   0  0  0  0  0  2  0  0  0  0  0  0
  -30.0310  -12.7020   18.0980 C   0  0  0  0  0  2  0  0  0  0  0  0
  -28.5500  -12.5850   18.5080 C   0  0  0  0  0  2  0  0  0  0  0  0
  -28.1900  -13.5250   19.6910 C   0  0  0  0  0  3  0  0  0  0  0  0
  -29.2170  -13.3810   20.8320 C   0  0  0  0  0  2  0  0  0  0  0  0
  -30.5540  -13.6790   20.2830 N   0  0  0  0  0  0  0  0  0  0  0  0
  -32.2830  -15.0560   19.7720 O   0  0  0  0  0  0  0  0  0  0  0  0
  -25.8210  -14.2200   20.4110 C   0  0  0  0  0  0  0  0  0  0  0  0
  -24.7170  -13.4890   20.7570 C   0  0  0  0  0  0  0  0  0  0  0  0
  -25.1160  -12.1180   20.6940 C   0  0  0  0  0  0  0  0  0  0  0  0
  -26.8250  -13.2970   20.1600 N   0  0  0  0  0  0  0  0  0  0  0  0
  -26.4040  -12.0260   20.3880 N   0  0  0  0  0  0  0  0  0  0  0  0
  -24.3310  -10.8860   20.8520 C   0  0  0  0  0  0  0  0  0  0  0  0
  -24.7150   -9.8780   21.7630 C   0  0  0  0  0  3  0  0  0  0  0  0
  -23.9330   -8.7110   21.9100 C   0  0  0  0  0  3  0  0  0  0  0  0
  -22.7540   -8.5450   21.1440 C   0  0  0  0  0  0  0  0  0  0  0  0
  -22.3900   -9.5430   20.2210 C   0  0  0  0  0  3  0  0  0  0  0  0
  -23.1720  -10.7010   20.0730 C   0  0  0  0  0  3  0  0  0  0  0  0
  -21.9490   -7.4340   21.2010 O   0  0  0  0  0  0  0  0  0  0  0  0
  -21.8530   -6.6710   22.3380 C   0  0  0  0  0  0  0  0  0  0  0  0
  -21.4280   -7.2180   23.5670 C   0  0  0  0  0  3  0  0  0  0  0  0
  -21.2740   -6.3840   24.6930 C   0  0  0  0  0  3  0  0  0  0  0  0
  -21.5400   -5.0050   24.5900 C   0  0  0  0  0  0  0  0  0  0  0  0
  -21.9580   -4.4580   23.3650 C   0  0  0  0  0  3  0  0  0  0  0  0
  -22.1120   -5.2890   22.2410 C   0  0  0  0  0  0  0  0  0  0  0  0
  -22.4940   -4.7520   21.0570 F   0  0  0  0  0  0  0  0  0  0  0  0
  -21.3880   -4.2020   25.6710 F   0  0  0  0  0  0  0  0  0  0  0  0
  -23.3410  -14.0220   21.0380 C   0  0  0  0  0  0  0  0  0  0  0  0
  -22.5830  -13.3440   21.8910 N   0  0  0  0  0  0  0  0  0  0  0  0
  -22.9490  -15.0750   20.5350 O   0  0  0  0  0  0  0  0  0  0  0  0
  -22.9120  -12.4920   22.3190 H   0  0  0  0  0  0  0  0  0  0  0  0
  -21.6600  -13.6840   22.1200 H   0  0  0  0  0  0  0  0  0  0  0  0
  -26.0500  -15.5850   20.2700 N   0  0  0  0  0  0  0  0  0  0  0  0
  -25.3250  -16.2790   20.4130 H   0  0  0  0  0  0  0  0  0  0  0  0
  -26.9380  -15.9870   19.9990 H   0  0  0  0  0  0  0  0  0  0  0  0
  -28.2790  -20.2250   22.0090 C   0  0  0  0  0  1  0  0  0  0  0  0
  -29.7920  -20.1250   21.7630 C   0  0  0  0  0  2  0  0  0  0  0  0
  -29.9150  -22.0150   19.6350 O   0  0  0  0  0  0  0  0  0  0  0  0
  -30.0010  -23.0490   18.6150 C   0  0  0  0  0  2  0  0  0  0  0  0
  -29.7880  -24.5020   19.1200 C   0  0  0  0  0  3  0  0  0  0  0  0
  -28.9980  -25.4530   18.5390 C   0  0  0  0  0  3  0  0  0  0  0  0
  -28.9000  -26.7840   18.9580 O   0  0  0  0  0  0  0  0  0  0  0  0
  -24.7740  -31.2550   22.7730 C   0  0  0  0  0  0  0  0  0  0  0  0
  -27.6700  -27.4410   19.0530 C   0  0  0  0  0  0  0  0  0  0  0  0
  -23.6270  -29.9360   21.0270 C   0  0  0  0  0  3  0  0  0  0  0  0
  -25.1430  -28.7320   19.3610 C   0  0  0  0  0  0  0  0  0  0  0  0
  -26.1010  -30.5570   20.7720 C   0  0  0  0  0  2  0  0  0  0  0  0
  -26.2830  -29.2840   19.9590 C   0  0  0  0  0  0  0  0  0  0  0  0
  -27.5440  -28.6460   19.8020 C   0  0  0  0  0  3  0  0  0  0  0  0
  -26.4950  -26.9180   18.4630 C   0  0  0  0  0  3  0  0  0  0  0  0
  -25.2490  -27.5510   18.6120 C   0  0  0  0  0  3  0  0  0  0  0  0
  -23.8270  -29.4510   19.5670 C   0  0  0  0  0  2  0  0  0  0  0  0
  -24.8540  -30.5950   21.5820 N   0  0  0  0  0  0  0  0  0  0  0  0
  -23.7010  -31.3480   23.3850 O   0  0  0  0  0  0  0  0  0  0  0  0
  -23.1310  -28.7480   21.8830 C   0  0  0  0  0  0  0  0  0  0  0  0
  -21.8300  -28.4250   21.7710 N   0  0  0  0  0  0  0  0  0  0  0  0
  -23.9100  -28.1220   22.6060 O   0  0  0  0  0  0  0  0  0  0  0  0
  -21.2530  -28.9900   21.1640 H   0  0  0  0  0  0  0  0  0  0  0  0
  -18.6490  -26.7560   22.1800 C   0  0  0  0  0  0  0  0  0  0  0  0
  -21.1570  -27.3170   22.4510 C   0  0  0  0  0  3  0  0  0  0  0  0
  -21.4300  -25.9750   21.7340 C   0  0  0  0  0  2  0  0  0  0  0  0
  -20.3560  -25.6120   20.7040 C   0  0  0  0  0  2  0  0  0  0  0  0
  -18.9810  -25.5130   21.3710 C   0  0  0  0  0  2  0  0  0  0  0  0
  -19.6690  -27.6110   22.6740 C   0  0  0  0  0  0  0  0  0  0  0  0
  -19.3050  -28.7720   23.3900 C   0  0  0  0  0  3  0  0  0  0  0  0
  -17.9510  -29.0820   23.6160 C   0  0  0  0  0  3  0  0  0  0  0  0
  -16.9440  -28.2250   23.1400 C   0  0  0  0  0  3  0  0  0  0  0  0
  -17.2940  -27.0630   22.4270 C   0  0  0  0  0  3  0  0  0  0  0  0
  -26.0210  -31.9440   23.4080 C   0  0  0  0  0  3  0  0  0  0  0  0
  -25.5810  -33.2320   23.9620 N   0  0  0  0  0  0  0  0  0  0  0  0
  -25.7610  -34.4190   23.3650 C   0  0  0  0  0  0  0  0  0  0  0  0
  -26.3860  -34.5470   22.3090 O   0  0  0  0  0  0  0  0  0  0  0  0
  -25.0160  -33.1970   24.7980 H   0  0  0  0  0  0  0  0  0  0  0  0
  -23.8360  -36.0380   23.3480 C   0  0  0  0  0  1  0  0  0  0  0  0
  -25.1510  -35.6590   24.0480 C   0  0  0  0  0  3  0  0  0  0  0  0
  -27.2150  -36.6420   24.9400 C   0  0  0  0  0  1  0  0  0  0  0  0
  -26.0580  -36.8260   24.0670 N   0  0  0  0  0  0  0  0  0  0  0  0
  -25.5640  -37.6610   24.3700 H   0  0  0  0  0  0  0  0  0  0  0  0
  -26.7120  -31.0680   24.5240 C   0  0  1  0  0  0  0  0  0  0  0  0
  -25.7350  -30.5560   25.6090 C   0  0  0  0  0  1  0  0  0  0  0  0
  -27.4100  -29.8370   23.9010 C   0  0  0  0  0  1  0  0  0  0  0  0
  -27.8150  -31.8920   25.2280 C   0  0  0  0  0  1  0  0  0  0  0  0
  1  3  1  0
  2  5  2  0
  3  4  2  0
  3  8  1  0
  4 47  1  0
  5 48  1  0
  5  4  1  0
  6  2  1  0
  6  1  2  0
  7  6  1  0
  8  9  2  0
 10  9  1  0
 11 16  1  0
 12 13  1  0
 12 11  1  0
 14 13  1  0
 14 21  1  0
 14 15  1  0
 16 10  1  0
 16 15  1  0
 17 10  2  0
 18 19  2  0
 19 38  1  0
 20 19  1  0
 20 23  1  0
 21 22  1  0
 21 18  1  0
 22 20  2  0
 23 24  1  0
 24 25  2  0
 26 29  1  0
 26 25  1  0
 27 26  2  0
 28 27  1  0
 28 23  2  0
 29 30  1  0
 30 31  1  0
 31 32  2  0
 33 32  1  0
 33 37  1  0
 34 33  2  0
 35 30  2  0
 35 34  1  0
 36 35  1  0
 38 39  1  0
 39 42  1  0
 39 41  1  0
 40 38  2  0
 43 18  1  0
 43 44  1  0
 45 43  1  0
 47 46  1  0
 49 50  1  0
 49 48  1  0
 51 52  1  0
 51 50  2  0
 52 54  1  0
 53 64  2  0
 54 59  1  0
 55 63  1  0
 55 65  1  0
 56 62  1  0
 56 58  1  0
 57 63  1  0
 58 57  1  0
 59 58  2  0
 60 61  1  0
 60 54  2  0
 61 56  2  0
 62 55  1  0
 63 53  1  0
 65 67  2  0
 66 65  1  0
 68 66  1  0
 69 78  2  0
 69 74  1  0
 70 66  1  0
 70 74  1  0
 71 70  1  0
 72 73  1  0
 72 71  1  0
 73 69  1  0
 74 75  2  0
 75 76  1  0
 77 76  2  0
 78 77  1  0
 79 53  1  0
 79 80  1  0
 79 89  1  0
 80 83  1  0
 81 80  1  0
 81 85  1  0
 82 81  2  0
 85 84  1  0
 85 87  1  0
 87 88  1  0
 87 86  1  0
 89 92  1  1
 89 90  1  0
 91 89  1  0
M  ISO  4   9 100  10 100  51 101  52 101
M  END
>  <TORSDO>  (25) 
F 21

>  <SCORE>  (25) 
-8.765

>  <name>  (25) 
24

>  <ligand_id>  (25) 
24

>  <original_smiles>  (25) 
[H]C(Oc1c([H])c([H])c2c(c1[H])C([H])([H])N(C(=O)C([H])(N([H])C(=O)C([H])(N([H])C([H])([H])[H])C([H])([H])[H])C(C([H])([H])[H])(C([H])([H])[H])C([H])([H])[H])C([H])(C(=O)N([H])C1([H])c3c([H])c([H])c([H])c([H])c3C([H])([H])C([H])([H])C1([H])[H])C2([H])[H])=C([H])C([H])([H])Oc1c([H])c(F)c([H])c(C([H])=C([H])C(=O)N2C([H])([H])C([H])([H])C([H])([H])C([H])(n3nc(-c4c([H])c([H])c(Oc5c([H])c([H])c(F)c([H])c5F)c([H])c4[H])c(C(=O)N([H])[H])c3N([H])[H])C2([H])[H])c1C([H])([H])C([H])([H])[H]

>  <smiles>  (25) 
[H]C(Oc1c([H])c([H])c2c(c1[H])C([H])([H])N(C(=O)C([H])(N([H])C(=O)C([H])(N([H])C([H])([H])[H])C([H])([H])[H])C(C([H])([H])[H])(C([H])([H])[H])C([H])([H])[H])C([H])(C(=O)N([H])C1([H])c3c([H])c([H])c([H])c([H])c3C([H])([H])C([H])([H])C1([H])[H])C2([H])[H])=C([H])C([H])([H])Oc1c([H])c(F)c([H])c(C([H])=C([H])C(=O)N2C([H])([H])C([H])([H])C([H])([H])C([H])(n3nc(-c4c([H])c([H])c(Oc5c([H])c([H])c(F)c([H])c5F)c([H])c4[H])c(C(=O)N([H])[H])c3N([H])[H])C2([H])[H])c1C([H])([H])C([H])([H])[H]

$$$$
25:0:0
     RDKit          3D

 91 99  0  0  1  0  0  0  0  0999 V2000
  -27.9450  -17.0570   21.3090 C   0  0  0  0  0  3  0  0  0  0  0  0
  -27.7090  -19.4520   20.9250 C   0  0  0  0  0  3  0  0  0  0  0  0
  -29.8870  -18.3740   20.6810 C   0  0  0  0  0  3  0  0  0  0  0  0
  -27.1430  -18.2140   21.2820 C   0  0  0  0  0  0  0  0  0  0  0  0
  -29.3190  -17.0590   20.9920 C   0  0  0  0  0  0  0  0  0  0  0  0
  -29.0890  -19.6110   20.6570 C   0  0  0  0  0  0  0  0  0  0  0  0
  -30.5920  -14.7490   20.5320 C   0  0  0  0  0  0  0  0  0  0  0  0
  -30.4490  -12.4700   19.4800 C   0  0  0  0  0  2  0  0  0  0  0  0
  -29.5210  -12.5380   18.2450 C   0  0  0  0  0  2  0  0  0  0  0  0
  -28.0460  -12.3510   18.6510 C   0  0  0  0  0  2  0  0  0  0  0  0
  -27.6540  -13.2270   19.8690 C   0  0  0  0  0  3  0  0  0  0  0  0
  -28.6960  -13.1130   21.0060 C   0  0  0  0  0  2  0  0  0  0  0  0
  -30.0100  -13.4960   20.4590 N   0  0  0  0  0  0  0  0  0  0  0  0
  -31.6910  -14.9520   20.0070 O   0  0  0  0  0  0  0  0  0  0  0  0
  -29.9300  -15.7230   21.2580 N   0  0  0  0  0  0  0  0  0  0  0  0
  -29.3260  -15.2090   21.8810 H   0  0  0  0  0  0  0  0  0  0  0  0
  -25.2470  -13.8070   20.5490 C   0  0  0  0  0  0  0  0  0  0  0  0
  -24.1800  -13.0370   20.9170 C   0  0  0  0  0  0  0  0  0  0  0  0
  -24.6420  -11.6870   20.8770 C   0  0  0  0  0  0  0  0  0  0  0  0
  -26.2990  -12.9340   20.3320 N   0  0  0  0  0  0  0  0  0  0  0  0
  -25.9370  -11.6490   20.5830 N   0  0  0  0  0  0  0  0  0  0  0  0
  -23.9090  -10.4260   21.0430 C   0  0  0  0  0  0  0  0  0  0  0  0
  -24.3620   -9.4170   21.9200 C   0  0  0  0  0  3  0  0  0  0  0  0
  -23.6290   -8.2220   22.0770 C   0  0  0  0  0  3  0  0  0  0  0  0
  -22.4270   -8.0270   21.3550 C   0  0  0  0  0  0  0  0  0  0  0  0
  -21.9910   -9.0250   20.4660 C   0  0  0  0  0  3  0  0  0  0  0  0
  -22.7260  -10.2120   20.3070 C   0  0  0  0  0  3  0  0  0  0  0  0
  -21.6630   -6.8870   21.4240 O   0  0  0  0  0  0  0  0  0  0  0  0
  -21.6850   -6.0730   22.5280 C   0  0  0  0  0  0  0  0  0  0  0  0
  -21.4010   -6.5630   23.8210 C   0  0  0  0  0  3  0  0  0  0  0  0
  -21.3660   -5.6790   24.9170 C   0  0  0  0  0  3  0  0  0  0  0  0
  -21.6040   -4.3050   24.7230 C   0  0  0  0  0  0  0  0  0  0  0  0
  -21.8820   -3.8140   23.4350 C   0  0  0  0  0  3  0  0  0  0  0  0
  -21.9190   -4.6960   22.3400 C   0  0  0  0  0  0  0  0  0  0  0  0
  -22.1660   -4.2140   21.0980 F   0  0  0  0  0  0  0  0  0  0  0  0
  -21.5630   -3.4540   25.7740 F   0  0  0  0  0  0  0  0  0  0  0  0
  -22.7830  -13.5190   21.1840 C   0  0  0  0  0  0  0  0  0  0  0  0
  -22.0470  -12.8200   22.0410 N   0  0  0  0  0  0  0  0  0  0  0  0
  -22.3520  -14.5500   20.6690 O   0  0  0  0  0  0  0  0  0  0  0  0
  -22.4080  -11.9860   22.4810 H   0  0  0  0  0  0  0  0  0  0  0  0
  -21.1100  -13.1260   22.2630 H   0  0  0  0  0  0  0  0  0  0  0  0
  -25.3970  -15.1710   20.3490 N   0  0  0  0  0  0  0  0  0  0  0  0
  -24.6090  -15.8060   20.4120 H   0  0  0  0  0  0  0  0  0  0  0  0
  -26.2170  -15.6020   19.9440 H   0  0  0  0  0  0  0  0  0  0  0  0
  -24.7510  -18.9990   21.3880 C   0  0  0  0  0  2  0  0  0  0  0  0
  -25.7150  -18.0940   21.6290 C   0  0  0  0  0  3  0  0  0  0  0  0
  -29.5880  -20.9400   20.4270 O   0  0  0  0  0  0  0  0  0  0  0  0
  -28.6740  -22.1440   20.4160 C   0  0  0  0  0  3  0  0  0  0  0  0
  -29.1700  -23.6920   20.3120 C   0  0  0  0  0  3  0  0  0  0  0  0
  -28.0590  -24.8640   20.1050 C   0  0  0  0  0  2  0  0  0  0  0  0
  -28.3270  -26.3510   20.1800 O   0  0  0  0  0  0  0  0  0  0  0  0
  -24.6330  -31.8540   23.1980 C   0  0  0  0  0  0  0  0  0  0  0  0
  -27.2290  -27.2520   20.1280 C   0  0  0  0  0  0  0  0  0  0  0  0
  -23.4310  -30.4770   21.5410 C   0  0  0  0  0  3  0  0  0  0  0  0
  -24.8800  -28.9230   20.1130 C   0  0  0  0  0  0  0  0  0  0  0  0
  -25.9790  -30.7650   21.3790 C   0  0  0  0  0  2  0  0  0  0  0  0
  -26.0540  -29.3870   20.7200 C   0  0  0  0  0  0  0  0  0  0  0  0
  -27.2300  -28.5660   20.7130 C   0  0  0  0  0  3  0  0  0  0  0  0
  -26.0250  -26.8600   19.4960 C   0  0  0  0  0  3  0  0  0  0  0  0
  -24.8720  -27.6680   19.4890 C   0  0  0  0  0  3  0  0  0  0  0  0
  -23.6510  -29.8110   20.1580 C   0  0  0  0  0  2  0  0  0  0  0  0
  -24.7010  -31.0500   22.0960 N   0  0  0  0  0  0  0  0  0  0  0  0
  -23.5480  -32.1370   23.7260 O   0  0  0  0  0  0  0  0  0  0  0  0
  -22.7520  -29.4600   22.4910 C   0  0  0  0  0  0  0  0  0  0  0  0
  -21.4220  -29.3050   22.3650 N   0  0  0  0  0  0  0  0  0  0  0  0
  -23.4210  -28.8140   23.3010 O   0  0  0  0  0  0  0  0  0  0  0  0
  -20.9420  -29.8770   21.6850 H   0  0  0  0  0  0  0  0  0  0  0  0
  -18.0290  -28.1390   22.8480 C   0  0  0  0  0  0  0  0  0  0  0  0
  -20.5900  -28.3710   23.1260 C   0  0  0  0  0  3  0  0  0  0  0  0
  -20.6780  -26.9420   22.5410 C   0  0  0  0  0  2  0  0  0  0  0  0
  -19.5760  -26.6380   21.5210 C   0  0  0  0  0  2  0  0  0  0  0  0
  -18.1940  -26.7930   22.1630 C   0  0  0  0  0  2  0  0  0  0  0  0
  -19.1550  -28.8870   23.2870 C   0  0  0  0  0  0  0  0  0  0  0  0
  -18.9470  -30.1460   23.8890 C   0  0  0  0  0  3  0  0  0  0  0  0
  -17.6470  -30.6590   24.0560 C   0  0  0  0  0  3  0  0  0  0  0  0
  -16.5360  -29.9090   23.6330 C   0  0  0  0  0  3  0  0  0  0  0  0
  -16.7280  -28.6510   23.0350 C   0  0  0  0  0  3  0  0  0  0  0  0
  -25.9150  -32.4750   23.8330 C   0  0  0  0  0  3  0  0  0  0  0  0
  -25.5940  -33.8550   24.2250 N   0  0  0  0  0  0  0  0  0  0  0  0
  -25.9060  -34.9440   23.5090 C   0  0  0  0  0  0  0  0  0  0  0  0
  -26.5630  -34.8920   22.4660 O   0  0  0  0  0  0  0  0  0  0  0  0
  -25.0080  -33.9690   25.0390 H   0  0  0  0  0  0  0  0  0  0  0  0
  -24.1490  -36.7280   23.2640 C   0  0  0  0  0  1  0  0  0  0  0  0
  -25.4120  -36.3070   24.0320 C   0  0  0  0  0  3  0  0  0  0  0  0
  -27.5580  -37.1800   24.8460 C   0  0  0  0  0  1  0  0  0  0  0  0
  -26.4290  -37.3770   23.9410 N   0  0  0  0  0  0  0  0  0  0  0  0
  -26.0170  -38.2840   24.1410 H   0  0  0  0  0  0  0  0  0  0  0  0
  -26.4510  -31.6580   25.0730 C   0  0  1  0  0  0  0  0  0  0  0  0
  -25.3720  -31.3740   26.1440 C   0  0  0  0  0  1  0  0  0  0  0  0
  -27.0360  -30.3000   24.6230 C   0  0  0  0  0  1  0  0  0  0  0  0
  -27.6060  -32.4330   25.7510 C   0  0  0  0  0  1  0  0  0  0  0  0
  2  4  2  0
  3  5  1  0
  4  1  1  0
  4 46  1  0
  5 15  1  0
  5  1  2  0
  6  3  2  0
  6  2  1  0
  7 15  1  0
  8 13  1  0
  9 10  1  0
  9  8  1  0
 11 10  1  0
 11 20  1  0
 11 12  1  0
 13  7  1  0
 13 12  1  0
 14  7  2  0
 15 16  1  0
 17 18  2  0
 18 37  1  0
 19 18  1  0
 19 22  1  0
 20 17  1  0
 20 21  1  0
 21 19  2  0
 22 23  1  0
 23 24  2  0
 25 28  1  0
 25 24  1  0
 26 25  2  0
 27 26  1  0
 27 22  2  0
 28 29  1  0
 29 30  1  0
 30 31  2  0
 32 31  1  0
 32 36  1  0
 33 32  2  0
 34 29  2  0
 34 33  1  0
 35 34  1  0
 37 38  1  0
 38 41  1  0
 38 40  1  0
 39 37  2  0
 42 43  1  0
 42 17  1  0
 44 42  1  0
 45 46  2  0
 47  6  1  0
 48 47  1  0
 49 48  2  0
 50 51  1  0
 50 49  1  0
 52 63  2  0
 53 51  1  0
 53 58  1  0
 54 62  1  0
 54 64  1  0
 55 61  1  0
 55 57  1  0
 56 62  1  0
 57 56  1  0
 58 57  2  0
 59 53  2  0
 60 59  1  0
 60 55  2  0
 61 54  1  0
 62 52  1  0
 64 66  2  0
 65 64  1  0
 67 65  1  0
 68 77  2  0
 68 73  1  0
 69 65  1  0
 69 73  1  0
 70 69  1  0
 71 72  1  0
 71 70  1  0
 72 68  1  0
 73 74  2  0
 74 75  1  0
 76 75  2  0
 77 76  1  0
 78 52  1  0
 78 79  1  0
 78 88  1  0
 79 82  1  0
 80 84  1  0
 80 79  1  0
 81 80  2  0
 84 83  1  0
 86 84  1  0
 86 87  1  0
 86 85  1  0
 88 91  1  1
 88 89  1  0
 90 88  1  0
M  ISO  4   7 100  15 100  50 101  51 101
M  END
>  <TORSDO>  (26) 
F 21

>  <SCORE>  (26) 
0.888

>  <name>  (26) 
25

>  <ligand_id>  (26) 
25

>  <original_smiles>  (26) 
[H]C([H])=C([H])c1c([H])c(OC([H])([H])C([H])([H])C([H])([H])Oc2c([H])c([H])c3c(c2[H])C([H])([H])N(C(=O)C([H])(N([H])C(=O)C([H])(N([H])C([H])([H])[H])C([H])([H])[H])C(C([H])([H])[H])(C([H])([H])[H])C([H])([H])[H])C([H])(C(=O)N([H])C2([H])c4c([H])c([H])c([H])c([H])c4C([H])([H])C([H])([H])C2([H])[H])C3([H])[H])c([H])c(N([H])C(=O)N2C([H])([H])C([H])([H])C([H])([H])C([H])(n3nc(-c4c([H])c([H])c(Oc5c([H])c([H])c(F)c([H])c5F)c([H])c4[H])c(C(=O)N([H])[H])c3N([H])[H])C2([H])[H])c1[H]

>  <smiles>  (26) 
[H]C([H])=C([H])c1c([H])c(OC([H])([H])C([H])([H])C([H])([H])Oc2c([H])c([H])c3c(c2[H])C([H])([H])N(C(=O)C([H])(N([H])C(=O)C([H])(N([H])C([H])([H])[H])C([H])([H])[H])C(C([H])([H])[H])(C([H])([H])[H])C([H])([H])[H])C([H])(C(=O)N([H])C2([H])c4c([H])c([H])c([H])c([H])c4C([H])([H])C([H])([H])C2([H])[H])C3([H])[H])c([H])c(N([H])C(=O)N2C([H])([H])C([H])([H])C([H])([H])C([H])(n3nc(-c4c([H])c([H])c(Oc5c([H])c([H])c(F)c([H])c5F)c([H])c4[H])c(C(=O)N([H])[H])c3N([H])[H])C2([H])[H])c1[H]

$$$$
26:0:0
     RDKit          3D

 93101  0  0  1  0  0  0  0  0999 V2000
  -30.0760  -19.1280   19.5790 C   0  0  0  0  0  3  0  0  0  0  0  0
  -30.8770  -17.7210   21.8570 C   0  0  0  0  0  3  0  0  0  0  0  0
  -30.0580  -17.7040   19.5620 C   0  0  0  0  0  0  0  0  0  0  0  0
  -30.8720  -19.1340   21.8640 C   0  0  0  0  0  0  0  0  0  0  0  0
  -30.4930  -16.9860   20.7150 C   0  0  0  0  0  0  0  0  0  0  0  0
  -30.4710  -19.8650   20.7230 C   0  0  0  0  0  0  0  0  0  0  0  0
  -31.2960  -19.8760   23.1200 C   0  0  0  0  0  1  0  0  0  0  0  0
  -31.1210  -14.5870   20.2340 C   0  0  0  0  0  0  0  0  0  0  0  0
  -30.7860  -12.4460   19.0440 C   0  0  0  0  0  2  0  0  0  0  0  0
  -29.8230  -12.6910   17.8620 C   0  0  0  0  0  2  0  0  0  0  0  0
  -28.3500  -12.6010   18.3130 C   0  0  0  0  0  2  0  0  0  0  0  0
  -28.0630  -13.4180   19.6010 C   0  0  0  0  0  3  0  0  0  0  0  0
  -29.1250  -13.1130   20.6810 C   0  0  0  0  0  2  0  0  0  0  0  0
  -30.4520  -13.4080   20.1080 N   0  0  0  0  0  0  0  0  0  0  0  0
  -32.2350  -14.7840   19.7360 O   0  0  0  0  0  0  0  0  0  0  0  0
  -30.4200  -15.5580   20.8560 N   0  0  0  0  0  0  0  0  0  0  0  0
  -29.6310  -15.2190   21.3850 H   0  0  0  0  0  0  0  0  0  0  0  0
  -25.6930  -14.0990   20.3390 C   0  0  0  0  0  0  0  0  0  0  0  0
  -24.6060  -13.3610   20.7240 C   0  0  0  0  0  0  0  0  0  0  0  0
  -25.0250  -11.9950   20.6890 C   0  0  0  0  0  0  0  0  0  0  0  0
  -26.7080  -13.1870   20.0960 N   0  0  0  0  0  0  0  0  0  0  0  0
  -26.3100  -11.9160   20.3620 N   0  0  0  0  0  0  0  0  0  0  0  0
  -24.2670  -10.7550   20.8930 C   0  0  0  0  0  0  0  0  0  0  0  0
  -24.6590   -9.7980   21.8560 C   0  0  0  0  0  3  0  0  0  0  0  0
  -23.9030   -8.6220   22.0440 C   0  0  0  0  0  3  0  0  0  0  0  0
  -22.7400   -8.3940   21.2700 C   0  0  0  0  0  0  0  0  0  0  0  0
  -22.3660   -9.3390   20.2980 C   0  0  0  0  0  3  0  0  0  0  0  0
  -23.1220  -10.5080   20.1070 C   0  0  0  0  0  3  0  0  0  0  0  0
  -21.9580   -7.2690   21.3660 O   0  0  0  0  0  0  0  0  0  0  0  0
  -21.8280   -6.5810   22.5450 C   0  0  0  0  0  0  0  0  0  0  0  0
  -21.3290   -7.1960   23.7140 C   0  0  0  0  0  3  0  0  0  0  0  0
  -21.1430   -6.4360   24.8860 C   0  0  0  0  0  3  0  0  0  0  0  0
  -21.4500   -5.0610   24.8900 C   0  0  0  0  0  0  0  0  0  0  0  0
  -21.9430   -4.4460   23.7260 C   0  0  0  0  0  3  0  0  0  0  0  0
  -22.1290   -5.2040   22.5560 C   0  0  0  0  0  0  0  0  0  0  0  0
  -22.5840   -4.6010   21.4310 F   0  0  0  0  0  0  0  0  0  0  0  0
  -21.2650   -4.3280   26.0130 F   0  0  0  0  0  0  0  0  0  0  0  0
  -23.2280  -13.8810   21.0160 C   0  0  0  0  0  0  0  0  0  0  0  0
  -22.4960  -13.2150   21.9030 N   0  0  0  0  0  0  0  0  0  0  0  0
  -22.8090  -14.9120   20.4930 O   0  0  0  0  0  0  0  0  0  0  0  0
  -22.8460  -12.3810   22.3490 H   0  0  0  0  0  0  0  0  0  0  0  0
  -21.5710  -13.5470   22.1370 H   0  0  0  0  0  0  0  0  0  0  0  0
  -25.8990  -15.4640   20.1590 N   0  0  0  0  0  0  0  0  0  0  0  0
  -25.1590  -16.1470   20.2820 H   0  0  0  0  0  0  0  0  0  0  0  0
  -26.7630  -15.8720   19.8240 H   0  0  0  0  0  0  0  0  0  0  0  0
  -29.6190  -17.4880   17.0980 C   0  0  0  0  0  2  0  0  0  0  0  0
  -29.5740  -17.0100   18.3540 C   0  0  0  0  0  3  0  0  0  0  0  0
  -30.4420  -21.2540   20.8380 O   0  0  0  0  0  0  0  0  0  0  0  0
  -30.5670  -22.1180   19.6950 C   0  0  0  0  0  2  0  0  0  0  0  0
  -29.2810  -22.9510   19.4440 C   0  0  0  0  0  2  0  0  0  0  0  0
  -29.1950  -24.2920   20.1790 C   0  0  0  0  0  3  0  0  0  0  0  0
  -28.8380  -25.4610   19.5980 C   0  0  0  0  0  3  0  0  0  0  0  0
  -28.7270  -26.6580   20.2740 O   0  0  0  0  0  0  0  0  0  0  0  0
  -24.7310  -31.7290   23.3070 C   0  0  0  0  0  0  0  0  0  0  0  0
  -27.5340  -27.3630   20.2300 C   0  0  0  0  0  0  0  0  0  0  0  0
  -23.5840  -30.3080   21.6400 C   0  0  0  0  0  3  0  0  0  0  0  0
  -25.0960  -28.8180   20.2250 C   0  0  0  0  0  0  0  0  0  0  0  0
  -26.1050  -30.7280   21.4810 C   0  0  0  0  0  2  0  0  0  0  0  0
  -26.2340  -29.3640   20.8300 C   0  0  0  0  0  0  0  0  0  0  0  0
  -27.4530  -28.6430   20.8300 C   0  0  0  0  0  3  0  0  0  0  0  0
  -26.3660  -26.8290   19.6320 C   0  0  0  0  0  3  0  0  0  0  0  0
  -25.1570  -27.5500   19.6250 C   0  0  0  0  0  3  0  0  0  0  0  0
  -23.8290  -29.6450   20.2600 C   0  0  0  0  0  2  0  0  0  0  0  0
  -24.8230  -30.9370   22.2020 N   0  0  0  0  0  0  0  0  0  0  0  0
  -23.6350  -31.9700   23.8330 O   0  0  0  0  0  0  0  0  0  0  0  0
  -22.9450  -29.2640   22.5840 C   0  0  0  0  0  0  0  0  0  0  0  0
  -21.6360  -29.0190   22.4100 N   0  0  0  0  0  0  0  0  0  0  0  0
  -23.6260  -28.6760   23.4290 O   0  0  0  0  0  0  0  0  0  0  0  0
  -21.1450  -29.5490   21.7030 H   0  0  0  0  0  0  0  0  0  0  0  0
  -18.3160  -27.6370   22.7550 C   0  0  0  0  0  0  0  0  0  0  0  0
  -20.8360  -28.0500   23.1570 C   0  0  0  0  0  3  0  0  0  0  0  0
  -21.0510  -26.6160   22.6200 C   0  0  0  0  0  2  0  0  0  0  0  0
  -20.0270  -26.2090   21.5560 C   0  0  0  0  0  2  0  0  0  0  0  0
  -18.6070  -26.2870   22.1220 C   0  0  0  0  0  2  0  0  0  0  0  0
  -19.3640  -28.4720   23.2280 C   0  0  0  0  0  0  0  0  0  0  0  0
  -19.0410  -29.7320   23.7760 C   0  0  0  0  0  3  0  0  0  0  0  0
  -17.7040  -30.1600   23.8590 C   0  0  0  0  0  3  0  0  0  0  0  0
  -16.6690  -29.3230   23.4070 C   0  0  0  0  0  3  0  0  0  0  0  0
  -16.9750  -28.0640   22.8610 C   0  0  0  0  0  3  0  0  0  0  0  0
  -25.9900  -32.3910   23.9480 C   0  0  0  0  0  3  0  0  0  0  0  0
  -25.6540  -33.7890   24.2450 N   0  0  0  0  0  0  0  0  0  0  0  0
  -25.9720  -34.8310   23.4650 C   0  0  0  0  0  0  0  0  0  0  0  0
  -26.6520  -34.7170   22.4410 O   0  0  0  0  0  0  0  0  0  0  0  0
  -25.0520  -33.9490   25.0390 H   0  0  0  0  0  0  0  0  0  0  0  0
  -24.2030  -36.5740   23.0690 C   0  0  0  0  0  1  0  0  0  0  0  0
  -25.4540  -36.2190   23.8870 C   0  0  0  0  0  3  0  0  0  0  0  0
  -27.5680  -37.1750   24.6930 C   0  0  0  0  0  1  0  0  0  0  0  0
  -26.4620  -37.2920   23.7460 N   0  0  0  0  0  0  0  0  0  0  0  0
  -26.0350  -38.2060   23.8720 H   0  0  0  0  0  0  0  0  0  0  0  0
  -26.4890  -31.6480   25.2480 C   0  0  1  0  0  0  0  0  0  0  0  0
  -25.3760  -31.4110   26.2950 C   0  0  0  0  0  1  0  0  0  0  0  0
  -27.1020  -30.2740   24.8910 C   0  0  0  0  0  1  0  0  0  0  0  0
  -27.6090  -32.4720   25.9250 C   0  0  0  0  0  1  0  0  0  0  0  0
  1  6  1  0
  2  4  1  0
  3  1  2  0
  3  5  1  0
  4  7  1  0
  5 16  1  0
  5  2  2  0
  6 48  1  0
  6  4  2  0
  8 16  1  0
  9 14  1  0
 10 11  1  0
 10  9  1  0
 12 11  1  0
 12 21  1  0
 12 13  1  0
 14  8  1  0
 14 13  1  0
 15  8  2  0
 16 17  1  0
 18 19  2  0
 19 38  1  0
 20 19  1  0
 20 23  1  0
 21 18  1  0
 21 22  1  0
 22 20  2  0
 23 24  1  0
 24 25  2  0
 26 29  1  0
 26 25  1  0
 27 26  2  0
 28 27  1  0
 28 23  2  0
 29 30  1  0
 30 35  2  0
 30 31  1  0
 31 32  2  0
 32 33  1  0
 33 37  1  0
 34 33  2  0
 35 34  1  0
 36 35  1  0
 38 39  1  0
 39 42  1  0
 39 41  1  0
 40 38  2  0
 43 44  1  0
 43 18  1  0
 45 43  1  0
 46 47  2  0
 47  3  1  0
 49 48  1  0
 50 49  1  0
 50 51  1  0
 52 51  2  0
 52 53  1  0
 54 65  2  0
 55 53  1  0
 55 60  1  0
 56 64  1  0
 56 66  1  0
 57 63  1  0
 57 59  1  0
 58 64  1  0
 59 58  1  0
 60 59  2  0
 61 55  2  0
 62 61  1  0
 62 57  2  0
 63 56  1  0
 64 54  1  0
 66 68  2  0
 67 66  1  0
 69 67  1  0
 70 79  2  0
 70 75  1  0
 71 67  1  0
 71 75  1  0
 72 71  1  0
 73 74  1  0
 73 72  1  0
 74 70  1  0
 75 76  2  0
 76 77  1  0
 78 77  2  0
 79 78  1  0
 80 54  1  0
 80 81  1  0
 80 90  1  0
 81 84  1  0
 82 86  1  0
 82 81  1  0
 83 82  2  0
 86 85  1  0
 88 89  1  0
 88 86  1  0
 88 87  1  0
 90 93  1  1
 90 91  1  0
 92 90  1  0
M  ISO  4   8 100  16 100  52 101  53 101
M  END
>  <TORSDO>  (27) 
F 21

>  <SCORE>  (27) 
-12.244

>  <name>  (27) 
26

>  <ligand_id>  (27) 
26

>  <original_smiles>  (27) 
[H]C([H])=C([H])c1c([H])c(OC([H])([H])C([H])([H])C([H])=C([H])Oc2c([H])c([H])c3c(c2[H])C([H])([H])N(C(=O)C([H])(N([H])C(=O)C([H])(N([H])C([H])([H])[H])C([H])([H])[H])C(C([H])([H])[H])(C([H])([H])[H])C([H])([H])[H])C([H])(C(=O)N([H])C2([H])c4c([H])c([H])c([H])c([H])c4C([H])([H])C([H])([H])C2([H])[H])C3([H])[H])c(C([H])([H])[H])c([H])c1N([H])C(=O)N1C([H])([H])C([H])([H])C([H])([H])C([H])(n2nc(-c3c([H])c([H])c(Oc4c([H])c([H])c(F)c([H])c4F)c([H])c3[H])c(C(=O)N([H])[H])c2N([H])[H])C1([H])[H]

>  <smiles>  (27) 
[H]C([H])=C([H])c1c([H])c(OC([H])([H])C([H])([H])C([H])=C([H])Oc2c([H])c([H])c3c(c2[H])C([H])([H])N(C(=O)C([H])(N([H])C(=O)C([H])(N([H])C([H])([H])[H])C([H])([H])[H])C(C([H])([H])[H])(C([H])([H])[H])C([H])([H])[H])C([H])(C(=O)N([H])C2([H])c4c([H])c([H])c([H])c([H])c4C([H])([H])C([H])([H])C2([H])[H])C3([H])[H])c(C([H])([H])[H])c([H])c1N([H])C(=O)N1C([H])([H])C([H])([H])C([H])([H])C([H])(n2nc(-c3c([H])c([H])c(Oc4c([H])c([H])c(F)c([H])c4F)c([H])c3[H])c(C(=O)N([H])[H])c2N([H])[H])C1([H])[H]

$$$$
27:0:0
     RDKit          3D

 89 97  0  0  1  0  0  0  0  0999 V2000
  -28.3960  -19.0430   19.9540 C   0  0  0  0  0  3  0  0  0  0  0  0
  -28.2350  -20.4830   19.8520 C   0  0  0  0  0  0  0  0  0  0  0  0
  -29.6360  -18.7250   20.4540 C   0  0  0  0  0  0  0  0  0  0  0  0
  -29.3790  -21.0820   20.3180 C   0  0  0  0  0  0  0  0  0  0  0  0
  -30.2400  -19.9960   20.6770 O   0  0  0  0  0  0  0  0  0  0  0  0
  -29.8490  -22.5080   20.5030 C   0  0  0  0  0  3  0  0  0  0  0  0
  -29.5360  -23.8850   20.4780 C   0  0  0  0  0  3  0  0  0  0  0  0
  -28.3180  -24.8800   20.1640 C   0  0  0  0  0  2  0  0  0  0  0  0
  -28.5150  -26.3890   20.3520 O   0  0  0  0  0  0  0  0  0  0  0  0
  -24.5720  -31.8580   23.1960 C   0  0  0  0  0  0  0  0  0  0  0  0
  -27.4170  -27.2980   20.2480 C   0  0  0  0  0  0  0  0  0  0  0  0
  -23.4890  -30.4640   21.4750 C   0  0  0  0  0  3  0  0  0  0  0  0
  -25.0470  -28.9480   20.1130 C   0  0  0  0  0  0  0  0  0  0  0  0
  -26.0380  -30.8030   21.4450 C   0  0  0  0  0  2  0  0  0  0  0  0
  -26.1790  -29.4270   20.7830 C   0  0  0  0  0  0  0  0  0  0  0  0
  -27.3680  -28.6180   20.8340 C   0  0  0  0  0  3  0  0  0  0  0  0
  -26.2590  -26.9030   19.5440 C   0  0  0  0  0  3  0  0  0  0  0  0
  -25.0960  -27.6970   19.4790 C   0  0  0  0  0  3  0  0  0  0  0  0
  -23.7980  -29.8110   20.1020 C   0  0  0  0  0  2  0  0  0  0  0  0
  -24.7160  -31.0620   22.0960 N   0  0  0  0  0  0  0  0  0  0  0  0
  -23.4550  -32.1110   23.6720 O   0  0  0  0  0  0  0  0  0  0  0  0
  -22.7880  -29.4260   22.3840 C   0  0  0  0  0  0  0  0  0  0  0  0
  -21.4610  -29.2710   22.2230 N   0  0  0  0  0  0  0  0  0  0  0  0
  -23.4360  -28.7630   23.1970 O   0  0  0  0  0  0  0  0  0  0  0  0
  -20.9940  -29.8570   21.5450 H   0  0  0  0  0  0  0  0  0  0  0  0
  -18.0480  -28.1480   22.6710 C   0  0  0  0  0  0  0  0  0  0  0  0
  -20.6140  -28.3150   22.9420 C   0  0  0  0  0  3  0  0  0  0  0  0
  -20.6710  -26.9170   22.2840 C   0  0  0  0  0  2  0  0  0  0  0  0
  -19.5560  -26.6870   21.2590 C   0  0  0  0  0  2  0  0  0  0  0  0
  -18.1810  -26.8350   21.9150 C   0  0  0  0  0  2  0  0  0  0  0  0
  -19.1910  -28.8490   23.1390 C   0  0  0  0  0  0  0  0  0  0  0  0
  -19.0110  -30.0800   23.8070 C   0  0  0  0  0  3  0  0  0  0  0  0
  -17.7230  -30.6100   24.0090 C   0  0  0  0  0  3  0  0  0  0  0  0
  -16.5960  -29.9040   23.5550 C   0  0  0  0  0  3  0  0  0  0  0  0
  -16.7580  -28.6730   22.8930 C   0  0  0  0  0  3  0  0  0  0  0  0
  -25.8030  -32.5080   23.8990 C   0  0  0  0  0  3  0  0  0  0  0  0
  -26.2110  -31.7770   25.2370 C   0  0  1  0  0  0  0  0  0  0  0  0
  -25.0350  -31.5800   26.2230 C   0  0  0  0  0  1  0  0  0  0  0  0
  -26.8150  -30.3850   24.9420 C   0  0  0  0  0  1  0  0  0  0  0  0
  -27.3120  -32.5870   25.9620 C   0  0  0  0  0  1  0  0  0  0  0  0
  -25.4750  -33.9170   24.1620 N   0  0  0  0  0  0  0  0  0  0  0  0
  -25.8490  -34.9460   23.3900 C   0  0  0  0  0  0  0  0  0  0  0  0
  -26.5730  -34.8080   22.4010 O   0  0  0  0  0  0  0  0  0  0  0  0
  -24.8370  -34.0960   24.9240 H   0  0  0  0  0  0  0  0  0  0  0  0
  -24.1300  -36.7170   22.9000 C   0  0  0  0  0  1  0  0  0  0  0  0
  -25.3380  -36.3480   23.7750 C   0  0  0  0  0  3  0  0  0  0  0  0
  -27.4260  -37.2870   24.6670 C   0  0  0  0  0  1  0  0  0  0  0  0
  -26.3710  -37.4020   23.6620 N   0  0  0  0  0  0  0  0  0  0  0  0
  -25.9540  -38.3250   23.7440 H   0  0  0  0  0  0  0  0  0  0  0  0
  -30.3960  -17.4010   20.7450 C   0  0  0  0  0  3  0  0  0  0  0  0
  -29.9480  -16.1540   20.9150 N   0  0  0  0  0  0  0  0  0  0  0  0
  -30.8310  -15.0030   21.0530 C   0  0  0  0  0  0  0  0  0  0  0  0
  -30.8530  -12.5350   20.5460 C   0  0  0  0  0  2  0  0  0  0  0  0
  -30.1390  -12.2990   19.1950 C   0  0  0  0  0  2  0  0  0  0  0  0
  -28.6180  -12.1490   19.3930 C   0  0  0  0  0  2  0  0  0  0  0  0
  -28.0330  -13.2540   20.3090 C   0  0  0  0  0  3  0  0  0  0  0  0
  -28.8780  -13.4490   21.5830 C   0  0  0  0  0  2  0  0  0  0  0  0
  -30.2540  -13.7470   21.1670 N   0  0  0  0  0  0  0  0  0  0  0  0
  -32.0570  -15.0470   20.9230 O   0  0  0  0  0  0  0  0  0  0  0  0
  -25.5970  -13.9410   20.7180 C   0  0  0  0  0  0  0  0  0  0  0  0
  -24.4590  -13.2140   20.9360 C   0  0  0  0  0  0  0  0  0  0  0  0
  -24.8660  -11.8440   20.9660 C   0  0  0  0  0  0  0  0  0  0  0  0
  -26.6250  -13.0180   20.6190 N   0  0  0  0  0  0  0  0  0  0  0  0
  -26.1840  -11.7520   20.8340 N   0  0  0  0  0  0  0  0  0  0  0  0
  -24.0680  -10.6130   21.0540 C   0  0  0  0  0  0  0  0  0  0  0  0
  -24.3910   -9.5850   21.9670 C   0  0  0  0  0  3  0  0  0  0  0  0
  -23.5970   -8.4210   22.0460 C   0  0  0  0  0  3  0  0  0  0  0  0
  -22.4650   -8.2770   21.2110 C   0  0  0  0  0  0  0  0  0  0  0  0
  -22.1590   -9.2930   20.2890 C   0  0  0  0  0  3  0  0  0  0  0  0
  -22.9530  -10.4490   20.2080 C   0  0  0  0  0  3  0  0  0  0  0  0
  -21.6510   -7.1710   21.1990 O   0  0  0  0  0  0  0  0  0  0  0  0
  -21.5480   -6.3410   22.2870 C   0  0  0  0  0  0  0  0  0  0  0  0
  -21.1020   -6.8100   23.5420 C   0  0  0  0  0  3  0  0  0  0  0  0
  -20.9450   -5.9090   24.6140 C   0  0  0  0  0  3  0  0  0  0  0  0
  -21.2240   -4.5420   24.4340 C   0  0  0  0  0  0  0  0  0  0  0  0
  -21.6630   -4.0720   23.1830 C   0  0  0  0  0  3  0  0  0  0  0  0
  -21.8210   -4.9690   22.1120 C   0  0  0  0  0  0  0  0  0  0  0  0
  -22.2240   -4.5080   20.9030 F   0  0  0  0  0  0  0  0  0  0  0  0
  -21.0660   -3.6750   25.4610 F   0  0  0  0  0  0  0  0  0  0  0  0
  -23.0590  -13.7490   21.0170 C   0  0  0  0  0  0  0  0  0  0  0  0
  -22.2040  -13.1130   21.8090 N   0  0  0  0  0  0  0  0  0  0  0  0
  -22.7290  -14.7690   20.4110 O   0  0  0  0  0  0  0  0  0  0  0  0
  -22.4800  -12.2880   22.3200 H   0  0  0  0  0  0  0  0  0  0  0  0
  -21.2590  -13.4570   21.9080 H   0  0  0  0  0  0  0  0  0  0  0  0
  -25.8440  -15.3030   20.5700 N   0  0  0  0  0  0  0  0  0  0  0  0
  -25.1100  -16.0010   20.5890 H   0  0  0  0  0  0  0  0  0  0  0  0
  -26.7650  -15.6930   20.4110 H   0  0  0  0  0  0  0  0  0  0  0  0
  -26.3330  -20.4970   18.4300 C   0  0  0  0  0  1  0  0  0  0  0  0
  -27.1420  -21.1740   19.3840 O   0  0  0  0  0  0  0  0  0  0  0  0
  1  3  2  0
  2  1  1  0
  2  4  2  0
  3  5  1  0
  3 50  1  0
  4  6  1  0
  4  5  1  0
  7  6  2  0
  8  9  1  0
  8  7  1  0
 10 21  2  0
 11  9  1  0
 11 16  1  0
 12 20  1  0
 12 22  1  0
 13 15  1  0
 14 20  1  0
 15 16  2  0
 15 14  1  0
 17 11  2  0
 18 17  1  0
 18 13  2  0
 19 13  1  0
 19 12  1  0
 20 10  1  0
 22 24  2  0
 23 22  1  0
 25 23  1  0
 26 35  2  0
 26 31  1  0
 27 23  1  0
 27 31  1  0
 28 27  1  0
 29 30  1  0
 29 28  1  0
 30 26  1  0
 31 32  2  0
 32 33  1  0
 34 33  2  0
 35 34  1  0
 36 10  1  0
 36 41  1  0
 36 37  1  0
 37 40  1  1
 37 38  1  0
 39 37  1  0
 41 44  1  0
 42 46  1  0
 42 41  1  0
 43 42  2  0
 46 45  1  0
 48 49  1  0
 48 46  1  0
 48 47  1  0
 50 51  2  0
 51 52  1  0
 52 58  1  0
 53 58  1  0
 54 55  1  0
 54 53  1  0
 56 55  1  0
 56 63  1  0
 56 57  1  0
 58 57  1  0
 59 52  2  0
 60 61  2  0
 61 62  1  0
 61 80  1  0
 62 65  1  0
 63 60  1  0
 63 64  1  0
 64 62  2  0
 65 66  1  0
 66 67  2  0
 68 67  1  0
 69 68  2  0
 70 69  1  0
 70 65  2  0
 71 68  1  0
 71 72  1  0
 72 73  1  0
 73 74  2  0
 75 74  1  0
 75 79  1  0
 76 75  2  0
 77 72  2  0
 77 76  1  0
 78 77  1  0
 80 81  1  0
 81 84  1  0
 81 83  1  0
 82 80  2  0
 85 86  1  0
 85 60  1  0
 87 85  1  0
 88 89  1  0
 89  2  1  0
M  ISO  4   8 101   9 101  51 100  52 100
M  END
>  <TORSDO>  (28) 
F 20

>  <SCORE>  (28) 
-13.070

>  <name>  (28) 
27

>  <ligand_id>  (28) 
27

>  <original_smiles>  (28) 
[H]C(=NC(=O)N1C([H])([H])C([H])([H])C([H])([H])C([H])(n2nc(-c3c([H])c([H])c(Oc4c([H])c([H])c(F)c([H])c4F)c([H])c3[H])c(C(=O)N([H])[H])c2N([H])[H])C1([H])[H])c1oc(C([H])=C([H])C([H])([H])Oc2c([H])c([H])c3c(c2[H])C([H])([H])N(C(=O)C([H])(N([H])C(=O)C([H])(N([H])C([H])([H])[H])C([H])([H])[H])C(C([H])([H])[H])(C([H])([H])[H])C([H])([H])[H])C([H])(C(=O)N([H])C2([H])c4c([H])c([H])c([H])c([H])c4C([H])([H])C([H])([H])C2([H])[H])C3([H])[H])c(OC([H])([H])[H])c1[H]

>  <smiles>  (28) 
[H]C(=NC(=O)N1C([H])([H])C([H])([H])C([H])([H])C([H])(n2nc(-c3c([H])c([H])c(Oc4c([H])c([H])c(F)c([H])c4F)c([H])c3[H])c(C(=O)N([H])[H])c2N([H])[H])C1([H])[H])c1oc(C([H])=C([H])C([H])([H])Oc2c([H])c([H])c3c(c2[H])C([H])([H])N(C(=O)C([H])(N([H])C(=O)C([H])(N([H])C([H])([H])[H])C([H])([H])[H])C(C([H])([H])[H])(C([H])([H])[H])C([H])([H])[H])C([H])(C(=O)N([H])C2([H])c4c([H])c([H])c([H])c([H])c4C([H])([H])C([H])([H])C2([H])[H])C3([H])[H])c(OC([H])([H])[H])c1[H]

$$$$
28:0:0
     RDKit          3D

 94103  0  0  1  0  0  0  0  0999 V2000
  -31.5370  -20.0260   20.6640 C   0  0  0  0  0  3  0  0  0  0  0  0
  -31.8390  -17.6070   20.7260 C   0  0  0  0  0  3  0  0  0  0  0  0
  -30.1350  -19.9110   20.6010 C   0  0  0  0  0  0  0  0  0  0  0  0
  -29.5950  -18.5500   20.5800 C   0  0  0  0  0  0  0  0  0  0  0  0
  -30.4470  -17.3570   20.6110 C   0  0  0  0  0  0  0  0  0  0  0  0
  -32.3720  -18.9040   20.7380 C   0  0  0  0  0  0  0  0  0  0  0  0
  -33.7120  -19.0750   20.8330 F   0  0  0  0  0  0  0  0  0  0  0  0
  -30.6220  -14.7780   20.1840 C   0  0  0  0  0  0  0  0  0  0  0  0
  -30.2860  -12.5710   19.0720 C   0  0  0  0  0  2  0  0  0  0  0  0
  -29.3130  -12.7230   17.8850 C   0  0  0  0  0  2  0  0  0  0  0  0
  -27.8610  -12.5450   18.3630 C   0  0  0  0  0  2  0  0  0  0  0  0
  -27.5430  -13.3810   19.6310 C   0  0  0  0  0  3  0  0  0  0  0  0
  -28.6430  -13.2520   20.7100 C   0  0  0  0  0  2  0  0  0  0  0  0
  -29.9230  -13.5960   20.0800 N   0  0  0  0  0  0  0  0  0  0  0  0
  -31.7790  -14.8120   19.7590 O   0  0  0  0  0  0  0  0  0  0  0  0
  -29.9630  -15.9440   20.5630 N   0  0  0  0  0  0  0  0  0  0  0  0
  -28.9880  -15.8090   20.7800 H   0  0  0  0  0  0  0  0  0  0  0  0
  -25.1720  -13.9360   20.4330 C   0  0  0  0  0  0  0  0  0  0  0  0
  -24.1270  -13.1470   20.8280 C   0  0  0  0  0  0  0  0  0  0  0  0
  -24.6040  -11.8020   20.7740 C   0  0  0  0  0  0  0  0  0  0  0  0
  -26.2190  -13.0720   20.1610 N   0  0  0  0  0  0  0  0  0  0  0  0
  -25.8860  -11.7820   20.4280 N   0  0  0  0  0  0  0  0  0  0  0  0
  -23.8970  -10.5300   20.9760 C   0  0  0  0  0  0  0  0  0  0  0  0
  -24.3570   -9.5670   21.9010 C   0  0  0  0  0  3  0  0  0  0  0  0
  -23.6470   -8.3610   22.0920 C   0  0  0  0  0  3  0  0  0  0  0  0
  -22.4640   -8.1090   21.3570 C   0  0  0  0  0  0  0  0  0  0  0  0
  -22.0230   -9.0610   20.4200 C   0  0  0  0  0  3  0  0  0  0  0  0
  -22.7340  -10.2570   20.2280 C   0  0  0  0  0  3  0  0  0  0  0  0
  -21.7240   -6.9550   21.4570 O   0  0  0  0  0  0  0  0  0  0  0  0
  -21.6930   -6.2180   22.6130 C   0  0  0  0  0  0  0  0  0  0  0  0
  -21.2560   -6.7700   23.8370 C   0  0  0  0  0  3  0  0  0  0  0  0
  -21.1730   -5.9580   24.9860 C   0  0  0  0  0  3  0  0  0  0  0  0
  -21.5200   -4.5970   24.9130 C   0  0  0  0  0  0  0  0  0  0  0  0
  -21.9510   -4.0440   23.6940 C   0  0  0  0  0  3  0  0  0  0  0  0
  -22.0350   -4.8520   22.5480 C   0  0  0  0  0  0  0  0  0  0  0  0
  -22.4310   -4.3100   21.3710 F   0  0  0  0  0  0  0  0  0  0  0  0
  -21.4340   -3.8140   26.0140 F   0  0  0  0  0  0  0  0  0  0  0  0
  -22.7330  -13.6070   21.1420 C   0  0  0  0  0  0  0  0  0  0  0  0
  -22.0360  -12.8940   22.0210 N   0  0  0  0  0  0  0  0  0  0  0  0
  -22.2700  -14.6330   20.6440 O   0  0  0  0  0  0  0  0  0  0  0  0
  -22.4250  -12.0650   22.4440 H   0  0  0  0  0  0  0  0  0  0  0  0
  -21.1020  -13.1830   22.2750 H   0  0  0  0  0  0  0  0  0  0  0  0
  -25.3140  -15.3100   20.2590 N   0  0  0  0  0  0  0  0  0  0  0  0
  -24.5370  -15.9490   20.3840 H   0  0  0  0  0  0  0  0  0  0  0  0
  -26.1360  -15.7570   19.8760 H   0  0  0  0  0  0  0  0  0  0  0  0
  -28.7470  -21.8680   21.6770 C   0  0  0  0  0  3  0  0  0  0  0  0
  -29.4210  -21.2550   20.6380 C   0  0  0  0  0  0  0  0  0  0  0  0
  -28.7220  -23.7440   20.2720 C   0  0  0  0  0  0  0  0  0  0  0  0
  -28.3710  -23.2260   21.4650 N   0  0  0  0  0  0  0  0  0  0  0  0
  -29.6090  -22.4720   19.3470 S   0  0  0  0  0  0  0  0  0  0  0  0
  -28.0640  -25.0130   19.6220 C   0  0  0  0  0  2  0  0  0  0  0  0
  -28.3040  -26.3960   20.1660 O   0  0  0  0  0  0  0  0  0  0  0  0
  -24.6300  -31.8920   23.1830 C   0  0  0  0  0  0  0  0  0  0  0  0
  -27.2380  -27.3320   20.0650 C   0  0  0  0  0  0  0  0  0  0  0  0
  -23.4320  -30.5070   21.5340 C   0  0  0  0  0  3  0  0  0  0  0  0
  -24.8860  -28.9930   20.0750 C   0  0  0  0  0  0  0  0  0  0  0  0
  -25.9770  -30.8200   21.3590 C   0  0  0  0  0  2  0  0  0  0  0  0
  -26.0570  -29.4490   20.6940 C   0  0  0  0  0  0  0  0  0  0  0  0
  -27.2320  -28.6250   20.6940 C   0  0  0  0  0  3  0  0  0  0  0  0
  -26.0540  -26.9880   19.3640 C   0  0  0  0  0  3  0  0  0  0  0  0
  -24.8920  -27.7710   19.3990 C   0  0  0  0  0  3  0  0  0  0  0  0
  -23.6460  -29.8600   20.1430 C   0  0  0  0  0  2  0  0  0  0  0  0
  -24.6990  -31.0900   22.0810 N   0  0  0  0  0  0  0  0  0  0  0  0
  -23.5460  -32.1590   23.7200 O   0  0  0  0  0  0  0  0  0  0  0  0
  -22.7760  -29.4720   22.4810 C   0  0  0  0  0  0  0  0  0  0  0  0
  -21.4480  -29.2990   22.3660 N   0  0  0  0  0  0  0  0  0  0  0  0
  -23.4620  -28.8290   23.2810 O   0  0  0  0  0  0  0  0  0  0  0  0
  -20.9540  -29.8690   21.6940 H   0  0  0  0  0  0  0  0  0  0  0  0
  -18.0700  -28.1140   22.9020 C   0  0  0  0  0  0  0  0  0  0  0  0
  -20.6350  -28.3510   23.1320 C   0  0  0  0  0  3  0  0  0  0  0  0
  -20.7170  -26.9310   22.5270 C   0  0  0  0  0  2  0  0  0  0  0  0
  -19.5950  -26.6350   21.5270 C   0  0  0  0  0  2  0  0  0  0  0  0
  -18.2260  -26.7770   22.1970 C   0  0  0  0  0  2  0  0  0  0  0  0
  -19.2020  -28.8600   23.3270 C   0  0  0  0  0  0  0  0  0  0  0  0
  -19.0010  -30.1120   23.9490 C   0  0  0  0  0  3  0  0  0  0  0  0
  -17.7030  -30.6180   24.1480 C   0  0  0  0  0  3  0  0  0  0  0  0
  -16.5870  -29.8690   23.7390 C   0  0  0  0  0  3  0  0  0  0  0  0
  -16.7710  -28.6190   23.1210 C   0  0  0  0  0  3  0  0  0  0  0  0
  -25.9110  -32.5260   23.8060 C   0  0  0  0  0  3  0  0  0  0  0  0
  -26.4260  -31.7550   25.0830 C   0  0  1  0  0  0  0  0  0  0  0  0
  -25.3290  -31.5160   26.1480 C   0  0  0  0  0  1  0  0  0  0  0  0
  -27.0130  -30.3780   24.6950 C   0  0  0  0  0  1  0  0  0  0  0  0
  -27.5730  -32.5520   25.7470 C   0  0  0  0  0  1  0  0  0  0  0  0
  -25.5940  -33.9240   24.1390 N   0  0  0  0  0  0  0  0  0  0  0  0
  -25.9140  -34.9790   23.3770 C   0  0  0  0  0  0  0  0  0  0  0  0
  -26.5730  -34.8800   22.3400 O   0  0  0  0  0  0  0  0  0  0  0  0
  -25.0060  -34.0730   24.9440 H   0  0  0  0  0  0  0  0  0  0  0  0
  -24.1720  -36.7650   23.0450 C   0  0  0  0  0  1  0  0  0  0  0  0
  -25.4240  -36.3640   23.8430 C   0  0  0  0  0  3  0  0  0  0  0  0
  -27.5590  -37.2620   24.6570 C   0  0  0  0  0  1  0  0  0  0  0  0
  -26.4490  -37.4230   23.7210 N   0  0  0  0  0  0  0  0  0  0  0  0
  -26.0390  -38.3410   23.8700 H   0  0  0  0  0  0  0  0  0  0  0  0
  -27.5820  -18.2200   19.0760 C   0  0  0  0  0  1  0  0  0  0  0  0
  -28.0870  -18.3660   20.5150 C   0  0  0  0  0  2  0  0  0  0  0  0
  1  6  1  0
  2  6  2  0
  3 47  1  0
  3  1  2  0
  4  3  1  0
  4  5  2  0
  5  2  1  0
  6  7  1  0
  8 16  1  0
  9 14  1  0
 10 11  1  0
 10  9  1  0
 12 11  1  0
 12 21  1  0
 12 13  1  0
 14  8  1  0
 14 13  1  0
 15  8  2  0
 16  5  1  0
 16 17  1  0
 18 19  2  0
 19 38  1  0
 20 19  1  0
 20 23  1  0
 21 22  1  0
 21 18  1  0
 22 20  2  0
 23 24  1  0
 24 25  2  0
 26 29  1  0
 26 25  1  0
 27 26  2  0
 28 27  1  0
 28 23  2  0
 29 30  1  0
 30 31  1  0
 31 32  2  0
 33 32  1  0
 33 37  1  0
 34 33  2  0
 35 30  2  0
 35 34  1  0
 36 35  1  0
 38 39  1  0
 39 42  1  0
 39 41  1  0
 40 38  2  0
 43 44  1  0
 43 18  1  0
 45 43  1  0
 47 46  2  0
 48 49  2  0
 49 46  1  0
 50 48  1  0
 50 47  1  0
 51 52  1  0
 51 48  1  0
 53 64  2  0
 54 52  1  0
 54 59  1  0
 55 63  1  0
 55 65  1  0
 56 62  1  0
 56 58  1  0
 57 63  1  0
 58 57  1  0
 59 58  2  0
 60 61  1  0
 60 54  2  0
 61 56  2  0
 62 55  1  0
 63 53  1  0
 65 67  2  0
 66 65  1  0
 68 66  1  0
 69 78  2  0
 69 74  1  0
 70 66  1  0
 70 74  1  0
 71 70  1  0
 72 73  1  0
 72 71  1  0
 73 69  1  0
 74 75  2  0
 75 76  1  0
 77 76  2  0
 78 77  1  0
 79 53  1  0
 79 84  1  0
 79 80  1  0
 80 83  1  1
 80 81  1  0
 82 80  1  0
 84 87  1  0
 85 89  1  0
 85 84  1  0
 86 85  2  0
 89 88  1  0
 91 89  1  0
 91 92  1  0
 91 90  1  0
 93 94  1  0
 94  4  1  0
M  ISO  4   8 100  16 100  51 101  52 101
M  END
>  <TORSDO>  (29) 
F 19

>  <SCORE>  (29) 
-14.854

>  <name>  (29) 
28

>  <ligand_id>  (29) 
28

>  <original_smiles>  (29) 
[H]c1nc(C([H])([H])Oc2c([H])c([H])c3c(c2[H])C([H])([H])N(C(=O)C([H])(N([H])C(=O)C([H])(N([H])C([H])([H])[H])C([H])([H])[H])C(C([H])([H])[H])(C([H])([H])[H])C([H])([H])[H])C([H])(C(=O)N([H])C2([H])c4c([H])c([H])c([H])c([H])c4C([H])([H])C([H])([H])C2([H])[H])C3([H])[H])sc1-c1c([H])c(F)c([H])c(N([H])C(=O)N2C([H])([H])C([H])([H])C([H])([H])C([H])(n3nc(-c4c([H])c([H])c(Oc5c([H])c([H])c(F)c([H])c5F)c([H])c4[H])c(C(=O)N([H])[H])c3N([H])[H])C2([H])[H])c1C([H])([H])C([H])([H])[H]

>  <smiles>  (29) 
[H]c1nc(C([H])([H])Oc2c([H])c([H])c3c(c2[H])C([H])([H])N(C(=O)C([H])(N([H])C(=O)C([H])(N([H])C([H])([H])[H])C([H])([H])[H])C(C([H])([H])[H])(C([H])([H])[H])C([H])([H])[H])C([H])(C(=O)N([H])C2([H])c4c([H])c([H])c([H])c([H])c4C([H])([H])C([H])([H])C2([H])[H])C3([H])[H])sc1-c1c([H])c(F)c([H])c(N([H])C(=O)N2C([H])([H])C([H])([H])C([H])([H])C([H])(n3nc(-c4c([H])c([H])c(Oc5c([H])c([H])c(F)c([H])c5F)c([H])c4[H])c(C(=O)N([H])[H])c3N([H])[H])C2([H])[H])c1C([H])([H])C([H])([H])[H]

$$$$
29:0:0
     RDKit          3D

 96105  0  0  1  0  0  0  0  0999 V2000
  -29.6150  -19.3340   19.2150 C   0  0  0  0  0  3  0  0  0  0  0  0
  -29.3730  -20.7360   19.2290 C   0  0  0  0  0  3  0  0  0  0  0  0
  -30.1890  -20.8500   21.5110 C   0  0  0  0  0  0  0  0  0  0  0  0
  -30.2190  -18.6560   20.3070 C   0  0  0  0  0  0  0  0  0  0  0  0
  -30.4230  -19.4270   21.4890 C   0  0  0  0  0  0  0  0  0  0  0  0
  -29.7350  -21.5440   20.3360 C   0  0  0  0  0  0  0  0  0  0  0  0
  -30.9880  -18.7320   22.7230 C   0  0  0  0  0  1  0  0  0  0  0  0
  -31.1370  -23.4360   19.8600 C   0  0  0  0  0  0  0  0  0  0  0  0
  -31.1190  -24.5560   18.8360 C   0  0  0  0  0  2  0  0  0  0  0  0
  -29.6770  -24.5020   18.3480 C   0  0  0  0  0  2  0  0  0  0  0  0
  -28.9210  -23.9970   19.5830 C   0  0  0  0  0  3  0  0  0  0  0  0
  -29.8930  -23.0000   20.1700 N   0  0  0  0  0  0  0  0  0  0  0  0
  -32.2040  -23.0010   20.3070 O   0  0  0  0  0  0  0  0  0  0  0  0
  -28.5860  -25.2440   20.5340 C   0  0  0  0  0  2  0  0  0  0  0  0
  -28.6470  -26.6190   19.9920 O   0  0  0  0  0  0  0  0  0  0  0  0
  -24.7460  -31.7260   23.2710 C   0  0  0  0  0  0  0  0  0  0  0  0
  -27.4980  -27.4130   20.0220 C   0  0  0  0  0  0  0  0  0  0  0  0
  -23.6020  -30.4190   21.5150 C   0  0  0  0  0  3  0  0  0  0  0  0
  -25.1090  -28.9700   20.0430 C   0  0  0  0  0  0  0  0  0  0  0  0
  -26.1380  -30.7840   21.4190 C   0  0  0  0  0  2  0  0  0  0  0  0
  -26.2540  -29.4480   20.6940 C   0  0  0  0  0  0  0  0  0  0  0  0
  -27.4560  -28.6840   20.6680 C   0  0  0  0  0  3  0  0  0  0  0  0
  -26.3320  -26.9710   19.3640 C   0  0  0  0  0  3  0  0  0  0  0  0
  -25.1480  -27.7350   19.3720 C   0  0  0  0  0  3  0  0  0  0  0  0
  -23.8620  -29.8270   20.1040 C   0  0  0  0  0  2  0  0  0  0  0  0
  -24.8460  -30.9900   22.1260 N   0  0  0  0  0  0  0  0  0  0  0  0
  -23.6460  -31.9580   23.7930 O   0  0  0  0  0  0  0  0  0  0  0  0
  -22.9280  -29.3390   22.3930 C   0  0  0  0  0  0  0  0  0  0  0  0
  -21.5980  -29.1990   22.2640 N   0  0  0  0  0  0  0  0  0  0  0  0
  -23.6000  -28.6310   23.1490 O   0  0  0  0  0  0  0  0  0  0  0  0
  -21.1150  -29.8200   21.6290 H   0  0  0  0  0  0  0  0  0  0  0  0
  -18.1960  -28.0650   22.7240 C   0  0  0  0  0  0  0  0  0  0  0  0
  -20.7650  -28.2170   22.9610 C   0  0  0  0  0  3  0  0  0  0  0  0
  -20.8090  -26.8430   22.2510 C   0  0  0  0  0  2  0  0  0  0  0  0
  -19.6780  -26.6540   21.2360 C   0  0  0  0  0  2  0  0  0  0  0  0
  -18.3140  -26.7800   21.9210 C   0  0  0  0  0  2  0  0  0  0  0  0
  -19.3470  -28.7480   23.1990 C   0  0  0  0  0  0  0  0  0  0  0  0
  -19.1800  -29.9570   23.9100 C   0  0  0  0  0  3  0  0  0  0  0  0
  -17.8960  -30.4790   24.1510 C   0  0  0  0  0  3  0  0  0  0  0  0
  -16.7590  -29.7900   23.6920 C   0  0  0  0  0  3  0  0  0  0  0  0
  -16.9100  -28.5860   22.9830 C   0  0  0  0  0  3  0  0  0  0  0  0
  -26.0050  -32.3310   23.9660 C   0  0  0  0  0  3  0  0  0  0  0  0
  -26.4720  -31.5110   25.2320 C   0  0  1  0  0  0  0  0  0  0  0  0
  -25.3440  -31.2530   26.2580 C   0  0  0  0  0  1  0  0  0  0  0  0
  -27.0490  -30.1370   24.8140 C   0  0  0  0  0  1  0  0  0  0  0  0
  -27.6100  -32.2660   25.9580 C   0  0  0  0  0  1  0  0  0  0  0  0
  -25.6840  -33.7170   24.3360 N   0  0  0  0  0  0  0  0  0  0  0  0
  -26.0420  -34.7980   23.6300 C   0  0  0  0  0  0  0  0  0  0  0  0
  -26.7490  -34.7330   22.6200 O   0  0  0  0  0  0  0  0  0  0  0  0
  -25.0580  -33.8400   25.1180 H   0  0  0  0  0  0  0  0  0  0  0  0
  -24.3220  -36.6030   23.2900 C   0  0  0  0  0  1  0  0  0  0  0  0
  -25.5380  -36.1680   24.1230 C   0  0  0  0  0  3  0  0  0  0  0  0
  -27.6390  -37.0310   25.0590 C   0  0  0  0  0  1  0  0  0  0  0  0
  -26.5710  -37.2260   24.0810 N   0  0  0  0  0  0  0  0  0  0  0  0
  -26.1560  -38.1400   24.2430 H   0  0  0  0  0  0  0  0  0  0  0  0
  -29.7510  -22.6600   23.2080 C   0  0  0  0  0  2  0  0  0  0  0  0
  -30.4470  -21.5980   22.7630 C   0  0  0  0  0  3  0  0  0  0  0  0
  -30.8930  -17.2510   20.0630 C   0  0  0  0  0  2  0  0  0  0  0  0
  -30.9980  -14.7480   20.2210 C   0  0  0  0  0  0  0  0  0  0  0  0
  -30.7120  -12.4870   19.2560 C   0  0  0  0  0  2  0  0  0  0  0  0
  -29.7540  -12.5750   18.0490 C   0  0  0  0  0  2  0  0  0  0  0  0
  -28.2940  -12.4210   18.5160 C   0  0  0  0  0  2  0  0  0  0  0  0
  -27.9520  -13.3270   19.7290 C   0  0  0  0  0  3  0  0  0  0  0  0
  -29.0340  -13.2560   20.8280 C   0  0  0  0  0  2  0  0  0  0  0  0
  -30.3250  -13.5570   20.1990 N   0  0  0  0  0  0  0  0  0  0  0  0
  -32.1720  -14.8060   19.8520 O   0  0  0  0  0  0  0  0  0  0  0  0
  -30.2970  -15.9130   20.4100 N   0  0  0  0  0  0  0  0  0  0  0  0
  -29.3210  -15.8680   20.6610 H   0  0  0  0  0  0  0  0  0  0  0  0
  -25.5940  -13.9230   20.5530 C   0  0  0  0  0  0  0  0  0  0  0  0
  -24.5310  -13.1490   20.9290 C   0  0  0  0  0  0  0  0  0  0  0  0
  -24.9750  -11.7940   20.8340 C   0  0  0  0  0  0  0  0  0  0  0  0
  -26.6190  -13.0400   20.2520 N   0  0  0  0  0  0  0  0  0  0  0  0
  -26.2540  -11.7520   20.4840 N   0  0  0  0  0  0  0  0  0  0  0  0
  -24.2390  -10.5340   21.0030 C   0  0  0  0  0  0  0  0  0  0  0  0
  -24.6380   -9.5640   21.9500 C   0  0  0  0  0  3  0  0  0  0  0  0
  -23.9010   -8.3710   22.1050 C   0  0  0  0  0  3  0  0  0  0  0  0
  -22.7510   -8.1380   21.3130 C   0  0  0  0  0  0  0  0  0  0  0  0
  -22.3730   -9.0960   20.3550 C   0  0  0  0  0  3  0  0  0  0  0  0
  -23.1110  -10.2810   20.1980 C   0  0  0  0  0  3  0  0  0  0  0  0
  -21.9870   -6.9970   21.3790 O   0  0  0  0  0  0  0  0  0  0  0  0
  -21.8020   -6.3210   22.5590 C   0  0  0  0  0  0  0  0  0  0  0  0
  -21.1990   -6.9310   23.6800 C   0  0  0  0  0  3  0  0  0  0  0  0
  -20.9640   -6.1800   24.8490 C   0  0  0  0  0  3  0  0  0  0  0  0
  -21.3230   -4.8200   24.8970 C   0  0  0  0  0  0  0  0  0  0  0  0
  -21.9220   -4.2100   23.7790 C   0  0  0  0  0  3  0  0  0  0  0  0
  -22.1570   -4.9580   22.6130 C   0  0  0  0  0  0  0  0  0  0  0  0
  -22.7140   -4.3600   21.5320 F   0  0  0  0  0  0  0  0  0  0  0  0
  -21.0910   -4.0960   26.0160 F   0  0  0  0  0  0  0  0  0  0  0  0
  -23.1500  -13.6340   21.2610 C   0  0  0  0  0  0  0  0  0  0  0  0
  -22.4480  -12.9300   22.1430 N   0  0  0  0  0  0  0  0  0  0  0  0
  -22.7030  -14.6710   20.7750 O   0  0  0  0  0  0  0  0  0  0  0  0
  -22.8230  -12.0920   22.5630 H   0  0  0  0  0  0  0  0  0  0  0  0
  -21.5220  -13.2380   22.4070 H   0  0  0  0  0  0  0  0  0  0  0  0
  -25.7690  -15.2970   20.4190 N   0  0  0  0  0  0  0  0  0  0  0  0
  -25.0130  -15.9560   20.5710 H   0  0  0  0  0  0  0  0  0  0  0  0
  -26.6060  -15.7380   20.0580 H   0  0  0  0  0  0  0  0  0  0  0  0
  1  2  2  0
  1  4  1  0
  2  6  1  0
  3 57  1  0
  4  5  2  0
  5  3  1  0
  5  7  1  0
  6  3  2  0
  8 12  1  0
  8 13  2  0
  9  8  1  0
 10  9  1  0
 10 11  1  0
 11 12  1  0
 11 14  1  0
 12  6  1  0
 15 17  1  0
 15 14  1  0
 16 27  2  0
 17 22  1  0
 18 26  1  0
 18 28  1  0
 19 25  1  0
 19 21  1  0
 20 26  1  0
 21 20  1  0
 22 21  2  0
 23 24  1  0
 23 17  2  0
 24 19  2  0
 25 18  1  0
 26 16  1  0
 28 30  2  0
 29 28  1  0
 31 29  1  0
 32 41  2  0
 32 37  1  0
 33 29  1  0
 33 37  1  0
 34 33  1  0
 35 36  1  0
 35 34  1  0
 36 32  1  0
 37 38  2  0
 38 39  1  0
 40 39  2  0
 41 40  1  0
 42 16  1  0
 42 47  1  0
 42 43  1  0
 43 46  1  1
 43 44  1  0
 45 43  1  0
 47 50  1  0
 48 52  1  0
 48 47  1  0
 49 48  2  0
 52 51  1  0
 54 52  1  0
 54 55  1  0
 54 53  1  0
 57 56  2  0
 58  4  1  0
 58 67  1  0
 59 67  1  0
 60 65  1  0
 61 62  1  0
 61 60  1  0
 63 62  1  0
 63 72  1  0
 63 64  1  0
 65 59  1  0
 65 64  1  0
 66 59  2  0
 67 68  1  0
 69 70  2  0
 70 89  1  0
 71 70  1  0
 71 74  1  0
 72 73  1  0
 72 69  1  0
 73 71  2  0
 74 75  1  0
 75 76  2  0
 77 80  1  0
 77 76  1  0
 78 77  2  0
 79 78  1  0
 79 74  2  0
 80 81  1  0
 81 86  2  0
 81 82  1  0
 82 83  2  0
 83 84  1  0
 84 88  1  0
 85 84  2  0
 86 85  1  0
 87 86  1  0
 89 90  1  0
 90 93  1  0
 90 92  1  0
 91 89  2  0
 94 69  1  0
 94 95  1  0
 96 94  1  0
M  ISO  4  14 101  15 101  59 100  67 100
M  END
>  <TORSDO>  (30) 
F 20

>  <SCORE>  (30) 
-13.443

>  <name>  (30) 
29

>  <ligand_id>  (30) 
29

>  <original_smiles>  (30) 
[H]C([H])=C([H])c1c(N2C(=O)C([H])([H])C([H])([H])C2([H])C([H])([H])Oc2c([H])c([H])c3c(c2[H])C([H])([H])N(C(=O)C([H])(N([H])C(=O)C([H])(N([H])C([H])([H])[H])C([H])([H])[H])C(C([H])([H])[H])(C([H])([H])[H])C([H])([H])[H])C([H])(C(=O)N([H])C2([H])c4c([H])c([H])c([H])c([H])c4C([H])([H])C([H])([H])C2([H])[H])C3([H])[H])c([H])c([H])c(C([H])([H])N([H])C(=O)N2C([H])([H])C([H])([H])C([H])([H])C([H])(n3nc(-c4c([H])c([H])c(Oc5c([H])c([H])c(F)c([H])c5F)c([H])c4[H])c(C(=O)N([H])[H])c3N([H])[H])C2([H])[H])c1C([H])([H])[H]

>  <smiles>  (30) 
[H]C([H])=C([H])c1c(N2C(=O)C([H])([H])C([H])([H])C2([H])C([H])([H])Oc2c([H])c([H])c3c(c2[H])C([H])([H])N(C(=O)C([H])(N([H])C(=O)C([H])(N([H])C([H])([H])[H])C([H])([H])[H])C(C([H])([H])[H])(C([H])([H])[H])C([H])([H])[H])C([H])(C(=O)N([H])C2([H])c4c([H])c([H])c([H])c([H])c4C([H])([H])C([H])([H])C2([H])[H])C3([H])[H])c([H])c([H])c(C([H])([H])N([H])C(=O)N2C([H])([H])C([H])([H])C([H])([H])C([H])(n3nc(-c4c([H])c([H])c(Oc5c([H])c([H])c(F)c([H])c5F)c([H])c4[H])c(C(=O)N([H])[H])c3N([H])[H])C2([H])[H])c1C([H])([H])[H]

$$$$
30:0:0
     RDKit          3D

 97106  0  0  1  0  0  0  0  0999 V2000
  -30.5620  -18.8250   18.6410 C   0  0  0  0  0  3  0  0  0  0  0  0
  -30.7550  -20.0950   18.0770 C   0  0  0  0  0  3  0  0  0  0  0  0
  -29.6860  -19.9050   20.6250 C   0  0  0  0  0  3  0  0  0  0  0  0
  -30.1150  -18.6710   19.9640 C   0  0  0  0  0  0  0  0  0  0  0  0
  -30.4370  -21.2930   18.7530 C   0  0  0  0  0  0  0  0  0  0  0  0
  -29.7650  -21.2430   20.0190 C   0  0  0  0  0  0  0  0  0  0  0  0
  -28.6830  -23.6500   20.2300 C   0  0  0  0  0  0  0  0  0  0  0  0
  -29.3210  -22.4990   20.7070 N   0  0  0  0  0  0  0  0  0  0  0  0
  -28.2660  -23.6990   19.0730 O   0  0  0  0  0  0  0  0  0  0  0  0
  -29.4830  -22.5120   21.7060 H   0  0  0  0  0  0  0  0  0  0  0  0
  -28.3580  -24.9210   21.1580 C   0  0  0  0  0  2  0  0  0  0  0  0
  -28.4870  -26.3130   20.5920 O   0  0  0  0  0  0  0  0  0  0  0  0
  -24.6160  -31.8700   23.2950 C   0  0  0  0  0  0  0  0  0  0  0  0
  -27.3640  -27.1700   20.5410 C   0  0  0  0  0  0  0  0  0  0  0  0
  -23.4790  -30.3970   21.6740 C   0  0  0  0  0  3  0  0  0  0  0  0
  -24.9930  -28.7840   20.3690 C   0  0  0  0  0  0  0  0  0  0  0  0
  -26.0230  -30.7150   21.5650 C   0  0  0  0  0  2  0  0  0  0  0  0
  -26.1370  -29.3030   20.9890 C   0  0  0  0  0  0  0  0  0  0  0  0
  -27.3270  -28.5080   21.0620 C   0  0  0  0  0  3  0  0  0  0  0  0
  -26.1970  -26.7070   19.8990 C   0  0  0  0  0  3  0  0  0  0  0  0
  -25.0280  -27.4950   19.8110 C   0  0  0  0  0  3  0  0  0  0  0  0
  -23.7470  -29.6530   20.3350 C   0  0  0  0  0  2  0  0  0  0  0  0
  -24.7240  -31.0140   22.2340 N   0  0  0  0  0  0  0  0  0  0  0  0
  -23.5120  -32.1620   23.7790 O   0  0  0  0  0  0  0  0  0  0  0  0
  -22.7830  -29.4220   22.6540 C   0  0  0  0  0  0  0  0  0  0  0  0
  -21.4600  -29.2450   22.5010 N   0  0  0  0  0  0  0  0  0  0  0  0
  -23.4370  -28.8210   23.5100 O   0  0  0  0  0  0  0  0  0  0  0  0
  -20.9920  -29.7760   21.7800 H   0  0  0  0  0  0  0  0  0  0  0  0
  -18.0600  -28.1050   22.9750 C   0  0  0  0  0  0  0  0  0  0  0  0
  -20.6170  -28.3350   23.2790 C   0  0  0  0  0  3  0  0  0  0  0  0
  -20.7120  -26.8930   22.7320 C   0  0  0  0  0  2  0  0  0  0  0  0
  -19.6190  -26.5650   21.7080 C   0  0  0  0  0  2  0  0  0  0  0  0
  -18.2280  -26.7420   22.3260 C   0  0  0  0  0  2  0  0  0  0  0  0
  -19.1820  -28.8610   23.4060 C   0  0  0  0  0  0  0  0  0  0  0  0
  -18.9740  -30.1400   23.9660 C   0  0  0  0  0  3  0  0  0  0  0  0
  -17.6730  -30.6610   24.1030 C   0  0  0  0  0  3  0  0  0  0  0  0
  -16.5640  -29.9010   23.6920 C   0  0  0  0  0  3  0  0  0  0  0  0
  -16.7590  -28.6260   23.1310 C   0  0  0  0  0  3  0  0  0  0  0  0
  -25.8710  -32.5340   23.9390 C   0  0  0  0  0  3  0  0  0  0  0  0
  -25.5440  -33.9440   24.2040 N   0  0  0  0  0  0  0  0  0  0  0  0
  -25.8940  -34.9690   23.4150 C   0  0  0  0  0  0  0  0  0  0  0  0
  -26.5920  -34.8270   22.4070 O   0  0  0  0  0  0  0  0  0  0  0  0
  -24.9190  -34.1250   24.9770 H   0  0  0  0  0  0  0  0  0  0  0  0
  -24.1560  -36.7280   22.9520 C   0  0  0  0  0  1  0  0  0  0  0  0
  -25.3840  -36.3700   23.8030 C   0  0  0  0  0  3  0  0  0  0  0  0
  -27.4940  -37.3120   24.6350 C   0  0  0  0  0  1  0  0  0  0  0  0
  -26.4090  -37.4270   23.6650 N   0  0  0  0  0  0  0  0  0  0  0  0
  -25.9900  -38.3480   23.7620 H   0  0  0  0  0  0  0  0  0  0  0  0
  -26.3410  -31.8160   25.2640 C   0  0  1  0  0  0  0  0  0  0  0  0
  -25.2070  -31.6060   26.2930 C   0  0  0  0  0  1  0  0  0  0  0  0
  -26.9520  -30.4330   24.9450 C   0  0  0  0  0  1  0  0  0  0  0  0
  -27.4560  -32.6460   25.9430 C   0  0  0  0  0  1  0  0  0  0  0  0
  -30.3480  -17.2410   20.5140 C   0  0  0  0  0  2  0  0  0  0  0  0
  -30.1490  -16.0100   19.9000 C   0  0  0  0  0  2  0  0  0  0  0  0
  -30.8570  -14.7170   20.2360 C   0  0  0  0  0  0  0  0  0  0  0  0
  -30.5530  -12.4170   19.3280 C   0  0  0  0  0  2  0  0  0  0  0  0
  -29.6310  -12.4760   18.0920 C   0  0  0  0  0  2  0  0  0  0  0  0
  -28.1530  -12.3520   18.5220 C   0  0  0  0  0  2  0  0  0  0  0  0
  -27.7920  -13.3100   19.6890 C   0  0  0  0  0  3  0  0  0  0  0  0
  -28.8440  -13.2680   20.8120 C   0  0  0  0  0  2  0  0  0  0  0  0
  -30.1570  -13.5330   20.2150 N   0  0  0  0  0  0  0  0  0  0  0  0
  -32.0850  -14.6790   20.1330 O   0  0  0  0  0  0  0  0  0  0  0  0
  -25.4370  -14.0000   20.4270 C   0  0  0  0  0  0  0  0  0  0  0  0
  -24.3370  -13.2720   20.7950 C   0  0  0  0  0  0  0  0  0  0  0  0
  -24.7460  -11.9030   20.7710 C   0  0  0  0  0  0  0  0  0  0  0  0
  -26.4420  -13.0770   20.1900 N   0  0  0  0  0  0  0  0  0  0  0  0
  -26.0340  -11.8110   20.4660 N   0  0  0  0  0  0  0  0  0  0  0  0
  -23.9670  -10.6720   20.9580 C   0  0  0  0  0  0  0  0  0  0  0  0
  -24.3740   -9.6710   21.8680 C   0  0  0  0  0  3  0  0  0  0  0  0
  -23.5980   -8.5060   22.0440 C   0  0  0  0  0  3  0  0  0  0  0  0
  -22.4000   -8.3330   21.3110 C   0  0  0  0  0  0  0  0  0  0  0  0
  -22.0140   -9.3180   20.3880 C   0  0  0  0  0  3  0  0  0  0  0  0
  -22.7900  -10.4750   20.2080 C   0  0  0  0  0  3  0  0  0  0  0  0
  -21.5950   -7.2240   21.4010 O   0  0  0  0  0  0  0  0  0  0  0  0
  -21.5820   -6.4280   22.5180 C   0  0  0  0  0  0  0  0  0  0  0  0
  -21.2690   -6.9410   23.7960 C   0  0  0  0  0  3  0  0  0  0  0  0
  -21.2040   -6.0760   24.9060 C   0  0  0  0  0  3  0  0  0  0  0  0
  -21.4410   -4.6990   24.7410 C   0  0  0  0  0  0  0  0  0  0  0  0
  -21.7490   -4.1840   23.4680 C   0  0  0  0  0  3  0  0  0  0  0  0
  -21.8150   -5.0470   22.3600 C   0  0  0  0  0  0  0  0  0  0  0  0
  -22.0900   -4.5420   21.1330 F   0  0  0  0  0  0  0  0  0  0  0  0
  -21.3720   -3.8660   25.8060 F   0  0  0  0  0  0  0  0  0  0  0  0
  -22.9590  -13.8050   21.0570 C   0  0  0  0  0  0  0  0  0  0  0  0
  -22.2010  -13.1490   21.9320 N   0  0  0  0  0  0  0  0  0  0  0  0
  -22.5610  -14.8350   20.5190 O   0  0  0  0  0  0  0  0  0  0  0  0
  -22.5310  -12.3120   22.3870 H   0  0  0  0  0  0  0  0  0  0  0  0
  -21.2740  -13.4880   22.1470 H   0  0  0  0  0  0  0  0  0  0  0  0
  -25.6650  -15.3630   20.2510 N   0  0  0  0  0  0  0  0  0  0  0  0
  -24.9400  -16.0630   20.3640 H   0  0  0  0  0  0  0  0  0  0  0  0
  -26.5550  -15.7560   19.9710 H   0  0  0  0  0  0  0  0  0  0  0  0
  -31.0490  -22.5690   18.1530 C   0  0  0  0  0  2  0  0  0  0  0  0
  -30.9010  -24.1200   16.2280 C   0  0  0  0  0  0  0  0  0  0  0  0
  -30.4420  -24.1680   14.7840 C   0  0  0  0  0  2  0  0  0  0  0  0
  -30.1600  -22.6990   14.4470 C   0  0  0  0  0  2  0  0  0  0  0  0
  -30.1950  -21.9460   15.7890 C   0  0  0  0  0  2  0  0  0  0  0  0
  -30.7250  -22.9000   16.7570 N   0  0  0  0  0  0  0  0  0  0  0  0
  -31.3770  -25.1010   16.8050 O   0  0  0  0  0  0  0  0  0  0  0  0
  1  4  1  0
  2  1  2  0
  2  5  1  0
  4 53  1  0
  4  3  2  0
  5  6  2  0
  6  3  1  0
  6  8  1  0
  7  8  1  0
  7 11  1  0
  8 10  1  0
  9  7  2  0
 12 11  1  0
 13 24  2  0
 14 12  1  0
 14 19  1  0
 15 23  1  0
 15 25  1  0
 16 18  1  0
 17 23  1  0
 18 19  2  0
 18 17  1  0
 20 14  2  0
 21 20  1  0
 21 16  2  0
 22 16  1  0
 22 15  1  0
 23 13  1  0
 25 27  2  0
 26 25  1  0
 28 26  1  0
 29 38  2  0
 29 34  1  0
 30 26  1  0
 30 34  1  0
 31 30  1  0
 32 33  1  0
 32 31  1  0
 33 29  1  0
 34 35  2  0
 35 36  1  0
 37 36  2  0
 38 37  1  0
 39 13  1  0
 39 40  1  0
 39 49  1  0
 40 43  1  0
 41 45  1  0
 41 40  1  0
 42 41  2  0
 45 44  1  0
 47 48  1  0
 47 45  1  0
 47 46  1  0
 49 52  1  1
 49 50  1  0
 51 49  1  0
 54 55  1  0
 54 53  1  0
 56 61  1  0
 57 58  1  0
 57 56  1  0
 59 58  1  0
 59 66  1  0
 59 60  1  0
 61 55  1  0
 61 60  1  0
 62 55  2  0
 63 64  2  0
 64 83  1  0
 65 64  1  0
 65 68  1  0
 66 63  1  0
 66 67  1  0
 67 65  2  0
 68 69  1  0
 69 70  2  0
 71 74  1  0
 71 70  1  0
 72 71  2  0
 73 72  1  0
 73 68  2  0
 74 75  1  0
 75 76  1  0
 76 77  2  0
 78 77  1  0
 78 82  1  0
 79 78  2  0
 80 75  2  0
 80 79  1  0
 81 80  1  0
 83 84  1  0
 84 87  1  0
 84 86  1  0
 85 83  2  0
 88 89  1  0
 88 63  1  0
 90 88  1  0
 91  5  1  0
 92 96  1  0
 92 97  2  0
 93 92  1  0
 94 93  1  0
 94 95  1  0
 95 96  1  0
 96 91  1  0
M  ISO  4  11 101  12 101  54 100  55 100
M  END
>  <TORSDO>  (31) 
F 21

>  <SCORE>  (31) 
-13.378

>  <name>  (31) 
30

>  <ligand_id>  (31) 
30

>  <original_smiles>  (31) 
[H]C(C(=O)N1C([H])([H])C([H])([H])C([H])([H])C([H])(n2nc(-c3c([H])c([H])c(Oc4c([H])c([H])c(F)c([H])c4F)c([H])c3[H])c(C(=O)N([H])[H])c2N([H])[H])C1([H])[H])=C([H])c1c([H])c([H])c(C([H])([H])N2C(=O)C([H])([H])C([H])([H])C2([H])[H])c(N([H])C(=O)C([H])([H])Oc2c([H])c([H])c3c(c2[H])C([H])([H])N(C(=O)C([H])(N([H])C(=O)C([H])(N([H])C([H])([H])[H])C([H])([H])[H])C(C([H])([H])[H])(C([H])([H])[H])C([H])([H])[H])C([H])(C(=O)N([H])C2([H])c4c([H])c([H])c([H])c([H])c4C([H])([H])C([H])([H])C2([H])[H])C3([H])[H])c1[H]

>  <smiles>  (31) 
[H]C(C(=O)N1C([H])([H])C([H])([H])C([H])([H])C([H])(n2nc(-c3c([H])c([H])c(Oc4c([H])c([H])c(F)c([H])c4F)c([H])c3[H])c(C(=O)N([H])[H])c2N([H])[H])C1([H])[H])=C([H])c1c([H])c([H])c(C([H])([H])N2C(=O)C([H])([H])C([H])([H])C2([H])[H])c(N([H])C(=O)C([H])([H])Oc2c([H])c([H])c3c(c2[H])C([H])([H])N(C(=O)C([H])(N([H])C(=O)C([H])(N([H])C([H])([H])[H])C([H])([H])[H])C(C([H])([H])[H])(C([H])([H])[H])C([H])([H])[H])C([H])(C(=O)N([H])C2([H])c4c([H])c([H])c([H])c([H])c4C([H])([H])C([H])([H])C2([H])[H])C3([H])[H])c1[H]

$$$$
31:0:0
     RDKit          3D

 94102  0  0  1  0  0  0  0  0999 V2000
  -31.8660  -17.6600   20.5490 C   0  0  0  0  0  3  0  0  0  0  0  0
  -31.9540  -19.0730   20.5530 C   0  0  0  0  0  0  0  0  0  0  0  0
  -29.4330  -17.8050   20.4410 C   0  0  0  0  0  0  0  0  0  0  0  0
  -29.5220  -19.2260   20.4120 C   0  0  0  0  0  0  0  0  0  0  0  0
  -30.6100  -17.0060   20.5060 C   0  0  0  0  0  0  0  0  0  0  0  0
  -30.7850  -19.8610   20.4980 C   0  0  0  0  0  0  0  0  0  0  0  0
  -33.3140  -19.7420   20.6420 C   0  0  0  0  0  1  0  0  0  0  0  0
  -28.0490  -17.1600   20.4200 C   0  0  0  0  0  1  0  0  0  0  0  0
  -31.1120  -14.5670   19.9490 C   0  0  0  0  0  0  0  0  0  0  0  0
  -30.7420  -12.3340   18.9490 C   0  0  0  0  0  2  0  0  0  0  0  0
  -29.7740  -12.4830   17.7580 C   0  0  0  0  0  2  0  0  0  0  0  0
  -28.3040  -12.4240   18.2260 C   0  0  0  0  0  2  0  0  0  0  0  0
  -28.0230  -13.3460   19.4410 C   0  0  0  0  0  3  0  0  0  0  0  0
  -29.1020  -13.1470   20.5320 C   0  0  0  0  0  2  0  0  0  0  0  0
  -30.4230  -13.3890   19.9210 N   0  0  0  0  0  0  0  0  0  0  0  0
  -32.2010  -14.7060   19.3840 O   0  0  0  0  0  0  0  0  0  0  0  0
  -30.4630  -15.5770   20.5670 N   0  0  0  0  0  0  0  0  0  0  0  0
  -29.6080  -15.2690   21.0040 H   0  0  0  0  0  0  0  0  0  0  0  0
  -25.6970  -14.0860   20.2610 C   0  0  0  0  0  0  0  0  0  0  0  0
  -24.5990  -13.3790   20.6700 C   0  0  0  0  0  0  0  0  0  0  0  0
  -24.9650  -12.0020   20.5810 C   0  0  0  0  0  0  0  0  0  0  0  0
  -26.6730  -13.1470   19.9680 N   0  0  0  0  0  0  0  0  0  0  0  0
  -26.2350  -11.8850   20.2100 N   0  0  0  0  0  0  0  0  0  0  0  0
  -24.1600  -10.7880   20.7710 C   0  0  0  0  0  0  0  0  0  0  0  0
  -24.5810   -9.7520   21.6340 C   0  0  0  0  0  3  0  0  0  0  0  0
  -23.7840   -8.6010   21.8130 C   0  0  0  0  0  3  0  0  0  0  0  0
  -22.5500   -8.4790   21.1300 C   0  0  0  0  0  0  0  0  0  0  0  0
  -22.1470   -9.5030   20.2550 C   0  0  0  0  0  3  0  0  0  0  0  0
  -22.9430  -10.6460   20.0730 C   0  0  0  0  0  3  0  0  0  0  0  0
  -21.7230   -7.3860   21.2240 O   0  0  0  0  0  0  0  0  0  0  0  0
  -21.7280   -6.5720   22.3290 C   0  0  0  0  0  0  0  0  0  0  0  0
  -21.4860   -7.0730   23.6260 C   0  0  0  0  0  3  0  0  0  0  0  0
  -21.4330   -6.1900   24.7240 C   0  0  0  0  0  3  0  0  0  0  0  0
  -21.6130   -4.8070   24.5240 C   0  0  0  0  0  0  0  0  0  0  0  0
  -21.8460   -4.3060   23.2310 C   0  0  0  0  0  3  0  0  0  0  0  0
  -21.9020   -5.1860   22.1370 C   0  0  0  0  0  0  0  0  0  0  0  0
  -22.1080   -4.6960   20.8910 F   0  0  0  0  0  0  0  0  0  0  0  0
  -21.5530   -3.9570   25.5760 F   0  0  0  0  0  0  0  0  0  0  0  0
  -23.2510  -13.9440   21.0200 C   0  0  0  0  0  0  0  0  0  0  0  0
  -22.5200  -13.2820   21.9100 N   0  0  0  0  0  0  0  0  0  0  0  0
  -22.8570  -15.0040   20.5380 O   0  0  0  0  0  0  0  0  0  0  0  0
  -22.8460  -12.4230   22.3250 H   0  0  0  0  0  0  0  0  0  0  0  0
  -21.6140  -13.6420   22.1830 H   0  0  0  0  0  0  0  0  0  0  0  0
  -25.9350  -15.4440   20.0940 N   0  0  0  0  0  0  0  0  0  0  0  0
  -25.2040  -16.1320   20.2320 H   0  0  0  0  0  0  0  0  0  0  0  0
  -26.7740  -15.8300   19.6780 H   0  0  0  0  0  0  0  0  0  0  0  0
  -28.0720  -20.9820   21.5520 C   0  0  0  0  0  1  0  0  0  0  0  0
  -28.2710  -20.1020   20.3170 C   0  0  0  0  0  2  0  0  0  0  0  0
  -30.8610  -21.2310   20.6520 O   0  0  0  0  0  0  0  0  0  0  0  0
  -30.3610  -22.0360   19.5830 C   0  0  0  0  0  2  0  0  0  0  0  0
  -29.7500  -23.3380   20.1620 C   0  0  0  0  0  2  0  0  0  0  0  0
  -29.1480  -24.2950   19.1020 C   0  0  0  0  0  2  0  0  0  0  0  0
  -28.5130  -25.5680   19.7110 C   0  0  0  0  0  2  0  0  0  0  0  0
  -28.2100  -26.5540   18.7170 O   0  0  0  0  0  0  0  0  0  0  0  0
  -24.7610  -31.3430   22.7380 C   0  0  0  0  0  0  0  0  0  0  0  0
  -27.0660  -27.2830   18.9450 C   0  0  0  0  0  0  0  0  0  0  0  0
  -23.3980  -30.1580   21.0460 C   0  0  0  0  0  3  0  0  0  0  0  0
  -24.7060  -28.7830   19.3370 C   0  0  0  0  0  0  0  0  0  0  0  0
  -25.9090  -30.5150   20.6860 C   0  0  0  0  0  2  0  0  0  0  0  0
  -25.9170  -29.2310   19.8810 C   0  0  0  0  0  0  0  0  0  0  0  0
  -27.1030  -28.4900   19.6770 C   0  0  0  0  0  3  0  0  0  0  0  0
  -25.8400  -26.8410   18.4060 C   0  0  0  0  0  3  0  0  0  0  0  0
  -24.6610  -27.5880   18.5960 C   0  0  0  0  0  3  0  0  0  0  0  0
  -23.4850  -29.6420   19.5840 C   0  0  0  0  0  2  0  0  0  0  0  0
  -24.7110  -30.6800   21.5460 N   0  0  0  0  0  0  0  0  0  0  0  0
  -23.7330  -31.5590   23.3930 O   0  0  0  0  0  0  0  0  0  0  0  0
  -22.8060  -29.0370   21.9300 C   0  0  0  0  0  0  0  0  0  0  0  0
  -21.4700  -28.9020   21.9140 N   0  0  0  0  0  0  0  0  0  0  0  0
  -23.5440  -28.2950   22.5850 O   0  0  0  0  0  0  0  0  0  0  0  0
  -20.9370  -29.5560   21.3580 H   0  0  0  0  0  0  0  0  0  0  0  0
  -18.1170  -27.7380   22.5940 C   0  0  0  0  0  0  0  0  0  0  0  0
  -20.6960  -27.8910   22.6340 C   0  0  0  0  0  3  0  0  0  0  0  0
  -20.6850  -26.5470   21.8710 C   0  0  0  0  0  2  0  0  0  0  0  0
  -19.4790  -26.3900   20.9410 C   0  0  0  0  0  2  0  0  0  0  0  0
  -18.1730  -26.4850   21.7360 C   0  0  0  0  0  2  0  0  0  0  0  0
  -19.3000  -28.4060   23.0020 C   0  0  0  0  0  0  0  0  0  0  0  0
  -19.1930  -29.5850   23.7690 C   0  0  0  0  0  3  0  0  0  0  0  0
  -17.9320  -30.0990   24.1270 C   0  0  0  0  0  3  0  0  0  0  0  0
  -16.7630  -29.4230   23.7370 C   0  0  0  0  0  3  0  0  0  0  0  0
  -16.8560  -28.2420   22.9790 C   0  0  0  0  0  3  0  0  0  0  0  0
  -26.1060  -31.8830   23.3190 C   0  0  0  0  0  3  0  0  0  0  0  0
  -25.8340  -33.1980   23.9140 N   0  0  0  0  0  0  0  0  0  0  0  0
  -26.1340  -34.3700   23.3370 C   0  0  0  0  0  0  0  0  0  0  0  0
  -26.7410  -34.4540   22.2660 O   0  0  0  0  0  0  0  0  0  0  0  0
  -25.2840  -33.2070   24.7600 H   0  0  0  0  0  0  0  0  0  0  0  0
  -24.4210  -36.2110   23.4030 C   0  0  0  0  0  1  0  0  0  0  0  0
  -25.6900  -35.6540   24.0660 C   0  0  0  0  0  3  0  0  0  0  0  0
  -27.8770  -36.3440   24.9420 C   0  0  0  0  0  1  0  0  0  0  0  0
  -26.7350  -36.7000   24.1040 N   0  0  0  0  0  0  0  0  0  0  0  0
  -26.3520  -37.5800   24.4430 H   0  0  0  0  0  0  0  0  0  0  0  0
  -26.7600  -30.9140   24.3800 C   0  0  1  0  0  0  0  0  0  0  0  0
  -25.7890  -30.4820   25.5040 C   0  0  0  0  0  1  0  0  0  0  0  0
  -27.2940  -29.6340   23.6970 C   0  0  0  0  0  1  0  0  0  0  0  0
  -27.9810  -31.6020   25.0380 C   0  0  0  0  0  1  0  0  0  0  0  0
  1  2  1  0
  2  7  1  0
  3  5  1  0
  4  3  2  0
  4  6  1  0
  5  1  2  0
  5 17  1  0
  6  2  2  0
  6 49  1  0
  8  3  1  0
  9 17  1  0
 10 15  1  0
 11 12  1  0
 11 10  1  0
 13 12  1  0
 13 22  1  0
 13 14  1  0
 15  9  1  0
 15 14  1  0
 16  9  2  0
 17 18  1  0
 19 20  2  0
 20 39  1  0
 21 20  1  0
 21 24  1  0
 22 23  1  0
 22 19  1  0
 23 21  2  0
 24 25  1  0
 25 26  2  0
 27 30  1  0
 27 26  1  0
 28 27  2  0
 29 28  1  0
 29 24  2  0
 30 31  1  0
 31 32  1  0
 32 33  2  0
 34 33  1  0
 34 38  1  0
 35 34  2  0
 36 31  2  0
 36 35  1  0
 37 36  1  0
 39 40  1  0
 40 43  1  0
 40 42  1  0
 41 39  2  0
 44 45  1  0
 44 19  1  0
 46 44  1  0
 48  4  1  0
 48 47  1  0
 50 51  1  0
 50 49  1  0
 52 53  1  0
 52 51  1  0
 54 56  1  0
 54 53  1  0
 55 66  2  0
 56 61  1  0
 57 65  1  0
 57 67  1  0
 58 64  1  0
 58 60  1  0
 59 65  1  0
 60 59  1  0
 61 60  2  0
 62 63  1  0
 62 56  2  0
 63 58  2  0
 64 57  1  0
 65 55  1  0
 67 69  2  0
 68 67  1  0
 70 68  1  0
 71 80  2  0
 71 76  1  0
 72 68  1  0
 72 76  1  0
 73 72  1  0
 74 75  1  0
 74 73  1  0
 75 71  1  0
 76 77  2  0
 77 78  1  0
 79 78  2  0
 80 79  1  0
 81 55  1  0
 81 82  1  0
 81 91  1  0
 82 85  1  0
 83 82  1  0
 83 87  1  0
 84 83  2  0
 87 86  1  0
 87 89  1  0
 89 90  1  0
 89 88  1  0
 91 94  1  1
 91 92  1  0
 93 91  1  0
M  ISO  4   9 100  17 100  53 101  54 101
M  END
>  <TORSDO>  (32) 
F 22

>  <SCORE>  (32) 
-11.179

>  <name>  (32) 
31

>  <ligand_id>  (32) 
31

>  <original_smiles>  (32) 
[H]c1c([H])c([H])c2c(c1[H])C([H])([H])C([H])([H])C([H])([H])C2([H])N([H])C(=O)C1([H])N(C(=O)C([H])(N([H])C(=O)C([H])(N([H])C([H])([H])[H])C([H])([H])[H])C(C([H])([H])[H])(C([H])([H])[H])C([H])([H])[H])C([H])([H])c2c([H])c(OC([H])([H])C([H])([H])C([H])([H])C([H])([H])Oc3c(C([H])([H])[H])c([H])c(N([H])C(=O)N4C([H])([H])C([H])([H])C([H])([H])C([H])(n5nc(-c6c([H])c([H])c(Oc7c([H])c([H])c(F)c([H])c7F)c([H])c6[H])c(C(=O)N([H])[H])c5N([H])[H])C4([H])[H])c(C([H])([H])[H])c3C([H])([H])C([H])([H])[H])c([H])c([H])c2C1([H])[H]

>  <smiles>  (32) 
[H]c1c([H])c([H])c2c(c1[H])C([H])([H])C([H])([H])C([H])([H])C2([H])N([H])C(=O)C1([H])N(C(=O)C([H])(N([H])C(=O)C([H])(N([H])C([H])([H])[H])C([H])([H])[H])C(C([H])([H])[H])(C([H])([H])[H])C([H])([H])[H])C([H])([H])c2c([H])c(OC([H])([H])C([H])([H])C([H])([H])C([H])([H])Oc3c(C([H])([H])[H])c([H])c(N([H])C(=O)N4C([H])([H])C([H])([H])C([H])([H])C([H])(n5nc(-c6c([H])c([H])c(Oc7c([H])c([H])c(F)c([H])c7F)c([H])c6[H])c(C(=O)N([H])[H])c5N([H])[H])C4([H])[H])c(C([H])([H])[H])c3C([H])([H])C([H])([H])[H])c([H])c([H])c2C1([H])[H]

$$$$
32:0:0
     RDKit          3D

 93101  0  0  1  0  0  0  0  0999 V2000
  -30.0270  -19.6810   20.8390 C   0  0  0  0  0  3  0  0  0  0  0  0
  -28.4040  -17.5130   20.1640 C   0  0  0  0  0  3  0  0  0  0  0  0
  -30.5540  -18.3410   20.8430 C   0  0  0  0  0  0  0  0  0  0  0  0
  -28.6900  -19.9810   20.4520 C   0  0  0  0  0  0  0  0  0  0  0  0
  -29.7540  -17.2050   20.4860 C   0  0  0  0  0  0  0  0  0  0  0  0
  -27.8920  -18.8430   20.1470 C   0  0  0  0  0  0  0  0  0  0  0  0
  -32.0330  -18.1660   21.1380 C   0  0  0  0  0  1  0  0  0  0  0  0
  -26.6070  -19.0290   19.7550 F   0  0  0  0  0  0  0  0  0  0  0  0
  -30.8770  -14.8750   20.8530 C   0  0  0  0  0  0  0  0  0  0  0  0
  -30.7640  -12.5200   20.0600 C   0  0  0  0  0  2  0  0  0  0  0  0
  -29.9590  -12.4600   18.7440 C   0  0  0  0  0  2  0  0  0  0  0  0
  -28.4590  -12.3110   19.0510 C   0  0  0  0  0  2  0  0  0  0  0  0
  -27.9500  -13.3070   20.1310 C   0  0  0  0  0  3  0  0  0  0  0  0
  -28.8930  -13.3710   21.3490 C   0  0  0  0  0  2  0  0  0  0  0  0
  -30.2320  -13.6620   20.8290 N   0  0  0  0  0  0  0  0  0  0  0  0
  -32.1060  -14.8880   20.9570 O   0  0  0  0  0  0  0  0  0  0  0  0
  -30.3060  -15.8890   20.0800 N   0  0  0  0  0  0  0  0  0  0  0  0
  -25.5070  -13.9070   20.6270 C   0  0  0  0  0  0  0  0  0  0  0  0
  -24.4150  -13.1370   20.9110 C   0  0  0  0  0  0  0  0  0  0  0  0
  -24.8860  -11.7890   20.9740 C   0  0  0  0  0  0  0  0  0  0  0  0
  -26.5730  -13.0290   20.5180 N   0  0  0  0  0  0  0  0  0  0  0  0
  -26.2020  -11.7540   20.7990 N   0  0  0  0  0  0  0  0  0  0  0  0
  -24.1540  -10.5270   21.1340 C   0  0  0  0  0  0  0  0  0  0  0  0
  -24.5160   -9.5830   22.1210 C   0  0  0  0  0  3  0  0  0  0  0  0
  -23.7810   -8.3860   22.2690 C   0  0  0  0  0  3  0  0  0  0  0  0
  -22.6730   -8.1260   21.4280 C   0  0  0  0  0  0  0  0  0  0  0  0
  -22.3310   -9.0590   20.4330 C   0  0  0  0  0  3  0  0  0  0  0  0
  -23.0660  -10.2470   20.2830 C   0  0  0  0  0  3  0  0  0  0  0  0
  -21.9170   -6.9810   21.4810 O   0  0  0  0  0  0  0  0  0  0  0  0
  -21.7920   -6.2540   22.6380 C   0  0  0  0  0  0  0  0  0  0  0  0
  -21.2530   -6.8160   23.8170 C   0  0  0  0  0  3  0  0  0  0  0  0
  -21.0770   -6.0130   24.9610 C   0  0  0  0  0  3  0  0  0  0  0  0
  -21.4310   -4.6500   24.9280 C   0  0  0  0  0  0  0  0  0  0  0  0
  -21.9650   -4.0900   23.7550 C   0  0  0  0  0  3  0  0  0  0  0  0
  -22.1430   -4.8900   22.6120 C   0  0  0  0  0  0  0  0  0  0  0  0
  -22.6340   -4.3380   21.4770 F   0  0  0  0  0  0  0  0  0  0  0  0
  -21.2550   -3.8790   26.0270 F   0  0  0  0  0  0  0  0  0  0  0  0
  -22.9940  -13.6100   21.0240 C   0  0  0  0  0  0  0  0  0  0  0  0
  -22.1980  -12.9530   21.8590 N   0  0  0  0  0  0  0  0  0  0  0  0
  -22.5990  -14.5970   20.4090 O   0  0  0  0  0  0  0  0  0  0  0  0
  -22.5310  -12.1510   22.3730 H   0  0  0  0  0  0  0  0  0  0  0  0
  -21.2430  -13.2550   21.9860 H   0  0  0  0  0  0  0  0  0  0  0  0
  -25.6790  -15.2720   20.4270 N   0  0  0  0  0  0  0  0  0  0  0  0
  -24.9090  -15.9310   20.4710 H   0  0  0  0  0  0  0  0  0  0  0  0
  -26.5710  -15.7120   20.2580 H   0  0  0  0  0  0  0  0  0  0  0  0
  -30.7580  -16.9340   17.8630 C   0  0  0  0  0  2  0  0  0  0  0  0
  -30.8050  -15.9140   18.7470 C   0  0  0  0  0  3  0  0  0  0  0  0
  -28.6120  -22.4870   20.3890 C   0  0  0  0  0  3  0  0  0  0  0  0
  -28.0890  -21.2920   20.3030 N   0  0  0  0  0  0  0  0  0  0  0  0
  -26.3350  -23.6610   20.4880 C   0  0  0  0  0  1  0  0  0  0  0  0
  -27.8140  -23.8390   20.0680 C   0  0  0  0  0  3  0  0  0  0  0  0
  -28.3640  -25.2380   20.6440 C   0  0  0  0  0  2  0  0  0  0  0  0
  -28.2770  -26.5440   19.9320 O   0  0  0  0  0  0  0  0  0  0  0  0
  -24.5740  -31.8580   23.1760 C   0  0  0  0  0  0  0  0  0  0  0  0
  -27.1460  -27.3630   20.0040 C   0  0  0  0  0  0  0  0  0  0  0  0
  -23.3550  -30.4950   21.5150 C   0  0  0  0  0  3  0  0  0  0  0  0
  -24.7910  -28.9780   20.0390 C   0  0  0  0  0  0  0  0  0  0  0  0
  -25.8920  -30.8190   21.3150 C   0  0  0  0  0  2  0  0  0  0  0  0
  -25.9610  -29.4530   20.6410 C   0  0  0  0  0  0  0  0  0  0  0  0
  -27.1460  -28.6570   20.6110 C   0  0  0  0  0  3  0  0  0  0  0  0
  -25.9660  -26.9500   19.3620 C   0  0  0  0  0  3  0  0  0  0  0  0
  -24.7960  -27.7330   19.3880 C   0  0  0  0  0  3  0  0  0  0  0  0
  -23.5540  -29.8520   20.1180 C   0  0  0  0  0  2  0  0  0  0  0  0
  -24.6260  -31.0760   22.0580 N   0  0  0  0  0  0  0  0  0  0  0  0
  -23.4960  -32.1200   23.7270 O   0  0  0  0  0  0  0  0  0  0  0  0
  -22.7030  -29.4540   22.4580 C   0  0  0  0  0  0  0  0  0  0  0  0
  -21.3750  -29.2840   22.3480 N   0  0  0  0  0  0  0  0  0  0  0  0
  -23.3920  -28.8040   23.2490 O   0  0  0  0  0  0  0  0  0  0  0  0
  -20.8770  -29.8580   21.6830 H   0  0  0  0  0  0  0  0  0  0  0  0
  -17.9990  -28.0990   22.8830 C   0  0  0  0  0  0  0  0  0  0  0  0
  -20.5650  -28.3280   23.1060 C   0  0  0  0  0  3  0  0  0  0  0  0
  -20.6420  -26.9160   22.4800 C   0  0  0  0  0  2  0  0  0  0  0  0
  -19.5150  -26.6350   21.4800 C   0  0  0  0  0  2  0  0  0  0  0  0
  -18.1480  -26.7720   22.1590 C   0  0  0  0  0  2  0  0  0  0  0  0
  -19.1340  -28.8370   23.3130 C   0  0  0  0  0  0  0  0  0  0  0  0
  -18.9410  -30.0800   23.9510 C   0  0  0  0  0  3  0  0  0  0  0  0
  -17.6450  -30.5890   24.1620 C   0  0  0  0  0  3  0  0  0  0  0  0
  -16.5250  -29.8460   23.7510 C   0  0  0  0  0  3  0  0  0  0  0  0
  -16.7030  -28.6030   23.1180 C   0  0  0  0  0  3  0  0  0  0  0  0
  -25.8620  -32.4790   23.7980 C   0  0  0  0  0  3  0  0  0  0  0  0
  -26.3870  -31.6870   25.0570 C   0  0  1  0  0  0  0  0  0  0  0  0
  -25.3000  -31.4330   26.1290 C   0  0  0  0  0  1  0  0  0  0  0  0
  -26.9670  -30.3150   24.6420 C   0  0  0  0  0  1  0  0  0  0  0  0
  -27.5460  -32.4690   25.7220 C   0  0  0  0  0  1  0  0  0  0  0  0
  -25.5580  -33.8730   24.1540 N   0  0  0  0  0  0  0  0  0  0  0  0
  -25.8980  -34.9400   23.4170 C   0  0  0  0  0  0  0  0  0  0  0  0
  -26.5730  -34.8520   22.3880 O   0  0  0  0  0  0  0  0  0  0  0  0
  -24.9690  -34.0170   24.9610 H   0  0  0  0  0  0  0  0  0  0  0  0
  -24.1960  -36.7590   23.0730 C   0  0  0  0  0  1  0  0  0  0  0  0
  -25.4160  -36.3210   23.9000 C   0  0  0  0  0  3  0  0  0  0  0  0
  -27.5310  -37.1650   24.8110 C   0  0  0  0  0  1  0  0  0  0  0  0
  -26.4600  -37.3660   23.8390 N   0  0  0  0  0  0  0  0  0  0  0  0
  -26.0580  -38.2870   23.9970 H   0  0  0  0  0  0  0  0  0  0  0  0
  1  3  1  0
  2  5  1  0
  3  7  1  0
  4  1  2  0
  5  3  2  0
  6  2  2  0
  6  4  1  0
  8  6  1  0
  9 16  2  0
 10 15  1  0
 11 12  1  0
 11 10  1  0
 13 12  1  0
 13 21  1  0
 13 14  1  0
 15  9  1  0
 15 14  1  0
 17  5  1  0
 17  9  1  0
 18 19  2  0
 19 20  1  0
 19 38  1  0
 20 23  1  0
 21 18  1  0
 21 22  1  0
 22 20  2  0
 23 24  1  0
 24 25  2  0
 26 29  1  0
 26 25  1  0
 27 26  2  0
 28 27  1  0
 28 23  2  0
 29 30  1  0
 30 31  1  0
 31 32  2  0
 33 32  1  0
 33 37  1  0
 34 33  2  0
 35 30  2  0
 35 34  1  0
 36 35  1  0
 38 39  1  0
 39 42  1  0
 39 41  1  0
 40 38  2  0
 43 44  1  0
 43 18  1  0
 45 43  1  0
 46 47  2  0
 47 17  1  0
 49 48  2  0
 49  4  1  0
 51 48  1  0
 51 50  1  0
 51 52  1  0
 53 55  1  0
 53 52  1  0
 54 65  2  0
 55 60  1  0
 56 64  1  0
 56 66  1  0
 57 63  1  0
 57 59  1  0
 58 64  1  0
 59 58  1  0
 60 59  2  0
 61 62  1  0
 61 55  2  0
 62 57  2  0
 63 56  1  0
 64 54  1  0
 66 68  2  0
 67 66  1  0
 69 67  1  0
 70 79  2  0
 70 75  1  0
 71 67  1  0
 71 75  1  0
 72 71  1  0
 73 74  1  0
 73 72  1  0
 74 70  1  0
 75 76  2  0
 76 77  1  0
 78 77  2  0
 79 78  1  0
 80 54  1  0
 80 85  1  0
 80 81  1  0
 81 84  1  1
 81 82  1  0
 83 81  1  0
 85 88  1  0
 86 90  1  0
 86 85  1  0
 87 86  2  0
 90 89  1  0
 92 90  1  0
 92 93  1  0
 92 91  1  0
M  ISO  4   9 100  17 100  52 101  53 101
M  END
>  <TORSDO>  (33) 
F 20

>  <SCORE>  (33) 
-13.656

>  <name>  (33) 
32

>  <ligand_id>  (33) 
32

>  <original_smiles>  (33) 
[H]C(=Nc1c([H])c(C([H])([H])[H])c(N(C(=O)N2C([H])([H])C([H])([H])C([H])([H])C([H])(n3nc(-c4c([H])c([H])c(Oc5c([H])c([H])c(F)c([H])c5F)c([H])c4[H])c(C(=O)N([H])[H])c3N([H])[H])C2([H])[H])C([H])=C([H])[H])c([H])c1F)C([H])(C([H])([H])[H])C([H])([H])Oc1c([H])c([H])c2c(c1[H])C([H])([H])N(C(=O)C([H])(N([H])C(=O)C([H])(N([H])C([H])([H])[H])C([H])([H])[H])C(C([H])([H])[H])(C([H])([H])[H])C([H])([H])[H])C([H])(C(=O)N([H])C1([H])c3c([H])c([H])c([H])c([H])c3C([H])([H])C([H])([H])C1([H])[H])C2([H])[H]

>  <smiles>  (33) 
[H]C(=Nc1c([H])c(C([H])([H])[H])c(N(C(=O)N2C([H])([H])C([H])([H])C([H])([H])C([H])(n3nc(-c4c([H])c([H])c(Oc5c([H])c([H])c(F)c([H])c5F)c([H])c4[H])c(C(=O)N([H])[H])c3N([H])[H])C2([H])[H])C([H])=C([H])[H])c([H])c1F)C([H])(C([H])([H])[H])C([H])([H])Oc1c([H])c([H])c2c(c1[H])C([H])([H])N(C(=O)C([H])(N([H])C(=O)C([H])(N([H])C([H])([H])[H])C([H])([H])[H])C(C([H])([H])[H])(C([H])([H])[H])C([H])([H])[H])C([H])(C(=O)N([H])C1([H])c3c([H])c([H])c([H])c([H])c3C([H])([H])C([H])([H])C1([H])[H])C2([H])[H]

$$$$
33:0:0
     RDKit          3D

 95103  0  0  1  0  0  0  0  0999 V2000
  -30.1290  -20.3220   19.2620 C   0  0  0  0  0  3  0  0  0  0  0  0
  -30.1300  -19.7990   21.6280 C   0  0  0  0  0  3  0  0  0  0  0  0
  -30.0680  -17.9710   19.9880 C   0  0  0  0  0  0  0  0  0  0  0  0
  -30.1290  -20.7760   20.6050 C   0  0  0  0  0  0  0  0  0  0  0  0
  -30.0950  -18.9450   18.9590 C   0  0  0  0  0  0  0  0  0  0  0  0
  -30.0870  -18.4160   21.3330 C   0  0  0  0  0  0  0  0  0  0  0  0
  -30.0270  -17.5280   22.3560 F   0  0  0  0  0  0  0  0  0  0  0  0
  -29.6340  -23.0360   20.2250 C   0  0  0  0  0  3  0  0  0  0  0  0
  -30.1700  -22.1400   20.9650 N   0  0  0  0  0  0  0  0  0  0  0  0
  -30.9160  -25.1880   19.8710 C   0  0  0  0  0  1  0  0  0  0  0  0
  -29.6780  -24.5380   20.5180 C   0  0  0  0  0  3  0  0  0  0  0  0
  -28.3820  -25.2370   20.0560 C   0  0  0  0  0  2  0  0  0  0  0  0
  -28.4190  -26.6400   20.3480 O   0  0  0  0  0  0  0  0  0  0  0  0
  -24.5210  -31.8310   23.2350 C   0  0  0  0  0  0  0  0  0  0  0  0
  -27.2310  -27.3410   20.2870 C   0  0  0  0  0  0  0  0  0  0  0  0
  -23.3470  -30.3920   21.6030 C   0  0  0  0  0  3  0  0  0  0  0  0
  -24.8270  -28.8360   20.2300 C   0  0  0  0  0  0  0  0  0  0  0  0
  -25.8750  -30.7560   21.4420 C   0  0  0  0  0  2  0  0  0  0  0  0
  -25.9720  -29.3740   20.8270 C   0  0  0  0  0  0  0  0  0  0  0  0
  -27.1760  -28.6350   20.8510 C   0  0  0  0  0  3  0  0  0  0  0  0
  -26.0650  -26.8180   19.6770 C   0  0  0  0  0  3  0  0  0  0  0  0
  -24.8700  -27.5570   19.6510 C   0  0  0  0  0  3  0  0  0  0  0  0
  -23.5800  -29.6900   20.2400 C   0  0  0  0  0  2  0  0  0  0  0  0
  -24.5980  -31.0080   22.1520 N   0  0  0  0  0  0  0  0  0  0  0  0
  -23.4300  -32.1120   23.7500 O   0  0  0  0  0  0  0  0  0  0  0  0
  -22.6840  -29.3860   22.5710 C   0  0  0  0  0  0  0  0  0  0  0  0
  -21.3660  -29.1840   22.4130 N   0  0  0  0  0  0  0  0  0  0  0  0
  -23.3520  -28.7910   23.4220 O   0  0  0  0  0  0  0  0  0  0  0  0
  -20.8900  -29.7180   21.6980 H   0  0  0  0  0  0  0  0  0  0  0  0
  -17.9930  -27.9630   22.8380 C   0  0  0  0  0  0  0  0  0  0  0  0
  -20.5370  -28.2570   23.1820 C   0  0  0  0  0  3  0  0  0  0  0  0
  -20.6730  -26.8130   22.6480 C   0  0  0  0  0  2  0  0  0  0  0  0
  -19.6070  -26.4500   21.6090 C   0  0  0  0  0  2  0  0  0  0  0  0
  -18.2040  -26.5960   22.2060 C   0  0  0  0  0  2  0  0  0  0  0  0
  -19.0880  -28.7490   23.2810 C   0  0  0  0  0  0  0  0  0  0  0  0
  -18.8380  -30.0270   23.8280 C   0  0  0  0  0  3  0  0  0  0  0  0
  -17.5240  -30.5180   23.9360 C   0  0  0  0  0  3  0  0  0  0  0  0
  -16.4420  -29.7290   23.5110 C   0  0  0  0  0  3  0  0  0  0  0  0
  -16.6770  -28.4530   22.9690 C   0  0  0  0  0  3  0  0  0  0  0  0
  -25.7930  -32.4760   23.8660 C   0  0  0  0  0  3  0  0  0  0  0  0
  -25.4740  -33.8750   24.1750 N   0  0  0  0  0  0  0  0  0  0  0  0
  -25.7990  -34.9180   23.4000 C   0  0  0  0  0  0  0  0  0  0  0  0
  -26.4720  -34.8060   22.3720 O   0  0  0  0  0  0  0  0  0  0  0  0
  -24.8750  -34.0370   24.9720 H   0  0  0  0  0  0  0  0  0  0  0  0
  -24.0490  -36.6840   23.0170 C   0  0  0  0  0  1  0  0  0  0  0  0
  -25.2960  -36.3090   23.8350 C   0  0  0  0  0  3  0  0  0  0  0  0
  -27.4190  -37.2320   24.6490 C   0  0  0  0  0  1  0  0  0  0  0  0
  -26.3170  -37.3710   23.7020 N   0  0  0  0  0  0  0  0  0  0  0  0
  -25.9000  -38.2900   23.8330 H   0  0  0  0  0  0  0  0  0  0  0  0
  -26.3020  -31.7210   25.1540 C   0  0  1  0  0  0  0  0  0  0  0  0
  -25.2000  -31.4760   26.2110 C   0  0  0  0  0  1  0  0  0  0  0  0
  -26.9050  -30.3470   24.7770 C   0  0  0  0  0  1  0  0  0  0  0  0
  -27.4360  -32.5310   25.8240 C   0  0  0  0  0  1  0  0  0  0  0  0
  -29.8980  -16.5020   19.5810 C   0  0  0  0  0  2  0  0  0  0  0  0
  -30.9740  -14.3680   20.0630 C   0  0  0  0  0  0  0  0  0  0  0  0
  -30.5630  -12.2410   18.8990 C   0  0  0  0  0  2  0  0  0  0  0  0
  -29.5890  -12.5320   17.7340 C   0  0  0  0  0  2  0  0  0  0  0  0
  -28.1230  -12.4620   18.2090 C   0  0  0  0  0  2  0  0  0  0  0  0
  -27.8760  -13.2720   19.5090 C   0  0  0  0  0  3  0  0  0  0  0  0
  -28.9550  -12.9530   20.5740 C   0  0  0  0  0  2  0  0  0  0  0  0
  -30.2780  -13.2020   19.9770 N   0  0  0  0  0  0  0  0  0  0  0  0
  -32.0790  -14.5380   19.5400 O   0  0  0  0  0  0  0  0  0  0  0  0
  -30.2440  -15.4090   20.5030 N   0  0  0  0  0  0  0  0  0  0  0  0
  -29.4820  -15.1430   21.1070 H   0  0  0  0  0  0  0  0  0  0  0  0
  -25.5240  -13.9930   20.2750 C   0  0  0  0  0  0  0  0  0  0  0  0
  -24.4350  -13.2700   20.6770 C   0  0  0  0  0  0  0  0  0  0  0  0
  -24.8360  -11.8980   20.6390 C   0  0  0  0  0  0  0  0  0  0  0  0
  -26.5250  -13.0650   20.0220 N   0  0  0  0  0  0  0  0  0  0  0  0
  -26.1140  -11.8020   20.2970 N   0  0  0  0  0  0  0  0  0  0  0  0
  -24.0650  -10.6670   20.8530 C   0  0  0  0  0  0  0  0  0  0  0  0
  -24.4670   -9.7010   21.8030 C   0  0  0  0  0  3  0  0  0  0  0  0
  -23.6980   -8.5350   22.0060 C   0  0  0  0  0  3  0  0  0  0  0  0
  -22.5140   -8.3270   21.2590 C   0  0  0  0  0  0  0  0  0  0  0  0
  -22.1340   -9.2800   20.2960 C   0  0  0  0  0  3  0  0  0  0  0  0
  -22.9020  -10.4370   20.0910 C   0  0  0  0  0  3  0  0  0  0  0  0
  -21.7170   -7.2140   21.3690 O   0  0  0  0  0  0  0  0  0  0  0  0
  -21.6120   -6.5180   22.5470 C   0  0  0  0  0  0  0  0  0  0  0  0
  -21.1620   -7.1330   23.7370 C   0  0  0  0  0  3  0  0  0  0  0  0
  -21.0030   -6.3670   24.9090 C   0  0  0  0  0  3  0  0  0  0  0  0
  -21.2830   -4.9880   24.8910 C   0  0  0  0  0  0  0  0  0  0  0  0
  -21.7270   -4.3730   23.7070 C   0  0  0  0  0  3  0  0  0  0  0  0
  -21.8890   -5.1370   22.5380 C   0  0  0  0  0  0  0  0  0  0  0  0
  -22.2950   -4.5350   21.3950 F   0  0  0  0  0  0  0  0  0  0  0  0
  -21.1230   -4.2490   26.0140 F   0  0  0  0  0  0  0  0  0  0  0  0
  -23.0680  -13.8050   20.9920 C   0  0  0  0  0  0  0  0  0  0  0  0
  -22.3470  -13.1430   21.8900 N   0  0  0  0  0  0  0  0  0  0  0  0
  -22.6500  -14.8420   20.4760 O   0  0  0  0  0  0  0  0  0  0  0  0
  -22.7010  -12.3020   22.3200 H   0  0  0  0  0  0  0  0  0  0  0  0
  -21.4300  -13.4780   22.1470 H   0  0  0  0  0  0  0  0  0  0  0  0
  -25.7480  -15.3550   20.0870 N   0  0  0  0  0  0  0  0  0  0  0  0
  -25.0230  -16.0520   20.2200 H   0  0  0  0  0  0  0  0  0  0  0  0
  -26.6030  -15.7490   19.7190 H   0  0  0  0  0  0  0  0  0  0  0  0
  -30.0450  -18.5580   17.6450 O   0  0  0  0  0  0  0  0  0  0  0  0
  -31.1910  -17.7560   15.6940 C   0  0  0  0  0  1  0  0  0  0  0  0
  -31.3220  -18.5020   17.0260 C   0  0  0  0  0  2  0  0  0  0  0  0
  1  4  1  0
  3  6  2  0
  4  9  1  0
  4  2  2  0
  5  1  2  0
  5  3  1  0
  6  2  1  0
  6  7  1  0
  8 11  1  0
  8  9  2  0
 11 10  1  0
 12 13  1  0
 12 11  1  0
 14 25  2  0
 15 13  1  0
 15 20  1  0
 16 24  1  0
 16 26  1  0
 17 23  1  0
 17 19  1  0
 18 24  1  0
 19 20  2  0
 19 18  1  0
 21 15  2  0
 22 21  1  0
 22 17  2  0
 23 16  1  0
 24 14  1  0
 26 28  2  0
 27 26  1  0
 29 27  1  0
 30 39  2  0
 30 35  1  0
 31 27  1  0
 31 35  1  0
 32 31  1  0
 33 34  1  0
 33 32  1  0
 34 30  1  0
 35 36  2  0
 36 37  1  0
 38 37  2  0
 39 38  1  0
 40 14  1  0
 40 41  1  0
 40 50  1  0
 41 44  1  0
 42 46  1  0
 42 41  1  0
 43 42  2  0
 46 45  1  0
 48 49  1  0
 48 46  1  0
 48 47  1  0
 50 53  1  1
 50 51  1  0
 52 50  1  0
 54  3  1  0
 54 63  1  0
 55 63  1  0
 56 61  1  0
 57 58  1  0
 57 56  1  0
 59 58  1  0
 59 68  1  0
 59 60  1  0
 61 55  1  0
 61 60  1  0
 62 55  2  0
 63 64  1  0
 65 66  2  0
 66 85  1  0
 67 66  1  0
 67 70  1  0
 68 65  1  0
 68 69  1  0
 69 67  2  0
 70 71  1  0
 71 72  2  0
 73 76  1  0
 73 72  1  0
 74 73  2  0
 75 74  1  0
 75 70  2  0
 76 77  1  0
 77 78  1  0
 78 79  2  0
 80 79  1  0
 80 84  1  0
 81 80  2  0
 82 77  2  0
 82 81  1  0
 83 82  1  0
 85 86  1  0
 86 89  1  0
 86 88  1  0
 87 85  2  0
 90 91  1  0
 90 65  1  0
 92 90  1  0
 93  5  1  0
 94 95  1  0
 95 93  1  0
M  ISO  4  12 101  13 101  55 100  63 100
M  END
>  <TORSDO>  (34) 
F 22

>  <SCORE>  (34) 
-12.790

>  <name>  (34) 
33

>  <ligand_id>  (34) 
33

>  <original_smiles>  (34) 
[H]C(=Nc1c([H])c(F)c(C([H])([H])N([H])C(=O)N2C([H])([H])C([H])([H])C([H])([H])C([H])(n3nc(-c4c([H])c([H])c(Oc5c([H])c([H])c(F)c([H])c5F)c([H])c4[H])c(C(=O)N([H])[H])c3N([H])[H])C2([H])[H])c(OC([H])([H])C([H])([H])[H])c1[H])C([H])(C([H])([H])[H])C([H])([H])Oc1c([H])c([H])c2c(c1[H])C([H])([H])N(C(=O)C([H])(N([H])C(=O)C([H])(N([H])C([H])([H])[H])C([H])([H])[H])C(C([H])([H])[H])(C([H])([H])[H])C([H])([H])[H])C([H])(C(=O)N([H])C1([H])c3c([H])c([H])c([H])c([H])c3C([H])([H])C([H])([H])C1([H])[H])C2([H])[H]

>  <smiles>  (34) 
[H]C(=Nc1c([H])c(F)c(C([H])([H])N([H])C(=O)N2C([H])([H])C([H])([H])C([H])([H])C([H])(n3nc(-c4c([H])c([H])c(Oc5c([H])c([H])c(F)c([H])c5F)c([H])c4[H])c(C(=O)N([H])[H])c3N([H])[H])C2([H])[H])c(OC([H])([H])C([H])([H])[H])c1[H])C([H])(C([H])([H])[H])C([H])([H])Oc1c([H])c([H])c2c(c1[H])C([H])([H])N(C(=O)C([H])(N([H])C(=O)C([H])(N([H])C([H])([H])[H])C([H])([H])[H])C(C([H])([H])[H])(C([H])([H])[H])C([H])([H])[H])C([H])(C(=O)N([H])C1([H])c3c([H])c([H])c([H])c([H])c3C([H])([H])C([H])([H])C1([H])[H])C2([H])[H]

$$$$
34:0:0
     RDKit          3D

 93102  0  0  1  0  0  0  0  0999 V2000
  -28.8660  -24.0860   20.9550 C   0  0  0  0  0  0  0  0  0  0  0  0
  -28.5120  -25.4340   20.8990 C   0  0  0  0  0  3  0  0  0  0  0  0
  -28.9060  -23.3910   22.3030 C   0  0  0  0  0  2  0  0  0  0  0  0
  -29.3020  -22.9490   19.9610 C   0  0  0  0  0  2  0  0  0  0  0  0
  -29.8400  -22.1750   22.1690 C   0  0  0  0  0  2  0  0  0  0  0  0
  -29.8400  -21.7870   20.7640 N   0  0  0  0  0  0  0  0  0  0  0  0
  -31.2890  -18.2150   20.5080 C   0  0  0  0  0  3  0  0  0  0  0  0
  -28.9080  -18.0760   20.4130 C   0  0  0  0  0  3  0  0  0  0  0  0
  -31.1920  -19.6550   20.5270 C   0  0  0  0  0  0  0  0  0  0  0  0
  -28.7940  -19.5050   20.4230 C   0  0  0  0  0  0  0  0  0  0  0  0
  -29.9390  -20.3570   20.5020 C   0  0  0  0  0  0  0  0  0  0  0  0
  -30.1430  -17.3700   20.4690 C   0  0  0  0  0  0  0  0  0  0  0  0
  -32.4810  -20.4510   20.6260 C   0  0  0  0  0  1  0  0  0  0  0  0
  -27.3910  -20.0940   20.3970 C   0  0  0  0  0  1  0  0  0  0  0  0
  -30.9050  -14.8480   20.0460 C   0  0  0  0  0  0  0  0  0  0  0  0
  -30.6510  -12.6150   18.9430 C   0  0  0  0  0  2  0  0  0  0  0  0
  -29.6430  -12.7470   17.7770 C   0  0  0  0  0  2  0  0  0  0  0  0
  -28.1920  -12.5920   18.2750 C   0  0  0  0  0  2  0  0  0  0  0  0
  -27.9050  -13.4400   19.5420 C   0  0  0  0  0  3  0  0  0  0  0  0
  -29.0150  -13.2530   20.6010 C   0  0  0  0  0  2  0  0  0  0  0  0
  -30.2930  -13.6160   19.9710 N   0  0  0  0  0  0  0  0  0  0  0  0
  -32.0490  -15.0100   19.6080 O   0  0  0  0  0  0  0  0  0  0  0  0
  -30.1020  -15.8880   20.4820 N   0  0  0  0  0  0  0  0  0  0  0  0
  -29.2250  -15.5230   20.8200 H   0  0  0  0  0  0  0  0  0  0  0  0
  -25.5660  -14.0740   20.3910 C   0  0  0  0  0  0  0  0  0  0  0  0
  -24.4990  -13.3170   20.7930 C   0  0  0  0  0  0  0  0  0  0  0  0
  -24.9270  -11.9570   20.7100 C   0  0  0  0  0  0  0  0  0  0  0  0
  -26.5750  -13.1760   20.0870 N   0  0  0  0  0  0  0  0  0  0  0  0
  -26.2000  -11.8950   20.3370 N   0  0  0  0  0  0  0  0  0  0  0  0
  -24.1800  -10.7070   20.9050 C   0  0  0  0  0  0  0  0  0  0  0  0
  -24.5680   -9.7600   21.8780 C   0  0  0  0  0  3  0  0  0  0  0  0
  -23.8230   -8.5750   22.0600 C   0  0  0  0  0  3  0  0  0  0  0  0
  -22.6770   -8.3290   21.2670 C   0  0  0  0  0  0  0  0  0  0  0  0
  -22.3100   -9.2650   20.2840 C   0  0  0  0  0  3  0  0  0  0  0  0
  -23.0550  -10.4400   20.1010 C   0  0  0  0  0  3  0  0  0  0  0  0
  -21.9060   -7.1940   21.3550 O   0  0  0  0  0  0  0  0  0  0  0  0
  -21.7060   -6.5510   22.5500 C   0  0  0  0  0  0  0  0  0  0  0  0
  -21.1270   -7.2070   23.6600 C   0  0  0  0  0  3  0  0  0  0  0  0
  -20.8740   -6.4910   24.8470 C   0  0  0  0  0  3  0  0  0  0  0  0
  -21.1890   -5.1220   24.9260 C   0  0  0  0  0  0  0  0  0  0  0  0
  -21.7610   -4.4670   23.8200 C   0  0  0  0  0  3  0  0  0  0  0  0
  -22.0150   -5.1800   22.6350 C   0  0  0  0  0  0  0  0  0  0  0  0
  -22.5460   -4.5380   21.5660 F   0  0  0  0  0  0  0  0  0  0  0  0
  -20.9400   -4.4320   26.0630 F   0  0  0  0  0  0  0  0  0  0  0  0
  -23.1280  -13.8200   21.1410 C   0  0  0  0  0  0  0  0  0  0  0  0
  -22.4350  -13.1340   22.0440 N   0  0  0  0  0  0  0  0  0  0  0  0
  -22.6830  -14.8560   20.6490 O   0  0  0  0  0  0  0  0  0  0  0  0
  -22.8090  -12.2930   22.4580 H   0  0  0  0  0  0  0  0  0  0  0  0
  -21.5170  -13.4530   22.3210 H   0  0  0  0  0  0  0  0  0  0  0  0
  -25.7520  -15.4440   20.2360 N   0  0  0  0  0  0  0  0  0  0  0  0
  -24.9940  -16.1040   20.3770 H   0  0  0  0  0  0  0  0  0  0  0  0
  -26.5740  -15.8710   19.8310 H   0  0  0  0  0  0  0  0  0  0  0  0
  -28.4360  -26.4250   19.8940 O   0  0  0  0  0  0  0  0  0  0  0  0
  -24.5280  -31.7080   23.0380 C   0  0  0  0  0  0  0  0  0  0  0  0
  -27.3270  -27.2940   19.9140 C   0  0  0  0  0  0  0  0  0  0  0  0
  -23.3860  -30.2980   21.3620 C   0  0  0  0  0  3  0  0  0  0  0  0
  -24.9060  -28.8310   19.9140 C   0  0  0  0  0  0  0  0  0  0  0  0
  -25.9140  -30.7140   21.2010 C   0  0  0  0  0  2  0  0  0  0  0  0
  -26.0540  -29.3480   20.5310 C   0  0  0  0  0  0  0  0  0  0  0  0
  -27.2700  -28.5910   20.5240 C   0  0  0  0  0  3  0  0  0  0  0  0
  -26.1570  -26.8350   19.2770 C   0  0  0  0  0  3  0  0  0  0  0  0
  -24.9610  -27.5790   19.2780 C   0  0  0  0  0  3  0  0  0  0  0  0
  -23.6370  -29.6580   19.9710 C   0  0  0  0  0  2  0  0  0  0  0  0
  -24.6260  -30.9260   21.9250 N   0  0  0  0  0  0  0  0  0  0  0  0
  -23.4320  -31.9340   23.5740 O   0  0  0  0  0  0  0  0  0  0  0  0
  -22.7560  -29.2400   22.2990 C   0  0  0  0  0  0  0  0  0  0  0  0
  -21.4370  -29.0220   22.1700 N   0  0  0  0  0  0  0  0  0  0  0  0
  -23.4550  -28.6190   23.1040 O   0  0  0  0  0  0  0  0  0  0  0  0
  -20.9280  -29.5720   21.4890 H   0  0  0  0  0  0  0  0  0  0  0  0
  -18.0950  -27.7280   22.6750 C   0  0  0  0  0  0  0  0  0  0  0  0
  -20.6500  -28.0400   22.9200 C   0  0  0  0  0  3  0  0  0  0  0  0
  -20.7770  -26.6310   22.2950 C   0  0  0  0  0  2  0  0  0  0  0  0
  -19.6700  -26.3190   21.2840 C   0  0  0  0  0  2  0  0  0  0  0  0
  -18.2940  -26.4080   21.9510 C   0  0  0  0  0  2  0  0  0  0  0  0
  -19.2020  -28.5030   23.1160 C   0  0  0  0  0  0  0  0  0  0  0  0
  -18.9600  -29.7390   23.7550 C   0  0  0  0  0  3  0  0  0  0  0  0
  -17.6460  -30.2000   23.9580 C   0  0  0  0  0  3  0  0  0  0  0  0
  -16.5550  -29.4220   23.5320 C   0  0  0  0  0  3  0  0  0  0  0  0
  -16.7800  -28.1880   22.8960 C   0  0  0  0  0  3  0  0  0  0  0  0
  -25.7830  -32.3760   23.6790 C   0  0  0  0  0  3  0  0  0  0  0  0
  -25.4160  -33.7530   24.0430 N   0  0  0  0  0  0  0  0  0  0  0  0
  -25.7030  -34.8360   23.3090 C   0  0  0  0  0  0  0  0  0  0  0  0
  -26.3720  -34.7860   22.2740 O   0  0  0  0  0  0  0  0  0  0  0  0
  -24.8190  -33.8650   24.8490 H   0  0  0  0  0  0  0  0  0  0  0  0
  -23.8960  -36.5550   23.0080 C   0  0  0  0  0  1  0  0  0  0  0  0
  -25.1610  -36.1910   23.8010 C   0  0  0  0  0  3  0  0  0  0  0  0
  -27.2620  -37.1440   24.6400 C   0  0  0  0  0  1  0  0  0  0  0  0
  -26.1460  -37.2910   23.7100 N   0  0  0  0  0  0  0  0  0  0  0  0
  -25.6990  -38.1870   23.8910 H   0  0  0  0  0  0  0  0  0  0  0  0
  -26.3280  -31.5960   24.9400 C   0  0  1  0  0  0  0  0  0  0  0  0
  -25.2420  -31.2910   25.9980 C   0  0  0  0  0  1  0  0  0  0  0  0
  -26.9620  -30.2500   24.5190 C   0  0  0  0  0  1  0  0  0  0  0  0
  -27.4410  -32.4210   25.6260 C   0  0  0  0  0  1  0  0  0  0  0  0
  1  3  1  0
  2  1  2  0
  4  6  1  0
  4  1  1  0
  5  3  1  0
  6  5  1  0
  7  9  1  0
  8 10  2  0
  8 12  1  0
  9 13  1  0
 10 11  1  0
 11  9  2  0
 11  6  1  0
 12 23  1  0
 12  7  2  0
 14 10  1  0
 15 23  1  0
 16 21  1  0
 17 18  1  0
 17 16  1  0
 19 18  1  0
 19 28  1  0
 19 20  1  0
 21 15  1  0
 21 20  1  0
 22 15  2  0
 23 24  1  0
 25 26  2  0
 26 45  1  0
 27 26  1  0
 27 30  1  0
 28 29  1  0
 28 25  1  0
 29 27  2  0
 30 31  1  0
 31 32  2  0
 33 36  1  0
 33 32  1  0
 34 33  2  0
 35 34  1  0
 35 30  2  0
 36 37  1  0
 37 42  2  0
 37 38  1  0
 38 39  2  0
 39 40  1  0
 40 44  1  0
 41 40  2  0
 42 41  1  0
 43 42  1  0
 45 46  1  0
 46 49  1  0
 46 48  1  0
 47 45  2  0
 50 51  1  0
 50 25  1  0
 52 50  1  0
 53 55  1  0
 53  2  1  0
 54 65  2  0
 55 60  1  0
 56 64  1  0
 56 66  1  0
 57 63  1  0
 57 59  1  0
 58 64  1  0
 59 58  1  0
 60 59  2  0
 61 62  1  0
 61 55  2  0
 62 57  2  0
 63 56  1  0
 64 54  1  0
 66 68  2  0
 67 66  1  0
 69 67  1  0
 70 79  2  0
 70 75  1  0
 71 67  1  0
 71 75  1  0
 72 71  1  0
 73 74  1  0
 73 72  1  0
 74 70  1  0
 75 76  2  0
 76 77  1  0
 78 77  2  0
 79 78  1  0
 80 54  1  0
 80 81  1  0
 80 90  1  0
 81 84  1  0
 82 86  1  0
 82 81  1  0
 83 82  2  0
 86 85  1  0
 88 86  1  0
 88 89  1  0
 88 87  1  0
 90 93  1  1
 90 91  1  0
 92 90  1  0
M  ISO  4   2 101  15 100  23 100  53 101
M  END
>  <TORSDO>  (35) 
F 17

>  <SCORE>  (35) 
-14.238

>  <name>  (35) 
34

>  <ligand_id>  (35) 
34

>  <original_smiles>  (35) 
[H]C(Oc1c([H])c([H])c2c(c1[H])C([H])([H])N(C(=O)C([H])(N([H])C(=O)C([H])(N([H])C([H])([H])[H])C([H])([H])[H])C(C([H])([H])[H])(C([H])([H])[H])C([H])([H])[H])C([H])(C(=O)N([H])C1([H])c3c([H])c([H])c([H])c([H])c3C([H])([H])C([H])([H])C1([H])[H])C2([H])[H])=C1C([H])([H])N(c2c(C([H])([H])[H])c([H])c(N([H])C(=O)N3C([H])([H])C([H])([H])C([H])([H])C([H])(n4nc(-c5c([H])c([H])c(Oc6c([H])c([H])c(F)c([H])c6F)c([H])c5[H])c(C(=O)N([H])[H])c4N([H])[H])C3([H])[H])c([H])c2C([H])([H])[H])C([H])([H])C1([H])[H]

>  <smiles>  (35) 
[H]C(Oc1c([H])c([H])c2c(c1[H])C([H])([H])N(C(=O)C([H])(N([H])C(=O)C([H])(N([H])C([H])([H])[H])C([H])([H])[H])C(C([H])([H])[H])(C([H])([H])[H])C([H])([H])[H])C([H])(C(=O)N([H])C1([H])c3c([H])c([H])c([H])c([H])c3C([H])([H])C([H])([H])C1([H])[H])C2([H])[H])=C1C([H])([H])N(c2c(C([H])([H])[H])c([H])c(N([H])C(=O)N3C([H])([H])C([H])([H])C([H])([H])C([H])(n4nc(-c5c([H])c([H])c(Oc6c([H])c([H])c(F)c([H])c6F)c([H])c5[H])c(C(=O)N([H])[H])c4N([H])[H])C3([H])[H])c([H])c2C([H])([H])[H])C([H])([H])C1([H])[H]

$$$$
35:0:0
     RDKit          3D

 96105  0  0  1  0  0  0  0  0999 V2000
  -28.2640  -24.8160   20.4430 C   0  0  0  0  0  0  0  0  0  0  0  0
  -27.9080  -26.1370   20.4310 C   0  0  0  0  0  3  0  0  0  0  0  0
  -29.3520  -21.3790   19.3300 C   0  0  0  0  0  0  0  0  0  0  0  0
  -28.4330  -24.0580   21.7340 C   0  0  0  0  0  2  0  0  0  0  0  0
  -28.5630  -23.8120   19.3240 C   0  0  0  0  0  2  0  0  0  0  0  0
  -29.2910  -22.8320   21.3970 C   0  0  0  0  0  2  0  0  0  0  0  0
  -29.1440  -22.5860   19.9590 N   0  0  0  0  0  0  0  0  0  0  0  0
  -28.8990  -21.1700   18.2030 O   0  0  0  0  0  0  0  0  0  0  0  0
  -31.4330  -20.5930   20.5870 C   0  0  0  0  0  3  0  0  0  0  0  0
  -31.9470  -18.2350   20.9640 C   0  0  0  0  0  3  0  0  0  0  0  0
  -29.8690  -18.8760   19.8620 C   0  0  0  0  0  3  0  0  0  0  0  0
  -32.2940  -19.5990   21.1050 C   0  0  0  0  0  0  0  0  0  0  0  0
  -30.1980  -20.2710   19.9780 C   0  0  0  0  0  0  0  0  0  0  0  0
  -30.7490  -17.8450   20.3300 C   0  0  0  0  0  0  0  0  0  0  0  0
  -31.2870  -15.3740   20.1390 C   0  0  0  0  0  0  0  0  0  0  0  0
  -31.1910  -13.0220   19.3600 C   0  0  0  0  0  2  0  0  0  0  0  0
  -30.2610  -12.9520   18.1310 C   0  0  0  0  0  2  0  0  0  0  0  0
  -28.7930  -12.7690   18.5670 C   0  0  0  0  0  2  0  0  0  0  0  0
  -28.3720  -13.7670   19.6780 C   0  0  0  0  0  3  0  0  0  0  0  0
  -29.4190  -13.8200   20.8120 C   0  0  0  0  0  2  0  0  0  0  0  0
  -30.7160  -14.1360   20.1970 N   0  0  0  0  0  0  0  0  0  0  0  0
  -32.4580  -15.5300   19.7820 O   0  0  0  0  0  0  0  0  0  0  0  0
  -30.4320  -16.4340   20.2430 N   0  0  0  0  0  0  0  0  0  0  0  0
  -29.4550  -16.1920   20.2950 H   0  0  0  0  0  0  0  0  0  0  0  0
  -26.0040  -14.3530   20.4870 C   0  0  0  0  0  0  0  0  0  0  0  0
  -24.9440  -13.5720   20.8560 C   0  0  0  0  0  0  0  0  0  0  0  0
  -25.3960  -12.2200   20.7590 C   0  0  0  0  0  0  0  0  0  0  0  0
  -27.0360  -13.4760   20.1900 N   0  0  0  0  0  0  0  0  0  0  0  0
  -26.6760  -12.1860   20.4130 N   0  0  0  0  0  0  0  0  0  0  0  0
  -24.6670  -10.9540   20.9160 C   0  0  0  0  0  0  0  0  0  0  0  0
  -25.0270  -10.0140   21.9060 C   0  0  0  0  0  3  0  0  0  0  0  0
  -24.2990   -8.8130   22.0500 C   0  0  0  0  0  3  0  0  0  0  0  0
  -23.1980   -8.5450   21.2020 C   0  0  0  0  0  0  0  0  0  0  0  0
  -22.8580   -9.4740   20.2040 C   0  0  0  0  0  3  0  0  0  0  0  0
  -23.5870  -10.6660   20.0580 C   0  0  0  0  0  3  0  0  0  0  0  0
  -22.4490   -7.3940   21.2530 O   0  0  0  0  0  0  0  0  0  0  0  0
  -22.1800   -6.7610   22.4400 C   0  0  0  0  0  0  0  0  0  0  0  0
  -21.4890   -7.4060   23.4880 C   0  0  0  0  0  3  0  0  0  0  0  0
  -21.1730   -6.6950   24.6630 C   0  0  0  0  0  3  0  0  0  0  0  0
  -21.5390   -5.3410   24.7900 C   0  0  0  0  0  0  0  0  0  0  0  0
  -22.2240   -4.6970   23.7450 C   0  0  0  0  0  3  0  0  0  0  0  0
  -22.5410   -5.4050   22.5710 C   0  0  0  0  0  0  0  0  0  0  0  0
  -23.1820   -4.7730   21.5590 F   0  0  0  0  0  0  0  0  0  0  0  0
  -21.2290   -4.6570   25.9150 F   0  0  0  0  0  0  0  0  0  0  0  0
  -23.5570  -14.0440   21.1840 C   0  0  0  0  0  0  0  0  0  0  0  0
  -22.8530  -13.3230   22.0480 N   0  0  0  0  0  0  0  0  0  0  0  0
  -23.1080  -15.0870   20.7100 O   0  0  0  0  0  0  0  0  0  0  0  0
  -23.2290  -12.4780   22.4530 H   0  0  0  0  0  0  0  0  0  0  0  0
  -21.9240  -13.6190   22.3120 H   0  0  0  0  0  0  0  0  0  0  0  0
  -26.1730  -15.7290   20.3580 N   0  0  0  0  0  0  0  0  0  0  0  0
  -25.4100  -16.3820   20.5040 H   0  0  0  0  0  0  0  0  0  0  0  0
  -27.0060  -16.1740   19.9950 H   0  0  0  0  0  0  0  0  0  0  0  0
  -33.5600  -20.0090   21.7780 C   0  0  0  0  0  0  0  0  0  0  0  0
  -34.4890  -18.9090   22.2810 C   0  0  0  0  0  1  0  0  0  0  0  0
  -33.8810  -21.1870   21.9580 O   0  0  0  0  0  0  0  0  0  0  0  0
  -27.6790  -27.0070   19.3740 O   0  0  0  0  0  0  0  0  0  0  0  0
  -24.4760  -32.0100   23.4190 C   0  0  0  0  0  0  0  0  0  0  0  0
  -26.6090  -27.8660   19.5700 C   0  0  0  0  0  0  0  0  0  0  0  0
  -23.0460  -30.7970   21.8090 C   0  0  0  0  0  3  0  0  0  0  0  0
  -24.2780  -29.4160   20.0460 C   0  0  0  0  0  0  0  0  0  0  0  0
  -25.5390  -31.1520   21.3260 C   0  0  0  0  0  2  0  0  0  0  0  0
  -25.5180  -29.8550   20.5330 C   0  0  0  0  0  0  0  0  0  0  0  0
  -26.6910  -29.0890   20.2910 C   0  0  0  0  0  3  0  0  0  0  0  0
  -25.3540  -27.4630   19.0750 C   0  0  0  0  0  3  0  0  0  0  0  0
  -24.1940  -28.2230   19.3110 C   0  0  0  0  0  3  0  0  0  0  0  0
  -23.0680  -30.2740   20.3480 C   0  0  0  0  0  2  0  0  0  0  0  0
  -24.3800  -31.3290   22.2410 N   0  0  0  0  0  0  0  0  0  0  0  0
  -23.4770  -32.2270   24.1200 O   0  0  0  0  0  0  0  0  0  0  0  0
  -22.5030  -29.6800   22.7330 C   0  0  0  0  0  0  0  0  0  0  0  0
  -21.2050  -29.3650   22.5980 N   0  0  0  0  0  0  0  0  0  0  0  0
  -23.2490  -29.1040   23.5300 O   0  0  0  0  0  0  0  0  0  0  0  0
  -20.6570  -29.8920   21.9310 H   0  0  0  0  0  0  0  0  0  0  0  0
  -18.0680  -27.5810   22.8220 C   0  0  0  0  0  0  0  0  0  0  0  0
  -20.4920  -28.3190   23.3330 C   0  0  0  0  0  3  0  0  0  0  0  0
  -20.9130  -26.9120   22.8500 C   0  0  0  0  0  2  0  0  0  0  0  0
  -20.0040  -26.3540   21.7500 C   0  0  0  0  0  2  0  0  0  0  0  0
  -18.5580  -26.2650   22.2440 C   0  0  0  0  0  2  0  0  0  0  0  0
  -18.9780  -28.5530   23.3190 C   0  0  0  0  0  0  0  0  0  0  0  0
  -18.4720  -29.7750   23.8150 C   0  0  0  0  0  3  0  0  0  0  0  0
  -17.0880  -30.0310   23.8230 C   0  0  0  0  0  3  0  0  0  0  0  0
  -16.1910  -29.0600   23.3430 C   0  0  0  0  0  3  0  0  0  0  0  0
  -16.6800  -27.8380   22.8490 C   0  0  0  0  0  3  0  0  0  0  0  0
  -25.8400  -32.5690   23.9310 C   0  0  0  0  0  3  0  0  0  0  0  0
  -25.6140  -33.9540   24.3670 N   0  0  0  0  0  0  0  0  0  0  0  0
  -25.9620  -35.0380   23.6630 C   0  0  0  0  0  0  0  0  0  0  0  0
  -26.5760  -34.9750   22.5940 O   0  0  0  0  0  0  0  0  0  0  0  0
  -25.0680  -34.0810   25.2070 H   0  0  0  0  0  0  0  0  0  0  0  0
  -24.3270  -36.9430   23.4960 C   0  0  0  0  0  1  0  0  0  0  0  0
  -25.5660  -36.4140   24.2360 C   0  0  0  0  0  3  0  0  0  0  0  0
  -27.7680  -37.1200   25.0590 C   0  0  0  0  0  1  0  0  0  0  0  0
  -26.6520  -37.4150   24.1660 N   0  0  0  0  0  0  0  0  0  0  0  0
  -26.3010  -38.3420   24.3900 H   0  0  0  0  0  0  0  0  0  0  0  0
  -26.4630  -31.7110   25.1000 C   0  0  1  0  0  0  0  0  0  0  0  0
  -25.4750  -31.4200   26.2540 C   0  0  0  0  0  1  0  0  0  0  0  0
  -26.9780  -30.3550   24.5650 C   0  0  0  0  0  1  0  0  0  0  0  0
  -27.6860  -32.4480   25.6960 C   0  0  0  0  0  1  0  0  0  0  0  0
  1  4  1  0
  2  1  2  0
  3  7  1  0
  3 13  1  0
  5  7  1  0
  5  1  1  0
  6  4  1  0
  7  6  1  0
  8  3  2  0
  9 12  1  0
 10 12  2  0
 11 13  1  0
 11 14  2  0
 12 53  1  0
 13  9  2  0
 14 10  1  0
 15 21  1  0
 15 23  1  0
 16 21  1  0
 17 18  1  0
 17 16  1  0
 19 18  1  0
 19 28  1  0
 19 20  1  0
 21 20  1  0
 22 15  2  0
 23 24  1  0
 23 14  1  0
 25 26  2  0
 26 45  1  0
 27 26  1  0
 27 30  1  0
 28 29  1  0
 28 25  1  0
 29 27  2  0
 30 31  1  0
 31 32  2  0
 33 36  1  0
 33 32  1  0
 34 33  2  0
 35 34  1  0
 35 30  2  0
 36 37  1  0
 37 42  2  0
 37 38  1  0
 38 39  2  0
 39 40  1  0
 40 44  1  0
 41 40  2  0
 42 41  1  0
 43 42  1  0
 45 46  1  0
 46 49  1  0
 46 48  1  0
 47 45  2  0
 50 25  1  0
 50 51  1  0
 52 50  1  0
 53 55  2  0
 53 54  1  0
 56 58  1  0
 56  2  1  0
 57 68  2  0
 58 63  1  0
 59 67  1  0
 59 69  1  0
 60 66  1  0
 60 62  1  0
 61 67  1  0
 62 61  1  0
 63 62  2  0
 64 65  1  0
 64 58  2  0
 65 60  2  0
 66 59  1  0
 67 57  1  0
 69 71  2  0
 70 69  1  0
 72 70  1  0
 73 82  2  0
 73 78  1  0
 74 70  1  0
 75 74  1  0
 76 77  1  0
 76 75  1  0
 77 73  1  0
 78 74  1  0
 78 79  2  0
 79 80  1  0
 81 80  2  0
 82 81  1  0
 83 57  1  0
 83 84  1  0
 83 93  1  0
 84 87  1  0
 85 89  1  0
 85 84  1  0
 86 85  2  0
 89 88  1  0
 91 89  1  0
 91 92  1  0
 91 90  1  0
 93 96  1  1
 93 94  1  0
 95 93  1  0
M  ISO  4   2 101  15 100  23 100  56 101
M  END
>  <TORSDO>  (36) 
F 18

>  <SCORE>  (36) 
-12.007

>  <name>  (36) 
35

>  <ligand_id>  (36) 
35

>  <original_smiles>  (36) 
[H]C(Oc1c([H])c([H])c2c(c1[H])C([H])([H])N(C(=O)C([H])(N([H])C(=O)C([H])(N([H])C([H])([H])[H])C([H])([H])[H])C(C([H])([H])[H])(C([H])([H])[H])C([H])([H])[H])C([H])(C(=O)N([H])C1([H])c3c([H])c([H])c([H])c([H])c3C([H])([H])C([H])([H])C1([H])[H])C2([H])[H])=C1C([H])([H])N(C(=O)c2c([H])c(C(=O)C([H])([H])[H])c([H])c(N([H])C(=O)N3C([H])([H])C([H])([H])C([H])([H])C([H])(n4nc(-c5c([H])c([H])c(Oc6c([H])c([H])c(F)c([H])c6F)c([H])c5[H])c(C(=O)N([H])[H])c4N([H])[H])C3([H])[H])c2[H])C([H])([H])C1([H])[H]

>  <smiles>  (36) 
[H]C(Oc1c([H])c([H])c2c(c1[H])C([H])([H])N(C(=O)C([H])(N([H])C(=O)C([H])(N([H])C([H])([H])[H])C([H])([H])[H])C(C([H])([H])[H])(C([H])([H])[H])C([H])([H])[H])C([H])(C(=O)N([H])C1([H])c3c([H])c([H])c([H])c([H])c3C([H])([H])C([H])([H])C1([H])[H])C2([H])[H])=C1C([H])([H])N(C(=O)c2c([H])c(C(=O)C([H])([H])[H])c([H])c(N([H])C(=O)N3C([H])([H])C([H])([H])C([H])([H])C([H])(n4nc(-c5c([H])c([H])c(Oc6c([H])c([H])c(F)c([H])c6F)c([H])c5[H])c(C(=O)N([H])[H])c4N([H])[H])C3([H])[H])c2[H])C([H])([H])C1([H])[H]

$$$$
36:0:0
     RDKit          3D

 93101  0  0  1  0  0  0  0  0999 V2000
  -31.4560  -19.0850   21.2050 C   0  0  0  0  0  3  0  0  0  0  0  0
  -31.0140  -20.4150   21.0560 C   0  0  0  0  0  3  0  0  0  0  0  0
  -29.2850  -18.2770   20.5000 C   0  0  0  0  0  3  0  0  0  0  0  0
  -30.5900  -17.9990   20.9620 C   0  0  0  0  0  0  0  0  0  0  0  0
  -29.6870  -20.7080   20.6530 C   0  0  0  0  0  0  0  0  0  0  0  0
  -28.8240  -19.6190   20.3430 C   0  0  0  0  0  0  0  0  0  0  0  0
  -29.8630  -23.0270   20.2650 C   0  0  0  0  0  3  0  0  0  0  0  0
  -29.1760  -22.0310   20.6840 N   0  0  0  0  0  0  0  0  0  0  0  0
  -29.5490  -24.5010   20.5670 C   0  0  0  0  0  2  0  0  0  0  0  0
  -28.4470  -25.1600   19.7050 C   0  0  0  0  0  2  0  0  0  0  0  0
  -28.5020  -26.6020   19.8140 O   0  0  0  0  0  0  0  0  0  0  0  0
  -24.5900  -31.6370   22.9890 C   0  0  0  0  0  0  0  0  0  0  0  0
  -27.3130  -27.3090   19.7970 C   0  0  0  0  0  0  0  0  0  0  0  0
  -23.4040  -30.2370   21.3310 C   0  0  0  0  0  3  0  0  0  0  0  0
  -24.8820  -28.7700   19.8560 C   0  0  0  0  0  0  0  0  0  0  0  0
  -25.9190  -30.6610   21.1170 C   0  0  0  0  0  2  0  0  0  0  0  0
  -26.0340  -29.3070   20.4440 C   0  0  0  0  0  0  0  0  0  0  0  0
  -27.2500  -28.5850   20.4090 C   0  0  0  0  0  3  0  0  0  0  0  0
  -26.1420  -26.7980   19.1910 C   0  0  0  0  0  3  0  0  0  0  0  0
  -24.9320  -27.5160   19.2240 C   0  0  0  0  0  3  0  0  0  0  0  0
  -23.6170  -29.5940   19.9350 C   0  0  0  0  0  2  0  0  0  0  0  0
  -24.6560  -30.8590   21.8710 N   0  0  0  0  0  0  0  0  0  0  0  0
  -23.5080  -31.8700   23.5450 O   0  0  0  0  0  0  0  0  0  0  0  0
  -22.7910  -29.1770   22.2760 C   0  0  0  0  0  0  0  0  0  0  0  0
  -21.4660  -28.9840   22.1790 N   0  0  0  0  0  0  0  0  0  0  0  0
  -23.5040  -28.5350   23.0510 O   0  0  0  0  0  0  0  0  0  0  0  0
  -20.9510  -29.5570   21.5240 H   0  0  0  0  0  0  0  0  0  0  0  0
  -18.1220  -27.7180   22.7090 C   0  0  0  0  0  0  0  0  0  0  0  0
  -20.6800  -28.0150   22.9410 C   0  0  0  0  0  3  0  0  0  0  0  0
  -20.7970  -26.6000   22.3280 C   0  0  0  0  0  2  0  0  0  0  0  0
  -19.6810  -26.2830   21.3260 C   0  0  0  0  0  2  0  0  0  0  0  0
  -18.3090  -26.3880   21.9980 C   0  0  0  0  0  2  0  0  0  0  0  0
  -19.2350  -28.4890   23.1380 C   0  0  0  0  0  0  0  0  0  0  0  0
  -19.0070  -29.7340   23.7620 C   0  0  0  0  0  3  0  0  0  0  0  0
  -17.6970  -30.2100   23.9630 C   0  0  0  0  0  3  0  0  0  0  0  0
  -16.5990  -29.4360   23.5500 C   0  0  0  0  0  3  0  0  0  0  0  0
  -16.8120  -28.1920   22.9300 C   0  0  0  0  0  3  0  0  0  0  0  0
  -25.8670  -32.2880   23.6090 C   0  0  0  0  0  3  0  0  0  0  0  0
  -25.5120  -33.6570   24.0090 N   0  0  0  0  0  0  0  0  0  0  0  0
  -25.8680  -34.7600   23.3380 C   0  0  0  0  0  0  0  0  0  0  0  0
  -26.5990  -34.7330   22.3440 O   0  0  0  0  0  0  0  0  0  0  0  0
  -24.8680  -33.7510   24.7810 H   0  0  0  0  0  0  0  0  0  0  0  0
  -24.1310  -36.5460   22.9940 C   0  0  0  0  0  1  0  0  0  0  0  0
  -25.3280  -36.1080   23.8520 C   0  0  0  0  0  3  0  0  0  0  0  0
  -27.3900  -36.9690   24.8690 C   0  0  0  0  0  1  0  0  0  0  0  0
  -26.3450  -37.1810   23.8710 N   0  0  0  0  0  0  0  0  0  0  0  0
  -25.9140  -38.0830   24.0530 H   0  0  0  0  0  0  0  0  0  0  0  0
  -26.4450  -31.4800   24.8340 C   0  0  1  0  0  0  0  0  0  0  0  0
  -25.3930  -31.1620   25.9230 C   0  0  0  0  0  1  0  0  0  0  0  0
  -27.0570  -30.1400   24.3650 C   0  0  0  0  0  1  0  0  0  0  0  0
  -27.5910  -32.2830   25.4960 C   0  0  0  0  0  1  0  0  0  0  0  0
  -31.0470  -16.5830   21.3550 C   0  0  0  0  0  2  0  0  0  0  0  0
  -30.8020  -14.4750   20.0410 C   0  0  0  0  0  0  0  0  0  0  0  0
  -30.3580  -12.3730   18.8150 C   0  0  0  0  0  2  0  0  0  0  0  0
  -29.3290  -12.6060   17.6930 C   0  0  0  0  0  2  0  0  0  0  0  0
  -27.8950  -12.4610   18.2340 C   0  0  0  0  0  2  0  0  0  0  0  0
  -27.6610  -13.2710   19.5370 C   0  0  0  0  0  3  0  0  0  0  0  0
  -28.7950  -13.0220   20.5560 C   0  0  0  0  0  2  0  0  0  0  0  0
  -30.0740  -13.3330   19.8960 N   0  0  0  0  0  0  0  0  0  0  0  0
  -31.8620  -14.6600   19.4380 O   0  0  0  0  0  0  0  0  0  0  0  0
  -30.2890  -15.4240   20.8490 N   0  0  0  0  0  0  0  0  0  0  0  0
  -29.3990  -15.2280   21.2780 H   0  0  0  0  0  0  0  0  0  0  0  0
  -25.3190  -13.8720   20.4160 C   0  0  0  0  0  0  0  0  0  0  0  0
  -24.2800  -13.0970   20.8560 C   0  0  0  0  0  0  0  0  0  0  0  0
  -24.7400  -11.7460   20.7890 C   0  0  0  0  0  0  0  0  0  0  0  0
  -26.3460  -12.9920   20.1100 N   0  0  0  0  0  0  0  0  0  0  0  0
  -26.0050  -11.7090   20.3930 N   0  0  0  0  0  0  0  0  0  0  0  0
  -24.0310  -10.4810   21.0250 C   0  0  0  0  0  0  0  0  0  0  0  0
  -24.4830   -9.5480   21.9830 C   0  0  0  0  0  3  0  0  0  0  0  0
  -23.7740   -8.3480   22.2030 C   0  0  0  0  0  3  0  0  0  0  0  0
  -22.5970   -8.0720   21.4670 C   0  0  0  0  0  0  0  0  0  0  0  0
  -22.1640   -8.9950   20.4990 C   0  0  0  0  0  3  0  0  0  0  0  0
  -22.8740  -10.1870   20.2760 C   0  0  0  0  0  3  0  0  0  0  0  0
  -21.8580   -6.9220   21.5970 O   0  0  0  0  0  0  0  0  0  0  0  0
  -21.7790   -6.2470   22.7880 C   0  0  0  0  0  0  0  0  0  0  0  0
  -21.2970   -6.8620   23.9640 C   0  0  0  0  0  3  0  0  0  0  0  0
  -21.1680   -6.1120   25.1490 C   0  0  0  0  0  3  0  0  0  0  0  0
  -21.5110   -4.7470   25.1600 C   0  0  0  0  0  0  0  0  0  0  0  0
  -21.9870   -4.1310   23.9890 C   0  0  0  0  0  3  0  0  0  0  0  0
  -22.1180   -4.8790   22.8060 C   0  0  0  0  0  0  0  0  0  0  0  0
  -22.5560   -4.2740   21.6760 F   0  0  0  0  0  0  0  0  0  0  0  0
  -21.3810   -4.0240   26.2980 F   0  0  0  0  0  0  0  0  0  0  0  0
  -22.9050  -13.5710   21.2260 C   0  0  0  0  0  0  0  0  0  0  0  0
  -22.2410  -12.8740   22.1420 N   0  0  0  0  0  0  0  0  0  0  0  0
  -22.4280  -14.5950   20.7370 O   0  0  0  0  0  0  0  0  0  0  0  0
  -22.6410  -12.0460   22.5590 H   0  0  0  0  0  0  0  0  0  0  0  0
  -21.3210  -13.1740   22.4320 H   0  0  0  0  0  0  0  0  0  0  0  0
  -25.4710  -15.2430   20.2300 N   0  0  0  0  0  0  0  0  0  0  0  0
  -24.7070  -15.8930   20.3750 H   0  0  0  0  0  0  0  0  0  0  0  0
  -26.2890  -15.6730   19.8160 H   0  0  0  0  0  0  0  0  0  0  0  0
  -27.5440  -19.9320   19.9280 O   0  0  0  0  0  0  0  0  0  0  0  0
  -25.6100  -19.6010   18.5500 C   0  0  0  0  0  1  0  0  0  0  0  0
  -26.7770  -18.9280   19.2760 C   0  0  0  0  0  2  0  0  0  0  0  0
  2  1  1  0
  3  4  1  0
  4  1  2  0
  4 52  1  0
  5  8  1  0
  5  2  2  0
  6  3  2  0
  6  5  1  0
  7  9  1  0
  7  8  2  0
 10 11  1  0
 10  9  1  0
 12 23  2  0
 13 11  1  0
 13 18  1  0
 14 22  1  0
 14 24  1  0
 15 21  1  0
 15 17  1  0
 16 22  1  0
 17 16  1  0
 18 17  2  0
 19 20  1  0
 19 13  2  0
 20 15  2  0
 21 14  1  0
 22 12  1  0
 24 26  2  0
 25 24  1  0
 27 25  1  0
 28 37  2  0
 28 33  1  0
 29 25  1  0
 29 33  1  0
 30 29  1  0
 31 32  1  0
 31 30  1  0
 32 28  1  0
 33 34  2  0
 34 35  1  0
 36 35  2  0
 37 36  1  0
 38 12  1  0
 38 39  1  0
 38 48  1  0
 39 42  1  0
 40 44  1  0
 40 39  1  0
 41 40  2  0
 44 43  1  0
 44 46  1  0
 46 47  1  0
 46 45  1  0
 48 51  1  1
 48 49  1  0
 50 48  1  0
 53 61  1  0
 54 59  1  0
 55 56  1  0
 55 54  1  0
 57 56  1  0
 57 66  1  0
 57 58  1  0
 59 53  1  0
 59 58  1  0
 60 53  2  0
 61 62  1  0
 61 52  1  0
 63 64  2  0
 64 83  1  0
 65 64  1  0
 65 68  1  0
 66 67  1  0
 66 63  1  0
 67 65  2  0
 68 69  1  0
 69 70  2  0
 71 74  1  0
 71 70  1  0
 72 71  2  0
 73 72  1  0
 73 68  2  0
 74 75  1  0
 75 80  2  0
 75 76  1  0
 76 77  2  0
 77 78  1  0
 78 82  1  0
 79 78  2  0
 80 79  1  0
 81 80  1  0
 83 84  1  0
 84 87  1  0
 84 86  1  0
 85 83  2  0
 88 89  1  0
 88 63  1  0
 90 88  1  0
 91  6  1  0
 92 93  1  0
 93 91  1  0
M  ISO  4  10 101  11 101  53 100  61 100
M  END
>  <TORSDO>  (37) 
F 22

>  <SCORE>  (37) 
-12.232

>  <name>  (37) 
36

>  <ligand_id>  (37) 
36

>  <original_smiles>  (37) 
[H]C(=Nc1c([H])c([H])c(C([H])([H])N([H])C(=O)N2C([H])([H])C([H])([H])C([H])([H])C([H])(n3nc(-c4c([H])c([H])c(Oc5c([H])c([H])c(F)c([H])c5F)c([H])c4[H])c(C(=O)N([H])[H])c3N([H])[H])C2([H])[H])c([H])c1OC([H])([H])C([H])([H])[H])C([H])([H])C([H])([H])Oc1c([H])c([H])c2c(c1[H])C([H])([H])N(C(=O)C([H])(N([H])C(=O)C([H])(N([H])C([H])([H])[H])C([H])([H])[H])C(C([H])([H])[H])(C([H])([H])[H])C([H])([H])[H])C([H])(C(=O)N([H])C1([H])c3c([H])c([H])c([H])c([H])c3C([H])([H])C([H])([H])C1([H])[H])C2([H])[H]

>  <smiles>  (37) 
[H]C(=Nc1c([H])c([H])c(C([H])([H])N([H])C(=O)N2C([H])([H])C([H])([H])C([H])([H])C([H])(n3nc(-c4c([H])c([H])c(Oc5c([H])c([H])c(F)c([H])c5F)c([H])c4[H])c(C(=O)N([H])[H])c3N([H])[H])C2([H])[H])c([H])c1OC([H])([H])C([H])([H])[H])C([H])([H])C([H])([H])Oc1c([H])c([H])c2c(c1[H])C([H])([H])N(C(=O)C([H])(N([H])C(=O)C([H])(N([H])C([H])([H])[H])C([H])([H])[H])C(C([H])([H])[H])(C([H])([H])[H])C([H])([H])[H])C([H])(C(=O)N([H])C1([H])c3c([H])c([H])c([H])c([H])c3C([H])([H])C([H])([H])C1([H])[H])C2([H])[H]

$$$$
37:0:0
     RDKit          3D

 95103  0  0  1  0  0  0  0  0999 V2000
  -30.4730  -19.4760   22.5540 C   0  0  0  0  0  3  0  0  0  0  0  0
  -30.8150  -19.6350   19.8000 C   0  0  0  0  0  3  0  0  0  0  0  0
  -30.6370  -18.2850   21.8190 C   0  0  0  0  0  0  0  0  0  0  0  0
  -30.5150  -20.7550   21.9470 C   0  0  0  0  0  0  0  0  0  0  0  0
  -30.8410  -18.3540   20.4170 C   0  0  0  0  0  0  0  0  0  0  0  0
  -30.6490  -20.8370   20.5370 C   0  0  0  0  0  0  0  0  0  0  0  0
  -30.5250  -21.9820   22.7750 C   0  0  0  0  0  3  0  0  0  0  0  0
  -30.7410  -22.0620   24.1020 C   0  0  0  0  0  3  0  0  0  0  0  0
  -30.7420  -23.3560   24.8860 C   0  0  0  0  0  1  0  0  0  0  0  0
  -29.7070  -16.2020   22.7900 C   0  0  0  0  0  2  0  0  0  0  0  0
  -30.7390  -17.0330   22.5770 C   0  0  0  0  0  3  0  0  0  0  0  0
  -31.1950  -17.1360   19.5340 C   0  0  0  0  0  2  0  0  0  0  0  0
  -31.4060  -14.6540   19.5300 C   0  0  0  0  0  0  0  0  0  0  0  0
  -30.9230  -12.4750   18.5030 C   0  0  0  0  0  2  0  0  0  0  0  0
  -29.8850  -12.7060   17.3860 C   0  0  0  0  0  2  0  0  0  0  0  0
  -28.4560  -12.6100   17.9550 C   0  0  0  0  0  2  0  0  0  0  0  0
  -28.2630  -13.4620   19.2370 C   0  0  0  0  0  3  0  0  0  0  0  0
  -29.4210  -13.2550   20.2440 C   0  0  0  0  0  2  0  0  0  0  0  0
  -30.6860  -13.4980   19.5340 N   0  0  0  0  0  0  0  0  0  0  0  0
  -32.5120  -14.7370   18.9960 O   0  0  0  0  0  0  0  0  0  0  0  0
  -30.7590  -15.7730   19.9170 N   0  0  0  0  0  0  0  0  0  0  0  0
  -29.8520  -15.6750   20.3470 H   0  0  0  0  0  0  0  0  0  0  0  0
  -25.9840  -14.1270   20.2220 C   0  0  0  0  0  0  0  0  0  0  0  0
  -24.9250  -13.3820   20.6680 C   0  0  0  0  0  0  0  0  0  0  0  0
  -25.3180  -12.0140   20.5310 C   0  0  0  0  0  0  0  0  0  0  0  0
  -26.9590  -13.2170   19.8460 N   0  0  0  0  0  0  0  0  0  0  0  0
  -26.5670  -11.9380   20.0890 N   0  0  0  0  0  0  0  0  0  0  0  0
  -24.5570  -10.7770   20.7420 C   0  0  0  0  0  0  0  0  0  0  0  0
  -24.9760   -9.8030   21.6760 C   0  0  0  0  0  3  0  0  0  0  0  0
  -24.2180   -8.6300   21.8750 C   0  0  0  0  0  3  0  0  0  0  0  0
  -23.0260   -8.4230   21.1420 C   0  0  0  0  0  0  0  0  0  0  0  0
  -22.6250   -9.3840   20.1970 C   0  0  0  0  0  3  0  0  0  0  0  0
  -23.3840  -10.5490   19.9960 C   0  0  0  0  0  3  0  0  0  0  0  0
  -22.2380   -7.3020   21.2530 O   0  0  0  0  0  0  0  0  0  0  0  0
  -22.0850   -6.6440   22.4480 C   0  0  0  0  0  0  0  0  0  0  0  0
  -21.5840   -7.2950   23.5960 C   0  0  0  0  0  3  0  0  0  0  0  0
  -21.3740   -6.5670   24.7840 C   0  0  0  0  0  3  0  0  0  0  0  0
  -21.6550   -5.1870   24.8240 C   0  0  0  0  0  0  0  0  0  0  0  0
  -22.1510   -4.5360   23.6800 C   0  0  0  0  0  3  0  0  0  0  0  0
  -22.3620   -5.2620   22.4950 C   0  0  0  0  0  0  0  0  0  0  0  0
  -22.8190   -4.6270   21.3880 F   0  0  0  0  0  0  0  0  0  0  0  0
  -21.4460   -4.4850   25.9610 F   0  0  0  0  0  0  0  0  0  0  0  0
  -23.5890  -13.9040   21.1090 C   0  0  0  0  0  0  0  0  0  0  0  0
  -22.9400  -13.2130   22.0400 N   0  0  0  0  0  0  0  0  0  0  0  0
  -23.1340  -14.9570   20.6640 O   0  0  0  0  0  0  0  0  0  0  0  0
  -23.3260  -12.3610   22.4200 H   0  0  0  0  0  0  0  0  0  0  0  0
  -22.0470  -13.5400   22.3800 H   0  0  0  0  0  0  0  0  0  0  0  0
  -26.1950  -15.4950   20.0840 N   0  0  0  0  0  0  0  0  0  0  0  0
  -25.4750  -16.1780   20.2930 H   0  0  0  0  0  0  0  0  0  0  0  0
  -27.0360  -15.9090   19.7020 H   0  0  0  0  0  0  0  0  0  0  0  0
  -30.7740  -22.0530   19.8810 O   0  0  0  0  0  0  0  0  0  0  0  0
  -29.5840  -22.8350   19.6790 C   0  0  0  0  0  2  0  0  0  0  0  0
  -29.8820  -24.3690   19.6520 C   0  0  0  0  0  2  0  0  0  0  0  0
  -28.6390  -25.2320   19.3060 C   0  0  0  0  0  2  0  0  0  0  0  0
  -28.7620  -26.6630   19.5120 O   0  0  0  0  0  0  0  0  0  0  0  0
  -24.6920  -31.3830   23.0210 C   0  0  0  0  0  0  0  0  0  0  0  0
  -27.5670  -27.3770   19.5380 C   0  0  0  0  0  0  0  0  0  0  0  0
  -23.5600  -30.0630   21.2680 C   0  0  0  0  0  3  0  0  0  0  0  0
  -25.0890  -28.7610   19.6960 C   0  0  0  0  0  0  0  0  0  0  0  0
  -26.0620  -30.5870   21.0930 C   0  0  0  0  0  2  0  0  0  0  0  0
  -26.2250  -29.2890   20.3240 C   0  0  0  0  0  0  0  0  0  0  0  0
  -27.4670  -28.6070   20.2390 C   0  0  0  0  0  3  0  0  0  0  0  0
  -26.4070  -26.8880   18.8890 C   0  0  0  0  0  3  0  0  0  0  0  0
  -25.1780  -27.5630   18.9730 C   0  0  0  0  0  3  0  0  0  0  0  0
  -23.7960  -29.5330   19.8290 C   0  0  0  0  0  2  0  0  0  0  0  0
  -24.7890  -30.6890   21.8530 N   0  0  0  0  0  0  0  0  0  0  0  0
  -23.6010  -31.5370   23.5880 O   0  0  0  0  0  0  0  0  0  0  0  0
  -22.9840  -28.9170   22.1320 C   0  0  0  0  0  0  0  0  0  0  0  0
  -21.6830  -28.6300   21.9620 N   0  0  0  0  0  0  0  0  0  0  0  0
  -23.7050  -28.2940   22.9160 O   0  0  0  0  0  0  0  0  0  0  0  0
  -21.1580  -29.1940   21.3070 H   0  0  0  0  0  0  0  0  0  0  0  0
  -18.4270  -27.0870   22.2530 C   0  0  0  0  0  0  0  0  0  0  0  0
  -20.9370  -27.5690   22.6390 C   0  0  0  0  0  3  0  0  0  0  0  0
  -21.1970  -26.1950   21.9790 C   0  0  0  0  0  2  0  0  0  0  0  0
  -20.1660  -25.8360   20.9050 C   0  0  0  0  0  2  0  0  0  0  0  0
  -18.7560  -25.8060   21.5030 C   0  0  0  0  0  2  0  0  0  0  0  0
  -19.4510  -27.9210   22.7720 C   0  0  0  0  0  0  0  0  0  0  0  0
  -19.0910  -29.1170   23.4310 C   0  0  0  0  0  3  0  0  0  0  0  0
  -17.7400  -29.4810   23.5750 C   0  0  0  0  0  3  0  0  0  0  0  0
  -16.7290  -28.6430   23.0740 C   0  0  0  0  0  3  0  0  0  0  0  0
  -17.0730  -27.4470   22.4190 C   0  0  0  0  0  3  0  0  0  0  0  0
  -25.9420  -32.0360   23.6890 C   0  0  0  0  0  3  0  0  0  0  0  0
  -25.5690  -33.4020   24.0810 N   0  0  0  0  0  0  0  0  0  0  0  0
  -25.8670  -34.5030   23.3770 C   0  0  0  0  0  0  0  0  0  0  0  0
  -26.5550  -34.4770   22.3530 O   0  0  0  0  0  0  0  0  0  0  0  0
  -24.9590  -33.4930   24.8800 H   0  0  0  0  0  0  0  0  0  0  0  0
  -24.0650  -36.2320   23.0820 C   0  0  0  0  0  1  0  0  0  0  0  0
  -25.3140  -35.8450   23.8910 C   0  0  0  0  0  3  0  0  0  0  0  0
  -27.3980  -36.7830   24.7880 C   0  0  0  0  0  1  0  0  0  0  0  0
  -26.3000  -36.9470   23.8390 N   0  0  0  0  0  0  0  0  0  0  0  0
  -25.8520  -37.8410   24.0230 H   0  0  0  0  0  0  0  0  0  0  0  0
  -26.4740  -31.2250   24.9340 C   0  0  1  0  0  0  0  0  0  0  0  0
  -25.3800  -30.8870   25.9720 C   0  0  0  0  0  1  0  0  0  0  0  0
  -27.1230  -29.8960   24.4820 C   0  0  0  0  0  1  0  0  0  0  0  0
  -27.5780  -32.0360   25.6520 C   0  0  0  0  0  1  0  0  0  0  0  0
  2  5  2  0
  2  6  1  0
  3  1  2  0
  3 11  1  0
  4  1  1  0
  4  7  1  0
  5  3  1  0
  6  4  2  0
  7  8  2  0
  8  9  1  0
 11 10  2  0
 12 21  1  0
 12  5  1  0
 13 19  1  0
 13 21  1  0
 14 19  1  0
 15 16  1  0
 15 14  1  0
 17 16  1  0
 17 26  1  0
 17 18  1  0
 19 18  1  0
 20 13  2  0
 21 22  1  0
 23 24  2  0
 24 43  1  0
 25 24  1  0
 25 28  1  0
 26 27  1  0
 26 23  1  0
 27 25  2  0
 28 29  1  0
 29 30  2  0
 31 34  1  0
 31 30  1  0
 32 31  2  0
 33 32  1  0
 33 28  2  0
 34 35  1  0
 35 40  2  0
 35 36  1  0
 36 37  2  0
 37 38  1  0
 38 42  1  0
 39 38  2  0
 40 39  1  0
 41 40  1  0
 43 44  1  0
 44 47  1  0
 44 46  1  0
 45 43  2  0
 48 23  1  0
 48 49  1  0
 50 48  1  0
 51  6  1  0
 52 51  1  0
 53 52  1  0
 54 55  1  0
 54 53  1  0
 55 57  1  0
 56 67  2  0
 57 62  1  0
 58 66  1  0
 58 68  1  0
 59 65  1  0
 59 61  1  0
 60 66  1  0
 61 60  1  0
 62 61  2  0
 63 64  1  0
 63 57  2  0
 64 59  2  0
 65 58  1  0
 66 56  1  0
 68 70  2  0
 69 68  1  0
 71 69  1  0
 72 81  2  0
 72 77  1  0
 73 69  1  0
 73 77  1  0
 74 73  1  0
 75 76  1  0
 75 74  1  0
 76 72  1  0
 77 78  2  0
 78 79  1  0
 80 79  2  0
 81 80  1  0
 82 56  1  0
 82 83  1  0
 82 92  1  0
 83 86  1  0
 84 88  1  0
 84 83  1  0
 85 84  2  0
 88 87  1  0
 90 88  1  0
 90 91  1  0
 90 89  1  0
 92 95  1  1
 92 93  1  0
 94 92  1  0
M  ISO  4  13 100  21 100  54 101  55 101
M  END
>  <TORSDO>  (38) 
F 23

>  <SCORE>  (38) 
-7.437

>  <name>  (38) 
37

>  <ligand_id>  (38) 
37

>  <original_smiles>  (38) 
[H]C([H])=C([H])c1c([H])c(C([H])=C([H])C([H])([H])[H])c(OC([H])([H])C([H])([H])C([H])([H])Oc2c([H])c([H])c3c(c2[H])C([H])([H])N(C(=O)C([H])(N([H])C(=O)C([H])(N([H])C([H])([H])[H])C([H])([H])[H])C(C([H])([H])[H])(C([H])([H])[H])C([H])([H])[H])C([H])(C(=O)N([H])C2([H])c4c([H])c([H])c([H])c([H])c4C([H])([H])C([H])([H])C2([H])[H])C3([H])[H])c([H])c1C([H])([H])N([H])C(=O)N1C([H])([H])C([H])([H])C([H])([H])C([H])(n2nc(-c3c([H])c([H])c(Oc4c([H])c([H])c(F)c([H])c4F)c([H])c3[H])c(C(=O)N([H])[H])c2N([H])[H])C1([H])[H]

>  <smiles>  (38) 
[H]C([H])=C([H])c1c([H])c(C([H])=C([H])C([H])([H])[H])c(OC([H])([H])C([H])([H])C([H])([H])Oc2c([H])c([H])c3c(c2[H])C([H])([H])N(C(=O)C([H])(N([H])C(=O)C([H])(N([H])C([H])([H])[H])C([H])([H])[H])C(C([H])([H])[H])(C([H])([H])[H])C([H])([H])[H])C([H])(C(=O)N([H])C2([H])c4c([H])c([H])c([H])c([H])c4C([H])([H])C([H])([H])C2([H])[H])C3([H])[H])c([H])c1C([H])([H])N([H])C(=O)N1C([H])([H])C([H])([H])C([H])([H])C([H])(n2nc(-c3c([H])c([H])c(Oc4c([H])c([H])c(F)c([H])c4F)c([H])c3[H])c(C(=O)N([H])[H])c2N([H])[H])C1([H])[H]

$$$$
38:0:0
     RDKit          3D

 95103  0  0  1  0  0  0  0  0999 V2000
  -28.9660  -21.9900   20.8070 C   0  0  0  0  0  0  0  0  0  0  0  0
  -29.9580  -21.1350   20.4740 N   0  0  0  0  0  0  0  0  0  0  0  0
  -27.8360  -21.6620   21.1730 O   0  0  0  0  0  0  0  0  0  0  0  0
  -30.8140  -21.6030   20.2100 H   0  0  0  0  0  0  0  0  0  0  0  0
  -28.9930  -18.9030   20.6970 C   0  0  0  0  0  3  0  0  0  0  0  0
  -28.8180  -17.5710   20.5610 C   0  0  0  0  0  2  0  0  0  0  0  0
  -31.2230  -19.2790   19.9500 C   0  0  0  0  0  3  0  0  0  0  0  0
  -31.7960  -18.0570   19.8740 C   0  0  0  0  0  0  0  0  0  0  0  0
  -31.2870  -16.8830   20.3260 C   0  0  0  0  0  0  0  0  0  0  0  0
  -30.0270  -19.7210   20.3920 C   0  0  0  0  0  0  0  0  0  0  0  0
  -29.8300  -16.5600   20.1800 C   0  0  0  0  0  0  0  0  0  0  0  0
  -33.1940  -18.0220   19.2790 C   0  0  0  0  0  1  0  0  0  0  0  0
  -29.3410  -15.4180   19.8310 N   0  0  0  0  0  2  0  0  0  0  0  0
  -30.0630  -14.4230   19.1640 C   0  0  0  0  0  0  0  0  0  0  0  0
  -29.6110  -12.2550   18.0660 C   0  0  0  0  0  2  0  0  0  0  0  0
  -28.4320  -12.4650   17.0920 C   0  0  0  0  0  2  0  0  0  0  0  0
  -27.0800  -12.2870   17.8120 C   0  0  0  0  0  2  0  0  0  0  0  0
  -26.9980  -13.0820   19.1420 C   0  0  0  0  0  3  0  0  0  0  0  0
  -28.2660  -12.8560   19.9940 C   0  0  0  0  0  2  0  0  0  0  0  0
  -29.4410  -13.2090   19.1750 N   0  0  0  0  0  0  0  0  0  0  0  0
  -31.0650  -14.6080   18.4700 O   0  0  0  0  0  0  0  0  0  0  0  0
  -24.8050  -13.6240   20.3780 C   0  0  0  0  0  0  0  0  0  0  0  0
  -23.8400  -12.8210   20.9270 C   0  0  0  0  0  0  0  0  0  0  0  0
  -24.2860  -11.4780   20.7290 C   0  0  0  0  0  0  0  0  0  0  0  0
  -25.7780  -12.7680   19.8840 N   0  0  0  0  0  0  0  0  0  0  0  0
  -25.4790  -11.4700   20.1480 N   0  0  0  0  0  0  0  0  0  0  0  0
  -23.6200  -10.1990   21.0080 C   0  0  0  0  0  0  0  0  0  0  0  0
  -24.1790   -9.2520   21.8950 C   0  0  0  0  0  3  0  0  0  0  0  0
  -23.5120   -8.0370   22.1610 C   0  0  0  0  0  3  0  0  0  0  0  0
  -22.2700   -7.7610   21.5420 C   0  0  0  0  0  0  0  0  0  0  0  0
  -21.7280   -8.6950   20.6440 C   0  0  0  0  0  3  0  0  0  0  0  0
  -22.3950   -9.9030   20.3750 C   0  0  0  0  0  3  0  0  0  0  0  0
  -21.5620   -6.5970   21.7210 O   0  0  0  0  0  0  0  0  0  0  0  0
  -21.5980   -5.9060   22.9050 C   0  0  0  0  0  0  0  0  0  0  0  0
  -21.2000   -6.4970   24.1240 C   0  0  0  0  0  3  0  0  0  0  0  0
  -21.1860   -5.7300   25.3060 C   0  0  0  0  0  3  0  0  0  0  0  0
  -21.5630   -4.3740   25.2710 C   0  0  0  0  0  0  0  0  0  0  0  0
  -21.9560   -3.7830   24.0560 C   0  0  0  0  0  3  0  0  0  0  0  0
  -21.9710   -4.5480   22.8770 C   0  0  0  0  0  0  0  0  0  0  0  0
  -22.3300   -3.9670   21.7060 F   0  0  0  0  0  0  0  0  0  0  0  0
  -21.5410   -3.6350   26.4040 F   0  0  0  0  0  0  0  0  0  0  0  0
  -22.5340  -13.2660   21.5180 C   0  0  0  0  0  0  0  0  0  0  0  0
  -22.0270  -12.5360   22.5050 N   0  0  0  0  0  0  0  0  0  0  0  0
  -21.9790  -14.2980   21.1410 O   0  0  0  0  0  0  0  0  0  0  0  0
  -22.4900  -11.7010   22.8320 H   0  0  0  0  0  0  0  0  0  0  0  0
  -21.1610  -12.8180   22.9420 H   0  0  0  0  0  0  0  0  0  0  0  0
  -24.9280  -15.0020   20.2390 N   0  0  0  0  0  0  0  0  0  0  0  0
  -24.2160  -15.6510   20.5540 H   0  0  0  0  0  0  0  0  0  0  0  0
  -25.7120  -15.4610   19.7890 H   0  0  0  0  0  0  0  0  0  0  0  0
  -32.9490  -15.0470   21.1240 C   0  0  0  0  0  1  0  0  0  0  0  0
  -31.9620  -16.1660   21.5010 C   0  0  0  0  0  2  0  0  0  0  0  0
  -29.3090  -23.4860   20.6950 C   0  0  0  0  0  2  0  0  0  0  0  0
  -28.2500  -24.3010   19.9170 C   0  0  0  0  0  2  0  0  0  0  0  0
  -28.7740  -25.6340   19.3380 C   0  0  0  0  0  2  0  0  0  0  0  0
  -28.5760  -26.7510   20.2110 O   0  0  0  0  0  0  0  0  0  0  0  0
  -24.6870  -31.8940   23.2030 C   0  0  0  0  0  0  0  0  0  0  0  0
  -27.3660  -27.4190   20.1960 C   0  0  0  0  0  0  0  0  0  0  0  0
  -23.4880  -30.4510   21.5910 C   0  0  0  0  0  3  0  0  0  0  0  0
  -24.9490  -28.8950   20.1960 C   0  0  0  0  0  0  0  0  0  0  0  0
  -26.0090  -30.8260   21.3780 C   0  0  0  0  0  2  0  0  0  0  0  0
  -26.1030  -29.4420   20.7690 C   0  0  0  0  0  0  0  0  0  0  0  0
  -27.3100  -28.7080   20.7730 C   0  0  0  0  0  3  0  0  0  0  0  0
  -26.1840  -26.8750   19.6390 C   0  0  0  0  0  3  0  0  0  0  0  0
  -24.9810  -27.6060   19.6370 C   0  0  0  0  0  3  0  0  0  0  0  0
  -23.6990  -29.7460   20.2250 C   0  0  0  0  0  2  0  0  0  0  0  0
  -24.7460  -31.0740   22.1150 N   0  0  0  0  0  0  0  0  0  0  0  0
  -23.6050  -32.1670   23.7410 O   0  0  0  0  0  0  0  0  0  0  0  0
  -22.8490  -29.4410   22.5720 C   0  0  0  0  0  0  0  0  0  0  0  0
  -21.5320  -29.2200   22.4280 N   0  0  0  0  0  0  0  0  0  0  0  0
  -23.5350  -28.8570   23.4160 O   0  0  0  0  0  0  0  0  0  0  0  0
  -21.0390  -29.7430   21.7180 H   0  0  0  0  0  0  0  0  0  0  0  0
  -18.1830  -27.9510   22.8970 C   0  0  0  0  0  0  0  0  0  0  0  0
  -20.7260  -28.2860   23.2140 C   0  0  0  0  0  3  0  0  0  0  0  0
  -20.8790  -26.8390   22.6870 C   0  0  0  0  0  2  0  0  0  0  0  0
  -19.8080  -26.4540   21.6610 C   0  0  0  0  0  2  0  0  0  0  0  0
  -18.4100  -26.5850   22.2720 C   0  0  0  0  0  2  0  0  0  0  0  0
  -19.2720  -28.7560   23.3240 C   0  0  0  0  0  0  0  0  0  0  0  0
  -19.0060  -30.0340   23.8650 C   0  0  0  0  0  3  0  0  0  0  0  0
  -17.6860  -30.5040   23.9870 C   0  0  0  0  0  3  0  0  0  0  0  0
  -16.6110  -29.6950   23.5770 C   0  0  0  0  0  3  0  0  0  0  0  0
  -16.8610  -28.4210   23.0370 C   0  0  0  0  0  3  0  0  0  0  0  0
  -25.9700  -32.5450   23.8070 C   0  0  0  0  0  3  0  0  0  0  0  0
  -25.6420  -33.9370   24.1430 N   0  0  0  0  0  0  0  0  0  0  0  0
  -25.9490  -34.9960   23.3810 C   0  0  0  0  0  0  0  0  0  0  0  0
  -26.6110  -34.9040   22.3430 O   0  0  0  0  0  0  0  0  0  0  0  0
  -25.0520  -34.0810   24.9500 H   0  0  0  0  0  0  0  0  0  0  0  0
  -24.1910  -36.7600   23.0350 C   0  0  0  0  0  1  0  0  0  0  0  0
  -25.4410  -36.3740   23.8420 C   0  0  0  0  0  3  0  0  0  0  0  0
  -27.5690  -37.2870   24.6620 C   0  0  0  0  0  1  0  0  0  0  0  0
  -26.4570  -37.4460   23.7290 N   0  0  0  0  0  0  0  0  0  0  0  0
  -26.0370  -38.3580   23.8880 H   0  0  0  0  0  0  0  0  0  0  0  0
  -26.5190  -31.7780   25.0730 C   0  0  1  0  0  0  0  0  0  0  0  0
  -25.4400  -31.4840   26.1420 C   0  0  0  0  0  1  0  0  0  0  0  0
  -27.1450  -30.4270   24.6570 C   0  0  0  0  0  1  0  0  0  0  0  0
  -27.6480  -32.6010   25.7370 C   0  0  0  0  0  1  0  0  0  0  0  0
  1  3  2  0
  2  1  1  0
  4  2  1  0
  6  5  1  0
  7 10  1  0
  8  7  2  0
  8  9  1  0
  9 51  1  0
 10  2  1  0
 10  5  2  0
 11  9  2  0
 11  6  1  0
 12  8  1  0
 13 11  1  0
 14 20  1  0
 14 13  1  0
 15 20  1  0
 16 17  1  0
 16 15  1  0
 18 17  1  0
 18 25  1  0
 18 19  1  0
 20 19  1  0
 21 14  2  0
 22 23  2  0
 23 42  1  0
 24 23  1  0
 24 27  1  0
 25 26  1  0
 25 22  1  0
 26 24  2  0
 27 28  1  0
 28 29  2  0
 30 33  1  0
 30 29  1  0
 31 30  2  0
 32 31  1  0
 32 27  2  0
 33 34  1  0
 34 35  1  0
 35 36  2  0
 37 36  1  0
 37 41  1  0
 38 37  2  0
 39 34  2  0
 39 38  1  0
 40 39  1  0
 42 43  1  0
 43 45  1  0
 43 46  1  0
 44 42  2  0
 47 22  1  0
 47 48  1  0
 49 47  1  0
 50 51  1  0
 52  1  1  0
 53 52  1  0
 54 53  1  0
 54 55  1  0
 56 67  2  0
 57 55  1  0
 57 62  1  0
 58 66  1  0
 58 68  1  0
 59 65  1  0
 59 61  1  0
 60 66  1  0
 61 62  2  0
 61 60  1  0
 63 57  2  0
 64 63  1  0
 64 59  2  0
 65 58  1  0
 66 56  1  0
 68 70  2  0
 69 68  1  0
 71 69  1  0
 72 81  2  0
 72 77  1  0
 73 69  1  0
 73 77  1  0
 74 73  1  0
 75 76  1  0
 75 74  1  0
 76 72  1  0
 77 78  2  0
 78 79  1  0
 80 79  2  0
 81 80  1  0
 82 56  1  0
 82 83  1  0
 82 92  1  0
 83 86  1  0
 84 88  1  0
 84 83  1  0
 85 84  2  0
 88 87  1  0
 90 88  1  0
 90 91  1  0
 90 89  1  0
 92 95  1  1
 92 93  1  0
 94 92  1  0
M  ISO  4  13 100  14 100  54 101  55 101
M  END
>  <TORSDO>  (39) 
F 21

>  <SCORE>  (39) 
-9.972

>  <name>  (39) 
38

>  <ligand_id>  (39) 
38

>  <original_smiles>  (39) 
[H]c1c([H])c([H])c2c(c1[H])C([H])([H])C([H])([H])C([H])([H])C2([H])N([H])C(=O)C1([H])N(C(=O)C([H])(N([H])C(=O)C([H])(N([H])C([H])([H])[H])C([H])([H])[H])C(C([H])([H])[H])(C([H])([H])[H])C([H])([H])[H])C([H])([H])c2c([H])c(OC([H])([H])C([H])([H])C([H])([H])C(=O)N([H])c3c([H])c(C([H])([H])[H])c(C([H])([H])C([H])([H])[H])c(=NC(=O)N4C([H])([H])C([H])([H])C([H])([H])C([H])(n5nc(-c6c([H])c([H])c(Oc7c([H])c([H])c(F)c([H])c7F)c([H])c6[H])c(C(=O)N([H])[H])c5N([H])[H])C4([H])[H])c([H])c3[H])c([H])c([H])c2C1([H])[H]

>  <smiles>  (39) 
[H]c1c([H])c([H])c2c(c1[H])C([H])([H])C([H])([H])C([H])([H])C2([H])N([H])C(=O)C1([H])N(C(=O)C([H])(N([H])C(=O)C([H])(N([H])C([H])([H])[H])C([H])([H])[H])C(C([H])([H])[H])(C([H])([H])[H])C([H])([H])[H])C([H])([H])c2c([H])c(OC([H])([H])C([H])([H])C([H])([H])C(=O)N([H])c3c([H])c(C([H])([H])[H])c(C([H])([H])C([H])([H])[H])c(=NC(=O)N4C([H])([H])C([H])([H])C([H])([H])C([H])(n5nc(-c6c([H])c([H])c(Oc7c([H])c([H])c(F)c([H])c7F)c([H])c6[H])c(C(=O)N([H])[H])c5N([H])[H])C4([H])[H])c([H])c3[H])c([H])c([H])c2C1([H])[H]

$$$$
39:0:0
     RDKit          3D

 92100  0  0  1  0  0  0  0  0999 V2000
  -29.0770  -19.3390   20.4560 C   0  0  0  0  0  3  0  0  0  0  0  0
  -31.4200  -17.8360   20.1950 C   0  0  0  0  0  3  0  0  0  0  0  0
  -29.0330  -17.9080   20.5400 C   0  0  0  0  0  0  0  0  0  0  0  0
  -30.2770  -20.0630   20.2320 C   0  0  0  0  0  0  0  0  0  0  0  0
  -30.2220  -17.1110   20.4320 C   0  0  0  0  0  0  0  0  0  0  0  0
  -31.4460  -19.2600   20.1000 C   0  0  0  0  0  0  0  0  0  0  0  0
  -32.6390  -19.8680   19.8870 F   0  0  0  0  0  0  0  0  0  0  0  0
  -30.8950  -14.6150   19.9960 C   0  0  0  0  0  0  0  0  0  0  0  0
  -30.5680  -12.4470   18.8210 C   0  0  0  0  0  2  0  0  0  0  0  0
  -29.5420  -12.6650   17.6860 C   0  0  0  0  0  2  0  0  0  0  0  0
  -28.1000  -12.5110   18.2090 C   0  0  0  0  0  2  0  0  0  0  0  0
  -27.8510  -13.3020   19.5200 C   0  0  0  0  0  3  0  0  0  0  0  0
  -28.9810  -13.0510   20.5460 C   0  0  0  0  0  2  0  0  0  0  0  0
  -30.2560  -13.4040   19.9000 N   0  0  0  0  0  0  0  0  0  0  0  0
  -32.0230  -14.7800   19.5240 O   0  0  0  0  0  0  0  0  0  0  0  0
  -30.1470  -15.6420   20.5160 N   0  0  0  0  0  0  0  0  0  0  0  0
  -29.3100  -15.3030   20.9630 H   0  0  0  0  0  0  0  0  0  0  0  0
  -25.5120  -13.9040   20.3930 C   0  0  0  0  0  0  0  0  0  0  0  0
  -24.4640  -13.1320   20.8170 C   0  0  0  0  0  0  0  0  0  0  0  0
  -24.9120  -11.7780   20.7330 C   0  0  0  0  0  0  0  0  0  0  0  0
  -26.5330  -13.0210   20.0810 N   0  0  0  0  0  0  0  0  0  0  0  0
  -26.1810  -11.7360   20.3440 N   0  0  0  0  0  0  0  0  0  0  0  0
  -24.1880  -10.5180   20.9430 C   0  0  0  0  0  0  0  0  0  0  0  0
  -24.6080   -9.5770   21.9090 C   0  0  0  0  0  3  0  0  0  0  0  0
  -23.8840   -8.3800   22.1030 C   0  0  0  0  0  3  0  0  0  0  0  0
  -22.7280   -8.1170   21.3300 C   0  0  0  0  0  0  0  0  0  0  0  0
  -22.3280   -9.0470   20.3540 C   0  0  0  0  0  3  0  0  0  0  0  0
  -23.0520  -10.2340   20.1580 C   0  0  0  0  0  3  0  0  0  0  0  0
  -21.9770   -6.9710   21.4340 O   0  0  0  0  0  0  0  0  0  0  0  0
  -21.8060   -6.3290   22.6340 C   0  0  0  0  0  0  0  0  0  0  0  0
  -21.2360   -6.9770   23.7520 C   0  0  0  0  0  3  0  0  0  0  0  0
  -21.0160   -6.2600   24.9440 C   0  0  0  0  0  3  0  0  0  0  0  0
  -21.3520   -4.8950   25.0190 C   0  0  0  0  0  0  0  0  0  0  0  0
  -21.9130   -4.2460   23.9050 C   0  0  0  0  0  3  0  0  0  0  0  0
  -22.1360   -4.9610   22.7150 C   0  0  0  0  0  0  0  0  0  0  0  0
  -22.6580   -4.3260   21.6370 F   0  0  0  0  0  0  0  0  0  0  0  0
  -21.1330   -4.2030   26.1610 F   0  0  0  0  0  0  0  0  0  0  0  0
  -23.0900  -13.6140   21.1840 C   0  0  0  0  0  0  0  0  0  0  0  0
  -22.4250  -12.9270   22.1060 N   0  0  0  0  0  0  0  0  0  0  0  0
  -22.6170  -14.6360   20.6880 O   0  0  0  0  0  0  0  0  0  0  0  0
  -22.8220  -12.1010   22.5290 H   0  0  0  0  0  0  0  0  0  0  0  0
  -21.5060  -13.2310   22.3950 H   0  0  0  0  0  0  0  0  0  0  0  0
  -25.6730  -15.2730   20.2230 N   0  0  0  0  0  0  0  0  0  0  0  0
  -24.9120  -15.9240   20.3760 H   0  0  0  0  0  0  0  0  0  0  0  0
  -26.4860  -15.7060   19.8060 H   0  0  0  0  0  0  0  0  0  0  0  0
  -29.4520  -22.3900   20.1010 C   0  0  0  0  0  3  0  0  0  0  0  0
  -30.3970  -21.5030   20.2270 N   0  0  0  0  0  0  0  0  0  0  0  0
  -29.6690  -23.9510   20.2520 C   0  0  0  0  0  3  0  0  0  0  0  0
  -28.5370  -24.9500   19.7530 C   0  0  0  0  0  3  0  0  0  0  0  0
  -28.6730  -26.4040   20.0350 O   0  0  0  0  0  0  0  0  0  0  0  0
  -24.6140  -31.5420   23.0980 C   0  0  0  0  0  0  0  0  0  0  0  0
  -27.5200  -27.2070   19.9780 C   0  0  0  0  0  0  0  0  0  0  0  0
  -23.5290  -30.1610   21.3640 C   0  0  0  0  0  3  0  0  0  0  0  0
  -25.0920  -28.7250   19.9400 C   0  0  0  0  0  0  0  0  0  0  0  0
  -26.0600  -30.5850   21.2890 C   0  0  0  0  0  2  0  0  0  0  0  0
  -26.2180  -29.2370   20.5960 C   0  0  0  0  0  0  0  0  0  0  0  0
  -27.4370  -28.4910   20.6040 C   0  0  0  0  0  3  0  0  0  0  0  0
  -26.3630  -26.7500   19.3040 C   0  0  0  0  0  3  0  0  0  0  0  0
  -25.1660  -27.4890   19.2860 C   0  0  0  0  0  3  0  0  0  0  0  0
  -23.8200  -29.5480   19.9710 C   0  0  0  0  0  2  0  0  0  0  0  0
  -24.7510  -30.7790   21.9750 N   0  0  0  0  0  0  0  0  0  0  0  0
  -23.5010  -31.7570   23.6010 O   0  0  0  0  0  0  0  0  0  0  0  0
  -22.8730  -29.0840   22.2600 C   0  0  0  0  0  0  0  0  0  0  0  0
  -21.5500  -28.8980   22.1140 N   0  0  0  0  0  0  0  0  0  0  0  0
  -23.5540  -28.4210   23.0460 O   0  0  0  0  0  0  0  0  0  0  0  0
  -21.0600  -29.4870   21.4550 H   0  0  0  0  0  0  0  0  0  0  0  0
  -18.1670  -27.7180   22.6090 C   0  0  0  0  0  0  0  0  0  0  0  0
  -20.7360  -27.9100   22.8240 C   0  0  0  0  0  3  0  0  0  0  0  0
  -20.7950  -26.5320   22.1240 C   0  0  0  0  0  2  0  0  0  0  0  0
  -19.6600  -26.3180   21.1200 C   0  0  0  0  0  2  0  0  0  0  0  0
  -18.2990  -26.4300   21.8140 C   0  0  0  0  0  2  0  0  0  0  0  0
  -19.3110  -28.4220   23.0690 C   0  0  0  0  0  0  0  0  0  0  0  0
  -19.1320  -29.6330   23.7720 C   0  0  0  0  0  3  0  0  0  0  0  0
  -17.8420  -30.1400   24.0210 C   0  0  0  0  0  3  0  0  0  0  0  0
  -16.7120  -29.4300   23.5750 C   0  0  0  0  0  3  0  0  0  0  0  0
  -16.8750  -28.2220   22.8750 C   0  0  0  0  0  3  0  0  0  0  0  0
  -25.8450  -32.2010   23.7930 C   0  0  0  0  0  3  0  0  0  0  0  0
  -26.3210  -31.4240   25.0820 C   0  0  1  0  0  0  0  0  0  0  0  0
  -25.1810  -31.1320   26.0850 C   0  0  0  0  0  1  0  0  0  0  0  0
  -26.9710  -30.0750   24.6980 C   0  0  0  0  0  1  0  0  0  0  0  0
  -27.4060  -32.2440   25.8180 C   0  0  0  0  0  1  0  0  0  0  0  0
  -25.4800  -33.5840   24.1290 N   0  0  0  0  0  0  0  0  0  0  0  0
  -25.7980  -34.6560   23.3900 C   0  0  0  0  0  0  0  0  0  0  0  0
  -26.4980  -34.5880   22.3770 O   0  0  0  0  0  0  0  0  0  0  0  0
  -24.8640  -33.7100   24.9190 H   0  0  0  0  0  0  0  0  0  0  0  0
  -24.0110  -36.3870   23.0200 C   0  0  0  0  0  1  0  0  0  0  0  0
  -25.2530  -36.0220   23.8490 C   0  0  0  0  0  3  0  0  0  0  0  0
  -27.3330  -36.9860   24.7290 C   0  0  0  0  0  1  0  0  0  0  0  0
  -26.2470  -37.1140   23.7610 N   0  0  0  0  0  0  0  0  0  0  0  0
  -25.8030  -38.0180   23.9010 H   0  0  0  0  0  0  0  0  0  0  0  0
  -26.6780  -17.3790   19.6300 C   0  0  0  0  0  1  0  0  0  0  0  0
  -27.6740  -17.2490   20.7950 C   0  0  0  0  0  2  0  0  0  0  0  0
  1  3  1  0
  2  5  1  0
  3 92  1  0
  4  1  2  0
  5 16  1  0
  5  3  2  0
  6  2  2  0
  6  4  1  0
  7  6  1  0
  8 16  1  0
  9 14  1  0
 10 11  1  0
 10  9  1  0
 12 11  1  0
 12 21  1  0
 12 13  1  0
 14  8  1  0
 14 13  1  0
 15  8  2  0
 16 17  1  0
 18 19  2  0
 19 38  1  0
 20 19  1  0
 20 23  1  0
 21 22  1  0
 21 18  1  0
 22 20  2  0
 23 24  1  0
 24 25  2  0
 26 29  1  0
 26 25  1  0
 27 26  2  0
 28 27  1  0
 28 23  2  0
 29 30  1  0
 30 35  2  0
 30 31  1  0
 31 32  2  0
 32 33  1  0
 33 37  1  0
 34 33  2  0
 35 34  1  0
 36 35  1  0
 38 39  1  0
 39 42  1  0
 39 41  1  0
 40 38  2  0
 43 44  1  0
 43 18  1  0
 45 43  1  0
 46 47  2  0
 46 48  1  0
 47  4  1  0
 49 50  1  0
 49 48  2  0
 51 62  2  0
 52 50  1  0
 52 57  1  0
 53 61  1  0
 53 63  1  0
 54 60  1  0
 54 56  1  0
 55 61  1  0
 56 57  2  0
 56 55  1  0
 58 52  2  0
 59 58  1  0
 59 54  2  0
 60 53  1  0
 61 51  1  0
 63 65  2  0
 64 63  1  0
 66 64  1  0
 67 76  2  0
 67 72  1  0
 68 64  1  0
 68 72  1  0
 69 68  1  0
 70 71  1  0
 70 69  1  0
 71 67  1  0
 72 73  2  0
 73 74  1  0
 75 74  2  0
 76 75  1  0
 77 51  1  0
 77 82  1  0
 77 78  1  0
 78 81  1  1
 78 79  1  0
 80 78  1  0
 82 85  1  0
 83 87  1  0
 83 82  1  0
 84 83  2  0
 87 86  1  0
 89 87  1  0
 89 90  1  0
 89 88  1  0
 91 92  1  0
M  ISO  4   8 100  16 100  49 101  50 101
M  END
>  <TORSDO>  (40) 
F 20

>  <SCORE>  (40) 
-12.840

>  <name>  (40) 
39

>  <ligand_id>  (40) 
39

>  <original_smiles>  (40) 
[H]C(=Nc1c([H])c(C([H])([H])C([H])([H])[H])c(N([H])C(=O)N2C([H])([H])C([H])([H])C([H])([H])C([H])(n3nc(-c4c([H])c([H])c(Oc5c([H])c([H])c(F)c([H])c5F)c([H])c4[H])c(C(=O)N([H])[H])c3N([H])[H])C2([H])[H])c([H])c1F)C([H])([H])C([H])([H])Oc1c([H])c([H])c2c(c1[H])C([H])([H])N(C(=O)C([H])(N([H])C(=O)C([H])(N([H])C([H])([H])[H])C([H])([H])[H])C(C([H])([H])[H])(C([H])([H])[H])C([H])([H])[H])C([H])(C(=O)N([H])C1([H])c3c([H])c([H])c([H])c([H])c3C([H])([H])C([H])([H])C1([H])[H])C2([H])[H]

>  <smiles>  (40) 
[H]C(=Nc1c([H])c(C([H])([H])C([H])([H])[H])c(N([H])C(=O)N2C([H])([H])C([H])([H])C([H])([H])C([H])(n3nc(-c4c([H])c([H])c(Oc5c([H])c([H])c(F)c([H])c5F)c([H])c4[H])c(C(=O)N([H])[H])c3N([H])[H])C2([H])[H])c([H])c1F)C([H])([H])C([H])([H])Oc1c([H])c([H])c2c(c1[H])C([H])([H])N(C(=O)C([H])(N([H])C(=O)C([H])(N([H])C([H])([H])[H])C([H])([H])[H])C(C([H])([H])[H])(C([H])([H])[H])C([H])([H])[H])C([H])(C(=O)N([H])C1([H])c3c([H])c([H])c([H])c([H])c3C([H])([H])C([H])([H])C1([H])[H])C2([H])[H]

$$$$
40:0:0
     RDKit          3D

 89 97  0  0  1  0  0  0  0  0999 V2000
  -30.2530  -19.8670   18.1670 C   0  0  0  0  0  3  0  0  0  0  0  0
  -30.2320  -18.6050   18.8140 C   0  0  0  0  0  3  0  0  0  0  0  0
  -29.0550  -19.7710   20.5650 C   0  0  0  0  0  3  0  0  0  0  0  0
  -29.7000  -21.0950   18.6520 C   0  0  0  0  0  0  0  0  0  0  0  0
  -29.0760  -21.2230   19.9340 C   0  0  0  0  0  0  0  0  0  0  0  0
  -29.6140  -18.3800   20.0570 C   0  0  0  0  0  0  0  0  0  0  0  0
  -30.3270  -15.4710   20.3100 C   0  0  0  0  0  0  0  0  0  0  0  0
  -30.3800  -12.9610   19.5300 C   0  0  0  0  0  2  0  0  0  0  0  0
  -29.5010  -12.6700   18.2830 C   0  0  0  0  0  2  0  0  0  0  0  0
  -28.0540  -12.3650   18.7000 C   0  0  0  0  0  2  0  0  0  0  0  0
  -27.5550  -13.3520   19.7810 C   0  0  0  0  0  3  0  0  0  0  0  0
  -28.5700  -13.5830   20.9250 C   0  0  0  0  0  2  0  0  0  0  0  0
  -29.7960  -14.1290   20.3120 N   0  0  0  0  0  0  0  0  0  0  0  0
  -31.5390  -15.4490   20.0360 O   0  0  0  0  0  0  0  0  0  0  0  0
  -29.5770  -16.7790   20.5140 N   0  0  0  0  0  0  0  0  0  0  0  0
  -28.7120  -16.5690   20.9910 H   0  0  0  0  0  0  0  0  0  0  0  0
  -25.1720  -13.8950   20.4870 C   0  0  0  0  0  0  0  0  0  0  0  0
  -24.1080  -13.1150   20.8440 C   0  0  0  0  0  0  0  0  0  0  0  0
  -24.5830  -11.7660   20.8330 C   0  0  0  0  0  0  0  0  0  0  0  0
  -26.2230  -13.0240   20.2700 N   0  0  0  0  0  0  0  0  0  0  0  0
  -25.8810  -11.7370   20.5460 N   0  0  0  0  0  0  0  0  0  0  0  0
  -23.8570  -10.5030   21.0200 C   0  0  0  0  0  0  0  0  0  0  0  0
  -24.2740   -9.5430   21.9680 C   0  0  0  0  0  3  0  0  0  0  0  0
  -23.5440   -8.3470   22.1460 C   0  0  0  0  0  3  0  0  0  0  0  0
  -22.3820   -8.1030   21.3740 C   0  0  0  0  0  0  0  0  0  0  0  0
  -21.9850   -9.0510   20.4160 C   0  0  0  0  0  3  0  0  0  0  0  0
  -22.7160  -10.2390   20.2380 C   0  0  0  0  0  3  0  0  0  0  0  0
  -21.6270   -6.9580   21.4590 O   0  0  0  0  0  0  0  0  0  0  0  0
  -21.5620   -6.2230   22.6160 C   0  0  0  0  0  0  0  0  0  0  0  0
  -21.1130   -6.7840   23.8310 C   0  0  0  0  0  3  0  0  0  0  0  0
  -20.9950   -5.9760   24.9790 C   0  0  0  0  0  3  0  0  0  0  0  0
  -21.3150   -4.6070   24.9130 C   0  0  0  0  0  0  0  0  0  0  0  0
  -21.7570   -4.0450   23.7020 C   0  0  0  0  0  3  0  0  0  0  0  0
  -21.8760   -4.8510   22.5560 C   0  0  0  0  0  0  0  0  0  0  0  0
  -22.2810   -4.2990   21.3860 F   0  0  0  0  0  0  0  0  0  0  0  0
  -21.1950   -3.8270   26.0130 F   0  0  0  0  0  0  0  0  0  0  0  0
  -22.7040  -13.5880   21.0780 C   0  0  0  0  0  0  0  0  0  0  0  0
  -21.9580  -12.8960   21.9310 N   0  0  0  0  0  0  0  0  0  0  0  0
  -22.2780  -14.6100   20.5400 O   0  0  0  0  0  0  0  0  0  0  0  0
  -22.3160  -12.0710   22.3880 H   0  0  0  0  0  0  0  0  0  0  0  0
  -21.0160  -13.1990   22.1330 H   0  0  0  0  0  0  0  0  0  0  0  0
  -25.3300  -15.2650   20.3000 N   0  0  0  0  0  0  0  0  0  0  0  0
  -24.5550  -15.9130   20.3900 H   0  0  0  0  0  0  0  0  0  0  0  0
  -26.1730  -15.7030   19.9520 H   0  0  0  0  0  0  0  0  0  0  0  0
  -30.9660  -22.5160   17.0120 C   0  0  0  0  0  2  0  0  0  0  0  0
  -29.8930  -22.2740   17.7850 C   0  0  0  0  0  3  0  0  0  0  0  0
  -28.6950  -22.8850   20.4120 C   0  0  0  0  0  3  0  0  0  0  0  0
  -28.1810  -24.2070   19.8870 C   0  0  0  0  0  3  0  0  0  0  0  0
  -28.1780  -25.7190   20.3160 O   0  0  0  0  0  0  0  0  0  0  0  0
  -24.6450  -31.8360   23.1780 C   0  0  0  0  0  0  0  0  0  0  0  0
  -27.1920  -26.8680   20.1730 C   0  0  0  0  0  0  0  0  0  0  0  0
  -23.4530  -30.4370   21.5410 C   0  0  0  0  0  3  0  0  0  0  0  0
  -24.9020  -28.8130   20.1170 C   0  0  0  0  0  0  0  0  0  0  0  0
  -26.0230  -30.6190   21.4070 C   0  0  0  0  0  2  0  0  0  0  0  0
  -26.0900  -29.1980   20.7500 C   0  0  0  0  0  0  0  0  0  0  0  0
  -27.2190  -28.2460   20.7560 C   0  0  0  0  0  3  0  0  0  0  0  0
  -25.9770  -26.6650   19.4770 C   0  0  0  0  0  3  0  0  0  0  0  0
  -24.8770  -27.5710   19.4590 C   0  0  0  0  0  3  0  0  0  0  0  0
  -23.6860  -29.7460   20.1680 C   0  0  0  0  0  2  0  0  0  0  0  0
  -24.7290  -30.9950   22.0950 N   0  0  0  0  0  0  0  0  0  0  0  0
  -23.5530  -32.1310   23.6950 O   0  0  0  0  0  0  0  0  0  0  0  0
  -22.7500  -29.4510   22.5130 C   0  0  0  0  0  0  0  0  0  0  0  0
  -21.4170  -29.2960   22.3950 N   0  0  0  0  0  0  0  0  0  0  0  0
  -23.4120  -28.8250   23.3440 O   0  0  0  0  0  0  0  0  0  0  0  0
  -20.9340  -29.8530   21.7040 H   0  0  0  0  0  0  0  0  0  0  0  0
  -18.0320  -28.0920   22.9160 C   0  0  0  0  0  0  0  0  0  0  0  0
  -20.5930  -28.3620   23.1690 C   0  0  0  0  0  3  0  0  0  0  0  0
  -20.6920  -26.9280   22.5970 C   0  0  0  0  0  2  0  0  0  0  0  0
  -19.5880  -26.6040   21.5860 C   0  0  0  0  0  2  0  0  0  0  0  0
  -18.2080  -26.7450   22.2360 C   0  0  0  0  0  2  0  0  0  0  0  0
  -19.1520  -28.8580   23.3410 C   0  0  0  0  0  0  0  0  0  0  0  0
  -18.9290  -30.1160   23.9420 C   0  0  0  0  0  3  0  0  0  0  0  0
  -17.6230  -30.6100   24.1200 C   0  0  0  0  0  3  0  0  0  0  0  0
  -16.5190  -29.8420   23.7090 C   0  0  0  0  0  3  0  0  0  0  0  0
  -16.7250  -28.5850   23.1130 C   0  0  0  0  0  3  0  0  0  0  0  0
  -25.9120  -32.4840   23.8130 C   0  0  0  0  0  3  0  0  0  0  0  0
  -25.5900  -33.8830   24.1520 N   0  0  0  0  0  0  0  0  0  0  0  0
  -25.9270  -34.9510   23.4160 C   0  0  0  0  0  0  0  0  0  0  0  0
  -26.6020  -34.8630   22.3870 O   0  0  0  0  0  0  0  0  0  0  0  0
  -24.9900  -34.0250   24.9510 H   0  0  0  0  0  0  0  0  0  0  0  0
  -24.2070  -36.7640   23.0870 C   0  0  0  0  0  1  0  0  0  0  0  0
  -25.4440  -36.3370   23.8940 C   0  0  0  0  0  3  0  0  0  0  0  0
  -27.5770  -37.2110   24.7460 C   0  0  0  0  0  1  0  0  0  0  0  0
  -26.4800  -37.3900   23.8000 N   0  0  0  0  0  0  0  0  0  0  0  0
  -26.0740  -38.3090   23.9540 H   0  0  0  0  0  0  0  0  0  0  0  0
  -26.4170  -31.7230   25.1020 C   0  0  1  0  0  0  0  0  0  0  0  0
  -25.3160  -31.4970   26.1660 C   0  0  0  0  0  1  0  0  0  0  0  0
  -27.0000  -30.3390   24.7360 C   0  0  0  0  0  1  0  0  0  0  0  0
  -27.5660  -32.5190   25.7650 C   0  0  0  0  0  1  0  0  0  0  0  0
  1  4  2  0
  1  2  1  0
  2  6  2  0
  4  5  1  0
  5 47  1  0
  5  3  2  0
  6 15  1  0
  6  3  1  0
  7 13  1  0
  7 15  1  0
  8 13  1  0
  9 10  1  0
  9  8  1  0
 11 10  1  0
 11 20  1  0
 11 12  1  0
 13 12  1  0
 14  7  2  0
 15 16  1  0
 17 18  2  0
 18 37  1  0
 19 18  1  0
 19 22  1  0
 20 17  1  0
 20 21  1  0
 21 19  2  0
 22 23  1  0
 23 24  2  0
 25 28  1  0
 25 24  1  0
 26 25  2  0
 27 26  1  0
 27 22  2  0
 28 29  1  0
 29 30  1  0
 30 31  2  0
 32 31  1  0
 32 36  1  0
 33 32  2  0
 34 29  2  0
 34 33  1  0
 35 34  1  0
 37 38  1  0
 38 41  1  0
 38 40  1  0
 39 37  2  0
 42 43  1  0
 42 17  1  0
 44 42  1  0
 45 46  2  0
 46  4  1  0
 48 49  1  0
 48 47  2  0
 50 61  2  0
 51 49  1  0
 51 56  1  0
 52 60  1  0
 52 62  1  0
 53 59  1  0
 53 55  1  0
 54 60  1  0
 55 56  2  0
 55 54  1  0
 57 51  2  0
 58 57  1  0
 58 53  2  0
 59 52  1  0
 60 50  1  0
 62 64  2  0
 63 62  1  0
 65 63  1  0
 66 75  2  0
 66 71  1  0
 67 63  1  0
 67 71  1  0
 68 67  1  0
 69 70  1  0
 69 68  1  0
 70 66  1  0
 71 72  2  0
 72 73  1  0
 74 73  2  0
 75 74  1  0
 76 50  1  0
 76 77  1  0
 76 86  1  0
 77 80  1  0
 78 82  1  0
 78 77  1  0
 79 78  2  0
 82 81  1  0
 84 82  1  0
 84 85  1  0
 84 83  1  0
 86 89  1  1
 86 87  1  0
 88 86  1  0
M  ISO  4   7 100  15 100  48 101  49 101
M  END
>  <TORSDO>  (41) 
F 18

>  <SCORE>  (41) 
-14.802

>  <name>  (41) 
40

>  <ligand_id>  (41) 
40

>  <original_smiles>  (41) 
[H]C([H])=C([H])c1c([H])c([H])c(N([H])C(=O)N2C([H])([H])C([H])([H])C([H])([H])C([H])(n3nc(-c4c([H])c([H])c(Oc5c([H])c([H])c(F)c([H])c5F)c([H])c4[H])c(C(=O)N([H])[H])c3N([H])[H])C2([H])[H])c([H])c1C([H])=C([H])Oc1c([H])c([H])c2c(c1[H])C([H])([H])N(C(=O)C([H])(N([H])C(=O)C([H])(N([H])C([H])([H])[H])C([H])([H])[H])C(C([H])([H])[H])(C([H])([H])[H])C([H])([H])[H])C([H])(C(=O)N([H])C1([H])c3c([H])c([H])c([H])c([H])c3C([H])([H])C([H])([H])C1([H])[H])C2([H])[H]

>  <smiles>  (41) 
[H]C([H])=C([H])c1c([H])c([H])c(N([H])C(=O)N2C([H])([H])C([H])([H])C([H])([H])C([H])(n3nc(-c4c([H])c([H])c(Oc5c([H])c([H])c(F)c([H])c5F)c([H])c4[H])c(C(=O)N([H])[H])c3N([H])[H])C2([H])[H])c([H])c1C([H])=C([H])Oc1c([H])c([H])c2c(c1[H])C([H])([H])N(C(=O)C([H])(N([H])C(=O)C([H])(N([H])C([H])([H])[H])C([H])([H])[H])C(C([H])([H])[H])(C([H])([H])[H])C([H])([H])[H])C([H])(C(=O)N([H])C1([H])c3c([H])c([H])c([H])c([H])c3C([H])([H])C([H])([H])C1([H])[H])C2([H])[H]

$$$$
41:0:0
     RDKit          3D

 93101  0  0  1  0  0  0  0  0999 V2000
  -31.2670  -18.6820   18.3840 C   0  0  0  0  0  3  0  0  0  0  0  0
  -30.1110  -18.4530   20.8990 C   0  0  0  0  0  3  0  0  0  0  0  0
  -31.0620  -17.3890   18.9120 C   0  0  0  0  0  0  0  0  0  0  0  0
  -30.9450  -19.8560   19.0910 C   0  0  0  0  0  0  0  0  0  0  0  0
  -30.4910  -17.2510   20.2140 C   0  0  0  0  0  0  0  0  0  0  0  0
  -30.3180  -19.7650   20.3600 C   0  0  0  0  0  0  0  0  0  0  0  0
  -31.3520  -21.1790   18.4660 C   0  0  0  0  0  1  0  0  0  0  0  0
  -30.9630  -14.8240   20.7300 C   0  0  0  0  0  0  0  0  0  0  0  0
  -30.7450  -12.6080   19.6730 C   0  0  0  0  0  2  0  0  0  0  0  0
  -29.8830  -12.7520   18.4000 C   0  0  0  0  0  2  0  0  0  0  0  0
  -28.3890  -12.6080   18.7410 C   0  0  0  0  0  2  0  0  0  0  0  0
  -27.9600  -13.4820   19.9480 C   0  0  0  0  0  3  0  0  0  0  0  0
  -28.9470  -13.3390   21.1290 C   0  0  0  0  0  2  0  0  0  0  0  0
  -30.2970  -13.6370   20.6300 N   0  0  0  0  0  0  0  0  0  0  0  0
  -32.1760  -14.9100   20.5360 O   0  0  0  0  0  0  0  0  0  0  0  0
  -30.2010  -15.9500   20.8020 N   0  0  0  0  0  0  0  0  0  0  0  0
  -29.2560  -15.8150   21.1270 H   0  0  0  0  0  0  0  0  0  0  0  0
  -25.5330  -14.0760   20.5460 C   0  0  0  0  0  0  0  0  0  0  0  0
  -24.4410  -13.2990   20.8220 C   0  0  0  0  0  0  0  0  0  0  0  0
  -24.8960  -11.9450   20.7730 C   0  0  0  0  0  0  0  0  0  0  0  0
  -26.5850  -13.1970   20.3470 N   0  0  0  0  0  0  0  0  0  0  0  0
  -26.2040  -11.9090   20.5480 N   0  0  0  0  0  0  0  0  0  0  0  0
  -24.1540  -10.6820   20.8720 C   0  0  0  0  0  0  0  0  0  0  0  0
  -24.5060   -9.6940   21.8190 C   0  0  0  0  0  3  0  0  0  0  0  0
  -23.7670   -8.4960   21.9110 C   0  0  0  0  0  3  0  0  0  0  0  0
  -22.6620   -8.2770   21.0540 C   0  0  0  0  0  0  0  0  0  0  0  0
  -22.3300   -9.2530   20.0970 C   0  0  0  0  0  3  0  0  0  0  0  0
  -23.0710  -10.4440   20.0030 C   0  0  0  0  0  3  0  0  0  0  0  0
  -21.9000   -7.1320   21.0540 O   0  0  0  0  0  0  0  0  0  0  0  0
  -21.6990   -6.4020   22.1960 C   0  0  0  0  0  0  0  0  0  0  0  0
  -21.0720   -6.9540   23.3350 C   0  0  0  0  0  3  0  0  0  0  0  0
  -20.8230   -6.1480   24.4630 C   0  0  0  0  0  3  0  0  0  0  0  0
  -21.1920   -4.7900   24.4530 C   0  0  0  0  0  0  0  0  0  0  0  0
  -21.8100   -4.2350   23.3190 C   0  0  0  0  0  3  0  0  0  0  0  0
  -22.0610   -5.0390   22.1930 C   0  0  0  0  0  0  0  0  0  0  0  0
  -22.6390   -4.4960   21.0940 F   0  0  0  0  0  0  0  0  0  0  0  0
  -20.9460   -4.0110   25.5330 F   0  0  0  0  0  0  0  0  0  0  0  0
  -23.0300  -13.7750   21.0230 C   0  0  0  0  0  0  0  0  0  0  0  0
  -22.2480  -13.0540   21.8170 N   0  0  0  0  0  0  0  0  0  0  0  0
  -22.6300  -14.8200   20.5100 O   0  0  0  0  0  0  0  0  0  0  0  0
  -22.5820  -12.2060   22.2520 H   0  0  0  0  0  0  0  0  0  0  0  0
  -21.3000  -13.3540   21.9940 H   0  0  0  0  0  0  0  0  0  0  0  0
  -25.7190  -15.4510   20.4250 N   0  0  0  0  0  0  0  0  0  0  0  0
  -24.9560  -16.1130   20.5210 H   0  0  0  0  0  0  0  0  0  0  0  0
  -26.5900  -15.8900   20.1580 H   0  0  0  0  0  0  0  0  0  0  0  0
  -31.6270  -16.3440   16.6990 C   0  0  0  0  0  2  0  0  0  0  0  0
  -31.4220  -16.2600   18.0250 C   0  0  0  0  0  3  0  0  0  0  0  0
  -30.0080  -20.8930   21.1280 O   0  0  0  0  0  0  0  0  0  0  0  0
  -29.2390  -22.0080   20.5840 C   0  0  0  0  0  2  0  0  0  0  0  0
  -29.8940  -23.4070   20.8860 C   0  0  0  0  0  2  0  0  0  0  0  0
  -29.0550  -24.7460   21.0020 C   0  0  0  0  0  2  0  0  0  0  0  0
  -28.4220  -25.4520   19.7550 C   0  0  0  0  0  2  0  0  0  0  0  0
  -28.3050  -26.8880   19.9810 O   0  0  0  0  0  0  0  0  0  0  0  0
  -24.5300  -31.9740   23.3130 C   0  0  0  0  0  0  0  0  0  0  0  0
  -27.0930  -27.5740   20.0300 C   0  0  0  0  0  0  0  0  0  0  0  0
  -23.2750  -30.6030   21.6840 C   0  0  0  0  0  3  0  0  0  0  0  0
  -24.6830  -29.0910   20.1770 C   0  0  0  0  0  0  0  0  0  0  0  0
  -25.7960  -30.9600   21.4140 C   0  0  0  0  0  2  0  0  0  0  0  0
  -25.8610  -29.6020   20.7340 C   0  0  0  0  0  0  0  0  0  0  0  0
  -27.0610  -28.8490   20.6560 C   0  0  0  0  0  3  0  0  0  0  0  0
  -25.8890  -27.0890   19.4660 C   0  0  0  0  0  3  0  0  0  0  0  0
  -24.6930  -27.8350   19.5460 C   0  0  0  0  0  3  0  0  0  0  0  0
  -23.4410  -29.9520   20.2830 C   0  0  0  0  0  2  0  0  0  0  0  0
  -24.5540  -31.1940   22.1940 N   0  0  0  0  0  0  0  0  0  0  0  0
  -23.4660  -32.2310   23.8950 O   0  0  0  0  0  0  0  0  0  0  0  0
  -22.6590  -29.5600   22.6450 C   0  0  0  0  0  0  0  0  0  0  0  0
  -21.3420  -29.3230   22.5140 N   0  0  0  0  0  0  0  0  0  0  0  0
  -23.3630  -28.9670   23.4660 O   0  0  0  0  0  0  0  0  0  0  0  0
  -20.8310  -29.8570   21.8250 H   0  0  0  0  0  0  0  0  0  0  0  0
  -18.0300  -27.9480   22.9680 C   0  0  0  0  0  0  0  0  0  0  0  0
  -20.5640  -28.3530   23.2840 C   0  0  0  0  0  3  0  0  0  0  0  0
  -20.7570  -26.9200   22.7350 C   0  0  0  0  0  2  0  0  0  0  0  0
  -19.6960  -26.5210   21.7050 C   0  0  0  0  0  2  0  0  0  0  0  0
  -18.2960  -26.5990   22.3190 C   0  0  0  0  0  2  0  0  0  0  0  0
  -19.0950  -28.7770   23.4070 C   0  0  0  0  0  0  0  0  0  0  0  0
  -18.7950  -30.0360   23.9730 C   0  0  0  0  0  3  0  0  0  0  0  0
  -17.4620  -30.4660   24.1040 C   0  0  0  0  0  3  0  0  0  0  0  0
  -16.4110  -29.6350   23.6800 C   0  0  0  0  0  3  0  0  0  0  0  0
  -16.6950  -28.3780   23.1180 C   0  0  0  0  0  3  0  0  0  0  0  0
  -25.8340  -32.6010   23.9010 C   0  0  0  0  0  3  0  0  0  0  0  0
  -25.5430  -34.0040   24.2270 N   0  0  0  0  0  0  0  0  0  0  0  0
  -25.8910  -35.0500   23.4670 C   0  0  0  0  0  0  0  0  0  0  0  0
  -26.5630  -34.9370   22.4380 O   0  0  0  0  0  0  0  0  0  0  0  0
  -24.9470  -34.1680   25.0250 H   0  0  0  0  0  0  0  0  0  0  0  0
  -24.2030  -36.8750   23.0880 C   0  0  0  0  0  1  0  0  0  0  0  0
  -25.4220  -36.4470   23.9190 C   0  0  0  0  0  3  0  0  0  0  0  0
  -27.5520  -37.2990   24.7960 C   0  0  0  0  0  1  0  0  0  0  0  0
  -26.4760  -37.4810   23.8250 N   0  0  0  0  0  0  0  0  0  0  0  0
  -26.0830  -38.4090   23.9580 H   0  0  0  0  0  0  0  0  0  0  0  0
  -26.3740  -31.8340   25.1700 C   0  0  1  0  0  0  0  0  0  0  0  0
  -25.2970  -31.5870   26.2520 C   0  0  0  0  0  1  0  0  0  0  0  0
  -26.9620  -30.4590   24.7720 C   0  0  0  0  0  1  0  0  0  0  0  0
  -27.5270  -32.6370   25.8160 C   0  0  0  0  0  1  0  0  0  0  0  0
  1  3  2  0
  1  4  1  0
  3  5  1  0
  4  6  2  0
  5 16  1  0
  5  2  2  0
  6  2  1  0
  6 48  1  0
  7  4  1  0
  8 16  1  0
  9 14  1  0
 10 11  1  0
 10  9  1  0
 12 11  1  0
 12 21  1  0
 12 13  1  0
 14  8  1  0
 14 13  1  0
 15  8  2  0
 16 17  1  0
 18 19  2  0
 19 38  1  0
 20 19  1  0
 20 23  1  0
 21 18  1  0
 21 22  1  0
 22 20  2  0
 23 24  1  0
 24 25  2  0
 26 29  1  0
 26 25  1  0
 27 26  2  0
 28 27  1  0
 28 23  2  0
 29 30  1  0
 30 31  1  0
 31 32  2  0
 33 32  1  0
 33 37  1  0
 34 33  2  0
 35 30  2  0
 35 34  1  0
 36 35  1  0
 38 39  1  0
 39 42  1  0
 39 41  1  0
 40 38  2  0
 43 44  1  0
 43 18  1  0
 45 43  1  0
 46 47  2  0
 47  3  1  0
 49 50  1  0
 49 48  1  0
 50 51  1  0
 52 53  1  0
 52 51  1  0
 53 55  1  0
 54 65  2  0
 55 60  1  0
 56 64  1  0
 56 66  1  0
 57 63  1  0
 57 59  1  0
 58 64  1  0
 59 58  1  0
 60 59  2  0
 61 62  1  0
 61 55  2  0
 62 57  2  0
 63 56  1  0
 64 54  1  0
 66 68  2  0
 67 66  1  0
 69 67  1  0
 70 79  2  0
 70 75  1  0
 71 67  1  0
 71 75  1  0
 72 71  1  0
 73 74  1  0
 73 72  1  0
 74 70  1  0
 75 76  2  0
 76 77  1  0
 78 77  2  0
 79 78  1  0
 80 54  1  0
 80 81  1  0
 80 90  1  0
 81 84  1  0
 82 86  1  0
 82 81  1  0
 83 82  2  0
 86 85  1  0
 88 86  1  0
 88 89  1  0
 88 87  1  0
 90 93  1  1
 90 91  1  0
 92 90  1  0
M  ISO  4   8 100  16 100  52 101  53 101
M  END
>  <TORSDO>  (42) 
F 22

>  <SCORE>  (42) 
-12.371

>  <name>  (42) 
41

>  <ligand_id>  (42) 
41

>  <original_smiles>  (42) 
[H]C([H])=C([H])c1c([H])c(C([H])([H])[H])c(OC([H])([H])C([H])([H])C([H])([H])C([H])([H])Oc2c([H])c([H])c3c(c2[H])C([H])([H])N(C(=O)C([H])(N([H])C(=O)C([H])(N([H])C([H])([H])[H])C([H])([H])[H])C(C([H])([H])[H])(C([H])([H])[H])C([H])([H])[H])C([H])(C(=O)N([H])C2([H])c4c([H])c([H])c([H])c([H])c4C([H])([H])C([H])([H])C2([H])[H])C3([H])[H])c([H])c1N([H])C(=O)N1C([H])([H])C([H])([H])C([H])([H])C([H])(n2nc(-c3c([H])c([H])c(Oc4c([H])c([H])c(F)c([H])c4F)c([H])c3[H])c(C(=O)N([H])[H])c2N([H])[H])C1([H])[H]

>  <smiles>  (42) 
[H]C([H])=C([H])c1c([H])c(C([H])([H])[H])c(OC([H])([H])C([H])([H])C([H])([H])C([H])([H])Oc2c([H])c([H])c3c(c2[H])C([H])([H])N(C(=O)C([H])(N([H])C(=O)C([H])(N([H])C([H])([H])[H])C([H])([H])[H])C(C([H])([H])[H])(C([H])([H])[H])C([H])([H])[H])C([H])(C(=O)N([H])C2([H])c4c([H])c([H])c([H])c([H])c4C([H])([H])C([H])([H])C2([H])[H])C3([H])[H])c([H])c1N([H])C(=O)N1C([H])([H])C([H])([H])C([H])([H])C([H])(n2nc(-c3c([H])c([H])c(Oc4c([H])c([H])c(F)c([H])c4F)c([H])c3[H])c(C(=O)N([H])[H])c2N([H])[H])C1([H])[H]

$$$$
42:0:0
     RDKit          3D

 94102  0  0  1  0  0  0  0  0999 V2000
  -30.4810  -19.2800   19.2150 C   0  0  0  0  0  3  0  0  0  0  0  0
  -30.6570  -18.1330   21.7460 C   0  0  0  0  0  3  0  0  0  0  0  0
  -30.4710  -17.8610   19.3320 C   0  0  0  0  0  0  0  0  0  0  0  0
  -30.6020  -17.2770   20.6270 C   0  0  0  0  0  0  0  0  0  0  0  0
  -30.5240  -20.1450   20.3420 C   0  0  0  0  0  0  0  0  0  0  0  0
  -30.5870  -19.5370   21.6240 C   0  0  0  0  0  0  0  0  0  0  0  0
  -31.3180  -14.8440   20.6250 C   0  0  0  0  0  0  0  0  0  0  0  0
  -31.1100  -12.5790   19.6830 C   0  0  0  0  0  2  0  0  0  0  0  0
  -30.2410  -12.6880   18.4110 C   0  0  0  0  0  2  0  0  0  0  0  0
  -28.7400  -12.6010   18.7580 C   0  0  0  0  0  2  0  0  0  0  0  0
  -28.3380  -13.5380   19.9270 C   0  0  0  0  0  3  0  0  0  0  0  0
  -29.3220  -13.3910   21.1110 C   0  0  0  0  0  2  0  0  0  0  0  0
  -30.6830  -13.6410   20.6030 N   0  0  0  0  0  0  0  0  0  0  0  0
  -32.4890  -14.9980   20.2620 O   0  0  0  0  0  0  0  0  0  0  0  0
  -30.5060  -15.8770   20.9230 N   0  0  0  0  0  0  0  0  0  0  0  0
  -29.6400  -15.5890   21.3550 H   0  0  0  0  0  0  0  0  0  0  0  0
  -25.9430  -14.2510   20.5470 C   0  0  0  0  0  0  0  0  0  0  0  0
  -24.8250  -13.5240   20.8570 C   0  0  0  0  0  0  0  0  0  0  0  0
  -25.2220  -12.1520   20.8210 C   0  0  0  0  0  0  0  0  0  0  0  0
  -26.9540  -13.3240   20.3420 N   0  0  0  0  0  0  0  0  0  0  0  0
  -26.5210  -12.0560   20.5630 N   0  0  0  0  0  0  0  0  0  0  0  0
  -24.4310  -10.9240   20.9600 C   0  0  0  0  0  0  0  0  0  0  0  0
  -24.7830   -9.9210   21.8900 C   0  0  0  0  0  3  0  0  0  0  0  0
  -23.9990   -8.7560   22.0180 C   0  0  0  0  0  3  0  0  0  0  0  0
  -22.8460   -8.5840   21.2140 C   0  0  0  0  0  0  0  0  0  0  0  0
  -22.5130   -9.5750   20.2730 C   0  0  0  0  0  3  0  0  0  0  0  0
  -23.2980  -10.7330   20.1450 C   0  0  0  0  0  3  0  0  0  0  0  0
  -22.0400   -7.4740   21.2490 O   0  0  0  0  0  0  0  0  0  0  0  0
  -21.9100   -6.7130   22.3830 C   0  0  0  0  0  0  0  0  0  0  0  0
  -21.4510   -7.2640   23.6000 C   0  0  0  0  0  3  0  0  0  0  0  0
  -21.2650   -6.4330   24.7230 C   0  0  0  0  0  3  0  0  0  0  0  0
  -21.5290   -5.0540   24.6310 C   0  0  0  0  0  0  0  0  0  0  0  0
  -21.9810   -4.5020   23.4190 C   0  0  0  0  0  3  0  0  0  0  0  0
  -22.1670   -5.3300   22.2970 C   0  0  0  0  0  0  0  0  0  0  0  0
  -22.5830   -4.7910   21.1260 F   0  0  0  0  0  0  0  0  0  0  0  0
  -21.3430   -4.2540   25.7070 F   0  0  0  0  0  0  0  0  0  0  0  0
  -23.4410  -14.0630   21.0830 C   0  0  0  0  0  0  0  0  0  0  0  0
  -22.6470  -13.3920   21.9080 N   0  0  0  0  0  0  0  0  0  0  0  0
  -23.0730  -15.1160   20.5620 O   0  0  0  0  0  0  0  0  0  0  0  0
  -22.9550  -12.5410   22.3540 H   0  0  0  0  0  0  0  0  0  0  0  0
  -21.7160  -13.7370   22.0980 H   0  0  0  0  0  0  0  0  0  0  0  0
  -26.1810  -15.6140   20.4020 N   0  0  0  0  0  0  0  0  0  0  0  0
  -25.4430  -16.3060   20.4890 H   0  0  0  0  0  0  0  0  0  0  0  0
  -27.0660  -16.0120   20.1130 H   0  0  0  0  0  0  0  0  0  0  0  0
  -29.6720  -17.5130   16.9640 C   0  0  0  0  0  2  0  0  0  0  0  0
  -30.2010  -17.0580   18.1150 C   0  0  0  0  0  3  0  0  0  0  0  0
  -29.8320  -21.4580   22.8140 C   0  0  0  0  0  1  0  0  0  0  0  0
  -30.5900  -20.2530   22.7990 O   0  0  0  0  0  0  0  0  0  0  0  0
  -30.5090  -21.5380   20.2900 O   0  0  0  0  0  0  0  0  0  0  0  0
  -30.4800  -22.2790   19.0570 C   0  0  0  0  0  2  0  0  0  0  0  0
  -29.2050  -23.1500   18.9490 C   0  0  0  0  0  2  0  0  0  0  0  0
  -29.1810  -24.4450   19.7600 C   0  0  0  0  0  3  0  0  0  0  0  0
  -28.8480  -25.6490   19.2460 C   0  0  0  0  0  3  0  0  0  0  0  0
  -28.7560  -26.8080   19.9830 O   0  0  0  0  0  0  0  0  0  0  0  0
  -24.7550  -31.6940   23.2980 C   0  0  0  0  0  0  0  0  0  0  0  0
  -27.5640  -27.5160   19.9780 C   0  0  0  0  0  0  0  0  0  0  0  0
  -23.6120  -30.3750   21.5460 C   0  0  0  0  0  3  0  0  0  0  0  0
  -25.1280  -28.9710   20.0510 C   0  0  0  0  0  0  0  0  0  0  0  0
  -26.1340  -30.8030   21.4210 C   0  0  0  0  0  2  0  0  0  0  0  0
  -26.2650  -29.4790   20.6920 C   0  0  0  0  0  0  0  0  0  0  0  0
  -27.4830  -28.7590   20.6520 C   0  0  0  0  0  3  0  0  0  0  0  0
  -26.3960  -27.0200   19.3480 C   0  0  0  0  0  3  0  0  0  0  0  0
  -25.1880  -27.7390   19.3800 C   0  0  0  0  0  3  0  0  0  0  0  0
  -23.8630  -29.7960   20.1300 C   0  0  0  0  0  2  0  0  0  0  0  0
  -24.8510  -30.9690   22.1480 N   0  0  0  0  0  0  0  0  0  0  0  0
  -23.6570  -31.9050   23.8330 O   0  0  0  0  0  0  0  0  0  0  0  0
  -22.9700  -29.2770   22.4240 C   0  0  0  0  0  0  0  0  0  0  0  0
  -21.6530  -29.0730   22.2600 N   0  0  0  0  0  0  0  0  0  0  0  0
  -23.6530  -28.6150   23.2090 O   0  0  0  0  0  0  0  0  0  0  0  0
  -21.1610  -29.6640   21.6040 H   0  0  0  0  0  0  0  0  0  0  0  0
  -18.3050  -27.7530   22.5890 C   0  0  0  0  0  0  0  0  0  0  0  0
  -20.8450  -28.0680   22.9500 C   0  0  0  0  0  3  0  0  0  0  0  0
  -21.0060  -26.6770   22.2950 C   0  0  0  0  0  2  0  0  0  0  0  0
  -19.9430  -26.3820   21.2320 C   0  0  0  0  0  2  0  0  0  0  0  0
  -18.5400  -26.4510   21.8430 C   0  0  0  0  0  2  0  0  0  0  0  0
  -19.3880  -28.5200   23.0950 C   0  0  0  0  0  0  0  0  0  0  0  0
  -19.1150  -29.7400   23.7500 C   0  0  0  0  0  3  0  0  0  0  0  0
  -17.7920  -30.1950   23.9040 C   0  0  0  0  0  3  0  0  0  0  0  0
  -16.7240  -29.4250   23.4150 C   0  0  0  0  0  3  0  0  0  0  0  0
  -16.9800  -28.2050   22.7640 C   0  0  0  0  0  3  0  0  0  0  0  0
  -26.0130  -32.3140   23.9820 C   0  0  0  0  0  3  0  0  0  0  0  0
  -25.6760  -33.6900   24.3650 N   0  0  0  0  0  0  0  0  0  0  0  0
  -26.0130  -34.7800   23.6620 C   0  0  0  0  0  0  0  0  0  0  0  0
  -26.7110  -34.7310   22.6450 O   0  0  0  0  0  0  0  0  0  0  0  0
  -25.0590  -33.8020   25.1560 H   0  0  0  0  0  0  0  0  0  0  0  0
  -24.2590  -36.5550   23.3460 C   0  0  0  0  0  1  0  0  0  0  0  0
  -25.4920  -36.1390   24.1660 C   0  0  0  0  0  3  0  0  0  0  0  0
  -27.5920  -37.0260   25.0750 C   0  0  0  0  0  1  0  0  0  0  0  0
  -26.5060  -37.2140   24.1160 N   0  0  0  0  0  0  0  0  0  0  0  0
  -26.0810  -38.1190   24.2950 H   0  0  0  0  0  0  0  0  0  0  0  0
  -26.5090  -31.4910   25.2340 C   0  0  1  0  0  0  0  0  0  0  0  0
  -25.3960  -31.1970   26.2670 C   0  0  0  0  0  1  0  0  0  0  0  0
  -27.1150  -30.1380   24.7930 C   0  0  0  0  0  1  0  0  0  0  0  0
  -27.6340  -32.2670   25.9590 C   0  0  0  0  0  1  0  0  0  0  0  0
  1  3  2  0
  1  5  1  0
  3  4  1  0
  4 15  1  0
  4  2  2  0
  5  6  2  0
  6  2  1  0
  6 48  1  0
  7 15  1  0
  8 13  1  0
  9 10  1  0
  9  8  1  0
 11 10  1  0
 11 20  1  0
 11 12  1  0
 13  7  1  0
 13 12  1  0
 14  7  2  0
 15 16  1  0
 17 18  2  0
 18 37  1  0
 19 18  1  0
 19 22  1  0
 20 17  1  0
 20 21  1  0
 21 19  2  0
 22 23  1  0
 23 24  2  0
 25 28  1  0
 25 24  1  0
 26 25  2  0
 27 26  1  0
 27 22  2  0
 28 29  1  0
 29 30  1  0
 30 31  2  0
 32 31  1  0
 32 36  1  0
 33 32  2  0
 34 29  2  0
 34 33  1  0
 35 34  1  0
 37 38  1  0
 38 41  1  0
 38 40  1  0
 39 37  2  0
 42 43  1  0
 42 17  1  0
 44 42  1  0
 45 46  2  0
 46  3  1  0
 48 47  1  0
 49  5  1  0
 50 49  1  0
 51 50  1  0
 51 52  1  0
 53 52  2  0
 53 54  1  0
 55 66  2  0
 56 54  1  0
 56 61  1  0
 57 65  1  0
 57 67  1  0
 58 64  1  0
 58 60  1  0
 59 65  1  0
 60 59  1  0
 61 60  2  0
 62 63  1  0
 62 56  2  0
 63 58  2  0
 64 57  1  0
 65 55  1  0
 67 69  2  0
 68 67  1  0
 70 68  1  0
 71 80  2  0
 71 76  1  0
 72 68  1  0
 72 76  1  0
 73 72  1  0
 74 75  1  0
 74 73  1  0
 75 71  1  0
 76 77  2  0
 77 78  1  0
 79 78  2  0
 80 79  1  0
 81 55  1  0
 81 82  1  0
 81 91  1  0
 82 85  1  0
 83 87  1  0
 83 82  1  0
 84 83  2  0
 87 86  1  0
 89 87  1  0
 89 90  1  0
 89 88  1  0
 91 94  1  1
 91 92  1  0
 93 91  1  0
M  ISO  4   7 100  15 100  53 101  54 101
M  END
>  <TORSDO>  (43) 
F 22

>  <SCORE>  (43) 
-11.136

>  <name>  (43) 
42

>  <ligand_id>  (43) 
42

>  <original_smiles>  (43) 
[H]C([H])=C([H])c1c([H])c(OC([H])([H])C([H])([H])C([H])=C([H])Oc2c([H])c([H])c3c(c2[H])C([H])([H])N(C(=O)C([H])(N([H])C(=O)C([H])(N([H])C([H])([H])[H])C([H])([H])[H])C(C([H])([H])[H])(C([H])([H])[H])C([H])([H])[H])C([H])(C(=O)N([H])C2([H])c4c([H])c([H])c([H])c([H])c4C([H])([H])C([H])([H])C2([H])[H])C3([H])[H])c(OC([H])([H])[H])c([H])c1N([H])C(=O)N1C([H])([H])C([H])([H])C([H])([H])C([H])(n2nc(-c3c([H])c([H])c(Oc4c([H])c([H])c(F)c([H])c4F)c([H])c3[H])c(C(=O)N([H])[H])c2N([H])[H])C1([H])[H]

>  <smiles>  (43) 
[H]C([H])=C([H])c1c([H])c(OC([H])([H])C([H])([H])C([H])=C([H])Oc2c([H])c([H])c3c(c2[H])C([H])([H])N(C(=O)C([H])(N([H])C(=O)C([H])(N([H])C([H])([H])[H])C([H])([H])[H])C(C([H])([H])[H])(C([H])([H])[H])C([H])([H])[H])C([H])(C(=O)N([H])C2([H])c4c([H])c([H])c([H])c([H])c4C([H])([H])C([H])([H])C2([H])[H])C3([H])[H])c(OC([H])([H])[H])c([H])c1N([H])C(=O)N1C([H])([H])C([H])([H])C([H])([H])C([H])(n2nc(-c3c([H])c([H])c(Oc4c([H])c([H])c(F)c([H])c4F)c([H])c3[H])c(C(=O)N([H])[H])c2N([H])[H])C1([H])[H]

$$$$
43:0:0
     RDKit          3D

 97106  0  0  1  0  0  0  0  0999 V2000
  -26.8060  -25.1010   20.9440 C   0  0  0  0  0  3  0  0  0  0  0  0
  -28.1080  -25.0110   20.5860 C   0  0  0  0  0  0  0  0  0  0  0  0
  -26.0290  -24.0620   21.6020 C   0  0  0  0  0  0  0  0  0  0  0  0
  -26.6820  -23.4200   22.8070 C   0  0  0  0  0  2  0  0  0  0  0  0
  -27.7110  -22.3450   22.4590 C   0  0  0  0  0  2  0  0  0  0  0  0
  -29.0090  -23.7270   20.7160 C   0  0  0  0  0  3  0  0  0  0  0  0
  -30.2280  -23.9950   21.6190 C   0  0  0  0  0  1  0  0  0  0  0  0
  -28.3700  -22.4450   21.1430 N   0  0  0  0  0  0  0  0  0  0  0  0
  -24.8780  -23.7610   21.2760 O   0  0  0  0  0  0  0  0  0  0  0  0
  -29.9630  -18.9990   21.2850 C   0  0  0  0  0  3  0  0  0  0  0  0
  -29.4650  -20.2590   21.6810 C   0  0  0  0  0  3  0  0  0  0  0  0
  -29.0440  -20.8270   19.3820 C   0  0  0  0  0  3  0  0  0  0  0  0
  -30.0190  -18.6120   19.9290 C   0  0  0  0  0  0  0  0  0  0  0  0
  -29.5690  -19.5690   18.9610 C   0  0  0  0  0  0  0  0  0  0  0  0
  -28.9690  -21.2050   20.7420 C   0  0  0  0  0  0  0  0  0  0  0  0
  -28.7120  -19.7610   16.6010 C   0  0  0  0  0  2  0  0  0  0  0  0
  -29.5750  -19.2730   17.5090 C   0  0  0  0  0  3  0  0  0  0  0  0
  -30.5550  -17.2420   19.5760 C   0  0  0  0  0  3  0  0  0  0  0  0
  -30.7440  -16.2330   20.3640 N   0  0  0  0  0  0  0  0  0  0  0  0
  -31.4340  -15.1470   19.8010 C   0  0  0  0  0  0  0  0  0  0  0  0
  -31.0840  -12.9250   18.7660 C   0  0  0  0  0  2  0  0  0  0  0  0
  -30.0450  -13.0600   17.6350 C   0  0  0  0  0  2  0  0  0  0  0  0
  -28.6160  -12.9060   18.1900 C   0  0  0  0  0  2  0  0  0  0  0  0
  -28.3630  -13.7770   19.4490 C   0  0  0  0  0  3  0  0  0  0  0  0
  -29.5130  -13.6410   20.4700 C   0  0  0  0  0  2  0  0  0  0  0  0
  -30.7730  -13.9520   19.7780 N   0  0  0  0  0  0  0  0  0  0  0  0
  -32.5120  -15.2710   19.2150 O   0  0  0  0  0  0  0  0  0  0  0  0
  -26.0930  -14.3630   20.5060 C   0  0  0  0  0  0  0  0  0  0  0  0
  -25.0400  -13.5870   20.9080 C   0  0  0  0  0  0  0  0  0  0  0  0
  -25.4320  -12.2340   20.6660 C   0  0  0  0  0  0  0  0  0  0  0  0
  -27.0630  -13.4850   20.0530 N   0  0  0  0  0  0  0  0  0  0  0  0
  -26.6750  -12.1920   20.2030 N   0  0  0  0  0  0  0  0  0  0  0  0
  -24.6750  -10.9820   20.7960 C   0  0  0  0  0  0  0  0  0  0  0  0
  -25.0760   -9.9650   21.6910 C   0  0  0  0  0  3  0  0  0  0  0  0
  -24.3210   -8.7780   21.8110 C   0  0  0  0  0  3  0  0  0  0  0  0
  -23.1520   -8.6000   21.0350 C   0  0  0  0  0  0  0  0  0  0  0  0
  -22.7700   -9.6050   20.1280 C   0  0  0  0  0  3  0  0  0  0  0  0
  -23.5250  -10.7830   20.0070 C   0  0  0  0  0  3  0  0  0  0  0  0
  -22.3700   -7.4700   21.0660 O   0  0  0  0  0  0  0  0  0  0  0  0
  -22.1630   -6.7690   22.2270 C   0  0  0  0  0  0  0  0  0  0  0  0
  -21.6080   -7.3750   23.3760 C   0  0  0  0  0  3  0  0  0  0  0  0
  -21.3480   -6.6020   24.5250 C   0  0  0  0  0  3  0  0  0  0  0  0
  -21.6340   -5.2240   24.5250 C   0  0  0  0  0  0  0  0  0  0  0  0
  -22.1820   -4.6160   23.3810 C   0  0  0  0  0  3  0  0  0  0  0  0
  -22.4430   -5.3880   22.2350 C   0  0  0  0  0  0  0  0  0  0  0  0
  -22.9510   -4.7940   21.1280 F   0  0  0  0  0  0  0  0  0  0  0  0
  -21.3770   -4.4780   25.6250 F   0  0  0  0  0  0  0  0  0  0  0  0
  -23.7060  -14.0740   21.3980 C   0  0  0  0  0  0  0  0  0  0  0  0
  -23.0670  -13.3220   22.2880 N   0  0  0  0  0  0  0  0  0  0  0  0
  -23.2440  -15.1530   21.0290 O   0  0  0  0  0  0  0  0  0  0  0  0
  -23.4540  -12.4460   22.6060 H   0  0  0  0  0  0  0  0  0  0  0  0
  -22.1770  -13.6280   22.6570 H   0  0  0  0  0  0  0  0  0  0  0  0
  -26.3010  -15.7390   20.4710 N   0  0  0  0  0  0  0  0  0  0  0  0
  -25.5930  -16.4060   20.7600 H   0  0  0  0  0  0  0  0  0  0  0  0
  -27.1550  -16.1760   20.1470 H   0  0  0  0  0  0  0  0  0  0  0  0
  -28.8040  -26.3190   20.1110 C   0  0  0  0  0  2  0  0  0  0  0  0
  -28.2200  -27.0350   18.9940 O   0  0  0  0  0  0  0  0  0  0  0  0
  -24.7200  -31.8170   23.0460 C   0  0  0  0  0  0  0  0  0  0  0  0
  -27.1040  -27.8100   19.2260 C   0  0  0  0  0  0  0  0  0  0  0  0
  -23.3830  -30.5900   21.3670 C   0  0  0  0  0  3  0  0  0  0  0  0
  -24.7160  -29.2710   19.6310 C   0  0  0  0  0  0  0  0  0  0  0  0
  -25.8770  -31.0180   20.9850 C   0  0  0  0  0  2  0  0  0  0  0  0
  -25.9190  -29.7300   20.1870 C   0  0  0  0  0  0  0  0  0  0  0  0
  -27.1190  -28.9990   19.9970 C   0  0  0  0  0  3  0  0  0  0  0  0
  -25.8970  -27.4030   18.6240 C   0  0  0  0  0  3  0  0  0  0  0  0
  -24.7000  -28.1040   18.8490 C   0  0  0  0  0  3  0  0  0  0  0  0
  -23.4720  -30.0890   19.8990 C   0  0  0  0  0  2  0  0  0  0  0  0
  -24.6830  -31.1510   21.8560 N   0  0  0  0  0  0  0  0  0  0  0  0
  -23.6930  -31.9960   23.7130 O   0  0  0  0  0  0  0  0  0  0  0  0
  -22.8420  -29.4430   22.2520 C   0  0  0  0  0  0  0  0  0  0  0  0
  -21.5230  -29.2000   22.1810 N   0  0  0  0  0  0  0  0  0  0  0  0
  -23.6040  -28.7820   22.9640 O   0  0  0  0  0  0  0  0  0  0  0  0
  -20.9640  -29.7940   21.5820 H   0  0  0  0  0  0  0  0  0  0  0  0
  -18.2640  -27.7110   22.6580 C   0  0  0  0  0  0  0  0  0  0  0  0
  -20.8010  -28.1470   22.8960 C   0  0  0  0  0  3  0  0  0  0  0  0
  -20.9970  -26.7740   22.2130 C   0  0  0  0  0  2  0  0  0  0  0  0
  -19.8960  -26.4400   21.2010 C   0  0  0  0  0  2  0  0  0  0  0  0
  -18.5260  -26.4300   21.8830 C   0  0  0  0  0  2  0  0  0  0  0  0
  -19.3320  -28.5260   23.1200 C   0  0  0  0  0  0  0  0  0  0  0  0
  -19.0320  -29.7240   23.8030 C   0  0  0  0  0  3  0  0  0  0  0  0
  -17.6970  -30.1060   24.0340 C   0  0  0  0  0  3  0  0  0  0  0  0
  -16.6440  -29.2880   23.5890 C   0  0  0  0  0  3  0  0  0  0  0  0
  -16.9280  -28.0930   22.9050 C   0  0  0  0  0  3  0  0  0  0  0  0
  -26.0510  -32.4030   23.6100 C   0  0  0  0  0  3  0  0  0  0  0  0
  -26.6890  -31.5120   24.7470 C   0  0  1  0  0  0  0  0  0  0  0  0
  -25.7030  -31.1530   25.8830 C   0  0  0  0  0  1  0  0  0  0  0  0
  -27.2380  -30.1890   24.1650 C   0  0  0  0  0  1  0  0  0  0  0  0
  -27.8950  -32.2500   25.3750 C   0  0  0  0  0  1  0  0  0  0  0  0
  -25.7640  -33.7550   24.1080 N   0  0  0  0  0  0  0  0  0  0  0  0
  -26.0520  -34.8850   23.4480 C   0  0  0  0  0  0  0  0  0  0  0  0
  -26.6610  -34.8970   22.3740 O   0  0  0  0  0  0  0  0  0  0  0  0
  -25.2190  -33.8190   24.9550 H   0  0  0  0  0  0  0  0  0  0  0  0
  -24.3110  -36.6980   23.3770 C   0  0  0  0  0  1  0  0  0  0  0  0
  -25.5910  -36.2140   24.0770 C   0  0  0  0  0  3  0  0  0  0  0  0
  -27.7660  -37.0130   24.8920 C   0  0  0  0  0  1  0  0  0  0  0  0
  -26.6180  -37.2760   24.0260 N   0  0  0  0  0  0  0  0  0  0  0  0
  -26.2220  -38.1740   24.2900 H   0  0  0  0  0  0  0  0  0  0  0  0
  1  3  1  0
  2  6  1  0
  2  1  2  0
  3  4  1  0
  5  4  1  0
  6  8  1  0
  6  7  1  0
  8  5  1  0
  9  3  2  0
 10 11  1  0
 12 15  1  0
 13 10  2  0
 14 12  2  0
 14 13  1  0
 15  8  1  0
 15 11  2  0
 16 17  2  0
 17 14  1  0
 18 13  1  0
 18 19  2  0
 20 19  1  0
 21 26  1  0
 22 23  1  0
 22 21  1  0
 24 23  1  0
 24 31  1  0
 24 25  1  0
 26 20  1  0
 26 25  1  0
 27 20  2  0
 28 29  2  0
 29 48  1  0
 30 33  1  0
 30 29  1  0
 31 32  1  0
 31 28  1  0
 32 30  2  0
 33 34  1  0
 34 35  2  0
 36 39  1  0
 36 35  1  0
 37 36  2  0
 38 37  1  0
 38 33  2  0
 39 40  1  0
 40 45  2  0
 40 41  1  0
 41 42  2  0
 42 43  1  0
 43 47  1  0
 44 43  2  0
 45 44  1  0
 46 45  1  0
 48 49  1  0
 49 51  1  0
 49 52  1  0
 50 48  2  0
 53 28  1  0
 53 54  1  0
 55 53  1  0
 56  2  1  0
 57 59  1  0
 57 56  1  0
 58 69  2  0
 59 64  1  0
 60 68  1  0
 60 70  1  0
 61 67  1  0
 61 63  1  0
 62 68  1  0
 63 62  1  0
 64 63  2  0
 65 66  1  0
 65 59  2  0
 66 61  2  0
 67 60  1  0
 68 58  1  0
 70 72  2  0
 71 70  1  0
 73 71  1  0
 74 83  2  0
 74 79  1  0
 75 71  1  0
 75 79  1  0
 76 75  1  0
 77 78  1  0
 77 76  1  0
 78 74  1  0
 79 80  2  0
 80 81  1  0
 82 81  2  0
 83 82  1  0
 84 58  1  0
 84 89  1  0
 84 85  1  0
 85 88  1  1
 85 86  1  0
 87 85  1  0
 89 92  1  0
 90 94  1  0
 90 89  1  0
 91 90  2  0
 94 93  1  0
 96 94  1  0
 96 97  1  0
 96 95  1  0
M  ISO  4  19 100  20 100  56 101  57 101
M  END
>  <TORSDO>  (44) 
F 20

>  <SCORE>  (44) 
-9.275

>  <name>  (44) 
43

>  <ligand_id>  (44) 
43

>  <original_smiles>  (44) 
[H]C(=NC(=O)N1C([H])([H])C([H])([H])C([H])([H])C([H])(n2nc(-c3c([H])c([H])c(Oc4c([H])c([H])c(F)c([H])c4F)c([H])c3[H])c(C(=O)N([H])[H])c2N([H])[H])C1([H])[H])c1c([H])c([H])c(N2C([H])([H])C([H])([H])C(=O)C([H])=C(C([H])([H])Oc3c([H])c([H])c4c(c3[H])C([H])([H])N(C(=O)C([H])(N([H])C(=O)C([H])(N([H])C([H])([H])[H])C([H])([H])[H])C(C([H])([H])[H])(C([H])([H])[H])C([H])([H])[H])C([H])(C(=O)N([H])C3([H])c5c([H])c([H])c([H])c([H])c5C([H])([H])C([H])([H])C3([H])[H])C4([H])[H])C2([H])C([H])([H])[H])c([H])c1C([H])=C([H])[H]

>  <smiles>  (44) 
[H]C(=NC(=O)N1C([H])([H])C([H])([H])C([H])([H])C([H])(n2nc(-c3c([H])c([H])c(Oc4c([H])c([H])c(F)c([H])c4F)c([H])c3[H])c(C(=O)N([H])[H])c2N([H])[H])C1([H])[H])c1c([H])c([H])c(N2C([H])([H])C([H])([H])C(=O)C([H])=C(C([H])([H])Oc3c([H])c([H])c4c(c3[H])C([H])([H])N(C(=O)C([H])(N([H])C(=O)C([H])(N([H])C([H])([H])[H])C([H])([H])[H])C(C([H])([H])[H])(C([H])([H])[H])C([H])([H])[H])C([H])(C(=O)N([H])C3([H])c5c([H])c([H])c([H])c([H])c5C([H])([H])C([H])([H])C3([H])[H])C4([H])[H])C2([H])C([H])([H])[H])c([H])c1C([H])=C([H])[H]

$$$$
44:0:0
     RDKit          3D

 93101  0  0  1  0  0  0  0  0999 V2000
  -30.0430  -19.1670   21.9900 C   0  0  0  0  0  3  0  0  0  0  0  0
  -29.5240  -20.4280   21.6320 C   0  0  0  0  0  3  0  0  0  0  0  0
  -29.6000  -19.7790   19.3010 C   0  0  0  0  0  3  0  0  0  0  0  0
  -30.3600  -18.1960   21.0130 C   0  0  0  0  0  0  0  0  0  0  0  0
  -29.2950  -20.7580   20.2740 C   0  0  0  0  0  0  0  0  0  0  0  0
  -30.1530  -18.5110   19.6470 C   0  0  0  0  0  0  0  0  0  0  0  0
  -28.8260  -23.0650   20.5090 C   0  0  0  0  0  3  0  0  0  0  0  0
  -28.7250  -21.9750   19.8420 N   0  0  0  0  0  0  0  0  0  0  0  0
  -26.5530  -24.1130   20.3630 C   0  0  0  0  0  1  0  0  0  0  0  0
  -28.0690  -24.3510   20.1320 C   0  0  0  0  0  3  0  0  0  0  0  0
  -28.6110  -25.6230   20.8730 C   0  0  0  0  0  2  0  0  0  0  0  0
  -28.6210  -26.8720   20.1380 O   0  0  0  0  0  0  0  0  0  0  0  0
  -24.6720  -31.9520   23.2520 C   0  0  0  0  0  0  0  0  0  0  0  0
  -27.4570  -27.6070   20.1500 C   0  0  0  0  0  0  0  0  0  0  0  0
  -23.5270  -30.5500   21.5680 C   0  0  0  0  0  3  0  0  0  0  0  0
  -25.0380  -29.0720   20.1410 C   0  0  0  0  0  0  0  0  0  0  0  0
  -26.0480  -30.9620   21.4240 C   0  0  0  0  0  2  0  0  0  0  0  0
  -26.1740  -29.6020   20.7690 C   0  0  0  0  0  0  0  0  0  0  0  0
  -27.3880  -28.8740   20.7790 C   0  0  0  0  0  3  0  0  0  0  0  0
  -26.3200  -27.1190   19.4800 C   0  0  0  0  0  3  0  0  0  0  0  0
  -25.1060  -27.8250   19.4970 C   0  0  0  0  0  3  0  0  0  0  0  0
  -23.7750  -29.9020   20.1790 C   0  0  0  0  0  2  0  0  0  0  0  0
  -24.7650  -31.1710   22.1390 N   0  0  0  0  0  0  0  0  0  0  0  0
  -23.5750  -32.1940   23.7770 O   0  0  0  0  0  0  0  0  0  0  0  0
  -22.8840  -29.4980   22.4980 C   0  0  0  0  0  0  0  0  0  0  0  0
  -21.5650  -29.2940   22.3460 N   0  0  0  0  0  0  0  0  0  0  0  0
  -23.5670  -28.8710   23.3120 O   0  0  0  0  0  0  0  0  0  0  0  0
  -21.0760  -29.8560   21.6640 H   0  0  0  0  0  0  0  0  0  0  0  0
  -18.1950  -28.0720   22.8160 C   0  0  0  0  0  0  0  0  0  0  0  0
  -20.7530  -28.3240   23.0830 C   0  0  0  0  0  3  0  0  0  0  0  0
  -20.8560  -26.9180   22.4510 C   0  0  0  0  0  2  0  0  0  0  0  0
  -19.7490  -26.6300   21.4320 C   0  0  0  0  0  2  0  0  0  0  0  0
  -18.3700  -26.7480   22.0890 C   0  0  0  0  0  2  0  0  0  0  0  0
  -19.3140  -28.8200   23.2670 C   0  0  0  0  0  0  0  0  0  0  0  0
  -19.0970  -30.0590   23.9060 C   0  0  0  0  0  3  0  0  0  0  0  0
  -17.7950  -30.5540   24.0970 C   0  0  0  0  0  3  0  0  0  0  0  0
  -16.6890  -29.8040   23.6630 C   0  0  0  0  0  3  0  0  0  0  0  0
  -16.8900  -28.5620   23.0280 C   0  0  0  0  0  3  0  0  0  0  0  0
  -25.9330  -32.6000   23.9050 C   0  0  0  0  0  3  0  0  0  0  0  0
  -25.6020  -33.9970   24.2160 N   0  0  0  0  0  0  0  0  0  0  0  0
  -25.9360  -35.0440   23.4510 C   0  0  0  0  0  0  0  0  0  0  0  0
  -26.6270  -34.9400   22.4340 O   0  0  0  0  0  0  0  0  0  0  0  0
  -24.9930  -34.1530   25.0050 H   0  0  0  0  0  0  0  0  0  0  0  0
  -24.1900  -36.8080   23.0420 C   0  0  0  0  0  1  0  0  0  0  0  0
  -25.4200  -36.4310   23.8820 C   0  0  0  0  0  3  0  0  0  0  0  0
  -27.5190  -37.3590   24.7530 C   0  0  0  0  0  1  0  0  0  0  0  0
  -26.4410  -37.4950   23.7770 N   0  0  0  0  0  0  0  0  0  0  0  0
  -26.0200  -38.4120   23.8960 H   0  0  0  0  0  0  0  0  0  0  0  0
  -26.4260  -31.8400   25.1970 C   0  0  1  0  0  0  0  0  0  0  0  0
  -25.3030  -31.5670   26.2240 C   0  0  0  0  0  1  0  0  0  0  0  0
  -27.0610  -30.4810   24.8230 C   0  0  0  0  0  1  0  0  0  0  0  0
  -27.5310  -32.6630   25.9010 C   0  0  0  0  0  1  0  0  0  0  0  0
  -30.6280  -17.9690   17.3460 C   0  0  0  0  0  1  0  0  0  0  0  0
  -30.5210  -17.5700   18.7080 O   0  0  0  0  0  0  0  0  0  0  0  0
  -31.0100  -16.8870   21.4930 C   0  0  0  0  0  2  0  0  0  0  0  0
  -31.0230  -14.6630   20.3270 C   0  0  0  0  0  0  0  0  0  0  0  0
  -30.6690  -12.5400   19.1150 C   0  0  0  0  0  2  0  0  0  0  0  0
  -29.6900  -12.7630   17.9460 C   0  0  0  0  0  2  0  0  0  0  0  0
  -28.2290  -12.6270   18.4180 C   0  0  0  0  0  2  0  0  0  0  0  0
  -27.9390  -13.4470   19.7040 C   0  0  0  0  0  3  0  0  0  0  0  0
  -29.0210  -13.1930   20.7740 C   0  0  0  0  0  2  0  0  0  0  0  0
  -30.3280  -13.5050   20.1710 N   0  0  0  0  0  0  0  0  0  0  0  0
  -32.1170  -14.8620   19.7910 O   0  0  0  0  0  0  0  0  0  0  0  0
  -30.4130  -15.6150   21.0580 N   0  0  0  0  0  0  0  0  0  0  0  0
  -29.4970  -15.3930   21.4170 H   0  0  0  0  0  0  0  0  0  0  0  0
  -25.5730  -14.0700   20.5000 C   0  0  0  0  0  0  0  0  0  0  0  0
  -24.5060  -13.3020   20.8850 C   0  0  0  0  0  0  0  0  0  0  0  0
  -24.9480  -11.9470   20.8100 C   0  0  0  0  0  0  0  0  0  0  0  0
  -26.5970  -13.1800   20.2180 N   0  0  0  0  0  0  0  0  0  0  0  0
  -26.2270  -11.8970   20.4590 N   0  0  0  0  0  0  0  0  0  0  0  0
  -24.2120  -10.6880   20.9950 C   0  0  0  0  0  0  0  0  0  0  0  0
  -24.6240   -9.7230   21.9400 C   0  0  0  0  0  3  0  0  0  0  0  0
  -23.8900   -8.5300   22.1110 C   0  0  0  0  0  3  0  0  0  0  0  0
  -22.7290   -8.2940   21.3360 C   0  0  0  0  0  0  0  0  0  0  0  0
  -22.3360   -9.2480   20.3800 C   0  0  0  0  0  3  0  0  0  0  0  0
  -23.0710  -10.4330   20.2080 C   0  0  0  0  0  3  0  0  0  0  0  0
  -21.9670   -7.1540   21.4170 O   0  0  0  0  0  0  0  0  0  0  0  0
  -21.8470   -6.4500   22.5870 C   0  0  0  0  0  0  0  0  0  0  0  0
  -21.2930   -7.0270   23.7510 C   0  0  0  0  0  3  0  0  0  0  0  0
  -21.1230   -6.2460   24.9120 C   0  0  0  0  0  3  0  0  0  0  0  0
  -21.4970   -4.8890   24.9100 C   0  0  0  0  0  0  0  0  0  0  0  0
  -22.0420   -4.3110   23.7490 C   0  0  0  0  0  3  0  0  0  0  0  0
  -22.2130   -5.0880   22.5910 C   0  0  0  0  0  0  0  0  0  0  0  0
  -22.7200   -4.5210   21.4700 F   0  0  0  0  0  0  0  0  0  0  0  0
  -21.3260   -4.1360   26.0220 F   0  0  0  0  0  0  0  0  0  0  0  0
  -23.1240  -13.7900   21.2150 C   0  0  0  0  0  0  0  0  0  0  0  0
  -22.4170  -13.0820   22.0880 N   0  0  0  0  0  0  0  0  0  0  0  0
  -22.6810  -14.8320   20.7330 O   0  0  0  0  0  0  0  0  0  0  0  0
  -22.7880  -12.2360   22.4960 H   0  0  0  0  0  0  0  0  0  0  0  0
  -21.4910  -13.3860   22.3520 H   0  0  0  0  0  0  0  0  0  0  0  0
  -25.7510  -15.4410   20.3470 N   0  0  0  0  0  0  0  0  0  0  0  0
  -24.9970  -16.1060   20.4830 H   0  0  0  0  0  0  0  0  0  0  0  0
  -26.6010  -15.8710   20.0060 H   0  0  0  0  0  0  0  0  0  0  0  0
  2  1  1  0
  3  6  2  0
  3  5  1  0
  4 55  1  0
  4  1  2  0
  5  2  2  0
  6  4  1  0
  8  5  1  0
  8  7  2  0
 10  9  1  0
 10  7  1  0
 10 11  1  0
 12 14  1  0
 12 11  1  0
 13 24  2  0
 14 19  1  0
 15 23  1  0
 15 25  1  0
 16 22  1  0
 16 18  1  0
 17 23  1  0
 18 19  2  0
 18 17  1  0
 20 21  1  0
 20 14  2  0
 21 16  2  0
 22 15  1  0
 23 13  1  0
 25 27  2  0
 26 25  1  0
 28 26  1  0
 29 38  2  0
 29 34  1  0
 30 26  1  0
 30 34  1  0
 31 30  1  0
 32 33  1  0
 32 31  1  0
 33 29  1  0
 34 35  2  0
 35 36  1  0
 37 36  2  0
 38 37  1  0
 39 13  1  0
 39 40  1  0
 39 49  1  0
 40 43  1  0
 41 45  1  0
 41 40  1  0
 42 41  2  0
 45 44  1  0
 47 45  1  0
 47 48  1  0
 47 46  1  0
 49 52  1  1
 49 50  1  0
 51 49  1  0
 53 54  1  0
 54  6  1  0
 56 64  1  0
 57 62  1  0
 58 59  1  0
 58 57  1  0
 60 59  1  0
 60 69  1  0
 60 61  1  0
 62 56  1  0
 62 61  1  0
 63 56  2  0
 64 65  1  0
 64 55  1  0
 66 67  2  0
 67 86  1  0
 68 67  1  0
 68 71  1  0
 69 70  1  0
 69 66  1  0
 70 68  2  0
 71 72  1  0
 72 73  2  0
 74 77  1  0
 74 73  1  0
 75 74  2  0
 76 75  1  0
 76 71  2  0
 77 78  1  0
 78 83  2  0
 78 79  1  0
 79 80  2  0
 81 80  1  0
 81 85  1  0
 82 81  2  0
 83 82  1  0
 84 83  1  0
 86 87  1  0
 87 90  1  0
 87 89  1  0
 88 86  2  0
 91 92  1  0
 91 66  1  0
 93 91  1  0
M  ISO  4  11 101  12 101  56 100  64 100
M  END
>  <TORSDO>  (45) 
F 21

>  <SCORE>  (45) 
-12.856

>  <name>  (45) 
44

>  <ligand_id>  (45) 
44

>  <original_smiles>  (45) 
[H]C(=Nc1c([H])c([H])c(C([H])([H])N([H])C(=O)N2C([H])([H])C([H])([H])C([H])([H])C([H])(n3nc(-c4c([H])c([H])c(Oc5c([H])c([H])c(F)c([H])c5F)c([H])c4[H])c(C(=O)N([H])[H])c3N([H])[H])C2([H])[H])c(OC([H])([H])[H])c1[H])C([H])(C([H])([H])[H])C([H])([H])Oc1c([H])c([H])c2c(c1[H])C([H])([H])N(C(=O)C([H])(N([H])C(=O)C([H])(N([H])C([H])([H])[H])C([H])([H])[H])C(C([H])([H])[H])(C([H])([H])[H])C([H])([H])[H])C([H])(C(=O)N([H])C1([H])c3c([H])c([H])c([H])c([H])c3C([H])([H])C([H])([H])C1([H])[H])C2([H])[H]

>  <smiles>  (45) 
[H]C(=Nc1c([H])c([H])c(C([H])([H])N([H])C(=O)N2C([H])([H])C([H])([H])C([H])([H])C([H])(n3nc(-c4c([H])c([H])c(Oc5c([H])c([H])c(F)c([H])c5F)c([H])c4[H])c(C(=O)N([H])[H])c3N([H])[H])C2([H])[H])c(OC([H])([H])[H])c1[H])C([H])(C([H])([H])[H])C([H])([H])Oc1c([H])c([H])c2c(c1[H])C([H])([H])N(C(=O)C([H])(N([H])C(=O)C([H])(N([H])C([H])([H])[H])C([H])([H])[H])C(C([H])([H])[H])(C([H])([H])[H])C([H])([H])[H])C([H])(C(=O)N([H])C1([H])c3c([H])c([H])c([H])c([H])c3C([H])([H])C([H])([H])C1([H])[H])C2([H])[H]

$$$$
45:0:0
     RDKit          3D

 90 98  0  0  1  0  0  0  0  0999 V2000
  -28.5130  -18.9340   20.0900 C   0  0  0  0  0  3  0  0  0  0  0  0
  -28.1690  -20.3090   19.9210 C   0  0  0  0  0  3  0  0  0  0  0  0
  -30.5010  -19.6150   21.2380 C   0  0  0  0  0  3  0  0  0  0  0  0
  -29.7370  -18.5450   20.6930 C   0  0  0  0  0  0  0  0  0  0  0  0
  -30.1650  -20.9990   21.0870 C   0  0  0  0  0  0  0  0  0  0  0  0
  -28.9890  -21.3860   20.3680 C   0  0  0  0  0  0  0  0  0  0  0  0
  -30.2990  -17.1250   20.7060 C   0  0  0  0  0  3  0  0  0  0  0  0
  -29.7290  -15.8760   20.6270 C   0  0  0  0  0  3  0  0  0  0  0  0
  -30.5560  -14.6290   20.4690 C   0  0  0  0  0  0  0  0  0  0  0  0
  -30.3470  -12.3730   19.4550 C   0  0  0  0  0  2  0  0  0  0  0  0
  -29.4360  -12.4810   18.2120 C   0  0  0  0  0  2  0  0  0  0  0  0
  -27.9570  -12.3080   18.6090 C   0  0  0  0  0  2  0  0  0  0  0  0
  -27.5590  -13.1850   19.8270 C   0  0  0  0  0  3  0  0  0  0  0  0
  -28.5970  -13.0860   20.9660 C   0  0  0  0  0  2  0  0  0  0  0  0
  -29.9130  -13.4160   20.4100 N   0  0  0  0  0  0  0  0  0  0  0  0
  -31.7500  -14.6960   20.1670 O   0  0  0  0  0  0  0  0  0  0  0  0
  -25.1540  -13.7640   20.4990 C   0  0  0  0  0  0  0  0  0  0  0  0
  -24.0870  -12.9850   20.8560 C   0  0  0  0  0  0  0  0  0  0  0  0
  -24.5600  -11.6380   20.8460 C   0  0  0  0  0  0  0  0  0  0  0  0
  -26.2080  -12.8900   20.2920 N   0  0  0  0  0  0  0  0  0  0  0  0
  -25.8560  -11.6070   20.5640 N   0  0  0  0  0  0  0  0  0  0  0  0
  -23.8390  -10.3730   21.0340 C   0  0  0  0  0  0  0  0  0  0  0  0
  -24.2610   -9.4170   21.9860 C   0  0  0  0  0  3  0  0  0  0  0  0
  -23.5420   -8.2150   22.1580 C   0  0  0  0  0  3  0  0  0  0  0  0
  -22.3860   -7.9610   21.3820 C   0  0  0  0  0  0  0  0  0  0  0  0
  -21.9830   -8.9060   20.4220 C   0  0  0  0  0  3  0  0  0  0  0  0
  -22.7030  -10.0990   20.2440 C   0  0  0  0  0  3  0  0  0  0  0  0
  -21.6380   -6.8130   21.4680 O   0  0  0  0  0  0  0  0  0  0  0  0
  -21.5700   -6.0810   22.6260 C   0  0  0  0  0  0  0  0  0  0  0  0
  -21.1040   -6.6410   23.8360 C   0  0  0  0  0  3  0  0  0  0  0  0
  -20.9850   -5.8320   24.9850 C   0  0  0  0  0  3  0  0  0  0  0  0
  -21.3230   -4.4660   24.9260 C   0  0  0  0  0  0  0  0  0  0  0  0
  -21.7840   -3.9070   23.7200 C   0  0  0  0  0  3  0  0  0  0  0  0
  -21.9050   -4.7120   22.5740 C   0  0  0  0  0  0  0  0  0  0  0  0
  -22.3290   -4.1620   21.4110 F   0  0  0  0  0  0  0  0  0  0  0  0
  -21.2010   -3.6900   26.0270 F   0  0  0  0  0  0  0  0  0  0  0  0
  -22.6830  -13.4560   21.0950 C   0  0  0  0  0  0  0  0  0  0  0  0
  -21.9420  -12.7670   21.9530 N   0  0  0  0  0  0  0  0  0  0  0  0
  -22.2510  -14.4730   20.5540 O   0  0  0  0  0  0  0  0  0  0  0  0
  -22.3060  -11.9480   22.4180 H   0  0  0  0  0  0  0  0  0  0  0  0
  -20.9960  -13.0620   22.1530 H   0  0  0  0  0  0  0  0  0  0  0  0
  -25.3090  -15.1340   20.3100 N   0  0  0  0  0  0  0  0  0  0  0  0
  -24.5270  -15.7740   20.3910 H   0  0  0  0  0  0  0  0  0  0  0  0
  -26.1570  -15.5770   19.9800 H   0  0  0  0  0  0  0  0  0  0  0  0
  -28.6490  -23.8520   20.4740 C   0  0  0  0  0  3  0  0  0  0  0  0
  -28.6860  -22.7010   19.8690 N   0  0  0  0  0  0  0  0  0  0  0  0
  -28.4740  -25.2040   19.6790 C   0  0  0  0  0  2  0  0  0  0  0  0
  -28.3210  -26.4790   20.4120 O   0  0  0  0  0  0  0  0  0  0  0  0
  -24.5760  -31.9110   23.2760 C   0  0  0  0  0  0  0  0  0  0  0  0
  -27.1810  -27.2920   20.3090 C   0  0  0  0  0  0  0  0  0  0  0  0
  -23.3780  -30.5010   21.6420 C   0  0  0  0  0  3  0  0  0  0  0  0
  -24.8250  -28.9190   20.2520 C   0  0  0  0  0  0  0  0  0  0  0  0
  -25.9180  -30.7960   21.4780 C   0  0  0  0  0  2  0  0  0  0  0  0
  -25.9900  -29.4080   20.8530 C   0  0  0  0  0  0  0  0  0  0  0  0
  -27.1660  -28.6030   20.8760 C   0  0  0  0  0  3  0  0  0  0  0  0
  -25.9830  -26.8470   19.6980 C   0  0  0  0  0  3  0  0  0  0  0  0
  -24.8220  -27.6430   19.6680 C   0  0  0  0  0  3  0  0  0  0  0  0
  -23.5990  -29.8060   20.2730 C   0  0  0  0  0  2  0  0  0  0  0  0
  -24.6430  -31.0870   22.1900 N   0  0  0  0  0  0  0  0  0  0  0  0
  -23.4890  -32.2060   23.7940 O   0  0  0  0  0  0  0  0  0  0  0  0
  -22.6970  -29.5030   22.6080 C   0  0  0  0  0  0  0  0  0  0  0  0
  -21.3700  -29.3400   22.4730 N   0  0  0  0  0  0  0  0  0  0  0  0
  -23.3610  -28.8770   23.4390 O   0  0  0  0  0  0  0  0  0  0  0  0
  -20.8950  -29.8990   21.7770 H   0  0  0  0  0  0  0  0  0  0  0  0
  -17.9700  -28.2090   22.9640 C   0  0  0  0  0  0  0  0  0  0  0  0
  -20.5310  -28.4250   23.2470 C   0  0  0  0  0  3  0  0  0  0  0  0
  -20.6100  -26.9880   22.6810 C   0  0  0  0  0  2  0  0  0  0  0  0
  -19.5080  -26.6770   21.6630 C   0  0  0  0  0  2  0  0  0  0  0  0
  -18.1260  -26.8520   22.2980 C   0  0  0  0  0  2  0  0  0  0  0  0
  -19.1000  -28.9550   23.3930 C   0  0  0  0  0  0  0  0  0  0  0  0
  -18.9000  -30.2250   23.9760 C   0  0  0  0  0  3  0  0  0  0  0  0
  -17.6050  -30.7500   24.1340 C   0  0  0  0  0  3  0  0  0  0  0  0
  -16.4890  -30.0010   23.7210 C   0  0  0  0  0  3  0  0  0  0  0  0
  -16.6720  -28.7340   23.1410 C   0  0  0  0  0  3  0  0  0  0  0  0
  -25.8580  -32.5380   23.9070 C   0  0  0  0  0  3  0  0  0  0  0  0
  -26.3480  -31.7810   25.2030 C   0  0  1  0  0  0  0  0  0  0  0  0
  -25.2370  -31.5750   26.2610 C   0  0  0  0  0  1  0  0  0  0  0  0
  -26.9200  -30.3920   24.8420 C   0  0  0  0  0  1  0  0  0  0  0  0
  -27.5000  -32.5720   25.8680 C   0  0  0  0  0  1  0  0  0  0  0  0
  -25.5600  -33.9450   24.2100 N   0  0  0  0  0  0  0  0  0  0  0  0
  -25.9120  -34.9800   23.4350 C   0  0  0  0  0  0  0  0  0  0  0  0
  -26.5910  -34.8510   22.4140 O   0  0  0  0  0  0  0  0  0  0  0  0
  -24.9580  -34.1200   25.0000 H   0  0  0  0  0  0  0  0  0  0  0  0
  -24.2100  -36.7880   23.0320 C   0  0  0  0  0  1  0  0  0  0  0  0
  -25.4360  -36.3820   23.8640 C   0  0  0  0  0  3  0  0  0  0  0  0
  -27.5710  -37.2550   24.7050 C   0  0  0  0  0  1  0  0  0  0  0  0
  -26.4820  -37.4220   23.7490 N   0  0  0  0  0  0  0  0  0  0  0  0
  -26.0830  -38.3470   23.8780 H   0  0  0  0  0  0  0  0  0  0  0  0
  -30.9200  -22.3760   23.1130 C   0  0  0  0  0  1  0  0  0  0  0  0
  -31.1650  -22.0160   21.6370 C   0  0  0  0  0  2  0  0  0  0  0  0
  1  4  1  0
  2  1  2  0
  2  6  1  0
  4  7  1  0
  4  3  2  0
  5  3  1  0
  5 90  1  0
  6  5  2  0
  8  7  2  0
  9  8  1  0
 10 15  1  0
 11 12  1  0
 11 10  1  0
 13 12  1  0
 13 20  1  0
 13 14  1  0
 15  9  1  0
 15 14  1  0
 16  9  2  0
 17 18  2  0
 18 37  1  0
 19 18  1  0
 19 22  1  0
 20 17  1  0
 20 21  1  0
 21 19  2  0
 22 23  1  0
 23 24  2  0
 25 28  1  0
 25 24  1  0
 26 25  2  0
 27 26  1  0
 27 22  2  0
 28 29  1  0
 29 30  1  0
 30 31  2  0
 32 31  1  0
 32 36  1  0
 33 32  2  0
 34 29  2  0
 34 33  1  0
 35 34  1  0
 37 38  1  0
 38 41  1  0
 38 40  1  0
 39 37  2  0
 42 43  1  0
 42 17  1  0
 44 42  1  0
 46  6  1  0
 46 45  2  0
 47 48  1  0
 47 45  1  0
 49 60  2  0
 50 48  1  0
 50 55  1  0
 51 59  1  0
 51 61  1  0
 52 58  1  0
 52 54  1  0
 53 59  1  0
 54 55  2  0
 54 53  1  0
 56 50  2  0
 57 56  1  0
 57 52  2  0
 58 51  1  0
 59 49  1  0
 61 63  2  0
 62 61  1  0
 64 62  1  0
 65 74  2  0
 65 70  1  0
 66 62  1  0
 66 70  1  0
 67 66  1  0
 68 69  1  0
 68 67  1  0
 69 65  1  0
 70 71  2  0
 71 72  1  0
 73 72  2  0
 74 73  1  0
 75 49  1  0
 75 80  1  0
 75 76  1  0
 76 79  1  1
 76 77  1  0
 78 76  1  0
 80 83  1  0
 81 85  1  0
 81 80  1  0
 82 81  2  0
 85 84  1  0
 87 85  1  0
 87 88  1  0
 87 86  1  0
 90 89  1  0
M  ISO  4   8 100   9 100  47 101  48 101
M  END
>  <TORSDO>  (46) 
F 20

>  <SCORE>  (46) 
-13.686

>  <name>  (46) 
45

>  <ligand_id>  (46) 
45

>  <original_smiles>  (46) 
[H]C(=Nc1c([H])c([H])c(C([H])=C([H])C(=O)N2C([H])([H])C([H])([H])C([H])([H])C([H])(n3nc(-c4c([H])c([H])c(Oc5c([H])c([H])c(F)c([H])c5F)c([H])c4[H])c(C(=O)N([H])[H])c3N([H])[H])C2([H])[H])c([H])c1C([H])([H])C([H])([H])[H])C([H])([H])Oc1c([H])c([H])c2c(c1[H])C([H])([H])N(C(=O)C([H])(N([H])C(=O)C([H])(N([H])C([H])([H])[H])C([H])([H])[H])C(C([H])([H])[H])(C([H])([H])[H])C([H])([H])[H])C([H])(C(=O)N([H])C1([H])c3c([H])c([H])c([H])c([H])c3C([H])([H])C([H])([H])C1([H])[H])C2([H])[H]

>  <smiles>  (46) 
[H]C(=Nc1c([H])c([H])c(C([H])=C([H])C(=O)N2C([H])([H])C([H])([H])C([H])([H])C([H])(n3nc(-c4c([H])c([H])c(Oc5c([H])c([H])c(F)c([H])c5F)c([H])c4[H])c(C(=O)N([H])[H])c3N([H])[H])C2([H])[H])c([H])c1C([H])([H])C([H])([H])[H])C([H])([H])Oc1c([H])c([H])c2c(c1[H])C([H])([H])N(C(=O)C([H])(N([H])C(=O)C([H])(N([H])C([H])([H])[H])C([H])([H])[H])C(C([H])([H])[H])(C([H])([H])[H])C([H])([H])[H])C([H])(C(=O)N([H])C1([H])c3c([H])c([H])c([H])c([H])c3C([H])([H])C([H])([H])C1([H])[H])C2([H])[H]

$$$$
46:0:0
     RDKit          3D

 91 99  0  0  1  0  0  0  0  0999 V2000
  -27.8980  -20.7520   20.2920 C   0  0  0  0  0  3  0  0  0  0  0  0
  -28.3920  -21.9540   20.6630 C   0  0  0  0  0  3  0  0  0  0  0  0
  -27.9490  -18.5630   19.2210 C   0  0  0  0  0  3  0  0  0  0  0  0
  -28.4530  -17.2790   18.9760 C   0  0  0  0  0  3  0  0  0  0  0  0
  -30.2630  -17.6760   20.5500 C   0  0  0  0  0  3  0  0  0  0  0  0
  -28.5690  -19.4320   20.1410 C   0  0  0  0  0  0  0  0  0  0  0  0
  -29.7300  -18.9680   20.8270 C   0  0  0  0  0  0  0  0  0  0  0  0
  -29.6080  -16.8250   19.6380 C   0  0  0  0  0  0  0  0  0  0  0  0
  -30.3660  -19.7780   21.9410 C   0  0  0  0  0  1  0  0  0  0  0  0
  -30.8300  -14.6000   19.9370 C   0  0  0  0  0  0  0  0  0  0  0  0
  -30.6240  -12.3710   18.9560 C   0  0  0  0  0  2  0  0  0  0  0  0
  -29.6050  -12.5050   17.7990 C   0  0  0  0  0  2  0  0  0  0  0  0
  -28.1540  -12.3650   18.3090 C   0  0  0  0  0  2  0  0  0  0  0  0
  -27.8480  -13.2460   19.5470 C   0  0  0  0  0  3  0  0  0  0  0  0
  -28.9690  -13.1070   20.6110 C   0  0  0  0  0  2  0  0  0  0  0  0
  -30.2710  -13.3700   19.9710 N   0  0  0  0  0  0  0  0  0  0  0  0
  -32.0300  -14.8290   19.7630 O   0  0  0  0  0  0  0  0  0  0  0  0
  -29.9090  -15.4560   19.4590 N   0  0  0  0  0  0  0  0  0  0  0  0
  -29.1490  -14.9470   19.0450 H   0  0  0  0  0  0  0  0  0  0  0  0
  -25.5010  -13.8770   20.3780 C   0  0  0  0  0  0  0  0  0  0  0  0
  -24.4460  -13.1110   20.7880 C   0  0  0  0  0  0  0  0  0  0  0  0
  -24.8980  -11.7570   20.7330 C   0  0  0  0  0  0  0  0  0  0  0  0
  -26.5270  -12.9880   20.0980 N   0  0  0  0  0  0  0  0  0  0  0  0
  -26.1730  -11.7110   20.3740 N   0  0  0  0  0  0  0  0  0  0  0  0
  -24.1770  -10.4970   20.9450 C   0  0  0  0  0  0  0  0  0  0  0  0
  -24.5820   -9.5750   21.9340 C   0  0  0  0  0  3  0  0  0  0  0  0
  -23.8650   -8.3750   22.1300 C   0  0  0  0  0  3  0  0  0  0  0  0
  -22.7270   -8.0930   21.3370 C   0  0  0  0  0  0  0  0  0  0  0  0
  -22.3400   -9.0050   20.3410 C   0  0  0  0  0  3  0  0  0  0  0  0
  -23.0590  -10.1960   20.1430 C   0  0  0  0  0  3  0  0  0  0  0  0
  -21.9840   -6.9420   21.4420 O   0  0  0  0  0  0  0  0  0  0  0  0
  -21.8130   -6.3050   22.6450 C   0  0  0  0  0  0  0  0  0  0  0  0
  -21.2180   -6.9490   23.7530 C   0  0  0  0  0  3  0  0  0  0  0  0
  -20.9960   -6.2370   24.9470 C   0  0  0  0  0  3  0  0  0  0  0  0
  -21.3600   -4.8790   25.0370 C   0  0  0  0  0  0  0  0  0  0  0  0
  -21.9490   -4.2340   23.9340 C   0  0  0  0  0  3  0  0  0  0  0  0
  -22.1700   -4.9450   22.7430 C   0  0  0  0  0  0  0  0  0  0  0  0
  -22.7180   -4.3150   21.6750 F   0  0  0  0  0  0  0  0  0  0  0  0
  -21.1410   -4.1890   26.1810 F   0  0  0  0  0  0  0  0  0  0  0  0
  -23.0620  -13.5910   21.1180 C   0  0  0  0  0  0  0  0  0  0  0  0
  -22.3720  -12.9000   22.0190 N   0  0  0  0  0  0  0  0  0  0  0  0
  -22.6000  -14.6140   20.6130 O   0  0  0  0  0  0  0  0  0  0  0  0
  -22.7570  -12.0730   22.4500 H   0  0  0  0  0  0  0  0  0  0  0  0
  -21.4440  -13.2010   22.2790 H   0  0  0  0  0  0  0  0  0  0  0  0
  -25.6640  -15.2490   20.1950 N   0  0  0  0  0  0  0  0  0  0  0  0
  -24.9020  -15.9010   20.3410 H   0  0  0  0  0  0  0  0  0  0  0  0
  -26.5150  -15.6960   19.8780 H   0  0  0  0  0  0  0  0  0  0  0  0
  -27.5010  -23.1910   20.7820 C   0  0  0  0  0  2  0  0  0  0  0  0
  -28.1930  -24.5690   20.9610 C   0  0  0  0  0  2  0  0  0  0  0  0
  -28.4940  -25.3840   19.6770 C   0  0  0  0  0  2  0  0  0  0  0  0
  -28.4720  -26.7980   19.9560 O   0  0  0  0  0  0  0  0  0  0  0  0
  -24.6230  -31.8620   23.1790 C   0  0  0  0  0  0  0  0  0  0  0  0
  -27.2600  -27.4690   20.0020 C   0  0  0  0  0  0  0  0  0  0  0  0
  -23.4090  -30.4570   21.5500 C   0  0  0  0  0  3  0  0  0  0  0  0
  -24.8480  -28.9520   20.0900 C   0  0  0  0  0  0  0  0  0  0  0  0
  -25.9300  -30.8470   21.3160 C   0  0  0  0  0  2  0  0  0  0  0  0
  -26.0130  -29.4830   20.6560 C   0  0  0  0  0  0  0  0  0  0  0  0
  -27.2210  -28.7520   20.6010 C   0  0  0  0  0  3  0  0  0  0  0  0
  -26.0610  -26.9440   19.4570 C   0  0  0  0  0  3  0  0  0  0  0  0
  -24.8650  -27.6860   19.4880 C   0  0  0  0  0  3  0  0  0  0  0  0
  -23.6010  -29.7970   20.1610 C   0  0  0  0  0  2  0  0  0  0  0  0
  -24.6740  -31.0720   22.0710 N   0  0  0  0  0  0  0  0  0  0  0  0
  -23.5460  -32.1200   23.7370 O   0  0  0  0  0  0  0  0  0  0  0  0
  -22.7850  -29.4220   22.5140 C   0  0  0  0  0  0  0  0  0  0  0  0
  -21.4630  -29.2130   22.3920 N   0  0  0  0  0  0  0  0  0  0  0  0
  -23.4830  -28.8070   23.3270 O   0  0  0  0  0  0  0  0  0  0  0  0
  -20.9620  -29.7280   21.6800 H   0  0  0  0  0  0  0  0  0  0  0  0
  -18.1020  -28.0130   22.9420 C   0  0  0  0  0  0  0  0  0  0  0  0
  -20.6630  -28.2760   23.1790 C   0  0  0  0  0  3  0  0  0  0  0  0
  -20.7570  -26.8450   22.6040 C   0  0  0  0  0  2  0  0  0  0  0  0
  -19.6520  -26.5330   21.5860 C   0  0  0  0  0  2  0  0  0  0  0  0
  -18.2680  -26.6770   22.2380 C   0  0  0  0  0  2  0  0  0  0  0  0
  -19.2270  -28.7770   23.3540 C   0  0  0  0  0  0  0  0  0  0  0  0
  -19.0210  -30.0340   23.9570 C   0  0  0  0  0  3  0  0  0  0  0  0
  -17.7200  -30.5300   24.1620 C   0  0  0  0  0  3  0  0  0  0  0  0
  -16.6100  -29.7620   23.7740 C   0  0  0  0  0  3  0  0  0  0  0  0
  -16.8010  -28.5080   23.1660 C   0  0  0  0  0  3  0  0  0  0  0  0
  -25.9110  -32.5030   23.7850 C   0  0  0  0  0  3  0  0  0  0  0  0
  -26.4610  -31.7230   25.0420 C   0  0  1  0  0  0  0  0  0  0  0  0
  -25.3930  -31.4520   26.1270 C   0  0  0  0  0  1  0  0  0  0  0  0
  -27.0600  -30.3600   24.6240 C   0  0  0  0  0  1  0  0  0  0  0  0
  -27.6160  -32.5230   25.6940 C   0  0  0  0  0  1  0  0  0  0  0  0
  -25.5910  -33.8930   24.1360 N   0  0  0  0  0  0  0  0  0  0  0  0
  -25.8990  -34.9560   23.3820 C   0  0  0  0  0  0  0  0  0  0  0  0
  -26.5500  -34.8680   22.3380 O   0  0  0  0  0  0  0  0  0  0  0  0
  -25.0160  -34.0370   24.9530 H   0  0  0  0  0  0  0  0  0  0  0  0
  -24.1400  -36.7250   23.0780 C   0  0  0  0  0  1  0  0  0  0  0  0
  -25.4060  -36.3350   23.8580 C   0  0  0  0  0  3  0  0  0  0  0  0
  -27.5460  -37.2400   24.6500 C   0  0  0  0  0  1  0  0  0  0  0  0
  -26.4240  -37.4020   23.7290 N   0  0  0  0  0  0  0  0  0  0  0  0
  -26.0100  -38.3150   23.8910 H   0  0  0  0  0  0  0  0  0  0  0  0
  1  2  2  0
  2 48  1  0
  3  6  1  0
  4  3  2  0
  4  8  1  0
  5  7  1  0
  6  1  1  0
  6  7  2  0
  7  9  1  0
  8  5  2  0
 10 16  1  0
 11 16  1  0
 12 13  1  0
 12 11  1  0
 14 13  1  0
 14 23  1  0
 14 15  1  0
 16 15  1  0
 17 10  2  0
 18  8  1  0
 18 10  1  0
 19 18  1  0
 20 21  2  0
 21 40  1  0
 22 21  1  0
 22 25  1  0
 23 24  1  0
 23 20  1  0
 24 22  2  0
 25 26  1  0
 26 27  2  0
 28 31  1  0
 28 27  1  0
 29 28  2  0
 30 29  1  0
 30 25  2  0
 31 32  1  0
 32 37  2  0
 32 33  1  0
 33 34  2  0
 34 35  1  0
 35 39  1  0
 36 35  2  0
 37 36  1  0
 38 37  1  0
 40 41  1  0
 41 44  1  0
 41 43  1  0
 42 40  2  0
 45 46  1  0
 45 20  1  0
 47 45  1  0
 48 49  1  0
 50 51  1  0
 50 49  1  0
 51 53  1  0
 52 63  2  0
 53 58  1  0
 54 62  1  0
 54 64  1  0
 55 61  1  0
 55 57  1  0
 56 62  1  0
 57 56  1  0
 58 57  2  0
 59 60  1  0
 59 53  2  0
 60 55  2  0
 61 54  1  0
 62 52  1  0
 64 66  2  0
 65 64  1  0
 67 65  1  0
 68 77  2  0
 68 73  1  0
 69 65  1  0
 69 73  1  0
 70 69  1  0
 71 72  1  0
 71 70  1  0
 72 68  1  0
 73 74  2  0
 74 75  1  0
 76 75  2  0
 77 76  1  0
 78 52  1  0
 78 83  1  0
 78 79  1  0
 79 82  1  1
 79 80  1  0
 81 79  1  0
 83 86  1  0
 84 88  1  0
 84 83  1  0
 85 84  2  0
 88 87  1  0
 90 88  1  0
 90 91  1  0
 90 89  1  0
M  ISO  4  10 100  18 100  50 101  51 101
M  END
>  <TORSDO>  (47) 
F 20

>  <SCORE>  (47) 
-13.597

>  <name>  (47) 
46

>  <ligand_id>  (47) 
46

>  <original_smiles>  (47) 
[H]C(=C([H])C([H])([H])C([H])([H])C([H])([H])Oc1c([H])c([H])c2c(c1[H])C([H])([H])N(C(=O)C([H])(N([H])C(=O)C([H])(N([H])C([H])([H])[H])C([H])([H])[H])C(C([H])([H])[H])(C([H])([H])[H])C([H])([H])[H])C([H])(C(=O)N([H])C1([H])c3c([H])c([H])c([H])c([H])c3C([H])([H])C([H])([H])C1([H])[H])C2([H])[H])c1c([H])c([H])c(N([H])C(=O)N2C([H])([H])C([H])([H])C([H])([H])C([H])(n3nc(-c4c([H])c([H])c(Oc5c([H])c([H])c(F)c([H])c5F)c([H])c4[H])c(C(=O)N([H])[H])c3N([H])[H])C2([H])[H])c([H])c1C([H])([H])[H]

>  <smiles>  (47) 
[H]C(=C([H])C([H])([H])C([H])([H])C([H])([H])Oc1c([H])c([H])c2c(c1[H])C([H])([H])N(C(=O)C([H])(N([H])C(=O)C([H])(N([H])C([H])([H])[H])C([H])([H])[H])C(C([H])([H])[H])(C([H])([H])[H])C([H])([H])[H])C([H])(C(=O)N([H])C1([H])c3c([H])c([H])c([H])c([H])c3C([H])([H])C([H])([H])C1([H])[H])C2([H])[H])c1c([H])c([H])c(N([H])C(=O)N2C([H])([H])C([H])([H])C([H])([H])C([H])(n3nc(-c4c([H])c([H])c(Oc5c([H])c([H])c(F)c([H])c5F)c([H])c4[H])c(C(=O)N([H])[H])c3N([H])[H])C2([H])[H])c([H])c1C([H])([H])[H]

$$$$
47:0:0
     RDKit          3D

 90 98  0  0  1  0  0  0  0  0999 V2000
  -30.2060  -19.6920   21.2400 C   0  0  0  0  0  3  0  0  0  0  0  0
  -29.8490  -21.0650   21.0720 C   0  0  0  0  0  3  0  0  0  0  0  0
  -29.7970  -18.6840   20.3200 C   0  0  0  0  0  0  0  0  0  0  0  0
  -28.9860  -19.1760   19.2550 C   0  0  0  0  0  0  0  0  0  0  0  0
  -29.0710  -21.4630   19.9610 C   0  0  0  0  0  0  0  0  0  0  0  0
  -28.6510  -20.4990   19.1080 N   0  0  0  0  0  0  0  0  0  0  0  0
  -27.9650  -18.6570   17.0170 C   0  0  0  0  0  2  0  0  0  0  0  0
  -28.5450  -18.2740   18.1700 C   0  0  0  0  0  3  0  0  0  0  0  0
  -30.3970  -17.2700   20.3890 C   0  0  0  0  0  3  0  0  0  0  0  0
  -29.8490  -16.0050   20.4910 C   0  0  0  0  0  3  0  0  0  0  0  0
  -30.6680  -14.7490   20.3700 C   0  0  0  0  0  0  0  0  0  0  0  0
  -30.4380  -12.4810   19.3820 C   0  0  0  0  0  2  0  0  0  0  0  0
  -29.5260  -12.5930   18.1410 C   0  0  0  0  0  2  0  0  0  0  0  0
  -28.0460  -12.4320   18.5450 C   0  0  0  0  0  2  0  0  0  0  0  0
  -27.6610  -13.3160   19.7620 C   0  0  0  0  0  3  0  0  0  0  0  0
  -28.7030  -13.2180   20.8970 C   0  0  0  0  0  2  0  0  0  0  0  0
  -30.0190  -13.5370   20.3300 N   0  0  0  0  0  0  0  0  0  0  0  0
  -31.8680  -14.7960   20.0840 O   0  0  0  0  0  0  0  0  0  0  0  0
  -25.2620  -13.9110   20.4510 C   0  0  0  0  0  0  0  0  0  0  0  0
  -24.1920  -13.1390   20.8160 C   0  0  0  0  0  0  0  0  0  0  0  0
  -24.6590  -11.7880   20.8090 C   0  0  0  0  0  0  0  0  0  0  0  0
  -26.3110  -13.0310   20.2370 N   0  0  0  0  0  0  0  0  0  0  0  0
  -25.9540  -11.7500   20.5180 N   0  0  0  0  0  0  0  0  0  0  0  0
  -23.9340  -10.5260   21.0060 C   0  0  0  0  0  0  0  0  0  0  0  0
  -24.3590   -9.5680   21.9520 C   0  0  0  0  0  3  0  0  0  0  0  0
  -23.6340   -8.3720   22.1350 C   0  0  0  0  0  3  0  0  0  0  0  0
  -22.4670   -8.1250   21.3720 C   0  0  0  0  0  0  0  0  0  0  0  0
  -22.0610   -9.0720   20.4150 C   0  0  0  0  0  3  0  0  0  0  0  0
  -22.7880  -10.2600   20.2300 C   0  0  0  0  0  3  0  0  0  0  0  0
  -21.7140   -6.9800   21.4630 O   0  0  0  0  0  0  0  0  0  0  0  0
  -21.6620   -6.2430   22.6190 C   0  0  0  0  0  0  0  0  0  0  0  0
  -21.2280   -6.8030   23.8400 C   0  0  0  0  0  3  0  0  0  0  0  0
  -21.1220   -5.9920   24.9890 C   0  0  0  0  0  3  0  0  0  0  0  0
  -21.4400   -4.6240   24.9160 C   0  0  0  0  0  0  0  0  0  0  0  0
  -21.8680   -4.0630   23.7000 C   0  0  0  0  0  3  0  0  0  0  0  0
  -21.9740   -4.8710   22.5530 C   0  0  0  0  0  0  0  0  0  0  0  0
  -22.3660   -4.3210   21.3790 F   0  0  0  0  0  0  0  0  0  0  0  0
  -21.3330   -3.8430   26.0170 F   0  0  0  0  0  0  0  0  0  0  0  0
  -22.7900  -13.6160   21.0600 C   0  0  0  0  0  0  0  0  0  0  0  0
  -22.0490  -12.9280   21.9220 N   0  0  0  0  0  0  0  0  0  0  0  0
  -22.3590  -14.6340   20.5220 O   0  0  0  0  0  0  0  0  0  0  0  0
  -22.4090  -12.1040   22.3810 H   0  0  0  0  0  0  0  0  0  0  0  0
  -21.1070  -13.2320   22.1260 H   0  0  0  0  0  0  0  0  0  0  0  0
  -25.4230  -15.2790   20.2590 N   0  0  0  0  0  0  0  0  0  0  0  0
  -24.6510  -15.9300   20.3510 H   0  0  0  0  0  0  0  0  0  0  0  0
  -26.2750  -15.7200   19.9350 H   0  0  0  0  0  0  0  0  0  0  0  0
  -28.8540  -23.9310   20.2050 C   0  0  0  0  0  3  0  0  0  0  0  0
  -28.7580  -22.8070   19.5550 N   0  0  0  0  0  0  0  0  0  0  0  0
  -28.6270  -25.3320   19.5020 C   0  0  0  0  0  2  0  0  0  0  0  0
  -28.4420  -26.5670   20.3030 O   0  0  0  0  0  0  0  0  0  0  0  0
  -24.6220  -31.9320   23.2380 C   0  0  0  0  0  0  0  0  0  0  0  0
  -27.2910  -27.3710   20.2190 C   0  0  0  0  0  0  0  0  0  0  0  0
  -23.4370  -30.5110   21.6020 C   0  0  0  0  0  3  0  0  0  0  0  0
  -24.9050  -28.9620   20.1960 C   0  0  0  0  0  0  0  0  0  0  0  0
  -25.9740  -30.8490   21.4270 C   0  0  0  0  0  2  0  0  0  0  0  0
  -26.0660  -29.4660   20.7920 C   0  0  0  0  0  0  0  0  0  0  0  0
  -27.2570  -28.6800   20.7980 C   0  0  0  0  0  3  0  0  0  0  0  0
  -26.0930  -26.9110   19.6200 C   0  0  0  0  0  3  0  0  0  0  0  0
  -24.9210  -27.6890   19.6050 C   0  0  0  0  0  3  0  0  0  0  0  0
  -23.6620  -29.8260   20.2290 C   0  0  0  0  0  2  0  0  0  0  0  0
  -24.6960  -31.1150   22.1460 N   0  0  0  0  0  0  0  0  0  0  0  0
  -23.5330  -32.2060   23.7650 O   0  0  0  0  0  0  0  0  0  0  0  0
  -22.7760  -29.4970   22.5670 C   0  0  0  0  0  0  0  0  0  0  0  0
  -21.4500  -29.3170   22.4420 N   0  0  0  0  0  0  0  0  0  0  0  0
  -23.4570  -28.8760   23.3880 O   0  0  0  0  0  0  0  0  0  0  0  0
  -20.9620  -29.8710   21.7520 H   0  0  0  0  0  0  0  0  0  0  0  0
  -18.0720  -28.1360   22.9570 C   0  0  0  0  0  0  0  0  0  0  0  0
  -20.6320  -28.3830   23.2160 C   0  0  0  0  0  3  0  0  0  0  0  0
  -20.7250  -26.9520   22.6400 C   0  0  0  0  0  2  0  0  0  0  0  0
  -19.6180  -26.6340   21.6300 C   0  0  0  0  0  2  0  0  0  0  0  0
  -18.2390  -26.7850   22.2800 C   0  0  0  0  0  2  0  0  0  0  0  0
  -19.1960  -28.8920   23.3820 C   0  0  0  0  0  0  0  0  0  0  0  0
  -18.9850  -30.1560   23.9740 C   0  0  0  0  0  3  0  0  0  0  0  0
  -17.6830  -30.6630   24.1470 C   0  0  0  0  0  3  0  0  0  0  0  0
  -16.5730  -29.9030   23.7390 C   0  0  0  0  0  3  0  0  0  0  0  0
  -16.7690  -28.6410   23.1490 C   0  0  0  0  0  3  0  0  0  0  0  0
  -25.8960  -32.5770   23.8620 C   0  0  0  0  0  3  0  0  0  0  0  0
  -26.4080  -31.8240   25.1520 C   0  0  1  0  0  0  0  0  0  0  0  0
  -25.3080  -31.5890   26.2140 C   0  0  0  0  0  1  0  0  0  0  0  0
  -27.0020  -30.4450   24.7790 C   0  0  0  0  0  1  0  0  0  0  0  0
  -27.5490  -32.6310   25.8130 C   0  0  0  0  0  1  0  0  0  0  0  0
  -25.5770  -33.9770   24.1760 N   0  0  0  0  0  0  0  0  0  0  0  0
  -25.9120  -35.0250   23.4100 C   0  0  0  0  0  0  0  0  0  0  0  0
  -26.5920  -34.9150   22.3860 O   0  0  0  0  0  0  0  0  0  0  0  0
  -24.9720  -34.1370   24.9680 H   0  0  0  0  0  0  0  0  0  0  0  0
  -24.1820  -36.8090   23.0200 C   0  0  0  0  0  1  0  0  0  0  0  0
  -25.4140  -36.4160   23.8500 C   0  0  0  0  0  3  0  0  0  0  0  0
  -27.5350  -37.3160   24.7010 C   0  0  0  0  0  1  0  0  0  0  0  0
  -26.4440  -37.4710   23.7410 N   0  0  0  0  0  0  0  0  0  0  0  0
  -26.0330  -38.3910   23.8750 H   0  0  0  0  0  0  0  0  0  0  0  0
  2  1  2  0
  3  9  1  0
  3  1  1  0
  4  3  2  0
  5  2  1  0
  6  4  1  0
  6  5  2  0
  7  8  2  0
  8  4  1  0
  9 10  2  0
 11 10  1  0
 12 17  1  0
 13 14  1  0
 13 12  1  0
 15 14  1  0
 15 22  1  0
 15 16  1  0
 17 11  1  0
 17 16  1  0
 18 11  2  0
 19 20  2  0
 20 39  1  0
 21 20  1  0
 21 24  1  0
 22 19  1  0
 22 23  1  0
 23 21  2  0
 24 25  1  0
 25 26  2  0
 27 30  1  0
 27 26  1  0
 28 27  2  0
 29 28  1  0
 29 24  2  0
 30 31  1  0
 31 32  1  0
 32 33  2  0
 34 33  1  0
 34 38  1  0
 35 34  2  0
 36 31  2  0
 36 35  1  0
 37 36  1  0
 39 40  1  0
 40 43  1  0
 40 42  1  0
 41 39  2  0
 44 45  1  0
 44 19  1  0
 46 44  1  0
 48  5  1  0
 48 47  2  0
 49 47  1  0
 49 50  1  0
 51 62  2  0
 52 50  1  0
 52 57  1  0
 53 61  1  0
 53 63  1  0
 54 60  1  0
 54 56  1  0
 55 61  1  0
 56 57  2  0
 56 55  1  0
 58 52  2  0
 59 58  1  0
 59 54  2  0
 60 53  1  0
 61 51  1  0
 63 65  2  0
 64 63  1  0
 66 64  1  0
 67 76  2  0
 67 72  1  0
 68 64  1  0
 68 72  1  0
 69 68  1  0
 70 71  1  0
 70 69  1  0
 71 67  1  0
 72 73  2  0
 73 74  1  0
 75 74  2  0
 76 75  1  0
 77 51  1  0
 77 82  1  0
 77 78  1  0
 78 81  1  1
 78 79  1  0
 80 78  1  0
 82 85  1  0
 83 87  1  0
 83 82  1  0
 84 83  2  0
 87 86  1  0
 89 87  1  0
 89 90  1  0
 89 88  1  0
M  ISO  4  10 100  11 100  49 101  50 101
M  END
>  <TORSDO>  (48) 
F 20

>  <SCORE>  (48) 
-14.042

>  <name>  (48) 
47

>  <ligand_id>  (48) 
47

>  <original_smiles>  (48) 
[H]C(=Nc1nc(C([H])=C([H])[H])c(C([H])=C([H])C(=O)N2C([H])([H])C([H])([H])C([H])([H])C([H])(n3nc(-c4c([H])c([H])c(Oc5c([H])c([H])c(F)c([H])c5F)c([H])c4[H])c(C(=O)N([H])[H])c3N([H])[H])C2([H])[H])c([H])c1[H])C([H])([H])Oc1c([H])c([H])c2c(c1[H])C([H])([H])N(C(=O)C([H])(N([H])C(=O)C([H])(N([H])C([H])([H])[H])C([H])([H])[H])C(C([H])([H])[H])(C([H])([H])[H])C([H])([H])[H])C([H])(C(=O)N([H])C1([H])c3c([H])c([H])c([H])c([H])c3C([H])([H])C([H])([H])C1([H])[H])C2([H])[H]

>  <smiles>  (48) 
[H]C(=Nc1nc(C([H])=C([H])[H])c(C([H])=C([H])C(=O)N2C([H])([H])C([H])([H])C([H])([H])C([H])(n3nc(-c4c([H])c([H])c(Oc5c([H])c([H])c(F)c([H])c5F)c([H])c4[H])c(C(=O)N([H])[H])c3N([H])[H])C2([H])[H])c([H])c1[H])C([H])([H])Oc1c([H])c([H])c2c(c1[H])C([H])([H])N(C(=O)C([H])(N([H])C(=O)C([H])(N([H])C([H])([H])[H])C([H])([H])[H])C(C([H])([H])[H])(C([H])([H])[H])C([H])([H])[H])C([H])(C(=O)N([H])C1([H])c3c([H])c([H])c([H])c([H])c3C([H])([H])C([H])([H])C1([H])[H])C2([H])[H]

$$$$
48:0:0
     RDKit          3D

 91 99  0  0  1  0  0  0  0  0999 V2000
  -35.6660  -21.7980   20.8140 C   0  0  0  0  0  3  0  0  0  0  0  0
  -34.3710  -22.2860   18.8090 C   0  0  0  0  0  3  0  0  0  0  0  0
  -34.6350  -21.4470   19.9160 C   0  0  0  0  0  0  0  0  0  0  0  0
  -36.4020  -22.9890   20.6540 C   0  0  0  0  0  0  0  0  0  0  0  0
  -35.1200  -23.4600   18.6110 C   0  0  0  0  0  0  0  0  0  0  0  0
  -36.1120  -23.7910   19.5410 N   0  0  0  0  0  0  0  0  0  0  0  0
  -33.4540  -19.7010   21.3250 C   0  0  0  0  0  2  0  0  0  0  0  0
  -33.8610  -20.2070   20.1430 C   0  0  0  0  0  3  0  0  0  0  0  0
  -37.4600  -23.3430   21.7460 C   0  0  0  0  0  3  0  0  0  0  0  0
  -37.3380  -23.9760   22.9870 C   0  0  0  0  0  3  0  0  0  0  0  0
  -38.4820  -24.3880   23.9040 C   0  0  0  0  0  0  0  0  0  0  0  0
  -39.7990  -26.3070   24.8530 C   0  0  0  0  0  2  0  0  0  0  0  0
  -38.8210  -27.3710   25.4070 C   0  0  0  0  0  2  0  0  0  0  0  0
  -38.4040  -28.3520   24.2980 C   0  0  0  0  0  2  0  0  0  0  0  0
  -37.9580  -27.6100   23.0090 C   0  0  0  0  0  3  0  0  0  0  0  0
  -38.9840  -26.5300   22.5990 C   0  0  0  0  0  2  0  0  0  0  0  0
  -39.1230  -25.6020   23.7290 N   0  0  0  0  0  0  0  0  0  0  0  0
  -38.8160  -23.6940   24.8730 O   0  0  0  0  0  0  0  0  0  0  0  0
  -36.4530  -28.8790   21.3670 C   0  0  0  0  0  0  0  0  0  0  0  0
  -36.7210  -29.8480   20.4380 C   0  0  0  0  0  0  0  0  0  0  0  0
  -38.1350  -30.0430   20.4710 C   0  0  0  0  0  0  0  0  0  0  0  0
  -37.6760  -28.5350   21.9180 N   0  0  0  0  0  0  0  0  0  0  0  0
  -38.7000  -29.2020   21.3280 N   0  0  0  0  0  0  0  0  0  0  0  0
  -38.9800  -31.0240   19.7810 C   0  0  0  0  0  0  0  0  0  0  0  0
  -39.2550  -30.9200   18.3990 C   0  0  0  0  0  3  0  0  0  0  0  0
  -40.0540  -31.8880   17.7530 C   0  0  0  0  0  3  0  0  0  0  0  0
  -40.5820  -32.9760   18.4860 C   0  0  0  0  0  0  0  0  0  0  0  0
  -40.3260  -33.0630   19.8660 C   0  0  0  0  0  3  0  0  0  0  0  0
  -39.5360  -32.0960   20.5100 C   0  0  0  0  0  3  0  0  0  0  0  0
  -41.3830  -33.9540   17.9470 O   0  0  0  0  0  0  0  0  0  0  0  0
  -40.8560  -35.0740   17.3550 C   0  0  0  0  0  0  0  0  0  0  0  0
  -40.5740  -36.2450   18.0930 C   0  0  0  0  0  3  0  0  0  0  0  0
  -40.0990  -37.3950   17.4310 C   0  0  0  0  0  3  0  0  0  0  0  0
  -39.9110  -37.3810   16.0380 C   0  0  0  0  0  0  0  0  0  0  0  0
  -40.1970  -36.2180   15.3000 C   0  0  0  0  0  3  0  0  0  0  0  0
  -40.6670  -35.0680   15.9560 C   0  0  0  0  0  0  0  0  0  0  0  0
  -40.9630  -33.9580   15.2400 F   0  0  0  0  0  0  0  0  0  0  0  0
  -39.4620  -38.4890   15.4010 F   0  0  0  0  0  0  0  0  0  0  0  0
  -35.7140  -30.6100   19.6290 C   0  0  0  0  0  0  0  0  0  0  0  0
  -35.0860  -29.9530   18.6600 N   0  0  0  0  0  0  0  0  0  0  0  0
  -35.4440  -31.7840   19.8860 O   0  0  0  0  0  0  0  0  0  0  0  0
  -35.2930  -28.9850   18.4630 H   0  0  0  0  0  0  0  0  0  0  0  0
  -34.3890  -30.4250   18.1010 H   0  0  0  0  0  0  0  0  0  0  0  0
  -35.2790  -28.2780   21.8120 N   0  0  0  0  0  0  0  0  0  0  0  0
  -34.3630  -28.5160   21.4490 H   0  0  0  0  0  0  0  0  0  0  0  0
  -35.2490  -27.5530   22.5160 H   0  0  0  0  0  0  0  0  0  0  0  0
  -34.8610  -24.3240   17.4910 O   0  0  0  0  0  0  0  0  0  0  0  0
  -34.2770  -25.7150   17.6230 C   0  0  0  0  0  2  0  0  0  0  0  0
  -32.1050  -26.4570   18.9080 C   0  0  0  0  0  1  0  0  0  0  0  0
  -32.6540  -25.9470   17.5650 C   0  0  0  0  0  3  0  0  0  0  0  0
  -31.8610  -26.4400   16.3580 O   0  0  0  0  0  0  0  0  0  0  0  0
  -28.3200  -26.0490   10.0380 C   0  0  0  0  0  0  0  0  0  0  0  0
  -31.8330  -25.9230   15.0320 C   0  0  0  0  0  0  0  0  0  0  0  0
  -30.0630  -24.3500   10.4240 C   0  0  0  0  0  3  0  0  0  0  0  0
  -31.6580  -24.8070   12.3730 C   0  0  0  0  0  0  0  0  0  0  0  0
  -30.2630  -26.6760   11.5020 C   0  0  0  0  0  2  0  0  0  0  0  0
  -31.0470  -26.0360   12.6490 C   0  0  0  0  0  0  0  0  0  0  0  0
  -31.1540  -26.6050   13.9600 C   0  0  0  0  0  3  0  0  0  0  0  0
  -32.4230  -24.6880   14.6900 C   0  0  0  0  0  3  0  0  0  0  0  0
  -32.3590  -24.1430   13.3900 C   0  0  0  0  0  3  0  0  0  0  0  0
  -31.5040  -24.2250   10.9770 C   0  0  0  0  0  2  0  0  0  0  0  0
  -29.4930  -25.7160   10.6530 N   0  0  0  0  0  0  0  0  0  0  0  0
  -27.7380  -25.2520    9.2850 O   0  0  0  0  0  0  0  0  0  0  0  0
  -29.1970  -23.2170   11.0230 C   0  0  0  0  0  0  0  0  0  0  0  0
  -29.0600  -22.1040   10.2800 N   0  0  0  0  0  0  0  0  0  0  0  0
  -28.6860  -23.3370   12.1390 O   0  0  0  0  0  0  0  0  0  0  0  0
  -29.5100  -22.0800    9.3770 H   0  0  0  0  0  0  0  0  0  0  0  0
  -26.9800  -19.4260    9.0160 C   0  0  0  0  0  0  0  0  0  0  0  0
  -28.3220  -20.8990   10.6630 C   0  0  0  0  0  3  0  0  0  0  0  0
  -29.2760  -19.6910   10.8130 C   0  0  0  0  0  2  0  0  0  0  0  0
  -29.3920  -18.8550    9.5350 C   0  0  0  0  0  2  0  0  0  0  0  0
  -28.0220  -18.3200    9.1100 C   0  0  0  0  0  2  0  0  0  0  0  0
  -27.1310  -20.6430    9.7320 C   0  0  0  0  0  0  0  0  0  0  0  0
  -26.1530  -21.6510    9.5800 C   0  0  0  0  0  3  0  0  0  0  0  0
  -25.0390  -21.4560    8.7400 C   0  0  0  0  0  3  0  0  0  0  0  0
  -24.8840  -20.2420    8.0510 C   0  0  0  0  0  3  0  0  0  0  0  0
  -25.8530  -19.2300    8.1880 C   0  0  0  0  0  3  0  0  0  0  0  0
  -27.6650  -27.4510   10.2310 C   0  0  0  0  0  3  0  0  0  0  0  0
  -27.3740  -27.9950    8.8980 N   0  0  0  0  0  0  0  0  0  0  0  0
  -27.9600  -29.0780    8.3680 C   0  0  0  0  0  0  0  0  0  0  0  0
  -28.7630  -29.7750    8.9950 O   0  0  0  0  0  0  0  0  0  0  0  0
  -26.7510  -27.4520    8.3170 H   0  0  0  0  0  0  0  0  0  0  0  0
  -28.2700  -30.7700    6.5350 C   0  0  0  0  0  1  0  0  0  0  0  0
  -27.5880  -29.4490    6.9210 C   0  0  0  0  0  3  0  0  0  0  0  0
  -25.6250  -28.6020    5.7130 C   0  0  0  0  0  1  0  0  0  0  0  0
  -26.1310  -29.5590    6.6920 N   0  0  0  0  0  0  0  0  0  0  0  0
  -25.8930  -30.4940    6.3700 H   0  0  0  0  0  0  0  0  0  0  0  0
  -26.3530  -27.4030   11.1070 C   0  0  1  0  0  0  0  0  0  0  0  0
  -25.0850  -26.9960   10.3190 C   0  0  0  0  0  1  0  0  0  0  0  0
  -26.5080  -26.4090   12.2810 C   0  0  0  0  0  1  0  0  0  0  0  0
  -26.1020  -28.7950   11.7320 C   0  0  0  0  0  1  0  0  0  0  0  0
  2  3  2  0
  3  8  1  0
  3  1  1  0
  4  1  2  0
  4  9  1  0
  5  2  1  0
  5  6  2  0
  6  4  1  0
  8  7  2  0
  9 10  2  0
 10 11  1  0
 11 18  2  0
 12 13  1  0
 14 13  1  0
 15 22  1  0
 15 14  1  0
 16 15  1  0
 16 17  1  0
 17 11  1  0
 17 12  1  0
 19 44  1  0
 19 22  1  0
 20 21  1  0
 20 19  2  0
 21 23  2  0
 23 22  1  0
 24 21  1  0
 24 29  1  0
 25 24  2  0
 26 25  1  0
 26 27  2  0
 27 28  1  0
 28 29  2  0
 30 27  1  0
 31 30  1  0
 31 32  1  0
 33 32  2  0
 34 33  1  0
 35 36  1  0
 35 34  2  0
 36 31  2  0
 37 36  1  0
 38 34  1  0
 39 41  2  0
 39 20  1  0
 40 39  1  0
 42 40  1  0
 43 40  1  0
 44 46  1  0
 45 44  1  0
 47 48  1  0
 47  5  1  0
 50 48  1  0
 50 49  1  0
 51 50  1  0
 52 62  1  0
 53 51  1  0
 54 62  1  0
 54 61  1  0
 54 64  1  0
 55 57  2  0
 55 60  1  0
 56 57  1  0
 57 58  1  0
 58 53  2  0
 59 53  1  0
 60 59  2  0
 61 55  1  0
 62 56  1  0
 63 52  2  0
 64 66  2  0
 65 64  1  0
 67 65  1  0
 68 72  1  0
 68 73  1  0
 69 65  1  0
 69 70  1  0
 71 70  1  0
 72 71  1  0
 73 69  1  0
 74 73  2  0
 75 74  1  0
 76 77  1  0
 76 75  2  0
 77 68  2  0
 78 52  1  0
 78 88  1  0
 79 78  1  0
 80 79  1  0
 80 81  2  0
 82 79  1  0
 84 83  1  0
 84 80  1  0
 85 86  1  0
 86 84  1  0
 87 86  1  0
 88 91  1  1
 88 90  1  0
 89 88  1  0
M  ISO  4  10 100  11 100  50 101  51 101
M  END
>  <TORSDO>  (49) 
F 21

>  <SCORE>  (49) 
-4.179

>  <name>  (49) 
48

>  <ligand_id>  (49) 
48

>  <original_smiles>  (49) 
[H]C([H])=C([H])c1c([H])c(OC([H])([H])C([H])(Oc2c([H])c([H])c3c(c2[H])C([H])([H])N(C(=O)C([H])(N([H])C(=O)C([H])(N([H])C([H])([H])[H])C([H])([H])[H])C(C([H])([H])[H])(C([H])([H])[H])C([H])([H])[H])C([H])(C(=O)N([H])C2([H])c4c([H])c([H])c([H])c([H])c4C([H])([H])C([H])([H])C2([H])[H])C3([H])[H])C([H])([H])[H])nc(C([H])=C([H])C(=O)N2C([H])([H])C([H])([H])C([H])([H])C([H])(n3nc(-c4c([H])c([H])c(Oc5c([H])c([H])c(F)c([H])c5F)c([H])c4[H])c(C(=O)N([H])[H])c3N([H])[H])C2([H])[H])c1[H]

>  <smiles>  (49) 
[H]C([H])=C([H])c1c([H])c(OC([H])([H])C([H])(Oc2c([H])c([H])c3c(c2[H])C([H])([H])N(C(=O)C([H])(N([H])C(=O)C([H])(N([H])C([H])([H])[H])C([H])([H])[H])C(C([H])([H])[H])(C([H])([H])[H])C([H])([H])[H])C([H])(C(=O)N([H])C2([H])c4c([H])c([H])c([H])c([H])c4C([H])([H])C([H])([H])C2([H])[H])C3([H])[H])C([H])([H])[H])nc(C([H])=C([H])C(=O)N2C([H])([H])C([H])([H])C([H])([H])C([H])(n3nc(-c4c([H])c([H])c(Oc5c([H])c([H])c(F)c([H])c5F)c([H])c4[H])c(C(=O)N([H])[H])c3N([H])[H])C2([H])[H])c1[H]

$$$$
49:0:0
     RDKit          3D

 95103  0  0  1  0  0  0  0  0999 V2000
  -31.1890  -17.6930   21.5830 C   0  0  0  0  0  3  0  0  0  0  0  0
  -29.1880  -19.2830   20.3590 C   0  0  0  0  0  0  0  0  0  0  0  0
  -29.0640  -17.8620   20.4070 C   0  0  0  0  0  0  0  0  0  0  0  0
  -30.0720  -17.0490   21.0090 C   0  0  0  0  0  0  0  0  0  0  0  0
  -30.2790  -19.9130   21.0160 C   0  0  0  0  0  0  0  0  0  0  0  0
  -31.2830  -19.1040   21.5990 C   0  0  0  0  0  0  0  0  0  0  0  0
  -32.3460  -19.6900   22.2050 F   0  0  0  0  0  0  0  0  0  0  0  0
  -30.6270  -14.6290   20.5670 C   0  0  0  0  0  0  0  0  0  0  0  0
  -30.3580  -12.4860   19.3560 C   0  0  0  0  0  2  0  0  0  0  0  0
  -29.4230  -12.7010   18.1470 C   0  0  0  0  0  2  0  0  0  0  0  0
  -27.9460  -12.5320   18.5560 C   0  0  0  0  0  2  0  0  0  0  0  0
  -27.5890  -13.3370   19.8310 C   0  0  0  0  0  3  0  0  0  0  0  0
  -28.6360  -13.1130   20.9460 C   0  0  0  0  0  2  0  0  0  0  0  0
  -29.9660  -13.4460   20.4020 N   0  0  0  0  0  0  0  0  0  0  0  0
  -31.7630  -14.8230   20.1280 O   0  0  0  0  0  0  0  0  0  0  0  0
  -29.8980  -15.6220   21.1280 N   0  0  0  0  0  0  0  0  0  0  0  0
  -28.9740  -15.3200   21.3990 H   0  0  0  0  0  0  0  0  0  0  0  0
  -25.1680  -13.9380   20.4910 C   0  0  0  0  0  0  0  0  0  0  0  0
  -24.1040  -13.1630   20.8570 C   0  0  0  0  0  0  0  0  0  0  0  0
  -24.5800  -11.8180   20.8500 C   0  0  0  0  0  0  0  0  0  0  0  0
  -26.2290  -13.0660   20.2890 N   0  0  0  0  0  0  0  0  0  0  0  0
  -25.8750  -11.7850   20.5650 N   0  0  0  0  0  0  0  0  0  0  0  0
  -23.8620  -10.5540   21.0380 C   0  0  0  0  0  0  0  0  0  0  0  0
  -24.2930   -9.5970   21.9830 C   0  0  0  0  0  3  0  0  0  0  0  0
  -23.5740   -8.3960   22.1600 C   0  0  0  0  0  3  0  0  0  0  0  0
  -22.4130   -8.1440   21.3920 C   0  0  0  0  0  0  0  0  0  0  0  0
  -22.0010   -9.0910   20.4360 C   0  0  0  0  0  3  0  0  0  0  0  0
  -22.7200  -10.2840   20.2580 C   0  0  0  0  0  3  0  0  0  0  0  0
  -21.6670   -6.9940   21.4790 O   0  0  0  0  0  0  0  0  0  0  0  0
  -21.6190   -6.2550   22.6330 C   0  0  0  0  0  0  0  0  0  0  0  0
  -21.1900   -6.8130   23.8570 C   0  0  0  0  0  3  0  0  0  0  0  0
  -21.0860   -5.9990   25.0040 C   0  0  0  0  0  3  0  0  0  0  0  0
  -21.4030   -4.6300   24.9270 C   0  0  0  0  0  0  0  0  0  0  0  0
  -21.8260   -4.0710   23.7070 C   0  0  0  0  0  3  0  0  0  0  0  0
  -21.9310   -4.8820   22.5630 C   0  0  0  0  0  0  0  0  0  0  0  0
  -22.3190   -4.3360   21.3860 F   0  0  0  0  0  0  0  0  0  0  0  0
  -21.2960   -3.8460   26.0250 F   0  0  0  0  0  0  0  0  0  0  0  0
  -22.6980  -13.6350   21.0980 C   0  0  0  0  0  0  0  0  0  0  0  0
  -21.9590  -12.9450   21.9580 N   0  0  0  0  0  0  0  0  0  0  0  0
  -22.2640  -14.6520   20.5580 O   0  0  0  0  0  0  0  0  0  0  0  0
  -22.3200  -12.1230   22.4190 H   0  0  0  0  0  0  0  0  0  0  0  0
  -21.0160  -13.2470   22.1600 H   0  0  0  0  0  0  0  0  0  0  0  0
  -25.2970  -15.3050   20.2910 N   0  0  0  0  0  0  0  0  0  0  0  0
  -24.4980  -15.9260   20.3500 H   0  0  0  0  0  0  0  0  0  0  0  0
  -26.1010  -15.7340   19.8530 H   0  0  0  0  0  0  0  0  0  0  0  0
  -28.0360  -16.7830   18.3400 C   0  0  0  0  0  1  0  0  0  0  0  0
  -27.8390  -17.1960   19.8040 C   0  0  0  0  0  2  0  0  0  0  0  0
  -28.5480  -21.0900   18.7400 C   0  0  0  0  0  2  0  0  0  0  0  0
  -28.2220  -20.0900   19.5760 C   0  0  0  0  0  3  0  0  0  0  0  0
  -30.3770  -21.2960   21.1150 O   0  0  0  0  0  0  0  0  0  0  0  0
  -29.3710  -21.9050   21.9400 C   0  0  0  0  0  2  0  0  0  0  0  0
  -29.5110  -23.4410   22.1310 C   0  0  0  0  0  2  0  0  0  0  0  0
  -29.0070  -24.3680   20.9860 C   0  0  0  0  0  2  0  0  0  0  0  0
  -28.6930  -25.8130   21.4780 C   0  0  0  0  0  2  0  0  0  0  0  0
  -28.5090  -26.7560   20.4100 O   0  0  0  0  0  0  0  0  0  0  0  0
  -24.6030  -31.9900   23.3520 C   0  0  0  0  0  0  0  0  0  0  0  0
  -27.3400  -27.4880   20.4380 C   0  0  0  0  0  0  0  0  0  0  0  0
  -23.4410  -30.5460   21.7140 C   0  0  0  0  0  3  0  0  0  0  0  0
  -24.9360  -28.9780   20.3620 C   0  0  0  0  0  0  0  0  0  0  0  0
  -25.9690  -30.9100   21.5680 C   0  0  0  0  0  2  0  0  0  0  0  0
  -26.0770  -29.5210   20.9660 C   0  0  0  0  0  0  0  0  0  0  0  0
  -27.2840  -28.7830   21.0040 C   0  0  0  0  0  3  0  0  0  0  0  0
  -26.1850  -26.9550   19.8310 C   0  0  0  0  0  3  0  0  0  0  0  0
  -24.9840  -27.6910   19.7940 C   0  0  0  0  0  3  0  0  0  0  0  0
  -23.6860  -29.8320   20.3570 C   0  0  0  0  0  2  0  0  0  0  0  0
  -24.6880  -31.1660   22.2690 N   0  0  0  0  0  0  0  0  0  0  0  0
  -23.5080  -32.2700   23.8610 O   0  0  0  0  0  0  0  0  0  0  0  0
  -22.7700  -29.5470   22.6840 C   0  0  0  0  0  0  0  0  0  0  0  0
  -21.4510  -29.3510   22.5250 N   0  0  0  0  0  0  0  0  0  0  0  0
  -23.4350  -28.9480   23.5330 O   0  0  0  0  0  0  0  0  0  0  0  0
  -20.9760  -29.8870   21.8110 H   0  0  0  0  0  0  0  0  0  0  0  0
  -18.0760  -28.1310   22.9500 C   0  0  0  0  0  0  0  0  0  0  0  0
  -20.6200  -28.4260   23.2960 C   0  0  0  0  0  3  0  0  0  0  0  0
  -20.7570  -26.9810   22.7640 C   0  0  0  0  0  2  0  0  0  0  0  0
  -19.6920  -26.6170   21.7250 C   0  0  0  0  0  2  0  0  0  0  0  0
  -18.2880  -26.7660   22.3190 C   0  0  0  0  0  2  0  0  0  0  0  0
  -19.1720  -28.9180   23.3940 C   0  0  0  0  0  0  0  0  0  0  0  0
  -18.9210  -30.1950   23.9410 C   0  0  0  0  0  3  0  0  0  0  0  0
  -17.6060  -30.6860   24.0500 C   0  0  0  0  0  3  0  0  0  0  0  0
  -16.5250  -29.8980   23.6220 C   0  0  0  0  0  3  0  0  0  0  0  0
  -16.7600  -28.6230   23.0780 C   0  0  0  0  0  3  0  0  0  0  0  0
  -25.8720  -32.6390   23.9870 C   0  0  0  0  0  3  0  0  0  0  0  0
  -25.5550  -34.0450   24.2720 N   0  0  0  0  0  0  0  0  0  0  0  0
  -25.9030  -35.0770   23.4910 C   0  0  0  0  0  0  0  0  0  0  0  0
  -26.5960  -34.9470   22.4780 O   0  0  0  0  0  0  0  0  0  0  0  0
  -24.9420  -34.2200   25.0550 H   0  0  0  0  0  0  0  0  0  0  0  0
  -24.1750  -36.8510   23.0540 C   0  0  0  0  0  1  0  0  0  0  0  0
  -25.4030  -36.4750   23.8990 C   0  0  0  0  0  3  0  0  0  0  0  0
  -27.5220  -37.3910   24.7370 C   0  0  0  0  0  1  0  0  0  0  0  0
  -26.4340  -37.5280   23.7730 N   0  0  0  0  0  0  0  0  0  0  0  0
  -26.0230  -38.4500   23.8860 H   0  0  0  0  0  0  0  0  0  0  0  0
  -26.3610  -31.9020   25.2930 C   0  0  1  0  0  0  0  0  0  0  0  0
  -25.2450  -31.6890   26.3410 C   0  0  0  0  0  1  0  0  0  0  0  0
  -26.9570  -30.5180   24.9470 C   0  0  0  0  0  1  0  0  0  0  0  0
  -27.4950  -32.7170   25.9610 C   0  0  0  0  0  1  0  0  0  0  0  0
  1  6  1  0
  2  3  2  0
  2  5  1  0
  3  4  1  0
  4 16  1  0
  4  1  2  0
  5 50  1  0
  5  6  2  0
  6  7  1  0
  8 16  1  0
  9 14  1  0
 10 11  1  0
 10  9  1  0
 12 11  1  0
 12 21  1  0
 12 13  1  0
 14  8  1  0
 14 13  1  0
 15  8  2  0
 16 17  1  0
 18 19  2  0
 19 38  1  0
 20 19  1  0
 20 23  1  0
 21 18  1  0
 21 22  1  0
 22 20  2  0
 23 24  1  0
 24 25  2  0
 26 29  1  0
 26 25  1  0
 27 26  2  0
 28 27  1  0
 28 23  2  0
 29 30  1  0
 30 31  1  0
 31 32  2  0
 33 32  1  0
 33 37  1  0
 34 33  2  0
 35 30  2  0
 35 34  1  0
 36 35  1  0
 38 39  1  0
 39 42  1  0
 39 41  1  0
 40 38  2  0
 43 44  1  0
 43 18  1  0
 45 43  1  0
 46 47  1  0
 47  3  1  0
 48 49  2  0
 49  2  1  0
 50 51  1  0
 51 52  1  0
 53 54  1  0
 53 52  1  0
 55 57  1  0
 55 54  1  0
 56 67  2  0
 57 62  1  0
 58 66  1  0
 58 68  1  0
 59 61  1  0
 60 66  1  0
 61 62  2  0
 61 60  1  0
 63 57  2  0
 64 63  1  0
 64 59  2  0
 65 59  1  0
 65 58  1  0
 66 56  1  0
 68 70  2  0
 69 68  1  0
 71 69  1  0
 72 81  2  0
 72 77  1  0
 73 69  1  0
 73 77  1  0
 74 73  1  0
 75 76  1  0
 75 74  1  0
 76 72  1  0
 77 78  2  0
 78 79  1  0
 80 79  2  0
 81 80  1  0
 82 56  1  0
 82 83  1  0
 82 92  1  0
 83 86  1  0
 84 88  1  0
 84 83  1  0
 85 84  2  0
 88 87  1  0
 90 91  1  0
 90 88  1  0
 90 89  1  0
 92 95  1  1
 92 93  1  0
 94 92  1  0
M  ISO  4   8 100  16 100  54 101  55 101
M  END
>  <TORSDO>  (50) 
F 23

>  <SCORE>  (50) 
-13.362

>  <name>  (50) 
49

>  <ligand_id>  (50) 
49

>  <original_smiles>  (50) 
[H]C([H])=C([H])c1c(OC([H])([H])C([H])([H])C([H])([H])C([H])([H])Oc2c([H])c([H])c3c(c2[H])C([H])([H])N(C(=O)C([H])(N([H])C(=O)C([H])(N([H])C([H])([H])[H])C([H])([H])[H])C(C([H])([H])[H])(C([H])([H])[H])C([H])([H])[H])C([H])(C(=O)N([H])C2([H])c4c([H])c([H])c([H])c([H])c4C([H])([H])C([H])([H])C2([H])[H])C3([H])[H])c(F)c([H])c(N([H])C(=O)N2C([H])([H])C([H])([H])C([H])([H])C([H])(n3nc(-c4c([H])c([H])c(Oc5c([H])c([H])c(F)c([H])c5F)c([H])c4[H])c(C(=O)N([H])[H])c3N([H])[H])C2([H])[H])c1C([H])([H])C([H])([H])[H]

>  <smiles>  (50) 
[H]C([H])=C([H])c1c(OC([H])([H])C([H])([H])C([H])([H])C([H])([H])Oc2c([H])c([H])c3c(c2[H])C([H])([H])N(C(=O)C([H])(N([H])C(=O)C([H])(N([H])C([H])([H])[H])C([H])([H])[H])C(C([H])([H])[H])(C([H])([H])[H])C([H])([H])[H])C([H])(C(=O)N([H])C2([H])c4c([H])c([H])c([H])c([H])c4C([H])([H])C([H])([H])C2([H])[H])C3([H])[H])c(F)c([H])c(N([H])C(=O)N2C([H])([H])C([H])([H])C([H])([H])C([H])(n3nc(-c4c([H])c([H])c(Oc5c([H])c([H])c(F)c([H])c5F)c([H])c4[H])c(C(=O)N([H])[H])c3N([H])[H])C2([H])[H])c1C([H])([H])C([H])([H])[H]

$$$$
50:0:0
     RDKit          3D

 94102  0  0  1  0  0  0  0  0999 V2000
  -30.5900  -18.3970   20.2420 C   0  0  0  0  0  3  0  0  0  0  0  0
  -28.0690  -19.2940   19.5690 C   0  0  0  0  0  3  0  0  0  0  0  0
  -30.2980  -19.8330   20.1200 C   0  0  0  0  0  0  0  0  0  0  0  0
  -29.0200  -20.3500   19.6970 C   0  0  0  0  0  0  0  0  0  0  0  0
  -29.6100  -17.3470   20.0690 C   0  0  0  0  0  0  0  0  0  0  0  0
  -28.3080  -17.8890   19.8260 C   0  0  0  0  0  0  0  0  0  0  0  0
  -30.4750  -14.7300   19.6680 C   0  0  0  0  0  0  0  0  0  0  0  0
  -30.2350  -12.4060   18.6770 C   0  0  0  0  0  2  0  0  0  0  0  0
  -29.1440  -12.4400   17.5820 C   0  0  0  0  0  2  0  0  0  0  0  0
  -27.7400  -12.2330   18.1790 C   0  0  0  0  0  2  0  0  0  0  0  0
  -27.5060  -13.0940   19.4460 C   0  0  0  0  0  3  0  0  0  0  0  0
  -28.7010  -13.0410   20.4230 C   0  0  0  0  0  2  0  0  0  0  0  0
  -29.9010  -13.4570   19.6780 N   0  0  0  0  0  0  0  0  0  0  0  0
  -31.5870  -14.8600   19.1440 O   0  0  0  0  0  0  0  0  0  0  0  0
  -29.7060  -15.8170   20.1340 N   0  0  0  0  0  0  0  0  0  0  0  0
  -28.8720  -15.4600   20.5780 H   0  0  0  0  0  0  0  0  0  0  0  0
  -25.2460  -13.6500   20.5130 C   0  0  0  0  0  0  0  0  0  0  0  0
  -24.2410  -12.8720   21.0130 C   0  0  0  0  0  0  0  0  0  0  0  0
  -24.6780  -11.5210   20.8630 C   0  0  0  0  0  0  0  0  0  0  0  0
  -26.2410  -12.7780   20.1030 N   0  0  0  0  0  0  0  0  0  0  0  0
  -25.9140  -11.4860   20.3710 N   0  0  0  0  0  0  0  0  0  0  0  0
  -23.9620  -10.2590   21.1000 C   0  0  0  0  0  0  0  0  0  0  0  0
  -24.4590   -9.2830   21.9920 C   0  0  0  0  0  3  0  0  0  0  0  0
  -23.7410   -8.0880   22.2150 C   0  0  0  0  0  3  0  0  0  0  0  0
  -22.5110   -7.8630   21.5540 C   0  0  0  0  0  0  0  0  0  0  0  0
  -22.0340   -8.8290   20.6500 C   0  0  0  0  0  3  0  0  0  0  0  0
  -22.7510  -10.0140   20.4230 C   0  0  0  0  0  3  0  0  0  0  0  0
  -21.7590   -6.7220   21.6910 O   0  0  0  0  0  0  0  0  0  0  0  0
  -21.7250   -6.0220   22.8700 C   0  0  0  0  0  0  0  0  0  0  0  0
  -21.3220   -6.6230   24.0830 C   0  0  0  0  0  3  0  0  0  0  0  0
  -21.2380   -5.8500   25.2580 C   0  0  0  0  0  3  0  0  0  0  0  0
  -21.5420   -4.4770   25.2220 C   0  0  0  0  0  0  0  0  0  0  0  0
  -21.9370   -3.8740   24.0130 C   0  0  0  0  0  3  0  0  0  0  0  0
  -22.0270   -4.6460   22.8420 C   0  0  0  0  0  0  0  0  0  0  0  0
  -22.3900   -4.0570   21.6770 F   0  0  0  0  0  0  0  0  0  0  0  0
  -21.4510   -3.7310   26.3470 F   0  0  0  0  0  0  0  0  0  0  0  0
  -22.9050  -13.3550   21.5010 C   0  0  0  0  0  0  0  0  0  0  0  0
  -22.3030  -12.6450   22.4480 N   0  0  0  0  0  0  0  0  0  0  0  0
  -22.4130  -14.4020   21.0820 O   0  0  0  0  0  0  0  0  0  0  0  0
  -22.7200  -11.8050   22.8200 H   0  0  0  0  0  0  0  0  0  0  0  0
  -21.4120  -12.9510   22.8100 H   0  0  0  0  0  0  0  0  0  0  0  0
  -25.3790  -15.0200   20.3430 N   0  0  0  0  0  0  0  0  0  0  0  0
  -24.6050  -15.6440   20.5460 H   0  0  0  0  0  0  0  0  0  0  0  0
  -26.1520  -15.4770   19.8780 H   0  0  0  0  0  0  0  0  0  0  0  0
  -32.0620  -20.7520   21.6030 C   0  0  0  0  0  2  0  0  0  0  0  0
  -31.3110  -20.8320   20.4930 C   0  0  0  0  0  3  0  0  0  0  0  0
  -28.5250  -21.8330   19.3830 C   0  0  0  0  0  3  0  0  0  0  0  0
  -28.8330  -23.1860   19.6340 C   0  0  0  0  0  3  0  0  0  0  0  0
  -28.0390  -24.4830   19.0390 C   0  0  0  0  0  2  0  0  0  0  0  0
  -28.3680  -25.9720   19.2830 O   0  0  0  0  0  0  0  0  0  0  0  0
  -24.6520  -31.2710   22.7660 C   0  0  0  0  0  0  0  0  0  0  0  0
  -27.2870  -26.9230   19.3030 C   0  0  0  0  0  0  0  0  0  0  0  0
  -23.4480  -29.9590   21.0680 C   0  0  0  0  0  3  0  0  0  0  0  0
  -24.9020  -28.5730   19.4730 C   0  0  0  0  0  0  0  0  0  0  0  0
  -25.9820  -30.3460   20.8370 C   0  0  0  0  0  2  0  0  0  0  0  0
  -26.0860  -29.0150   20.0770 C   0  0  0  0  0  0  0  0  0  0  0  0
  -27.2790  -28.2070   19.9760 C   0  0  0  0  0  3  0  0  0  0  0  0
  -26.0700  -26.5860   18.6630 C   0  0  0  0  0  3  0  0  0  0  0  0
  -24.9060  -27.3750   18.7490 C   0  0  0  0  0  3  0  0  0  0  0  0
  -23.6410  -29.4080   19.6320 C   0  0  0  0  0  2  0  0  0  0  0  0
  -24.7170  -30.5390   21.6130 N   0  0  0  0  0  0  0  0  0  0  0  0
  -23.5740  -31.4710   23.3450 O   0  0  0  0  0  0  0  0  0  0  0  0
  -22.8480  -28.8460   21.9620 C   0  0  0  0  0  0  0  0  0  0  0  0
  -21.5140  -28.6790   21.9160 N   0  0  0  0  0  0  0  0  0  0  0  0
  -23.5790  -28.1410   22.6610 O   0  0  0  0  0  0  0  0  0  0  0  0
  -20.9760  -29.2960   21.3220 H   0  0  0  0  0  0  0  0  0  0  0  0
  -18.1700  -27.4740   22.6030 C   0  0  0  0  0  0  0  0  0  0  0  0
  -20.7490  -27.6670   22.6480 C   0  0  0  0  0  3  0  0  0  0  0  0
  -20.7590  -26.3140   21.8980 C   0  0  0  0  0  2  0  0  0  0  0  0
  -19.5570  -26.1340   20.9660 C   0  0  0  0  0  2  0  0  0  0  0  0
  -18.2480  -26.2150   21.7560 C   0  0  0  0  0  2  0  0  0  0  0  0
  -19.3440  -28.1640   23.0100 C   0  0  0  0  0  0  0  0  0  0  0  0
  -19.2130  -29.3470   23.7680 C   0  0  0  0  0  3  0  0  0  0  0  0
  -17.9420  -29.8400   24.1210 C   0  0  0  0  0  3  0  0  0  0  0  0
  -16.7860  -29.1440   23.7290 C   0  0  0  0  0  3  0  0  0  0  0  0
  -16.9010  -27.9620   22.9760 C   0  0  0  0  0  3  0  0  0  0  0  0
  -25.9250  -31.9080   23.4010 C   0  0  0  0  0  3  0  0  0  0  0  0
  -25.5600  -33.2500   23.8800 N   0  0  0  0  0  0  0  0  0  0  0  0
  -25.8380  -34.3910   23.2360 C   0  0  0  0  0  0  0  0  0  0  0  0
  -26.4950  -34.4250   22.1930 O   0  0  0  0  0  0  0  0  0  0  0  0
  -24.9630  -33.2930   24.6930 H   0  0  0  0  0  0  0  0  0  0  0  0
  -24.0320  -36.1370   23.0970 C   0  0  0  0  0  1  0  0  0  0  0  0
  -25.3030  -35.7030   23.8450 C   0  0  0  0  0  3  0  0  0  0  0  0
  -27.4180  -36.5840   24.7280 C   0  0  0  0  0  1  0  0  0  0  0  0
  -26.2890  -36.8070   23.8310 N   0  0  0  0  0  0  0  0  0  0  0  0
  -25.8480  -37.6860   24.0900 H   0  0  0  0  0  0  0  0  0  0  0  0
  -26.5240  -31.0440   24.5780 C   0  0  1  0  0  0  0  0  0  0  0  0
  -25.4870  -30.6600   25.6590 C   0  0  0  0  0  1  0  0  0  0  0  0
  -27.1430  -29.7360   24.0350 C   0  0  0  0  0  1  0  0  0  0  0  0
  -27.6720  -31.8210   25.2650 C   0  0  0  0  0  1  0  0  0  0  0  0
  -27.2790  -16.9670   19.8900 O   0  0  0  0  0  0  0  0  0  0  0  0
  -26.0100  -17.2690   19.3040 C   0  0  0  0  0  2  0  0  0  0  0  0
  -23.8490  -18.5830   19.3340 C   0  0  0  0  0  1  0  0  0  0  0  0
  -25.1770  -18.3290   20.0550 C   0  0  0  0  0  2  0  0  0  0  0  0
  2  4  1  0
  2  6  2  0
  3  1  1  0
  3 46  1  0
  4  3  2  0
  5 15  1  0
  5  1  2  0
  6 91  1  0
  6  5  1  0
  7 13  1  0
  7 15  1  0
  8 13  1  0
  9 10  1  0
  9  8  1  0
 11 10  1  0
 11 20  1  0
 11 12  1  0
 13 12  1  0
 14  7  2  0
 15 16  1  0
 17 18  2  0
 18 37  1  0
 19 18  1  0
 19 22  1  0
 20 21  1  0
 20 17  1  0
 21 19  2  0
 22 23  1  0
 23 24  2  0
 25 28  1  0
 25 24  1  0
 26 25  2  0
 27 26  1  0
 27 22  2  0
 28 29  1  0
 29 30  1  0
 30 31  2  0
 32 31  1  0
 32 36  1  0
 33 32  2  0
 34 29  2  0
 34 33  1  0
 35 34  1  0
 37 38  1  0
 38 41  1  0
 38 40  1  0
 39 37  2  0
 42 17  1  0
 42 43  1  0
 44 42  1  0
 46 45  2  0
 47 48  2  0
 47  4  1  0
 49 50  1  0
 49 48  1  0
 50 52  1  0
 51 62  2  0
 52 57  1  0
 53 61  1  0
 53 63  1  0
 54 60  1  0
 54 56  1  0
 55 61  1  0
 56 55  1  0
 57 56  2  0
 58 59  1  0
 58 52  2  0
 59 54  2  0
 60 53  1  0
 61 51  1  0
 63 65  2  0
 64 63  1  0
 66 64  1  0
 67 76  2  0
 67 72  1  0
 68 64  1  0
 68 72  1  0
 69 68  1  0
 70 71  1  0
 70 69  1  0
 71 67  1  0
 72 73  2  0
 73 74  1  0
 75 74  2  0
 76 75  1  0
 77 51  1  0
 77 78  1  0
 77 87  1  0
 78 81  1  0
 79 83  1  0
 79 78  1  0
 80 79  2  0
 83 82  1  0
 85 83  1  0
 85 86  1  0
 85 84  1  0
 87 90  1  1
 87 88  1  0
 89 87  1  0
 92 91  1  0
 92 94  1  0
 93 94  1  0
M  ISO  4   7 100  15 100  49 101  50 101
M  END
>  <TORSDO>  (51) 
F 22

>  <SCORE>  (51) 
-8.701

>  <name>  (51) 
50

>  <ligand_id>  (51) 
50

>  <original_smiles>  (51) 
[H]C([H])=C([H])c1c([H])c(N([H])C(=O)N2C([H])([H])C([H])([H])C([H])([H])C([H])(n3nc(-c4c([H])c([H])c(Oc5c([H])c([H])c(F)c([H])c5F)c([H])c4[H])c(C(=O)N([H])[H])c3N([H])[H])C2([H])[H])c(OC([H])([H])C([H])([H])C([H])([H])[H])c([H])c1C([H])=C([H])C([H])([H])Oc1c([H])c([H])c2c(c1[H])C([H])([H])N(C(=O)C([H])(N([H])C(=O)C([H])(N([H])C([H])([H])[H])C([H])([H])[H])C(C([H])([H])[H])(C([H])([H])[H])C([H])([H])[H])C([H])(C(=O)N([H])C1([H])c3c([H])c([H])c([H])c([H])c3C([H])([H])C([H])([H])C1([H])[H])C2([H])[H]

>  <smiles>  (51) 
[H]C([H])=C([H])c1c([H])c(N([H])C(=O)N2C([H])([H])C([H])([H])C([H])([H])C([H])(n3nc(-c4c([H])c([H])c(Oc5c([H])c([H])c(F)c([H])c5F)c([H])c4[H])c(C(=O)N([H])[H])c3N([H])[H])C2([H])[H])c(OC([H])([H])C([H])([H])C([H])([H])[H])c([H])c1C([H])=C([H])C([H])([H])Oc1c([H])c([H])c2c(c1[H])C([H])([H])N(C(=O)C([H])(N([H])C(=O)C([H])(N([H])C([H])([H])[H])C([H])([H])[H])C(C([H])([H])[H])(C([H])([H])[H])C([H])([H])[H])C([H])(C(=O)N([H])C1([H])c3c([H])c([H])c([H])c([H])c3C([H])([H])C([H])([H])C1([H])[H])C2([H])[H]

$$$$
51:0:0
     RDKit          3D

 93101  0  0  1  0  0  0  0  0999 V2000
  -30.1130  -19.5310   22.0480 C   0  0  0  0  0  3  0  0  0  0  0  0
  -30.1900  -19.1840   19.3300 C   0  0  0  0  0  3  0  0  0  0  0  0
  -30.4520  -18.2300   21.5590 C   0  0  0  0  0  0  0  0  0  0  0  0
  -29.6940  -20.6030   21.2220 C   0  0  0  0  0  0  0  0  0  0  0  0
  -30.4760  -17.9990   20.1470 C   0  0  0  0  0  0  0  0  0  0  0  0
  -29.8140  -20.4920   19.8190 C   0  0  0  0  0  0  0  0  0  0  0  0
  -30.5860  -16.5870   19.4440 C   0  0  0  0  0  0  0  0  0  0  0  0
  -30.0650  -16.5250   18.3240 O   0  0  0  0  0  0  0  0  0  0  0  0
  -31.4190  -15.2100   19.8430 C   0  0  0  0  0  0  0  0  0  0  0  0
  -31.1340  -12.8480   19.0240 C   0  0  0  0  0  2  0  0  0  0  0  0
  -30.1680  -12.7910   17.8200 C   0  0  0  0  0  2  0  0  0  0  0  0
  -28.7160  -12.6410   18.3130 C   0  0  0  0  0  2  0  0  0  0  0  0
  -28.3600  -13.6310   19.4490 C   0  0  0  0  0  3  0  0  0  0  0  0
  -29.4550  -13.7140   20.5270 C   0  0  0  0  0  2  0  0  0  0  0  0
  -30.7370  -14.0010   19.8730 N   0  0  0  0  0  0  0  0  0  0  0  0
  -32.6300  -15.2200   19.6050 O   0  0  0  0  0  0  0  0  0  0  0  0
  -26.0550  -14.2520   20.3800 C   0  0  0  0  0  0  0  0  0  0  0  0
  -24.9850  -13.5080   20.7870 C   0  0  0  0  0  0  0  0  0  0  0  0
  -25.3840  -12.1420   20.6550 C   0  0  0  0  0  0  0  0  0  0  0  0
  -27.0450  -13.3530   20.0220 N   0  0  0  0  0  0  0  0  0  0  0  0
  -26.6490  -12.0740   20.2490 N   0  0  0  0  0  0  0  0  0  0  0  0
  -24.6150  -10.9030   20.8320 C   0  0  0  0  0  0  0  0  0  0  0  0
  -25.0050   -9.9060   21.7520 C   0  0  0  0  0  3  0  0  0  0  0  0
  -24.2330   -8.7340   21.9130 C   0  0  0  0  0  3  0  0  0  0  0  0
  -23.0550   -8.5470   21.1490 C   0  0  0  0  0  0  0  0  0  0  0  0
  -22.6780   -9.5350   20.2210 C   0  0  0  0  0  3  0  0  0  0  0  0
  -23.4520  -10.6980   20.0620 C   0  0  0  0  0  3  0  0  0  0  0  0
  -22.2620   -7.4270   21.2190 O   0  0  0  0  0  0  0  0  0  0  0  0
  -22.0300   -6.7850   22.4080 C   0  0  0  0  0  0  0  0  0  0  0  0
  -21.4450   -7.4470   23.5100 C   0  0  0  0  0  3  0  0  0  0  0  0
  -21.1610   -6.7330   24.6900 C   0  0  0  0  0  3  0  0  0  0  0  0
  -21.4470   -5.3570   24.7670 C   0  0  0  0  0  0  0  0  0  0  0  0
  -22.0220   -4.6930   23.6690 C   0  0  0  0  0  3  0  0  0  0  0  0
  -22.3090   -5.4060   22.4900 C   0  0  0  0  0  0  0  0  0  0  0  0
  -22.8470   -4.7580   21.4290 F   0  0  0  0  0  0  0  0  0  0  0  0
  -21.1640   -4.6680   25.8980 F   0  0  0  0  0  0  0  0  0  0  0  0
  -23.6360  -14.0320   21.1850 C   0  0  0  0  0  0  0  0  0  0  0  0
  -22.9530  -13.3460   22.0920 N   0  0  0  0  0  0  0  0  0  0  0  0
  -23.1960  -15.0880   20.7250 O   0  0  0  0  0  0  0  0  0  0  0  0
  -23.3230  -12.4990   22.4980 H   0  0  0  0  0  0  0  0  0  0  0  0
  -22.0420  -13.6740   22.3920 H   0  0  0  0  0  0  0  0  0  0  0  0
  -26.2610  -15.6220   20.2550 N   0  0  0  0  0  0  0  0  0  0  0  0
  -25.4940  -16.2760   20.3840 H   0  0  0  0  0  0  0  0  0  0  0  0
  -27.0820  -16.0350   19.8370 H   0  0  0  0  0  0  0  0  0  0  0  0
  -27.6590  -21.9510   21.5170 C   0  0  0  0  0  2  0  0  0  0  0  0
  -28.9360  -21.6920   21.8620 C   0  0  0  0  0  3  0  0  0  0  0  0
  -31.2610  -17.3070   23.7730 C   0  0  0  0  0  2  0  0  0  0  0  0
  -30.6530  -17.1630   22.5770 C   0  0  0  0  0  3  0  0  0  0  0  0
  -29.4150  -21.5360   18.9460 O   0  0  0  0  0  0  0  0  0  0  0  0
  -29.7290  -22.9810   19.1120 C   0  0  0  0  0  2  0  0  0  0  0  0
  -28.5960  -24.0650   19.5030 C   0  0  0  0  0  2  0  0  0  0  0  0
  -28.5770  -25.5250   18.8320 C   0  0  0  0  0  2  0  0  0  0  0  0
  -28.3360  -26.7650   19.6150 O   0  0  0  0  0  0  0  0  0  0  0  0
  -24.5140  -31.6890   23.2110 C   0  0  0  0  0  0  0  0  0  0  0  0
  -27.1540  -27.5350   19.6230 C   0  0  0  0  0  0  0  0  0  0  0  0
  -23.2890  -30.4410   21.4550 C   0  0  0  0  0  3  0  0  0  0  0  0
  -24.7390  -29.0850   19.8290 C   0  0  0  0  0  0  0  0  0  0  0  0
  -25.8170  -30.8410   21.2470 C   0  0  0  0  0  2  0  0  0  0  0  0
  -25.9110  -29.5390   20.4540 C   0  0  0  0  0  0  0  0  0  0  0  0
  -27.1080  -28.7720   20.3400 C   0  0  0  0  0  3  0  0  0  0  0  0
  -25.9530  -27.1210   18.9950 C   0  0  0  0  0  3  0  0  0  0  0  0
  -24.7720  -27.8870   19.0960 C   0  0  0  0  0  3  0  0  0  0  0  0
  -23.4810  -29.9230   20.0020 C   0  0  0  0  0  2  0  0  0  0  0  0
  -24.5560  -31.0080   22.0260 N   0  0  0  0  0  0  0  0  0  0  0  0
  -23.4430  -31.8900   23.8030 O   0  0  0  0  0  0  0  0  0  0  0  0
  -22.6840  -29.3140   22.3250 C   0  0  0  0  0  0  0  0  0  0  0  0
  -21.3600  -29.1100   22.2160 N   0  0  0  0  0  0  0  0  0  0  0  0
  -23.4000  -28.6340   23.0720 O   0  0  0  0  0  0  0  0  0  0  0  0
  -20.8390  -29.7130   21.5910 H   0  0  0  0  0  0  0  0  0  0  0  0
  -18.0250  -27.7650   22.6150 C   0  0  0  0  0  0  0  0  0  0  0  0
  -20.5710  -28.1080   22.9360 C   0  0  0  0  0  3  0  0  0  0  0  0
  -20.7040  -26.7080   22.3020 C   0  0  0  0  0  2  0  0  0  0  0  0
  -19.6820  -26.4990   21.1830 C   0  0  0  0  0  2  0  0  0  0  0  0
  -18.2740  -26.5010   21.7940 C   0  0  0  0  0  2  0  0  0  0  0  0
  -19.1090  -28.5420   23.1120 C   0  0  0  0  0  0  0  0  0  0  0  0
  -18.8330  -29.7310   23.8180 C   0  0  0  0  0  3  0  0  0  0  0  0
  -17.5050  -30.1430   24.0260 C   0  0  0  0  0  3  0  0  0  0  0  0
  -16.4360  -29.3680   23.5480 C   0  0  0  0  0  3  0  0  0  0  0  0
  -16.6980  -28.1800   22.8380 C   0  0  0  0  0  3  0  0  0  0  0  0
  -25.8070  -32.2660   23.8650 C   0  0  0  0  0  3  0  0  0  0  0  0
  -25.5440  -33.6730   24.2050 N   0  0  0  0  0  0  0  0  0  0  0  0
  -25.9490  -34.7160   23.4670 C   0  0  0  0  0  0  0  0  0  0  0  0
  -26.6480  -34.5900   22.4550 O   0  0  0  0  0  0  0  0  0  0  0  0
  -24.9270  -33.8520   24.9860 H   0  0  0  0  0  0  0  0  0  0  0  0
  -24.2990  -36.5760   23.0800 C   0  0  0  0  0  1  0  0  0  0  0  0
  -25.5020  -36.1190   23.9230 C   0  0  0  0  0  3  0  0  0  0  0  0
  -27.6410  -36.9230   24.8190 C   0  0  0  0  0  1  0  0  0  0  0  0
  -26.5780  -37.1330   23.8430 N   0  0  0  0  0  0  0  0  0  0  0  0
  -26.1970  -38.0670   23.9830 H   0  0  0  0  0  0  0  0  0  0  0  0
  -26.2770  -31.4650   25.1420 C   0  0  1  0  0  0  0  0  0  0  0  0
  -25.1550  -31.2860   26.1910 C   0  0  0  0  0  1  0  0  0  0  0  0
  -26.8060  -30.0640   24.7510 C   0  0  0  0  0  1  0  0  0  0  0  0
  -27.4590  -32.2020   25.8180 C   0  0  0  0  0  1  0  0  0  0  0  0
  2  6  2  0
  2  5  1  0
  3  1  1  0
  3 48  1  0
  4 46  1  0
  4  1  2  0
  5  3  2  0
  6  4  1  0
  7  9  1  0
  7  5  1  0
  8  7  2  0
  9 15  1  0
 10 15  1  0
 11 12  1  0
 11 10  1  0
 13 12  1  0
 13 20  1  0
 13 14  1  0
 15 14  1  0
 16  9  2  0
 17 18  2  0
 18 37  1  0
 19 18  1  0
 19 22  1  0
 20 21  1  0
 20 17  1  0
 21 19  2  0
 22 23  1  0
 23 24  2  0
 25 28  1  0
 25 24  1  0
 26 25  2  0
 27 26  1  0
 27 22  2  0
 28 29  1  0
 29 34  2  0
 29 30  1  0
 30 31  2  0
 31 32  1  0
 32 36  1  0
 33 32  2  0
 34 33  1  0
 35 34  1  0
 37 38  1  0
 38 41  1  0
 38 40  1  0
 39 37  2  0
 42 17  1  0
 42 43  1  0
 44 42  1  0
 45 46  2  0
 48 47  2  0
 49 50  1  0
 49  6  1  0
 50 51  1  0
 52 51  1  0
 52 53  1  0
 53 55  1  0
 54 65  2  0
 55 60  1  0
 56 64  1  0
 56 66  1  0
 57 63  1  0
 57 59  1  0
 58 64  1  0
 59 58  1  0
 60 59  2  0
 61 62  1  0
 61 55  2  0
 62 57  2  0
 63 56  1  0
 64 54  1  0
 66 68  2  0
 67 66  1  0
 69 67  1  0
 70 79  2  0
 70 75  1  0
 71 67  1  0
 71 75  1  0
 72 71  1  0
 73 74  1  0
 73 72  1  0
 74 70  1  0
 75 76  2  0
 76 77  1  0
 78 77  2  0
 79 78  1  0
 80 54  1  0
 80 81  1  0
 80 90  1  0
 81 84  1  0
 82 86  1  0
 82 81  1  0
 83 82  2  0
 86 85  1  0
 88 86  1  0
 88 89  1  0
 88 87  1  0
 90 93  1  1
 90 91  1  0
 92 90  1  0
M  ISO  4   7 100   9 100  52 101  53 101
M  END
>  <TORSDO>  (52) 
F 23

>  <SCORE>  (52) 
-10.105

>  <name>  (52) 
51

>  <ligand_id>  (52) 
51

>  <original_smiles>  (52) 
[H]C([H])=C([H])c1c([H])c(C([H])=C([H])[H])c(C(=O)C(=O)N2C([H])([H])C([H])([H])C([H])([H])C([H])(n3nc(-c4c([H])c([H])c(Oc5c([H])c([H])c(F)c([H])c5F)c([H])c4[H])c(C(=O)N([H])[H])c3N([H])[H])C2([H])[H])c([H])c1OC([H])([H])C([H])([H])C([H])([H])Oc1c([H])c([H])c2c(c1[H])C([H])([H])N(C(=O)C([H])(N([H])C(=O)C([H])(N([H])C([H])([H])[H])C([H])([H])[H])C(C([H])([H])[H])(C([H])([H])[H])C([H])([H])[H])C([H])(C(=O)N([H])C1([H])c3c([H])c([H])c([H])c([H])c3C([H])([H])C([H])([H])C1([H])[H])C2([H])[H]

>  <smiles>  (52) 
[H]C([H])=C([H])c1c([H])c(C([H])=C([H])[H])c(C(=O)C(=O)N2C([H])([H])C([H])([H])C([H])([H])C([H])(n3nc(-c4c([H])c([H])c(Oc5c([H])c([H])c(F)c([H])c5F)c([H])c4[H])c(C(=O)N([H])[H])c3N([H])[H])C2([H])[H])c([H])c1OC([H])([H])C([H])([H])C([H])([H])Oc1c([H])c([H])c2c(c1[H])C([H])([H])N(C(=O)C([H])(N([H])C(=O)C([H])(N([H])C([H])([H])[H])C([H])([H])[H])C(C([H])([H])[H])(C([H])([H])[H])C([H])([H])[H])C([H])(C(=O)N([H])C1([H])c3c([H])c([H])c([H])c([H])c3C([H])([H])C([H])([H])C1([H])[H])C2([H])[H]

$$$$
52:0:0
     RDKit          3D

 87 95  0  0  1  0  0  0  0  0999 V2000
  -28.5810  -22.0460   20.4890 C   0  0  0  0  0  3  0  0  0  0  0  0
  -28.8860  -23.4050   20.2210 C   0  0  0  0  0  3  0  0  0  0  0  0
  -30.6740  -18.7860   19.7100 C   0  0  0  0  0  0  0  0  0  0  0  0
  -29.7540  -17.9220   20.3130 C   0  0  0  0  0  0  0  0  0  0  0  0
  -29.2140  -20.6020   20.3100 C   0  0  0  0  0  0  0  0  0  0  0  0
  -31.9510  -18.3610   19.0520 C   0  0  0  0  0  1  0  0  0  0  0  0
  -30.3720  -20.2080   19.7270 N   0  0  0  0  0  0  0  0  0  0  0  0
  -28.4530  -19.0460   20.8980 S   0  0  0  0  0  0  0  0  0  0  0  0
  -29.6470  -16.3040   20.5980 C   0  0  0  0  0  2  0  0  0  0  0  0
  -30.4800  -14.9840   20.0340 C   0  0  0  0  0  0  0  0  0  0  0  0
  -30.3360  -12.6720   18.9830 C   0  0  0  0  0  2  0  0  0  0  0  0
  -29.3270  -12.6990   17.8080 C   0  0  0  0  0  2  0  0  0  0  0  0
  -27.8850  -12.4810   18.3070 C   0  0  0  0  0  2  0  0  0  0  0  0
  -27.5550  -13.3490   19.5470 C   0  0  0  0  0  3  0  0  0  0  0  0
  -28.6720  -13.2730   20.6110 C   0  0  0  0  0  2  0  0  0  0  0  0
  -29.9230  -13.7060   19.9710 N   0  0  0  0  0  0  0  0  0  0  0  0
  -31.6300  -15.1120   19.5980 O   0  0  0  0  0  0  0  0  0  0  0  0
  -25.2060  -13.9170   20.4000 C   0  0  0  0  0  0  0  0  0  0  0  0
  -24.1610  -13.1350   20.8100 C   0  0  0  0  0  0  0  0  0  0  0  0
  -24.6260  -11.7860   20.7440 C   0  0  0  0  0  0  0  0  0  0  0  0
  -26.2400  -13.0440   20.1030 N   0  0  0  0  0  0  0  0  0  0  0  0
  -25.9020  -11.7570   20.3740 N   0  0  0  0  0  0  0  0  0  0  0  0
  -23.9120  -10.5200   20.9560 C   0  0  0  0  0  0  0  0  0  0  0  0
  -24.3700   -9.5610   21.8850 C   0  0  0  0  0  3  0  0  0  0  0  0
  -23.6540   -8.3600   22.0840 C   0  0  0  0  0  3  0  0  0  0  0  0
  -22.4670   -8.1110   21.3550 C   0  0  0  0  0  0  0  0  0  0  0  0
  -22.0290   -9.0600   20.4140 C   0  0  0  0  0  3  0  0  0  0  0  0
  -22.7450  -10.2510   20.2120 C   0  0  0  0  0  3  0  0  0  0  0  0
  -21.7220   -6.9620   21.4640 O   0  0  0  0  0  0  0  0  0  0  0  0
  -21.6760   -6.2420   22.6310 C   0  0  0  0  0  0  0  0  0  0  0  0
  -21.2350   -6.8160   23.8430 C   0  0  0  0  0  3  0  0  0  0  0  0
  -21.1360   -6.0220   25.0030 C   0  0  0  0  0  3  0  0  0  0  0  0
  -21.4700   -4.6550   24.9520 C   0  0  0  0  0  0  0  0  0  0  0  0
  -21.9050   -4.0800   23.7450 C   0  0  0  0  0  3  0  0  0  0  0  0
  -22.0050   -4.8710   22.5870 C   0  0  0  0  0  0  0  0  0  0  0  0
  -22.4040   -4.3090   21.4210 F   0  0  0  0  0  0  0  0  0  0  0  0
  -21.3680   -3.8900   26.0640 F   0  0  0  0  0  0  0  0  0  0  0  0
  -22.7760  -13.6060   21.1470 C   0  0  0  0  0  0  0  0  0  0  0  0
  -22.0880  -12.9000   22.0380 N   0  0  0  0  0  0  0  0  0  0  0  0
  -22.3120  -14.6340   20.6570 O   0  0  0  0  0  0  0  0  0  0  0  0
  -22.4790  -12.0690   22.4570 H   0  0  0  0  0  0  0  0  0  0  0  0
  -21.1580  -13.1930   22.3020 H   0  0  0  0  0  0  0  0  0  0  0  0
  -25.3550  -15.2900   20.2300 N   0  0  0  0  0  0  0  0  0  0  0  0
  -24.5860  -15.9350   20.3820 H   0  0  0  0  0  0  0  0  0  0  0  0
  -26.1790  -15.7410   19.8550 H   0  0  0  0  0  0  0  0  0  0  0  0
  -27.9460  -24.7220   20.5220 C   0  0  0  0  0  2  0  0  0  0  0  0
  -28.2880  -26.2160   20.2540 O   0  0  0  0  0  0  0  0  0  0  0  0
  -24.6230  -31.8900   23.2360 C   0  0  0  0  0  0  0  0  0  0  0  0
  -27.2300  -27.1980   20.2130 C   0  0  0  0  0  0  0  0  0  0  0  0
  -23.4300  -30.4870   21.5980 C   0  0  0  0  0  3  0  0  0  0  0  0
  -24.8890  -28.9230   20.1770 C   0  0  0  0  0  0  0  0  0  0  0  0
  -25.9820  -30.7720   21.4310 C   0  0  0  0  0  2  0  0  0  0  0  0
  -26.0660  -29.3780   20.7850 C   0  0  0  0  0  0  0  0  0  0  0  0
  -27.2380  -28.5320   20.7870 C   0  0  0  0  0  3  0  0  0  0  0  0
  -26.0290  -26.8520   19.5530 C   0  0  0  0  0  3  0  0  0  0  0  0
  -24.8830  -27.6720   19.5440 C   0  0  0  0  0  3  0  0  0  0  0  0
  -23.6560  -29.8110   20.2210 C   0  0  0  0  0  2  0  0  0  0  0  0
  -24.6980  -31.0700   22.1440 N   0  0  0  0  0  0  0  0  0  0  0  0
  -23.5350  -32.1690   23.7620 O   0  0  0  0  0  0  0  0  0  0  0  0
  -22.7560  -29.4760   22.5580 C   0  0  0  0  0  0  0  0  0  0  0  0
  -21.4280  -29.3020   22.4330 N   0  0  0  0  0  0  0  0  0  0  0  0
  -23.4300  -28.8500   23.3810 O   0  0  0  0  0  0  0  0  0  0  0  0
  -20.9420  -29.8590   21.7440 H   0  0  0  0  0  0  0  0  0  0  0  0
  -18.0500  -28.0980   22.9370 C   0  0  0  0  0  0  0  0  0  0  0  0
  -20.6090  -28.3630   23.2020 C   0  0  0  0  0  3  0  0  0  0  0  0
  -20.7110  -26.9330   22.6240 C   0  0  0  0  0  2  0  0  0  0  0  0
  -19.6080  -26.6100   21.6110 C   0  0  0  0  0  2  0  0  0  0  0  0
  -18.2270  -26.7510   22.2570 C   0  0  0  0  0  2  0  0  0  0  0  0
  -19.1680  -28.8620   23.3650 C   0  0  0  0  0  0  0  0  0  0  0  0
  -18.9470  -30.1220   23.9620 C   0  0  0  0  0  3  0  0  0  0  0  0
  -17.6410  -30.6190   24.1350 C   0  0  0  0  0  3  0  0  0  0  0  0
  -16.5380  -29.8530   23.7210 C   0  0  0  0  0  3  0  0  0  0  0  0
  -16.7430  -28.5940   23.1280 C   0  0  0  0  0  3  0  0  0  0  0  0
  -25.8980  -32.5310   23.8640 C   0  0  0  0  0  3  0  0  0  0  0  0
  -26.4080  -31.7650   25.1460 C   0  0  1  0  0  0  0  0  0  0  0  0
  -25.3090  -31.5260   26.2090 C   0  0  0  0  0  1  0  0  0  0  0  0
  -26.9970  -30.3870   24.7640 C   0  0  0  0  0  1  0  0  0  0  0  0
  -27.5510  -32.5640   25.8120 C   0  0  0  0  0  1  0  0  0  0  0  0
  -25.5810  -33.9300   24.1940 N   0  0  0  0  0  0  0  0  0  0  0  0
  -25.9030  -34.9860   23.4340 C   0  0  0  0  0  0  0  0  0  0  0  0
  -26.5650  -34.8840   22.3980 O   0  0  0  0  0  0  0  0  0  0  0  0
  -24.9950  -34.0810   25.0010 H   0  0  0  0  0  0  0  0  0  0  0  0
  -24.1620  -36.7690   23.0970 C   0  0  0  0  0  1  0  0  0  0  0  0
  -25.4140  -36.3730   23.8940 C   0  0  0  0  0  3  0  0  0  0  0  0
  -27.5530  -37.2730   24.6990 C   0  0  0  0  0  1  0  0  0  0  0  0
  -26.4390  -37.4320   23.7680 N   0  0  0  0  0  0  0  0  0  0  0  0
  -26.0300  -38.3500   23.9200 H   0  0  0  0  0  0  0  0  0  0  0  0
  2  1  2  0
  2 46  1  0
  3  7  1  0
  3  4  2  0
  4  9  1  0
  4  8  1  0
  5  1  1  0
  5  8  1  0
  6  3  1  0
  7  5  2  0
 10  9  1  0
 11 16  1  0
 12 13  1  0
 12 11  1  0
 14 13  1  0
 14 21  1  0
 14 15  1  0
 16 10  1  0
 16 15  1  0
 17 10  2  0
 18 19  2  0
 19 38  1  0
 20 19  1  0
 20 23  1  0
 21 22  1  0
 21 18  1  0
 22 20  2  0
 23 24  1  0
 24 25  2  0
 26 29  1  0
 26 25  1  0
 27 26  2  0
 28 27  1  0
 28 23  2  0
 29 30  1  0
 30 31  1  0
 31 32  2  0
 33 32  1  0
 33 37  1  0
 34 33  2  0
 35 30  2  0
 35 34  1  0
 36 35  1  0
 38 39  1  0
 39 42  1  0
 39 41  1  0
 40 38  2  0
 43 44  1  0
 43 18  1  0
 45 43  1  0
 47 46  1  0
 48 59  2  0
 49 47  1  0
 49 54  1  0
 50 58  1  0
 50 60  1  0
 51 57  1  0
 51 53  1  0
 52 58  1  0
 53 54  2  0
 53 52  1  0
 55 49  2  0
 56 55  1  0
 56 51  2  0
 57 50  1  0
 58 48  1  0
 60 62  2  0
 61 60  1  0
 63 61  1  0
 64 73  2  0
 64 69  1  0
 65 61  1  0
 65 69  1  0
 66 65  1  0
 67 68  1  0
 67 66  1  0
 68 64  1  0
 69 70  2  0
 70 71  1  0
 72 71  2  0
 73 72  1  0
 74 48  1  0
 74 79  1  0
 74 75  1  0
 75 78  1  1
 75 76  1  0
 77 75  1  0
 79 82  1  0
 80 84  1  0
 80 79  1  0
 81 80  2  0
 84 83  1  0
 86 84  1  0
 86 87  1  0
 86 85  1  0
M  ISO  4   9 100  10 100  46 101  47 101
M  END
>  <TORSDO>  (53) 
F 19

>  <SCORE>  (53) 
-13.680

>  <name>  (53) 
52

>  <ligand_id>  (53) 
52

>  <original_smiles>  (53) 
[H]C(=C([H])C([H])([H])Oc1c([H])c([H])c2c(c1[H])C([H])([H])N(C(=O)C([H])(N([H])C(=O)C([H])(N([H])C([H])([H])[H])C([H])([H])[H])C(C([H])([H])[H])(C([H])([H])[H])C([H])([H])[H])C([H])(C(=O)N([H])C1([H])c3c([H])c([H])c([H])c([H])c3C([H])([H])C([H])([H])C1([H])[H])C2([H])[H])c1nc(C([H])([H])[H])c(C([H])([H])C(=O)N2C([H])([H])C([H])([H])C([H])([H])C([H])(n3nc(-c4c([H])c([H])c(Oc5c([H])c([H])c(F)c([H])c5F)c([H])c4[H])c(C(=O)N([H])[H])c3N([H])[H])C2([H])[H])s1

>  <smiles>  (53) 
[H]C(=C([H])C([H])([H])Oc1c([H])c([H])c2c(c1[H])C([H])([H])N(C(=O)C([H])(N([H])C(=O)C([H])(N([H])C([H])([H])[H])C([H])([H])[H])C(C([H])([H])[H])(C([H])([H])[H])C([H])([H])[H])C([H])(C(=O)N([H])C1([H])c3c([H])c([H])c([H])c([H])c3C([H])([H])C([H])([H])C1([H])[H])C2([H])[H])c1nc(C([H])([H])[H])c(C([H])([H])C(=O)N2C([H])([H])C([H])([H])C([H])([H])C([H])(n3nc(-c4c([H])c([H])c(Oc5c([H])c([H])c(F)c([H])c5F)c([H])c4[H])c(C(=O)N([H])[H])c3N([H])[H])C2([H])[H])s1

$$$$
53:0:0
     RDKit          3D

 96 96  0  0  1  0  0  0  0  0999 V2000
  -22.0710  -25.0950   18.7410 C   0  0  0  0  0  1  0  0  0  0  0  0
  -19.2210  -25.2700   20.2860 C   0  0  0  0  0 15  0  0  0  0  0  0
  -22.3980  -23.2870   19.3930 C   0  0  0  0  0  2  0  0  0  0  0  0
  -20.6110  -23.8200   19.9850 C   0  0  0  0  0  2  0  0  0  0  0  0
  -19.9800  -27.6150   19.4960 C   0  0  0  0  0  2  0  0  0  0  0  0
  -21.3330  -27.4640   18.9310 C   0  0  0  0  0  2  0  0  0  0  0  0
  -19.4380  -29.0930   19.0610 C   0  0  0  0  0  1  0  0  0  0  0  0
  -24.2670  -20.9380   19.2740 C   0  0  0  0  0 15  0  0  0  0  0  0
  -25.9390  -19.4550   19.2190 C   0  0  0  0  0 15  0  0  0  0  0  0
  -27.6550  -17.4360   19.1070 C   0  0  0  0  0  2  0  0  0  0  0  0
  -29.6340  -14.6560   18.4890 C   0  0  0  0  0  2  0  0  0  0  0  0
  -29.6490  -13.0590   17.8650 C   0  0  0  0  0  2  0  0  0  0  0  0
  -28.7570  -12.0660   18.5940 C   0  0  0  0  0  2  0  0  0  0  0  0
  -27.8250  -13.0850   19.2130 C   0  0  0  0  0  3  0  0  0  0  0  0
  -28.3400  -14.3560   20.0430 C   0  0  0  0  0  2  0  0  0  0  0  0
  -28.3110  -15.6820   19.1610 N   0  0  0  0  0  0  0  0  0  0  0  0
  -28.9890  -17.3340   18.7800 O   0  0  0  0  0  1  0  0  0  0  0  0
  -25.8440  -13.5560   20.4180 C   0  0  0  0  0  0  0  0  0  0  0  0
  -24.8900  -12.8050   20.9800 C   0  0  0  0  0  0  0  0  0  0  0  0
  -25.1790  -11.4490   20.6240 C   0  0  0  0  0  0  0  0  0  0  0  0
  -26.6690  -12.6460   19.8210 N   0  0  0  0  0  0  0  0  0  0  0  0
  -26.3250  -11.3520   19.9580 N   0  0  0  0  0  0  0  0  0  0  0  0
  -24.3690  -10.2610   20.8230 C   0  0  0  0  0  0  0  0  0  0  0  0
  -24.7150   -9.2690   21.7610 C   0  0  0  0  0  3  0  0  0  0  0  0
  -23.8690   -8.1580   21.9500 C   0  0  0  0  0  3  0  0  0  0  0  0
  -22.6750   -8.0430   21.1980 C   0  0  0  0  0  0  0  0  0  0  0  0
  -22.3560   -9.0250   20.2480 C   0  0  0  0  0  3  0  0  0  0  0  0
  -23.1990  -10.1260   20.0540 C   0  0  0  0  0  3  0  0  0  0  0  0
  -21.8020   -6.9920   21.2980 O   0  0  0  0  0  0  0  0  0  0  0  0
  -21.5630   -6.3740   22.4970 C   0  0  0  0  0  0  0  0  0  0  0  0
  -20.9560   -7.0500   23.5780 C   0  0  0  0  0  3  0  0  0  0  0  0
  -20.6680   -6.3520   24.7680 C   0  0  0  0  0  3  0  0  0  0  0  0
  -20.9760   -4.9830   24.8730 C   0  0  0  0  0  0  0  0  0  0  0  0
  -21.5810   -4.3100   23.7970 C   0  0  0  0  0  3  0  0  0  0  0  0
  -21.8700   -5.0040   22.6100 C   0  0  0  0  0  0  0  0  0  0  0  0
  -22.4320   -4.3490   21.5650 F   0  0  0  0  0  0  0  0  0  0  0  0
  -20.6920   -4.3100   26.0120 F   0  0  0  0  0  0  0  0  0  0  0  0
  -23.7290  -13.3820   21.7060 C   0  0  0  0  0  0  0  0  0  0  0  0
  -23.2030  -12.6530   22.6740 N   0  0  0  0  0  0  0  0  0  0  0  0
  -23.3410  -14.5250   21.4620 O   0  0  0  0  0  0  0  0  0  0  0  0
  -23.5520  -11.7290   22.8810 H   0  0  0  0  0  0  0  0  0  0  0  0
  -22.4340  -13.0200   23.2170 H   0  0  0  0  0  0  0  0  0  0  0  0
  -26.0650  -14.9340   20.3750 N   0  0  0  0  0  0  0  0  0  0  0  0
  -25.3700  -15.5910   20.7140 H   0  0  0  0  0  0  0  0  0  0  0  0
  -26.7990  -15.3540   19.8190 H   0  0  0  0  0  0  0  0  0  0  0  0
  -21.9720  -28.2970   21.7830 C   0  0  0  0  0  2  0  0  0  0  0  0
  -21.5080  -28.5210   20.3510 N   0  0  0  0  0  2  0  0  0  0  0  0
  -22.3150  -26.4120   23.9230 C   0  0  0  0  0  1  0  0  0  0  0  0
  -23.0450  -26.9570   22.6800 C   0  0  0  0  0  3  0  0  0  0  0  0
  -24.2560  -25.5120   22.1510 C   0  0  0  0  0  2  0  0  0  0  0  0
  -25.6430  -24.4910   22.2870 O   0  0  0  0  0  0  0  0  0  0  0  0
  -26.0710  -29.7640   23.6390 C   0  0  0  0  0  0  0  0  0  0  0  0
  -26.9990  -24.6960   22.0150 C   0  0  0  0  0  3  0  0  0  0  0  0
  -26.8850  -29.1120   21.3370 C   0  0  0  0  0  3  0  0  0  0  0  0
  -28.1730  -26.9260   21.0850 C   0  0  0  0  0  3  0  0  0  0  0  0
  -27.8720  -28.0060   23.3760 C   0  0  0  0  0  2  0  0  0  0  0  0
  -28.0020  -26.7640   22.4780 C   0  0  0  0  0  3  0  0  0  0  0  0
  -27.5930  -25.5220   22.9690 C   0  0  0  0  0  2  0  0  0  0  0  0
  -27.4860  -24.6340   20.6950 C   0  0  0  0  0  3  0  0  0  0  0  0
  -28.0510  -25.8220   20.2030 C   0  0  0  0  0  3  0  0  0  0  0  0
  -28.0640  -28.3860   20.6190 C   0  0  0  0  0  2  0  0  0  0  0  0
  -26.9970  -29.0980   22.8510 N   0  0  0  0  0  0  0  0  0  0  0  0
  -25.2720  -30.5780   23.1460 O   0  0  0  0  0  0  0  0  0  0  0  0
  -25.8270  -28.1180   21.0840 C   0  0  0  0  0  0  0  0  0  0  0  0
  -25.5620  -27.5340   19.9280 N   0  0  0  0  0  0  0  0  0  0  0  0
  -25.2370  -27.7490   22.0470 O   0  0  0  0  0  0  0  0  0  0  0  0
  -26.1270  -27.8950   19.1760 H   0  0  0  0  0  0  0  0  0  0  0  0
  -24.8660  -24.8160   16.0550 C   0  0  0  0  0  2  0  0  0  0  0  0
  -24.3630  -26.6530   19.3870 C   0  0  0  0  0  2  0  0  0  0  0  0
  -25.9030  -25.5170   19.5850 C   0  0  0  0  0  2  0  0  0  0  0  0
  -26.7160  -24.5260   18.2360 C   0  0  0  0  0  3  0  0  0  0  0  0
  -26.2000  -24.1930   16.6140 C   0  0  0  0  0  3  0  0  0  0  0  0
  -23.4090  -26.6020   17.3910 C   0  0  0  0  0  1  0  0  0  0  0  0
  -23.1800  -28.0080   16.0470 C   0  0  0  0  0  2  0  0  0  0  0  0
  -23.9290  -28.0750   14.4880 C   0  0  0  0  0  3  0  0  0  0  0  0
  -24.8060  -26.8970   13.7430 C   0  0  0  0  0  3  0  0  0  0  0  0
  -25.2260  -25.4100   14.3840 C   0  0  0  0  0  2  0  0  0  0  0  0
  -25.9820  -29.5250   25.1870 C   0  0  0  0  0  3  0  0  0  0  0  0
  -27.0520  -30.3290   25.7710 N   0  0  0  0  0  0  0  0  0  0  0  0
  -28.3230  -29.9180   25.8310 C   0  0  0  0  0  0  0  0  0  0  0  0
  -28.6820  -28.7940   25.4680 O   0  0  0  0  0  0  0  0  0  0  0  0
  -26.8280  -31.2790   26.0280 H   0  0  0  0  0  0  0  0  0  0  0  0
  -29.9020  -31.7660   25.2140 C   0  0  0  0  0  1  0  0  0  0  0  0
  -29.3580  -30.9150   26.3730 C   0  0  0  0  0  3  0  0  0  0  0  0
  -30.0430  -29.5030   28.2580 C   0  0  0  0  0  1  0  0  0  0  0  0
  -30.4740  -30.2620   27.0860 N   0  0  0  0  0  0  0  0  0  0  0  0
  -31.1600  -30.9480   27.3870 H   0  0  0  0  0  0  0  0  0  0  0  0
  -24.6040  -29.8430   25.9130 C   0  0  1  0  0  0  0  0  0  0  0  0
  -23.9930  -31.2370   25.6010 C   0  0  0  0  0  1  0  0  0  0  0  0
  -23.5530  -28.7540   25.5950 C   0  0  0  0  0  1  0  0  0  0  0  0
  -24.8050  -29.7530   27.4510 C   0  0  0  0  0  1  0  0  0  0  0  0
  -19.9350  -22.5510   20.4610 C   0  0  0  0  0  2  0  0  0  0  0  0
  -19.4130  -21.7960   19.3160 N   0  0  0  0  0  4  0  0  0  0  0  0
  -18.7270  -22.3430   18.8310 H   0  0  0  0  0  0  0  0  0  0  0  0
  -18.9840  -20.9450   19.6320 H   0  0  0  0  0  0  0  0  0  0  0  0
  -20.1540  -21.5690   18.6820 H   0  0  0  0  0  0  0  0  0  0  0  0
  1  3  1  0
  3  4  1  0
  4 92  1  0
  6  5  1  0
  6 47  1  0
  7  5  1  0
 10 16  1  0
 11 16  1  0
 12 11  1  0
 12 13  1  0
 14 13  1  0
 14 21  1  0
 14 15  1  0
 16 15  1  0
 17 10  1  0
 18 19  2  0
 19 38  1  0
 20 23  1  0
 20 19  1  0
 21 22  1  0
 21 18  1  0
 22 20  2  0
 23 24  1  0
 24 25  2  0
 26 29  1  0
 26 25  1  0
 27 26  2  0
 28 27  1  0
 28 23  2  0
 29 30  1  0
 30 35  2  0
 30 31  1  0
 31 32  2  0
 32 33  1  0
 33 37  1  0
 34 33  2  0
 35 34  1  0
 36 35  1  0
 38 39  1  0
 39 41  1  0
 39 42  1  0
 40 38  2  0
 43 18  1  0
 43 44  1  0
 45 43  1  0
 46 49  1  0
 47 46  1  0
 49 48  1  0
 50 51  1  0
 50 49  1  0
 53 51  1  0
 53 58  1  0
 54 64  1  0
 54 62  1  0
 55 60  1  0
 55 57  1  0
 57 58  1  0
 57 56  1  0
 59 53  1  0
 60 59  2  0
 61 55  1  0
 61 54  1  0
 62 56  1  0
 62 52  1  0
 63 52  2  0
 64 66  2  0
 65 64  1  0
 67 65  1  0
 68 72  1  0
 69 70  1  0
 69 65  1  0
 71 70  1  0
 72 71  2  0
 74 73  1  0
 75 74  1  0
 76 77  1  0
 76 75  2  0
 77 68  1  0
 78 52  1  0
 78 79  1  0
 78 88  1  0
 79 80  1  0
 79 82  1  0
 80 84  1  0
 81 80  2  0
 84 83  1  0
 84 86  1  0
 86 87  1  0
 86 85  1  0
 88 91  1  1
 89 88  1  0
 90 88  1  0
 93 95  1  0
 93 92  1  0
 94 93  1  0
 96 93  1  0
M  ISO  4   9 100  10 100  50 101  51 101
M  END
>  <TORSDO>  (54) 
F 22

>  <SCORE>  (54) 
-1.515

>  <name>  (54) 
53

>  <ligand_id>  (54) 
53

>  <original_smiles>  (54) 
[H]C(=Nc1c([H])c(C([H])=C([H])C(=O)N2C([H])([H])C([H])([H])C([H])([H])C([H])(n3nc(-c4c([H])c([H])c(Oc5c([H])c([H])c(F)c([H])c5F)c([H])c4[H])c(C(=O)N([H])[H])c3N([H])[H])C2([H])[H])c(C([H])([H])[N+]([H])([H])[H])c([H])c1C([H])([H])[H])C([H])(C([H])([H])[H])C([H])([H])Oc1c([H])c([H])c2c(c1[H])C([H])([H])N(C(=O)C([H])(N([H])C(=O)C([H])(N([H])C([H])([H])[H])C([H])([H])[H])C(C([H])([H])[H])(C([H])([H])[H])C([H])([H])[H])C([H])(C(=O)N([H])C1([H])c3c([H])c([H])c([H])c([H])c3C([H])([H])C([H])([H])C1([H])[H])C2([H])[H]

>  <smiles>  (54) 
[H]C(=Nc1c([H])c(C([H])=C([H])C(=O)N2C([H])([H])C([H])([H])C([H])([H])C([H])(n3nc(-c4c([H])c([H])c(Oc5c([H])c([H])c(F)c([H])c5F)c([H])c4[H])c(C(=O)N([H])[H])c3N([H])[H])C2([H])[H])c(C([H])([H])[N+]([H])([H])[H])c([H])c1C([H])([H])[H])C([H])(C([H])([H])[H])C([H])([H])Oc1c([H])c([H])c2c(c1[H])C([H])([H])N(C(=O)C([H])(N([H])C(=O)C([H])(N([H])C([H])([H])[H])C([H])([H])[H])C(C([H])([H])[H])(C([H])([H])[H])C([H])([H])[H])C([H])(C(=O)N([H])C1([H])c3c([H])c([H])c([H])c([H])c3C([H])([H])C([H])([H])C1([H])[H])C2([H])[H]

$$$$
54:0:0
     RDKit          3D

 92100  0  0  1  0  0  0  0  0999 V2000
  -30.5350  -17.2880   21.6790 C   0  0  0  0  0  3  0  0  0  0  0  0
  -29.9790  -19.5290   20.9110 C   0  0  0  0  0  3  0  0  0  0  0  0
  -30.3370  -18.6500   21.9400 C   0  0  0  0  0  0  0  0  0  0  0  0
  -30.4710  -16.7400   20.3690 C   0  0  0  0  0  0  0  0  0  0  0  0
  -29.8040  -19.0860   19.5860 C   0  0  0  0  0  0  0  0  0  0  0  0
  -30.0300  -17.6550   19.3260 C   0  0  0  0  0  0  0  0  0  0  0  0
  -30.6200  -19.1800   23.3330 C   0  0  0  0  0  1  0  0  0  0  0  0
  -29.8630  -17.1790   18.0690 F   0  0  0  0  0  0  0  0  0  0  0  0
  -31.1910  -14.5290   19.1880 C   0  0  0  0  0  0  0  0  0  0  0  0
  -30.5660  -12.4170   18.0190 C   0  0  0  0  0  2  0  0  0  0  0  0
  -29.4120  -12.7000   17.0330 C   0  0  0  0  0  2  0  0  0  0  0  0
  -28.0360  -12.6290   17.7340 C   0  0  0  0  0  2  0  0  0  0  0  0
  -28.0140  -13.3920   19.0840 C   0  0  0  0  0  3  0  0  0  0  0  0
  -29.2520  -13.0730   19.9450 C   0  0  0  0  0  2  0  0  0  0  0  0
  -30.4460  -13.3760   19.1400 N   0  0  0  0  0  0  0  0  0  0  0  0
  -32.1260  -14.7190   18.4010 O   0  0  0  0  0  0  0  0  0  0  0  0
  -31.7540  -14.8560   21.4490 C   0  0  0  0  0  1  0  0  0  0  0  0
  -31.0030  -15.3530   20.2700 N   0  0  0  0  0  0  0  0  0  0  0  0
  -25.9210  -14.0840   20.4100 C   0  0  0  0  0  0  0  0  0  0  0  0
  -24.8670  -13.3660   20.8990 C   0  0  0  0  0  0  0  0  0  0  0  0
  -25.1350  -11.9980   20.5790 C   0  0  0  0  0  0  0  0  0  0  0  0
  -26.7700  -13.1600   19.8220 N   0  0  0  0  0  0  0  0  0  0  0  0
  -26.3150  -11.8910   19.9780 N   0  0  0  0  0  0  0  0  0  0  0  0
  -24.3080  -10.8000   20.7670 C   0  0  0  0  0  0  0  0  0  0  0  0
  -24.7390   -9.7230   21.5740 C   0  0  0  0  0  3  0  0  0  0  0  0
  -23.9180   -8.5880   21.7520 C   0  0  0  0  0  3  0  0  0  0  0  0
  -22.6510   -8.5220   21.1260 C   0  0  0  0  0  0  0  0  0  0  0  0
  -22.2370   -9.5860   20.3060 C   0  0  0  0  0  3  0  0  0  0  0  0
  -23.0570  -10.7120   20.1250 C   0  0  0  0  0  3  0  0  0  0  0  0
  -21.7960   -7.4490   21.2210 O   0  0  0  0  0  0  0  0  0  0  0  0
  -21.7210   -6.6860   22.3600 C   0  0  0  0  0  0  0  0  0  0  0  0
  -21.3300   -7.2390   23.6000 C   0  0  0  0  0  3  0  0  0  0  0  0
  -21.1970   -6.4060   24.7290 C   0  0  0  0  0  3  0  0  0  0  0  0
  -21.4440   -5.0240   24.6190 C   0  0  0  0  0  0  0  0  0  0  0  0
  -21.8300   -4.4750   23.3840 C   0  0  0  0  0  3  0  0  0  0  0  0
  -21.9640   -5.3030   22.2580 C   0  0  0  0  0  0  0  0  0  0  0  0
  -22.3140   -4.7640   21.0640 F   0  0  0  0  0  0  0  0  0  0  0  0
  -21.3100   -4.2230   25.7010 F   0  0  0  0  0  0  0  0  0  0  0  0
  -23.6340  -13.9220   21.5500 C   0  0  0  0  0  0  0  0  0  0  0  0
  -23.0380  -13.1780   22.4740 N   0  0  0  0  0  0  0  0  0  0  0  0
  -23.2220  -15.0490   21.2740 O   0  0  0  0  0  0  0  0  0  0  0  0
  -23.3830  -12.2600   22.7120 H   0  0  0  0  0  0  0  0  0  0  0  0
  -22.2180  -13.5300   22.9510 H   0  0  0  0  0  0  0  0  0  0  0  0
  -26.2210  -15.4460   20.3890 N   0  0  0  0  0  0  0  0  0  0  0  0
  -25.5980  -16.1370   20.7880 H   0  0  0  0  0  0  0  0  0  0  0  0
  -27.0500  -15.8510   19.9800 H   0  0  0  0  0  0  0  0  0  0  0  0
  -29.6470  -20.0800   18.5870 O   0  0  0  0  0  0  0  0  0  0  0  0
  -28.5670  -21.1110   18.5200 C   0  0  0  0  0  2  0  0  0  0  0  0
  -28.3000  -23.5810   19.6850 C   0  0  0  0  0  3  0  0  0  0  0  0
  -28.3890  -22.2000   19.6310 C   0  0  0  0  0  3  0  0  0  0  0  0
  -28.3720  -24.7830   18.6810 C   0  0  0  0  0  2  0  0  0  0  0  0
  -28.4270  -26.1470   19.2920 O   0  0  0  0  0  0  0  0  0  0  0  0
  -24.7890  -31.2770   22.9600 C   0  0  0  0  0  0  0  0  0  0  0  0
  -27.2940  -26.9770   19.4080 C   0  0  0  0  0  0  0  0  0  0  0  0
  -23.5360  -30.0460   21.2330 C   0  0  0  0  0  3  0  0  0  0  0  0
  -24.9360  -28.6040   19.6420 C   0  0  0  0  0  0  0  0  0  0  0  0
  -26.0810  -30.3300   21.0280 C   0  0  0  0  0  2  0  0  0  0  0  0
  -26.1280  -29.0170   20.2540 C   0  0  0  0  0  0  0  0  0  0  0  0
  -27.3070  -28.2180   20.1310 C   0  0  0  0  0  3  0  0  0  0  0  0
  -26.0680  -26.6080   18.8070 C   0  0  0  0  0  3  0  0  0  0  0  0
  -24.9110  -27.4010   18.9210 C   0  0  0  0  0  3  0  0  0  0  0  0
  -23.7170  -29.4860   19.8010 C   0  0  0  0  0  2  0  0  0  0  0  0
  -24.8270  -30.5700   21.7950 N   0  0  0  0  0  0  0  0  0  0  0  0
  -23.7150  -31.5100   23.5330 O   0  0  0  0  0  0  0  0  0  0  0  0
  -22.8750  -28.9550   22.1150 C   0  0  0  0  0  0  0  0  0  0  0  0
  -21.5490  -28.7920   21.9800 N   0  0  0  0  0  0  0  0  0  0  0  0
  -23.5610  -28.2660   22.8730 O   0  0  0  0  0  0  0  0  0  0  0  0
  -21.0510  -29.4230   21.3620 H   0  0  0  0  0  0  0  0  0  0  0  0
  -18.1990  -27.4870   22.3860 C   0  0  0  0  0  0  0  0  0  0  0  0
  -20.7510  -27.7770   22.6650 C   0  0  0  0  0  3  0  0  0  0  0  0
  -20.8810  -26.4000   21.9770 C   0  0  0  0  0  2  0  0  0  0  0  0
  -19.7600  -26.0970   20.9710 C   0  0  0  0  0  2  0  0  0  0  0  0
  -18.3970  -26.1730   21.6620 C   0  0  0  0  0  2  0  0  0  0  0  0
  -19.3040  -28.2430   22.8580 C   0  0  0  0  0  0  0  0  0  0  0  0
  -19.0610  -29.4650   23.5150 C   0  0  0  0  0  3  0  0  0  0  0  0
  -17.7480  -29.9270   23.7120 C   0  0  0  0  0  3  0  0  0  0  0  0
  -16.6580  -29.1630   23.2540 C   0  0  0  0  0  3  0  0  0  0  0  0
  -16.8840  -27.9460   22.5900 C   0  0  0  0  0  3  0  0  0  0  0  0
  -26.0780  -31.8480   23.6150 C   0  0  0  0  0  3  0  0  0  0  0  0
  -26.5660  -31.0070   24.8570 C   0  0  1  0  0  0  0  0  0  0  0  0
  -25.4620  -30.7470   25.9120 C   0  0  0  0  0  1  0  0  0  0  0  0
  -27.1150  -29.6330   24.4070 C   0  0  0  0  0  1  0  0  0  0  0  0
  -27.7330  -31.7420   25.5590 C   0  0  0  0  0  1  0  0  0  0  0  0
  -25.8060  -33.2370   24.0090 N   0  0  0  0  0  0  0  0  0  0  0  0
  -26.1710  -34.3150   23.3010 C   0  0  0  0  0  0  0  0  0  0  0  0
  -26.8430  -34.2420   22.2670 O   0  0  0  0  0  0  0  0  0  0  0  0
  -25.2090  -33.3720   24.8120 H   0  0  0  0  0  0  0  0  0  0  0  0
  -24.4910  -36.1710   23.0360 C   0  0  0  0  0  1  0  0  0  0  0  0
  -25.7220  -35.6940   23.8260 C   0  0  0  0  0  3  0  0  0  0  0  0
  -27.8740  -36.4940   24.6960 C   0  0  0  0  0  1  0  0  0  0  0  0
  -26.7820  -36.7250   23.7550 N   0  0  0  0  0  0  0  0  0  0  0  0
  -26.4030  -37.6520   23.9310 H   0  0  0  0  0  0  0  0  0  0  0  0
  1  3  1  0
  2  3  2  0
  3  7  1  0
  4  1  2  0
  5  2  1  0
  6  5  2  0
  6  4  1  0
  8  6  1  0
  9 18  1  0
 10 15  1  0
 11 12  1  0
 11 10  1  0
 13 12  1  0
 13 22  1  0
 13 14  1  0
 15  9  1  0
 15 14  1  0
 16  9  2  0
 18  4  1  0
 18 17  1  0
 19 20  2  0
 20 39  1  0
 21 24  1  0
 21 20  1  0
 22 23  1  0
 22 19  1  0
 23 21  2  0
 24 25  1  0
 25 26  2  0
 27 30  1  0
 27 26  1  0
 28 27  2  0
 29 28  1  0
 29 24  2  0
 30 31  1  0
 31 32  1  0
 32 33  2  0
 34 33  1  0
 34 38  1  0
 35 34  2  0
 36 31  2  0
 36 35  1  0
 37 36  1  0
 39 40  1  0
 40 42  1  0
 40 43  1  0
 41 39  2  0
 44 19  1  0
 44 45  1  0
 46 44  1  0
 47  5  1  0
 48 47  1  0
 48 50  1  0
 50 49  2  0
 51 52  1  0
 51 49  1  0
 52 54  1  0
 53 64  2  0
 54 59  1  0
 55 63  1  0
 55 65  1  0
 56 62  1  0
 56 58  1  0
 57 63  1  0
 58 57  1  0
 59 58  2  0
 60 61  1  0
 60 54  2  0
 61 56  2  0
 62 55  1  0
 63 53  1  0
 65 67  2  0
 66 65  1  0
 68 66  1  0
 69 78  2  0
 69 74  1  0
 70 66  1  0
 70 74  1  0
 71 70  1  0
 72 73  1  0
 72 71  1  0
 73 69  1  0
 74 75  2  0
 75 76  1  0
 77 76  2  0
 78 77  1  0
 79 53  1  0
 79 84  1  0
 79 80  1  0
 80 83  1  1
 80 81  1  0
 82 80  1  0
 84 87  1  0
 85 89  1  0
 85 84  1  0
 86 85  2  0
 89 88  1  0
 91 89  1  0
 91 92  1  0
 91 90  1  0
M  ISO  4   9 100  18 100  51 101  52 101
M  END
>  <TORSDO>  (55) 
F 20

>  <SCORE>  (55) 
-9.309

>  <name>  (55) 
54

>  <ligand_id>  (55) 
54

>  <original_smiles>  (55) 
[H]C(=C([H])C([H])([H])Oc1c([H])c(C([H])([H])[H])c([H])c(N(C(=O)N2C([H])([H])C([H])([H])C([H])([H])C([H])(n3nc(-c4c([H])c([H])c(Oc5c([H])c([H])c(F)c([H])c5F)c([H])c4[H])c(C(=O)N([H])[H])c3N([H])[H])C2([H])[H])C([H])([H])[H])c1F)C([H])([H])Oc1c([H])c([H])c2c(c1[H])C([H])([H])N(C(=O)C([H])(N([H])C(=O)C([H])(N([H])C([H])([H])[H])C([H])([H])[H])C(C([H])([H])[H])(C([H])([H])[H])C([H])([H])[H])C([H])(C(=O)N([H])C1([H])c3c([H])c([H])c([H])c([H])c3C([H])([H])C([H])([H])C1([H])[H])C2([H])[H]

>  <smiles>  (55) 
[H]C(=C([H])C([H])([H])Oc1c([H])c(C([H])([H])[H])c([H])c(N(C(=O)N2C([H])([H])C([H])([H])C([H])([H])C([H])(n3nc(-c4c([H])c([H])c(Oc5c([H])c([H])c(F)c([H])c5F)c([H])c4[H])c(C(=O)N([H])[H])c3N([H])[H])C2([H])[H])C([H])([H])[H])c1F)C([H])([H])Oc1c([H])c([H])c2c(c1[H])C([H])([H])N(C(=O)C([H])(N([H])C(=O)C([H])(N([H])C([H])([H])[H])C([H])([H])[H])C(C([H])([H])[H])(C([H])([H])[H])C([H])([H])[H])C([H])(C(=O)N([H])C1([H])c3c([H])c([H])c([H])c([H])c3C([H])([H])C([H])([H])C1([H])[H])C2([H])[H]

$$$$
55:0:0
     RDKit          3D

 92100  0  0  1  0  0  0  0  0999 V2000
  -29.7400  -18.6990   18.2250 C   0  0  0  0  0  3  0  0  0  0  0  0
  -29.4530  -18.5770   20.9640 C   0  0  0  0  0  3  0  0  0  0  0  0
  -29.3200  -19.8680   18.9020 C   0  0  0  0  0  0  0  0  0  0  0  0
  -29.1960  -19.8620   20.3150 C   0  0  0  0  0  0  0  0  0  0  0  0
  -29.9470  -17.4610   18.8690 C   0  0  0  0  0  0  0  0  0  0  0  0
  -29.8120  -17.3440   20.2800 C   0  0  0  0  0  0  0  0  0  0  0  0
  -30.1860  -16.2610   17.9720 C   0  0  0  0  0  1  0  0  0  0  0  0
  -30.6830  -14.9120   20.7600 C   0  0  0  0  0  0  0  0  0  0  0  0
  -30.6200  -12.5830   19.8630 C   0  0  0  0  0  2  0  0  0  0  0  0
  -29.7770  -12.5610   18.5680 C   0  0  0  0  0  2  0  0  0  0  0  0
  -28.2690  -12.4420   18.8820 C   0  0  0  0  0  2  0  0  0  0  0  0
  -27.7990  -13.3570   20.0480 C   0  0  0  0  0  3  0  0  0  0  0  0
  -28.7790  -13.3060   21.2420 C   0  0  0  0  0  2  0  0  0  0  0  0
  -30.1060  -13.6650   20.7340 N   0  0  0  0  0  0  0  0  0  0  0  0
  -31.8770  -15.0450   20.4780 O   0  0  0  0  0  0  0  0  0  0  0  0
  -29.8510  -16.0120   20.9460 N   0  0  0  0  0  0  0  0  0  0  0  0
  -28.9900  -15.7800   21.4170 H   0  0  0  0  0  0  0  0  0  0  0  0
  -25.3620  -13.9180   20.6360 C   0  0  0  0  0  0  0  0  0  0  0  0
  -24.2930  -13.1290   20.9560 C   0  0  0  0  0  0  0  0  0  0  0  0
  -24.7780  -11.7840   20.9600 C   0  0  0  0  0  0  0  0  0  0  0  0
  -26.4320  -13.0520   20.4600 N   0  0  0  0  0  0  0  0  0  0  0  0
  -26.0840  -11.7660   20.7260 N   0  0  0  0  0  0  0  0  0  0  0  0
  -24.0650  -10.5100   21.1150 C   0  0  0  0  0  0  0  0  0  0  0  0
  -24.4470   -9.5610   22.0890 C   0  0  0  0  0  3  0  0  0  0  0  0
  -23.7330   -8.3530   22.2320 C   0  0  0  0  0  3  0  0  0  0  0  0
  -22.6200   -8.0840   21.4010 C   0  0  0  0  0  0  0  0  0  0  0  0
  -22.2590   -9.0190   20.4160 C   0  0  0  0  0  3  0  0  0  0  0  0
  -22.9730  -10.2190   20.2700 C   0  0  0  0  0  3  0  0  0  0  0  0
  -21.8820   -6.9260   21.4520 O   0  0  0  0  0  0  0  0  0  0  0  0
  -21.7500   -6.2080   22.6130 C   0  0  0  0  0  0  0  0  0  0  0  0
  -21.1530   -6.7590   23.7680 C   0  0  0  0  0  3  0  0  0  0  0  0
  -20.9750   -5.9630   24.9180 C   0  0  0  0  0  3  0  0  0  0  0  0
  -21.3830   -4.6150   24.9110 C   0  0  0  0  0  0  0  0  0  0  0  0
  -21.9730   -4.0640   23.7610 C   0  0  0  0  0  3  0  0  0  0  0  0
  -22.1510   -4.8570   22.6140 C   0  0  0  0  0  0  0  0  0  0  0  0
  -22.7000   -4.3140   21.5010 F   0  0  0  0  0  0  0  0  0  0  0  0
  -21.2050   -3.8470   26.0120 F   0  0  0  0  0  0  0  0  0  0  0  0
  -22.8730  -13.5800   21.1440 C   0  0  0  0  0  0  0  0  0  0  0  0
  -22.1120  -12.8790   21.9770 N   0  0  0  0  0  0  0  0  0  0  0  0
  -22.4450  -14.5880   20.5840 O   0  0  0  0  0  0  0  0  0  0  0  0
  -22.4670  -12.0620   22.4510 H   0  0  0  0  0  0  0  0  0  0  0  0
  -21.1580  -13.1640   22.1430 H   0  0  0  0  0  0  0  0  0  0  0  0
  -25.5130  -15.2910   20.4530 N   0  0  0  0  0  0  0  0  0  0  0  0
  -24.7370  -15.9400   20.5320 H   0  0  0  0  0  0  0  0  0  0  0  0
  -26.3570  -15.7330   20.1110 H   0  0  0  0  0  0  0  0  0  0  0  0
  -29.3740  -21.3480   16.8690 C   0  0  0  0  0  2  0  0  0  0  0  0
  -28.9420  -21.0440   18.1040 C   0  0  0  0  0  3  0  0  0  0  0  0
  -28.7340  -21.0860   21.1470 C   0  0  0  0  0  3  0  0  0  0  0  0
  -28.5490  -22.4740   21.1430 C   0  0  0  0  0  3  0  0  0  0  0  0
  -28.7740  -23.7780   20.2530 C   0  0  0  0  0  3  0  0  0  0  0  0
  -27.9620  -25.1060   20.7200 C   0  0  0  0  0  3  0  0  0  0  0  0
  -28.2190  -26.4980   20.2040 O   0  0  0  0  0  0  0  0  0  0  0  0
  -24.5480  -31.9670   23.2930 C   0  0  0  0  0  0  0  0  0  0  0  0
  -27.1340  -27.4010   20.1880 C   0  0  0  0  0  0  0  0  0  0  0  0
  -23.3400  -30.5780   21.6520 C   0  0  0  0  0  3  0  0  0  0  0  0
  -24.7820  -29.0430   20.2010 C   0  0  0  0  0  0  0  0  0  0  0  0
  -25.8820  -30.8920   21.4610 C   0  0  0  0  0  2  0  0  0  0  0  0
  -25.9570  -29.5170   20.7970 C   0  0  0  0  0  0  0  0  0  0  0  0
  -27.1400  -28.7100   20.7750 C   0  0  0  0  0  3  0  0  0  0  0  0
  -25.9390  -26.9980   19.5540 C   0  0  0  0  0  3  0  0  0  0  0  0
  -24.7780  -27.7930   19.5650 C   0  0  0  0  0  3  0  0  0  0  0  0
  -23.5460  -29.9190   20.2660 C   0  0  0  0  0  2  0  0  0  0  0  0
  -24.6090  -31.1640   22.1910 N   0  0  0  0  0  0  0  0  0  0  0  0
  -23.4660  -32.2390   23.8340 O   0  0  0  0  0  0  0  0  0  0  0  0
  -22.6840  -29.5510   22.6070 C   0  0  0  0  0  0  0  0  0  0  0  0
  -21.3650  -29.3430   22.4570 N   0  0  0  0  0  0  0  0  0  0  0  0
  -23.3610  -28.9440   23.4410 O   0  0  0  0  0  0  0  0  0  0  0  0
  -20.8770  -29.8920   21.7640 H   0  0  0  0  0  0  0  0  0  0  0  0
  -18.0110  -28.0560   22.8940 C   0  0  0  0  0  0  0  0  0  0  0  0
  -20.5560  -28.3800   23.2070 C   0  0  0  0  0  3  0  0  0  0  0  0
  -20.7160  -26.9560   22.6270 C   0  0  0  0  0  2  0  0  0  0  0  0
  -19.6270  -26.5780   21.6190 C   0  0  0  0  0  2  0  0  0  0  0  0
  -18.2340  -26.7030   22.2430 C   0  0  0  0  0  2  0  0  0  0  0  0
  -19.1020  -28.8470   23.3400 C   0  0  0  0  0  0  0  0  0  0  0  0
  -18.8400  -30.1050   23.9230 C   0  0  0  0  0  3  0  0  0  0  0  0
  -17.5190  -30.5720   24.0650 C   0  0  0  0  0  3  0  0  0  0  0  0
  -16.4430  -29.7820   23.6280 C   0  0  0  0  0  3  0  0  0  0  0  0
  -16.6910  -28.5260   23.0470 C   0  0  0  0  0  3  0  0  0  0  0  0
  -25.8320  -32.5980   23.9130 C   0  0  0  0  0  3  0  0  0  0  0  0
  -26.3270  -31.8490   25.2100 C   0  0  1  0  0  0  0  0  0  0  0  0
  -25.2180  -31.6370   26.2690 C   0  0  0  0  0  1  0  0  0  0  0  0
  -26.9080  -30.4610   24.8540 C   0  0  0  0  0  1  0  0  0  0  0  0
  -27.4750  -32.6500   25.8700 C   0  0  0  0  0  1  0  0  0  0  0  0
  -25.5350  -34.0070   24.2170 N   0  0  0  0  0  0  0  0  0  0  0  0
  -25.8880  -35.0440   23.4450 C   0  0  0  0  0  0  0  0  0  0  0  0
  -26.5710  -34.9140   22.4240 O   0  0  0  0  0  0  0  0  0  0  0  0
  -24.9290  -34.1810   25.0060 H   0  0  0  0  0  0  0  0  0  0  0  0
  -24.2050  -36.8610   23.0140 C   0  0  0  0  0  1  0  0  0  0  0  0
  -25.4080  -36.4440   23.8730 C   0  0  0  0  0  3  0  0  0  0  0  0
  -27.5190  -37.3040   24.7820 C   0  0  0  0  0  1  0  0  0  0  0  0
  -26.4620  -37.4790   23.7890 N   0  0  0  0  0  0  0  0  0  0  0  0
  -26.0670  -38.4090   23.9080 H   0  0  0  0  0  0  0  0  0  0  0  0
  1  5  2  0
  1  3  1  0
  3  4  2  0
  4  2  1  0
  4 48  1  0
  5  6  1  0
  6 16  1  0
  6  2  2  0
  7  5  1  0
  8 16  1  0
  9 14  1  0
 10 11  1  0
 10  9  1  0
 12 11  1  0
 12 21  1  0
 12 13  1  0
 14  8  1  0
 14 13  1  0
 15  8  2  0
 16 17  1  0
 18 19  2  0
 19 20  1  0
 19 38  1  0
 20 23  1  0
 21 18  1  0
 21 22  1  0
 22 20  2  0
 23 24  1  0
 24 25  2  0
 26 29  1  0
 26 25  1  0
 27 26  2  0
 28 27  1  0
 28 23  2  0
 29 30  1  0
 30 35  2  0
 30 31  1  0
 31 32  2  0
 33 32  1  0
 33 37  1  0
 34 33  2  0
 35 34  1  0
 36 35  1  0
 38 39  1  0
 39 42  1  0
 39 41  1  0
 40 38  2  0
 43 44  1  0
 43 18  1  0
 45 43  1  0
 46 47  2  0
 47  3  1  0
 49 48  2  0
 50 51  2  0
 50 49  1  0
 52 51  1  0
 53 64  2  0
 54 52  1  0
 54 59  1  0
 55 63  1  0
 55 65  1  0
 56 62  1  0
 56 58  1  0
 57 63  1  0
 58 57  1  0
 59 58  2  0
 60 61  1  0
 60 54  2  0
 61 56  2  0
 62 55  1  0
 63 53  1  0
 65 67  2  0
 66 65  1  0
 68 66  1  0
 69 78  2  0
 69 74  1  0
 70 66  1  0
 70 74  1  0
 71 70  1  0
 72 73  1  0
 72 71  1  0
 73 69  1  0
 74 75  2  0
 75 76  1  0
 77 76  2  0
 78 77  1  0
 79 53  1  0
 79 84  1  0
 79 80  1  0
 80 83  1  1
 80 81  1  0
 82 80  1  0
 84 87  1  0
 85 89  1  0
 85 84  1  0
 86 85  2  0
 89 88  1  0
 91 89  1  0
 91 92  1  0
 91 90  1  0
M  ISO  4   8 100  16 100  51 101  52 101
M  END
>  <TORSDO>  (56) 
F 20

>  <SCORE>  (56) 
-13.166

>  <name>  (56) 
55

>  <ligand_id>  (56) 
55

>  <original_smiles>  (56) 
[H]C([H])=C([H])c1c([H])c(C([H])([H])[H])c(N([H])C(=O)N2C([H])([H])C([H])([H])C([H])([H])C([H])(n3nc(-c4c([H])c([H])c(Oc5c([H])c([H])c(F)c([H])c5F)c([H])c4[H])c(C(=O)N([H])[H])c3N([H])[H])C2([H])[H])c([H])c1C([H])=C([H])C([H])([H])C([H])([H])Oc1c([H])c([H])c2c(c1[H])C([H])([H])N(C(=O)C([H])(N([H])C(=O)C([H])(N([H])C([H])([H])[H])C([H])([H])[H])C(C([H])([H])[H])(C([H])([H])[H])C([H])([H])[H])C([H])(C(=O)N([H])C1([H])c3c([H])c([H])c([H])c([H])c3C([H])([H])C([H])([H])C1([H])[H])C2([H])[H]

>  <smiles>  (56) 
[H]C([H])=C([H])c1c([H])c(C([H])([H])[H])c(N([H])C(=O)N2C([H])([H])C([H])([H])C([H])([H])C([H])(n3nc(-c4c([H])c([H])c(Oc5c([H])c([H])c(F)c([H])c5F)c([H])c4[H])c(C(=O)N([H])[H])c3N([H])[H])C2([H])[H])c([H])c1C([H])=C([H])C([H])([H])C([H])([H])Oc1c([H])c([H])c2c(c1[H])C([H])([H])N(C(=O)C([H])(N([H])C(=O)C([H])(N([H])C([H])([H])[H])C([H])([H])[H])C(C([H])([H])[H])(C([H])([H])[H])C([H])([H])[H])C([H])(C(=O)N([H])C1([H])c3c([H])c([H])c([H])c([H])c3C([H])([H])C([H])([H])C1([H])[H])C2([H])[H]

$$$$
56:0:0
     RDKit          3D

 94102  0  0  1  0  0  0  0  0999 V2000
  -30.4840  -19.4660   21.7520 C   0  0  0  0  0  3  0  0  0  0  0  0
  -28.2870  -19.9260   20.1330 C   0  0  0  0  0  3  0  0  0  0  0  0
  -29.9800  -18.3600   21.0110 C   0  0  0  0  0  0  0  0  0  0  0  0
  -29.9330  -20.7830   21.6740 C   0  0  0  0  0  0  0  0  0  0  0  0
  -28.8630  -18.6240   20.1710 C   0  0  0  0  0  0  0  0  0  0  0  0
  -28.8050  -21.0320   20.8430 C   0  0  0  0  0  0  0  0  0  0  0  0
  -28.2380  -17.5930   19.2540 C   0  0  0  0  0  1  0  0  0  0  0  0
  -28.2200  -23.4370   20.5240 C   0  0  0  0  0  3  0  0  0  0  0  0
  -28.0060  -22.2030   20.8520 N   0  0  0  0  0  0  0  0  0  0  0  0
  -30.3030  -23.5320   18.9790 C   0  0  0  0  0  1  0  0  0  0  0  0
  -29.4060  -24.2770   19.9940 C   0  0  0  0  0  3  0  0  0  0  0  0
  -28.9450  -25.6400   19.3420 C   0  0  0  0  0  2  0  0  0  0  0  0
  -28.6290  -26.7470   20.2190 O   0  0  0  0  0  0  0  0  0  0  0  0
  -24.5710  -31.8150   23.1640 C   0  0  0  0  0  0  0  0  0  0  0  0
  -27.4330  -27.4530   20.1240 C   0  0  0  0  0  0  0  0  0  0  0  0
  -23.4500  -30.3930   21.4780 C   0  0  0  0  0  3  0  0  0  0  0  0
  -24.9880  -28.9060   20.0890 C   0  0  0  0  0  0  0  0  0  0  0  0
  -25.9720  -30.8220   21.3500 C   0  0  0  0  0  2  0  0  0  0  0  0
  -26.1160  -29.4580   20.7030 C   0  0  0  0  0  0  0  0  0  0  0  0
  -27.3360  -28.7410   20.7190 C   0  0  0  0  0  3  0  0  0  0  0  0
  -26.2680  -26.9150   19.5250 C   0  0  0  0  0  3  0  0  0  0  0  0
  -25.0570  -27.6320   19.5050 C   0  0  0  0  0  3  0  0  0  0  0  0
  -23.7190  -29.7360   20.1000 C   0  0  0  0  0  2  0  0  0  0  0  0
  -24.6790  -31.0280   22.0540 N   0  0  0  0  0  0  0  0  0  0  0  0
  -23.4680  -32.0530   23.6790 O   0  0  0  0  0  0  0  0  0  0  0  0
  -22.8040  -29.3450   22.4120 C   0  0  0  0  0  0  0  0  0  0  0  0
  -21.4890  -29.1230   22.2480 N   0  0  0  0  0  0  0  0  0  0  0  0
  -23.4800  -28.7380   23.2460 O   0  0  0  0  0  0  0  0  0  0  0  0
  -20.9980  -29.6290   21.5230 H   0  0  0  0  0  0  0  0  0  0  0  0
  -18.1250  -27.8990   22.7360 C   0  0  0  0  0  0  0  0  0  0  0  0
  -20.6800  -28.1800   23.0240 C   0  0  0  0  0  3  0  0  0  0  0  0
  -20.7850  -26.7510   22.4510 C   0  0  0  0  0  2  0  0  0  0  0  0
  -19.7100  -26.4750   21.3930 C   0  0  0  0  0  2  0  0  0  0  0  0
  -18.3270  -26.5620   22.0410 C   0  0  0  0  0  2  0  0  0  0  0  0
  -19.2370  -28.6710   23.1750 C   0  0  0  0  0  0  0  0  0  0  0  0
  -18.9990  -29.9240   23.7830 C   0  0  0  0  0  3  0  0  0  0  0  0
  -17.6920  -30.4110   23.9600 C   0  0  0  0  0  3  0  0  0  0  0  0
  -16.5990  -29.6280   23.5490 C   0  0  0  0  0  3  0  0  0  0  0  0
  -16.8140  -28.3760   22.9430 C   0  0  0  0  0  3  0  0  0  0  0  0
  -25.8220  -32.4820   23.8190 C   0  0  0  0  0  3  0  0  0  0  0  0
  -25.4620  -33.8700   24.1470 N   0  0  0  0  0  0  0  0  0  0  0  0
  -25.7850  -34.9340   23.4000 C   0  0  0  0  0  0  0  0  0  0  0  0
  -26.4870  -34.8520   22.3880 O   0  0  0  0  0  0  0  0  0  0  0  0
  -24.8350  -34.0030   24.9270 H   0  0  0  0  0  0  0  0  0  0  0  0
  -24.0160  -36.6780   23.0120 C   0  0  0  0  0  1  0  0  0  0  0  0
  -25.2470  -36.3060   23.8510 C   0  0  0  0  0  3  0  0  0  0  0  0
  -27.3300  -37.2540   24.7420 C   0  0  0  0  0  1  0  0  0  0  0  0
  -26.2500  -37.3890   23.7670 N   0  0  0  0  0  0  0  0  0  0  0  0
  -25.8100  -38.2950   23.9070 H   0  0  0  0  0  0  0  0  0  0  0  0
  -26.3270  -31.7160   25.1020 C   0  0  1  0  0  0  0  0  0  0  0  0
  -25.2160  -31.4480   26.1430 C   0  0  0  0  0  1  0  0  0  0  0  0
  -26.9630  -30.3580   24.7200 C   0  0  0  0  0  1  0  0  0  0  0  0
  -27.4290  -32.5420   25.8010 C   0  0  0  0  0  1  0  0  0  0  0  0
  -29.8910  -22.0970   23.8690 C   0  0  0  0  0  1  0  0  0  0  0  0
  -30.5600  -21.9010   22.5010 C   0  0  0  0  0  2  0  0  0  0  0  0
  -30.7730  -17.0100   21.1080 C   0  0  0  0  0  2  0  0  0  0  0  0
  -30.7940  -14.6260   20.2680 C   0  0  0  0  0  0  0  0  0  0  0  0
  -30.4120  -12.5060   19.0530 C   0  0  0  0  0  2  0  0  0  0  0  0
  -29.4470  -12.7570   17.8720 C   0  0  0  0  0  2  0  0  0  0  0  0
  -27.9950  -12.5790   18.3440 C   0  0  0  0  0  2  0  0  0  0  0  0
  -27.6910  -13.3970   19.6280 C   0  0  0  0  0  3  0  0  0  0  0  0
  -28.7710  -13.1720   20.7100 C   0  0  0  0  0  2  0  0  0  0  0  0
  -30.0800  -13.4710   20.1150 N   0  0  0  0  0  0  0  0  0  0  0  0
  -31.9200  -14.7670   19.7830 O   0  0  0  0  0  0  0  0  0  0  0  0
  -30.1570  -15.6760   20.8470 N   0  0  0  0  0  0  0  0  0  0  0  0
  -29.2390  -15.5020   21.2190 H   0  0  0  0  0  0  0  0  0  0  0  0
  -25.3260  -13.9860   20.4280 C   0  0  0  0  0  0  0  0  0  0  0  0
  -24.2750  -13.2050   20.8310 C   0  0  0  0  0  0  0  0  0  0  0  0
  -24.7400  -11.8580   20.7720 C   0  0  0  0  0  0  0  0  0  0  0  0
  -26.3610  -13.1090   20.1500 N   0  0  0  0  0  0  0  0  0  0  0  0
  -26.0180  -11.8230   20.4170 N   0  0  0  0  0  0  0  0  0  0  0  0
  -24.0220  -10.5890   20.9710 C   0  0  0  0  0  0  0  0  0  0  0  0
  -24.4620   -9.6270   21.9060 C   0  0  0  0  0  3  0  0  0  0  0  0
  -23.7450   -8.4260   22.0920 C   0  0  0  0  0  3  0  0  0  0  0  0
  -22.5710   -8.1770   21.3420 C   0  0  0  0  0  0  0  0  0  0  0  0
  -22.1490   -9.1290   20.3940 C   0  0  0  0  0  3  0  0  0  0  0  0
  -22.8700  -10.3210   20.2070 C   0  0  0  0  0  3  0  0  0  0  0  0
  -21.8310   -7.0220   21.4330 O   0  0  0  0  0  0  0  0  0  0  0  0
  -21.7750   -6.2900   22.5920 C   0  0  0  0  0  0  0  0  0  0  0  0
  -21.3010   -6.8410   23.8050 C   0  0  0  0  0  3  0  0  0  0  0  0
  -21.1980   -6.0310   24.9550 C   0  0  0  0  0  3  0  0  0  0  0  0
  -21.5600   -4.6730   24.8950 C   0  0  0  0  0  0  0  0  0  0  0  0
  -22.0250   -4.1200   23.6900 C   0  0  0  0  0  3  0  0  0  0  0  0
  -22.1260   -4.9250   22.5410 C   0  0  0  0  0  0  0  0  0  0  0  0
  -22.5500   -4.3800   21.3750 F   0  0  0  0  0  0  0  0  0  0  0  0
  -21.4540   -3.8930   25.9970 F   0  0  0  0  0  0  0  0  0  0  0  0
  -22.8870  -13.6850   21.1400 C   0  0  0  0  0  0  0  0  0  0  0  0
  -22.1830  -12.9740   22.0170 N   0  0  0  0  0  0  0  0  0  0  0  0
  -22.4400  -14.7160   20.6450 O   0  0  0  0  0  0  0  0  0  0  0  0
  -22.5710  -12.1440   22.4320 H   0  0  0  0  0  0  0  0  0  0  0  0
  -21.2450  -13.2580   22.2610 H   0  0  0  0  0  0  0  0  0  0  0  0
  -25.4800  -15.3550   20.2580 N   0  0  0  0  0  0  0  0  0  0  0  0
  -24.6890  -15.9880   20.3090 H   0  0  0  0  0  0  0  0  0  0  0  0
  -26.3260  -15.7880   19.9110 H   0  0  0  0  0  0  0  0  0  0  0  0
  2  5  2  0
  2  6  1  0
  3 56  1  0
  3  1  2  0
  4  1  1  0
  4 55  1  0
  5  3  1  0
  6  9  1  0
  6  4  2  0
  7  5  1  0
  8  9  2  0
 11 10  1  0
 11  8  1  0
 12 11  1  0
 12 13  1  0
 14 25  2  0
 15 13  1  0
 15 20  1  0
 16 24  1  0
 16 26  1  0
 17 23  1  0
 17 19  1  0
 18 24  1  0
 19 20  2  0
 19 18  1  0
 21 15  2  0
 22 21  1  0
 22 17  2  0
 23 16  1  0
 24 14  1  0
 26 28  2  0
 27 26  1  0
 29 27  1  0
 30 39  2  0
 30 35  1  0
 31 27  1  0
 31 35  1  0
 32 31  1  0
 33 34  1  0
 33 32  1  0
 34 30  1  0
 35 36  2  0
 36 37  1  0
 38 37  2  0
 39 38  1  0
 40 14  1  0
 40 41  1  0
 40 50  1  0
 41 44  1  0
 42 46  1  0
 42 41  1  0
 43 42  2  0
 46 45  1  0
 48 46  1  0
 48 49  1  0
 48 47  1  0
 50 53  1  1
 50 51  1  0
 52 50  1  0
 55 54  1  0
 57 65  1  0
 58 63  1  0
 59 60  1  0
 59 58  1  0
 61 60  1  0
 61 70  1  0
 61 62  1  0
 63 57  1  0
 63 62  1  0
 64 57  2  0
 65 56  1  0
 65 66  1  0
 67 68  2  0
 68 87  1  0
 69 68  1  0
 69 72  1  0
 70 71  1  0
 70 67  1  0
 71 69  2  0
 72 73  1  0
 73 74  2  0
 75 78  1  0
 75 74  1  0
 76 75  2  0
 77 76  1  0
 77 72  2  0
 78 79  1  0
 79 80  1  0
 80 81  2  0
 82 81  1  0
 82 86  1  0
 83 82  2  0
 84 79  2  0
 84 83  1  0
 85 84  1  0
 87 88  1  0
 88 91  1  0
 88 90  1  0
 89 87  2  0
 92 93  1  0
 92 67  1  0
 94 92  1  0
M  ISO  4  12 101  13 101  57 100  65 100
M  END
>  <TORSDO>  (57) 
F 21

>  <SCORE>  (57) 
-13.995

>  <name>  (57) 
56

>  <ligand_id>  (57) 
56

>  <original_smiles>  (57) 
[H]C(=Nc1c([H])c(C([H])([H])[H])c(C([H])([H])N([H])C(=O)N2C([H])([H])C([H])([H])C([H])([H])C([H])(n3nc(-c4c([H])c([H])c(Oc5c([H])c([H])c(F)c([H])c5F)c([H])c4[H])c(C(=O)N([H])[H])c3N([H])[H])C2([H])[H])c([H])c1C([H])([H])C([H])([H])[H])C([H])(C([H])([H])[H])C([H])([H])Oc1c([H])c([H])c2c(c1[H])C([H])([H])N(C(=O)C([H])(N([H])C(=O)C([H])(N([H])C([H])([H])[H])C([H])([H])[H])C(C([H])([H])[H])(C([H])([H])[H])C([H])([H])[H])C([H])(C(=O)N([H])C1([H])c3c([H])c([H])c([H])c([H])c3C([H])([H])C([H])([H])C1([H])[H])C2([H])[H]

>  <smiles>  (57) 
[H]C(=Nc1c([H])c(C([H])([H])[H])c(C([H])([H])N([H])C(=O)N2C([H])([H])C([H])([H])C([H])([H])C([H])(n3nc(-c4c([H])c([H])c(Oc5c([H])c([H])c(F)c([H])c5F)c([H])c4[H])c(C(=O)N([H])[H])c3N([H])[H])C2([H])[H])c([H])c1C([H])([H])C([H])([H])[H])C([H])(C([H])([H])[H])C([H])([H])Oc1c([H])c([H])c2c(c1[H])C([H])([H])N(C(=O)C([H])(N([H])C(=O)C([H])(N([H])C([H])([H])[H])C([H])([H])[H])C(C([H])([H])[H])(C([H])([H])[H])C([H])([H])[H])C([H])(C(=O)N([H])C1([H])c3c([H])c([H])c([H])c([H])c3C([H])([H])C([H])([H])C1([H])[H])C2([H])[H]

$$$$
57:0:0
     RDKit          3D

 94103  0  0  1  0  0  0  0  0999 V2000
  -31.5600  -18.0520   20.3420 C   0  0  0  0  0  3  0  0  0  0  0  0
  -29.3350  -19.0360   20.3570 C   0  0  0  0  0  3  0  0  0  0  0  0
  -32.0170  -19.3780   20.3680 C   0  0  0  0  0  0  0  0  0  0  0  0
  -31.2280  -20.5280   20.4170 C   0  0  0  0  0  0  0  0  0  0  0  0
  -30.1780  -17.7740   20.3730 C   0  0  0  0  0  0  0  0  0  0  0  0
  -29.7880  -20.4870   20.3630 C   0  0  0  0  0  0  0  0  0  0  0  0
  -33.4420  -19.7820   20.4250 C   0  0  0  0  0  0  0  0  0  0  0  0
  -32.2170  -21.6510   20.5850 C   0  0  0  0  0  0  0  0  0  0  0  0
  -34.7090  -21.8560   20.8060 C   0  0  0  0  0  1  0  0  0  0  0  0
  -33.4630  -21.1180   20.5680 N   0  0  0  0  0  0  0  0  0  0  0  0
  -34.4040  -19.0090   20.3910 O   0  0  0  0  0  0  0  0  0  0  0  0
  -31.9680  -22.8370   20.7920 O   0  0  0  0  0  0  0  0  0  0  0  0
  -30.5150  -15.0220   20.3680 C   0  0  0  0  0  0  0  0  0  0  0  0
  -30.3740  -12.6370   19.4880 C   0  0  0  0  0  2  0  0  0  0  0  0
  -29.4530  -12.5350   18.2500 C   0  0  0  0  0  2  0  0  0  0  0  0
  -27.9910  -12.3260   18.6840 C   0  0  0  0  0  2  0  0  0  0  0  0
  -27.5680  -13.2800   19.8300 C   0  0  0  0  0  3  0  0  0  0  0  0
  -28.6200  -13.3680   20.9580 C   0  0  0  0  0  2  0  0  0  0  0  0
  -29.8850  -13.7700   20.3310 N   0  0  0  0  0  0  0  0  0  0  0  0
  -31.7280  -14.9960   20.1420 O   0  0  0  0  0  0  0  0  0  0  0  0
  -29.7830  -16.2650   20.4290 N   0  0  0  0  0  0  0  0  0  0  0  0
  -28.7890  -16.1130   20.5120 H   0  0  0  0  0  0  0  0  0  0  0  0
  -25.1850  -13.8490   20.5590 C   0  0  0  0  0  0  0  0  0  0  0  0
  -24.1220  -13.0720   20.9240 C   0  0  0  0  0  0  0  0  0  0  0  0
  -24.5910  -11.7220   20.9020 C   0  0  0  0  0  0  0  0  0  0  0  0
  -26.2330  -12.9740   20.3320 N   0  0  0  0  0  0  0  0  0  0  0  0
  -25.8840  -11.6870   20.6040 N   0  0  0  0  0  0  0  0  0  0  0  0
  -23.8640  -10.4580   21.0870 C   0  0  0  0  0  0  0  0  0  0  0  0
  -24.2980   -9.4830   22.0110 C   0  0  0  0  0  3  0  0  0  0  0  0
  -23.5670   -8.2890   22.1870 C   0  0  0  0  0  3  0  0  0  0  0  0
  -22.3900   -8.0590   21.4370 C   0  0  0  0  0  0  0  0  0  0  0  0
  -21.9740   -9.0230   20.5010 C   0  0  0  0  0  3  0  0  0  0  0  0
  -22.7060  -10.2100   20.3240 C   0  0  0  0  0  3  0  0  0  0  0  0
  -21.6310   -6.9180   21.5240 O   0  0  0  0  0  0  0  0  0  0  0  0
  -21.5960   -6.1570   22.6650 C   0  0  0  0  0  0  0  0  0  0  0  0
  -21.1930   -6.6960   23.9060 C   0  0  0  0  0  3  0  0  0  0  0  0
  -21.1080   -5.8640   25.0420 C   0  0  0  0  0  3  0  0  0  0  0  0
  -21.4170   -4.4940   24.9350 C   0  0  0  0  0  0  0  0  0  0  0  0
  -21.8150   -3.9560   23.6990 C   0  0  0  0  0  3  0  0  0  0  0  0
  -21.9020   -4.7850   22.5670 C   0  0  0  0  0  0  0  0  0  0  0  0
  -22.2650   -4.2550   21.3730 F   0  0  0  0  0  0  0  0  0  0  0  0
  -21.3280   -3.6940   26.0230 F   0  0  0  0  0  0  0  0  0  0  0  0
  -22.7220  -13.5480   21.1780 C   0  0  0  0  0  0  0  0  0  0  0  0
  -21.9890  -12.8570   22.0460 N   0  0  0  0  0  0  0  0  0  0  0  0
  -22.2850  -14.5660   20.6440 O   0  0  0  0  0  0  0  0  0  0  0  0
  -22.3550  -12.0320   22.4970 H   0  0  0  0  0  0  0  0  0  0  0  0
  -21.0520  -13.1610   22.2650 H   0  0  0  0  0  0  0  0  0  0  0  0
  -25.3450  -15.2210   20.3780 N   0  0  0  0  0  0  0  0  0  0  0  0
  -24.5690  -15.8680   20.4680 H   0  0  0  0  0  0  0  0  0  0  0  0
  -26.1900  -15.6630   20.0360 H   0  0  0  0  0  0  0  0  0  0  0  0
  -28.8890  -21.6810   20.3080 O   0  0  0  0  0  0  0  0  0  0  0  0
  -29.1580  -23.2400   20.3900 C   0  0  0  0  0  3  0  0  0  0  0  0
  -28.1030  -24.5670   20.0720 C   0  0  0  0  0  3  0  0  0  0  0  0
  -28.3000  -26.1210   20.2980 O   0  0  0  0  0  0  0  0  0  0  0  0
  -24.6410  -31.8450   23.2400 C   0  0  0  0  0  0  0  0  0  0  0  0
  -27.2420  -27.1160   20.2150 C   0  0  0  0  0  0  0  0  0  0  0  0
  -23.4390  -30.4490   21.5960 C   0  0  0  0  0  3  0  0  0  0  0  0
  -24.8960  -28.8660   20.1750 C   0  0  0  0  0  0  0  0  0  0  0  0
  -25.9930  -30.7160   21.4320 C   0  0  0  0  0  2  0  0  0  0  0  0
  -26.0740  -29.3200   20.7780 C   0  0  0  0  0  0  0  0  0  0  0  0
  -27.2460  -28.4640   20.7750 C   0  0  0  0  0  3  0  0  0  0  0  0
  -26.0310  -26.7690   19.5770 C   0  0  0  0  0  3  0  0  0  0  0  0
  -24.8880  -27.6020   19.5620 C   0  0  0  0  0  3  0  0  0  0  0  0
  -23.6650  -29.7590   20.2220 C   0  0  0  0  0  2  0  0  0  0  0  0
  -24.7090  -31.0250   22.1440 N   0  0  0  0  0  0  0  0  0  0  0  0
  -23.5560  -32.1290   23.7730 O   0  0  0  0  0  0  0  0  0  0  0  0
  -22.7520  -29.4500   22.5630 C   0  0  0  0  0  0  0  0  0  0  0  0
  -21.4210  -29.2880   22.4410 N   0  0  0  0  0  0  0  0  0  0  0  0
  -23.4190  -28.8230   23.3880 O   0  0  0  0  0  0  0  0  0  0  0  0
  -20.9400  -29.8420   21.7480 H   0  0  0  0  0  0  0  0  0  0  0  0
  -18.0370  -28.0870   22.9410 C   0  0  0  0  0  0  0  0  0  0  0  0
  -20.5970  -28.3540   23.2150 C   0  0  0  0  0  3  0  0  0  0  0  0
  -20.7020  -26.9200   22.6450 C   0  0  0  0  0  2  0  0  0  0  0  0
  -19.6030  -26.5940   21.6290 C   0  0  0  0  0  2  0  0  0  0  0  0
  -18.2200  -26.7370   22.2690 C   0  0  0  0  0  2  0  0  0  0  0  0
  -19.1560  -28.8520   23.3710 C   0  0  0  0  0  0  0  0  0  0  0  0
  -18.9320  -30.1140   23.9640 C   0  0  0  0  0  3  0  0  0  0  0  0
  -17.6250  -30.6100   24.1300 C   0  0  0  0  0  3  0  0  0  0  0  0
  -16.5230  -29.8410   23.7180 C   0  0  0  0  0  3  0  0  0  0  0  0
  -16.7320  -28.5820   23.1280 C   0  0  0  0  0  3  0  0  0  0  0  0
  -25.9200  -32.4750   23.8670 C   0  0  0  0  0  3  0  0  0  0  0  0
  -26.4350  -31.7000   25.1430 C   0  0  1  0  0  0  0  0  0  0  0  0
  -25.3420  -31.4720   26.2140 C   0  0  0  0  0  1  0  0  0  0  0  0
  -27.0100  -30.3180   24.7580 C   0  0  0  0  0  1  0  0  0  0  0  0
  -27.5930  -32.4870   25.8020 C   0  0  0  0  0  1  0  0  0  0  0  0
  -25.6130  -33.8740   24.2080 N   0  0  0  0  0  0  0  0  0  0  0  0
  -25.9270  -34.9340   23.4520 C   0  0  0  0  0  0  0  0  0  0  0  0
  -26.5700  -34.8370   22.4030 O   0  0  0  0  0  0  0  0  0  0  0  0
  -25.0380  -34.0210   25.0240 H   0  0  0  0  0  0  0  0  0  0  0  0
  -24.1750  -36.7200   23.1780 C   0  0  0  0  0  1  0  0  0  0  0  0
  -25.4530  -36.3200   23.9330 C   0  0  0  0  0  3  0  0  0  0  0  0
  -27.6140  -37.2170   24.6750 C   0  0  0  0  0  1  0  0  0  0  0  0
  -26.4730  -37.3780   23.7770 N   0  0  0  0  0  0  0  0  0  0  0  0
  -26.0690  -38.2960   23.9420 H   0  0  0  0  0  0  0  0  0  0  0  0
  1  3  2  0
  1  5  1  0
  2  6  1  0
  2  5  2  0
  3  4  1  0
  3  7  1  0
  4  8  1  0
  5 21  1  0
  6  4  2  0
  7 10  1  0
  8 12  2  0
 10  8  1  0
 10  9  1  0
 11  7  2  0
 13 21  1  0
 14 19  1  0
 15 16  1  0
 15 14  1  0
 17 16  1  0
 17 26  1  0
 17 18  1  0
 19 13  1  0
 19 18  1  0
 20 13  2  0
 21 22  1  0
 23 24  2  0
 24 43  1  0
 25 24  1  0
 25 28  1  0
 26 23  1  0
 26 27  1  0
 27 25  2  0
 28 29  1  0
 29 30  2  0
 31 34  1  0
 31 30  1  0
 32 31  2  0
 33 32  1  0
 33 28  2  0
 34 35  1  0
 35 36  1  0
 36 37  2  0
 38 37  1  0
 38 42  1  0
 39 38  2  0
 40 35  2  0
 40 39  1  0
 41 40  1  0
 43 44  1  0
 44 47  1  0
 44 46  1  0
 45 43  2  0
 48 49  1  0
 48 23  1  0
 50 48  1  0
 51  6  1  0
 51 52  1  0
 53 54  1  0
 53 52  2  0
 55 66  2  0
 56 54  1  0
 56 61  1  0
 57 65  1  0
 57 67  1  0
 58 64  1  0
 58 60  1  0
 59 65  1  0
 60 59  1  0
 61 60  2  0
 62 56  2  0
 63 62  1  0
 63 58  2  0
 64 57  1  0
 65 55  1  0
 67 69  2  0
 68 67  1  0
 70 68  1  0
 71 80  2  0
 71 76  1  0
 72 68  1  0
 72 76  1  0
 73 72  1  0
 74 75  1  0
 74 73  1  0
 75 71  1  0
 76 77  2  0
 77 78  1  0
 79 78  2  0
 80 79  1  0
 81 55  1  0
 81 86  1  0
 81 82  1  0
 82 85  1  1
 82 83  1  0
 84 82  1  0
 86 89  1  0
 87 91  1  0
 87 86  1  0
 88 87  2  0
 91 90  1  0
 93 91  1  0
 93 94  1  0
 93 92  1  0
M  ISO  4  13 100  21 100  53 101  54 101
M  END
>  <TORSDO>  (58) 
F 19

>  <SCORE>  (58) 
-15.162

>  <name>  (58) 
57

>  <ligand_id>  (58) 
57

>  <original_smiles>  (58) 
[H]c1c([H])c([H])c2c(c1[H])C([H])([H])C([H])([H])C([H])([H])C2([H])N([H])C(=O)C1([H])N(C(=O)C([H])(N([H])C(=O)C([H])(N([H])C([H])([H])[H])C([H])([H])[H])C(C([H])([H])[H])(C([H])([H])[H])C([H])([H])[H])C([H])([H])c2c([H])c(OC([H])([H])C([H])([H])Oc3c([H])c(N([H])C(=O)N4C([H])([H])C([H])([H])C([H])([H])C([H])(n5nc(-c6c([H])c([H])c(Oc7c([H])c([H])c(F)c([H])c7F)c([H])c6[H])c(C(=O)N([H])[H])c5N([H])[H])C4([H])[H])c([H])c4c3C(=O)N(C([H])([H])[H])C4=O)c([H])c([H])c2C1([H])[H]

>  <smiles>  (58) 
[H]c1c([H])c([H])c2c(c1[H])C([H])([H])C([H])([H])C([H])([H])C2([H])N([H])C(=O)C1([H])N(C(=O)C([H])(N([H])C(=O)C([H])(N([H])C([H])([H])[H])C([H])([H])[H])C(C([H])([H])[H])(C([H])([H])[H])C([H])([H])[H])C([H])([H])c2c([H])c(OC([H])([H])C([H])([H])Oc3c([H])c(N([H])C(=O)N4C([H])([H])C([H])([H])C([H])([H])C([H])(n5nc(-c6c([H])c([H])c(Oc7c([H])c([H])c(F)c([H])c7F)c([H])c6[H])c(C(=O)N([H])[H])c5N([H])[H])C4([H])[H])c([H])c4c3C(=O)N(C([H])([H])[H])C4=O)c([H])c([H])c2C1([H])[H]

$$$$
58:0:0
     RDKit          3D

 91 99  0  0  1  0  0  0  0  0999 V2000
  -29.2300  -21.6130   19.9120 C   0  0  0  0  0  2  0  0  0  0  0  0
  -28.6790  -22.7960   20.7600 C   0  0  0  0  0  2  0  0  0  0  0  0
  -28.8490  -24.2090   20.1450 C   0  0  0  0  0  0  0  0  0  0  0  0
  -29.4560  -24.3820   19.0810 O   0  0  0  0  0  0  0  0  0  0  0  0
  -28.2270  -25.3950   20.9190 C   0  0  0  0  0  2  0  0  0  0  0  0
  -28.3890  -26.6710   20.2520 O   0  0  0  0  0  0  0  0  0  0  0  0
  -24.5720  -31.8980   23.2630 C   0  0  0  0  0  0  0  0  0  0  0  0
  -27.2440  -27.4400   20.2250 C   0  0  0  0  0  0  0  0  0  0  0  0
  -23.3820  -30.4920   21.6130 C   0  0  0  0  0  3  0  0  0  0  0  0
  -24.8520  -28.9530   20.2030 C   0  0  0  0  0  0  0  0  0  0  0  0
  -25.9110  -30.8520   21.4360 C   0  0  0  0  0  2  0  0  0  0  0  0
  -26.0060  -29.4800   20.7990 C   0  0  0  0  0  0  0  0  0  0  0  0
  -27.2080  -28.7330   20.8010 C   0  0  0  0  0  3  0  0  0  0  0  0
  -26.0760  -26.9330   19.6180 C   0  0  0  0  0  3  0  0  0  0  0  0
  -24.8820  -27.6810   19.6070 C   0  0  0  0  0  3  0  0  0  0  0  0
  -23.6060  -29.8110   20.2360 C   0  0  0  0  0  2  0  0  0  0  0  0
  -24.6400  -31.0960   22.1630 N   0  0  0  0  0  0  0  0  0  0  0  0
  -23.4850  -32.1700   23.7930 O   0  0  0  0  0  0  0  0  0  0  0  0
  -22.7230  -29.4730   22.5690 C   0  0  0  0  0  0  0  0  0  0  0  0
  -21.3980  -29.2940   22.4340 N   0  0  0  0  0  0  0  0  0  0  0  0
  -23.3990  -28.8460   23.3880 O   0  0  0  0  0  0  0  0  0  0  0  0
  -20.9140  -29.8530   21.7450 H   0  0  0  0  0  0  0  0  0  0  0  0
  -18.0160  -28.1160   22.9170 C   0  0  0  0  0  0  0  0  0  0  0  0
  -20.5740  -28.3590   23.1980 C   0  0  0  0  0  3  0  0  0  0  0  0
  -20.6710  -26.9290   22.6170 C   0  0  0  0  0  2  0  0  0  0  0  0
  -19.5710  -26.6160   21.5980 C   0  0  0  0  0  2  0  0  0  0  0  0
  -18.1880  -26.7670   22.2370 C   0  0  0  0  0  2  0  0  0  0  0  0
  -19.1380  -28.8700   23.3540 C   0  0  0  0  0  0  0  0  0  0  0  0
  -18.9240  -30.1330   23.9480 C   0  0  0  0  0  3  0  0  0  0  0  0
  -17.6220  -30.6410   24.1110 C   0  0  0  0  0  3  0  0  0  0  0  0
  -16.5150  -29.8840   23.6900 C   0  0  0  0  0  3  0  0  0  0  0  0
  -16.7130  -28.6230   23.1000 C   0  0  0  0  0  3  0  0  0  0  0  0
  -25.8520  -32.5310   23.8950 C   0  0  0  0  0  3  0  0  0  0  0  0
  -25.5440  -33.9340   24.2050 N   0  0  0  0  0  0  0  0  0  0  0  0
  -25.8940  -34.9760   23.4400 C   0  0  0  0  0  0  0  0  0  0  0  0
  -26.5780  -34.8580   22.4200 O   0  0  0  0  0  0  0  0  0  0  0  0
  -24.9390  -34.1010   24.9950 H   0  0  0  0  0  0  0  0  0  0  0  0
  -24.1810  -36.7730   23.0340 C   0  0  0  0  0  1  0  0  0  0  0  0
  -25.4040  -36.3720   23.8730 C   0  0  0  0  0  3  0  0  0  0  0  0
  -27.5270  -37.2540   24.7370 C   0  0  0  0  0  1  0  0  0  0  0  0
  -26.4450  -37.4180   23.7700 N   0  0  0  0  0  0  0  0  0  0  0  0
  -26.0400  -38.3420   23.8990 H   0  0  0  0  0  0  0  0  0  0  0  0
  -26.3510  -31.7710   25.1840 C   0  0  1  0  0  0  0  0  0  0  0  0
  -25.2450  -31.5460   26.2410 C   0  0  0  0  0  1  0  0  0  0  0  0
  -26.9340  -30.3890   24.8090 C   0  0  0  0  0  1  0  0  0  0  0  0
  -27.4960  -32.5690   25.8520 C   0  0  0  0  0  1  0  0  0  0  0  0
  -28.8480  -20.3220   20.4430 O   0  0  0  0  0  0  0  0  0  0  0  0
  -32.0660  -18.6100   21.2740 C   0  0  0  0  0  3  0  0  0  0  0  0
  -31.6830  -17.2610   21.1540 C   0  0  0  0  0  3  0  0  0  0  0  0
  -31.1390  -19.6430   21.0380 C   0  0  0  0  0  3  0  0  0  0  0  0
  -29.4250  -17.9730   20.5870 C   0  0  0  0  0  3  0  0  0  0  0  0
  -30.3580  -16.9180   20.7990 C   0  0  0  0  0  0  0  0  0  0  0  0
  -29.8050  -19.3420   20.6750 C   0  0  0  0  0  0  0  0  0  0  0  0
  -30.6320  -14.5040   20.1690 C   0  0  0  0  0  0  0  0  0  0  0  0
  -30.2630  -12.3690   18.9840 C   0  0  0  0  0  2  0  0  0  0  0  0
  -29.2700  -12.6050   17.8270 C   0  0  0  0  0  2  0  0  0  0  0  0
  -27.8180  -12.4620   18.3200 C   0  0  0  0  0  2  0  0  0  0  0  0
  -27.5410  -13.2710   19.6160 C   0  0  0  0  0  3  0  0  0  0  0  0
  -28.6440  -13.0280   20.6710 C   0  0  0  0  0  2  0  0  0  0  0  0
  -29.9400  -13.3380   20.0450 N   0  0  0  0  0  0  0  0  0  0  0  0
  -31.7530  -14.6550   19.6770 O   0  0  0  0  0  0  0  0  0  0  0  0
  -29.9420  -15.5450   20.6960 N   0  0  0  0  0  0  0  0  0  0  0  0
  -28.9830  -15.3430   20.9330 H   0  0  0  0  0  0  0  0  0  0  0  0
  -25.1730  -13.8700   20.4260 C   0  0  0  0  0  0  0  0  0  0  0  0
  -24.1220  -13.0940   20.8330 C   0  0  0  0  0  0  0  0  0  0  0  0
  -24.5820  -11.7430   20.7740 C   0  0  0  0  0  0  0  0  0  0  0  0
  -26.2100  -12.9910   20.1480 N   0  0  0  0  0  0  0  0  0  0  0  0
  -25.8600  -11.7070   20.4150 N   0  0  0  0  0  0  0  0  0  0  0  0
  -23.8650  -10.4790   20.9850 C   0  0  0  0  0  0  0  0  0  0  0  0
  -24.3270   -9.5110   21.9040 C   0  0  0  0  0  3  0  0  0  0  0  0
  -23.6090   -8.3110   22.1020 C   0  0  0  0  0  3  0  0  0  0  0  0
  -22.4160   -8.0710   21.3800 C   0  0  0  0  0  0  0  0  0  0  0  0
  -21.9730   -9.0270   20.4490 C   0  0  0  0  0  3  0  0  0  0  0  0
  -22.6920  -10.2180   20.2500 C   0  0  0  0  0  3  0  0  0  0  0  0
  -21.6680   -6.9250   21.4870 O   0  0  0  0  0  0  0  0  0  0  0  0
  -21.6520   -6.1810   22.6400 C   0  0  0  0  0  0  0  0  0  0  0  0
  -21.2480   -6.7310   23.8760 C   0  0  0  0  0  3  0  0  0  0  0  0
  -21.1810   -5.9130   25.0220 C   0  0  0  0  0  3  0  0  0  0  0  0
  -21.5050   -4.5470   24.9330 C   0  0  0  0  0  0  0  0  0  0  0  0
  -21.9020   -3.9960   23.7010 C   0  0  0  0  0  3  0  0  0  0  0  0
  -21.9720   -4.8100   22.5580 C   0  0  0  0  0  0  0  0  0  0  0  0
  -22.3340   -4.2700   21.3700 F   0  0  0  0  0  0  0  0  0  0  0  0
  -21.4330   -3.7590   26.0320 F   0  0  0  0  0  0  0  0  0  0  0  0
  -22.7370  -13.5690   21.1630 C   0  0  0  0  0  0  0  0  0  0  0  0
  -22.0430  -12.8640   22.0510 N   0  0  0  0  0  0  0  0  0  0  0  0
  -22.2780  -14.5980   20.6700 O   0  0  0  0  0  0  0  0  0  0  0  0
  -22.4270  -12.0300   22.4710 H   0  0  0  0  0  0  0  0  0  0  0  0
  -21.1150  -13.1630   22.3150 H   0  0  0  0  0  0  0  0  0  0  0  0
  -25.3300  -15.2410   20.2480 N   0  0  0  0  0  0  0  0  0  0  0  0
  -24.5630  -15.8910   20.3850 H   0  0  0  0  0  0  0  0  0  0  0  0
  -26.1550  -15.6810   19.8620 H   0  0  0  0  0  0  0  0  0  0  0  0
  1 47  1  0
  1  2  1  0
  3  2  1  0
  3  5  1  0
  4  3  2  0
  6  5  1  0
  7 18  2  0
  8  6  1  0
  8 13  1  0
  9 17  1  0
  9 19  1  0
 10 16  1  0
 10 12  1  0
 11 17  1  0
 12 13  2  0
 12 11  1  0
 14  8  2  0
 15 14  1  0
 15 10  2  0
 16  9  1  0
 17  7  1  0
 19 21  2  0
 20 19  1  0
 22 20  1  0
 23 32  2  0
 23 28  1  0
 24 20  1  0
 24 28  1  0
 25 24  1  0
 26 27  1  0
 26 25  1  0
 27 23  1  0
 28 29  2  0
 29 30  1  0
 31 30  2  0
 32 31  1  0
 33  7  1  0
 33 34  1  0
 33 43  1  0
 34 37  1  0
 35 39  1  0
 35 34  1  0
 36 35  2  0
 39 38  1  0
 41 39  1  0
 41 42  1  0
 41 40  1  0
 43 46  1  1
 43 44  1  0
 45 43  1  0
 47 53  1  0
 49 48  1  0
 50 48  2  0
 51 53  2  0
 51 52  1  0
 52 49  2  0
 53 50  1  0
 54 62  1  0
 55 60  1  0
 56 57  1  0
 56 55  1  0
 58 57  1  0
 58 67  1  0
 58 59  1  0
 60 54  1  0
 60 59  1  0
 61 54  2  0
 62 52  1  0
 62 63  1  0
 64 65  2  0
 65 84  1  0
 66 65  1  0
 66 69  1  0
 67 68  1  0
 67 64  1  0
 68 66  2  0
 69 70  1  0
 70 71  2  0
 72 75  1  0
 72 71  1  0
 73 72  2  0
 74 73  1  0
 74 69  2  0
 75 76  1  0
 76 77  1  0
 77 78  2  0
 79 78  1  0
 79 83  1  0
 80 79  2  0
 81 76  2  0
 81 80  1  0
 82 81  1  0
 84 85  1  0
 85 88  1  0
 85 87  1  0
 86 84  2  0
 89 90  1  0
 89 64  1  0
 91 89  1  0
M  ISO  4   5 101   6 101  54 100  62 100
M  END
>  <TORSDO>  (59) 
F 21

>  <SCORE>  (59) 
-13.598

>  <name>  (59) 
58

>  <ligand_id>  (59) 
58

>  <original_smiles>  (59) 
[H]c1c([H])c(OC([H])([H])C([H])([H])C(=O)C([H])([H])Oc2c([H])c([H])c3c(c2[H])C([H])([H])N(C(=O)C([H])(N([H])C(=O)C([H])(N([H])C([H])([H])[H])C([H])([H])[H])C(C([H])([H])[H])(C([H])([H])[H])C([H])([H])[H])C([H])(C(=O)N([H])C2([H])c4c([H])c([H])c([H])c([H])c4C([H])([H])C([H])([H])C2([H])[H])C3([H])[H])c([H])c(N([H])C(=O)N2C([H])([H])C([H])([H])C([H])([H])C([H])(n3nc(-c4c([H])c([H])c(Oc5c([H])c([H])c(F)c([H])c5F)c([H])c4[H])c(C(=O)N([H])[H])c3N([H])[H])C2([H])[H])c1[H]

>  <smiles>  (59) 
[H]c1c([H])c(OC([H])([H])C([H])([H])C(=O)C([H])([H])Oc2c([H])c([H])c3c(c2[H])C([H])([H])N(C(=O)C([H])(N([H])C(=O)C([H])(N([H])C([H])([H])[H])C([H])([H])[H])C(C([H])([H])[H])(C([H])([H])[H])C([H])([H])[H])C([H])(C(=O)N([H])C2([H])c4c([H])c([H])c([H])c([H])c4C([H])([H])C([H])([H])C2([H])[H])C3([H])[H])c([H])c(N([H])C(=O)N2C([H])([H])C([H])([H])C([H])([H])C([H])(n3nc(-c4c([H])c([H])c(Oc5c([H])c([H])c(F)c([H])c5F)c([H])c4[H])c(C(=O)N([H])[H])c3N([H])[H])C2([H])[H])c1[H]

$$$$
59:0:0
     RDKit          3D

 93101  0  0  1  0  0  0  0  0999 V2000
  -30.8130  -17.3570   19.8680 C   0  0  0  0  0  3  0  0  0  0  0  0
  -32.7130  -17.2560   18.3610 C   0  0  0  0  0  3  0  0  0  0  0  0
  -30.7090  -18.7550   19.6830 C   0  0  0  0  0  0  0  0  0  0  0  0
  -31.8040  -16.5940   19.2190 C   0  0  0  0  0  0  0  0  0  0  0  0
  -31.6310  -19.4210   18.8340 C   0  0  0  0  0  0  0  0  0  0  0  0
  -32.6310  -18.6550   18.1710 C   0  0  0  0  0  0  0  0  0  0  0  0
  -33.5470  -19.2470   17.3680 F   0  0  0  0  0  0  0  0  0  0  0  0
  -32.2620  -14.1390   18.8050 C   0  0  0  0  0  0  0  0  0  0  0  0
  -31.6640  -11.8290   18.1560 C   0  0  0  0  0  2  0  0  0  0  0  0
  -30.5230  -11.8660   17.1160 C   0  0  0  0  0  2  0  0  0  0  0  0
  -29.1410  -11.9730   17.7970 C   0  0  0  0  0  2  0  0  0  0  0  0
  -29.0960  -13.0830   18.8820 C   0  0  0  0  0  3  0  0  0  0  0  0
  -30.3030  -12.9320   19.8320 C   0  0  0  0  0  2  0  0  0  0  0  0
  -31.5350  -13.0090   19.0200 N   0  0  0  0  0  0  0  0  0  0  0  0
  -33.2330  -14.1890   18.0420 O   0  0  0  0  0  0  0  0  0  0  0  0
  -31.7960  -15.1960   19.4960 N   0  0  0  0  0  0  0  0  0  0  0  0
  -31.0970  -14.9120   20.1670 H   0  0  0  0  0  0  0  0  0  0  0  0
  -27.1100  -14.1310   20.1470 C   0  0  0  0  0  0  0  0  0  0  0  0
  -25.9670  -13.5830   20.6660 C   0  0  0  0  0  0  0  0  0  0  0  0
  -26.0530  -12.1800   20.4130 C   0  0  0  0  0  0  0  0  0  0  0  0
  -27.8300  -13.0720   19.6130 N   0  0  0  0  0  0  0  0  0  0  0  0
  -27.2050  -11.8860   19.8250 N   0  0  0  0  0  0  0  0  0  0  0  0
  -25.0780  -11.1050   20.6420 C   0  0  0  0  0  0  0  0  0  0  0  0
  -25.3410  -10.0500   21.5420 C   0  0  0  0  0  3  0  0  0  0  0  0
  -24.3820   -9.0370   21.7580 C   0  0  0  0  0  3  0  0  0  0  0  0
  -23.1440   -9.0750   21.0740 C   0  0  0  0  0  0  0  0  0  0  0  0
  -22.8970  -10.1160   20.1620 C   0  0  0  0  0  3  0  0  0  0  0  0
  -23.8560  -11.1190   19.9430 C   0  0  0  0  0  3  0  0  0  0  0  0
  -22.1650   -8.1190   21.2000 O   0  0  0  0  0  0  0  0  0  0  0  0
  -21.9120   -7.5010   22.3990 C   0  0  0  0  0  0  0  0  0  0  0  0
  -21.4280   -8.2140   23.5170 C   0  0  0  0  0  3  0  0  0  0  0  0
  -21.1140   -7.5300   24.7070 C   0  0  0  0  0  3  0  0  0  0  0  0
  -21.2750   -6.1330   24.7800 C   0  0  0  0  0  0  0  0  0  0  0  0
  -21.7520   -5.4200   23.6660 C   0  0  0  0  0  3  0  0  0  0  0  0
  -22.0670   -6.1020   22.4770 C   0  0  0  0  0  0  0  0  0  0  0  0
  -22.5050   -5.4070   21.4010 F   0  0  0  0  0  0  0  0  0  0  0  0
  -20.9660   -5.4720   25.9210 F   0  0  0  0  0  0  0  0  0  0  0  0
  -24.8160  -14.3270   21.2810 C   0  0  0  0  0  0  0  0  0  0  0  0
  -24.1110  -13.7020   22.2180 N   0  0  0  0  0  0  0  0  0  0  0  0
  -24.5630  -15.4890   20.9670 O   0  0  0  0  0  0  0  0  0  0  0  0
  -24.3290  -12.7550   22.4920 H   0  0  0  0  0  0  0  0  0  0  0  0
  -23.3430  -14.1790   22.6690 H   0  0  0  0  0  0  0  0  0  0  0  0
  -27.5850  -15.4360   20.0630 N   0  0  0  0  0  0  0  0  0  0  0  0
  -27.0510  -16.2290   20.4010 H   0  0  0  0  0  0  0  0  0  0  0  0
  -28.4490  -15.7050   19.6100 H   0  0  0  0  0  0  0  0  0  0  0  0
  -28.9240  -19.1190   21.4320 C   0  0  0  0  0  2  0  0  0  0  0  0
  -29.6620  -19.5310   20.3860 C   0  0  0  0  0  3  0  0  0  0  0  0
  -31.5170  -20.8000   18.7550 O   0  0  0  0  0  0  0  0  0  0  0  0
  -31.1980  -21.4450   17.5230 C   0  0  0  0  0  2  0  0  0  0  0  0
  -30.8950  -22.9150   17.8820 C   0  0  0  0  0  2  0  0  0  0  0  0
  -30.2980  -23.7900   16.7530 C   0  0  0  0  0  2  0  0  0  0  0  0
  -29.7390  -25.1180   17.3110 C   0  0  0  0  0  2  0  0  0  0  0  0
  -29.0870  -25.9150   16.3160 O   0  0  0  0  0  0  0  0  0  0  0  0
  -24.7970  -28.4700   21.3970 C   0  0  0  0  0  0  0  0  0  0  0  0
  -27.8210  -26.3150   16.6730 C   0  0  0  0  0  0  0  0  0  0  0  0
  -23.6780  -27.6010   19.3700 C   0  0  0  0  0  3  0  0  0  0  0  0
  -25.2060  -27.1060   17.3890 C   0  0  0  0  0  0  0  0  0  0  0  0
  -26.0460  -28.5580   19.2430 C   0  0  0  0  0  2  0  0  0  0  0  0
  -26.3070  -27.6040   18.0980 C   0  0  0  0  0  0  0  0  0  0  0  0
  -27.6180  -27.2160   17.7410 C   0  0  0  0  0  3  0  0  0  0  0  0
  -26.7060  -25.8210   15.9650 C   0  0  0  0  0  3  0  0  0  0  0  0
  -25.3990  -26.2120   16.3200 C   0  0  0  0  0  3  0  0  0  0  0  0
  -23.8380  -27.5810   17.8270 C   0  0  0  0  0  2  0  0  0  0  0  0
  -24.8630  -28.2040   20.0620 N   0  0  0  0  0  0  0  0  0  0  0  0
  -23.7580  -28.2650   22.0390 O   0  0  0  0  0  0  0  0  0  0  0  0
  -23.3500  -26.1690   19.8520 C   0  0  0  0  0  0  0  0  0  0  0  0
  -22.0850  -25.7540   19.6750 N   0  0  0  0  0  0  0  0  0  0  0  0
  -24.2250  -25.4510   20.3430 O   0  0  0  0  0  0  0  0  0  0  0  0
  -21.4270  -26.4020   19.2680 H   0  0  0  0  0  0  0  0  0  0  0  0
  -19.0770  -23.7580   19.7870 C   0  0  0  0  0  0  0  0  0  0  0  0
  -21.5610  -24.4320   20.0180 C   0  0  0  0  0  3  0  0  0  0  0  0
  -21.8370  -23.4140   18.8880 C   0  0  0  0  0  2  0  0  0  0  0  0
  -20.6820  -23.2990   17.8870 C   0  0  0  0  0  2  0  0  0  0  0  0
  -19.3960  -22.8680   18.5980 C   0  0  0  0  0  2  0  0  0  0  0  0
  -20.0910  -24.5050   20.4430 C   0  0  0  0  0  0  0  0  0  0  0  0
  -19.7330  -25.3440   21.5220 C   0  0  0  0  0  3  0  0  0  0  0  0
  -18.3940  -25.4400   21.9450 C   0  0  0  0  0  3  0  0  0  0  0  0
  -17.3970  -24.6890   21.3000 C   0  0  0  0  0  3  0  0  0  0  0  0
  -17.7390  -23.8480   20.2260 C   0  0  0  0  0  3  0  0  0  0  0  0
  -26.0120  -29.0680   22.1720 C   0  0  0  0  0  3  0  0  0  0  0  0
  -25.5030  -30.1590   23.0150 N   0  0  0  0  0  0  0  0  0  0  0  0
  -25.6630  -31.4620   22.7480 C   0  0  0  0  0  0  0  0  0  0  0  0
  -26.3280  -31.8730   21.7910 O   0  0  0  0  0  0  0  0  0  0  0  0
  -24.8990  -29.8940   23.7780 H   0  0  0  0  0  0  0  0  0  0  0  0
  -23.6910  -32.9940   23.0410 C   0  0  0  0  0  1  0  0  0  0  0  0
  -24.9810  -32.4700   23.6930 C   0  0  0  0  0  3  0  0  0  0  0  0
  -26.9490  -33.2310   24.9490 C   0  0  0  0  0  1  0  0  0  0  0  0
  -25.8500  -33.6080   24.0640 N   0  0  0  0  0  0  0  0  0  0  0  0
  -25.3120  -34.3410   24.5180 H   0  0  0  0  0  0  0  0  0  0  0  0
  -26.7820  -28.0010   23.0440 C   0  0  1  0  0  0  0  0  0  0  0  0
  -25.8630  -27.1850   23.9840 C   0  0  0  0  0  1  0  0  0  0  0  0
  -27.5410  -27.0020   22.1370 C   0  0  0  0  0  1  0  0  0  0  0  0
  -27.8520  -28.7070   23.9090 C   0  0  0  0  0  1  0  0  0  0  0  0
  2  4  1  0
  3  1  1  0
  3 47  1  0
  4 16  1  0
  4  1  2  0
  5  3  2  0
  6  2  2  0
  6  5  1  0
  7  6  1  0
  8 14  1  0
  8 16  1  0
  9 14  1  0
 10 11  1  0
 10  9  1  0
 12 11  1  0
 12 21  1  0
 12 13  1  0
 14 13  1  0
 15  8  2  0
 16 17  1  0
 18 19  2  0
 19 38  1  0
 20 23  1  0
 20 19  1  0
 21 22  1  0
 21 18  1  0
 22 20  2  0
 23 24  1  0
 24 25  2  0
 26 29  1  0
 26 25  1  0
 27 26  2  0
 28 27  1  0
 28 23  2  0
 29 30  1  0
 30 35  2  0
 30 31  1  0
 31 32  2  0
 32 33  1  0
 33 37  1  0
 34 33  2  0
 35 34  1  0
 36 35  1  0
 38 39  1  0
 39 41  1  0
 39 42  1  0
 40 38  2  0
 43 18  1  0
 43 44  1  0
 45 43  1  0
 47 46  2  0
 48  5  1  0
 49 50  1  0
 49 48  1  0
 51 52  1  0
 51 50  1  0
 53 55  1  0
 53 52  1  0
 54 65  2  0
 55 60  1  0
 56 66  1  0
 56 64  1  0
 57 63  1  0
 57 59  1  0
 58 64  1  0
 59 58  1  0
 60 59  2  0
 61 62  1  0
 61 55  2  0
 62 57  2  0
 63 56  1  0
 64 54  1  0
 66 68  2  0
 67 66  1  0
 69 67  1  0
 70 79  2  0
 70 75  1  0
 71 67  1  0
 71 75  1  0
 72 71  1  0
 73 74  1  0
 73 72  1  0
 74 70  1  0
 75 76  2  0
 76 77  1  0
 78 77  2  0
 79 78  1  0
 80 54  1  0
 80 81  1  0
 80 90  1  0
 81 84  1  0
 82 81  1  0
 82 86  1  0
 83 82  2  0
 86 85  1  0
 86 88  1  0
 88 89  1  0
 88 87  1  0
 90 93  1  1
 90 91  1  0
 92 90  1  0
M  ISO  4   8 100  16 100  52 101  53 101
M  END
>  <TORSDO>  (60) 
F 22

>  <SCORE>  (60) 
-5.735

>  <name>  (60) 
59

>  <ligand_id>  (60) 
59

>  <original_smiles>  (60) 
[H]C([H])=C([H])c1c([H])c(N([H])C(=O)N2C([H])([H])C([H])([H])C([H])([H])C([H])(n3nc(-c4c([H])c([H])c(Oc5c([H])c([H])c(F)c([H])c5F)c([H])c4[H])c(C(=O)N([H])[H])c3N([H])[H])C2([H])[H])c([H])c(F)c1OC([H])([H])C([H])([H])C([H])([H])C([H])([H])Oc1c([H])c([H])c2c(c1[H])C([H])([H])N(C(=O)C([H])(N([H])C(=O)C([H])(N([H])C([H])([H])[H])C([H])([H])[H])C(C([H])([H])[H])(C([H])([H])[H])C([H])([H])[H])C([H])(C(=O)N([H])C1([H])c3c([H])c([H])c([H])c([H])c3C([H])([H])C([H])([H])C1([H])[H])C2([H])[H]

>  <smiles>  (60) 
[H]C([H])=C([H])c1c([H])c(N([H])C(=O)N2C([H])([H])C([H])([H])C([H])([H])C([H])(n3nc(-c4c([H])c([H])c(Oc5c([H])c([H])c(F)c([H])c5F)c([H])c4[H])c(C(=O)N([H])[H])c3N([H])[H])C2([H])[H])c([H])c(F)c1OC([H])([H])C([H])([H])C([H])([H])C([H])([H])Oc1c([H])c([H])c2c(c1[H])C([H])([H])N(C(=O)C([H])(N([H])C(=O)C([H])(N([H])C([H])([H])[H])C([H])([H])[H])C(C([H])([H])[H])(C([H])([H])[H])C([H])([H])[H])C([H])(C(=O)N([H])C1([H])c3c([H])c([H])c([H])c([H])c3C([H])([H])C([H])([H])C1([H])[H])C2([H])[H]

$$$$
60:0:0
     RDKit          3D

 94102  0  0  1  0  0  0  0  0999 V2000
  -28.6060  -20.2080   20.6280 C   0  0  0  0  0  3  0  0  0  0  0  0
  -31.0810  -19.7960   19.4670 C   0  0  0  0  0  3  0  0  0  0  0  0
  -29.3460  -21.3700   20.2640 C   0  0  0  0  0  0  0  0  0  0  0  0
  -29.0770  -18.8730   20.4370 C   0  0  0  0  0  0  0  0  0  0  0  0
  -30.3440  -18.6350   19.8390 C   0  0  0  0  0  0  0  0  0  0  0  0
  -30.6130  -21.1330   19.6700 C   0  0  0  0  0  0  0  0  0  0  0  0
  -28.2110  -17.7240   20.9240 C   0  0  0  0  0  1  0  0  0  0  0  0
  -28.7730  -22.7450   20.5890 C   0  0  0  0  0  3  0  0  0  0  0  0
  -29.2780  -24.0220   20.5170 C   0  0  0  0  0  3  0  0  0  0  0  0
  -28.5170  -25.2960   20.9950 C   0  0  0  0  0  2  0  0  0  0  0  0
  -28.8160  -26.5950   20.3710 O   0  0  0  0  0  0  0  0  0  0  0  0
  -24.7980  -31.8410   23.2010 C   0  0  0  0  0  0  0  0  0  0  0  0
  -27.7040  -27.4270   20.2610 C   0  0  0  0  0  0  0  0  0  0  0  0
  -23.7210  -30.4160   21.4960 C   0  0  0  0  0  3  0  0  0  0  0  0
  -25.2910  -28.9320   20.1300 C   0  0  0  0  0  0  0  0  0  0  0  0
  -26.2480  -30.8350   21.4310 C   0  0  0  0  0  2  0  0  0  0  0  0
  -26.4090  -29.4670   20.7850 C   0  0  0  0  0  0  0  0  0  0  0  0
  -27.6230  -28.7240   20.8430 C   0  0  0  0  0  3  0  0  0  0  0  0
  -26.5730  -26.9420   19.5710 C   0  0  0  0  0  3  0  0  0  0  0  0
  -25.3730  -27.6710   19.5150 C   0  0  0  0  0  3  0  0  0  0  0  0
  -24.0230  -29.7580   20.1220 C   0  0  0  0  0  2  0  0  0  0  0  0
  -24.9370  -31.0460   22.1010 N   0  0  0  0  0  0  0  0  0  0  0  0
  -23.6810  -32.0770   23.6870 O   0  0  0  0  0  0  0  0  0  0  0  0
  -23.0500  -29.3670   22.4160 C   0  0  0  0  0  0  0  0  0  0  0  0
  -21.7330  -29.1650   22.2430 N   0  0  0  0  0  0  0  0  0  0  0  0
  -23.7160  -28.7400   23.2440 O   0  0  0  0  0  0  0  0  0  0  0  0
  -21.2560  -29.7250   21.5500 H   0  0  0  0  0  0  0  0  0  0  0  0
  -18.3520  -27.9570   22.6690 C   0  0  0  0  0  0  0  0  0  0  0  0
  -20.9070  -28.2000   22.9710 C   0  0  0  0  0  3  0  0  0  0  0  0
  -21.0140  -26.7920   22.3430 C   0  0  0  0  0  2  0  0  0  0  0  0
  -19.9210  -26.5090   21.3070 C   0  0  0  0  0  2  0  0  0  0  0  0
  -18.5340  -26.6330   21.9440 C   0  0  0  0  0  2  0  0  0  0  0  0
  -19.4680  -28.7000   23.1370 C   0  0  0  0  0  0  0  0  0  0  0  0
  -19.2470  -29.9410   23.7730 C   0  0  0  0  0  3  0  0  0  0  0  0
  -17.9420  -30.4370   23.9490 C   0  0  0  0  0  3  0  0  0  0  0  0
  -16.8400  -29.6910   23.4970 C   0  0  0  0  0  3  0  0  0  0  0  0
  -17.0460  -28.4530   22.8630 C   0  0  0  0  0  3  0  0  0  0  0  0
  -26.0280  -32.5090   23.8870 C   0  0  0  0  0  3  0  0  0  0  0  0
  -25.6630  -33.8990   24.1960 N   0  0  0  0  0  0  0  0  0  0  0  0
  -25.9870  -34.9560   23.4400 C   0  0  0  0  0  0  0  0  0  0  0  0
  -26.6970  -34.8670   22.4340 O   0  0  0  0  0  0  0  0  0  0  0  0
  -25.0360  -34.0390   24.9740 H   0  0  0  0  0  0  0  0  0  0  0  0
  -24.2090  -36.6840   23.0140 C   0  0  0  0  0  1  0  0  0  0  0  0
  -25.4390  -36.3300   23.8660 C   0  0  0  0  0  3  0  0  0  0  0  0
  -27.5080  -37.3080   24.7570 C   0  0  0  0  0  1  0  0  0  0  0  0
  -26.4360  -37.4190   23.7720 N   0  0  0  0  0  0  0  0  0  0  0  0
  -25.9910  -38.3270   23.8880 H   0  0  0  0  0  0  0  0  0  0  0  0
  -26.4970  -31.7540   25.1910 C   0  0  1  0  0  0  0  0  0  0  0  0
  -25.3530  -31.4680   26.1910 C   0  0  0  0  0  1  0  0  0  0  0  0
  -27.1600  -30.4030   24.8350 C   0  0  0  0  0  1  0  0  0  0  0  0
  -27.5710  -32.5910   25.9250 C   0  0  0  0  0  1  0  0  0  0  0  0
  -31.0570  -17.2410   19.6600 C   0  0  0  0  0  2  0  0  0  0  0  0
  -31.1160  -14.7270   19.6840 C   0  0  0  0  0  0  0  0  0  0  0  0
  -30.7820  -12.4350   18.8100 C   0  0  0  0  0  2  0  0  0  0  0  0
  -29.7590  -12.4770   17.6590 C   0  0  0  0  0  2  0  0  0  0  0  0
  -28.3260  -12.3360   18.2090 C   0  0  0  0  0  2  0  0  0  0  0  0
  -28.0460  -13.2780   19.4120 C   0  0  0  0  0  3  0  0  0  0  0  0
  -29.1910  -13.2550   20.4470 C   0  0  0  0  0  2  0  0  0  0  0  0
  -30.4420  -13.5370   19.7330 N   0  0  0  0  0  0  0  0  0  0  0  0
  -32.2660  -14.7810   19.2450 O   0  0  0  0  0  0  0  0  0  0  0  0
  -30.4340  -15.8950   19.9080 N   0  0  0  0  0  0  0  0  0  0  0  0
  -29.4670  -15.8480   20.1810 H   0  0  0  0  0  0  0  0  0  0  0  0
  -25.7660  -13.8940   20.4190 C   0  0  0  0  0  0  0  0  0  0  0  0
  -24.7170  -13.1290   20.8540 C   0  0  0  0  0  0  0  0  0  0  0  0
  -25.1240  -11.7710   20.6920 C   0  0  0  0  0  0  0  0  0  0  0  0
  -26.7500  -13.0010   20.0230 N   0  0  0  0  0  0  0  0  0  0  0  0
  -26.3750  -11.7140   20.2470 N   0  0  0  0  0  0  0  0  0  0  0  0
  -24.3750  -10.5210   20.8780 C   0  0  0  0  0  0  0  0  0  0  0  0
  -24.7750   -9.5520   21.8240 C   0  0  0  0  0  3  0  0  0  0  0  0
  -24.0270   -8.3680   21.9990 C   0  0  0  0  0  3  0  0  0  0  0  0
  -22.8610   -8.1460   21.2290 C   0  0  0  0  0  0  0  0  0  0  0  0
  -22.4780   -9.1030   20.2720 C   0  0  0  0  0  3  0  0  0  0  0  0
  -23.2290  -10.2770   20.0960 C   0  0  0  0  0  3  0  0  0  0  0  0
  -22.0850   -7.0140   21.3130 O   0  0  0  0  0  0  0  0  0  0  0  0
  -21.8780   -6.3680   22.5060 C   0  0  0  0  0  0  0  0  0  0  0  0
  -21.2420   -7.0040   23.5930 C   0  0  0  0  0  3  0  0  0  0  0  0
  -20.9860   -6.2830   24.7780 C   0  0  0  0  0  3  0  0  0  0  0  0
  -21.3550   -4.9290   24.8730 C   0  0  0  0  0  0  0  0  0  0  0  0
  -21.9830   -4.2940   23.7880 C   0  0  0  0  0  3  0  0  0  0  0  0
  -22.2410   -5.0100   22.6060 C   0  0  0  0  0  0  0  0  0  0  0  0
  -22.8270   -4.3860   21.5560 F   0  0  0  0  0  0  0  0  0  0  0  0
  -21.1030   -4.2350   26.0070 F   0  0  0  0  0  0  0  0  0  0  0  0
  -23.3730  -13.6320   21.2960 C   0  0  0  0  0  0  0  0  0  0  0  0
  -22.7170  -12.9180   22.2030 N   0  0  0  0  0  0  0  0  0  0  0  0
  -22.9170  -14.6940   20.8730 O   0  0  0  0  0  0  0  0  0  0  0  0
  -23.0980  -12.0580   22.5690 H   0  0  0  0  0  0  0  0  0  0  0  0
  -21.8200  -13.2390   22.5380 H   0  0  0  0  0  0  0  0  0  0  0  0
  -25.9570  -15.2660   20.3020 N   0  0  0  0  0  0  0  0  0  0  0  0
  -25.2190  -15.9310   20.5090 H   0  0  0  0  0  0  0  0  0  0  0  0
  -26.7560  -15.6960   19.8560 H   0  0  0  0  0  0  0  0  0  0  0  0
  -31.3390  -22.2390   19.2890 O   0  0  0  0  0  0  0  0  0  0  0  0
  -32.7520  -22.1420   19.2030 C   0  0  0  0  0  2  0  0  0  0  0  0
  -34.0900  -24.1490   19.9790 C   0  0  0  0  0  2  0  0  0  0  0  0
  -33.3230  -23.5370   19.0630 C   0  0  0  0  0  3  0  0  0  0  0  0
  2  6  2  0
  2  5  1  0
  3  8  1  0
  3  1  2  0
  4  1  1  0
  4  7  1  0
  5  4  2  0
  6  3  1  0
  9  8  2  0
  9 10  1  0
 11 10  1  0
 12 23  2  0
 13 11  1  0
 13 18  1  0
 14 22  1  0
 14 24  1  0
 15 17  1  0
 16 22  1  0
 17 18  2  0
 17 16  1  0
 19 13  2  0
 20 19  1  0
 20 15  2  0
 21 15  1  0
 21 14  1  0
 22 12  1  0
 24 26  2  0
 25 24  1  0
 27 25  1  0
 28 37  2  0
 28 33  1  0
 29 25  1  0
 29 33  1  0
 30 29  1  0
 31 32  1  0
 31 30  1  0
 32 28  1  0
 33 34  2  0
 34 35  1  0
 36 35  2  0
 37 36  1  0
 38 12  1  0
 38 39  1  0
 38 48  1  0
 39 42  1  0
 40 44  1  0
 40 39  1  0
 41 40  2  0
 44 43  1  0
 46 44  1  0
 46 47  1  0
 46 45  1  0
 48 51  1  1
 48 49  1  0
 50 48  1  0
 52  5  1  0
 52 61  1  0
 53 59  1  0
 53 61  1  0
 54 59  1  0
 55 56  1  0
 55 54  1  0
 57 56  1  0
 57 66  1  0
 57 58  1  0
 59 58  1  0
 60 53  2  0
 61 62  1  0
 63 64  2  0
 64 83  1  0
 65 64  1  0
 65 68  1  0
 66 67  1  0
 66 63  1  0
 67 65  2  0
 68 69  1  0
 69 70  2  0
 71 74  1  0
 71 70  1  0
 72 71  2  0
 73 72  1  0
 73 68  2  0
 74 75  1  0
 75 80  2  0
 75 76  1  0
 76 77  2  0
 77 78  1  0
 78 82  1  0
 79 78  2  0
 80 79  1  0
 81 80  1  0
 83 84  1  0
 84 87  1  0
 84 86  1  0
 85 83  2  0
 88 63  1  0
 88 89  1  0
 90 88  1  0
 91  6  1  0
 92 91  1  0
 94 92  1  0
 94 93  2  0
M  ISO  4  10 101  11 101  53 100  61 100
M  END
>  <TORSDO>  (61) 
F 22

>  <SCORE>  (61) 
-11.995

>  <name>  (61) 
60

>  <ligand_id>  (61) 
60

>  <original_smiles>  (61) 
[H]C([H])=C([H])C([H])([H])Oc1c([H])c(C([H])([H])N([H])C(=O)N2C([H])([H])C([H])([H])C([H])([H])C([H])(n3nc(-c4c([H])c([H])c(Oc5c([H])c([H])c(F)c([H])c5F)c([H])c4[H])c(C(=O)N([H])[H])c3N([H])[H])C2([H])[H])c(C([H])([H])[H])c([H])c1C([H])=C([H])C([H])([H])Oc1c([H])c([H])c2c(c1[H])C([H])([H])N(C(=O)C([H])(N([H])C(=O)C([H])(N([H])C([H])([H])[H])C([H])([H])[H])C(C([H])([H])[H])(C([H])([H])[H])C([H])([H])[H])C([H])(C(=O)N([H])C1([H])c3c([H])c([H])c([H])c([H])c3C([H])([H])C([H])([H])C1([H])[H])C2([H])[H]

>  <smiles>  (61) 
[H]C([H])=C([H])C([H])([H])Oc1c([H])c(C([H])([H])N([H])C(=O)N2C([H])([H])C([H])([H])C([H])([H])C([H])(n3nc(-c4c([H])c([H])c(Oc5c([H])c([H])c(F)c([H])c5F)c([H])c4[H])c(C(=O)N([H])[H])c3N([H])[H])C2([H])[H])c(C([H])([H])[H])c([H])c1C([H])=C([H])C([H])([H])Oc1c([H])c([H])c2c(c1[H])C([H])([H])N(C(=O)C([H])(N([H])C(=O)C([H])(N([H])C([H])([H])[H])C([H])([H])[H])C(C([H])([H])[H])(C([H])([H])[H])C([H])([H])[H])C([H])(C(=O)N([H])C1([H])c3c([H])c([H])c([H])c([H])c3C([H])([H])C([H])([H])C1([H])[H])C2([H])[H]

$$$$
61:0:0
     RDKit          3D

 88 96  0  0  1  0  0  0  0  0999 V2000
  -28.3550  -19.7980   19.3020 C   0  0  0  0  0  3  0  0  0  0  0  0
  -28.0030  -21.2100   19.4210 C   0  0  0  0  0  0  0  0  0  0  0  0
  -29.2640  -19.3700   20.2480 C   0  0  0  0  0  3  0  0  0  0  0  0
  -28.7250  -21.8380   20.4160 C   0  0  0  0  0  0  0  0  0  0  0  0
  -29.4880  -20.6680   20.9460 O   0  0  0  0  0  0  0  0  0  0  0  0
  -29.9140  -17.9290   20.5230 C   0  0  0  0  0  3  0  0  0  0  0  0
  -29.6260  -16.5220   20.2740 C   0  0  0  0  0  3  0  0  0  0  0  0
  -30.4640  -15.1650   20.3810 C   0  0  0  0  0  0  0  0  0  0  0  0
  -30.4130  -12.7430   19.5150 C   0  0  0  0  0  2  0  0  0  0  0  0
  -29.5130  -12.5970   18.2630 C   0  0  0  0  0  2  0  0  0  0  0  0
  -28.0470  -12.3470   18.6640 C   0  0  0  0  0  2  0  0  0  0  0  0
  -27.5840  -13.3170   19.7780 C   0  0  0  0  0  3  0  0  0  0  0  0
  -28.6110  -13.4190   20.9230 C   0  0  0  0  0  2  0  0  0  0  0  0
  -29.8810  -13.8790   20.3380 N   0  0  0  0  0  0  0  0  0  0  0  0
  -31.6950  -15.1490   20.2310 O   0  0  0  0  0  0  0  0  0  0  0  0
  -25.1890  -13.8850   20.4640 C   0  0  0  0  0  0  0  0  0  0  0  0
  -24.1220  -13.1040   20.8190 C   0  0  0  0  0  0  0  0  0  0  0  0
  -24.5990  -11.7570   20.8160 C   0  0  0  0  0  0  0  0  0  0  0  0
  -26.2420  -13.0090   20.2560 N   0  0  0  0  0  0  0  0  0  0  0  0
  -25.8970  -11.7280   20.5390 N   0  0  0  0  0  0  0  0  0  0  0  0
  -23.8740  -10.4930   21.0050 C   0  0  0  0  0  0  0  0  0  0  0  0
  -24.2890   -9.5420   21.9630 C   0  0  0  0  0  3  0  0  0  0  0  0
  -23.5640   -8.3430   22.1420 C   0  0  0  0  0  3  0  0  0  0  0  0
  -22.4100   -8.0890   21.3630 C   0  0  0  0  0  0  0  0  0  0  0  0
  -22.0140   -9.0270   20.3940 C   0  0  0  0  0  3  0  0  0  0  0  0
  -22.7400  -10.2180   20.2130 C   0  0  0  0  0  3  0  0  0  0  0  0
  -21.6580   -6.9410   21.4490 O   0  0  0  0  0  0  0  0  0  0  0  0
  -21.5850   -6.2160   22.6110 C   0  0  0  0  0  0  0  0  0  0  0  0
  -21.1290   -6.7880   23.8220 C   0  0  0  0  0  3  0  0  0  0  0  0
  -21.0030   -5.9870   24.9740 C   0  0  0  0  0  3  0  0  0  0  0  0
  -21.3230   -4.6170   24.9190 C   0  0  0  0  0  0  0  0  0  0  0  0
  -21.7760   -4.0470   23.7150 C   0  0  0  0  0  3  0  0  0  0  0  0
  -21.9030   -4.8440   22.5660 C   0  0  0  0  0  0  0  0  0  0  0  0
  -22.3160   -4.2850   21.4030 F   0  0  0  0  0  0  0  0  0  0  0  0
  -21.1940   -3.8470   26.0240 F   0  0  0  0  0  0  0  0  0  0  0  0
  -22.7170  -13.5760   21.0470 C   0  0  0  0  0  0  0  0  0  0  0  0
  -21.9710  -12.8890   21.9050 N   0  0  0  0  0  0  0  0  0  0  0  0
  -22.2910  -14.5950   20.5070 O   0  0  0  0  0  0  0  0  0  0  0  0
  -22.3310  -12.0670   22.3690 H   0  0  0  0  0  0  0  0  0  0  0  0
  -21.0290  -13.1910   22.1040 H   0  0  0  0  0  0  0  0  0  0  0  0
  -25.3510  -15.2540   20.2770 N   0  0  0  0  0  0  0  0  0  0  0  0
  -24.5900  -15.9140   20.3910 H   0  0  0  0  0  0  0  0  0  0  0  0
  -26.2220  -15.6950   20.0110 H   0  0  0  0  0  0  0  0  0  0  0  0
  -28.5740  -23.2890   21.0600 C   0  0  0  0  0  0  0  0  0  0  0  0
  -28.3290  -24.7390   21.0560 C   0  0  0  0  0  3  0  0  0  0  0  0
  -28.2350  -25.9670   20.2020 O   0  0  0  0  0  0  0  0  0  0  0  0
  -24.6270  -31.8670   23.1840 C   0  0  0  0  0  0  0  0  0  0  0  0
  -27.2180  -27.0300   20.2620 C   0  0  0  0  0  0  0  0  0  0  0  0
  -23.4470  -30.4570   21.5440 C   0  0  0  0  0  3  0  0  0  0  0  0
  -24.9110  -28.8510   20.1600 C   0  0  0  0  0  0  0  0  0  0  0  0
  -26.0090  -30.6940   21.4140 C   0  0  0  0  0  2  0  0  0  0  0  0
  -26.0890  -29.2800   20.7910 C   0  0  0  0  0  0  0  0  0  0  0  0
  -27.2450  -28.3890   20.8180 C   0  0  0  0  0  3  0  0  0  0  0  0
  -26.0180  -26.7370   19.5800 C   0  0  0  0  0  3  0  0  0  0  0  0
  -24.8950  -27.5980   19.5350 C   0  0  0  0  0  3  0  0  0  0  0  0
  -23.6920  -29.7650   20.1760 C   0  0  0  0  0  2  0  0  0  0  0  0
  -24.7150  -31.0340   22.1010 N   0  0  0  0  0  0  0  0  0  0  0  0
  -23.5350  -32.1550   23.7000 O   0  0  0  0  0  0  0  0  0  0  0  0
  -22.7510  -29.4650   22.5120 C   0  0  0  0  0  0  0  0  0  0  0  0
  -21.4190  -29.3110   22.3930 N   0  0  0  0  0  0  0  0  0  0  0  0
  -23.4130  -28.8330   23.3370 O   0  0  0  0  0  0  0  0  0  0  0  0
  -20.9350  -29.8680   21.7020 H   0  0  0  0  0  0  0  0  0  0  0  0
  -18.0250  -28.1440   22.9270 C   0  0  0  0  0  0  0  0  0  0  0  0
  -20.5930  -28.3830   23.1700 C   0  0  0  0  0  3  0  0  0  0  0  0
  -20.6730  -26.9500   22.5940 C   0  0  0  0  0  2  0  0  0  0  0  0
  -19.5650  -26.6490   21.5820 C   0  0  0  0  0  2  0  0  0  0  0  0
  -18.1850  -26.7980   22.2370 C   0  0  0  0  0  2  0  0  0  0  0  0
  -19.1550  -28.8950   23.3500 C   0  0  0  0  0  0  0  0  0  0  0  0
  -18.9500  -30.1510   23.9600 C   0  0  0  0  0  3  0  0  0  0  0  0
  -17.6500  -30.6570   24.1470 C   0  0  0  0  0  3  0  0  0  0  0  0
  -16.5370  -29.9040   23.7390 C   0  0  0  0  0  3  0  0  0  0  0  0
  -16.7250  -28.6480   23.1340 C   0  0  0  0  0  3  0  0  0  0  0  0
  -25.8940  -32.5130   23.8220 C   0  0  0  0  0  3  0  0  0  0  0  0
  -26.4020  -31.7510   25.1090 C   0  0  1  0  0  0  0  0  0  0  0  0
  -25.3020  -31.5160   26.1690 C   0  0  0  0  0  1  0  0  0  0  0  0
  -26.9910  -30.3710   24.7360 C   0  0  0  0  0  1  0  0  0  0  0  0
  -27.5470  -32.5530   25.7740 C   0  0  0  0  0  1  0  0  0  0  0  0
  -25.5710  -33.9130   24.1540 N   0  0  0  0  0  0  0  0  0  0  0  0
  -25.9070  -34.9740   23.4100 C   0  0  0  0  0  0  0  0  0  0  0  0
  -26.5850  -34.8810   22.3830 O   0  0  0  0  0  0  0  0  0  0  0  0
  -24.9720  -34.0590   24.9530 H   0  0  0  0  0  0  0  0  0  0  0  0
  -24.1840  -36.7780   23.0600 C   0  0  0  0  0  1  0  0  0  0  0  0
  -25.4190  -36.3610   23.8750 C   0  0  0  0  0  3  0  0  0  0  0  0
  -27.5460  -37.2420   24.7290 C   0  0  0  0  0  1  0  0  0  0  0  0
  -26.4520  -37.4150   23.7780 N   0  0  0  0  0  0  0  0  0  0  0  0
  -26.0450  -38.3350   23.9280 H   0  0  0  0  0  0  0  0  0  0  0  0
  -25.9740  -22.4140   19.4550 C   0  0  0  0  0  1  0  0  0  0  0  0
  -27.0130  -21.8040   18.6810 O   0  0  0  0  0  0  0  0  0  0  0  0
  1  2  2  0
  1  3  1  0
  2  4  1  0
  3  6  1  0
  3  5  1  0
  4  5  1  0
  4 44  2  0
  7  8  1  0
  7  6  2  0
  9 14  1  0
 10 11  1  0
 10  9  1  0
 12 11  1  0
 12 19  1  0
 12 13  1  0
 14  8  1  0
 14 13  1  0
 15  8  2  0
 16 17  2  0
 17 36  1  0
 18 17  1  0
 18 21  1  0
 19 16  1  0
 19 20  1  0
 20 18  2  0
 21 22  1  0
 22 23  2  0
 24 27  1  0
 24 23  1  0
 25 24  2  0
 26 25  1  0
 26 21  2  0
 27 28  1  0
 28 29  1  0
 29 30  2  0
 31 30  1  0
 31 35  1  0
 32 31  2  0
 33 28  2  0
 33 32  1  0
 34 33  1  0
 36 37  1  0
 37 40  1  0
 37 39  1  0
 38 36  2  0
 41 42  1  0
 41 16  1  0
 43 41  1  0
 45 44  2  0
 46 48  1  0
 46 45  1  0
 47 58  2  0
 48 53  1  0
 49 57  1  0
 49 59  1  0
 50 56  1  0
 50 52  1  0
 51 57  1  0
 52 53  2  0
 52 51  1  0
 54 48  2  0
 55 54  1  0
 55 50  2  0
 56 49  1  0
 57 47  1  0
 59 61  2  0
 60 59  1  0
 62 60  1  0
 63 72  2  0
 63 68  1  0
 64 60  1  0
 64 68  1  0
 65 64  1  0
 66 67  1  0
 66 65  1  0
 67 63  1  0
 68 69  2  0
 69 70  1  0
 71 70  2  0
 72 71  1  0
 73 47  1  0
 73 78  1  0
 73 74  1  0
 74 77  1  1
 74 75  1  0
 76 74  1  0
 78 81  1  0
 79 83  1  0
 79 78  1  0
 80 79  2  0
 83 82  1  0
 85 83  1  0
 85 86  1  0
 85 84  1  0
 88  2  1  0
 88 87  1  0
M  ISO  4   7 100   8 100  45 101  46 101
M  END
>  <TORSDO>  (62) 
F 19

>  <SCORE>  (62) 
-14.099

>  <name>  (62) 
61

>  <ligand_id>  (62) 
61

>  <original_smiles>  (62) 
[H]C(Oc1c([H])c([H])c2c(c1[H])C([H])([H])N(C(=O)C([H])(N([H])C(=O)C([H])(N([H])C([H])([H])[H])C([H])([H])[H])C(C([H])([H])[H])(C([H])([H])[H])C([H])([H])[H])C([H])(C(=O)N([H])C1([H])c3c([H])c([H])c([H])c([H])c3C([H])([H])C([H])([H])C1([H])[H])C2([H])[H])=C([H])c1oc(C([H])=C([H])C(=O)N2C([H])([H])C([H])([H])C([H])([H])C([H])(n3nc(-c4c([H])c([H])c(Oc5c([H])c([H])c(F)c([H])c5F)c([H])c4[H])c(C(=O)N([H])[H])c3N([H])[H])C2([H])[H])c([H])c1OC([H])([H])[H]

>  <smiles>  (62) 
[H]C(Oc1c([H])c([H])c2c(c1[H])C([H])([H])N(C(=O)C([H])(N([H])C(=O)C([H])(N([H])C([H])([H])[H])C([H])([H])[H])C(C([H])([H])[H])(C([H])([H])[H])C([H])([H])[H])C([H])(C(=O)N([H])C1([H])c3c([H])c([H])c([H])c([H])c3C([H])([H])C([H])([H])C1([H])[H])C2([H])[H])=C([H])c1oc(C([H])=C([H])C(=O)N2C([H])([H])C([H])([H])C([H])([H])C([H])(n3nc(-c4c([H])c([H])c(Oc5c([H])c([H])c(F)c([H])c5F)c([H])c4[H])c(C(=O)N([H])[H])c3N([H])[H])C2([H])[H])c([H])c1OC([H])([H])[H]

$$$$
62:0:0
     RDKit          3D

 95104  0  0  1  0  0  0  0  0999 V2000
  -28.7280  -22.4320   21.9620 C   0  0  0  0  0  0  0  0  0  0  0  0
  -28.9180  -23.7320   22.7290 C   0  0  0  0  0  2  0  0  0  0  0  0
  -29.8180  -24.5270   21.7880 C   0  0  0  0  0  2  0  0  0  0  0  0
  -29.3680  -24.0440   20.4020 C   0  0  0  0  0  3  0  0  0  0  0  0
  -29.1160  -22.5470   20.6740 N   0  0  0  0  0  0  0  0  0  0  0  0
  -28.3950  -21.3910   22.5360 O   0  0  0  0  0  0  0  0  0  0  0  0
  -29.9800  -21.3970   20.1160 C   0  0  0  0  0  2  0  0  0  0  0  0
  -30.3260  -18.6870   20.3720 C   0  0  0  0  0  3  0  0  0  0  0  0
  -28.2060  -19.6160   19.6080 C   0  0  0  0  0  3  0  0  0  0  0  0
  -28.5280  -17.1870   19.7880 C   0  0  0  0  0  3  0  0  0  0  0  0
  -29.5130  -19.8660   20.0650 C   0  0  0  0  0  0  0  0  0  0  0  0
  -29.8450  -17.3060   20.2620 C   0  0  0  0  0  0  0  0  0  0  0  0
  -27.7250  -18.3030   19.4680 C   0  0  0  0  0  0  0  0  0  0  0  0
  -26.4620  -18.1100   19.0200 F   0  0  0  0  0  0  0  0  0  0  0  0
  -30.9260  -14.9440   19.9640 C   0  0  0  0  0  0  0  0  0  0  0  0
  -30.5950  -12.6550   18.9690 C   0  0  0  0  0  2  0  0  0  0  0  0
  -29.6230  -12.6760   17.7700 C   0  0  0  0  0  2  0  0  0  0  0  0
  -28.1800  -12.4770   18.2670 C   0  0  0  0  0  2  0  0  0  0  0  0
  -27.8380  -13.4110   19.4540 C   0  0  0  0  0  3  0  0  0  0  0  0
  -28.9370  -13.4180   20.5480 C   0  0  0  0  0  2  0  0  0  0  0  0
  -30.2190  -13.7500   19.9100 N   0  0  0  0  0  0  0  0  0  0  0  0
  -32.0140  -15.0090   19.3810 O   0  0  0  0  0  0  0  0  0  0  0  0
  -30.5120  -16.0410   20.7310 N   0  0  0  0  0  0  0  0  0  0  0  0
  -25.4940  -14.0090   20.3140 C   0  0  0  0  0  0  0  0  0  0  0  0
  -24.4470  -13.2410   20.7330 C   0  0  0  0  0  0  0  0  0  0  0  0
  -24.8970  -11.8880   20.6600 C   0  0  0  0  0  0  0  0  0  0  0  0
  -26.5200  -13.1300   20.0100 N   0  0  0  0  0  0  0  0  0  0  0  0
  -26.1710  -11.8470   20.2870 N   0  0  0  0  0  0  0  0  0  0  0  0
  -24.1710  -10.6300   20.8670 C   0  0  0  0  0  0  0  0  0  0  0  0
  -24.5840   -9.6950   21.8400 C   0  0  0  0  0  3  0  0  0  0  0  0
  -23.8580   -8.5000   22.0350 C   0  0  0  0  0  3  0  0  0  0  0  0
  -22.7080   -8.2330   21.2560 C   0  0  0  0  0  0  0  0  0  0  0  0
  -22.3150   -9.1590   20.2720 C   0  0  0  0  0  3  0  0  0  0  0  0
  -23.0410  -10.3450   20.0760 C   0  0  0  0  0  3  0  0  0  0  0  0
  -21.9560   -7.0900   21.3580 O   0  0  0  0  0  0  0  0  0  0  0  0
  -21.8080   -6.4280   22.5510 C   0  0  0  0  0  0  0  0  0  0  0  0
  -21.2680   -7.0610   23.6910 C   0  0  0  0  0  3  0  0  0  0  0  0
  -21.0700   -6.3250   24.8750 C   0  0  0  0  0  3  0  0  0  0  0  0
  -21.4020   -4.9570   24.9200 C   0  0  0  0  0  0  0  0  0  0  0  0
  -21.9360   -4.3250   23.7830 C   0  0  0  0  0  3  0  0  0  0  0  0
  -22.1350   -5.0580   22.6000 C   0  0  0  0  0  0  0  0  0  0  0  0
  -22.6300   -4.4390   21.5000 F   0  0  0  0  0  0  0  0  0  0  0  0
  -21.2040   -4.2470   26.0540 F   0  0  0  0  0  0  0  0  0  0  0  0
  -23.0680  -13.7250   21.0780 C   0  0  0  0  0  0  0  0  0  0  0  0
  -22.3870  -13.0380   21.9870 N   0  0  0  0  0  0  0  0  0  0  0  0
  -22.6070  -14.7520   20.5760 O   0  0  0  0  0  0  0  0  0  0  0  0
  -22.7750  -12.2120   22.4160 H   0  0  0  0  0  0  0  0  0  0  0  0
  -21.4640  -13.3440   22.2590 H   0  0  0  0  0  0  0  0  0  0  0  0
  -25.6350  -15.3800   20.1370 N   0  0  0  0  0  0  0  0  0  0  0  0
  -24.8470  -16.0050   20.2750 H   0  0  0  0  0  0  0  0  0  0  0  0
  -26.3970  -15.8330   19.6540 H   0  0  0  0  0  0  0  0  0  0  0  0
  -31.0200  -17.2500   22.9530 C   0  0  0  0  0  1  0  0  0  0  0  0
  -31.2450  -16.0460   22.0210 C   0  0  0  0  0  2  0  0  0  0  0  0
  -28.1470  -25.0370   19.9740 C   0  0  0  0  0  2  0  0  0  0  0  0
  -28.3520  -26.5340   19.9770 O   0  0  0  0  0  0  0  0  0  0  0  0
  -24.6280  -31.8930   23.1600 C   0  0  0  0  0  0  0  0  0  0  0  0
  -27.2350  -27.4030   19.9510 C   0  0  0  0  0  0  0  0  0  0  0  0
  -23.4140  -30.5200   21.5100 C   0  0  0  0  0  3  0  0  0  0  0  0
  -24.8540  -29.0190   20.0120 C   0  0  0  0  0  0  0  0  0  0  0  0
  -25.9460  -30.8670   21.2810 C   0  0  0  0  0  2  0  0  0  0  0  0
  -26.0310  -29.5000   20.6000 C   0  0  0  0  0  0  0  0  0  0  0  0
  -27.2230  -28.7070   20.5520 C   0  0  0  0  0  3  0  0  0  0  0  0
  -26.0310  -26.9860   19.3390 C   0  0  0  0  0  3  0  0  0  0  0  0
  -24.8600  -27.7720   19.3690 C   0  0  0  0  0  3  0  0  0  0  0  0
  -23.6070  -29.8800   20.1100 C   0  0  0  0  0  2  0  0  0  0  0  0
  -24.6850  -31.1100   22.0410 N   0  0  0  0  0  0  0  0  0  0  0  0
  -23.5520  -32.1420   23.7220 O   0  0  0  0  0  0  0  0  0  0  0  0
  -22.7820  -29.4730   22.4570 C   0  0  0  0  0  0  0  0  0  0  0  0
  -21.4590  -29.2640   22.3360 N   0  0  0  0  0  0  0  0  0  0  0  0
  -23.4790  -28.8520   23.2640 O   0  0  0  0  0  0  0  0  0  0  0  0
  -20.9540  -29.8140   21.6570 H   0  0  0  0  0  0  0  0  0  0  0  0
  -18.1180  -27.9620   22.8310 C   0  0  0  0  0  0  0  0  0  0  0  0
  -20.6700  -28.2940   23.0980 C   0  0  0  0  0  3  0  0  0  0  0  0
  -20.8130  -26.8730   22.5050 C   0  0  0  0  0  2  0  0  0  0  0  0
  -19.7180  -26.5300   21.4900 C   0  0  0  0  0  2  0  0  0  0  0  0
  -18.3330  -26.6280   22.1380 C   0  0  0  0  0  2  0  0  0  0  0  0
  -19.2160  -28.7520   23.2680 C   0  0  0  0  0  0  0  0  0  0  0  0
  -18.9610  -29.9990   23.8780 C   0  0  0  0  0  3  0  0  0  0  0  0
  -17.6430  -30.4580   24.0580 C   0  0  0  0  0  3  0  0  0  0  0  0
  -16.5600  -29.6660   23.6360 C   0  0  0  0  0  3  0  0  0  0  0  0
  -16.7990  -28.4210   23.0270 C   0  0  0  0  0  3  0  0  0  0  0  0
  -25.9130  -32.5300   23.7740 C   0  0  0  0  0  3  0  0  0  0  0  0
  -26.4520  -31.7470   25.0340 C   0  0  1  0  0  0  0  0  0  0  0  0
  -25.3740  -31.4810   26.1120 C   0  0  0  0  0  1  0  0  0  0  0  0
  -27.0460  -30.3830   24.6170 C   0  0  0  0  0  1  0  0  0  0  0  0
  -27.6010  -32.5470   25.6930 C   0  0  0  0  0  1  0  0  0  0  0  0
  -25.5960  -33.9210   24.1270 N   0  0  0  0  0  0  0  0  0  0  0  0
  -25.9220  -34.9910   23.3870 C   0  0  0  0  0  0  0  0  0  0  0  0
  -26.5940  -34.9060   22.3540 O   0  0  0  0  0  0  0  0  0  0  0  0
  -24.9990  -34.0600   24.9300 H   0  0  0  0  0  0  0  0  0  0  0  0
  -24.1970  -36.7890   23.0530 C   0  0  0  0  0  1  0  0  0  0  0  0
  -25.4310  -36.3690   23.8690 C   0  0  0  0  0  3  0  0  0  0  0  0
  -27.5550  -37.2390   24.7400 C   0  0  0  0  0  1  0  0  0  0  0  0
  -26.4650  -37.4240   23.7870 N   0  0  0  0  0  0  0  0  0  0  0  0
  -26.0570  -38.3420   23.9460 H   0  0  0  0  0  0  0  0  0  0  0  0
  1  6  2  0
  1  2  1  0
  3  2  1  0
  4 54  1  0
  4  5  1  0
  4  3  1  0
  5  1  1  0
  7  5  1  0
  9 11  1  0
 10 12  2  0
 11  7  1  0
 11  8  2  0
 12  8  1  0
 12 23  1  0
 13  9  2  0
 13 10  1  0
 14 13  1  0
 15 23  1  0
 16 21  1  0
 17 18  1  0
 17 16  1  0
 19 18  1  0
 19 27  1  0
 19 20  1  0
 21 15  1  0
 21 20  1  0
 22 15  2  0
 23 53  1  0
 24 25  2  0
 25 44  1  0
 26 25  1  0
 26 29  1  0
 27 28  1  0
 27 24  1  0
 28 26  2  0
 29 30  1  0
 30 31  2  0
 32 35  1  0
 32 31  1  0
 33 32  2  0
 34 33  1  0
 34 29  2  0
 35 36  1  0
 36 41  2  0
 36 37  1  0
 37 38  2  0
 38 39  1  0
 39 43  1  0
 40 39  2  0
 41 40  1  0
 42 41  1  0
 44 45  1  0
 45 48  1  0
 45 47  1  0
 46 44  2  0
 49 50  1  0
 49 24  1  0
 51 49  1  0
 53 52  1  0
 54 55  1  0
 56 67  2  0
 57 55  1  0
 57 62  1  0
 58 66  1  0
 58 68  1  0
 59 65  1  0
 59 61  1  0
 60 66  1  0
 61 60  1  0
 62 61  2  0
 63 64  1  0
 63 57  2  0
 64 59  2  0
 65 58  1  0
 66 56  1  0
 68 70  2  0
 69 68  1  0
 71 69  1  0
 72 81  2  0
 72 77  1  0
 73 69  1  0
 73 77  1  0
 74 73  1  0
 75 76  1  0
 75 74  1  0
 76 72  1  0
 77 78  2  0
 78 79  1  0
 80 79  2  0
 81 80  1  0
 82 56  1  0
 82 87  1  0
 82 83  1  0
 83 86  1  1
 83 84  1  0
 85 83  1  0
 87 90  1  0
 88 92  1  0
 88 87  1  0
 89 88  2  0
 92 91  1  0
 94 92  1  0
 94 95  1  0
 94 93  1  0
M  ISO  4  15 100  23 100  54 101  55 101
M  END
>  <TORSDO>  (63) 
F 20

>  <SCORE>  (63) 
-12.992

>  <name>  (63) 
62

>  <ligand_id>  (63) 
62

>  <original_smiles>  (63) 
[H]c1c([H])c([H])c2c(c1[H])C([H])([H])C([H])([H])C([H])([H])C2([H])N([H])C(=O)C1([H])N(C(=O)C([H])(N([H])C(=O)C([H])(N([H])C([H])([H])[H])C([H])([H])[H])C(C([H])([H])[H])(C([H])([H])[H])C([H])([H])[H])C([H])([H])c2c([H])c(OC([H])([H])C3([H])N(C([H])([H])c4c([H])c(F)c([H])c(N(C(=O)N5C([H])([H])C([H])([H])C([H])([H])C([H])(n6nc(-c7c([H])c([H])c(Oc8c([H])c([H])c(F)c([H])c8F)c([H])c7[H])c(C(=O)N([H])[H])c6N([H])[H])C5([H])[H])C([H])([H])C([H])([H])[H])c4[H])C(=O)C([H])([H])C3([H])[H])c([H])c([H])c2C1([H])[H]

>  <smiles>  (63) 
[H]c1c([H])c([H])c2c(c1[H])C([H])([H])C([H])([H])C([H])([H])C2([H])N([H])C(=O)C1([H])N(C(=O)C([H])(N([H])C(=O)C([H])(N([H])C([H])([H])[H])C([H])([H])[H])C(C([H])([H])[H])(C([H])([H])[H])C([H])([H])[H])C([H])([H])c2c([H])c(OC([H])([H])C3([H])N(C([H])([H])c4c([H])c(F)c([H])c(N(C(=O)N5C([H])([H])C([H])([H])C([H])([H])C([H])(n6nc(-c7c([H])c([H])c(Oc8c([H])c([H])c(F)c([H])c8F)c([H])c7[H])c(C(=O)N([H])[H])c6N([H])[H])C5([H])[H])C([H])([H])C([H])([H])[H])c4[H])C(=O)C([H])([H])C3([H])[H])c([H])c([H])c2C1([H])[H]

$$$$
63:0:0
     RDKit          3D

 95103  0  0  1  0  0  0  0  0999 V2000
  -31.0130  -20.3910   20.8060 C   0  0  0  0  0  3  0  0  0  0  0  0
  -29.2900  -18.7950   20.2620 C   0  0  0  0  0  3  0  0  0  0  0  0
  -31.9020  -19.3230   21.0860 C   0  0  0  0  0  0  0  0  0  0  0  0
  -30.1490  -17.6370   20.5110 C   0  0  0  0  0  0  0  0  0  0  0  0
  -31.4640  -17.9660   20.9730 C   0  0  0  0  0  0  0  0  0  0  0  0
  -29.6800  -20.1850   20.4120 C   0  0  0  0  0  0  0  0  0  0  0  0
  -29.5750  -16.1680   20.4500 C   0  0  0  0  0  0  0  0  0  0  0  0
  -28.3440  -16.0880   20.7540 N   0  0  0  0  0  0  0  0  0  0  0  0
  -27.9870  -16.9970   21.0170 H   0  0  0  0  0  0  0  0  0  0  0  0
  -30.4250  -14.8420   19.9990 C   0  0  0  0  0  0  0  0  0  0  0  0
  -30.2170  -12.5780   18.9330 C   0  0  0  0  0  2  0  0  0  0  0  0
  -29.1950  -12.6580   17.7740 C   0  0  0  0  0  2  0  0  0  0  0  0
  -27.7560  -12.4440   18.2850 C   0  0  0  0  0  2  0  0  0  0  0  0
  -27.4560  -13.2850   19.5500 C   0  0  0  0  0  3  0  0  0  0  0  0
  -28.5860  -13.1350   20.5940 C   0  0  0  0  0  2  0  0  0  0  0  0
  -29.8290  -13.5880   19.9520 N   0  0  0  0  0  0  0  0  0  0  0  0
  -31.5690  -14.9530   19.5390 O   0  0  0  0  0  0  0  0  0  0  0  0
  -25.1160  -13.8660   20.4280 C   0  0  0  0  0  0  0  0  0  0  0  0
  -24.0740  -13.0830   20.8420 C   0  0  0  0  0  0  0  0  0  0  0  0
  -24.5410  -11.7350   20.7640 C   0  0  0  0  0  0  0  0  0  0  0  0
  -26.1450  -12.9920   20.1160 N   0  0  0  0  0  0  0  0  0  0  0  0
  -25.8100  -11.7040   20.3810 N   0  0  0  0  0  0  0  0  0  0  0  0
  -23.8350  -10.4670   20.9810 C   0  0  0  0  0  0  0  0  0  0  0  0
  -24.3000   -9.5160   21.9150 C   0  0  0  0  0  3  0  0  0  0  0  0
  -23.5950   -8.3090   22.1170 C   0  0  0  0  0  3  0  0  0  0  0  0
  -22.4130   -8.0470   21.3850 C   0  0  0  0  0  0  0  0  0  0  0  0
  -21.9670   -8.9880   20.4410 C   0  0  0  0  0  3  0  0  0  0  0  0
  -22.6720  -10.1860   20.2380 C   0  0  0  0  0  3  0  0  0  0  0  0
  -21.6780   -6.8930   21.4960 O   0  0  0  0  0  0  0  0  0  0  0  0
  -21.6290   -6.1810   22.6680 C   0  0  0  0  0  0  0  0  0  0  0  0
  -21.1690   -6.7590   23.8710 C   0  0  0  0  0  3  0  0  0  0  0  0
  -21.0680   -5.9710   25.0350 C   0  0  0  0  0  3  0  0  0  0  0  0
  -21.4180   -4.6080   24.9980 C   0  0  0  0  0  0  0  0  0  0  0  0
  -21.8690   -4.0300   23.7980 C   0  0  0  0  0  3  0  0  0  0  0  0
  -21.9720   -4.8150   22.6360 C   0  0  0  0  0  0  0  0  0  0  0  0
  -22.3890   -4.2490   21.4780 F   0  0  0  0  0  0  0  0  0  0  0  0
  -21.3150   -3.8500   26.1140 F   0  0  0  0  0  0  0  0  0  0  0  0
  -22.6960  -13.5500   21.2050 C   0  0  0  0  0  0  0  0  0  0  0  0
  -22.0220  -12.8330   22.0980 N   0  0  0  0  0  0  0  0  0  0  0  0
  -22.2240  -14.5840   20.7350 O   0  0  0  0  0  0  0  0  0  0  0  0
  -22.4170  -11.9970   22.5010 H   0  0  0  0  0  0  0  0  0  0  0  0
  -21.1000  -13.1310   22.3830 H   0  0  0  0  0  0  0  0  0  0  0  0
  -25.2760  -15.2390   20.2770 N   0  0  0  0  0  0  0  0  0  0  0  0
  -24.5740  -15.9010   20.5870 H   0  0  0  0  0  0  0  0  0  0  0  0
  -26.2070  -15.6430   20.1990 H   0  0  0  0  0  0  0  0  0  0  0  0
  -32.3430  -16.9650   21.4050 N   0  0  0  0  0  0  0  0  0  0  0  0
  -32.3280  -16.1000   20.8620 H   0  0  0  0  0  0  0  0  0  0  0  0
  -33.2920  -17.2480   21.6220 H   0  0  0  0  0  0  0  0  0  0  0  0
  -33.7680  -20.8470   21.8980 C   0  0  0  0  0  2  0  0  0  0  0  0
  -33.2790  -19.6410   21.5530 C   0  0  0  0  0  3  0  0  0  0  0  0
  -28.7890  -21.2980   20.2920 O   0  0  0  0  0  0  0  0  0  0  0  0
  -29.1760  -22.5960   19.6570 C   0  0  0  0  0  2  0  0  0  0  0  0
  -28.8410  -24.0010   20.3310 C   0  0  0  0  0  3  0  0  0  0  0  0
  -28.3870  -25.1670   19.7240 C   0  0  0  0  0  3  0  0  0  0  0  0
  -28.3080  -26.4760   20.2870 O   0  0  0  0  0  0  0  0  0  0  0  0
  -24.5980  -31.9410   23.2360 C   0  0  0  0  0  0  0  0  0  0  0  0
  -27.1940  -27.3410   20.1770 C   0  0  0  0  0  0  0  0  0  0  0  0
  -23.3870  -30.5380   21.6050 C   0  0  0  0  0  3  0  0  0  0  0  0
  -24.8310  -28.9790   20.1680 C   0  0  0  0  0  0  0  0  0  0  0  0
  -25.9260  -30.8470   21.4070 C   0  0  0  0  0  2  0  0  0  0  0  0
  -26.0020  -29.4630   20.7620 C   0  0  0  0  0  0  0  0  0  0  0  0
  -27.1820  -28.6550   20.7560 C   0  0  0  0  0  3  0  0  0  0  0  0
  -25.9970  -26.9140   19.5610 C   0  0  0  0  0  3  0  0  0  0  0  0
  -24.8350  -27.7140   19.5530 C   0  0  0  0  0  3  0  0  0  0  0  0
  -23.5940  -29.8550   20.2250 C   0  0  0  0  0  2  0  0  0  0  0  0
  -24.6560  -31.1280   22.1390 N   0  0  0  0  0  0  0  0  0  0  0  0
  -23.5170  -32.2210   23.7740 O   0  0  0  0  0  0  0  0  0  0  0  0
  -22.7240  -29.5290   22.5740 C   0  0  0  0  0  0  0  0  0  0  0  0
  -21.3970  -29.3490   22.4500 N   0  0  0  0  0  0  0  0  0  0  0  0
  -23.4030  -28.9120   23.3980 O   0  0  0  0  0  0  0  0  0  0  0  0
  -20.9070  -29.9010   21.7600 H   0  0  0  0  0  0  0  0  0  0  0  0
  -18.0230  -28.1400   22.9620 C   0  0  0  0  0  0  0  0  0  0  0  0
  -20.5810  -28.4130   23.2280 C   0  0  0  0  0  3  0  0  0  0  0  0
  -20.6890  -26.9790   22.6610 C   0  0  0  0  0  2  0  0  0  0  0  0
  -19.5870  -26.6460   21.6500 C   0  0  0  0  0  2  0  0  0  0  0  0
  -18.2050  -26.7880   22.2940 C   0  0  0  0  0  2  0  0  0  0  0  0
  -19.1390  -28.9110   23.3860 C   0  0  0  0  0  0  0  0  0  0  0  0
  -18.9140  -30.1750   23.9730 C   0  0  0  0  0  3  0  0  0  0  0  0
  -17.6060  -30.6700   24.1390 C   0  0  0  0  0  3  0  0  0  0  0  0
  -16.5060  -29.8980   23.7260 C   0  0  0  0  0  3  0  0  0  0  0  0
  -16.7150  -28.6350   23.1460 C   0  0  0  0  0  3  0  0  0  0  0  0
  -25.8820  -32.5760   23.8530 C   0  0  0  0  0  3  0  0  0  0  0  0
  -25.5730  -33.9760   24.1830 N   0  0  0  0  0  0  0  0  0  0  0  0
  -25.9020  -35.0300   23.4240 C   0  0  0  0  0  0  0  0  0  0  0  0
  -26.5670  -34.9260   22.3900 O   0  0  0  0  0  0  0  0  0  0  0  0
  -24.9790  -34.1280   24.9850 H   0  0  0  0  0  0  0  0  0  0  0  0
  -24.1760  -36.8290   23.0780 C   0  0  0  0  0  1  0  0  0  0  0  0
  -25.4190  -36.4200   23.8840 C   0  0  0  0  0  3  0  0  0  0  0  0
  -27.5600  -37.3010   24.7070 C   0  0  0  0  0  1  0  0  0  0  0  0
  -26.4540  -37.4710   23.7680 N   0  0  0  0  0  0  0  0  0  0  0  0
  -26.0500  -38.3920   23.9170 H   0  0  0  0  0  0  0  0  0  0  0  0
  -26.4030  -31.8080   25.1300 C   0  0  1  0  0  0  0  0  0  0  0  0
  -25.3140  -31.5730   26.2030 C   0  0  0  0  0  1  0  0  0  0  0  0
  -26.9840  -30.4290   24.7390 C   0  0  0  0  0  1  0  0  0  0  0  0
  -27.5560  -32.6040   25.7860 C   0  0  0  0  0  1  0  0  0  0  0  0
  1  3  1  0
  2  6  1  0
  2  4  2  0
  3 50  1  0
  4  5  1  0
  5  3  2  0
  5 46  1  0
  6  1  2  0
  7  4  1  0
  7  8  2  0
  8  9  1  0
 10  7  1  0
 11 16  1  0
 12 13  1  0
 12 11  1  0
 14 13  1  0
 14 21  1  0
 14 15  1  0
 16 10  1  0
 16 15  1  0
 17 10  2  0
 18 19  2  0
 19 38  1  0
 20 19  1  0
 20 23  1  0
 21 22  1  0
 21 18  1  0
 22 20  2  0
 23 24  1  0
 24 25  2  0
 26 29  1  0
 26 25  1  0
 27 26  2  0
 28 27  1  0
 28 23  2  0
 29 30  1  0
 30 31  1  0
 31 32  2  0
 33 32  1  0
 33 37  1  0
 34 33  2  0
 35 30  2  0
 35 34  1  0
 36 35  1  0
 38 39  1  0
 39 42  1  0
 39 41  1  0
 40 38  2  0
 43 18  1  0
 43 44  1  0
 45 43  1  0
 46 48  1  0
 47 46  1  0
 50 49  2  0
 51  6  1  0
 52 51  1  0
 52 53  1  0
 54 55  1  0
 54 53  2  0
 56 67  2  0
 57 55  1  0
 57 62  1  0
 58 66  1  0
 58 68  1  0
 59 65  1  0
 59 61  1  0
 60 66  1  0
 61 60  1  0
 62 61  2  0
 63 57  2  0
 64 63  1  0
 64 59  2  0
 65 58  1  0
 66 56  1  0
 68 70  2  0
 69 68  1  0
 71 69  1  0
 72 81  2  0
 72 77  1  0
 73 69  1  0
 73 77  1  0
 74 73  1  0
 75 76  1  0
 75 74  1  0
 76 72  1  0
 77 78  2  0
 78 79  1  0
 80 79  2  0
 81 80  1  0
 82 56  1  0
 82 83  1  0
 82 92  1  0
 83 86  1  0
 84 88  1  0
 84 83  1  0
 85 84  2  0
 88 87  1  0
 90 88  1  0
 90 91  1  0
 90 89  1  0
 92 95  1  1
 92 93  1  0
 94 92  1  0
M  ISO  4   7 100  10 100  54 101  55 101
M  END
>  <TORSDO>  (64) 
F 22

>  <SCORE>  (64) 
-12.841

>  <name>  (64) 
63

>  <ligand_id>  (64) 
63

>  <original_smiles>  (64) 
[H]N=C(C(=O)N1C([H])([H])C([H])([H])C([H])([H])C([H])(n2nc(-c3c([H])c([H])c(Oc4c([H])c([H])c(F)c([H])c4F)c([H])c3[H])c(C(=O)N([H])[H])c2N([H])[H])C1([H])[H])c1c([H])c(OC([H])([H])C([H])=C([H])Oc2c([H])c([H])c3c(c2[H])C([H])([H])N(C(=O)C([H])(N([H])C(=O)C([H])(N([H])C([H])([H])[H])C([H])([H])[H])C(C([H])([H])[H])(C([H])([H])[H])C([H])([H])[H])C([H])(C(=O)N([H])C2([H])c4c([H])c([H])c([H])c([H])c4C([H])([H])C([H])([H])C2([H])[H])C3([H])[H])c([H])c(C([H])=C([H])[H])c1N([H])[H]

>  <smiles>  (64) 
[H]N=C(C(=O)N1C([H])([H])C([H])([H])C([H])([H])C([H])(n2nc(-c3c([H])c([H])c(Oc4c([H])c([H])c(F)c([H])c4F)c([H])c3[H])c(C(=O)N([H])[H])c2N([H])[H])C1([H])[H])c1c([H])c(OC([H])([H])C([H])=C([H])Oc2c([H])c([H])c3c(c2[H])C([H])([H])N(C(=O)C([H])(N([H])C(=O)C([H])(N([H])C([H])([H])[H])C([H])([H])[H])C(C([H])([H])[H])(C([H])([H])[H])C([H])([H])[H])C([H])(C(=O)N([H])C2([H])c4c([H])c([H])c([H])c([H])c4C([H])([H])C([H])([H])C2([H])[H])C3([H])[H])c([H])c(C([H])=C([H])[H])c1N([H])[H]

$$$$
64:0:0
     RDKit          3D

 96105  0  0  1  0  0  0  0  0999 V2000
  -29.2620  -24.1780   21.6740 C   0  0  0  0  0  3  0  0  0  0  0  0
  -28.7770  -23.9280   20.4380 C   0  0  0  0  0  0  0  0  0  0  0  0
  -30.0240  -23.2290   22.5040 C   0  0  0  0  0  0  0  0  0  0  0  0
  -29.4950  -21.8200   22.8000 C   0  0  0  0  0  2  0  0  0  0  0  0
  -28.4380  -21.2720   21.8290 C   0  0  0  0  0  2  0  0  0  0  0  0
  -28.9610  -22.5220   19.6920 C   0  0  0  0  0  3  0  0  0  0  0  0
  -30.2540  -22.6390   18.8580 C   0  0  0  0  0  1  0  0  0  0  0  0
  -28.9360  -21.1980   20.4600 N   0  0  0  0  0  0  0  0  0  0  0  0
  -31.0860  -23.5650   23.0330 O   0  0  0  0  0  0  0  0  0  0  0  0
  -28.6640  -19.7000   18.5090 C   0  0  0  0  0  3  0  0  0  0  0  0
  -28.7140  -18.4520   17.8600 C   0  0  0  0  0  3  0  0  0  0  0  0
  -29.3770  -18.6110   20.5530 C   0  0  0  0  0  3  0  0  0  0  0  0
  -29.0090  -19.8570   19.8710 C   0  0  0  0  0  0  0  0  0  0  0  0
  -29.4260  -17.3020   19.9080 C   0  0  0  0  0  0  0  0  0  0  0  0
  -29.0820  -17.2770   18.5360 C   0  0  0  0  0  0  0  0  0  0  0  0
  -29.0380  -16.1040   17.8610 F   0  0  0  0  0  0  0  0  0  0  0  0
  -30.3820  -14.9060   20.1330 C   0  0  0  0  0  0  0  0  0  0  0  0
  -30.1900  -12.6240   19.1430 C   0  0  0  0  0  2  0  0  0  0  0  0
  -29.1940  -12.6840   17.9620 C   0  0  0  0  0  2  0  0  0  0  0  0
  -27.7490  -12.4880   18.4570 C   0  0  0  0  0  2  0  0  0  0  0  0
  -27.4190  -13.3620   19.6970 C   0  0  0  0  0  3  0  0  0  0  0  0
  -28.5290  -13.2790   20.7680 C   0  0  0  0  0  2  0  0  0  0  0  0
  -29.7950  -13.6590   20.1280 N   0  0  0  0  0  0  0  0  0  0  0  0
  -31.5140  -15.0550   19.6640 O   0  0  0  0  0  0  0  0  0  0  0  0
  -29.6490  -15.9940   20.5770 N   0  0  0  0  0  0  0  0  0  0  0  0
  -28.8950  -15.7300   21.1930 H   0  0  0  0  0  0  0  0  0  0  0  0
  -25.0610  -13.9020   20.5590 C   0  0  0  0  0  0  0  0  0  0  0  0
  -24.0280  -13.1050   20.9680 C   0  0  0  0  0  0  0  0  0  0  0  0
  -24.5080  -11.7610   20.8860 C   0  0  0  0  0  0  0  0  0  0  0  0
  -26.1040  -13.0440   20.2480 N   0  0  0  0  0  0  0  0  0  0  0  0
  -25.7800  -11.7510   20.5070 N   0  0  0  0  0  0  0  0  0  0  0  0
  -23.8110  -10.4850   21.0880 C   0  0  0  0  0  0  0  0  0  0  0  0
  -24.2810   -9.5250   22.0120 C   0  0  0  0  0  3  0  0  0  0  0  0
  -23.5820   -8.3130   22.2040 C   0  0  0  0  0  3  0  0  0  0  0  0
  -22.3990   -8.0530   21.4720 C   0  0  0  0  0  0  0  0  0  0  0  0
  -21.9490   -9.0010   20.5370 C   0  0  0  0  0  3  0  0  0  0  0  0
  -22.6480  -10.2040   20.3430 C   0  0  0  0  0  3  0  0  0  0  0  0
  -21.6690   -6.8930   21.5740 O   0  0  0  0  0  0  0  0  0  0  0  0
  -21.6380   -6.1620   22.7340 C   0  0  0  0  0  0  0  0  0  0  0  0
  -21.1190   -6.6930   23.9360 C   0  0  0  0  0  3  0  0  0  0  0  0
  -21.0410   -5.8840   25.0870 C   0  0  0  0  0  3  0  0  0  0  0  0
  -21.4700   -4.5440   25.0370 C   0  0  0  0  0  0  0  0  0  0  0  0
  -21.9820   -4.0130   23.8410 C   0  0  0  0  0  3  0  0  0  0  0  0
  -22.0610   -4.8190   22.6920 C   0  0  0  0  0  0  0  0  0  0  0  0
  -22.5350   -4.2960   21.5350 F   0  0  0  0  0  0  0  0  0  0  0  0
  -21.3890   -3.7640   26.1400 F   0  0  0  0  0  0  0  0  0  0  0  0
  -22.6400  -13.5550   21.3250 C   0  0  0  0  0  0  0  0  0  0  0  0
  -21.9710  -12.8300   22.2140 N   0  0  0  0  0  0  0  0  0  0  0  0
  -22.1600  -14.5820   20.8490 O   0  0  0  0  0  0  0  0  0  0  0  0
  -22.3750  -11.9970   22.6190 H   0  0  0  0  0  0  0  0  0  0  0  0
  -21.0430  -13.1120   22.4970 H   0  0  0  0  0  0  0  0  0  0  0  0
  -25.1960  -15.2790   20.4020 N   0  0  0  0  0  0  0  0  0  0  0  0
  -24.4270  -15.9190   20.5670 H   0  0  0  0  0  0  0  0  0  0  0  0
  -26.0190  -15.7360   20.0310 H   0  0  0  0  0  0  0  0  0  0  0  0
  -28.0160  -25.1070   19.6940 C   0  0  0  0  0  2  0  0  0  0  0  0
  -28.2060  -26.5450   20.1110 O   0  0  0  0  0  0  0  0  0  0  0  0
  -24.5280  -31.9330   23.2900 C   0  0  0  0  0  0  0  0  0  0  0  0
  -27.1160  -27.4480   20.0560 C   0  0  0  0  0  0  0  0  0  0  0  0
  -23.3210  -30.6030   21.5980 C   0  0  0  0  0  3  0  0  0  0  0  0
  -24.7650  -29.1070   20.1060 C   0  0  0  0  0  0  0  0  0  0  0  0
  -25.8650  -30.9080   21.4310 C   0  0  0  0  0  2  0  0  0  0  0  0
  -25.9380  -29.5540   20.7270 C   0  0  0  0  0  0  0  0  0  0  0  0
  -27.1140  -28.7350   20.6960 C   0  0  0  0  0  3  0  0  0  0  0  0
  -25.9220  -27.0860   19.3860 C   0  0  0  0  0  3  0  0  0  0  0  0
  -24.7630  -27.8820   19.4240 C   0  0  0  0  0  3  0  0  0  0  0  0
  -23.5330  -29.9850   20.1910 C   0  0  0  0  0  2  0  0  0  0  0  0
  -24.5900  -31.1650   22.1630 N   0  0  0  0  0  0  0  0  0  0  0  0
  -23.4450  -32.1920   23.8350 O   0  0  0  0  0  0  0  0  0  0  0  0
  -22.6530  -29.5510   22.5190 C   0  0  0  0  0  0  0  0  0  0  0  0
  -21.3310  -29.3670   22.3710 N   0  0  0  0  0  0  0  0  0  0  0  0
  -23.3280  -28.9070   23.3250 O   0  0  0  0  0  0  0  0  0  0  0  0
  -20.8450  -29.9400   21.6950 H   0  0  0  0  0  0  0  0  0  0  0  0
  -17.9550  -28.1360   22.8130 C   0  0  0  0  0  0  0  0  0  0  0  0
  -20.5120  -28.3990   23.1040 C   0  0  0  0  0  3  0  0  0  0  0  0
  -20.6240  -26.9900   22.4790 C   0  0  0  0  0  2  0  0  0  0  0  0
  -19.5280  -26.6980   21.4490 C   0  0  0  0  0  2  0  0  0  0  0  0
  -18.1430  -26.8140   22.0900 C   0  0  0  0  0  2  0  0  0  0  0  0
  -19.0690  -28.8890   23.2750 C   0  0  0  0  0  0  0  0  0  0  0  0
  -18.8400  -30.1280   23.9120 C   0  0  0  0  0  3  0  0  0  0  0  0
  -17.5330  -30.6160   24.0890 C   0  0  0  0  0  3  0  0  0  0  0  0
  -16.4340  -29.8610   23.6430 C   0  0  0  0  0  3  0  0  0  0  0  0
  -16.6460  -28.6230   23.0100 C   0  0  0  0  0  3  0  0  0  0  0  0
  -25.8120  -32.5390   23.9340 C   0  0  0  0  0  3  0  0  0  0  0  0
  -25.5330  -33.9490   24.2410 N   0  0  0  0  0  0  0  0  0  0  0  0
  -25.8990  -34.9830   23.4740 C   0  0  0  0  0  0  0  0  0  0  0  0
  -26.5780  -34.8500   22.4510 O   0  0  0  0  0  0  0  0  0  0  0  0
  -24.9340  -34.1280   25.0340 H   0  0  0  0  0  0  0  0  0  0  0  0
  -24.2330  -36.8230   23.0660 C   0  0  0  0  0  1  0  0  0  0  0  0
  -25.4430  -36.3900   23.9090 C   0  0  0  0  0  3  0  0  0  0  0  0
  -27.5720  -37.2340   24.7970 C   0  0  0  0  0  1  0  0  0  0  0  0
  -26.5090  -37.4110   23.8110 N   0  0  0  0  0  0  0  0  0  0  0  0
  -26.1250  -38.3460   23.9240 H   0  0  0  0  0  0  0  0  0  0  0  0
  -26.2760  -31.7700   25.2330 C   0  0  1  0  0  0  0  0  0  0  0  0
  -25.1490  -31.5680   26.2710 C   0  0  0  0  0  1  0  0  0  0  0  0
  -26.8400  -30.3760   24.8740 C   0  0  0  0  0  1  0  0  0  0  0  0
  -27.4260  -32.5470   25.9170 C   0  0  0  0  0  1  0  0  0  0  0  0
  1  3  1  0
  2  1  2  0
  3  4  1  0
  3  9  2  0
  5  4  1  0
  6  7  1  0
  6  2  1  0
  6  8  1  0
  8  5  1  0
 10 13  1  0
 11 10  2  0
 11 15  1  0
 13  8  1  0
 13 12  2  0
 14 12  1  0
 14 25  1  0
 15 14  2  0
 16 15  1  0
 17 25  1  0
 18 23  1  0
 19 20  1  0
 19 18  1  0
 21 20  1  0
 21 30  1  0
 21 22  1  0
 23 17  1  0
 23 22  1  0
 24 17  2  0
 25 26  1  0
 27 28  2  0
 28 47  1  0
 29 28  1  0
 29 32  1  0
 30 31  1  0
 30 27  1  0
 31 29  2  0
 32 33  1  0
 33 34  2  0
 35 38  1  0
 35 34  1  0
 36 35  2  0
 37 36  1  0
 37 32  2  0
 38 39  1  0
 39 40  1  0
 40 41  2  0
 42 41  1  0
 42 46  1  0
 43 42  2  0
 44 39  2  0
 44 43  1  0
 45 44  1  0
 47 48  1  0
 48 51  1  0
 48 50  1  0
 49 47  2  0
 52 27  1  0
 52 53  1  0
 54 52  1  0
 55 56  1  0
 55  2  1  0
 57 68  2  0
 58 56  1  0
 58 63  1  0
 59 67  1  0
 59 69  1  0
 60 66  1  0
 60 62  1  0
 61 67  1  0
 62 61  1  0
 63 62  2  0
 64 65  1  0
 64 58  2  0
 65 60  2  0
 66 59  1  0
 67 57  1  0
 69 71  2  0
 70 69  1  0
 72 70  1  0
 73 82  2  0
 73 78  1  0
 74 70  1  0
 74 78  1  0
 75 74  1  0
 76 77  1  0
 76 75  1  0
 77 73  1  0
 78 79  2  0
 79 80  1  0
 81 80  2  0
 82 81  1  0
 83 57  1  0
 83 84  1  0
 83 93  1  0
 84 87  1  0
 85 89  1  0
 85 84  1  0
 86 85  2  0
 89 88  1  0
 91 89  1  0
 91 92  1  0
 91 90  1  0
 93 96  1  1
 93 94  1  0
 95 93  1  0
M  ISO  4  17 100  25 100  55 101  56 101
M  END
>  <TORSDO>  (65) 
F 18

>  <SCORE>  (65) 
-12.922

>  <name>  (65) 
64

>  <ligand_id>  (65) 
64

>  <original_smiles>  (65) 
[H]C1=C(C([H])([H])Oc2c([H])c([H])c3c(c2[H])C([H])([H])N(C(=O)C([H])(N([H])C(=O)C([H])(N([H])C([H])([H])[H])C([H])([H])[H])C(C([H])([H])[H])(C([H])([H])[H])C([H])([H])[H])C([H])(C(=O)N([H])C2([H])c4c([H])c([H])c([H])c([H])c4C([H])([H])C([H])([H])C2([H])[H])C3([H])[H])C([H])(C([H])([H])[H])N(c2c([H])c([H])c(F)c(N([H])C(=O)N3C([H])([H])C([H])([H])C([H])([H])C([H])(n4nc(-c5c([H])c([H])c(Oc6c([H])c([H])c(F)c([H])c6F)c([H])c5[H])c(C(=O)N([H])[H])c4N([H])[H])C3([H])[H])c2[H])C([H])([H])C([H])([H])C1=O

>  <smiles>  (65) 
[H]C1=C(C([H])([H])Oc2c([H])c([H])c3c(c2[H])C([H])([H])N(C(=O)C([H])(N([H])C(=O)C([H])(N([H])C([H])([H])[H])C([H])([H])[H])C(C([H])([H])[H])(C([H])([H])[H])C([H])([H])[H])C([H])(C(=O)N([H])C2([H])c4c([H])c([H])c([H])c([H])c4C([H])([H])C([H])([H])C2([H])[H])C3([H])[H])C([H])(C([H])([H])[H])N(c2c([H])c([H])c(F)c(N([H])C(=O)N3C([H])([H])C([H])([H])C([H])([H])C([H])(n4nc(-c5c([H])c([H])c(Oc6c([H])c([H])c(F)c([H])c6F)c([H])c5[H])c(C(=O)N([H])[H])c4N([H])[H])C3([H])[H])c2[H])C([H])([H])C([H])([H])C1=O

$$$$
65:0:0
     RDKit          3D

 93101  0  0  1  0  0  0  0  0999 V2000
  -30.8740  -17.7450   18.9130 C   0  0  0  0  0  3  0  0  0  0  0  0
  -30.5980  -20.1910   18.8350 C   0  0  0  0  0  3  0  0  0  0  0  0
  -30.6310  -17.6630   20.3050 C   0  0  0  0  0  0  0  0  0  0  0  0
  -30.3470  -18.9760   20.9370 C   0  0  0  0  0  0  0  0  0  0  0  0
  -30.3270  -20.2510   20.2150 C   0  0  0  0  0  0  0  0  0  0  0  0
  -30.8640  -18.9630   18.2020 C   0  0  0  0  0  0  0  0  0  0  0  0
  -31.1080  -18.9480   16.8700 F   0  0  0  0  0  0  0  0  0  0  0  0
  -30.6330  -16.2190   20.9820 C   0  0  0  0  0  0  0  0  0  0  0  0
  -30.0490  -16.0890   22.0930 N   0  0  0  0  0  0  0  0  0  0  0  0
  -29.6560  -16.9690   22.3970 H   0  0  0  0  0  0  0  0  0  0  0  0
  -31.3680  -14.9080   20.3530 C   0  0  0  0  0  0  0  0  0  0  0  0
  -31.1000  -12.6980   19.1990 C   0  0  0  0  0  2  0  0  0  0  0  0
  -30.1580  -12.8790   17.9830 C   0  0  0  0  0  2  0  0  0  0  0  0
  -28.6770  -12.7440   18.3950 C   0  0  0  0  0  2  0  0  0  0  0  0
  -28.3460  -13.5500   19.6790 C   0  0  0  0  0  3  0  0  0  0  0  0
  -29.3980  -13.2790   20.7740 C   0  0  0  0  0  2  0  0  0  0  0  0
  -30.7090  -13.6890   20.2370 N   0  0  0  0  0  0  0  0  0  0  0  0
  -32.5220  -14.9980   19.9170 O   0  0  0  0  0  0  0  0  0  0  0  0
  -25.9760  -14.2090   20.4090 C   0  0  0  0  0  0  0  0  0  0  0  0
  -24.8810  -13.4640   20.7510 C   0  0  0  0  0  0  0  0  0  0  0  0
  -25.2950  -12.0980   20.6810 C   0  0  0  0  0  0  0  0  0  0  0  0
  -26.9890  -13.2990   20.1510 N   0  0  0  0  0  0  0  0  0  0  0  0
  -26.5840  -12.0210   20.3730 N   0  0  0  0  0  0  0  0  0  0  0  0
  -24.5230  -10.8590   20.8340 C   0  0  0  0  0  0  0  0  0  0  0  0
  -24.9080   -9.8560   21.7500 C   0  0  0  0  0  3  0  0  0  0  0  0
  -24.1390   -8.6800   21.8910 C   0  0  0  0  0  3  0  0  0  0  0  0
  -22.9690   -8.5010   21.1140 C   0  0  0  0  0  0  0  0  0  0  0  0
  -22.6030   -9.4920   20.1880 C   0  0  0  0  0  3  0  0  0  0  0  0
  -23.3720  -10.6590   20.0450 C   0  0  0  0  0  3  0  0  0  0  0  0
  -22.1750   -7.3810   21.1650 O   0  0  0  0  0  0  0  0  0  0  0  0
  -22.0550   -6.6350   22.3100 C   0  0  0  0  0  0  0  0  0  0  0  0
  -21.6010   -7.1980   23.5230 C   0  0  0  0  0  3  0  0  0  0  0  0
  -21.4270   -6.3800   24.6580 C   0  0  0  0  0  3  0  0  0  0  0  0
  -21.6940   -5.0010   24.5790 C   0  0  0  0  0  0  0  0  0  0  0  0
  -22.1410   -4.4370   23.3710 C   0  0  0  0  0  3  0  0  0  0  0  0
  -22.3170   -5.2520   22.2390 C   0  0  0  0  0  0  0  0  0  0  0  0
  -22.7270   -4.7000   21.0710 F   0  0  0  0  0  0  0  0  0  0  0  0
  -21.5200   -4.2130   25.6660 F   0  0  0  0  0  0  0  0  0  0  0  0
  -23.5020  -13.9830   21.0370 C   0  0  0  0  0  0  0  0  0  0  0  0
  -22.7540  -13.2990   21.8960 N   0  0  0  0  0  0  0  0  0  0  0  0
  -23.0960  -15.0300   20.5340 O   0  0  0  0  0  0  0  0  0  0  0  0
  -23.0950  -12.4530   22.3250 H   0  0  0  0  0  0  0  0  0  0  0  0
  -21.8280  -13.6290   22.1280 H   0  0  0  0  0  0  0  0  0  0  0  0
  -26.1910  -15.5780   20.2770 N   0  0  0  0  0  0  0  0  0  0  0  0
  -25.4600  -16.2620   20.4320 H   0  0  0  0  0  0  0  0  0  0  0  0
  -27.0840  -15.9940   20.0430 H   0  0  0  0  0  0  0  0  0  0  0  0
  -31.3160  -19.1390   23.2910 C   0  0  0  0  0  1  0  0  0  0  0  0
  -30.0450  -19.0950   22.4330 C   0  0  0  0  0  2  0  0  0  0  0  0
  -30.0480  -21.5030   20.8520 O   0  0  0  0  0  0  0  0  0  0  0  0
  -30.0130  -22.8550   20.1960 C   0  0  0  0  0  2  0  0  0  0  0  0
  -29.3320  -23.9640   21.0980 C   0  0  0  0  0  3  0  0  0  0  0  0
  -29.0070  -25.3230   21.1120 C   0  0  0  0  0  3  0  0  0  0  0  0
  -29.1500  -26.4590   20.2710 O   0  0  0  0  0  0  0  0  0  0  0  0
  -24.7970  -31.5320   23.1680 C   0  0  0  0  0  0  0  0  0  0  0  0
  -28.0110  -27.2930   20.1860 C   0  0  0  0  0  0  0  0  0  0  0  0
  -23.8250  -30.0400   21.4590 C   0  0  0  0  0  3  0  0  0  0  0  0
  -25.4990  -28.6750   20.0790 C   0  0  0  0  0  0  0  0  0  0  0  0
  -26.3260  -30.6200   21.4000 C   0  0  0  0  0  2  0  0  0  0  0  0
  -26.5850  -29.2660   20.7390 C   0  0  0  0  0  0  0  0  0  0  0  0
  -27.8470  -28.5870   20.7840 C   0  0  0  0  0  3  0  0  0  0  0  0
  -26.8990  -26.7660   19.4970 C   0  0  0  0  0  3  0  0  0  0  0  0
  -25.6590  -27.4320   19.4480 C   0  0  0  0  0  3  0  0  0  0  0  0
  -24.1740  -29.4140   20.0830 C   0  0  0  0  0  2  0  0  0  0  0  0
  -24.9970  -30.7500   22.0670 N   0  0  0  0  0  0  0  0  0  0  0  0
  -23.6670  -31.6850   23.6550 O   0  0  0  0  0  0  0  0  0  0  0  0
  -23.2290  -28.9460   22.3770 C   0  0  0  0  0  0  0  0  0  0  0  0
  -21.9490  -28.5960   22.1540 N   0  0  0  0  0  0  0  0  0  0  0  0
  -23.9190  -28.4160   23.2510 O   0  0  0  0  0  0  0  0  0  0  0  0
  -21.4450  -29.0830   21.4270 H   0  0  0  0  0  0  0  0  0  0  0  0
  -18.7560  -26.9040   22.3600 C   0  0  0  0  0  0  0  0  0  0  0  0
  -21.2060  -27.5570   22.8710 C   0  0  0  0  0  3  0  0  0  0  0  0
  -21.5790  -26.1490   22.3560 C   0  0  0  0  0  2  0  0  0  0  0  0
  -20.6470  -25.6440   21.2490 C   0  0  0  0  0  2  0  0  0  0  0  0
  -19.2020  -25.5860   21.7490 C   0  0  0  0  0  2  0  0  0  0  0  0
  -19.6980  -27.8370   22.8720 C   0  0  0  0  0  0  0  0  0  0  0  0
  -19.2310  -29.0600   23.4000 C   0  0  0  0  0  3  0  0  0  0  0  0
  -17.8560  -29.3580   23.4210 C   0  0  0  0  0  3  0  0  0  0  0  0
  -16.9270  -28.4260   22.9260 C   0  0  0  0  0  3  0  0  0  0  0  0
  -17.3770  -27.2010   22.4010 C   0  0  0  0  0  3  0  0  0  0  0  0
  -25.9740  -32.2880   23.8560 C   0  0  0  0  0  3  0  0  0  0  0  0
  -25.5150  -33.6530   24.1520 N   0  0  0  0  0  0  0  0  0  0  0  0
  -25.7840  -34.7290   23.3990 C   0  0  0  0  0  0  0  0  0  0  0  0
  -26.5130  -34.6830   22.4040 O   0  0  0  0  0  0  0  0  0  0  0  0
  -24.8680  -33.7550   24.9210 H   0  0  0  0  0  0  0  0  0  0  0  0
  -23.9040  -36.3390   22.9500 C   0  0  0  0  0  1  0  0  0  0  0  0
  -25.1460  -36.0680   23.8150 C   0  0  0  0  0  3  0  0  0  0  0  0
  -27.1480  -37.1700   24.7150 C   0  0  0  0  0  1  0  0  0  0  0  0
  -26.0730  -37.2170   23.7260 N   0  0  0  0  0  0  0  0  0  0  0  0
  -25.5740  -38.0940   23.8420 H   0  0  0  0  0  0  0  0  0  0  0  0
  -26.4830  -31.5790   25.1710 C   0  0  1  0  0  0  0  0  0  0  0  0
  -25.3570  -31.2550   26.1800 C   0  0  0  0  0  1  0  0  0  0  0  0
  -27.2090  -30.2550   24.8340 C   0  0  0  0  0  1  0  0  0  0  0  0
  -27.5190  -32.4800   25.8840 C   0  0  0  0  0  1  0  0  0  0  0  0
  1  3  1  0
  2  5  2  0
  3  4  2  0
  3  8  1  0
  4 48  1  0
  5 49  1  0
  5  4  1  0
  6  2  1  0
  6  1  2  0
  7  6  1  0
  8  9  2  0
  9 10  1  0
 11  8  1  0
 12 17  1  0
 13 14  1  0
 13 12  1  0
 15 14  1  0
 15 22  1  0
 15 16  1  0
 17 11  1  0
 17 16  1  0
 18 11  2  0
 19 20  2  0
 20 39  1  0
 21 20  1  0
 21 24  1  0
 22 23  1  0
 22 19  1  0
 23 21  2  0
 24 25  1  0
 25 26  2  0
 27 30  1  0
 27 26  1  0
 28 27  2  0
 29 28  1  0
 29 24  2  0
 30 31  1  0
 31 32  1  0
 32 33  2  0
 34 33  1  0
 34 38  1  0
 35 34  2  0
 36 31  2  0
 36 35  1  0
 37 36  1  0
 39 40  1  0
 40 43  1  0
 40 42  1  0
 41 39  2  0
 44 19  1  0
 44 45  1  0
 46 44  1  0
 48 47  1  0
 50 49  1  0
 50 51  1  0
 51 52  2  0
 53 52  1  0
 54 65  2  0
 55 53  1  0
 55 60  1  0
 56 64  1  0
 56 66  1  0
 57 63  1  0
 57 59  1  0
 58 64  1  0
 59 60  2  0
 59 58  1  0
 61 55  2  0
 62 61  1  0
 62 57  2  0
 63 56  1  0
 64 54  1  0
 66 68  2  0
 67 66  1  0
 69 67  1  0
 70 79  2  0
 70 75  1  0
 71 67  1  0
 71 75  1  0
 72 71  1  0
 73 74  1  0
 73 72  1  0
 74 70  1  0
 75 76  2  0
 76 77  1  0
 78 77  2  0
 79 78  1  0
 80 54  1  0
 80 81  1  0
 80 90  1  0
 81 84  1  0
 82 86  1  0
 82 81  1  0
 83 82  2  0
 86 85  1  0
 88 86  1  0
 88 89  1  0
 88 87  1  0
 90 93  1  1
 90 91  1  0
 92 90  1  0
M  ISO  4   8 100  11 100  52 101  53 101
M  END
>  <TORSDO>  (66) 
F 21

>  <SCORE>  (66) 
-11.130

>  <name>  (66) 
65

>  <ligand_id>  (66) 
65

>  <original_smiles>  (66) 
[H]N=C(C(=O)N1C([H])([H])C([H])([H])C([H])([H])C([H])(n2nc(-c3c([H])c([H])c(Oc4c([H])c([H])c(F)c([H])c4F)c([H])c3[H])c(C(=O)N([H])[H])c2N([H])[H])C1([H])[H])c1c([H])c(F)c([H])c(OC([H])([H])C([H])=C([H])Oc2c([H])c([H])c3c(c2[H])C([H])([H])N(C(=O)C([H])(N([H])C(=O)C([H])(N([H])C([H])([H])[H])C([H])([H])[H])C(C([H])([H])[H])(C([H])([H])[H])C([H])([H])[H])C([H])(C(=O)N([H])C2([H])c4c([H])c([H])c([H])c([H])c4C([H])([H])C([H])([H])C2([H])[H])C3([H])[H])c1C([H])([H])C([H])([H])[H]

>  <smiles>  (66) 
[H]N=C(C(=O)N1C([H])([H])C([H])([H])C([H])([H])C([H])(n2nc(-c3c([H])c([H])c(Oc4c([H])c([H])c(F)c([H])c4F)c([H])c3[H])c(C(=O)N([H])[H])c2N([H])[H])C1([H])[H])c1c([H])c(F)c([H])c(OC([H])([H])C([H])=C([H])Oc2c([H])c([H])c3c(c2[H])C([H])([H])N(C(=O)C([H])(N([H])C(=O)C([H])(N([H])C([H])([H])[H])C([H])([H])[H])C(C([H])([H])[H])(C([H])([H])[H])C([H])([H])[H])C([H])(C(=O)N([H])C2([H])c4c([H])c([H])c([H])c([H])c4C([H])([H])C([H])([H])C2([H])[H])C3([H])[H])c1C([H])([H])C([H])([H])[H]

$$$$
66:0:0
     RDKit          3D

 93101  0  0  1  0  0  0  0  0999 V2000
  -30.7250  -19.1370   22.4230 C   0  0  0  0  0  3  0  0  0  0  0  0
  -30.0190  -18.7980   19.7710 C   0  0  0  0  0  3  0  0  0  0  0  0
  -30.7430  -17.8250   21.8880 C   0  0  0  0  0  0  0  0  0  0  0  0
  -30.3990  -17.6090   20.5250 C   0  0  0  0  0  0  0  0  0  0  0  0
  -30.3730  -20.2900   21.6720 C   0  0  0  0  0  0  0  0  0  0  0  0
  -29.9870  -20.1510   20.3160 C   0  0  0  0  0  0  0  0  0  0  0  0
  -31.0550  -15.1080   19.9580 C   0  0  0  0  0  0  0  0  0  0  0  0
  -30.8500  -12.7960   19.0100 C   0  0  0  0  0  2  0  0  0  0  0  0
  -29.8650  -12.8150   17.8200 C   0  0  0  0  0  2  0  0  0  0  0  0
  -28.4090  -12.6600   18.3070 C   0  0  0  0  0  2  0  0  0  0  0  0
  -28.0760  -13.5990   19.4950 C   0  0  0  0  0  3  0  0  0  0  0  0
  -29.1690  -13.5420   20.5830 C   0  0  0  0  0  2  0  0  0  0  0  0
  -30.4420  -13.8760   19.9320 N   0  0  0  0  0  0  0  0  0  0  0  0
  -32.2450  -15.2180   19.6440 O   0  0  0  0  0  0  0  0  0  0  0  0
  -30.2190  -16.2120   20.0460 N   0  0  0  0  0  0  0  0  0  0  0  0
  -29.2500  -15.9370   20.0150 H   0  0  0  0  0  0  0  0  0  0  0  0
  -25.7390  -14.2510   20.3310 C   0  0  0  0  0  0  0  0  0  0  0  0
  -24.6670  -13.5000   20.7320 C   0  0  0  0  0  0  0  0  0  0  0  0
  -25.0890  -12.1380   20.6610 C   0  0  0  0  0  0  0  0  0  0  0  0
  -26.7460  -13.3450   20.0380 N   0  0  0  0  0  0  0  0  0  0  0  0
  -26.3640  -12.0680   20.3000 N   0  0  0  0  0  0  0  0  0  0  0  0
  -24.3340  -10.8930   20.8590 C   0  0  0  0  0  0  0  0  0  0  0  0
  -24.7260   -9.9380   21.8220 C   0  0  0  0  0  3  0  0  0  0  0  0
  -23.9740   -8.7580   22.0070 C   0  0  0  0  0  3  0  0  0  0  0  0
  -22.8150   -8.5260   21.2280 C   0  0  0  0  0  0  0  0  0  0  0  0
  -22.4430   -9.4690   20.2540 C   0  0  0  0  0  3  0  0  0  0  0  0
  -23.1960  -10.6400   20.0670 C   0  0  0  0  0  3  0  0  0  0  0  0
  -22.0380   -7.3970   21.3210 O   0  0  0  0  0  0  0  0  0  0  0  0
  -21.8670   -6.7370   22.5100 C   0  0  0  0  0  0  0  0  0  0  0  0
  -21.3240   -7.3770   23.6470 C   0  0  0  0  0  3  0  0  0  0  0  0
  -21.1000   -6.6420   24.8280 C   0  0  0  0  0  3  0  0  0  0  0  0
  -21.4100   -5.2690   24.8750 C   0  0  0  0  0  0  0  0  0  0  0  0
  -21.9470   -4.6300   23.7440 C   0  0  0  0  0  3  0  0  0  0  0  0
  -22.1720   -5.3620   22.5640 C   0  0  0  0  0  0  0  0  0  0  0  0
  -22.6690   -4.7360   21.4700 F   0  0  0  0  0  0  0  0  0  0  0  0
  -21.1900   -4.5620   26.0070 F   0  0  0  0  0  0  0  0  0  0  0  0
  -23.2960  -14.0120   21.0650 C   0  0  0  0  0  0  0  0  0  0  0  0
  -22.5880  -13.3290   21.9590 N   0  0  0  0  0  0  0  0  0  0  0  0
  -22.8630  -15.0520   20.5700 O   0  0  0  0  0  0  0  0  0  0  0  0
  -22.9530  -12.4860   22.3790 H   0  0  0  0  0  0  0  0  0  0  0  0
  -21.6700  -13.6520   22.2250 H   0  0  0  0  0  0  0  0  0  0  0  0
  -25.9310  -15.6190   20.1660 N   0  0  0  0  0  0  0  0  0  0  0  0
  -25.1780  -16.2830   20.3070 H   0  0  0  0  0  0  0  0  0  0  0  0
  -26.7560  -16.0450   19.7660 H   0  0  0  0  0  0  0  0  0  0  0  0
  -31.0560  -16.7580   24.1470 C   0  0  0  0  0  2  0  0  0  0  0  0
  -31.0300  -16.6970   22.8040 C   0  0  0  0  0  3  0  0  0  0  0  0
  -30.7480  -21.7260   23.5780 C   0  0  0  0  0  1  0  0  0  0  0  0
  -30.4320  -21.5640   22.1990 O   0  0  0  0  0  0  0  0  0  0  0  0
  -29.6820  -21.3110   19.5370 O   0  0  0  0  0  0  0  0  0  0  0  0
  -28.8220  -22.4520   19.9930 C   0  0  0  0  0  2  0  0  0  0  0  0
  -29.2700  -24.0100   19.8500 C   0  0  0  0  0  3  0  0  0  0  0  0
  -28.1260  -25.1600   19.8240 C   0  0  0  0  0  3  0  0  0  0  0  0
  -28.3820  -26.6500   19.8740 O   0  0  0  0  0  0  0  0  0  0  0  0
  -24.6390  -31.8820   23.2950 C   0  0  0  0  0  0  0  0  0  0  0  0
  -27.2640  -27.5270   19.9060 C   0  0  0  0  0  0  0  0  0  0  0  0
  -23.4270  -30.5540   21.6070 C   0  0  0  0  0  3  0  0  0  0  0  0
  -24.8750  -29.1270   20.0530 C   0  0  0  0  0  0  0  0  0  0  0  0
  -25.9590  -30.9300   21.3820 C   0  0  0  0  0  2  0  0  0  0  0  0
  -26.0520  -29.5910   20.6500 C   0  0  0  0  0  0  0  0  0  0  0  0
  -27.2500  -28.8060   20.5640 C   0  0  0  0  0  3  0  0  0  0  0  0
  -26.0530  -27.1380   19.2850 C   0  0  0  0  0  3  0  0  0  0  0  0
  -24.8790  -27.9100   19.3610 C   0  0  0  0  0  3  0  0  0  0  0  0
  -23.6230  -29.9720   20.1840 C   0  0  0  0  0  2  0  0  0  0  0  0
  -24.6960  -31.1370   22.1520 N   0  0  0  0  0  0  0  0  0  0  0  0
  -23.5630  -32.1020   23.8700 O   0  0  0  0  0  0  0  0  0  0  0  0
  -22.8100  -29.4650   22.5190 C   0  0  0  0  0  0  0  0  0  0  0  0
  -21.5020  -29.2060   22.3560 N   0  0  0  0  0  0  0  0  0  0  0  0
  -23.5090  -28.8600   23.3350 O   0  0  0  0  0  0  0  0  0  0  0  0
  -20.9910  -29.7530   21.6770 H   0  0  0  0  0  0  0  0  0  0  0  0
  -18.2200  -27.7140   22.6830 C   0  0  0  0  0  0  0  0  0  0  0  0
  -20.7300  -28.1930   23.0800 C   0  0  0  0  0  3  0  0  0  0  0  0
  -20.9830  -26.7810   22.5020 C   0  0  0  0  0  2  0  0  0  0  0  0
  -19.9640  -26.3730   21.4330 C   0  0  0  0  0  2  0  0  0  0  0  0
  -18.5460  -26.3920   22.0080 C   0  0  0  0  0  2  0  0  0  0  0  0
  -19.2450  -28.5670   23.1710 C   0  0  0  0  0  0  0  0  0  0  0  0
  -18.8890  -29.7990   23.7600 C   0  0  0  0  0  3  0  0  0  0  0  0
  -17.5380  -30.1830   23.8660 C   0  0  0  0  0  3  0  0  0  0  0  0
  -16.5270  -29.3280   23.3920 C   0  0  0  0  0  3  0  0  0  0  0  0
  -16.8680  -28.0960   22.8070 C   0  0  0  0  0  3  0  0  0  0  0  0
  -25.9200  -32.5090   23.9230 C   0  0  0  0  0  3  0  0  0  0  0  0
  -25.6140  -33.9080   24.2570 N   0  0  0  0  0  0  0  0  0  0  0  0
  -25.9600  -34.9630   23.5080 C   0  0  0  0  0  0  0  0  0  0  0  0
  -26.6400  -34.8610   22.4830 O   0  0  0  0  0  0  0  0  0  0  0  0
  -25.0110  -34.0620   25.0520 H   0  0  0  0  0  0  0  0  0  0  0  0
  -24.2430  -36.7680   23.1490 C   0  0  0  0  0  1  0  0  0  0  0  0
  -25.4760  -36.3530   23.9680 C   0  0  0  0  0  3  0  0  0  0  0  0
  -27.6090  -37.2240   24.8180 C   0  0  0  0  0  1  0  0  0  0  0  0
  -26.5140  -37.4010   23.8670 N   0  0  0  0  0  0  0  0  0  0  0  0
  -26.1120  -38.3220   24.0140 H   0  0  0  0  0  0  0  0  0  0  0  0
  -26.4290  -31.7330   25.2010 C   0  0  1  0  0  0  0  0  0  0  0  0
  -25.3250  -31.4780   26.2540 C   0  0  0  0  0  1  0  0  0  0  0  0
  -27.0300  -30.3640   24.8080 C   0  0  0  0  0  1  0  0  0  0  0  0
  -27.5660  -32.5330   25.8790 C   0  0  0  0  0  1  0  0  0  0  0  0
  2  6  2  0
  2  4  1  0
  3  1  1  0
  3 46  1  0
  4  3  2  0
  5 48  1  0
  5  1  2  0
  6  5  1  0
  7 15  1  0
  8 13  1  0
  9 10  1  0
  9  8  1  0
 11 10  1  0
 11 20  1  0
 11 12  1  0
 13  7  1  0
 13 12  1  0
 14  7  2  0
 15  4  1  0
 16 15  1  0
 17 18  2  0
 18 37  1  0
 19 18  1  0
 19 22  1  0
 20 21  1  0
 20 17  1  0
 21 19  2  0
 22 23  1  0
 23 24  2  0
 25 28  1  0
 25 24  1  0
 26 25  2  0
 27 26  1  0
 27 22  2  0
 28 29  1  0
 29 34  2  0
 29 30  1  0
 30 31  2  0
 31 32  1  0
 32 36  1  0
 33 32  2  0
 34 33  1  0
 35 34  1  0
 37 38  1  0
 38 41  1  0
 38 40  1  0
 39 37  2  0
 42 43  1  0
 42 17  1  0
 44 42  1  0
 46 45  2  0
 48 47  1  0
 49 50  1  0
 49  6  1  0
 51 50  1  0
 52 51  2  0
 52 53  1  0
 53 55  1  0
 54 65  2  0
 55 60  1  0
 56 64  1  0
 56 66  1  0
 57 63  1  0
 57 59  1  0
 58 64  1  0
 59 58  1  0
 60 59  2  0
 61 62  1  0
 61 55  2  0
 62 57  2  0
 63 56  1  0
 64 54  1  0
 66 68  2  0
 67 66  1  0
 69 67  1  0
 70 79  2  0
 70 75  1  0
 71 67  1  0
 71 75  1  0
 72 71  1  0
 73 74  1  0
 73 72  1  0
 74 70  1  0
 75 76  2  0
 76 77  1  0
 78 77  2  0
 79 78  1  0
 80 54  1  0
 80 81  1  0
 80 90  1  0
 81 84  1  0
 82 86  1  0
 82 81  1  0
 83 82  2  0
 86 85  1  0
 88 86  1  0
 88 89  1  0
 88 87  1  0
 90 93  1  1
 90 91  1  0
 92 90  1  0
M  ISO  4   7 100  15 100  52 101  53 101
M  END
>  <TORSDO>  (67) 
F 22

>  <SCORE>  (67) 
-10.170

>  <name>  (67) 
66

>  <ligand_id>  (67) 
66

>  <original_smiles>  (67) 
[H]C([H])=C([H])c1c([H])c(OC([H])([H])[H])c(OC([H])([H])C([H])([H])C([H])([H])Oc2c([H])c([H])c3c(c2[H])C([H])([H])N(C(=O)C([H])(N([H])C(=O)C([H])(N([H])C([H])([H])[H])C([H])([H])[H])C(C([H])([H])[H])(C([H])([H])[H])C([H])([H])[H])C([H])(C(=O)N([H])C2([H])c4c([H])c([H])c([H])c([H])c4C([H])([H])C([H])([H])C2([H])[H])C3([H])[H])c([H])c1N([H])C(=O)N1C([H])([H])C([H])([H])C([H])([H])C([H])(n2nc(-c3c([H])c([H])c(Oc4c([H])c([H])c(F)c([H])c4F)c([H])c3[H])c(C(=O)N([H])[H])c2N([H])[H])C1([H])[H]

>  <smiles>  (67) 
[H]C([H])=C([H])c1c([H])c(OC([H])([H])[H])c(OC([H])([H])C([H])([H])C([H])([H])Oc2c([H])c([H])c3c(c2[H])C([H])([H])N(C(=O)C([H])(N([H])C(=O)C([H])(N([H])C([H])([H])[H])C([H])([H])[H])C(C([H])([H])[H])(C([H])([H])[H])C([H])([H])[H])C([H])(C(=O)N([H])C2([H])c4c([H])c([H])c([H])c([H])c4C([H])([H])C([H])([H])C2([H])[H])C3([H])[H])c([H])c1N([H])C(=O)N1C([H])([H])C([H])([H])C([H])([H])C([H])(n2nc(-c3c([H])c([H])c(Oc4c([H])c([H])c(F)c([H])c4F)c([H])c3[H])c(C(=O)N([H])[H])c2N([H])[H])C1([H])[H]

$$$$
67:0:0
     RDKit          3D

 93102  0  0  1  0  0  0  0  0999 V2000
  -29.9890  -18.3860   20.4670 C   0  0  0  0  0  3  0  0  0  0  0  0
  -27.2720  -18.0080   20.1480 C   0  0  0  0  0  3  0  0  0  0  0  0
  -29.4860  -17.0140   20.5600 C   0  0  0  0  0  0  0  0  0  0  0  0
  -28.0630  -16.8930   20.5060 C   0  0  0  0  0  0  0  0  0  0  0  0
  -29.1640  -19.5770   20.2650 C   0  0  0  0  0  0  0  0  0  0  0  0
  -27.7880  -19.3120   20.0440 C   0  0  0  0  0  0  0  0  0  0  0  0
  -26.9020  -20.2980   19.7770 F   0  0  0  0  0  0  0  0  0  0  0  0
  -30.3160  -15.7800   21.0560 C   0  0  0  0  0  0  0  0  0  0  0  0
  -30.7680  -15.8790   22.2390 N   0  0  0  0  0  0  0  0  0  0  0  0
  -30.4770  -16.7540   22.6600 H   0  0  0  0  0  0  0  0  0  0  0  0
  -30.7580  -14.4800   20.2310 C   0  0  0  0  0  0  0  0  0  0  0  0
  -30.6660  -12.0870   19.4910 C   0  0  0  0  0  2  0  0  0  0  0  0
  -29.8110  -11.9030   18.2200 C   0  0  0  0  0  2  0  0  0  0  0  0
  -28.3310  -11.7000   18.5830 C   0  0  0  0  0  2  0  0  0  0  0  0
  -27.8370  -12.7240   19.6380 C   0  0  0  0  0  3  0  0  0  0  0  0
  -28.8300  -12.8590   20.8180 C   0  0  0  0  0  2  0  0  0  0  0  0
  -30.1370  -13.2410   20.2710 N   0  0  0  0  0  0  0  0  0  0  0  0
  -31.8450  -14.5720   19.6500 O   0  0  0  0  0  0  0  0  0  0  0  0
  -25.3820  -13.2510   20.1610 C   0  0  0  0  0  0  0  0  0  0  0  0
  -24.3380  -12.4680   20.5680 C   0  0  0  0  0  0  0  0  0  0  0  0
  -24.8590  -11.1440   20.6880 C   0  0  0  0  0  0  0  0  0  0  0  0
  -26.4810  -12.4130   20.0820 N   0  0  0  0  0  0  0  0  0  0  0  0
  -26.1670  -11.1420   20.4490 N   0  0  0  0  0  0  0  0  0  0  0  0
  -24.1770   -9.8700   20.9550 C   0  0  0  0  0  0  0  0  0  0  0  0
  -24.6020   -9.0020   21.9850 C   0  0  0  0  0  3  0  0  0  0  0  0
  -23.9150   -7.7950   22.2350 C   0  0  0  0  0  3  0  0  0  0  0  0
  -22.7870   -7.4450   21.4540 C   0  0  0  0  0  0  0  0  0  0  0  0
  -22.3820   -8.3010   20.4150 C   0  0  0  0  0  3  0  0  0  0  0  0
  -23.0690   -9.5000   20.1660 C   0  0  0  0  0  3  0  0  0  0  0  0
  -22.0740   -6.2810   21.6090 O   0  0  0  0  0  0  0  0  0  0  0  0
  -21.9720   -5.6550   22.8250 C   0  0  0  0  0  0  0  0  0  0  0  0
  -21.4200   -6.3040   23.9520 C   0  0  0  0  0  3  0  0  0  0  0  0
  -21.2720   -5.6030   25.1660 C   0  0  0  0  0  3  0  0  0  0  0  0
  -21.6630   -4.2530   25.2510 C   0  0  0  0  0  0  0  0  0  0  0  0
  -22.2070   -3.6030   24.1290 C   0  0  0  0  0  3  0  0  0  0  0  0
  -22.3590   -4.3020   22.9180 C   0  0  0  0  0  0  0  0  0  0  0  0
  -22.8630   -3.6660   21.8340 F   0  0  0  0  0  0  0  0  0  0  0  0
  -21.5130   -3.5770   26.4140 F   0  0  0  0  0  0  0  0  0  0  0  0
  -22.9110  -12.9040   20.7370 C   0  0  0  0  0  0  0  0  0  0  0  0
  -22.1810  -12.2740   21.6500 N   0  0  0  0  0  0  0  0  0  0  0  0
  -22.4490  -13.8440   20.0920 O   0  0  0  0  0  0  0  0  0  0  0  0
  -22.5680  -11.5180   22.1970 H   0  0  0  0  0  0  0  0  0  0  0  0
  -21.2230  -12.5530   21.8070 H   0  0  0  0  0  0  0  0  0  0  0  0
  -25.4810  -14.5940   19.8160 N   0  0  0  0  0  4  0  0  0  0  0  0
  -24.6650  -15.1910   19.7570 H   0  0  0  0  0  0  0  0  0  0  0  0
  -26.3190  -15.0320   19.4590 H   0  0  0  0  0  0  0  0  0  0  0  0
  -26.0930  -15.3060   20.6130 C   0  0  0  0  0  2  0  0  0  0  0  0
  -27.3510  -15.6590   20.9180 C   0  0  0  0  0  2  0  0  0  0  0  0
  -29.6760  -20.9210   20.3070 O   0  0  0  0  0  0  0  0  0  0  0  0
  -28.7980  -22.1370   20.4270 C   0  0  0  0  0  3  0  0  0  0  0  0
  -29.3500  -23.6650   20.3270 C   0  0  0  0  0  3  0  0  0  0  0  0
  -28.2870  -24.8920   20.4240 C   0  0  0  0  0  2  0  0  0  0  0  0
  -28.6230  -26.3500   20.2040 O   0  0  0  0  0  0  0  0  0  0  0  0
  -24.8500  -31.7630   23.2380 C   0  0  0  0  0  0  0  0  0  0  0  0
  -27.5510  -27.2740   20.1240 C   0  0  0  0  0  0  0  0  0  0  0  0
  -23.7180  -30.4630   21.4740 C   0  0  0  0  0  3  0  0  0  0  0  0
  -25.2220  -28.9590   20.0480 C   0  0  0  0  0  0  0  0  0  0  0  0
  -26.2690  -30.7420   21.4370 C   0  0  0  0  0  2  0  0  0  0  0  0
  -26.3660  -29.3900   20.7310 C   0  0  0  0  0  0  0  0  0  0  0  0
  -27.5370  -28.5640   20.7540 C   0  0  0  0  0  3  0  0  0  0  0  0
  -26.3970  -26.9270   19.3870 C   0  0  0  0  0  3  0  0  0  0  0  0
  -25.2450  -27.7380   19.3580 C   0  0  0  0  0  3  0  0  0  0  0  0
  -23.9970  -29.8520   20.0740 C   0  0  0  0  0  2  0  0  0  0  0  0
  -24.9630  -31.0030   22.1080 N   0  0  0  0  0  0  0  0  0  0  0  0
  -23.7430  -32.0320   23.7280 O   0  0  0  0  0  0  0  0  0  0  0  0
  -22.9890  -29.4140   22.3480 C   0  0  0  0  0  0  0  0  0  0  0  0
  -21.6610  -29.2940   22.1740 N   0  0  0  0  0  0  0  0  0  0  0  0
  -23.6180  -28.7130   23.1450 O   0  0  0  0  0  0  0  0  0  0  0  0
  -21.2120  -29.9090   21.5090 H   0  0  0  0  0  0  0  0  0  0  0  0
  -18.2200  -28.2420   22.5660 C   0  0  0  0  0  0  0  0  0  0  0  0
  -20.7860  -28.3410   22.8620 C   0  0  0  0  0  3  0  0  0  0  0  0
  -20.8160  -26.9590   22.1670 C   0  0  0  0  0  2  0  0  0  0  0  0
  -19.7050  -26.7840   21.1280 C   0  0  0  0  0  2  0  0  0  0  0  0
  -18.3280  -26.9470   21.7790 C   0  0  0  0  0  2  0  0  0  0  0  0
  -19.3740  -28.9040   23.0610 C   0  0  0  0  0  0  0  0  0  0  0  0
  -19.2180  -30.1220   23.7570 C   0  0  0  0  0  3  0  0  0  0  0  0
  -17.9390  -30.6750   23.9670 C   0  0  0  0  0  3  0  0  0  0  0  0
  -16.7990  -30.0070   23.4860 C   0  0  0  0  0  3  0  0  0  0  0  0
  -16.9400  -28.7930   22.7900 C   0  0  0  0  0  3  0  0  0  0  0  0
  -26.1060  -32.3480   23.9540 C   0  0  0  0  0  3  0  0  0  0  0  0
  -25.7840  -33.7220   24.3670 N   0  0  0  0  0  0  0  0  0  0  0  0
  -26.1220  -34.8220   23.6810 C   0  0  0  0  0  0  0  0  0  0  0  0
  -26.8070  -34.7870   22.6560 O   0  0  0  0  0  0  0  0  0  0  0  0
  -25.1740  -33.8230   25.1660 H   0  0  0  0  0  0  0  0  0  0  0  0
  -24.3830  -36.6250   23.4290 C   0  0  0  0  0  1  0  0  0  0  0  0
  -25.6240  -36.1790   24.2190 C   0  0  0  0  0  3  0  0  0  0  0  0
  -27.7480  -37.0290   25.1110 C   0  0  0  0  0  1  0  0  0  0  0  0
  -26.6490  -37.2440   24.1750 N   0  0  0  0  0  0  0  0  0  0  0  0
  -26.2350  -38.1510   24.3760 H   0  0  0  0  0  0  0  0  0  0  0  0
  -26.5650  -31.4890   25.1960 C   0  0  1  0  0  0  0  0  0  0  0  0
  -25.4270  -31.1790   26.1970 C   0  0  0  0  0  1  0  0  0  0  0  0
  -27.1660  -30.1390   24.7370 C   0  0  0  0  0  1  0  0  0  0  0  0
  -27.6830  -32.2330   25.9630 C   0  0  0  0  0  1  0  0  0  0  0  0
  1  3  1  0
  2  4  1  0
  3  8  1  0
  4  3  2  0
  4 48  1  0
  5 49  1  0
  5  1  2  0
  6  2  2  0
  6  5  1  0
  7  6  1  0
  8  9  2  0
  9 10  1  0
 11 17  1  0
 11  8  1  0
 12 17  1  0
 13 14  1  0
 13 12  1  0
 15 14  1  0
 15 22  1  0
 15 16  1  0
 17 16  1  0
 18 11  2  0
 19 20  2  0
 20 21  1  0
 20 39  1  0
 21 24  1  0
 22 19  1  0
 22 23  1  0
 23 21  2  0
 24 25  1  0
 25 26  2  0
 27 30  1  0
 27 26  1  0
 28 27  2  0
 29 28  1  0
 29 24  2  0
 30 31  1  0
 31 36  2  0
 31 32  1  0
 32 33  2  0
 33 34  1  0
 34 38  1  0
 35 34  2  0
 36 35  1  0
 37 36  1  0
 39 40  1  0
 40 43  1  0
 40 42  1  0
 41 39  2  0
 44 19  1  0
 44 47  1  0
 45 44  1  0
 46 44  1  0
 47 48  1  0
 49 50  1  0
 51 52  1  0
 51 50  2  0
 53 52  1  0
 54 65  2  0
 55 53  1  0
 55 60  1  0
 56 64  1  0
 56 66  1  0
 57 63  1  0
 57 59  1  0
 58 64  1  0
 59 60  2  0
 59 58  1  0
 61 55  2  0
 62 61  1  0
 62 57  2  0
 63 56  1  0
 64 54  1  0
 66 68  2  0
 67 66  1  0
 69 67  1  0
 70 79  2  0
 70 75  1  0
 71 67  1  0
 71 75  1  0
 72 71  1  0
 73 74  1  0
 73 72  1  0
 74 70  1  0
 75 76  2  0
 76 77  1  0
 78 77  2  0
 79 78  1  0
 80 54  1  0
 80 81  1  0
 80 90  1  0
 81 84  1  0
 82 86  1  0
 82 81  1  0
 83 82  2  0
 86 85  1  0
 88 86  1  0
 88 89  1  0
 88 87  1  0
 90 93  1  1
 90 91  1  0
 92 90  1  0
M  ISO  4   8 100  11 100  52 101  53 101
M  END
>  <TORSDO>  (68) 
F 22

>  <SCORE>  (68) 
-11.056

>  <name>  (68) 
67

>  <ligand_id>  (68) 
67

>  <original_smiles>  (68) 
[H]N=C(C(=O)N1C([H])([H])C([H])([H])C([H])([H])C([H])(n2nc(-c3c([H])c([H])c(Oc4c([H])c([H])c(F)c([H])c4F)c([H])c3[H])c(C(=O)N([H])[H])c2N([H])[H])C1([H])[H])c1c([H])c(OC([H])([H])C([H])([H])C([H])([H])Oc2c([H])c([H])c3c(c2[H])C([H])([H])N(C(=O)C([H])(N([H])C(=O)C([H])(N([H])C([H])([H])[H])C([H])([H])[H])C(C([H])([H])[H])(C([H])([H])[H])C([H])([H])[H])C([H])(C(=O)N([H])C2([H])c4c([H])c([H])c([H])c([H])c4C([H])([H])C([H])([H])C2([H])[H])C3([H])[H])c(F)c([H])c1C([H])=C([H])[H]

>  <smiles>  (68) 
[H]N=C(C(=O)N1C([H])([H])C([H])([H])C([H])([H])C([H])(n2nc(-c3c([H])c([H])c(Oc4c([H])c([H])c(F)c([H])c4F)c([H])c3[H])c(C(=O)N([H])[H])c2N([H])[H])C1([H])[H])c1c([H])c(OC([H])([H])C([H])([H])C([H])([H])Oc2c([H])c([H])c3c(c2[H])C([H])([H])N(C(=O)C([H])(N([H])C(=O)C([H])(N([H])C([H])([H])[H])C([H])([H])[H])C(C([H])([H])[H])(C([H])([H])[H])C([H])([H])[H])C([H])(C(=O)N([H])C2([H])c4c([H])c([H])c([H])c([H])c4C([H])([H])C([H])([H])C2([H])[H])C3([H])[H])c(F)c([H])c1C([H])=C([H])[H]

$$$$
68:0:0
     RDKit          3D

 85 93  0  0  1  0  0  0  0  0999 V2000
  -30.1770  -16.3370   20.1310 C   0  0  0  0  0  0  0  0  0  0  0  0
  -30.5180  -13.6000   19.5090 C   0  0  0  0  0  2  0  0  0  0  0  0
  -29.8050  -12.7510   18.3930 C   0  0  0  0  0  2  0  0  0  0  0  0
  -28.4480  -12.2260   18.8560 C   0  0  0  0  0  2  0  0  0  0  0  0
  -27.7510  -13.3080   19.6960 C   0  0  0  0  0  3  0  0  0  0  0  0
  -28.6520  -14.0250   20.7580 C   0  0  0  0  0  2  0  0  0  0  0  0
  -29.7010  -14.8580   20.0440 N   0  0  0  0  0  0  0  0  0  0  0  0
  -31.4180  -16.0810   20.1790 O   0  0  0  0  0  0  0  0  0  0  0  0
  -28.7530  -21.3810   19.7950 C   0  0  0  0  0  0  0  0  0  0  0  0
  -28.0400  -22.9130   19.6080 C   0  0  0  0  0  2  0  0  0  0  0  0
  -30.2050  -20.8710   20.1690 C   0  0  0  0  0  3  0  0  0  0  0  0
  -30.6340  -19.2040   20.0930 C   0  0  0  0  0  3  0  0  0  0  0  0
  -28.5120  -19.4500   19.8140 C   0  0  0  0  0  0  0  0  0  0  0  0
  -29.6540  -17.9980   20.0280 N   0  0  0  0  0  0  0  0  0  0  0  0
  -25.3440  -13.7440   20.2990 C   0  0  0  0  0  0  0  0  0  0  0  0
  -24.2960  -12.9450   20.6470 C   0  0  0  0  0  0  0  0  0  0  0  0
  -24.8170  -11.6150   20.7290 C   0  0  0  0  0  0  0  0  0  0  0  0
  -26.4380  -12.9110   20.1830 N   0  0  0  0  0  0  0  0  0  0  0  0
  -26.1320  -11.6200   20.4980 N   0  0  0  0  0  0  0  0  0  0  0  0
  -24.1150  -10.3420   20.9540 C   0  0  0  0  0  0  0  0  0  0  0  0
  -24.5130   -9.4450   21.9690 C   0  0  0  0  0  3  0  0  0  0  0  0
  -23.7990   -8.2440   22.1870 C   0  0  0  0  0  3  0  0  0  0  0  0
  -22.6750   -7.9300   21.3870 C   0  0  0  0  0  0  0  0  0  0  0  0
  -22.2950   -8.8180   20.3640 C   0  0  0  0  0  3  0  0  0  0  0  0
  -23.0080  -10.0090   20.1460 C   0  0  0  0  0  3  0  0  0  0  0  0
  -21.9400   -6.7740   21.5060 O   0  0  0  0  0  0  0  0  0  0  0  0
  -21.8420   -6.1020   22.6980 C   0  0  0  0  0  0  0  0  0  0  0  0
  -21.3410   -6.7220   23.8630 C   0  0  0  0  0  3  0  0  0  0  0  0
  -21.1920   -5.9760   25.0490 C   0  0  0  0  0  3  0  0  0  0  0  0
  -21.5340   -4.6100   25.0700 C   0  0  0  0  0  0  0  0  0  0  0  0
  -22.0300   -3.9900   23.9100 C   0  0  0  0  0  3  0  0  0  0  0  0
  -22.1800   -4.7340   22.7260 C   0  0  0  0  0  0  0  0  0  0  0  0
  -22.6350   -4.1250   21.6040 F   0  0  0  0  0  0  0  0  0  0  0  0
  -21.3870   -3.8910   26.2080 F   0  0  0  0  0  0  0  0  0  0  0  0
  -22.8700  -13.3840   20.7880 C   0  0  0  0  0  0  0  0  0  0  0  0
  -22.1150  -12.7400   21.6700 N   0  0  0  0  0  0  0  0  0  0  0  0
  -22.4330  -14.3410   20.1490 O   0  0  0  0  0  0  0  0  0  0  0  0
  -22.4850  -11.9680   22.2050 H   0  0  0  0  0  0  0  0  0  0  0  0
  -21.1550  -13.0200   21.8100 H   0  0  0  0  0  0  0  0  0  0  0  0
  -25.4580  -15.1050   20.0340 N   0  0  0  0  0  0  0  0  0  0  0  0
  -24.6530  -15.7210   20.0620 H   0  0  0  0  0  0  0  0  0  0  0  0
  -26.3090  -15.5760   19.7590 H   0  0  0  0  0  0  0  0  0  0  0  0
  -26.1980  -18.6060   20.4300 C   0  0  0  0  0  2  0  0  0  0  0  0
  -27.3550  -19.1970   20.7630 C   0  0  0  0  0  3  0  0  0  0  0  0
  -28.1170  -24.7070   19.5840 O   0  0  0  0  0  0  0  0  0  0  0  0
  -24.6660  -31.5150   22.7290 C   0  0  0  0  0  0  0  0  0  0  0  0
  -27.1720  -26.1220   19.6220 C   0  0  0  0  0  0  0  0  0  0  0  0
  -23.4770  -30.1160   21.1000 C   0  0  0  0  0  3  0  0  0  0  0  0
  -24.9160  -28.4210   19.6500 C   0  0  0  0  0  0  0  0  0  0  0  0
  -26.0680  -30.1620   20.9690 C   0  0  0  0  0  2  0  0  0  0  0  0
  -26.1310  -28.6900   20.2910 C   0  0  0  0  0  0  0  0  0  0  0  0
  -27.2130  -27.5840   20.2360 C   0  0  0  0  0  3  0  0  0  0  0  0
  -25.9180  -26.1950   18.9190 C   0  0  0  0  0  3  0  0  0  0  0  0
  -24.8760  -27.2060   18.9390 C   0  0  0  0  0  3  0  0  0  0  0  0
  -23.7180  -29.4120   19.7260 C   0  0  0  0  0  2  0  0  0  0  0  0
  -24.7680  -30.6430   21.6520 N   0  0  0  0  0  0  0  0  0  0  0  0
  -23.5700  -31.8080   23.2460 O   0  0  0  0  0  0  0  0  0  0  0  0
  -22.7550  -29.1520   22.0850 C   0  0  0  0  0  0  0  0  0  0  0  0
  -21.4120  -29.0360   22.0200 N   0  0  0  0  0  0  0  0  0  0  0  0
  -23.4240  -28.5000   22.8880 O   0  0  0  0  0  0  0  0  0  0  0  0
  -20.9140  -29.6140   21.3580 H   0  0  0  0  0  0  0  0  0  0  0  0
  -18.0300  -27.8590   22.6970 C   0  0  0  0  0  0  0  0  0  0  0  0
  -20.6070  -28.0820   22.8010 C   0  0  0  0  0  3  0  0  0  0  0  0
  -20.6420  -26.6750   22.1590 C   0  0  0  0  0  2  0  0  0  0  0  0
  -19.4740  -26.4190   21.2010 C   0  0  0  0  0  2  0  0  0  0  0  0
  -18.1400  -26.5460   21.9410 C   0  0  0  0  0  2  0  0  0  0  0  0
  -19.1860  -28.5870   23.0870 C   0  0  0  0  0  0  0  0  0  0  0  0
  -19.0210  -29.8120   23.7710 C   0  0  0  0  0  3  0  0  0  0  0  0
  -17.7370  -30.3100   24.0590 C   0  0  0  0  0  3  0  0  0  0  0  0
  -16.5970  -29.5810   23.6780 C   0  0  0  0  0  3  0  0  0  0  0  0
  -16.7450  -28.3560   23.0050 C   0  0  0  0  0  3  0  0  0  0  0  0
  -25.9120  -32.1990   23.3710 C   0  0  0  0  0  3  0  0  0  0  0  0
  -25.5220  -33.5430   23.8600 N   0  0  0  0  0  0  0  0  0  0  0  0
  -25.7870  -34.7060   23.2490 C   0  0  0  0  0  0  0  0  0  0  0  0
  -26.4280  -34.7680   22.1970 O   0  0  0  0  0  0  0  0  0  0  0  0
  -24.9370  -33.5620   24.6830 H   0  0  0  0  0  0  0  0  0  0  0  0
  -23.9730  -36.4640   23.1960 C   0  0  0  0  0  1  0  0  0  0  0  0
  -25.2640  -36.0100   23.8980 C   0  0  0  0  0  3  0  0  0  0  0  0
  -27.3910  -36.8970   24.7570 C   0  0  0  0  0  1  0  0  0  0  0  0
  -26.2460  -37.1200   23.8800 N   0  0  0  0  0  0  0  0  0  0  0  0
  -25.8040  -37.9950   24.1510 H   0  0  0  0  0  0  0  0  0  0  0  0
  -26.5230  -31.3670   24.5680 C   0  0  1  0  0  0  0  0  0  0  0  0
  -25.4950  -31.0030   25.6680 C   0  0  0  0  0  1  0  0  0  0  0  0
  -27.1470  -30.0450   24.0690 C   0  0  0  0  0  1  0  0  0  0  0  0
  -27.6700  -32.1640   25.2330 C   0  0  0  0  0  1  0  0  0  0  0  0
  1  8  2  0
  2  7  1  0
  3  4  1  0
  3  2  1  0
  5  4  1  0
  5 18  1  0
  5  6  1  0
  7  1  1  0
  7  6  1  0
  9 13  2  0
  9 11  1  0
 10  9  1  0
 12 11  2  0
 13 14  1  0
 13 44  1  0
 14 12  1  0
 14  1  1  0
 15 16  2  0
 16 17  1  0
 16 35  1  0
 17 20  1  0
 18 15  1  0
 18 19  1  0
 19 17  2  0
 20 21  1  0
 21 22  2  0
 23 26  1  0
 23 22  1  0
 24 23  2  0
 25 24  1  0
 25 20  2  0
 26 27  1  0
 27 32  2  0
 27 28  1  0
 28 29  2  0
 29 30  1  0
 30 34  1  0
 31 30  2  0
 32 31  1  0
 33 32  1  0
 35 36  1  0
 36 39  1  0
 36 38  1  0
 37 35  2  0
 40 41  1  0
 40 15  1  0
 42 40  1  0
 43 44  2  0
 45 10  1  0
 45 47  1  0
 46 57  2  0
 47 52  1  0
 48 56  1  0
 48 58  1  0
 49 55  1  0
 49 51  1  0
 50 56  1  0
 51 50  1  0
 52 51  2  0
 53 54  1  0
 53 47  2  0
 54 49  2  0
 55 48  1  0
 56 46  1  0
 58 60  2  0
 59 58  1  0
 61 59  1  0
 62 71  2  0
 62 67  1  0
 63 59  1  0
 63 67  1  0
 64 63  1  0
 65 66  1  0
 65 64  1  0
 66 62  1  0
 67 68  2  0
 68 69  1  0
 70 69  2  0
 71 70  1  0
 72 46  1  0
 72 73  1  0
 72 82  1  0
 73 76  1  0
 74 73  1  0
 74 78  1  0
 75 74  2  0
 78 77  1  0
 80 78  1  0
 80 81  1  0
 80 79  1  0
 82 85  1  1
 82 83  1  0
 84 82  1  0
M  ISO  4   1 100  10 101  14 100  45 101
M  END
>  <TORSDO>  (69) 
F 16

>  <SCORE>  (69) 
-12.783

>  <name>  (69) 
68

>  <ligand_id>  (69) 
68

>  <original_smiles>  (69) 
[H]C([H])=C([H])C1([H])C(=C([H])Oc2c([H])c([H])c3c(c2[H])C([H])([H])N(C(=O)C([H])(N([H])C(=O)C([H])(N([H])C([H])([H])[H])C([H])([H])[H])C(C([H])([H])[H])(C([H])([H])[H])C([H])([H])[H])C([H])(C(=O)N([H])C2([H])c4c([H])c([H])c([H])c([H])c4C([H])([H])C([H])([H])C2([H])[H])C3([H])[H])C([H])([H])C([H])([H])N1C(=O)N1C([H])([H])C([H])([H])C([H])([H])C([H])(n2nc(-c3c([H])c([H])c(Oc4c([H])c([H])c(F)c([H])c4F)c([H])c3[H])c(C(=O)N([H])[H])c2N([H])[H])C1([H])[H]

>  <smiles>  (69) 
[H]C([H])=C([H])C1([H])C(=C([H])Oc2c([H])c([H])c3c(c2[H])C([H])([H])N(C(=O)C([H])(N([H])C(=O)C([H])(N([H])C([H])([H])[H])C([H])([H])[H])C(C([H])([H])[H])(C([H])([H])[H])C([H])([H])[H])C([H])(C(=O)N([H])C2([H])c4c([H])c([H])c([H])c([H])c4C([H])([H])C([H])([H])C2([H])[H])C3([H])[H])C([H])([H])C([H])([H])N1C(=O)N1C([H])([H])C([H])([H])C([H])([H])C([H])(n2nc(-c3c([H])c([H])c(Oc4c([H])c([H])c(F)c([H])c4F)c([H])c3[H])c(C(=O)N([H])[H])c2N([H])[H])C1([H])[H]

$$$$
69:0:0
     RDKit          3D

 92100  0  0  1  0  0  0  0  0999 V2000
  -28.1700  -17.9920   20.5930 C   0  0  0  0  0  3  0  0  0  0  0  0
  -27.3310  -19.0470   20.1830 C   0  0  0  0  0  3  0  0  0  0  0  0
  -30.0700  -19.4860   20.4790 C   0  0  0  0  0  3  0  0  0  0  0  0
  -29.5630  -18.1740   20.7050 C   0  0  0  0  0  0  0  0  0  0  0  0
  -27.8490  -20.3280   19.8840 C   0  0  0  0  0  0  0  0  0  0  0  0
  -29.2320  -20.5760   20.1080 C   0  0  0  0  0  0  0  0  0  0  0  0
  -25.6260  -21.4480   19.5050 C   0  0  0  0  0  2  0  0  0  0  0  0
  -26.9570  -21.3680   19.3350 C   0  0  0  0  0  3  0  0  0  0  0  0
  -30.4560  -16.9980   20.9900 C   0  0  0  0  0  3  0  0  0  0  0  0
  -30.0700  -15.8620   21.4690 N   0  0  0  0  0  0  0  0  0  0  0  0
  -30.9840  -14.7990   21.5250 C   0  0  0  0  0  0  0  0  0  0  0  0
  -31.0000  -12.3880   20.9720 C   0  0  0  0  0  2  0  0  0  0  0  0
  -30.3650  -12.2320   19.5740 C   0  0  0  0  0  2  0  0  0  0  0  0
  -28.8300  -12.1200   19.6750 C   0  0  0  0  0  2  0  0  0  0  0  0
  -28.2070  -13.2140   20.5800 C   0  0  0  0  0  3  0  0  0  0  0  0
  -28.9770  -13.3220   21.9120 C   0  0  0  0  0  2  0  0  0  0  0  0
  -30.3940  -13.5700   21.6000 N   0  0  0  0  0  0  0  0  0  0  0  0
  -32.2010  -14.8980   21.3430 O   0  0  0  0  0  0  0  0  0  0  0  0
  -25.7340  -13.8980   20.7380 C   0  0  0  0  0  0  0  0  0  0  0  0
  -24.5940  -13.1710   20.9410 C   0  0  0  0  0  0  0  0  0  0  0  0
  -25.0140  -11.8150   21.1060 C   0  0  0  0  0  0  0  0  0  0  0  0
  -26.7790  -12.9910   20.7930 N   0  0  0  0  0  0  0  0  0  0  0  0
  -26.3370  -11.7370   21.0680 N   0  0  0  0  0  0  0  0  0  0  0  0
  -24.2280  -10.5810   21.2370 C   0  0  0  0  0  0  0  0  0  0  0  0
  -24.5140   -9.6310   22.2410 C   0  0  0  0  0  3  0  0  0  0  0  0
  -23.7360   -8.4570   22.3580 C   0  0  0  0  0  3  0  0  0  0  0  0
  -22.6560   -8.2320   21.4710 C   0  0  0  0  0  0  0  0  0  0  0  0
  -22.3890   -9.1720   20.4610 C   0  0  0  0  0  3  0  0  0  0  0  0
  -23.1670  -10.3350   20.3420 C   0  0  0  0  0  3  0  0  0  0  0  0
  -21.8600   -7.1120   21.4940 O   0  0  0  0  0  0  0  0  0  0  0  0
  -21.7480   -6.3330   22.6160 C   0  0  0  0  0  0  0  0  0  0  0  0
  -21.3160   -6.8610   23.8530 C   0  0  0  0  0  3  0  0  0  0  0  0
  -21.1500   -6.0100   24.9620 C   0  0  0  0  0  3  0  0  0  0  0  0
  -21.4030   -4.6300   24.8360 C   0  0  0  0  0  0  0  0  0  0  0  0
  -21.8280   -4.1020   23.6050 C   0  0  0  0  0  3  0  0  0  0  0  0
  -21.9980   -4.9500   22.4980 C   0  0  0  0  0  0  0  0  0  0  0  0
  -22.3880   -4.4330   21.3070 F   0  0  0  0  0  0  0  0  0  0  0  0
  -21.2350   -3.8090   25.9000 F   0  0  0  0  0  0  0  0  0  0  0  0
  -23.1850  -13.6880   20.8920 C   0  0  0  0  0  0  0  0  0  0  0  0
  -22.2820  -13.0810   21.6540 N   0  0  0  0  0  0  0  0  0  0  0  0
  -22.8850  -14.6670   20.2090 O   0  0  0  0  0  0  0  0  0  0  0  0
  -22.5320  -12.2940   22.2330 H   0  0  0  0  0  0  0  0  0  0  0  0
  -21.3260  -13.4120   21.6590 H   0  0  0  0  0  0  0  0  0  0  0  0
  -25.9650  -15.2460   20.4860 N   0  0  0  0  0  0  0  0  0  0  0  0
  -25.2090  -15.9080   20.3600 H   0  0  0  0  0  0  0  0  0  0  0  0
  -26.8780  -15.6260   20.2800 H   0  0  0  0  0  0  0  0  0  0  0  0
  -29.8190  -21.8150   19.8630 O   0  0  0  0  0  0  0  0  0  0  0  0
  -29.4930  -22.9310   20.7280 C   0  0  0  0  0  2  0  0  0  0  0  0
  -29.3750  -24.2660   19.9300 C   0  0  0  0  0  0  0  0  0  0  0  0
  -29.8970  -24.3870   18.8150 O   0  0  0  0  0  0  0  0  0  0  0  0
  -28.5960  -25.4460   20.5780 C   0  0  0  0  0  2  0  0  0  0  0  0
  -28.7010  -26.6980   19.8420 O   0  0  0  0  0  0  0  0  0  0  0  0
  -24.5850  -31.6080   22.9990 C   0  0  0  0  0  0  0  0  0  0  0  0
  -27.5290  -27.4300   19.8120 C   0  0  0  0  0  0  0  0  0  0  0  0
  -23.4950  -30.2170   21.2700 C   0  0  0  0  0  3  0  0  0  0  0  0
  -25.0640  -28.8270   19.8130 C   0  0  0  0  0  0  0  0  0  0  0  0
  -26.0020  -30.7200   21.1470 C   0  0  0  0  0  2  0  0  0  0  0  0
  -26.1810  -29.3840   20.4490 C   0  0  0  0  0  0  0  0  0  0  0  0
  -27.4200  -28.6950   20.4420 C   0  0  0  0  0  3  0  0  0  0  0  0
  -26.4030  -26.9040   19.1470 C   0  0  0  0  0  3  0  0  0  0  0  0
  -25.1730  -27.5900   19.1540 C   0  0  0  0  0  3  0  0  0  0  0  0
  -23.7710  -29.6150   19.8660 C   0  0  0  0  0  2  0  0  0  0  0  0
  -24.7090  -30.8600   21.8660 N   0  0  0  0  0  0  0  0  0  0  0  0
  -23.4770  -31.7960   23.5230 O   0  0  0  0  0  0  0  0  0  0  0  0
  -22.8810  -29.1210   22.1700 C   0  0  0  0  0  0  0  0  0  0  0  0
  -21.5590  -28.9130   22.0400 N   0  0  0  0  0  0  0  0  0  0  0  0
  -23.5890  -28.4670   22.9420 O   0  0  0  0  0  0  0  0  0  0  0  0
  -21.0480  -29.5000   21.3960 H   0  0  0  0  0  0  0  0  0  0  0  0
  -18.2240  -27.5830   22.4930 C   0  0  0  0  0  0  0  0  0  0  0  0
  -20.7760  -27.8960   22.7410 C   0  0  0  0  0  3  0  0  0  0  0  0
  -20.9080  -26.5170   22.0530 C   0  0  0  0  0  2  0  0  0  0  0  0
  -19.7910  -26.2290   21.0460 C   0  0  0  0  0  2  0  0  0  0  0  0
  -18.4240  -26.2840   21.7320 C   0  0  0  0  0  2  0  0  0  0  0  0
  -19.3280  -28.3450   22.9550 C   0  0  0  0  0  0  0  0  0  0  0  0
  -19.0840  -29.5640   23.6260 C   0  0  0  0  0  3  0  0  0  0  0  0
  -17.7690  -30.0210   23.8350 C   0  0  0  0  0  3  0  0  0  0  0  0
  -16.6800  -29.2550   23.3870 C   0  0  0  0  0  3  0  0  0  0  0  0
  -16.9070  -28.0370   22.7220 C   0  0  0  0  0  3  0  0  0  0  0  0
  -25.8200  -32.2800   23.6780 C   0  0  0  0  0  3  0  0  0  0  0  0
  -25.4200  -33.6360   24.0760 N   0  0  0  0  0  0  0  0  0  0  0  0
  -25.7150  -34.7480   23.3910 C   0  0  0  0  0  0  0  0  0  0  0  0
  -26.4220  -34.7430   22.3780 O   0  0  0  0  0  0  0  0  0  0  0  0
  -24.7950  -33.7090   24.8660 H   0  0  0  0  0  0  0  0  0  0  0  0
  -23.8910  -36.4520   23.0860 C   0  0  0  0  0  1  0  0  0  0  0  0
  -25.1340  -36.0790   23.9080 C   0  0  0  0  0  3  0  0  0  0  0  0
  -27.1920  -37.0390   24.8410 C   0  0  0  0  0  1  0  0  0  0  0  0
  -26.1030  -37.1950   23.8800 N   0  0  0  0  0  0  0  0  0  0  0  0
  -25.6380  -38.0790   24.0680 H   0  0  0  0  0  0  0  0  0  0  0  0
  -26.3650  -31.4720   24.9170 C   0  0  1  0  0  0  0  0  0  0  0  0
  -25.2750  -31.1150   25.9560 C   0  0  0  0  0  1  0  0  0  0  0  0
  -27.0260  -30.1530   24.4560 C   0  0  0  0  0  1  0  0  0  0  0  0
  -27.4630  -32.2890   25.6380 C   0  0  0  0  0  1  0  0  0  0  0  0
  1  4  1  0
  2  1  2  0
  3  4  2  0
  4  9  1  0
  5  6  2  0
  5  2  1  0
  6  3  1  0
  8  7  2  0
  8  5  1  0
  9 10  2  0
 10 11  1  0
 11 17  1  0
 12 17  1  0
 13 14  1  0
 13 12  1  0
 15 14  1  0
 15 22  1  0
 15 16  1  0
 17 16  1  0
 18 11  2  0
 19 22  1  0
 19 20  2  0
 20 21  1  0
 21 24  1  0
 22 23  1  0
 23 21  2  0
 24 25  1  0
 25 26  2  0
 27 30  1  0
 27 26  1  0
 28 27  2  0
 29 28  1  0
 29 24  2  0
 30 31  1  0
 31 32  1  0
 32 33  2  0
 34 33  1  0
 34 38  1  0
 35 34  2  0
 36 31  2  0
 36 35  1  0
 37 36  1  0
 39 20  1  0
 39 40  1  0
 40 43  1  0
 40 42  1  0
 41 39  2  0
 44 19  1  0
 45 44  1  0
 46 44  1  0
 47  6  1  0
 47 48  1  0
 49 51  1  0
 49 48  1  0
 50 49  2  0
 52 51  1  0
 53 64  2  0
 54 52  1  0
 54 59  1  0
 55 63  1  0
 55 65  1  0
 56 62  1  0
 56 58  1  0
 57 63  1  0
 58 57  1  0
 59 58  2  0
 60 61  1  0
 60 54  2  0
 61 56  2  0
 62 55  1  0
 63 53  1  0
 65 67  2  0
 66 65  1  0
 68 66  1  0
 69 78  2  0
 69 74  1  0
 70 66  1  0
 70 74  1  0
 71 70  1  0
 72 73  1  0
 72 71  1  0
 73 69  1  0
 74 75  2  0
 75 76  1  0
 77 76  2  0
 78 77  1  0
 79 53  1  0
 79 80  1  0
 79 89  1  0
 80 83  1  0
 81 85  1  0
 81 80  1  0
 82 81  2  0
 85 84  1  0
 87 85  1  0
 87 88  1  0
 87 86  1  0
 89 92  1  1
 89 90  1  0
 91 89  1  0
M  ISO  4  10 100  11 100  51 101  52 101
M  END
>  <TORSDO>  (70) 
F 22

>  <SCORE>  (70) 
-10.390

>  <name>  (70) 
69

>  <ligand_id>  (70) 
69

>  <original_smiles>  (70) 
[H]C(=NC(=O)N1C([H])([H])C([H])([H])C([H])([H])C([H])(n2nc(-c3c([H])c([H])c(Oc4c([H])c([H])c(F)c([H])c4F)c([H])c3[H])c(C(=O)N([H])[H])c2N([H])[H])C1([H])[H])c1c([H])c([H])c(C([H])=C([H])[H])c(OC([H])([H])C(=O)C([H])([H])Oc2c([H])c([H])c3c(c2[H])C([H])([H])N(C(=O)C([H])(N([H])C(=O)C([H])(N([H])C([H])([H])[H])C([H])([H])[H])C(C([H])([H])[H])(C([H])([H])[H])C([H])([H])[H])C([H])(C(=O)N([H])C2([H])c4c([H])c([H])c([H])c([H])c4C([H])([H])C([H])([H])C2([H])[H])C3([H])[H])c1[H]

>  <smiles>  (70) 
[H]C(=NC(=O)N1C([H])([H])C([H])([H])C([H])([H])C([H])(n2nc(-c3c([H])c([H])c(Oc4c([H])c([H])c(F)c([H])c4F)c([H])c3[H])c(C(=O)N([H])[H])c2N([H])[H])C1([H])[H])c1c([H])c([H])c(C([H])=C([H])[H])c(OC([H])([H])C(=O)C([H])([H])Oc2c([H])c([H])c3c(c2[H])C([H])([H])N(C(=O)C([H])(N([H])C(=O)C([H])(N([H])C([H])([H])[H])C([H])([H])[H])C(C([H])([H])[H])(C([H])([H])[H])C([H])([H])[H])C([H])(C(=O)N([H])C2([H])c4c([H])c([H])c([H])c([H])c4C([H])([H])C([H])([H])C2([H])[H])C3([H])[H])c1[H]

$$$$
70:0:0
     RDKit          3D

 91100  0  0  1  0  0  0  0  0999 V2000
  -28.8130  -24.5550   21.3390 C   0  0  0  0  0  0  0  0  0  0  0  0
  -28.6070  -25.8970   21.2360 C   0  0  0  0  0  2  0  0  0  0  0  0
  -29.0310  -23.8870   22.6770 C   0  0  0  0  0  3  0  0  0  0  0  0
  -28.8520  -23.4640   20.2670 C   0  0  0  0  0  3  0  0  0  0  0  0
  -29.2400  -22.3920   22.4070 C   0  0  0  0  0  3  0  0  0  0  0  0
  -29.0750  -22.1850   20.9740 N   0  0  0  0  0  0  0  0  0  0  0  0
  -29.3350  -19.0810   18.8900 C   0  0  0  0  0  3  0  0  0  0  0  0
  -29.0250  -20.4730   19.0900 C   0  0  0  0  0  0  0  0  0  0  0  0
  -29.7620  -18.4130   20.0090 C   0  0  0  0  0  0  0  0  0  0  0  0
  -29.2420  -20.8970   20.3860 C   0  0  0  0  0  0  0  0  0  0  0  0
  -28.5320  -21.3380   17.9650 C   0  0  0  0  0  1  0  0  0  0  0  0
  -29.8180  -19.5270   21.3600 S   0  0  0  0  0  0  0  0  0  0  0  0
  -30.3450  -17.0820   20.0330 C   0  0  0  0  0  3  0  0  0  0  0  0
  -29.8780  -15.8580   20.4170 C   0  0  0  0  0  3  0  0  0  0  0  0
  -30.6960  -14.6380   20.2040 C   0  0  0  0  0  0  0  0  0  0  0  0
  -30.4120  -12.4200   19.1690 C   0  0  0  0  0  2  0  0  0  0  0  0
  -29.4620  -12.5860   17.9620 C   0  0  0  0  0  2  0  0  0  0  0  0
  -27.9930  -12.4390   18.4070 C   0  0  0  0  0  2  0  0  0  0  0  0
  -27.6560  -13.2960   19.6580 C   0  0  0  0  0  3  0  0  0  0  0  0
  -28.7290  -13.1320   20.7560 C   0  0  0  0  0  2  0  0  0  0  0  0
  -30.0380  -13.4410   20.1670 N   0  0  0  0  0  0  0  0  0  0  0  0
  -31.8770  -14.7110   19.8520 O   0  0  0  0  0  0  0  0  0  0  0  0
  -25.2700  -13.8870   20.4110 C   0  0  0  0  0  0  0  0  0  0  0  0
  -24.2120  -13.1090   20.7970 C   0  0  0  0  0  0  0  0  0  0  0  0
  -24.6810  -11.7600   20.7650 C   0  0  0  0  0  0  0  0  0  0  0  0
  -26.3160  -13.0110   20.1620 N   0  0  0  0  0  0  0  0  0  0  0  0
  -25.9680  -11.7270   20.4380 N   0  0  0  0  0  0  0  0  0  0  0  0
  -23.9640  -10.4940   20.9670 C   0  0  0  0  0  0  0  0  0  0  0  0
  -24.4080   -9.5360   21.9040 C   0  0  0  0  0  3  0  0  0  0  0  0
  -23.6900   -8.3360   22.0950 C   0  0  0  0  0  3  0  0  0  0  0  0
  -22.5160   -8.0840   21.3480 C   0  0  0  0  0  0  0  0  0  0  0  0
  -22.0920   -9.0320   20.3980 C   0  0  0  0  0  3  0  0  0  0  0  0
  -22.8110  -10.2230   20.2050 C   0  0  0  0  0  3  0  0  0  0  0  0
  -21.7710   -6.9330   21.4460 O   0  0  0  0  0  0  0  0  0  0  0  0
  -21.7220   -6.2050   22.6070 C   0  0  0  0  0  0  0  0  0  0  0  0
  -21.2760   -6.7690   23.8230 C   0  0  0  0  0  3  0  0  0  0  0  0
  -21.1740   -5.9670   24.9770 C   0  0  0  0  0  3  0  0  0  0  0  0
  -21.5080   -4.6010   24.9170 C   0  0  0  0  0  0  0  0  0  0  0  0
  -21.9460   -4.0340   23.7070 C   0  0  0  0  0  3  0  0  0  0  0  0
  -22.0490   -4.8340   22.5550 C   0  0  0  0  0  0  0  0  0  0  0  0
  -22.4520   -4.2800   21.3870 F   0  0  0  0  0  0  0  0  0  0  0  0
  -21.4010   -3.8290   26.0230 F   0  0  0  0  0  0  0  0  0  0  0  0
  -22.8160  -13.5800   21.0860 C   0  0  0  0  0  0  0  0  0  0  0  0
  -22.1040  -12.8840   21.9660 N   0  0  0  0  0  0  0  0  0  0  0  0
  -22.3660  -14.6000   20.5670 O   0  0  0  0  0  0  0  0  0  0  0  0
  -22.4800  -12.0590   22.4080 H   0  0  0  0  0  0  0  0  0  0  0  0
  -21.1690  -13.1850   22.2030 H   0  0  0  0  0  0  0  0  0  0  0  0
  -25.4250  -15.2580   20.2290 N   0  0  0  0  0  0  0  0  0  0  0  0
  -24.6570  -15.9090   20.3540 H   0  0  0  0  0  0  0  0  0  0  0  0
  -26.2680  -15.7060   19.8950 H   0  0  0  0  0  0  0  0  0  0  0  0
  -28.3990  -26.6450   20.0950 O   0  0  0  0  0  0  0  0  0  0  0  0
  -24.6610  -31.9170   23.2180 C   0  0  0  0  0  0  0  0  0  0  0  0
  -27.2850  -27.4610   20.1120 C   0  0  0  0  0  0  0  0  0  0  0  0
  -23.4450  -30.5110   21.5870 C   0  0  0  0  0  3  0  0  0  0  0  0
  -24.8940  -28.9810   20.1420 C   0  0  0  0  0  0  0  0  0  0  0  0
  -25.9710  -30.8730   21.3680 C   0  0  0  0  0  2  0  0  0  0  0  0
  -26.0580  -29.5020   20.7240 C   0  0  0  0  0  0  0  0  0  0  0  0
  -27.2600  -28.7490   20.7110 C   0  0  0  0  0  3  0  0  0  0  0  0
  -26.1080  -26.9670   19.5190 C   0  0  0  0  0  3  0  0  0  0  0  0
  -24.9150  -27.7140   19.5350 C   0  0  0  0  0  3  0  0  0  0  0  0
  -23.6450  -29.8340   20.2040 C   0  0  0  0  0  2  0  0  0  0  0  0
  -24.7100  -31.1160   22.1150 N   0  0  0  0  0  0  0  0  0  0  0  0
  -23.5840  -32.1840   23.7690 O   0  0  0  0  0  0  0  0  0  0  0  0
  -22.8060  -29.4870   22.5540 C   0  0  0  0  0  0  0  0  0  0  0  0
  -21.4830  -29.2940   22.4370 N   0  0  0  0  0  0  0  0  0  0  0  0
  -23.5000  -28.8680   23.3650 O   0  0  0  0  0  0  0  0  0  0  0  0
  -20.9840  -29.8460   21.7540 H   0  0  0  0  0  0  0  0  0  0  0  0
  -18.1230  -28.0700   22.9550 C   0  0  0  0  0  0  0  0  0  0  0  0
  -20.6790  -28.3510   23.2140 C   0  0  0  0  0  3  0  0  0  0  0  0
  -20.7930  -26.9190   22.6410 C   0  0  0  0  0  2  0  0  0  0  0  0
  -19.6890  -26.5840   21.6330 C   0  0  0  0  0  2  0  0  0  0  0  0
  -18.3090  -26.7200   22.2820 C   0  0  0  0  0  2  0  0  0  0  0  0
  -19.2360  -28.8420   23.3780 C   0  0  0  0  0  0  0  0  0  0  0  0
  -19.0080  -30.1060   23.9660 C   0  0  0  0  0  3  0  0  0  0  0  0
  -17.7000  -30.5950   24.1380 C   0  0  0  0  0  3  0  0  0  0  0  0
  -16.6020  -29.8190   23.7320 C   0  0  0  0  0  3  0  0  0  0  0  0
  -16.8130  -28.5580   23.1450 C   0  0  0  0  0  3  0  0  0  0  0  0
  -25.9500  -32.5530   23.8240 C   0  0  0  0  0  3  0  0  0  0  0  0
  -25.6350  -33.9450   24.1730 N   0  0  0  0  0  0  0  0  0  0  0  0
  -25.9400  -35.0070   23.4160 C   0  0  0  0  0  0  0  0  0  0  0  0
  -26.5880  -34.9190   22.3700 O   0  0  0  0  0  0  0  0  0  0  0  0
  -25.0580  -34.0860   24.9900 H   0  0  0  0  0  0  0  0  0  0  0  0
  -24.1860  -36.7820   23.1140 C   0  0  0  0  0  1  0  0  0  0  0  0
  -25.4480  -36.3860   23.8950 C   0  0  0  0  0  3  0  0  0  0  0  0
  -27.5910  -37.2880   24.6850 C   0  0  0  0  0  1  0  0  0  0  0  0
  -26.4670  -37.4510   23.7680 N   0  0  0  0  0  0  0  0  0  0  0  0
  -26.0540  -38.3650   23.9330 H   0  0  0  0  0  0  0  0  0  0  0  0
  -26.4960  -31.7730   25.0830 C   0  0  1  0  0  0  0  0  0  0  0  0
  -25.4250  -31.5150   26.1680 C   0  0  0  0  0  1  0  0  0  0  0  0
  -27.0850  -30.4050   24.6650 C   0  0  0  0  0  1  0  0  0  0  0  0
  -27.6520  -32.5700   25.7330 C   0  0  0  0  0  1  0  0  0  0  0  0
  1  3  1  0
  2  1  1  0
  4  6  1  0
  4  1  2  0
  5  3  2  0
  6  5  1  0
  7  8  1  0
  7  9  2  0
  8 10  2  0
  9 13  1  0
  9 12  1  0
 10  6  1  0
 10 12  1  0
 11  8  1  0
 13 14  2  0
 15 14  1  0
 16 21  1  0
 17 18  1  0
 17 16  1  0
 19 18  1  0
 19 26  1  0
 19 20  1  0
 21 15  1  0
 21 20  1  0
 22 15  2  0
 23 24  2  0
 24 43  1  0
 25 24  1  0
 25 28  1  0
 26 23  1  0
 26 27  1  0
 27 25  2  0
 28 29  1  0
 29 30  2  0
 31 34  1  0
 31 30  1  0
 32 31  2  0
 33 32  1  0
 33 28  2  0
 34 35  1  0
 35 36  1  0
 36 37  2  0
 38 37  1  0
 38 42  1  0
 39 38  2  0
 40 35  2  0
 40 39  1  0
 41 40  1  0
 43 44  1  0
 44 47  1  0
 44 46  1  0
 45 43  2  0
 48 49  1  0
 48 23  1  0
 50 48  1  0
 51 53  1  0
 51  2  1  0
 52 63  2  0
 53 58  1  0
 54 62  1  0
 54 64  1  0
 55 61  1  0
 55 57  1  0
 56 62  1  0
 57 56  1  0
 58 57  2  0
 59 60  1  0
 59 53  2  0
 60 55  2  0
 61 54  1  0
 62 52  1  0
 64 66  2  0
 65 64  1  0
 67 65  1  0
 68 77  2  0
 68 73  1  0
 69 65  1  0
 69 73  1  0
 70 69  1  0
 71 72  1  0
 71 70  1  0
 72 68  1  0
 73 74  2  0
 74 75  1  0
 76 75  2  0
 77 76  1  0
 78 52  1  0
 78 79  1  0
 78 88  1  0
 79 82  1  0
 80 84  1  0
 80 79  1  0
 81 80  2  0
 84 83  1  0
 86 84  1  0
 86 87  1  0
 86 85  1  0
 88 91  1  1
 88 89  1  0
 90 88  1  0
M  ISO  4   2 101  14 100  15 100  51 101
M  END
>  <TORSDO>  (71) 
F 18

>  <SCORE>  (71) 
-14.454

>  <name>  (71) 
70

>  <ligand_id>  (71) 
70

>  <original_smiles>  (71) 
[H]C(Oc1c([H])c([H])c2c(c1[H])C([H])([H])N(C(=O)C([H])(N([H])C(=O)C([H])(N([H])C([H])([H])[H])C([H])([H])[H])C(C([H])([H])[H])(C([H])([H])[H])C([H])([H])[H])C([H])(C(=O)N([H])C1([H])c3c([H])c([H])c([H])c([H])c3C([H])([H])C([H])([H])C1([H])[H])C2([H])[H])=C1C([H])([H])N(c2sc(C([H])=C([H])C(=O)N3C([H])([H])C([H])([H])C([H])([H])C([H])(n4nc(-c5c([H])c([H])c(Oc6c([H])c([H])c(F)c([H])c6F)c([H])c5[H])c(C(=O)N([H])[H])c4N([H])[H])C3([H])[H])c([H])c2C([H])([H])[H])C([H])([H])C1([H])[H]

>  <smiles>  (71) 
[H]C(Oc1c([H])c([H])c2c(c1[H])C([H])([H])N(C(=O)C([H])(N([H])C(=O)C([H])(N([H])C([H])([H])[H])C([H])([H])[H])C(C([H])([H])[H])(C([H])([H])[H])C([H])([H])[H])C([H])(C(=O)N([H])C1([H])c3c([H])c([H])c([H])c([H])c3C([H])([H])C([H])([H])C1([H])[H])C2([H])[H])=C1C([H])([H])N(c2sc(C([H])=C([H])C(=O)N3C([H])([H])C([H])([H])C([H])([H])C([H])(n4nc(-c5c([H])c([H])c(Oc6c([H])c([H])c(F)c([H])c6F)c([H])c5[H])c(C(=O)N([H])[H])c4N([H])[H])C3([H])[H])c([H])c2C([H])([H])[H])C([H])([H])C1([H])[H]

$$$$
71:0:0
     RDKit          3D

 89 98  0  0  1  0  0  0  0  0999 V2000
  -30.7910  -14.9180   20.1670 C   0  0  0  0  0  0  0  0  0  0  0  0
  -30.6010  -12.5600   19.3220 C   0  0  0  0  0  2  0  0  0  0  0  0
  -29.6850  -12.4990   18.0830 C   0  0  0  0  0  2  0  0  0  0  0  0
  -28.2150  -12.3290   18.5110 C   0  0  0  0  0  2  0  0  0  0  0  0
  -27.8090  -13.3020   19.6510 C   0  0  0  0  0  3  0  0  0  0  0  0
  -28.8560  -13.3450   20.7840 C   0  0  0  0  0  2  0  0  0  0  0  0
  -30.1370  -13.6970   20.1610 N   0  0  0  0  0  0  0  0  0  0  0  0
  -31.9910  -14.9160   19.8650 O   0  0  0  0  0  0  0  0  0  0  0  0
  -28.2710  -19.3130   21.3390 C   0  0  0  0  0  3  0  0  0  0  0  0
  -28.3040  -20.6630   20.8520 C   0  0  0  0  0  3  0  0  0  0  0  0
  -29.8710  -19.9800   19.1480 C   0  0  0  0  0  3  0  0  0  0  0  0
  -29.0390  -18.2890   20.7250 C   0  0  0  0  0  0  0  0  0  0  0  0
  -29.8350  -18.6190   19.6540 C   0  0  0  0  0  0  0  0  0  0  0  0
  -29.0940  -21.0640   19.7300 C   0  0  0  0  0  0  0  0  0  0  0  0
  -29.1470  -16.7720   21.0460 C   0  0  0  0  0  3  0  0  0  0  0  0
  -30.5540  -17.3120   19.2150 C   0  0  0  0  0  3  0  0  0  0  0  0
  -30.0840  -16.1370   20.0600 N   0  0  0  0  0  0  0  0  0  0  0  0
  -25.4240  -13.9070   20.3610 C   0  0  0  0  0  0  0  0  0  0  0  0
  -24.3580  -13.1430   20.7480 C   0  0  0  0  0  0  0  0  0  0  0  0
  -24.8200  -11.7920   20.7520 C   0  0  0  0  0  0  0  0  0  0  0  0
  -26.4680  -13.0220   20.1500 N   0  0  0  0  0  0  0  0  0  0  0  0
  -26.1120  -11.7460   20.4500 N   0  0  0  0  0  0  0  0  0  0  0  0
  -24.0900  -10.5360   20.9700 C   0  0  0  0  0  0  0  0  0  0  0  0
  -24.5330   -9.5760   21.9070 C   0  0  0  0  0  3  0  0  0  0  0  0
  -23.8010   -8.3850   22.1120 C   0  0  0  0  0  3  0  0  0  0  0  0
  -22.6130   -8.1470   21.3810 C   0  0  0  0  0  0  0  0  0  0  0  0
  -22.1890   -9.0960   20.4340 C   0  0  0  0  0  3  0  0  0  0  0  0
  -22.9210  -10.2770   20.2270 C   0  0  0  0  0  3  0  0  0  0  0  0
  -21.8520   -7.0090   21.4970 O   0  0  0  0  0  0  0  0  0  0  0  0
  -21.8390   -6.2660   22.6510 C   0  0  0  0  0  0  0  0  0  0  0  0
  -21.4660   -6.8250   23.8920 C   0  0  0  0  0  3  0  0  0  0  0  0
  -21.3990   -6.0090   25.0390 C   0  0  0  0  0  3  0  0  0  0  0  0
  -21.6930   -4.6360   24.9460 C   0  0  0  0  0  0  0  0  0  0  0  0
  -22.0580   -4.0770   23.7090 C   0  0  0  0  0  3  0  0  0  0  0  0
  -22.1270   -4.8900   22.5640 C   0  0  0  0  0  0  0  0  0  0  0  0
  -22.4600   -4.3410   21.3710 F   0  0  0  0  0  0  0  0  0  0  0  0
  -21.6210   -3.8500   26.0460 F   0  0  0  0  0  0  0  0  0  0  0  0
  -22.9610  -13.6300   20.9990 C   0  0  0  0  0  0  0  0  0  0  0  0
  -22.2370  -12.9750   21.9010 N   0  0  0  0  0  0  0  0  0  0  0  0
  -22.5190  -14.6280   20.4300 O   0  0  0  0  0  0  0  0  0  0  0  0
  -22.6060  -12.1700   22.3820 H   0  0  0  0  0  0  0  0  0  0  0  0
  -21.2990  -13.2850   22.1120 H   0  0  0  0  0  0  0  0  0  0  0  0
  -25.5880  -15.2720   20.1460 N   0  0  0  0  0  0  0  0  0  0  0  0
  -24.8170  -15.9250   20.2280 H   0  0  0  0  0  0  0  0  0  0  0  0
  -26.4280  -15.6970   19.7740 H   0  0  0  0  0  0  0  0  0  0  0  0
  -28.6340  -23.5860   19.6130 C   0  0  0  0  0  3  0  0  0  0  0  0
  -29.0850  -22.4210   19.1480 N   0  0  0  0  0  0  0  0  0  0  0  0
  -28.5400  -24.9800   18.7700 C   0  0  0  0  0  2  0  0  0  0  0  0
  -28.4930  -26.3760   19.3840 O   0  0  0  0  0  0  0  0  0  0  0  0
  -24.6890  -31.5550   22.8190 C   0  0  0  0  0  0  0  0  0  0  0  0
  -27.3630  -27.2470   19.3730 C   0  0  0  0  0  0  0  0  0  0  0  0
  -23.4980  -30.2480   21.0990 C   0  0  0  0  0  3  0  0  0  0  0  0
  -24.9640  -28.8500   19.5280 C   0  0  0  0  0  0  0  0  0  0  0  0
  -26.0310  -30.6350   20.9010 C   0  0  0  0  0  2  0  0  0  0  0  0
  -26.1350  -29.3060   20.1430 C   0  0  0  0  0  0  0  0  0  0  0  0
  -27.3320  -28.5170   20.0570 C   0  0  0  0  0  3  0  0  0  0  0  0
  -26.1590  -26.8660   18.7400 C   0  0  0  0  0  3  0  0  0  0  0  0
  -24.9840  -27.6410   18.8160 C   0  0  0  0  0  3  0  0  0  0  0  0
  -23.7060  -29.6880   19.6680 C   0  0  0  0  0  2  0  0  0  0  0  0
  -24.7590  -30.8290   21.6630 N   0  0  0  0  0  0  0  0  0  0  0  0
  -23.6080  -31.7590   23.3910 O   0  0  0  0  0  0  0  0  0  0  0  0
  -22.8810  -29.1440   21.9930 C   0  0  0  0  0  0  0  0  0  0  0  0
  -21.5460  -28.9920   21.9400 N   0  0  0  0  0  0  0  0  0  0  0  0
  -23.6020  -28.4300   22.6960 O   0  0  0  0  0  0  0  0  0  0  0  0
  -21.0210  -29.6220   21.3480 H   0  0  0  0  0  0  0  0  0  0  0  0
  -18.1890  -27.7990   22.5780 C   0  0  0  0  0  0  0  0  0  0  0  0
  -20.7660  -27.9860   22.6630 C   0  0  0  0  0  3  0  0  0  0  0  0
  -20.7840  -26.6290   21.9200 C   0  0  0  0  0  2  0  0  0  0  0  0
  -19.5970  -26.4450   20.9690 C   0  0  0  0  0  2  0  0  0  0  0  0
  -18.2760  -26.5360   21.7380 C   0  0  0  0  0  2  0  0  0  0  0  0
  -19.3570  -28.4880   22.9980 C   0  0  0  0  0  0  0  0  0  0  0  0
  -19.2180  -29.6750   23.7500 C   0  0  0  0  0  3  0  0  0  0  0  0
  -17.9440  -30.1730   24.0810 C   0  0  0  0  0  3  0  0  0  0  0  0
  -16.7910  -29.4790   23.6740 C   0  0  0  0  0  3  0  0  0  0  0  0
  -16.9140  -28.2930   22.9280 C   0  0  0  0  0  3  0  0  0  0  0  0
  -25.9620  -32.1820   23.4670 C   0  0  0  0  0  3  0  0  0  0  0  0
  -25.6020  -33.5260   23.9460 N   0  0  0  0  0  0  0  0  0  0  0  0
  -25.8910  -34.6670   23.3080 C   0  0  0  0  0  0  0  0  0  0  0  0
  -26.5560  -34.7010   22.2680 O   0  0  0  0  0  0  0  0  0  0  0  0
  -25.0080  -33.5700   24.7620 H   0  0  0  0  0  0  0  0  0  0  0  0
  -24.0900  -36.4200   23.1680 C   0  0  0  0  0  1  0  0  0  0  0  0
  -25.3580  -35.9790   23.9170 C   0  0  0  0  0  3  0  0  0  0  0  0
  -27.4690  -36.8570   24.8150 C   0  0  0  0  0  1  0  0  0  0  0  0
  -26.3490  -37.0790   23.9050 N   0  0  0  0  0  0  0  0  0  0  0  0
  -25.9090  -37.9620   24.1500 H   0  0  0  0  0  0  0  0  0  0  0  0
  -26.5490  -31.3140   24.6470 C   0  0  1  0  0  0  0  0  0  0  0  0
  -25.5040  -30.9380   25.7230 C   0  0  0  0  0  1  0  0  0  0  0  0
  -27.1630  -30.0010   24.1100 C   0  0  0  0  0  1  0  0  0  0  0  0
  -27.6960  -32.0850   25.3430 C   0  0  0  0  0  1  0  0  0  0  0  0
  2  7  1  0
  3  4  1  0
  3  2  1  0
  5  4  1  0
  5 21  1  0
  5  6  1  0
  7  1  1  0
  7  6  1  0
  8  1  2  0
 10  9  2  0
 11 13  1  0
 11 14  2  0
 12 15  2  0
 12  9  1  0
 13 12  1  0
 14 10  1  0
 16 13  2  0
 16 17  1  0
 17  1  1  0
 17 15  1  0
 18 19  2  0
 19 20  1  0
 19 38  1  0
 20 23  1  0
 21 18  1  0
 21 22  1  0
 22 20  2  0
 23 24  1  0
 24 25  2  0
 26 29  1  0
 26 25  1  0
 27 26  2  0
 28 27  1  0
 28 23  2  0
 29 30  1  0
 30 31  1  0
 31 32  2  0
 33 32  1  0
 33 37  1  0
 34 33  2  0
 35 30  2  0
 35 34  1  0
 36 35  1  0
 38 39  1  0
 39 42  1  0
 39 41  1  0
 40 38  2  0
 43 44  1  0
 43 18  1  0
 45 43  1  0
 47 46  2  0
 47 14  1  0
 48 49  1  0
 48 46  1  0
 50 61  2  0
 51 49  1  0
 51 56  1  0
 52 60  1  0
 52 62  1  0
 53 59  1  0
 53 55  1  0
 54 60  1  0
 55 54  1  0
 56 55  2  0
 57 58  1  0
 57 51  2  0
 58 53  2  0
 59 52  1  0
 60 50  1  0
 62 64  2  0
 63 62  1  0
 65 63  1  0
 66 75  2  0
 66 71  1  0
 67 63  1  0
 67 71  1  0
 68 67  1  0
 69 70  1  0
 69 68  1  0
 70 66  1  0
 71 72  2  0
 72 73  1  0
 74 73  2  0
 75 74  1  0
 76 50  1  0
 76 77  1  0
 76 86  1  0
 77 80  1  0
 78 82  1  0
 78 77  1  0
 79 78  2  0
 82 81  1  0
 84 82  1  0
 84 85  1  0
 84 83  1  0
 86 89  1  1
 86 87  1  0
 88 86  1  0
M  ISO  4   1 100  17 100  48 101  49 101
M  END
>  <TORSDO>  (72) 
F 17

>  <SCORE>  (72) 
-12.627

>  <name>  (72) 
71

>  <ligand_id>  (72) 
71

>  <original_smiles>  (72) 
[H]C(=Nc1c([H])c([H])c2c(c1[H])C([H])([H])N(C(=O)N1C([H])([H])C([H])([H])C([H])([H])C([H])(n3nc(-c4c([H])c([H])c(Oc5c([H])c([H])c(F)c([H])c5F)c([H])c4[H])c(C(=O)N([H])[H])c3N([H])[H])C1([H])[H])C2([H])[H])C([H])([H])Oc1c([H])c([H])c2c(c1[H])C([H])([H])N(C(=O)C([H])(N([H])C(=O)C([H])(N([H])C([H])([H])[H])C([H])([H])[H])C(C([H])([H])[H])(C([H])([H])[H])C([H])([H])[H])C([H])(C(=O)N([H])C1([H])c3c([H])c([H])c([H])c([H])c3C([H])([H])C([H])([H])C1([H])[H])C2([H])[H]

>  <smiles>  (72) 
[H]C(=Nc1c([H])c([H])c2c(c1[H])C([H])([H])N(C(=O)N1C([H])([H])C([H])([H])C([H])([H])C([H])(n3nc(-c4c([H])c([H])c(Oc5c([H])c([H])c(F)c([H])c5F)c([H])c4[H])c(C(=O)N([H])[H])c3N([H])[H])C1([H])[H])C2([H])[H])C([H])([H])Oc1c([H])c([H])c2c(c1[H])C([H])([H])N(C(=O)C([H])(N([H])C(=O)C([H])(N([H])C([H])([H])[H])C([H])([H])[H])C(C([H])([H])[H])(C([H])([H])[H])C([H])([H])[H])C([H])(C(=O)N([H])C1([H])c3c([H])c([H])c([H])c([H])c3C([H])([H])C([H])([H])C1([H])[H])C2([H])[H]

$$$$
72:0:0
     RDKit          3D

 89 97  0  0  1  0  0  0  0  0999 V2000
  -29.4640  -20.9400   20.7450 O   0  0  0  0  0  0  0  0  0  0  0  0
  -29.8870  -18.3880   21.1300 C   0  0  0  0  0  3  0  0  0  0  0  0
  -29.4190  -19.5520   20.3680 C   0  0  0  0  0  0  0  0  0  0  0  0
  -28.9430  -18.9580   19.2170 C   0  0  0  0  0  0  0  0  0  0  0  0
  -29.7220  -17.2140   20.3920 C   0  0  0  0  0  0  0  0  0  0  0  0
  -28.2680  -19.4860   17.9930 C   0  0  0  0  0  1  0  0  0  0  0  0
  -29.1180  -17.5780   19.2220 O   0  0  0  0  0  0  0  0  0  0  0  0
  -30.5600  -14.7910   20.3540 C   0  0  0  0  0  0  0  0  0  0  0  0
  -30.3950  -12.5050   19.3400 C   0  0  0  0  0  2  0  0  0  0  0  0
  -29.4550  -12.5910   18.1170 C   0  0  0  0  0  2  0  0  0  0  0  0
  -27.9850  -12.4140   18.5450 C   0  0  0  0  0  2  0  0  0  0  0  0
  -27.6170  -13.2840   19.7780 C   0  0  0  0  0  3  0  0  0  0  0  0
  -28.6760  -13.1680   20.8960 C   0  0  0  0  0  2  0  0  0  0  0  0
  -29.9720  -13.5410   20.3150 N   0  0  0  0  0  0  0  0  0  0  0  0
  -31.7090  -14.9360   19.9220 O   0  0  0  0  0  0  0  0  0  0  0  0
  -29.8040  -15.8670   20.8070 N   0  0  0  0  0  0  0  0  0  0  0  0
  -28.9720  -15.5520   21.2810 H   0  0  0  0  0  0  0  0  0  0  0  0
  -25.2310  -13.8700   20.5070 C   0  0  0  0  0  0  0  0  0  0  0  0
  -24.1690  -13.0950   20.8840 C   0  0  0  0  0  0  0  0  0  0  0  0
  -24.6340  -11.7440   20.8540 C   0  0  0  0  0  0  0  0  0  0  0  0
  -26.2750  -12.9910   20.2680 N   0  0  0  0  0  0  0  0  0  0  0  0
  -25.9230  -11.7080   20.5370 N   0  0  0  0  0  0  0  0  0  0  0  0
  -23.9100  -10.4810   21.0490 C   0  0  0  0  0  0  0  0  0  0  0  0
  -24.3540   -9.5070   21.9710 C   0  0  0  0  0  3  0  0  0  0  0  0
  -23.6280   -8.3110   22.1550 C   0  0  0  0  0  3  0  0  0  0  0  0
  -22.4420   -8.0780   21.4160 C   0  0  0  0  0  0  0  0  0  0  0  0
  -22.0190   -9.0400   20.4820 C   0  0  0  0  0  3  0  0  0  0  0  0
  -22.7450  -10.2280   20.2970 C   0  0  0  0  0  3  0  0  0  0  0  0
  -21.6870   -6.9340   21.5100 O   0  0  0  0  0  0  0  0  0  0  0  0
  -21.6610   -6.1810   22.6570 C   0  0  0  0  0  0  0  0  0  0  0  0
  -21.2690   -6.7260   23.8990 C   0  0  0  0  0  3  0  0  0  0  0  0
  -21.1880   -5.8980   25.0360 C   0  0  0  0  0  3  0  0  0  0  0  0
  -21.4910   -4.5280   24.9340 C   0  0  0  0  0  0  0  0  0  0  0  0
  -21.8780   -3.9820   23.6970 C   0  0  0  0  0  3  0  0  0  0  0  0
  -21.9600   -4.8070   22.5610 C   0  0  0  0  0  0  0  0  0  0  0  0
  -22.3120   -4.2720   21.3670 F   0  0  0  0  0  0  0  0  0  0  0  0
  -21.4080   -3.7300   26.0240 F   0  0  0  0  0  0  0  0  0  0  0  0
  -22.7710  -13.5690   21.1620 C   0  0  0  0  0  0  0  0  0  0  0  0
  -22.0480  -12.8750   22.0320 N   0  0  0  0  0  0  0  0  0  0  0  0
  -22.3290  -14.5910   20.6400 O   0  0  0  0  0  0  0  0  0  0  0  0
  -22.4200  -12.0490   22.4780 H   0  0  0  0  0  0  0  0  0  0  0  0
  -21.1090  -13.1720   22.2560 H   0  0  0  0  0  0  0  0  0  0  0  0
  -25.3940  -15.2410   20.3290 N   0  0  0  0  0  0  0  0  0  0  0  0
  -24.6270  -15.8930   20.4420 H   0  0  0  0  0  0  0  0  0  0  0  0
  -26.2370  -15.6780   19.9790 H   0  0  0  0  0  0  0  0  0  0  0  0
  -28.6970  -22.0590   20.0990 C   0  0  0  0  0  3  0  0  0  0  0  0
  -28.9640  -23.6160   20.5420 C   0  0  0  0  0  3  0  0  0  0  0  0
  -28.0230  -24.8430   20.0060 C   0  0  0  0  0  2  0  0  0  0  0  0
  -28.2650  -26.3200   20.2860 O   0  0  0  0  0  0  0  0  0  0  0  0
  -24.6310  -31.9090   23.2290 C   0  0  0  0  0  0  0  0  0  0  0  0
  -27.1900  -27.2500   20.2000 C   0  0  0  0  0  0  0  0  0  0  0  0
  -23.4160  -30.5140   21.5980 C   0  0  0  0  0  3  0  0  0  0  0  0
  -24.8540  -28.9440   20.1700 C   0  0  0  0  0  0  0  0  0  0  0  0
  -25.9640  -30.7900   21.4170 C   0  0  0  0  0  2  0  0  0  0  0  0
  -26.0300  -29.4020   20.7730 C   0  0  0  0  0  0  0  0  0  0  0  0
  -27.2000  -28.5700   20.7790 C   0  0  0  0  0  3  0  0  0  0  0  0
  -25.9900  -26.8730   19.5550 C   0  0  0  0  0  3  0  0  0  0  0  0
  -24.8410  -27.6870   19.5470 C   0  0  0  0  0  3  0  0  0  0  0  0
  -23.6260  -29.8360   20.2180 C   0  0  0  0  0  2  0  0  0  0  0  0
  -24.6900  -31.0900   22.1360 N   0  0  0  0  0  0  0  0  0  0  0  0
  -23.5500  -32.1980   23.7630 O   0  0  0  0  0  0  0  0  0  0  0  0
  -22.7430  -29.5070   22.5620 C   0  0  0  0  0  0  0  0  0  0  0  0
  -21.4140  -29.3430   22.4420 N   0  0  0  0  0  0  0  0  0  0  0  0
  -23.4170  -28.8770   23.3800 O   0  0  0  0  0  0  0  0  0  0  0  0
  -20.9250  -29.9020   21.7570 H   0  0  0  0  0  0  0  0  0  0  0  0
  -18.0270  -28.1740   22.9680 C   0  0  0  0  0  0  0  0  0  0  0  0
  -20.5910  -28.4160   23.2220 C   0  0  0  0  0  3  0  0  0  0  0  0
  -20.6790  -26.9800   22.6550 C   0  0  0  0  0  2  0  0  0  0  0  0
  -19.5700  -26.6610   21.6480 C   0  0  0  0  0  2  0  0  0  0  0  0
  -18.1910  -26.8200   22.2960 C   0  0  0  0  0  2  0  0  0  0  0  0
  -19.1550  -28.9280   23.3890 C   0  0  0  0  0  0  0  0  0  0  0  0
  -18.9480  -30.1940   23.9800 C   0  0  0  0  0  3  0  0  0  0  0  0
  -17.6470  -30.7060   24.1510 C   0  0  0  0  0  3  0  0  0  0  0  0
  -16.5360  -29.9480   23.7450 C   0  0  0  0  0  3  0  0  0  0  0  0
  -16.7260  -28.6840   23.1600 C   0  0  0  0  0  3  0  0  0  0  0  0
  -25.9170  -32.5370   23.8460 C   0  0  0  0  0  3  0  0  0  0  0  0
  -26.4390  -31.7600   25.1180 C   0  0  1  0  0  0  0  0  0  0  0  0
  -25.3520  -31.5240   26.1920 C   0  0  0  0  0  1  0  0  0  0  0  0
  -27.0200  -30.3830   24.7230 C   0  0  0  0  0  1  0  0  0  0  0  0
  -27.5960  -32.5500   25.7770 C   0  0  0  0  0  1  0  0  0  0  0  0
  -25.6110  -33.9350   24.1880 N   0  0  0  0  0  0  0  0  0  0  0  0
  -25.9270  -34.9930   23.4300 C   0  0  0  0  0  0  0  0  0  0  0  0
  -26.5800  -34.8950   22.3860 O   0  0  0  0  0  0  0  0  0  0  0  0
  -25.0330  -34.0840   25.0020 H   0  0  0  0  0  0  0  0  0  0  0  0
  -24.1920  -36.7890   23.1150 C   0  0  0  0  0  1  0  0  0  0  0  0
  -25.4470  -36.3790   23.9020 C   0  0  0  0  0  3  0  0  0  0  0  0
  -27.5950  -37.2640   24.6960 C   0  0  0  0  0  1  0  0  0  0  0  0
  -26.4750  -37.4340   23.7740 N   0  0  0  0  0  0  0  0  0  0  0  0
  -26.0700  -38.3520   23.9340 H   0  0  0  0  0  0  0  0  0  0  0  0
  3  1  1  0
  3  2  1  0
  4  7  1  0
  4  3  2  0
  5 16  1  0
  5  2  2  0
  6  4  1  0
  7  5  1  0
  8 16  1  0
  9 14  1  0
 10 11  1  0
 10  9  1  0
 12 11  1  0
 12 21  1  0
 12 13  1  0
 14  8  1  0
 14 13  1  0
 15  8  2  0
 16 17  1  0
 18 19  2  0
 19 38  1  0
 20 19  1  0
 20 23  1  0
 21 18  1  0
 21 22  1  0
 22 20  2  0
 23 24  1  0
 24 25  2  0
 26 29  1  0
 26 25  1  0
 27 26  2  0
 28 27  1  0
 28 23  2  0
 29 30  1  0
 30 31  1  0
 31 32  2  0
 33 32  1  0
 33 37  1  0
 34 33  2  0
 35 30  2  0
 35 34  1  0
 36 35  1  0
 38 39  1  0
 39 42  1  0
 39 41  1  0
 40 38  2  0
 43 44  1  0
 43 18  1  0
 45 43  1  0
 46 47  2  0
 46  1  1  0
 48 49  1  0
 48 47  1  0
 50 61  2  0
 51 49  1  0
 51 56  1  0
 52 60  1  0
 52 62  1  0
 53 59  1  0
 53 55  1  0
 54 60  1  0
 55 56  2  0
 55 54  1  0
 57 51  2  0
 58 57  1  0
 58 53  2  0
 59 52  1  0
 60 50  1  0
 62 64  2  0
 63 62  1  0
 65 63  1  0
 66 75  2  0
 66 71  1  0
 67 63  1  0
 67 71  1  0
 68 67  1  0
 69 70  1  0
 69 68  1  0
 70 66  1  0
 71 72  2  0
 72 73  1  0
 74 73  2  0
 75 74  1  0
 76 50  1  0
 76 81  1  0
 76 77  1  0
 77 80  1  1
 77 78  1  0
 79 77  1  0
 81 84  1  0
 82 86  1  0
 82 81  1  0
 83 82  2  0
 86 85  1  0
 88 86  1  0
 88 89  1  0
 88 87  1  0
M  ISO  4   8 100  16 100  48 101  49 101
M  END
>  <TORSDO>  (73) 
F 20

>  <SCORE>  (73) 
-13.847

>  <name>  (73) 
72

>  <ligand_id>  (73) 
72

>  <original_smiles>  (73) 
[H]c1c([H])c([H])c2c(c1[H])C([H])([H])C([H])([H])C([H])([H])C2([H])N([H])C(=O)C1([H])N(C(=O)C([H])(N([H])C(=O)C([H])(N([H])C([H])([H])[H])C([H])([H])[H])C(C([H])([H])[H])(C([H])([H])[H])C([H])([H])[H])C([H])([H])c2c([H])c(OC([H])([H])C([H])([H])C([H])([H])Oc3c(C([H])([H])[H])oc(N([H])C(=O)N4C([H])([H])C([H])([H])C([H])([H])C([H])(n5nc(-c6c([H])c([H])c(Oc7c([H])c([H])c(F)c([H])c7F)c([H])c6[H])c(C(=O)N([H])[H])c5N([H])[H])C4([H])[H])c3[H])c([H])c([H])c2C1([H])[H]

>  <smiles>  (73) 
[H]c1c([H])c([H])c2c(c1[H])C([H])([H])C([H])([H])C([H])([H])C2([H])N([H])C(=O)C1([H])N(C(=O)C([H])(N([H])C(=O)C([H])(N([H])C([H])([H])[H])C([H])([H])[H])C(C([H])([H])[H])(C([H])([H])[H])C([H])([H])[H])C([H])([H])c2c([H])c(OC([H])([H])C([H])([H])C([H])([H])Oc3c(C([H])([H])[H])oc(N([H])C(=O)N4C([H])([H])C([H])([H])C([H])([H])C([H])(n5nc(-c6c([H])c([H])c(Oc7c([H])c([H])c(F)c([H])c7F)c([H])c6[H])c(C(=O)N([H])[H])c5N([H])[H])C4([H])[H])c3[H])c([H])c([H])c2C1([H])[H]

$$$$
73:0:0
     RDKit          3D

 91 99  0  0  1  0  0  0  0  0999 V2000
  -27.6840  -20.2090   19.1410 C   0  0  0  0  0  3  0  0  0  0  0  0
  -28.8310  -20.0620   19.9940 C   0  0  0  0  0  0  0  0  0  0  0  0
  -27.0040  -19.0660   18.8360 C   0  0  0  0  0  0  0  0  0  0  0  0
  -29.0850  -18.6490   20.2090 C   0  0  0  0  0  0  0  0  0  0  0  0
  -25.7260  -18.9230   18.0760 C   0  0  0  0  0  1  0  0  0  0  0  0
  -27.8120  -17.6950   19.4710 S   0  0  0  0  0  0  0  0  0  0  0  0
  -30.0480  -17.6380   20.9630 C   0  0  0  0  0  2  0  0  0  0  0  0
  -31.0220  -15.1510   20.7120 C   0  0  0  0  0  0  0  0  0  0  0  0
  -30.7910  -12.8740   19.6920 C   0  0  0  0  0  2  0  0  0  0  0  0
  -29.9210  -12.8250   18.4210 C   0  0  0  0  0  2  0  0  0  0  0  0
  -28.4210  -12.7080   18.7540 C   0  0  0  0  0  2  0  0  0  0  0  0
  -27.9710  -13.6280   19.9270 C   0  0  0  0  0  3  0  0  0  0  0  0
  -28.9790  -13.6090   21.0930 C   0  0  0  0  0  2  0  0  0  0  0  0
  -30.2850  -13.9910   20.5240 N   0  0  0  0  0  0  0  0  0  0  0  0
  -32.2500  -15.0350   20.7550 O   0  0  0  0  0  0  0  0  0  0  0  0
  -30.5590  -16.3740   20.1850 N   0  0  0  0  0  0  0  0  0  0  0  0
  -25.5540  -14.2300   20.5480 C   0  0  0  0  0  0  0  0  0  0  0  0
  -24.4530  -13.4660   20.8440 C   0  0  0  0  0  0  0  0  0  0  0  0
  -24.8990  -12.1100   20.8130 C   0  0  0  0  0  0  0  0  0  0  0  0
  -26.5990  -13.3420   20.3560 N   0  0  0  0  0  0  0  0  0  0  0  0
  -26.2090  -12.0610   20.5860 N   0  0  0  0  0  0  0  0  0  0  0  0
  -24.1410  -10.8530   20.9310 C   0  0  0  0  0  0  0  0  0  0  0  0
  -24.4970   -9.8610   21.8720 C   0  0  0  0  0  3  0  0  0  0  0  0
  -23.7430   -8.6720   21.9810 C   0  0  0  0  0  3  0  0  0  0  0  0
  -22.6190   -8.4630   21.1490 C   0  0  0  0  0  0  0  0  0  0  0  0
  -22.2830   -9.4440   20.1980 C   0  0  0  0  0  3  0  0  0  0  0  0
  -23.0370  -10.6250   20.0880 C   0  0  0  0  0  3  0  0  0  0  0  0
  -21.8460   -7.3270   21.1660 O   0  0  0  0  0  0  0  0  0  0  0  0
  -21.6870   -6.5810   22.3070 C   0  0  0  0  0  0  0  0  0  0  0  0
  -21.1380   -7.1320   23.4840 C   0  0  0  0  0  3  0  0  0  0  0  0
  -20.9280   -6.3150   24.6140 C   0  0  0  0  0  3  0  0  0  0  0  0
  -21.2600   -4.9480   24.5650 C   0  0  0  0  0  0  0  0  0  0  0  0
  -21.8020   -4.3960   23.3930 C   0  0  0  0  0  3  0  0  0  0  0  0
  -22.0130   -5.2090   22.2650 C   0  0  0  0  0  0  0  0  0  0  0  0
  -22.5160   -4.6680   21.1300 F   0  0  0  0  0  0  0  0  0  0  0  0
  -21.0510   -4.1600   25.6470 F   0  0  0  0  0  0  0  0  0  0  0  0
  -23.0510  -13.9630   21.0410 C   0  0  0  0  0  0  0  0  0  0  0  0
  -22.2630  -13.2710   21.8600 N   0  0  0  0  0  0  0  0  0  0  0  0
  -22.6550  -15.0010   20.5130 O   0  0  0  0  0  0  0  0  0  0  0  0
  -22.5760  -12.4220   22.3060 H   0  0  0  0  0  0  0  0  0  0  0  0
  -21.3250  -13.6020   22.0430 H   0  0  0  0  0  0  0  0  0  0  0  0
  -25.7530  -15.5950   20.4010 N   0  0  0  0  0  0  0  0  0  0  0  0
  -25.0280  -16.2970   20.4960 H   0  0  0  0  0  0  0  0  0  0  0  0
  -26.6540  -15.9970   20.1710 H   0  0  0  0  0  0  0  0  0  0  0  0
  -31.3160  -17.3150   17.7800 C   0  0  0  0  0  2  0  0  0  0  0  0
  -31.0860  -16.5400   18.8660 C   0  0  0  0  0  3  0  0  0  0  0  0
  -29.4830  -21.2470   20.4040 O   0  0  0  0  0  0  0  0  0  0  0  0
  -28.6650  -22.4680   20.8220 C   0  0  0  0  0  2  0  0  0  0  0  0
  -28.9750  -23.9800   20.3330 C   0  0  0  0  0  3  0  0  0  0  0  0
  -28.2590  -25.1540   20.6240 C   0  0  0  0  0  3  0  0  0  0  0  0
  -28.4950  -26.5370   20.2670 O   0  0  0  0  0  0  0  0  0  0  0  0
  -24.7000  -31.9960   23.3650 C   0  0  0  0  0  0  0  0  0  0  0  0
  -27.4150  -27.4670   20.2550 C   0  0  0  0  0  0  0  0  0  0  0  0
  -23.5460  -30.6020   21.6910 C   0  0  0  0  0  3  0  0  0  0  0  0
  -25.0460  -29.1150   20.2330 C   0  0  0  0  0  0  0  0  0  0  0  0
  -26.0860  -30.9520   21.5480 C   0  0  0  0  0  2  0  0  0  0  0  0
  -26.2010  -29.5810   20.8730 C   0  0  0  0  0  0  0  0  0  0  0  0
  -27.3910  -28.7710   20.8780 C   0  0  0  0  0  3  0  0  0  0  0  0
  -26.2380  -27.0850   19.5760 C   0  0  0  0  0  3  0  0  0  0  0  0
  -25.0750  -27.8810   19.5680 C   0  0  0  0  0  3  0  0  0  0  0  0
  -23.7910  -29.9710   20.2940 C   0  0  0  0  0  2  0  0  0  0  0  0
  -24.7950  -31.2010   22.2570 N   0  0  0  0  0  0  0  0  0  0  0  0
  -23.6060  -32.2400   23.8930 O   0  0  0  0  0  0  0  0  0  0  0  0
  -22.8950  -29.5480   22.6210 C   0  0  0  0  0  0  0  0  0  0  0  0
  -21.5820  -29.3160   22.4580 N   0  0  0  0  0  0  0  0  0  0  0  0
  -23.5760  -28.9430   23.4550 O   0  0  0  0  0  0  0  0  0  0  0  0
  -21.0870  -29.8560   21.7610 H   0  0  0  0  0  0  0  0  0  0  0  0
  -18.2400  -27.9900   22.8740 C   0  0  0  0  0  0  0  0  0  0  0  0
  -20.7820  -28.3400   23.2000 C   0  0  0  0  0  3  0  0  0  0  0  0
  -20.9500  -26.9230   22.6050 C   0  0  0  0  0  2  0  0  0  0  0  0
  -19.8800  -26.5740   21.5660 C   0  0  0  0  0  2  0  0  0  0  0  0
  -18.4820  -26.6600   22.1830 C   0  0  0  0  0  2  0  0  0  0  0  0
  -19.3220  -28.7880   23.3380 C   0  0  0  0  0  0  0  0  0  0  0  0
  -19.0430  -30.0320   23.9430 C   0  0  0  0  0  3  0  0  0  0  0  0
  -17.7180  -30.4820   24.0910 C   0  0  0  0  0  3  0  0  0  0  0  0
  -16.6510  -29.6810   23.6460 C   0  0  0  0  0  3  0  0  0  0  0  0
  -16.9140  -28.4380   23.0450 C   0  0  0  0  0  3  0  0  0  0  0  0
  -25.9610  -32.6500   24.0090 C   0  0  0  0  0  3  0  0  0  0  0  0
  -25.6430  -34.0600   24.2880 N   0  0  0  0  0  0  0  0  0  0  0  0
  -25.9860  -35.0870   23.5010 C   0  0  0  0  0  0  0  0  0  0  0  0
  -26.6770  -34.9510   22.4860 O   0  0  0  0  0  0  0  0  0  0  0  0
  -25.0510  -34.2410   25.0840 H   0  0  0  0  0  0  0  0  0  0  0  0
  -24.2680  -36.8650   23.0470 C   0  0  0  0  0  1  0  0  0  0  0  0
  -25.4880  -36.4880   23.9040 C   0  0  0  0  0  3  0  0  0  0  0  0
  -27.5910  -37.4030   24.7750 C   0  0  0  0  0  1  0  0  0  0  0  0
  -26.5240  -37.5360   23.7890 N   0  0  0  0  0  0  0  0  0  0  0  0
  -26.1110  -38.4600   23.8940 H   0  0  0  0  0  0  0  0  0  0  0  0
  -26.4330  -31.9230   25.3280 C   0  0  1  0  0  0  0  0  0  0  0  0
  -25.2910  -31.6980   26.3450 C   0  0  0  0  0  1  0  0  0  0  0  0
  -27.0510  -30.5430   25.0020 C   0  0  0  0  0  1  0  0  0  0  0  0
  -27.5400  -32.7500   26.0200 C   0  0  0  0  0  1  0  0  0  0  0  0
  1  2  1  0
  2  4  2  0
  2 47  1  0
  3  1  2  0
  3  6  1  0
  4  7  1  0
  5  3  1  0
  6  4  1  0
  8 15  2  0
  9 14  1  0
 10 11  1  0
 10  9  1  0
 12 11  1  0
 12 20  1  0
 12 13  1  0
 14  8  1  0
 14 13  1  0
 16  8  1  0
 16  7  1  0
 17 18  2  0
 18 37  1  0
 19 18  1  0
 19 22  1  0
 20 17  1  0
 20 21  1  0
 21 19  2  0
 22 23  1  0
 23 24  2  0
 25 28  1  0
 25 24  1  0
 26 25  2  0
 27 26  1  0
 27 22  2  0
 28 29  1  0
 29 30  1  0
 30 31  2  0
 32 31  1  0
 32 36  1  0
 33 32  2  0
 34 29  2  0
 34 33  1  0
 35 34  1  0
 37 38  1  0
 38 41  1  0
 38 40  1  0
 39 37  2  0
 42 43  1  0
 42 17  1  0
 44 42  1  0
 45 46  2  0
 46 16  1  0
 47 48  1  0
 49 50  2  0
 49 48  1  0
 51 50  1  0
 52 63  2  0
 53 51  1  0
 53 58  1  0
 54 62  1  0
 54 64  1  0
 55 61  1  0
 55 57  1  0
 56 62  1  0
 57 58  2  0
 57 56  1  0
 59 53  2  0
 60 59  1  0
 60 55  2  0
 61 54  1  0
 62 52  1  0
 64 66  2  0
 65 64  1  0
 67 65  1  0
 68 77  2  0
 68 73  1  0
 69 65  1  0
 69 73  1  0
 70 69  1  0
 71 72  1  0
 71 70  1  0
 72 68  1  0
 73 74  2  0
 74 75  1  0
 76 75  2  0
 77 76  1  0
 78 52  1  0
 78 79  1  0
 78 88  1  0
 79 82  1  0
 80 84  1  0
 80 79  1  0
 81 80  2  0
 84 83  1  0
 86 87  1  0
 86 84  1  0
 86 85  1  0
 88 91  1  1
 88 89  1  0
 90 88  1  0
M  ISO  4   8 100  16 100  50 101  51 101
M  END
>  <TORSDO>  (74) 
F 21

>  <SCORE>  (74) 
-12.355

>  <name>  (74) 
73

>  <ligand_id>  (74) 
73

>  <original_smiles>  (74) 
[H]C([H])=C([H])N(C(=O)N1C([H])([H])C([H])([H])C([H])([H])C([H])(n2nc(-c3c([H])c([H])c(Oc4c([H])c([H])c(F)c([H])c4F)c([H])c3[H])c(C(=O)N([H])[H])c2N([H])[H])C1([H])[H])C([H])([H])c1sc(C([H])([H])[H])c([H])c1OC([H])([H])C([H])=C([H])Oc1c([H])c([H])c2c(c1[H])C([H])([H])N(C(=O)C([H])(N([H])C(=O)C([H])(N([H])C([H])([H])[H])C([H])([H])[H])C(C([H])([H])[H])(C([H])([H])[H])C([H])([H])[H])C([H])(C(=O)N([H])C1([H])c3c([H])c([H])c([H])c([H])c3C([H])([H])C([H])([H])C1([H])[H])C2([H])[H]

>  <smiles>  (74) 
[H]C([H])=C([H])N(C(=O)N1C([H])([H])C([H])([H])C([H])([H])C([H])(n2nc(-c3c([H])c([H])c(Oc4c([H])c([H])c(F)c([H])c4F)c([H])c3[H])c(C(=O)N([H])[H])c2N([H])[H])C1([H])[H])C([H])([H])c1sc(C([H])([H])[H])c([H])c1OC([H])([H])C([H])=C([H])Oc1c([H])c([H])c2c(c1[H])C([H])([H])N(C(=O)C([H])(N([H])C(=O)C([H])(N([H])C([H])([H])[H])C([H])([H])[H])C(C([H])([H])[H])(C([H])([H])[H])C([H])([H])[H])C([H])(C(=O)N([H])C1([H])c3c([H])c([H])c([H])c([H])c3C([H])([H])C([H])([H])C1([H])[H])C2([H])[H]

$$$$
74:0:0
     RDKit          3D

 91 99  0  0  1  0  0  0  0  0999 V2000
  -28.8210  -21.1880   20.5780 C   0  0  0  0  0  0  0  0  0  0  0  0
  -27.7830  -21.0000   21.2170 O   0  0  0  0  0  0  0  0  0  0  0  0
  -29.3810  -18.5700   20.4960 C   0  0  0  0  0  3  0  0  0  0  0  0
  -31.6450  -17.8360   20.2010 C   0  0  0  0  0  3  0  0  0  0  0  0
  -29.7960  -19.9680   20.4180 C   0  0  0  0  0  0  0  0  0  0  0  0
  -30.3020  -17.4450   20.3910 C   0  0  0  0  0  0  0  0  0  0  0  0
  -31.1930  -20.1370   20.2440 C   0  0  0  0  0  0  0  0  0  0  0  0
  -32.0660  -19.1120   20.1310 N   0  0  0  0  0  0  0  0  0  0  0  0
  -31.9680  -21.6850   20.2640 Cl  0  0  0  0  0  0  0  0  0  0  0  0
  -30.6640  -14.8410   20.2100 C   0  0  0  0  0  0  0  0  0  0  0  0
  -30.4110  -12.5920   19.1520 C   0  0  0  0  0  2  0  0  0  0  0  0
  -29.4460  -12.6970   17.9520 C   0  0  0  0  0  2  0  0  0  0  0  0
  -27.9890  -12.5120   18.4170 C   0  0  0  0  0  2  0  0  0  0  0  0
  -27.6470  -13.3710   19.6650 C   0  0  0  0  0  3  0  0  0  0  0  0
  -28.7350  -13.2670   20.7560 C   0  0  0  0  0  2  0  0  0  0  0  0
  -30.0140  -13.6280   20.1340 N   0  0  0  0  0  0  0  0  0  0  0  0
  -31.8430  -14.9010   19.8540 O   0  0  0  0  0  0  0  0  0  0  0  0
  -29.9280  -15.9960   20.4770 N   0  0  0  0  0  0  0  0  0  0  0  0
  -28.9650  -15.8110   20.7120 H   0  0  0  0  0  0  0  0  0  0  0  0
  -25.2720  -13.9340   20.4490 C   0  0  0  0  0  0  0  0  0  0  0  0
  -24.2210  -13.1480   20.8370 C   0  0  0  0  0  0  0  0  0  0  0  0
  -24.6960  -11.8010   20.7880 C   0  0  0  0  0  0  0  0  0  0  0  0
  -26.3170  -13.0650   20.1850 N   0  0  0  0  0  0  0  0  0  0  0  0
  -25.9810  -11.7780   20.4530 N   0  0  0  0  0  0  0  0  0  0  0  0
  -23.9850  -10.5320   20.9850 C   0  0  0  0  0  0  0  0  0  0  0  0
  -24.4290   -9.5720   21.9210 C   0  0  0  0  0  3  0  0  0  0  0  0
  -23.7170   -8.3670   22.1060 C   0  0  0  0  0  3  0  0  0  0  0  0
  -22.5450   -8.1140   21.3530 C   0  0  0  0  0  0  0  0  0  0  0  0
  -22.1210   -9.0620   20.4060 C   0  0  0  0  0  3  0  0  0  0  0  0
  -22.8340  -10.2570   20.2200 C   0  0  0  0  0  3  0  0  0  0  0  0
  -21.8030   -6.9610   21.4480 O   0  0  0  0  0  0  0  0  0  0  0  0
  -21.7500   -6.2320   22.6090 C   0  0  0  0  0  0  0  0  0  0  0  0
  -21.2810   -6.7890   23.8180 C   0  0  0  0  0  3  0  0  0  0  0  0
  -21.1770   -5.9840   24.9700 C   0  0  0  0  0  3  0  0  0  0  0  0
  -21.5330   -4.6240   24.9130 C   0  0  0  0  0  0  0  0  0  0  0  0
  -21.9960   -4.0660   23.7100 C   0  0  0  0  0  3  0  0  0  0  0  0
  -22.1010   -4.8670   22.5590 C   0  0  0  0  0  0  0  0  0  0  0  0
  -22.5270   -4.3200   21.3950 F   0  0  0  0  0  0  0  0  0  0  0  0
  -21.4270   -3.8480   26.0190 F   0  0  0  0  0  0  0  0  0  0  0  0
  -22.8260  -13.6110   21.1390 C   0  0  0  0  0  0  0  0  0  0  0  0
  -22.1200  -12.8990   22.0100 N   0  0  0  0  0  0  0  0  0  0  0  0
  -22.3720  -14.6390   20.6380 O   0  0  0  0  0  0  0  0  0  0  0  0
  -22.5010  -12.0690   22.4370 H   0  0  0  0  0  0  0  0  0  0  0  0
  -21.1840  -13.1910   22.2560 H   0  0  0  0  0  0  0  0  0  0  0  0
  -25.4190  -15.3070   20.2740 N   0  0  0  0  0  0  0  0  0  0  0  0
  -24.6430  -15.9490   20.3960 H   0  0  0  0  0  0  0  0  0  0  0  0
  -26.2430  -15.7530   19.8920 H   0  0  0  0  0  0  0  0  0  0  0  0
  -29.0330  -22.5940   19.9570 C   0  0  0  0  0  3  0  0  0  0  0  0
  -28.3840  -23.7820   20.2820 C   0  0  0  0  0  3  0  0  0  0  0  0
  -28.5240  -25.1890   19.5500 C   0  0  0  0  0  2  0  0  0  0  0  0
  -28.3830  -26.4960   20.2730 O   0  0  0  0  0  0  0  0  0  0  0  0
  -24.6030  -31.9130   23.2430 C   0  0  0  0  0  0  0  0  0  0  0  0
  -27.2540  -27.3440   20.1830 C   0  0  0  0  0  0  0  0  0  0  0  0
  -23.4160  -30.5120   21.5940 C   0  0  0  0  0  3  0  0  0  0  0  0
  -24.8820  -28.9700   20.1670 C   0  0  0  0  0  0  0  0  0  0  0  0
  -25.9560  -30.8370   21.4240 C   0  0  0  0  0  2  0  0  0  0  0  0
  -26.0470  -29.4570   20.7710 C   0  0  0  0  0  0  0  0  0  0  0  0
  -27.2300  -28.6550   20.7710 C   0  0  0  0  0  3  0  0  0  0  0  0
  -26.0590  -26.9140   19.5650 C   0  0  0  0  0  3  0  0  0  0  0  0
  -24.8930  -27.7080   19.5550 C   0  0  0  0  0  3  0  0  0  0  0  0
  -23.6410  -29.8400   20.2130 C   0  0  0  0  0  2  0  0  0  0  0  0
  -24.6780  -31.1060   22.1440 N   0  0  0  0  0  0  0  0  0  0  0  0
  -23.5150  -32.1820   23.7740 O   0  0  0  0  0  0  0  0  0  0  0  0
  -22.7550  -29.4890   22.5490 C   0  0  0  0  0  0  0  0  0  0  0  0
  -21.4290  -29.3070   22.4210 N   0  0  0  0  0  0  0  0  0  0  0  0
  -23.4340  -28.8620   23.3680 O   0  0  0  0  0  0  0  0  0  0  0  0
  -20.9400  -29.8660   21.7350 H   0  0  0  0  0  0  0  0  0  0  0  0
  -18.0530  -28.1050   22.9230 C   0  0  0  0  0  0  0  0  0  0  0  0
  -20.6120  -28.3640   23.1870 C   0  0  0  0  0  3  0  0  0  0  0  0
  -20.7130  -26.9370   22.5990 C   0  0  0  0  0  2  0  0  0  0  0  0
  -19.6090  -26.6220   21.5860 C   0  0  0  0  0  2  0  0  0  0  0  0
  -18.2280  -26.7620   22.2350 C   0  0  0  0  0  2  0  0  0  0  0  0
  -19.1730  -28.8640   23.3560 C   0  0  0  0  0  0  0  0  0  0  0  0
  -18.9560  -30.1210   23.9610 C   0  0  0  0  0  3  0  0  0  0  0  0
  -17.6510  -30.6200   24.1360 C   0  0  0  0  0  3  0  0  0  0  0  0
  -16.5460  -29.8580   23.7190 C   0  0  0  0  0  3  0  0  0  0  0  0
  -16.7480  -28.6020   23.1190 C   0  0  0  0  0  3  0  0  0  0  0  0
  -25.8780  -32.5550   23.8730 C   0  0  0  0  0  3  0  0  0  0  0  0
  -26.3810  -31.7970   25.1630 C   0  0  1  0  0  0  0  0  0  0  0  0
  -25.2760  -31.5670   26.2210 C   0  0  0  0  0  1  0  0  0  0  0  0
  -26.9710  -30.4170   24.7930 C   0  0  0  0  0  1  0  0  0  0  0  0
  -27.5230  -32.5990   25.8300 C   0  0  0  0  0  1  0  0  0  0  0  0
  -25.5610  -33.9550   24.1890 N   0  0  0  0  0  0  0  0  0  0  0  0
  -25.9000  -35.0030   23.4280 C   0  0  0  0  0  0  0  0  0  0  0  0
  -26.5800  -34.8940   22.4040 O   0  0  0  0  0  0  0  0  0  0  0  0
  -24.9590  -34.1140   24.9830 H   0  0  0  0  0  0  0  0  0  0  0  0
  -24.1800  -36.7990   23.0380 C   0  0  0  0  0  1  0  0  0  0  0  0
  -25.4070  -36.3950   23.8710 C   0  0  0  0  0  3  0  0  0  0  0  0
  -27.5260  -37.2830   24.7380 C   0  0  0  0  0  1  0  0  0  0  0  0
  -26.4430  -37.4470   23.7720 N   0  0  0  0  0  0  0  0  0  0  0  0
  -26.0350  -38.3680   23.9050 H   0  0  0  0  0  0  0  0  0  0  0  0
  1  2  2  0
  4  6  1  0
  5  3  1  0
  5  1  1  0
  6 18  1  0
  6  3  2  0
  7  9  1  0
  7  5  2  0
  8  4  2  0
  8  7  1  0
 10 18  1  0
 11 16  1  0
 12 13  1  0
 12 11  1  0
 14 13  1  0
 14 23  1  0
 14 15  1  0
 16 10  1  0
 16 15  1  0
 17 10  2  0
 18 19  1  0
 20 21  2  0
 21 40  1  0
 22 21  1  0
 22 25  1  0
 23 20  1  0
 23 24  1  0
 24 22  2  0
 25 26  1  0
 26 27  2  0
 28 31  1  0
 28 27  1  0
 29 28  2  0
 30 29  1  0
 30 25  2  0
 31 32  1  0
 32 33  1  0
 33 34  2  0
 35 34  1  0
 35 39  1  0
 36 35  2  0
 37 32  2  0
 37 36  1  0
 38 37  1  0
 40 41  1  0
 41 44  1  0
 41 43  1  0
 42 40  2  0
 45 46  1  0
 45 20  1  0
 47 45  1  0
 48 49  2  0
 48  1  1  0
 50 51  1  0
 50 49  1  0
 52 63  2  0
 53 51  1  0
 53 58  1  0
 54 62  1  0
 54 64  1  0
 55 61  1  0
 55 57  1  0
 56 62  1  0
 57 58  2  0
 57 56  1  0
 59 53  2  0
 60 59  1  0
 60 55  2  0
 61 54  1  0
 62 52  1  0
 64 66  2  0
 65 64  1  0
 67 65  1  0
 68 77  2  0
 68 73  1  0
 69 65  1  0
 69 73  1  0
 70 69  1  0
 71 72  1  0
 71 70  1  0
 72 68  1  0
 73 74  2  0
 74 75  1  0
 76 75  2  0
 77 76  1  0
 78 52  1  0
 78 83  1  0
 78 79  1  0
 79 82  1  1
 79 80  1  0
 81 79  1  0
 83 86  1  0
 84 88  1  0
 84 83  1  0
 85 84  2  0
 88 87  1  0
 90 88  1  0
 90 91  1  0
 90 89  1  0
M  ISO  4  10 100  18 100  50 101  51 101
M  END
>  <TORSDO>  (75) 
F 19

>  <SCORE>  (75) 
-14.230

>  <name>  (75) 
74

>  <ligand_id>  (75) 
74

>  <original_smiles>  (75) 
[H]C(C(=O)c1c(Cl)nc([H])c(N([H])C(=O)N2C([H])([H])C([H])([H])C([H])([H])C([H])(n3nc(-c4c([H])c([H])c(Oc5c([H])c([H])c(F)c([H])c5F)c([H])c4[H])c(C(=O)N([H])[H])c3N([H])[H])C2([H])[H])c1[H])=C([H])C([H])([H])Oc1c([H])c([H])c2c(c1[H])C([H])([H])N(C(=O)C([H])(N([H])C(=O)C([H])(N([H])C([H])([H])[H])C([H])([H])[H])C(C([H])([H])[H])(C([H])([H])[H])C([H])([H])[H])C([H])(C(=O)N([H])C1([H])c3c([H])c([H])c([H])c([H])c3C([H])([H])C([H])([H])C1([H])[H])C2([H])[H]

>  <smiles>  (75) 
[H]C(C(=O)c1c(Cl)nc([H])c(N([H])C(=O)N2C([H])([H])C([H])([H])C([H])([H])C([H])(n3nc(-c4c([H])c([H])c(Oc5c([H])c([H])c(F)c([H])c5F)c([H])c4[H])c(C(=O)N([H])[H])c3N([H])[H])C2([H])[H])c1[H])=C([H])C([H])([H])Oc1c([H])c([H])c2c(c1[H])C([H])([H])N(C(=O)C([H])(N([H])C(=O)C([H])(N([H])C([H])([H])[H])C([H])([H])[H])C(C([H])([H])[H])(C([H])([H])[H])C([H])([H])[H])C([H])(C(=O)N([H])C1([H])c3c([H])c([H])c([H])c([H])c3C([H])([H])C([H])([H])C1([H])[H])C2([H])[H]

$$$$
75:0:0
     RDKit          3D

 94103  0  0  1  0  0  0  0  0999 V2000
  -28.8170  -24.1340   21.1720 C   0  0  0  0  0  0  0  0  0  0  0  0
  -28.4810  -25.4880   21.1150 C   0  0  0  0  0  3  0  0  0  0  0  0
  -28.9640  -23.4810   22.5290 C   0  0  0  0  0  2  0  0  0  0  0  0
  -29.5000  -22.0490   22.3320 C   0  0  0  0  0  2  0  0  0  0  0  0
  -29.1560  -22.9690   20.1730 C   0  0  0  0  0  3  0  0  0  0  0  0
  -29.9640  -23.4310   18.9580 C   0  0  0  0  0  1  0  0  0  0  0  0
  -29.8370  -21.8510   20.9240 N   0  0  0  0  0  0  0  0  0  0  0  0
  -28.7720  -19.6440   20.3450 C   0  0  0  0  0  3  0  0  0  0  0  0
  -31.1520  -18.2140   20.6850 C   0  0  0  0  0  3  0  0  0  0  0  0
  -28.8000  -18.2130   20.2850 C   0  0  0  0  0  0  0  0  0  0  0  0
  -31.1210  -19.6580   20.7710 C   0  0  0  0  0  0  0  0  0  0  0  0
  -29.9180  -20.4280   20.6190 C   0  0  0  0  0  0  0  0  0  0  0  0
  -29.9830  -17.4280   20.4670 C   0  0  0  0  0  0  0  0  0  0  0  0
  -27.4890  -17.5150   20.0380 C   0  0  0  0  0  1  0  0  0  0  0  0
  -32.4230  -20.3810   21.0710 C   0  0  0  0  0  1  0  0  0  0  0  0
  -30.6800  -14.8540   20.1570 C   0  0  0  0  0  0  0  0  0  0  0  0
  -30.4460  -12.5990   19.0830 C   0  0  0  0  0  2  0  0  0  0  0  0
  -29.4460  -12.6940   17.9060 C   0  0  0  0  0  2  0  0  0  0  0  0
  -27.9970  -12.5030   18.3960 C   0  0  0  0  0  2  0  0  0  0  0  0
  -27.6740  -13.3600   19.6490 C   0  0  0  0  0  3  0  0  0  0  0  0
  -28.7860  -13.2430   20.7170 C   0  0  0  0  0  2  0  0  0  0  0  0
  -30.0610  -13.6220   20.0830 N   0  0  0  0  0  0  0  0  0  0  0  0
  -31.8430  -14.9870   19.7660 O   0  0  0  0  0  0  0  0  0  0  0  0
  -29.8770  -15.9360   20.4890 N   0  0  0  0  0  0  0  0  0  0  0  0
  -28.9490  -15.6180   20.7190 H   0  0  0  0  0  0  0  0  0  0  0  0
  -25.3070  -13.9220   20.4820 C   0  0  0  0  0  0  0  0  0  0  0  0
  -24.2630  -13.1440   20.8890 C   0  0  0  0  0  0  0  0  0  0  0  0
  -24.7270  -11.7970   20.8030 C   0  0  0  0  0  0  0  0  0  0  0  0
  -26.3500  -13.0570   20.1880 N   0  0  0  0  0  0  0  0  0  0  0  0
  -26.0050  -11.7680   20.4410 N   0  0  0  0  0  0  0  0  0  0  0  0
  -24.0050  -10.5350   20.9870 C   0  0  0  0  0  0  0  0  0  0  0  0
  -24.4460   -9.5600   21.9060 C   0  0  0  0  0  3  0  0  0  0  0  0
  -23.7200   -8.3610   22.0790 C   0  0  0  0  0  3  0  0  0  0  0  0
  -22.5410   -8.1310   21.3320 C   0  0  0  0  0  0  0  0  0  0  0  0
  -22.1180   -9.0970   20.4010 C   0  0  0  0  0  3  0  0  0  0  0  0
  -22.8440  -10.2860   20.2260 C   0  0  0  0  0  3  0  0  0  0  0  0
  -21.7870   -6.9870   21.4170 O   0  0  0  0  0  0  0  0  0  0  0  0
  -21.7190   -6.2560   22.5760 C   0  0  0  0  0  0  0  0  0  0  0  0
  -21.2430   -6.8150   23.7820 C   0  0  0  0  0  3  0  0  0  0  0  0
  -21.1220   -6.0090   24.9310 C   0  0  0  0  0  3  0  0  0  0  0  0
  -21.4700   -4.6460   24.8770 C   0  0  0  0  0  0  0  0  0  0  0  0
  -21.9390   -4.0860   23.6750 C   0  0  0  0  0  3  0  0  0  0  0  0
  -22.0600   -4.8900   22.5270 C   0  0  0  0  0  0  0  0  0  0  0  0
  -22.4940   -4.3400   21.3670 F   0  0  0  0  0  0  0  0  0  0  0  0
  -21.3450   -3.8700   25.9780 F   0  0  0  0  0  0  0  0  0  0  0  0
  -22.8820  -13.6200   21.2300 C   0  0  0  0  0  0  0  0  0  0  0  0
  -22.1860  -12.9050   22.1060 N   0  0  0  0  0  0  0  0  0  0  0  0
  -22.4300  -14.6640   20.7590 O   0  0  0  0  0  0  0  0  0  0  0  0
  -22.5670  -12.0630   22.5110 H   0  0  0  0  0  0  0  0  0  0  0  0
  -21.2620  -13.2080   22.3780 H   0  0  0  0  0  0  0  0  0  0  0  0
  -25.4290  -15.2890   20.3080 N   0  0  0  0  0  0  0  0  0  0  0  0
  -24.6290  -15.9020   20.4160 H   0  0  0  0  0  0  0  0  0  0  0  0
  -26.1960  -15.7220   19.8140 H   0  0  0  0  0  0  0  0  0  0  0  0
  -28.3530  -26.4520   20.0940 O   0  0  0  0  0  0  0  0  0  0  0  0
  -24.6000  -31.8880   23.1910 C   0  0  0  0  0  0  0  0  0  0  0  0
  -27.2600  -27.3400   20.1340 C   0  0  0  0  0  0  0  0  0  0  0  0
  -23.4110  -30.4840   21.5450 C   0  0  0  0  0  3  0  0  0  0  0  0
  -24.8810  -28.9420   20.1210 C   0  0  0  0  0  0  0  0  0  0  0  0
  -25.9500  -30.8180   21.3680 C   0  0  0  0  0  2  0  0  0  0  0  0
  -26.0460  -29.4370   20.7240 C   0  0  0  0  0  0  0  0  0  0  0  0
  -27.2400  -28.6470   20.7230 C   0  0  0  0  0  3  0  0  0  0  0  0
  -26.0730  -26.9020   19.5120 C   0  0  0  0  0  3  0  0  0  0  0  0
  -24.8970  -27.6790   19.5070 C   0  0  0  0  0  3  0  0  0  0  0  0
  -23.6350  -29.8080   20.1660 C   0  0  0  0  0  2  0  0  0  0  0  0
  -24.6720  -31.0820   22.0910 N   0  0  0  0  0  0  0  0  0  0  0  0
  -23.5140  -32.1580   23.7240 O   0  0  0  0  0  0  0  0  0  0  0  0
  -22.7520  -29.4630   22.5040 C   0  0  0  0  0  0  0  0  0  0  0  0
  -21.4250  -29.2890   22.3870 N   0  0  0  0  0  0  0  0  0  0  0  0
  -23.4360  -28.8300   23.3140 O   0  0  0  0  0  0  0  0  0  0  0  0
  -20.9330  -29.8510   21.7070 H   0  0  0  0  0  0  0  0  0  0  0  0
  -18.0470  -28.1040   22.9190 C   0  0  0  0  0  0  0  0  0  0  0  0
  -20.6100  -28.3470   23.1570 C   0  0  0  0  0  3  0  0  0  0  0  0
  -20.6960  -26.9220   22.5620 C   0  0  0  0  0  2  0  0  0  0  0  0
  -19.5800  -26.6180   21.5590 C   0  0  0  0  0  2  0  0  0  0  0  0
  -18.2080  -26.7620   22.2230 C   0  0  0  0  0  2  0  0  0  0  0  0
  -19.1760  -28.8550   23.3420 C   0  0  0  0  0  0  0  0  0  0  0  0
  -18.9720  -30.1100   23.9550 C   0  0  0  0  0  3  0  0  0  0  0  0
  -17.6710  -30.6150   24.1460 C   0  0  0  0  0  3  0  0  0  0  0  0
  -16.5570  -29.8610   23.7380 C   0  0  0  0  0  3  0  0  0  0  0  0
  -16.7470  -28.6070   23.1300 C   0  0  0  0  0  3  0  0  0  0  0  0
  -25.8770  -32.5310   23.8160 C   0  0  0  0  0  3  0  0  0  0  0  0
  -25.5560  -33.9250   24.1540 N   0  0  0  0  0  0  0  0  0  0  0  0
  -25.8830  -34.9850   23.4020 C   0  0  0  0  0  0  0  0  0  0  0  0
  -26.5550  -34.8920   22.3720 O   0  0  0  0  0  0  0  0  0  0  0  0
  -24.9580  -34.0700   24.9530 H   0  0  0  0  0  0  0  0  0  0  0  0
  -24.1520  -36.7770   23.0470 C   0  0  0  0  0  1  0  0  0  0  0  0
  -25.3860  -36.3680   23.8670 C   0  0  0  0  0  3  0  0  0  0  0  0
  -27.5040  -37.2580   24.7360 C   0  0  0  0  0  1  0  0  0  0  0  0
  -26.4170  -37.4240   23.7740 N   0  0  0  0  0  0  0  0  0  0  0  0
  -26.0060  -38.3440   23.9130 H   0  0  0  0  0  0  0  0  0  0  0  0
  -26.3990  -31.7590   25.0910 C   0  0  1  0  0  0  0  0  0  0  0  0
  -25.3070  -31.5080   26.1570 C   0  0  0  0  0  1  0  0  0  0  0  0
  -26.9960  -30.3880   24.6960 C   0  0  0  0  0  1  0  0  0  0  0  0
  -27.5420  -32.5610   25.7560 C   0  0  0  0  0  1  0  0  0  0  0  0
  1  3  1  0
  2  1  2  0
  4  3  1  0
  5  6  1  0
  5  7  1  0
  5  1  1  0
  7  4  1  0
  8 12  1  0
  9 11  1  0
 10  8  2  0
 10 13  1  0
 11 15  1  0
 12 11  2  0
 12  7  1  0
 13 24  1  0
 13  9  2  0
 14 10  1  0
 16 24  1  0
 17 22  1  0
 18 19  1  0
 18 17  1  0
 20 19  1  0
 20 29  1  0
 20 21  1  0
 22 16  1  0
 22 21  1  0
 23 16  2  0
 24 25  1  0
 26 27  2  0
 27 46  1  0
 28 27  1  0
 28 31  1  0
 29 30  1  0
 29 26  1  0
 30 28  2  0
 31 32  1  0
 32 33  2  0
 34 37  1  0
 34 33  1  0
 35 34  2  0
 36 35  1  0
 36 31  2  0
 37 38  1  0
 38 39  1  0
 39 40  2  0
 41 40  1  0
 41 45  1  0
 42 41  2  0
 43 38  2  0
 43 42  1  0
 44 43  1  0
 46 47  1  0
 47 50  1  0
 47 49  1  0
 48 46  2  0
 51 52  1  0
 51 26  1  0
 53 51  1  0
 54 56  1  0
 54  2  1  0
 55 66  2  0
 56 61  1  0
 57 65  1  0
 57 67  1  0
 58 64  1  0
 58 60  1  0
 59 65  1  0
 60 59  1  0
 61 60  2  0
 62 56  2  0
 63 62  1  0
 63 58  2  0
 64 57  1  0
 65 55  1  0
 67 69  2  0
 68 67  1  0
 70 68  1  0
 71 80  2  0
 71 76  1  0
 72 68  1  0
 72 76  1  0
 73 72  1  0
 74 75  1  0
 74 73  1  0
 75 71  1  0
 76 77  2  0
 77 78  1  0
 79 78  2  0
 80 79  1  0
 81 55  1  0
 81 82  1  0
 81 91  1  0
 82 85  1  0
 83 87  1  0
 83 82  1  0
 84 83  2  0
 87 86  1  0
 89 87  1  0
 89 90  1  0
 89 88  1  0
 91 94  1  1
 91 92  1  0
 93 91  1  0
M  ISO  4   2 101  16 100  24 100  54 101
M  END
>  <TORSDO>  (76) 
F 17

>  <SCORE>  (76) 
-15.676

>  <name>  (76) 
75

>  <ligand_id>  (76) 
75

>  <original_smiles>  (76) 
[H]C(Oc1c([H])c([H])c2c(c1[H])C([H])([H])N(C(=O)C([H])(N([H])C(=O)C([H])(N([H])C([H])([H])[H])C([H])([H])[H])C(C([H])([H])[H])(C([H])([H])[H])C([H])([H])[H])C([H])(C(=O)N([H])C1([H])c3c([H])c([H])c([H])c([H])c3C([H])([H])C([H])([H])C1([H])[H])C2([H])[H])=C1C([H])([H])C([H])([H])N(c2c([H])c(C([H])([H])[H])c(N([H])C(=O)N3C([H])([H])C([H])([H])C([H])([H])C([H])(n4nc(-c5c([H])c([H])c(Oc6c([H])c([H])c(F)c([H])c6F)c([H])c5[H])c(C(=O)N([H])[H])c4N([H])[H])C3([H])[H])c([H])c2C([H])([H])[H])C1([H])C([H])([H])[H]

>  <smiles>  (76) 
[H]C(Oc1c([H])c([H])c2c(c1[H])C([H])([H])N(C(=O)C([H])(N([H])C(=O)C([H])(N([H])C([H])([H])[H])C([H])([H])[H])C(C([H])([H])[H])(C([H])([H])[H])C([H])([H])[H])C([H])(C(=O)N([H])C1([H])c3c([H])c([H])c([H])c([H])c3C([H])([H])C([H])([H])C1([H])[H])C2([H])[H])=C1C([H])([H])C([H])([H])N(c2c([H])c(C([H])([H])[H])c(N([H])C(=O)N3C([H])([H])C([H])([H])C([H])([H])C([H])(n4nc(-c5c([H])c([H])c(Oc6c([H])c([H])c(F)c([H])c6F)c([H])c5[H])c(C(=O)N([H])[H])c4N([H])[H])C3([H])[H])c([H])c2C([H])([H])[H])C1([H])C([H])([H])[H]

$$$$
76:0:0
     RDKit          3D

 94102  0  0  1  0  0  0  0  0999 V2000
  -30.7050  -19.6130   22.8240 C   0  0  0  0  0  3  0  0  0  0  0  0
  -30.5010  -19.7310   20.0590 C   0  0  0  0  0  3  0  0  0  0  0  0
  -30.9290  -18.4450   22.0700 C   0  0  0  0  0  0  0  0  0  0  0  0
  -30.8490  -18.4850   20.6570 C   0  0  0  0  0  0  0  0  0  0  0  0
  -30.3670  -20.8430   22.2220 C   0  0  0  0  0  0  0  0  0  0  0  0
  -30.2600  -20.9210   20.8030 C   0  0  0  0  0  0  0  0  0  0  0  0
  -30.9290  -22.3080   24.0290 C   0  0  0  0  0  1  0  0  0  0  0  0
  -30.0090  -21.9010   23.0260 O   0  0  0  0  0  0  0  0  0  0  0  0
  -30.2190  -16.6600   23.5770 C   0  0  0  0  0  2  0  0  0  0  0  0
  -31.1730  -17.2080   22.8090 C   0  0  0  0  0  3  0  0  0  0  0  0
  -31.0970  -17.2590   19.7370 C   0  0  0  0  0  2  0  0  0  0  0  0
  -31.4610  -14.7610   19.8840 C   0  0  0  0  0  0  0  0  0  0  0  0
  -31.0250  -12.6190   18.7630 C   0  0  0  0  0  2  0  0  0  0  0  0
  -30.0300  -12.8660   17.6110 C   0  0  0  0  0  2  0  0  0  0  0  0
  -28.5740  -12.8020   18.1020 C   0  0  0  0  0  2  0  0  0  0  0  0
  -28.3320  -13.6110   19.4030 C   0  0  0  0  0  3  0  0  0  0  0  0
  -29.4380  -13.3560   20.4560 C   0  0  0  0  0  2  0  0  0  0  0  0
  -30.7380  -13.6070   19.8140 N   0  0  0  0  0  0  0  0  0  0  0  0
  -32.6100  -14.8460   19.4460 O   0  0  0  0  0  0  0  0  0  0  0  0
  -30.7540  -15.8770   20.1760 N   0  0  0  0  0  0  0  0  0  0  0  0
  -29.8180  -15.7460   20.5250 H   0  0  0  0  0  0  0  0  0  0  0  0
  -25.9860  -14.2840   20.2190 C   0  0  0  0  0  0  0  0  0  0  0  0
  -24.9100  -13.5410   20.6310 C   0  0  0  0  0  0  0  0  0  0  0  0
  -25.3270  -12.1790   20.5770 C   0  0  0  0  0  0  0  0  0  0  0  0
  -26.9910  -13.3700   19.9400 N   0  0  0  0  0  0  0  0  0  0  0  0
  -26.6010  -12.1000   20.2150 N   0  0  0  0  0  0  0  0  0  0  0  0
  -24.5660  -10.9430   20.7940 C   0  0  0  0  0  0  0  0  0  0  0  0
  -24.9660   -9.9920   21.7600 C   0  0  0  0  0  3  0  0  0  0  0  0
  -24.2120   -8.8150   21.9610 C   0  0  0  0  0  3  0  0  0  0  0  0
  -23.0430   -8.5840   21.1950 C   0  0  0  0  0  0  0  0  0  0  0  0
  -22.6640   -9.5220   20.2180 C   0  0  0  0  0  3  0  0  0  0  0  0
  -23.4190  -10.6900   20.0160 C   0  0  0  0  0  3  0  0  0  0  0  0
  -22.2590   -7.4620   21.3090 O   0  0  0  0  0  0  0  0  0  0  0  0
  -22.1070   -6.8040   22.5030 C   0  0  0  0  0  0  0  0  0  0  0  0
  -21.6030   -7.4540   23.6510 C   0  0  0  0  0  3  0  0  0  0  0  0
  -21.3960   -6.7220   24.8370 C   0  0  0  0  0  3  0  0  0  0  0  0
  -21.6850   -5.3460   24.8770 C   0  0  0  0  0  0  0  0  0  0  0  0
  -22.1800   -4.6980   23.7350 C   0  0  0  0  0  3  0  0  0  0  0  0
  -22.3900   -5.4230   22.5500 C   0  0  0  0  0  0  0  0  0  0  0  0
  -22.8480   -4.7880   21.4430 F   0  0  0  0  0  0  0  0  0  0  0  0
  -21.4800   -4.6430   26.0170 F   0  0  0  0  0  0  0  0  0  0  0  0
  -23.5430  -14.0650   20.9650 C   0  0  0  0  0  0  0  0  0  0  0  0
  -22.8390  -13.4040   21.8800 N   0  0  0  0  0  0  0  0  0  0  0  0
  -23.1120  -15.0950   20.4510 O   0  0  0  0  0  0  0  0  0  0  0  0
  -23.2110  -12.5730   22.3140 H   0  0  0  0  0  0  0  0  0  0  0  0
  -21.9210  -13.7380   22.1420 H   0  0  0  0  0  0  0  0  0  0  0  0
  -26.1900  -15.6470   20.0440 N   0  0  0  0  0  0  0  0  0  0  0  0
  -25.4530  -16.3260   20.2090 H   0  0  0  0  0  0  0  0  0  0  0  0
  -27.0330  -16.0660   19.6660 H   0  0  0  0  0  0  0  0  0  0  0  0
  -29.9110  -22.0610   20.0710 O   0  0  0  0  0  0  0  0  0  0  0  0
  -30.0280  -23.3750   20.6560 C   0  0  0  0  0  2  0  0  0  0  0  0
  -29.7610  -24.5760   19.6930 C   0  0  0  0  0  2  0  0  0  0  0  0
  -28.4360  -25.3580   19.9480 C   0  0  0  0  0  2  0  0  0  0  0  0
  -28.4940  -26.7550   19.5780 O   0  0  0  0  0  0  0  0  0  0  0  0
  -24.6420  -31.6330   23.1010 C   0  0  0  0  0  0  0  0  0  0  0  0
  -27.3030  -27.4560   19.6730 C   0  0  0  0  0  0  0  0  0  0  0  0
  -23.4150  -30.3050   21.4080 C   0  0  0  0  0  3  0  0  0  0  0  0
  -24.8690  -28.8970   19.8490 C   0  0  0  0  0  0  0  0  0  0  0  0
  -25.9260  -30.7450   21.1520 C   0  0  0  0  0  2  0  0  0  0  0  0
  -26.0300  -29.4140   20.4370 C   0  0  0  0  0  0  0  0  0  0  0  0
  -27.2550  -28.7030   20.3380 C   0  0  0  0  0  3  0  0  0  0  0  0
  -26.1190  -26.9610   19.0800 C   0  0  0  0  0  3  0  0  0  0  0  0
  -24.9090  -27.6690   19.1700 C   0  0  0  0  0  3  0  0  0  0  0  0
  -23.6010  -29.7090   19.9850 C   0  0  0  0  0  2  0  0  0  0  0  0
  -24.6820  -30.9050   21.9460 N   0  0  0  0  0  0  0  0  0  0  0  0
  -23.5710  -31.8320   23.6950 O   0  0  0  0  0  0  0  0  0  0  0  0
  -22.8220  -29.2080   22.3210 C   0  0  0  0  0  0  0  0  0  0  0  0
  -21.5030  -28.9730   22.2030 N   0  0  0  0  0  0  0  0  0  0  0  0
  -23.5440  -28.5720   23.0950 O   0  0  0  0  0  0  0  0  0  0  0  0
  -20.9750  -29.5400   21.5530 H   0  0  0  0  0  0  0  0  0  0  0  0
  -18.2010  -27.5820   22.6460 C   0  0  0  0  0  0  0  0  0  0  0  0
  -20.7440  -27.9610   22.9310 C   0  0  0  0  0  3  0  0  0  0  0  0
  -20.9200  -26.5620   22.2960 C   0  0  0  0  0  2  0  0  0  0  0  0
  -19.8350  -26.2290   21.2650 C   0  0  0  0  0  2  0  0  0  0  0  0
  -18.4470  -26.2730   21.9120 C   0  0  0  0  0  2  0  0  0  0  0  0
  -19.2800  -28.3780   23.1120 C   0  0  0  0  0  0  0  0  0  0  0  0
  -18.9980  -29.6020   23.7590 C   0  0  0  0  0  3  0  0  0  0  0  0
  -17.6700  -30.0320   23.9410 C   0  0  0  0  0  3  0  0  0  0  0  0
  -16.6060  -29.2300   23.4940 C   0  0  0  0  0  3  0  0  0  0  0  0
  -16.8700  -28.0060   22.8520 C   0  0  0  0  0  3  0  0  0  0  0  0
  -25.9300  -32.2590   23.7200 C   0  0  0  0  0  3  0  0  0  0  0  0
  -25.6110  -33.6430   24.0880 N   0  0  0  0  0  0  0  0  0  0  0  0
  -25.9420  -34.7190   23.3590 C   0  0  0  0  0  0  0  0  0  0  0  0
  -26.6170  -34.6480   22.3280 O   0  0  0  0  0  0  0  0  0  0  0  0
  -25.0210  -33.7710   24.8960 H   0  0  0  0  0  0  0  0  0  0  0  0
  -24.2140  -36.5170   23.0430 C   0  0  0  0  0  1  0  0  0  0  0  0
  -25.4490  -36.0930   23.8510 C   0  0  0  0  0  3  0  0  0  0  0  0
  -27.5700  -36.9680   24.7190 C   0  0  0  0  0  1  0  0  0  0  0  0
  -26.4750  -37.1530   23.7730 N   0  0  0  0  0  0  0  0  0  0  0  0
  -26.0620  -38.0640   23.9440 H   0  0  0  0  0  0  0  0  0  0  0  0
  -26.4710  -31.4600   24.9680 C   0  0  1  0  0  0  0  0  0  0  0  0
  -25.3910  -31.1770   26.0370 C   0  0  0  0  0  1  0  0  0  0  0  0
  -27.0710  -30.1010   24.5290 C   0  0  0  0  0  1  0  0  0  0  0  0
  -27.6110  -32.2530   25.6490 C   0  0  0  0  0  1  0  0  0  0  0  0
  2  4  2  0
  2  6  1  0
  3 10  1  0
  3  1  2  0
  4  3  1  0
  5  1  1  0
  5  8  1  0
  6  5  2  0
  8  7  1  0
 10  9  2  0
 11 20  1  0
 11  4  1  0
 12 20  1  0
 13 18  1  0
 14 15  1  0
 14 13  1  0
 16 15  1  0
 16 25  1  0
 16 17  1  0
 18 12  1  0
 18 17  1  0
 19 12  2  0
 20 21  1  0
 22 23  2  0
 23 42  1  0
 24 23  1  0
 24 27  1  0
 25 26  1  0
 25 22  1  0
 26 24  2  0
 27 28  1  0
 28 29  2  0
 30 33  1  0
 30 29  1  0
 31 30  2  0
 32 31  1  0
 32 27  2  0
 33 34  1  0
 34 39  2  0
 34 35  1  0
 35 36  2  0
 36 37  1  0
 37 41  1  0
 38 37  2  0
 39 38  1  0
 40 39  1  0
 42 43  1  0
 43 46  1  0
 43 45  1  0
 44 42  2  0
 47 48  1  0
 47 22  1  0
 49 47  1  0
 50 51  1  0
 50  6  1  0
 52 53  1  0
 52 51  1  0
 54 56  1  0
 54 53  1  0
 55 66  2  0
 56 61  1  0
 57 65  1  0
 57 67  1  0
 58 64  1  0
 58 60  1  0
 59 65  1  0
 60 59  1  0
 61 60  2  0
 62 63  1  0
 62 56  2  0
 63 58  2  0
 64 57  1  0
 65 55  1  0
 67 69  2  0
 68 67  1  0
 70 68  1  0
 71 80  2  0
 71 76  1  0
 72 68  1  0
 72 76  1  0
 73 72  1  0
 74 75  1  0
 74 73  1  0
 75 71  1  0
 76 77  2  0
 77 78  1  0
 79 78  2  0
 80 79  1  0
 81 55  1  0
 81 82  1  0
 81 91  1  0
 82 85  1  0
 83 87  1  0
 83 82  1  0
 84 83  2  0
 87 86  1  0
 89 87  1  0
 89 90  1  0
 89 88  1  0
 91 94  1  1
 91 92  1  0
 93 91  1  0
M  ISO  4  12 100  20 100  53 101  54 101
M  END
>  <TORSDO>  (77) 
F 23

>  <SCORE>  (77) 
-8.903

>  <name>  (77) 
76

>  <ligand_id>  (77) 
76

>  <original_smiles>  (77) 
[H]C([H])=C([H])c1c([H])c(OC([H])([H])[H])c(OC([H])([H])C([H])([H])C([H])([H])Oc2c([H])c([H])c3c(c2[H])C([H])([H])N(C(=O)C([H])(N([H])C(=O)C([H])(N([H])C([H])([H])[H])C([H])([H])[H])C(C([H])([H])[H])(C([H])([H])[H])C([H])([H])[H])C([H])(C(=O)N([H])C2([H])c4c([H])c([H])c([H])c([H])c4C([H])([H])C([H])([H])C2([H])[H])C3([H])[H])c([H])c1C([H])([H])N([H])C(=O)N1C([H])([H])C([H])([H])C([H])([H])C([H])(n2nc(-c3c([H])c([H])c(Oc4c([H])c([H])c(F)c([H])c4F)c([H])c3[H])c(C(=O)N([H])[H])c2N([H])[H])C1([H])[H]

>  <smiles>  (77) 
[H]C([H])=C([H])c1c([H])c(OC([H])([H])[H])c(OC([H])([H])C([H])([H])C([H])([H])Oc2c([H])c([H])c3c(c2[H])C([H])([H])N(C(=O)C([H])(N([H])C(=O)C([H])(N([H])C([H])([H])[H])C([H])([H])[H])C(C([H])([H])[H])(C([H])([H])[H])C([H])([H])[H])C([H])(C(=O)N([H])C2([H])c4c([H])c([H])c([H])c([H])c4C([H])([H])C([H])([H])C2([H])[H])C3([H])[H])c([H])c1C([H])([H])N([H])C(=O)N1C([H])([H])C([H])([H])C([H])([H])C([H])(n2nc(-c3c([H])c([H])c(Oc4c([H])c([H])c(F)c([H])c4F)c([H])c3[H])c(C(=O)N([H])[H])c2N([H])[H])C1([H])[H]

$$$$
77:0:0
     RDKit          3D

 97106  0  0  1  0  0  0  0  0999 V2000
  -30.3990  -24.5970   20.4900 C   0  0  0  0  0  3  0  0  0  0  0  0
  -29.1440  -24.1300   20.3550 C   0  0  0  0  0  0  0  0  0  0  0  0
  -31.5230  -23.6910   20.7410 C   0  0  0  0  0  0  0  0  0  0  0  0
  -31.2120  -22.2520   21.1680 C   0  0  0  0  0  2  0  0  0  0  0  0
  -28.8290  -22.5770   20.4140 C   0  0  0  0  0  3  0  0  0  0  0  0
  -27.8670  -22.2830   21.5810 C   0  0  0  0  0  1  0  0  0  0  0  0
  -30.0240  -21.6690   20.5280 N   0  0  0  0  0  0  0  0  0  0  0  0
  -32.6980  -24.0530   20.6380 O   0  0  0  0  0  0  0  0  0  0  0  0
  -29.2890  -19.4590   19.5600 C   0  0  0  0  0  3  0  0  0  0  0  0
  -30.6190  -19.4490   21.5510 C   0  0  0  0  0  3  0  0  0  0  0  0
  -29.2760  -18.0210   19.5520 C   0  0  0  0  0  0  0  0  0  0  0  0
  -30.6010  -18.0240   21.5830 C   0  0  0  0  0  0  0  0  0  0  0  0
  -29.9620  -20.2220   20.5490 C   0  0  0  0  0  0  0  0  0  0  0  0
  -29.9350  -17.2730   20.5790 C   0  0  0  0  0  0  0  0  0  0  0  0
  -31.2660  -17.3070   22.7450 C   0  0  0  0  0  1  0  0  0  0  0  0
  -30.5790  -14.7730   20.4160 C   0  0  0  0  0  0  0  0  0  0  0  0
  -30.3870  -12.5260   19.3720 C   0  0  0  0  0  2  0  0  0  0  0  0
  -29.4490  -12.6370   18.1490 C   0  0  0  0  0  2  0  0  0  0  0  0
  -27.9760  -12.4690   18.5730 C   0  0  0  0  0  2  0  0  0  0  0  0
  -27.6010  -13.3460   19.7960 C   0  0  0  0  0  3  0  0  0  0  0  0
  -28.6540  -13.2110   20.9210 C   0  0  0  0  0  2  0  0  0  0  0  0
  -29.9670  -13.5490   20.3480 N   0  0  0  0  0  0  0  0  0  0  0  0
  -31.7500  -14.9300   20.0590 O   0  0  0  0  0  0  0  0  0  0  0  0
  -29.7540  -15.8250   20.7060 N   0  0  0  0  0  0  0  0  0  0  0  0
  -28.8050  -15.5350   20.8850 H   0  0  0  0  0  0  0  0  0  0  0  0
  -25.2020  -13.9500   20.4970 C   0  0  0  0  0  0  0  0  0  0  0  0
  -24.1310  -13.1790   20.8580 C   0  0  0  0  0  0  0  0  0  0  0  0
  -24.5930  -11.8260   20.8300 C   0  0  0  0  0  0  0  0  0  0  0  0
  -26.2480  -13.0690   20.2730 N   0  0  0  0  0  0  0  0  0  0  0  0
  -25.8860  -11.7860   20.5320 N   0  0  0  0  0  0  0  0  0  0  0  0
  -23.8640  -10.5640   21.0130 C   0  0  0  0  0  0  0  0  0  0  0  0
  -24.2800   -9.6010   21.9600 C   0  0  0  0  0  3  0  0  0  0  0  0
  -23.5510   -8.4040   22.1290 C   0  0  0  0  0  3  0  0  0  0  0  0
  -22.3940   -8.1620   21.3530 C   0  0  0  0  0  0  0  0  0  0  0  0
  -21.9980   -9.1130   20.3960 C   0  0  0  0  0  3  0  0  0  0  0  0
  -22.7270  -10.3010   20.2250 C   0  0  0  0  0  3  0  0  0  0  0  0
  -21.6400   -7.0150   21.4310 O   0  0  0  0  0  0  0  0  0  0  0  0
  -21.5730   -6.2730   22.5840 C   0  0  0  0  0  0  0  0  0  0  0  0
  -21.1040   -6.8250   23.7960 C   0  0  0  0  0  3  0  0  0  0  0  0
  -20.9840   -6.0100   24.9400 C   0  0  0  0  0  3  0  0  0  0  0  0
  -21.3260   -4.6460   24.8720 C   0  0  0  0  0  0  0  0  0  0  0  0
  -21.7900   -4.0960   23.6660 C   0  0  0  0  0  3  0  0  0  0  0  0
  -21.9090   -4.9060   22.5230 C   0  0  0  0  0  0  0  0  0  0  0  0
  -22.3360   -4.3660   21.3560 F   0  0  0  0  0  0  0  0  0  0  0  0
  -21.2040   -3.8620   25.9680 F   0  0  0  0  0  0  0  0  0  0  0  0
  -22.7310  -13.6580   21.1150 C   0  0  0  0  0  0  0  0  0  0  0  0
  -21.9880  -12.9560   21.9620 N   0  0  0  0  0  0  0  0  0  0  0  0
  -22.3050  -14.6910   20.6000 O   0  0  0  0  0  0  0  0  0  0  0  0
  -22.3450  -12.1230   22.4050 H   0  0  0  0  0  0  0  0  0  0  0  0
  -21.0470  -13.2610   22.1750 H   0  0  0  0  0  0  0  0  0  0  0  0
  -25.3690  -15.3200   20.3210 N   0  0  0  0  0  0  0  0  0  0  0  0
  -24.5980  -15.9690   20.4340 H   0  0  0  0  0  0  0  0  0  0  0  0
  -26.2030  -15.7630   19.9580 H   0  0  0  0  0  0  0  0  0  0  0  0
  -27.6370  -17.8080   17.6490 C   0  0  0  0  0  2  0  0  0  0  0  0
  -28.5440  -17.2920   18.4960 C   0  0  0  0  0  3  0  0  0  0  0  0
  -27.9790  -25.1410   20.0880 C   0  0  0  0  0  2  0  0  0  0  0  0
  -28.2350  -26.5950   20.2360 O   0  0  0  0  0  0  0  0  0  0  0  0
  -24.5530  -31.9900   23.3190 C   0  0  0  0  0  0  0  0  0  0  0  0
  -27.1170  -27.4460   20.2040 C   0  0  0  0  0  0  0  0  0  0  0  0
  -23.3240  -30.6020   21.6880 C   0  0  0  0  0  3  0  0  0  0  0  0
  -24.7530  -29.0590   20.2390 C   0  0  0  0  0  0  0  0  0  0  0  0
  -25.8620  -30.9190   21.4730 C   0  0  0  0  0  2  0  0  0  0  0  0
  -25.9330  -29.5440   20.8190 C   0  0  0  0  0  0  0  0  0  0  0  0
  -27.1190  -28.7490   20.7910 C   0  0  0  0  0  3  0  0  0  0  0  0
  -25.9100  -27.0170   19.6020 C   0  0  0  0  0  3  0  0  0  0  0  0
  -24.7420  -27.7990   19.6250 C   0  0  0  0  0  3  0  0  0  0  0  0
  -23.5190  -29.9330   20.3040 C   0  0  0  0  0  2  0  0  0  0  0  0
  -24.5990  -31.1850   22.2170 N   0  0  0  0  0  0  0  0  0  0  0  0
  -23.4760  -32.2660   23.8680 O   0  0  0  0  0  0  0  0  0  0  0  0
  -22.6720  -29.5810   22.6500 C   0  0  0  0  0  0  0  0  0  0  0  0
  -21.3500  -29.3820   22.5130 N   0  0  0  0  0  0  0  0  0  0  0  0
  -23.3540  -28.9720   23.4780 O   0  0  0  0  0  0  0  0  0  0  0  0
  -20.8570  -29.9280   21.8190 H   0  0  0  0  0  0  0  0  0  0  0  0
  -17.9920  -28.1250   22.9790 C   0  0  0  0  0  0  0  0  0  0  0  0
  -20.5390  -28.4390   23.2850 C   0  0  0  0  0  3  0  0  0  0  0  0
  -20.6780  -27.0010   22.7320 C   0  0  0  0  0  2  0  0  0  0  0  0
  -19.5990  -26.6400   21.7060 C   0  0  0  0  0  2  0  0  0  0  0  0
  -18.2050  -26.7680   22.3260 C   0  0  0  0  0  2  0  0  0  0  0  0
  -19.0880  -28.9150   23.4150 C   0  0  0  0  0  0  0  0  0  0  0  0
  -18.8350  -30.1820   23.9840 C   0  0  0  0  0  3  0  0  0  0  0  0
  -17.5180  -30.6610   24.1210 C   0  0  0  0  0  3  0  0  0  0  0  0
  -16.4360  -29.8670   23.7030 C   0  0  0  0  0  3  0  0  0  0  0  0
  -16.6730  -28.6010   23.1390 C   0  0  0  0  0  3  0  0  0  0  0  0
  -25.8440  -32.6170   23.9280 C   0  0  0  0  0  3  0  0  0  0  0  0
  -26.3610  -31.8500   25.2070 C   0  0  1  0  0  0  0  0  0  0  0  0
  -25.2710  -31.6280   26.2800 C   0  0  0  0  0  1  0  0  0  0  0  0
  -26.9340  -30.4650   24.8210 C   0  0  0  0  0  1  0  0  0  0  0  0
  -27.5190  -32.6420   25.8580 C   0  0  0  0  0  1  0  0  0  0  0  0
  -25.5470  -34.0180   24.2500 N   0  0  0  0  0  0  0  0  0  0  0  0
  -25.8560  -35.0610   23.4690 C   0  0  0  0  0  0  0  0  0  0  0  0
  -26.4910  -34.9440   22.4160 O   0  0  0  0  0  0  0  0  0  0  0  0
  -24.9760  -34.1840   25.0660 H   0  0  0  0  0  0  0  0  0  0  0  0
  -24.1060  -36.8430   23.1700 C   0  0  0  0  0  1  0  0  0  0  0  0
  -25.3860  -36.4560   23.9250 C   0  0  0  0  0  3  0  0  0  0  0  0
  -27.5540  -37.3630   24.6410 C   0  0  0  0  0  1  0  0  0  0  0  0
  -26.4080  -37.5100   23.7450 N   0  0  0  0  0  0  0  0  0  0  0  0
  -26.0070  -38.4310   23.8940 H   0  0  0  0  0  0  0  0  0  0  0  0
  1  3  1  0
  2  5  1  0
  2  1  2  0
  3  4  1  0
  5  7  1  0
  5  6  1  0
  7 13  1  0
  7  4  1  0
  8  3  2  0
  9 13  1  0
 10 12  1  0
 11  9  2  0
 11 14  1  0
 12 15  1  0
 13 10  2  0
 14 24  1  0
 14 12  2  0
 16 24  1  0
 17 22  1  0
 18 19  1  0
 18 17  1  0
 20 19  1  0
 20 29  1  0
 20 21  1  0
 22 16  1  0
 22 21  1  0
 23 16  2  0
 24 25  1  0
 26 27  2  0
 27 46  1  0
 28 27  1  0
 28 31  1  0
 29 26  1  0
 29 30  1  0
 30 28  2  0
 31 32  1  0
 32 33  2  0
 34 37  1  0
 34 33  1  0
 35 34  2  0
 36 35  1  0
 36 31  2  0
 37 38  1  0
 38 39  1  0
 39 40  2  0
 41 40  1  0
 41 45  1  0
 42 41  2  0
 43 38  2  0
 43 42  1  0
 44 43  1  0
 46 47  1  0
 47 50  1  0
 47 49  1  0
 48 46  2  0
 51 52  1  0
 51 26  1  0
 53 51  1  0
 54 55  2  0
 55 11  1  0
 56 57  1  0
 56  2  1  0
 58 69  2  0
 59 57  1  0
 59 64  1  0
 60 68  1  0
 60 70  1  0
 61 67  1  0
 61 63  1  0
 62 68  1  0
 63 62  1  0
 64 63  2  0
 65 66  1  0
 65 59  2  0
 66 61  2  0
 67 60  1  0
 68 58  1  0
 70 72  2  0
 71 70  1  0
 73 71  1  0
 74 83  2  0
 74 79  1  0
 75 71  1  0
 75 79  1  0
 76 75  1  0
 77 78  1  0
 77 76  1  0
 78 74  1  0
 79 80  2  0
 80 81  1  0
 82 81  2  0
 83 82  1  0
 84 58  1  0
 84 89  1  0
 84 85  1  0
 85 88  1  1
 85 86  1  0
 87 85  1  0
 89 92  1  0
 90 94  1  0
 90 89  1  0
 91 90  2  0
 94 93  1  0
 96 97  1  0
 96 94  1  0
 96 95  1  0
M  ISO  4  16 100  24 100  56 101  57 101
M  END
>  <TORSDO>  (78) 
F 19

>  <SCORE>  (78) 
-13.457

>  <name>  (78) 
77

>  <ligand_id>  (78) 
77

>  <original_smiles>  (78) 
[H]C([H])=C([H])c1c([H])c(N2C([H])([H])C(=O)C([H])=C(C([H])([H])Oc3c([H])c([H])c4c(c3[H])C([H])([H])N(C(=O)C([H])(N([H])C(=O)C([H])(N([H])C([H])([H])[H])C([H])([H])[H])C(C([H])([H])[H])(C([H])([H])[H])C([H])([H])[H])C([H])(C(=O)N([H])C3([H])c5c([H])c([H])c([H])c([H])c5C([H])([H])C([H])([H])C3([H])[H])C4([H])[H])C2([H])C([H])([H])[H])c([H])c(C([H])([H])[H])c1N([H])C(=O)N1C([H])([H])C([H])([H])C([H])([H])C([H])(n2nc(-c3c([H])c([H])c(Oc4c([H])c([H])c(F)c([H])c4F)c([H])c3[H])c(C(=O)N([H])[H])c2N([H])[H])C1([H])[H]

>  <smiles>  (78) 
[H]C([H])=C([H])c1c([H])c(N2C([H])([H])C(=O)C([H])=C(C([H])([H])Oc3c([H])c([H])c4c(c3[H])C([H])([H])N(C(=O)C([H])(N([H])C(=O)C([H])(N([H])C([H])([H])[H])C([H])([H])[H])C(C([H])([H])[H])(C([H])([H])[H])C([H])([H])[H])C([H])(C(=O)N([H])C3([H])c5c([H])c([H])c([H])c([H])c5C([H])([H])C([H])([H])C3([H])[H])C4([H])[H])C2([H])C([H])([H])[H])c([H])c(C([H])([H])[H])c1N([H])C(=O)N1C([H])([H])C([H])([H])C([H])([H])C([H])(n2nc(-c3c([H])c([H])c(Oc4c([H])c([H])c(F)c([H])c4F)c([H])c3[H])c(C(=O)N([H])[H])c2N([H])[H])C1([H])[H]

$$$$
78:0:0
     RDKit          3D

 88 96  0  0  1  0  0  0  0  0999 V2000
  -28.9320  -22.0400   19.9060 C   0  0  0  0  0  0  0  0  0  0  0  0
  -28.9840  -22.2640   18.6950 O   0  0  0  0  0  0  0  0  0  0  0  0
  -29.0690  -19.1470   19.8500 C   0  0  0  0  0  3  0  0  0  0  0  0
  -30.7320  -18.4770   21.3210 C   0  0  0  0  0  3  0  0  0  0  0  0
  -29.8510  -17.9440   20.4050 C   0  0  0  0  0  0  0  0  0  0  0  0
  -29.3340  -20.5020   20.3220 C   0  0  0  0  0  0  0  0  0  0  0  0
  -30.5960  -20.2580   21.5240 S   0  0  0  0  0  0  0  0  0  0  0  0
  -30.5060  -15.1770   20.1860 C   0  0  0  0  0  0  0  0  0  0  0  0
  -30.4410  -12.7830   19.2450 C   0  0  0  0  0  2  0  0  0  0  0  0
  -29.4890  -12.6470   18.0330 C   0  0  0  0  0  2  0  0  0  0  0  0
  -28.0400  -12.3990   18.4950 C   0  0  0  0  0  2  0  0  0  0  0  0
  -27.6240  -13.3400   19.6550 C   0  0  0  0  0  3  0  0  0  0  0  0
  -28.6970  -13.4230   20.7590 C   0  0  0  0  0  2  0  0  0  0  0  0
  -29.9290  -13.8940   20.1090 N   0  0  0  0  0  0  0  0  0  0  0  0
  -31.7300  -15.2110   19.9940 O   0  0  0  0  0  0  0  0  0  0  0  0
  -29.6960  -16.3870   20.1790 N   0  0  0  0  0  0  0  0  0  0  0  0
  -28.7340  -16.1340   20.0100 H   0  0  0  0  0  0  0  0  0  0  0  0
  -25.2580  -13.8960   20.4370 C   0  0  0  0  0  0  0  0  0  0  0  0
  -24.2040  -13.1130   20.8200 C   0  0  0  0  0  0  0  0  0  0  0  0
  -24.6790  -11.7660   20.7860 C   0  0  0  0  0  0  0  0  0  0  0  0
  -26.3020  -13.0260   20.1810 N   0  0  0  0  0  0  0  0  0  0  0  0
  -25.9660  -11.7390   20.4590 N   0  0  0  0  0  0  0  0  0  0  0  0
  -23.9620  -10.4990   20.9830 C   0  0  0  0  0  0  0  0  0  0  0  0
  -24.4000   -9.5420   21.9250 C   0  0  0  0  0  3  0  0  0  0  0  0
  -23.6810   -8.3410   22.1110 C   0  0  0  0  0  3  0  0  0  0  0  0
  -22.5100   -8.0900   21.3570 C   0  0  0  0  0  0  0  0  0  0  0  0
  -22.0920   -9.0360   20.4050 C   0  0  0  0  0  3  0  0  0  0  0  0
  -22.8110  -10.2280   20.2160 C   0  0  0  0  0  3  0  0  0  0  0  0
  -21.7630   -6.9410   21.4530 O   0  0  0  0  0  0  0  0  0  0  0  0
  -21.7070   -6.2140   22.6150 C   0  0  0  0  0  0  0  0  0  0  0  0
  -21.2460   -6.7760   23.8260 C   0  0  0  0  0  3  0  0  0  0  0  0
  -21.1400   -5.9740   24.9790 C   0  0  0  0  0  3  0  0  0  0  0  0
  -21.4830   -4.6110   24.9240 C   0  0  0  0  0  0  0  0  0  0  0  0
  -21.9380   -4.0470   23.7180 C   0  0  0  0  0  3  0  0  0  0  0  0
  -22.0460   -4.8470   22.5660 C   0  0  0  0  0  0  0  0  0  0  0  0
  -22.4640   -4.2930   21.4020 F   0  0  0  0  0  0  0  0  0  0  0  0
  -21.3750   -3.8370   26.0290 F   0  0  0  0  0  0  0  0  0  0  0  0
  -22.8070  -13.5820   21.1030 C   0  0  0  0  0  0  0  0  0  0  0  0
  -22.0880  -12.8790   21.9710 N   0  0  0  0  0  0  0  0  0  0  0  0
  -22.3610  -14.6060   20.5880 O   0  0  0  0  0  0  0  0  0  0  0  0
  -22.4620  -12.0500   22.4090 H   0  0  0  0  0  0  0  0  0  0  0  0
  -21.1500  -13.1750   22.2030 H   0  0  0  0  0  0  0  0  0  0  0  0
  -25.4060  -15.2690   20.2570 N   0  0  0  0  0  0  0  0  0  0  0  0
  -24.6340  -15.9130   20.3860 H   0  0  0  0  0  0  0  0  0  0  0  0
  -26.2370  -15.7180   19.8990 H   0  0  0  0  0  0  0  0  0  0  0  0
  -28.4140  -23.2780   20.8330 C   0  0  0  0  0  3  0  0  0  0  0  0
  -28.1520  -24.7140   20.9150 C   0  0  0  0  0  3  0  0  0  0  0  0
  -28.2890  -26.0360   20.2380 O   0  0  0  0  0  0  0  0  0  0  0  0
  -24.6300  -31.8690   23.2520 C   0  0  0  0  0  0  0  0  0  0  0  0
  -27.2640  -27.0850   20.2750 C   0  0  0  0  0  0  0  0  0  0  0  0
  -23.4610  -30.4610   21.6050 C   0  0  0  0  0  3  0  0  0  0  0  0
  -24.9370  -28.8770   20.2070 C   0  0  0  0  0  0  0  0  0  0  0  0
  -26.0210  -30.7200   21.4740 C   0  0  0  0  0  2  0  0  0  0  0  0
  -26.1130  -29.3140   20.8320 C   0  0  0  0  0  0  0  0  0  0  0  0
  -27.2780  -28.4380   20.8440 C   0  0  0  0  0  3  0  0  0  0  0  0
  -26.0590  -26.7730   19.6140 C   0  0  0  0  0  3  0  0  0  0  0  0
  -24.9280  -27.6210   19.5810 C   0  0  0  0  0  3  0  0  0  0  0  0
  -23.7080  -29.7790   20.2330 C   0  0  0  0  0  2  0  0  0  0  0  0
  -24.7240  -31.0410   22.1650 N   0  0  0  0  0  0  0  0  0  0  0  0
  -23.5340  -32.1500   23.7640 O   0  0  0  0  0  0  0  0  0  0  0  0
  -22.7710  -29.4570   22.5640 C   0  0  0  0  0  0  0  0  0  0  0  0
  -21.4420  -29.2900   22.4340 N   0  0  0  0  0  0  0  0  0  0  0  0
  -23.4380  -28.8280   23.3900 O   0  0  0  0  0  0  0  0  0  0  0  0
  -20.9590  -29.8500   21.7460 H   0  0  0  0  0  0  0  0  0  0  0  0
  -18.0570  -28.0920   22.9370 C   0  0  0  0  0  0  0  0  0  0  0  0
  -20.6170  -28.3510   23.2010 C   0  0  0  0  0  3  0  0  0  0  0  0
  -20.7150  -26.9210   22.6200 C   0  0  0  0  0  2  0  0  0  0  0  0
  -19.6110  -26.6060   21.6050 C   0  0  0  0  0  2  0  0  0  0  0  0
  -18.2310  -26.7470   22.2510 C   0  0  0  0  0  2  0  0  0  0  0  0
  -19.1760  -28.8520   23.3690 C   0  0  0  0  0  0  0  0  0  0  0  0
  -18.9580  -30.1080   23.9730 C   0  0  0  0  0  3  0  0  0  0  0  0
  -17.6520  -30.6060   24.1470 C   0  0  0  0  0  3  0  0  0  0  0  0
  -16.5470  -29.8440   23.7290 C   0  0  0  0  0  3  0  0  0  0  0  0
  -16.7510  -28.5890   23.1300 C   0  0  0  0  0  3  0  0  0  0  0  0
  -25.8920  -32.5200   23.8940 C   0  0  0  0  0  3  0  0  0  0  0  0
  -25.5690  -33.9240   24.2030 N   0  0  0  0  0  0  0  0  0  0  0  0
  -25.9100  -34.9720   23.4420 C   0  0  0  0  0  0  0  0  0  0  0  0
  -26.5920  -34.8610   22.4210 O   0  0  0  0  0  0  0  0  0  0  0  0
  -24.9640  -34.0830   24.9940 H   0  0  0  0  0  0  0  0  0  0  0  0
  -24.1870  -36.7670   23.0540 C   0  0  0  0  0  1  0  0  0  0  0  0
  -25.4180  -36.3660   23.8830 C   0  0  0  0  0  3  0  0  0  0  0  0
  -27.5400  -37.2620   24.7370 C   0  0  0  0  0  1  0  0  0  0  0  0
  -26.4520  -37.4190   23.7740 N   0  0  0  0  0  0  0  0  0  0  0  0
  -26.0440  -38.3400   23.9040 H   0  0  0  0  0  0  0  0  0  0  0  0
  -26.3780  -31.7710   25.1970 C   0  0  1  0  0  0  0  0  0  0  0  0
  -25.2620  -31.5550   26.2440 C   0  0  0  0  0  1  0  0  0  0  0  0
  -26.9700  -30.3870   24.8500 C   0  0  0  0  0  1  0  0  0  0  0  0
  -27.5140  -32.5780   25.8700 C   0  0  0  0  0  1  0  0  0  0  0  0
  1  6  1  0
  1 46  1  0
  2  1  2  0
  3  6  2  0
  3  5  1  0
  4  7  1  0
  5  4  2  0
  6  7  1  0
  9 14  1  0
 10 11  1  0
 10  9  1  0
 12 11  1  0
 12 21  1  0
 12 13  1  0
 14  8  1  0
 14 13  1  0
 15  8  2  0
 16  8  1  0
 16  5  1  0
 17 16  1  0
 18 19  2  0
 19 38  1  0
 20 19  1  0
 20 23  1  0
 21 18  1  0
 21 22  1  0
 22 20  2  0
 23 24  1  0
 24 25  2  0
 26 29  1  0
 26 25  1  0
 27 26  2  0
 28 27  1  0
 28 23  2  0
 29 30  1  0
 30 31  1  0
 31 32  2  0
 33 32  1  0
 33 37  1  0
 34 33  2  0
 35 30  2  0
 35 34  1  0
 36 35  1  0
 38 39  1  0
 39 42  1  0
 39 41  1  0
 40 38  2  0
 43 44  1  0
 43 18  1  0
 45 43  1  0
 46 47  2  0
 48 50  1  0
 48 47  1  0
 49 60  2  0
 50 55  1  0
 51 59  1  0
 51 61  1  0
 52 58  1  0
 52 54  1  0
 53 59  1  0
 54 55  2  0
 54 53  1  0
 56 50  2  0
 57 56  1  0
 57 52  2  0
 58 51  1  0
 59 49  1  0
 61 63  2  0
 62 61  1  0
 64 62  1  0
 65 74  2  0
 65 70  1  0
 66 62  1  0
 66 70  1  0
 67 66  1  0
 68 69  1  0
 68 67  1  0
 69 65  1  0
 70 71  2  0
 71 72  1  0
 73 72  2  0
 74 73  1  0
 75 49  1  0
 75 76  1  0
 75 85  1  0
 76 79  1  0
 77 81  1  0
 77 76  1  0
 78 77  2  0
 81 80  1  0
 83 81  1  0
 83 84  1  0
 83 82  1  0
 85 88  1  1
 85 86  1  0
 87 85  1  0
M  ISO  4   8 100  16 100  47 101  48 101
M  END
>  <TORSDO>  (79) 
F 18

>  <SCORE>  (79) 
-14.579

>  <name>  (79) 
78

>  <ligand_id>  (79) 
78

>  <original_smiles>  (79) 
[H]C(Oc1c([H])c([H])c2c(c1[H])C([H])([H])N(C(=O)C([H])(N([H])C(=O)C([H])(N([H])C([H])([H])[H])C([H])([H])[H])C(C([H])([H])[H])(C([H])([H])[H])C([H])([H])[H])C([H])(C(=O)N([H])C1([H])c3c([H])c([H])c([H])c([H])c3C([H])([H])C([H])([H])C1([H])[H])C2([H])[H])=C([H])C(=O)c1sc([H])c(N([H])C(=O)N2C([H])([H])C([H])([H])C([H])([H])C([H])(n3nc(-c4c([H])c([H])c(Oc5c([H])c([H])c(F)c([H])c5F)c([H])c4[H])c(C(=O)N([H])[H])c3N([H])[H])C2([H])[H])c1[H]

>  <smiles>  (79) 
[H]C(Oc1c([H])c([H])c2c(c1[H])C([H])([H])N(C(=O)C([H])(N([H])C(=O)C([H])(N([H])C([H])([H])[H])C([H])([H])[H])C(C([H])([H])[H])(C([H])([H])[H])C([H])([H])[H])C([H])(C(=O)N([H])C1([H])c3c([H])c([H])c([H])c([H])c3C([H])([H])C([H])([H])C1([H])[H])C2([H])[H])=C([H])C(=O)c1sc([H])c(N([H])C(=O)N2C([H])([H])C([H])([H])C([H])([H])C([H])(n3nc(-c4c([H])c([H])c(Oc5c([H])c([H])c(F)c([H])c5F)c([H])c4[H])c(C(=O)N([H])[H])c3N([H])[H])C2([H])[H])c1[H]

$$$$
79:0:0
     RDKit          3D

 98107  0  0  1  0  0  0  0  0999 V2000
  -28.7230  -24.5060   19.5850 C   0  0  0  0  0  0  0  0  0  0  0  0
  -29.0330  -23.2250   19.1270 C   0  0  0  0  0  0  0  0  0  0  0  0
  -27.3070  -22.5630   21.7170 C   0  0  0  0  0  0  0  0  0  0  0  0
  -28.3080  -24.7890   21.0340 C   0  0  0  0  0  2  0  0  0  0  0  0
  -27.0600  -24.0520   21.5400 C   0  0  0  0  0  2  0  0  0  0  0  0
  -27.5190  -21.7610   20.4460 C   0  0  0  0  0  2  0  0  0  0  0  0
  -29.5440  -23.0430   17.7050 C   0  0  0  0  0  1  0  0  0  0  0  0
  -28.8340  -21.9830   19.8300 N   0  0  0  0  0  0  0  0  0  0  0  0
  -27.3350  -22.0370   22.8320 O   0  0  0  0  0  0  0  0  0  0  0  0
  -30.4900  -20.2150   20.4450 C   0  0  0  0  0  3  0  0  0  0  0  0
  -28.7390  -19.6360   18.9160 C   0  0  0  0  0  3  0  0  0  0  0  0
  -30.8690  -18.8350   20.5620 C   0  0  0  0  0  0  0  0  0  0  0  0
  -29.4020  -20.6630   19.6450 C   0  0  0  0  0  0  0  0  0  0  0  0
  -30.1450  -17.8120   19.8750 C   0  0  0  0  0  0  0  0  0  0  0  0
  -29.0890  -18.2570   19.0350 C   0  0  0  0  0  0  0  0  0  0  0  0
  -28.3340  -17.3310   18.3940 F   0  0  0  0  0  0  0  0  0  0  0  0
  -31.0700  -15.3800   19.8140 C   0  0  0  0  0  0  0  0  0  0  0  0
  -30.9610  -13.0450   18.9450 C   0  0  0  0  0  2  0  0  0  0  0  0
  -29.9550  -13.0210   17.7710 C   0  0  0  0  0  2  0  0  0  0  0  0
  -28.5140  -12.8200   18.2860 C   0  0  0  0  0  2  0  0  0  0  0  0
  -28.1670  -13.7660   19.4650 C   0  0  0  0  0  3  0  0  0  0  0  0
  -29.2800  -13.7470   20.5370 C   0  0  0  0  0  2  0  0  0  0  0  0
  -30.5410  -14.1140   19.8720 N   0  0  0  0  0  0  0  0  0  0  0  0
  -32.1890  -15.5840   19.3330 O   0  0  0  0  0  0  0  0  0  0  0  0
  -30.2330  -16.3890   20.2170 N   0  0  0  0  0  0  0  0  0  0  0  0
  -29.3710  -16.0170   20.5860 H   0  0  0  0  0  0  0  0  0  0  0  0
  -25.8410  -14.3400   20.3890 C   0  0  0  0  0  0  0  0  0  0  0  0
  -24.7990  -13.5550   20.8020 C   0  0  0  0  0  0  0  0  0  0  0  0
  -25.2450  -12.2040   20.6660 C   0  0  0  0  0  0  0  0  0  0  0  0
  -26.8570  -13.4680   20.0330 N   0  0  0  0  0  0  0  0  0  0  0  0
  -26.5070  -12.1740   20.2580 N   0  0  0  0  0  0  0  0  0  0  0  0
  -24.5240  -10.9370   20.8460 C   0  0  0  0  0  0  0  0  0  0  0  0
  -24.9160   -9.9960   21.8220 C   0  0  0  0  0  3  0  0  0  0  0  0
  -24.1960   -8.7930   21.9890 C   0  0  0  0  0  3  0  0  0  0  0  0
  -23.0700   -8.5230   21.1760 C   0  0  0  0  0  0  0  0  0  0  0  0
  -22.6960   -9.4530   20.1890 C   0  0  0  0  0  3  0  0  0  0  0  0
  -23.4170  -10.6470   20.0220 C   0  0  0  0  0  3  0  0  0  0  0  0
  -22.3270   -7.3700   21.2480 O   0  0  0  0  0  0  0  0  0  0  0  0
  -22.0740   -6.7500   22.4440 C   0  0  0  0  0  0  0  0  0  0  0  0
  -21.3950   -7.4060   23.4950 C   0  0  0  0  0  3  0  0  0  0  0  0
  -21.0940   -6.7090   24.6820 C   0  0  0  0  0  3  0  0  0  0  0  0
  -21.4640   -5.3570   24.8200 C   0  0  0  0  0  0  0  0  0  0  0  0
  -22.1360   -4.7010   23.7730 C   0  0  0  0  0  3  0  0  0  0  0  0
  -22.4370   -5.3960   22.5880 C   0  0  0  0  0  0  0  0  0  0  0  0
  -23.0670   -4.7530   21.5750 F   0  0  0  0  0  0  0  0  0  0  0  0
  -21.1690   -4.6850   25.9570 F   0  0  0  0  0  0  0  0  0  0  0  0
  -23.4300  -14.0240   21.2030 C   0  0  0  0  0  0  0  0  0  0  0  0
  -22.7720  -13.3010   22.1020 N   0  0  0  0  0  0  0  0  0  0  0  0
  -22.9550  -15.0660   20.7540 O   0  0  0  0  0  0  0  0  0  0  0  0
  -23.1700  -12.4570   22.4880 H   0  0  0  0  0  0  0  0  0  0  0  0
  -21.8580  -13.5970   22.4130 H   0  0  0  0  0  0  0  0  0  0  0  0
  -26.0020  -15.7170   20.2670 N   0  0  0  0  0  0  0  0  0  0  0  0
  -25.2330  -16.3580   20.4310 H   0  0  0  0  0  0  0  0  0  0  0  0
  -26.8020  -16.1640   19.8370 H   0  0  0  0  0  0  0  0  0  0  0  0
  -33.2040  -19.4080   21.4510 C   0  0  0  0  0  1  0  0  0  0  0  0
  -31.9930  -18.4670   21.5270 C   0  0  0  0  0  2  0  0  0  0  0  0
  -28.8420  -25.8220   18.7050 C   0  0  0  0  0  2  0  0  0  0  0  0
  -28.6820  -27.1720   19.3140 O   0  0  0  0  0  0  0  0  0  0  0  0
  -24.5840  -31.7740   23.0590 C   0  0  0  0  0  0  0  0  0  0  0  0
  -27.4630  -27.8670   19.3870 C   0  0  0  0  0  0  0  0  0  0  0  0
  -23.4380  -30.4720   21.3010 C   0  0  0  0  0  3  0  0  0  0  0  0
  -24.9590  -29.2340   19.6530 C   0  0  0  0  0  0  0  0  0  0  0  0
  -25.9290  -31.0420   21.0780 C   0  0  0  0  0  2  0  0  0  0  0  0
  -26.1020  -29.7630   20.2640 C   0  0  0  0  0  0  0  0  0  0  0  0
  -27.3510  -29.0900   20.1240 C   0  0  0  0  0  3  0  0  0  0  0  0
  -26.2850  -27.3780   18.7780 C   0  0  0  0  0  3  0  0  0  0  0  0
  -25.0520  -28.0480   18.9080 C   0  0  0  0  0  3  0  0  0  0  0  0
  -23.6510  -29.9760   19.8460 C   0  0  0  0  0  2  0  0  0  0  0  0
  -24.6690  -31.1100   21.8700 N   0  0  0  0  0  0  0  0  0  0  0  0
  -23.5050  -31.8880   23.6580 O   0  0  0  0  0  0  0  0  0  0  0  0
  -22.9080  -29.2970   22.1550 C   0  0  0  0  0  0  0  0  0  0  0  0
  -21.6090  -28.9810   22.0080 N   0  0  0  0  0  0  0  0  0  0  0  0
  -23.6630  -28.6750   22.9060 O   0  0  0  0  0  0  0  0  0  0  0  0
  -21.0550  -29.5400   21.3740 H   0  0  0  0  0  0  0  0  0  0  0  0
  -18.4100  -27.3310   22.3440 C   0  0  0  0  0  0  0  0  0  0  0  0
  -20.9130  -27.8840   22.6800 C   0  0  0  0  0  3  0  0  0  0  0  0
  -21.1990  -26.5350   21.9820 C   0  0  0  0  0  2  0  0  0  0  0  0
  -20.1530  -26.1700   20.9250 C   0  0  0  0  0  2  0  0  0  0  0  0
  -18.7600  -26.0820   21.5540 C   0  0  0  0  0  2  0  0  0  0  0  0
  -19.4210  -28.1860   22.8590 C   0  0  0  0  0  0  0  0  0  0  0  0
  -19.0410  -29.3540   23.5550 C   0  0  0  0  0  3  0  0  0  0  0  0
  -17.6820  -29.6700   23.7430 C   0  0  0  0  0  3  0  0  0  0  0  0
  -16.6860  -28.8130   23.2450 C   0  0  0  0  0  3  0  0  0  0  0  0
  -17.0510  -27.6450   22.5500 C   0  0  0  0  0  3  0  0  0  0  0  0
  -25.8340  -32.4430   23.7120 C   0  0  0  0  0  3  0  0  0  0  0  0
  -26.4080  -31.6290   24.9360 C   0  0  1  0  0  0  0  0  0  0  0  0
  -25.3380  -31.2590   25.9900 C   0  0  0  0  0  1  0  0  0  0  0  0
  -27.0730  -30.3160   24.4590 C   0  0  0  0  0  1  0  0  0  0  0  0
  -27.5080  -32.4530   25.6440 C   0  0  0  0  0  1  0  0  0  0  0  0
  -25.4440  -33.7970   24.1310 N   0  0  0  0  0  0  0  0  0  0  0  0
  -25.7050  -34.9140   23.4400 C   0  0  0  0  0  0  0  0  0  0  0  0
  -26.3700  -34.9180   22.4010 O   0  0  0  0  0  0  0  0  0  0  0  0
  -24.8500  -33.8630   24.9430 H   0  0  0  0  0  0  0  0  0  0  0  0
  -23.8630  -36.6140   23.2200 C   0  0  0  0  0  1  0  0  0  0  0  0
  -25.1390  -36.2390   23.9890 C   0  0  0  0  0  3  0  0  0  0  0  0
  -27.2230  -37.2080   24.8570 C   0  0  0  0  0  1  0  0  0  0  0  0
  -26.1030  -37.3600   23.9320 N   0  0  0  0  0  0  0  0  0  0  0  0
  -25.6410  -38.2410   24.1370 H   0  0  0  0  0  0  0  0  0  0  0  0
  1  4  1  0
  2  1  2  0
  2  8  1  0
  3  9  2  0
  4  5  1  0
  5  3  1  0
  6  3  1  0
  7  2  1  0
  8  6  1  0
 10 12  1  0
 11 15  2  0
 11 13  1  0
 12 56  1  0
 13  8  1  0
 13 10  2  0
 14 25  1  0
 14 12  2  0
 15 14  1  0
 16 15  1  0
 17 23  1  0
 17 25  1  0
 18 23  1  0
 19 20  1  0
 19 18  1  0
 21 20  1  0
 21 30  1  0
 21 22  1  0
 23 22  1  0
 24 17  2  0
 25 26  1  0
 27 28  2  0
 28 47  1  0
 29 28  1  0
 29 32  1  0
 30 31  1  0
 30 27  1  0
 31 29  2  0
 32 33  1  0
 33 34  2  0
 35 38  1  0
 35 34  1  0
 36 35  2  0
 37 36  1  0
 37 32  2  0
 38 39  1  0
 39 44  2  0
 39 40  1  0
 40 41  2  0
 41 42  1  0
 42 46  1  0
 43 42  2  0
 44 43  1  0
 45 44  1  0
 47 48  1  0
 48 51  1  0
 48 50  1  0
 49 47  2  0
 52 27  1  0
 52 53  1  0
 54 52  1  0
 55 56  1  0
 57 58  1  0
 57  1  1  0
 58 60  1  0
 59 70  2  0
 60 65  1  0
 61 69  1  0
 61 71  1  0
 62 68  1  0
 62 64  1  0
 63 69  1  0
 64 63  1  0
 65 64  2  0
 66 67  1  0
 66 60  2  0
 67 62  2  0
 68 61  1  0
 69 59  1  0
 71 73  2  0
 72 71  1  0
 74 72  1  0
 75 84  2  0
 75 80  1  0
 76 72  1  0
 76 80  1  0
 77 76  1  0
 78 79  1  0
 78 77  1  0
 79 75  1  0
 80 81  2  0
 81 82  1  0
 83 82  2  0
 84 83  1  0
 85 59  1  0
 85 90  1  0
 85 86  1  0
 86 89  1  1
 86 87  1  0
 88 86  1  0
 90 93  1  0
 91 95  1  0
 91 90  1  0
 92 91  2  0
 95 94  1  0
 97 95  1  0
 97 98  1  0
 97 96  1  0
M  ISO  4  17 100  25 100  57 101  58 101
M  END
>  <TORSDO>  (80) 
F 19

>  <SCORE>  (80) 
-10.736

>  <name>  (80) 
79

>  <ligand_id>  (80) 
79

>  <original_smiles>  (80) 
[H]c1c([H])c([H])c2c(c1[H])C([H])([H])C([H])([H])C([H])([H])C2([H])N([H])C(=O)C1([H])N(C(=O)C([H])(N([H])C(=O)C([H])(N([H])C([H])([H])[H])C([H])([H])[H])C(C([H])([H])[H])(C([H])([H])[H])C([H])([H])[H])C([H])([H])c2c([H])c(OC([H])([H])C3=C(C([H])([H])[H])N(c4c([H])c(F)c(N([H])C(=O)N5C([H])([H])C([H])([H])C([H])([H])C([H])(n6nc(-c7c([H])c([H])c(Oc8c([H])c([H])c(F)c([H])c8F)c([H])c7[H])c(C(=O)N([H])[H])c6N([H])[H])C5([H])[H])c(C([H])([H])C([H])([H])[H])c4[H])C([H])([H])C(=O)C([H])([H])C3([H])[H])c([H])c([H])c2C1([H])[H]

>  <smiles>  (80) 
[H]c1c([H])c([H])c2c(c1[H])C([H])([H])C([H])([H])C([H])([H])C2([H])N([H])C(=O)C1([H])N(C(=O)C([H])(N([H])C(=O)C([H])(N([H])C([H])([H])[H])C([H])([H])[H])C(C([H])([H])[H])(C([H])([H])[H])C([H])([H])[H])C([H])([H])c2c([H])c(OC([H])([H])C3=C(C([H])([H])[H])N(c4c([H])c(F)c(N([H])C(=O)N5C([H])([H])C([H])([H])C([H])([H])C([H])(n6nc(-c7c([H])c([H])c(Oc8c([H])c([H])c(F)c([H])c8F)c([H])c7[H])c(C(=O)N([H])[H])c6N([H])[H])C5([H])[H])c(C([H])([H])C([H])([H])[H])c4[H])C([H])([H])C(=O)C([H])([H])C3([H])[H])c([H])c([H])c2C1([H])[H]

$$$$
80:0:0
     RDKit          3D

 97106  0  0  1  0  0  0  0  0999 V2000
  -28.8060  -19.6460   19.2720 C   0  0  0  0  0  3  0  0  0  0  0  0
  -29.9710  -18.8210   21.2250 C   0  0  0  0  0  3  0  0  0  0  0  0
  -29.1500  -17.2340   19.5630 C   0  0  0  0  0  3  0  0  0  0  0  0
  -29.4710  -19.9790   20.4710 C   0  0  0  0  0  0  0  0  0  0  0  0
  -28.6170  -18.3180   18.8390 C   0  0  0  0  0  0  0  0  0  0  0  0
  -29.8380  -17.4240   20.7810 C   0  0  0  0  0  0  0  0  0  0  0  0
  -30.9820  -15.1010   21.1870 C   0  0  0  0  0  0  0  0  0  0  0  0
  -31.0230  -12.7850   20.2380 C   0  0  0  0  0  2  0  0  0  0  0  0
  -30.1850  -12.7720   18.9390 C   0  0  0  0  0  2  0  0  0  0  0  0
  -28.7000  -12.5120   19.2510 C   0  0  0  0  0  2  0  0  0  0  0  0
  -28.1780  -13.3900   20.4190 C   0  0  0  0  0  3  0  0  0  0  0  0
  -29.1450  -13.3820   21.6240 C   0  0  0  0  0  2  0  0  0  0  0  0
  -30.4590  -13.8220   21.1390 N   0  0  0  0  0  0  0  0  0  0  0  0
  -32.1540  -15.2840   20.8420 O   0  0  0  0  0  0  0  0  0  0  0  0
  -30.1650  -16.1780   21.5360 N   0  0  0  0  0  0  0  0  0  0  0  0
  -29.4020  -15.8810   22.1290 H   0  0  0  0  0  0  0  0  0  0  0  0
  -25.7270  -13.8630   20.9970 C   0  0  0  0  0  0  0  0  0  0  0  0
  -24.6680  -13.0360   21.2610 C   0  0  0  0  0  0  0  0  0  0  0  0
  -25.1830  -11.7050   21.2050 C   0  0  0  0  0  0  0  0  0  0  0  0
  -26.8160  -13.0310   20.8000 N   0  0  0  0  0  0  0  0  0  0  0  0
  -26.4920  -11.7250   20.9860 N   0  0  0  0  0  0  0  0  0  0  0  0
  -24.4910  -10.4110   21.2910 C   0  0  0  0  0  0  0  0  0  0  0  0
  -24.8480   -9.4480   22.2590 C   0  0  0  0  0  3  0  0  0  0  0  0
  -24.1560   -8.2200   22.3370 C   0  0  0  0  0  3  0  0  0  0  0  0
  -23.0940   -7.9460   21.4430 C   0  0  0  0  0  0  0  0  0  0  0  0
  -22.7580   -8.9000   20.4670 C   0  0  0  0  0  3  0  0  0  0  0  0
  -23.4510  -10.1200   20.3880 C   0  0  0  0  0  3  0  0  0  0  0  0
  -22.3830   -6.7700   21.4270 O   0  0  0  0  0  0  0  0  0  0  0  0
  -22.1380   -6.0620   22.5750 C   0  0  0  0  0  0  0  0  0  0  0  0
  -21.4170   -6.6190   23.6530 C   0  0  0  0  0  3  0  0  0  0  0  0
  -21.1250   -5.8330   24.7860 C   0  0  0  0  0  3  0  0  0  0  0  0
  -21.5420   -4.4900   24.8390 C   0  0  0  0  0  0  0  0  0  0  0  0
  -22.2560   -3.9310   23.7630 C   0  0  0  0  0  3  0  0  0  0  0  0
  -22.5490   -4.7140   22.6330 C   0  0  0  0  0  0  0  0  0  0  0  0
  -23.2170   -4.1650   21.5910 F   0  0  0  0  0  0  0  0  0  0  0  0
  -21.2560   -3.7310   25.9230 F   0  0  0  0  0  0  0  0  0  0  0  0
  -23.2390  -13.4530   21.4540 C   0  0  0  0  0  0  0  0  0  0  0  0
  -22.4820  -12.6990   22.2420 N   0  0  0  0  0  0  0  0  0  0  0  0
  -22.8000  -14.4830   20.9440 O   0  0  0  0  0  0  0  0  0  0  0  0
  -22.8510  -11.8670   22.6790 H   0  0  0  0  0  0  0  0  0  0  0  0
  -21.5200  -12.9580   22.4080 H   0  0  0  0  0  0  0  0  0  0  0  0
  -25.8500  -15.2450   20.8850 N   0  0  0  0  0  0  0  0  0  0  0  0
  -25.0510  -15.8630   20.9830 H   0  0  0  0  0  0  0  0  0  0  0  0
  -26.7010  -15.7320   20.6370 H   0  0  0  0  0  0  0  0  0  0  0  0
  -29.5870  -21.5160   20.7660 C   0  0  0  0  0  3  0  0  0  0  0  0
  -28.6340  -22.5400   20.6710 C   0  0  0  0  0  0  0  0  0  0  0  0
  -27.1650  -22.2020   20.4480 C   0  0  0  0  0  1  0  0  0  0  0  0
  -28.8090  -24.0340   20.7480 C   0  0  0  0  0  0  0  0  0  0  0  0
  -28.7340  -25.2850   20.6980 C   0  0  0  0  0  0  0  0  0  0  0  0
  -28.7440  -26.6480   20.5430 O   0  0  0  0  0  0  0  0  0  0  0  0
  -24.8140  -32.0450   23.4610 C   0  0  0  0  0  0  0  0  0  0  0  0
  -27.5950  -27.4750   20.5060 C   0  0  0  0  0  0  0  0  0  0  0  0
  -23.6910  -30.6330   21.7770 C   0  0  0  0  0  3  0  0  0  0  0  0
  -25.2130  -29.0910   20.4040 C   0  0  0  0  0  0  0  0  0  0  0  0
  -26.2320  -30.9710   21.6860 C   0  0  0  0  0  2  0  0  0  0  0  0
  -26.3520  -29.5850   21.0500 C   0  0  0  0  0  0  0  0  0  0  0  0
  -27.5410  -28.7870   21.0950 C   0  0  0  0  0  3  0  0  0  0  0  0
  -26.4340  -27.0520   19.8220 C   0  0  0  0  0  3  0  0  0  0  0  0
  -25.2570  -27.8310   19.7830 C   0  0  0  0  0  3  0  0  0  0  0  0
  -23.9650  -29.9560   20.4060 C   0  0  0  0  0  2  0  0  0  0  0  0
  -24.9300  -31.2370   22.3650 N   0  0  0  0  0  0  0  0  0  0  0  0
  -23.7080  -32.3080   23.9560 O   0  0  0  0  0  0  0  0  0  0  0  0
  -23.0050  -29.6100   22.7150 C   0  0  0  0  0  0  0  0  0  0  0  0
  -21.6980  -29.3760   22.5060 N   0  0  0  0  0  0  0  0  0  0  0  0
  -23.6540  -29.0260   23.5870 O   0  0  0  0  0  0  0  0  0  0  0  0
  -21.2340  -29.9020   21.7790 H   0  0  0  0  0  0  0  0  0  0  0  0
  -18.3370  -28.0790   22.8420 C   0  0  0  0  0  0  0  0  0  0  0  0
  -20.8690  -28.4180   23.2400 C   0  0  0  0  0  3  0  0  0  0  0  0
  -21.0420  -26.9870   22.6770 C   0  0  0  0  0  2  0  0  0  0  0  0
  -20.0030  -26.6290   21.6090 C   0  0  0  0  0  2  0  0  0  0  0  0
  -18.5870  -26.7340   22.1820 C   0  0  0  0  0  2  0  0  0  0  0  0
  -19.4090  -28.8770   23.3240 C   0  0  0  0  0  0  0  0  0  0  0  0
  -19.1220  -30.1340   23.9000 C   0  0  0  0  0  3  0  0  0  0  0  0
  -17.7950  -30.5960   23.9980 C   0  0  0  0  0  3  0  0  0  0  0  0
  -16.7380  -29.7970   23.5310 C   0  0  0  0  0  3  0  0  0  0  0  0
  -17.0080  -28.5400   22.9600 C   0  0  0  0  0  3  0  0  0  0  0  0
  -26.0640  -32.6950   24.1330 C   0  0  0  0  0  3  0  0  0  0  0  0
  -26.5160  -31.9520   25.4500 C   0  0  1  0  0  0  0  0  0  0  0  0
  -25.3620  -31.6980   26.4490 C   0  0  0  0  0  1  0  0  0  0  0  0
  -27.1580  -30.5860   25.1150 C   0  0  0  0  0  1  0  0  0  0  0  0
  -27.6030  -32.7830   26.1740 C   0  0  0  0  0  1  0  0  0  0  0  0
  -25.7370  -34.0990   24.4190 N   0  0  0  0  0  0  0  0  0  0  0  0
  -26.0600  -35.1330   23.6290 C   0  0  0  0  0  0  0  0  0  0  0  0
  -26.7320  -35.0040   22.6030 O   0  0  0  0  0  0  0  0  0  0  0  0
  -25.1380  -34.2710   25.2130 H   0  0  0  0  0  0  0  0  0  0  0  0
  -24.2950  -36.8850   23.2430 C   0  0  0  0  0  1  0  0  0  0  0  0
  -25.5580  -36.5300   24.0440 C   0  0  0  0  0  3  0  0  0  0  0  0
  -27.6860  -37.4880   24.8080 C   0  0  0  0  0  1  0  0  0  0  0  0
  -26.5710  -37.5950   23.8710 N   0  0  0  0  0  0  0  0  0  0  0  0
  -26.1510  -38.5140   23.9800 H   0  0  0  0  0  0  0  0  0  0  0  0
  -27.7690  -18.0590   17.6020 C   0  0  0  0  0  2  0  0  0  0  0  0
  -26.5230  -19.7990   16.2980 C   0  0  0  0  0  0  0  0  0  0  0  0
  -25.4310  -20.8310   16.5140 C   0  0  0  0  0  2  0  0  0  0  0  0
  -25.1070  -20.7150   18.0080 C   0  0  0  0  0  3  0  0  0  0  0  0
  -25.9050  -19.5090   18.5250 C   0  0  0  0  0  3  0  0  0  0  0  0
  -26.7420  -19.0880   17.4090 N   0  0  0  0  0  0  0  0  0  0  0  0
  -27.1170  -19.6740   15.2240 O   0  0  0  0  0  0  0  0  0  0  0  0
  1  4  1  0
  3  6  2  0
  4 45  1  0
  4  2  2  0
  5  1  2  0
  5  3  1  0
  6  2  1  0
  6 15  1  0
  7 15  1  0
  8 13  1  0
  9 10  1  0
  9  8  1  0
 11 10  1  0
 11 20  1  0
 11 12  1  0
 13  7  1  0
 13 12  1  0
 14  7  2  0
 15 16  1  0
 17 18  2  0
 18 37  1  0
 19 18  1  0
 19 22  1  0
 20 21  1  0
 20 17  1  0
 21 19  2  0
 22 23  1  0
 23 24  2  0
 25 24  1  0
 26 25  2  0
 27 26  1  0
 27 22  2  0
 28 25  1  0
 28 29  1  0
 29 34  2  0
 29 30  1  0
 30 31  2  0
 31 32  1  0
 32 36  1  0
 33 32  2  0
 34 33  1  0
 35 34  1  0
 37 38  1  0
 38 41  1  0
 38 40  1  0
 39 37  2  0
 42 43  1  0
 42 17  1  0
 44 42  1  0
 46 48  1  0
 46 45  2  0
 47 46  1  0
 49 48  3  0
 50 49  1  0
 51 62  2  0
 52 50  1  0
 52 57  1  0
 53 61  1  0
 53 63  1  0
 54 60  1  0
 54 56  1  0
 55 61  1  0
 56 57  2  0
 56 55  1  0
 58 52  2  0
 59 58  1  0
 59 54  2  0
 60 53  1  0
 61 51  1  0
 63 65  2  0
 64 63  1  0
 66 64  1  0
 67 76  2  0
 67 72  1  0
 68 64  1  0
 68 72  1  0
 69 68  1  0
 70 71  1  0
 70 69  1  0
 71 67  1  0
 72 73  2  0
 73 74  1  0
 75 74  2  0
 76 75  1  0
 77 51  1  0
 77 82  1  0
 77 78  1  0
 78 81  1  1
 78 79  1  0
 80 78  1  0
 82 85  1  0
 83 87  1  0
 83 82  1  0
 84 83  2  0
 87 86  1  0
 89 90  1  0
 89 87  1  0
 89 88  1  0
 91  5  1  0
 92 93  1  0
 92 96  1  0
 93 94  1  0
 94 95  2  0
 96 91  1  0
 96 95  1  0
 97 92  2  0
M  ISO  4   7 100  15 100  49 101  50 101
M  END
>  <TORSDO>  (81) 
F 20

>  <SCORE>  (81) 
-9.520

>  <name>  (81) 
80

>  <ligand_id>  (81) 
80

>  <original_smiles>  (81) 
[H]C(=C(C#COc1c([H])c([H])c2c(c1[H])C([H])([H])N(C(=O)C([H])(N([H])C(=O)C([H])(N([H])C([H])([H])[H])C([H])([H])[H])C(C([H])([H])[H])(C([H])([H])[H])C([H])([H])[H])C([H])(C(=O)N([H])C1([H])c3c([H])c([H])c([H])c([H])c3C([H])([H])C([H])([H])C1([H])[H])C2([H])[H])C([H])([H])[H])c1c([H])c(N([H])C(=O)N2C([H])([H])C([H])([H])C([H])([H])C([H])(n3nc(-c4c([H])c([H])c(Oc5c([H])c([H])c(F)c([H])c5F)c([H])c4[H])c(C(=O)N([H])[H])c3N([H])[H])C2([H])[H])c([H])c(C([H])([H])N2C(=O)C([H])([H])C([H])([H])C2([H])[H])c1[H]

>  <smiles>  (81) 
[H]C(=C(C#COc1c([H])c([H])c2c(c1[H])C([H])([H])N(C(=O)C([H])(N([H])C(=O)C([H])(N([H])C([H])([H])[H])C([H])([H])[H])C(C([H])([H])[H])(C([H])([H])[H])C([H])([H])[H])C([H])(C(=O)N([H])C1([H])c3c([H])c([H])c([H])c([H])c3C([H])([H])C([H])([H])C1([H])[H])C2([H])[H])C([H])([H])[H])c1c([H])c(N([H])C(=O)N2C([H])([H])C([H])([H])C([H])([H])C([H])(n3nc(-c4c([H])c([H])c(Oc5c([H])c([H])c(F)c([H])c5F)c([H])c4[H])c(C(=O)N([H])[H])c3N([H])[H])C2([H])[H])c([H])c(C([H])([H])N2C(=O)C([H])([H])C([H])([H])C2([H])[H])c1[H]

$$$$
81:0:0
     RDKit          3D

 90 98  0  0  1  0  0  0  0  0999 V2000
  -30.5920  -18.9300   19.1340 C   0  0  0  0  0  3  0  0  0  0  0  0
  -29.9170  -20.1230   19.6560 C   0  0  0  0  0  0  0  0  0  0  0  0
  -30.4450  -17.7300   19.8440 C   0  0  0  0  0  0  0  0  0  0  0  0
  -29.2310  -19.7680   20.8100 C   0  0  0  0  0  0  0  0  0  0  0  0
  -28.3260  -20.5780   21.6910 C   0  0  0  0  0  1  0  0  0  0  0  0
  -29.4980  -18.0730   21.2580 S   0  0  0  0  0  0  0  0  0  0  0  0
  -30.6750  -16.3040   19.3990 C   0  0  0  0  0  0  0  0  0  0  0  0
  -30.2880  -16.0260   18.2240 N   0  0  0  0  0  0  0  0  0  0  0  0
  -29.8610  -16.8230   17.7700 H   0  0  0  0  0  0  0  0  0  0  0  0
  -31.4650  -15.1860   20.2150 C   0  0  0  0  0  0  0  0  0  0  0  0
  -31.3430  -12.7670   19.6340 C   0  0  0  0  0  2  0  0  0  0  0  0
  -30.4880  -12.5980   18.3600 C   0  0  0  0  0  2  0  0  0  0  0  0
  -29.0000  -12.4460   18.7240 C   0  0  0  0  0  2  0  0  0  0  0  0
  -28.5190  -13.5340   19.7200 C   0  0  0  0  0  3  0  0  0  0  0  0
  -29.5030  -13.7250   20.8930 C   0  0  0  0  0  2  0  0  0  0  0  0
  -30.8430  -13.9630   20.3390 N   0  0  0  0  0  0  0  0  0  0  0  0
  -32.6960  -15.2580   20.1870 O   0  0  0  0  0  0  0  0  0  0  0  0
  -26.1550  -14.2320   20.4080 C   0  0  0  0  0  0  0  0  0  0  0  0
  -25.0410  -13.5030   20.7260 C   0  0  0  0  0  0  0  0  0  0  0  0
  -25.4350  -12.1310   20.6660 C   0  0  0  0  0  0  0  0  0  0  0  0
  -27.1560  -13.3030   20.1760 N   0  0  0  0  0  0  0  0  0  0  0  0
  -26.7300  -12.0350   20.3990 N   0  0  0  0  0  0  0  0  0  0  0  0
  -24.6440  -10.9020   20.7920 C   0  0  0  0  0  0  0  0  0  0  0  0
  -24.9700   -9.9130   21.7460 C   0  0  0  0  0  3  0  0  0  0  0  0
  -24.1820   -8.7490   21.8670 C   0  0  0  0  0  3  0  0  0  0  0  0
  -23.0550   -8.5650   21.0300 C   0  0  0  0  0  0  0  0  0  0  0  0
  -22.7480   -9.5430   20.0680 C   0  0  0  0  0  3  0  0  0  0  0  0
  -23.5360  -10.7000   19.9470 C   0  0  0  0  0  3  0  0  0  0  0  0
  -22.2480   -7.4520   21.0570 O   0  0  0  0  0  0  0  0  0  0  0  0
  -22.0400   -6.7390   22.2110 C   0  0  0  0  0  0  0  0  0  0  0  0
  -21.4630   -7.3320   23.3560 C   0  0  0  0  0  3  0  0  0  0  0  0
  -21.2010   -6.5500   24.4960 C   0  0  0  0  0  3  0  0  0  0  0  0
  -21.5060   -5.1740   24.4930 C   0  0  0  0  0  0  0  0  0  0  0  0
  -22.0770   -4.5830   23.3520 C   0  0  0  0  0  3  0  0  0  0  0  0
  -22.3380   -5.3630   22.2120 C   0  0  0  0  0  0  0  0  0  0  0  0
  -22.8670   -4.7830   21.1060 F   0  0  0  0  0  0  0  0  0  0  0  0
  -21.2480   -4.4200   25.5850 F   0  0  0  0  0  0  0  0  0  0  0  0
  -23.6610  -14.0400   20.9720 C   0  0  0  0  0  0  0  0  0  0  0  0
  -22.8810  -13.3550   21.7970 N   0  0  0  0  0  0  0  0  0  0  0  0
  -23.2840  -15.0950   20.4610 O   0  0  0  0  0  0  0  0  0  0  0  0
  -23.1930  -12.4920   22.2200 H   0  0  0  0  0  0  0  0  0  0  0  0
  -21.9500  -13.6880   22.0030 H   0  0  0  0  0  0  0  0  0  0  0  0
  -26.3970  -15.5970   20.2700 N   0  0  0  0  0  0  0  0  0  0  0  0
  -25.6670  -16.2950   20.3480 H   0  0  0  0  0  0  0  0  0  0  0  0
  -27.2850  -15.9950   19.9830 H   0  0  0  0  0  0  0  0  0  0  0  0
  -30.0260  -21.4030   19.0800 O   0  0  0  0  0  0  0  0  0  0  0  0
  -28.9680  -22.4450   19.1020 C   0  0  0  0  0  3  0  0  0  0  0  0
  -29.3890  -23.9720   18.7550 C   0  0  0  0  0  3  0  0  0  0  0  0
  -28.2590  -25.1210   18.7840 C   0  0  0  0  0  2  0  0  0  0  0  0
  -28.5390  -26.5980   18.9110 O   0  0  0  0  0  0  0  0  0  0  0  0
  -24.7450  -31.2460   23.0280 C   0  0  0  0  0  0  0  0  0  0  0  0
  -27.4300  -27.4650   19.0590 C   0  0  0  0  0  0  0  0  0  0  0  0
  -23.5650  -30.1940   21.1380 C   0  0  0  0  0  3  0  0  0  0  0  0
  -25.0380  -29.0200   19.4130 C   0  0  0  0  0  0  0  0  0  0  0  0
  -26.1010  -30.5910   21.0220 C   0  0  0  0  0  2  0  0  0  0  0  0
  -26.2070  -29.3830   20.0970 C   0  0  0  0  0  0  0  0  0  0  0  0
  -27.4060  -28.6200   19.9150 C   0  0  0  0  0  3  0  0  0  0  0  0
  -26.2380  -27.1950   18.3480 C   0  0  0  0  0  3  0  0  0  0  0  0
  -25.0600  -27.9370   18.5290 C   0  0  0  0  0  3  0  0  0  0  0  0
  -23.7870  -29.8390   19.6470 C   0  0  0  0  0  2  0  0  0  0  0  0
  -24.8230  -30.6820   21.7870 N   0  0  0  0  0  0  0  0  0  0  0  0
  -23.6600  -31.3820   23.6130 O   0  0  0  0  0  0  0  0  0  0  0  0
  -22.9380  -28.9780   21.8630 C   0  0  0  0  0  0  0  0  0  0  0  0
  -21.6160  -28.7950   21.7070 N   0  0  0  0  0  0  0  0  0  0  0  0
  -23.6380  -28.2160   22.5310 O   0  0  0  0  0  0  0  0  0  0  0  0
  -21.1120  -29.4640   21.1430 H   0  0  0  0  0  0  0  0  0  0  0  0
  -18.2650  -27.4560   21.9900 C   0  0  0  0  0  0  0  0  0  0  0  0
  -20.8250  -27.6990   22.2720 C   0  0  0  0  0  3  0  0  0  0  0  0
  -20.9380  -26.4300   21.3930 C   0  0  0  0  0  2  0  0  0  0  0  0
  -19.8230  -26.3210   20.3530 C   0  0  0  0  0  2  0  0  0  0  0  0
  -18.4530  -26.2920   21.0300 C   0  0  0  0  0  2  0  0  0  0  0  0
  -19.3800  -28.1260   22.5600 C   0  0  0  0  0  0  0  0  0  0  0  0
  -19.1520  -29.2280   23.4150 C   0  0  0  0  0  3  0  0  0  0  0  0
  -17.8430  -29.6510   23.7100 C   0  0  0  0  0  3  0  0  0  0  0  0
  -16.7440  -28.9750   23.1530 C   0  0  0  0  0  3  0  0  0  0  0  0
  -16.9560  -27.8770   22.2980 C   0  0  0  0  0  3  0  0  0  0  0  0
  -26.0180  -31.7690   23.7610 C   0  0  0  0  0  3  0  0  0  0  0  0
  -25.7150  -33.1130   24.2730 N   0  0  0  0  0  0  0  0  0  0  0  0
  -26.0450  -34.2560   23.6560 C   0  0  0  0  0  0  0  0  0  0  0  0
  -26.7090  -34.2850   22.6160 O   0  0  0  0  0  0  0  0  0  0  0  0
  -25.1220  -33.1650   25.0890 H   0  0  0  0  0  0  0  0  0  0  0  0
  -24.3140  -36.0780   23.5590 C   0  0  0  0  0  1  0  0  0  0  0  0
  -25.5660  -35.5750   24.2950 C   0  0  0  0  0  3  0  0  0  0  0  0
  -27.7040  -36.3600   25.2100 C   0  0  0  0  0  1  0  0  0  0  0  0
  -26.5960  -36.6350   24.2990 N   0  0  0  0  0  0  0  0  0  0  0  0
  -26.1930  -37.5320   24.5530 H   0  0  0  0  0  0  0  0  0  0  0  0
  -26.4900  -30.8210   24.9310 C   0  0  1  0  0  0  0  0  0  0  0  0
  -25.3630  -30.4560   25.9270 C   0  0  0  0  0  1  0  0  0  0  0  0
  -27.0640  -29.4990   24.3670 C   0  0  0  0  0  1  0  0  0  0  0  0
  -27.6350  -31.4950   25.7190 C   0  0  0  0  0  1  0  0  0  0  0  0
  1  2  1  0
  1  3  2  0
  2  4  2  0
  3  6  1  0
  4  6  1  0
  4  5  1  0
  7  3  1  0
  7 10  1  0
  8  7  2  0
  9  8  1  0
 10 16  1  0
 11 16  1  0
 12 13  1  0
 12 11  1  0
 14 13  1  0
 14 21  1  0
 14 15  1  0
 16 15  1  0
 17 10  2  0
 18 19  2  0
 19 38  1  0
 20 19  1  0
 20 23  1  0
 21 22  1  0
 21 18  1  0
 22 20  2  0
 23 24  1  0
 24 25  2  0
 26 29  1  0
 26 25  1  0
 27 26  2  0
 28 27  1  0
 28 23  2  0
 29 30  1  0
 30 35  2  0
 30 31  1  0
 31 32  2  0
 33 32  1  0
 33 37  1  0
 34 33  2  0
 35 34  1  0
 36 35  1  0
 38 39  1  0
 39 42  1  0
 39 41  1  0
 40 38  2  0
 43 44  1  0
 43 18  1  0
 45 43  1  0
 46 47  1  0
 46  2  1  0
 48 49  1  0
 48 47  2  0
 49 50  1  0
 50 52  1  0
 51 62  2  0
 52 57  1  0
 53 61  1  0
 53 63  1  0
 54 60  1  0
 54 56  1  0
 55 61  1  0
 56 55  1  0
 57 56  2  0
 58 59  1  0
 58 52  2  0
 59 54  2  0
 60 53  1  0
 61 51  1  0
 63 65  2  0
 64 63  1  0
 66 64  1  0
 67 76  2  0
 67 72  1  0
 68 64  1  0
 68 72  1  0
 69 68  1  0
 70 71  1  0
 70 69  1  0
 71 67  1  0
 72 73  2  0
 73 74  1  0
 75 74  2  0
 76 75  1  0
 77 51  1  0
 77 78  1  0
 77 87  1  0
 78 81  1  0
 79 78  1  0
 79 83  1  0
 80 79  2  0
 83 82  1  0
 83 85  1  0
 85 86  1  0
 85 84  1  0
 87 90  1  1
 87 88  1  0
 89 87  1  0
M  ISO  4   7 100  10 100  49 101  50 101
M  END
>  <TORSDO>  (82) 
F 21

>  <SCORE>  (82) 
-9.399

>  <name>  (82) 
81

>  <ligand_id>  (82) 
81

>  <original_smiles>  (82) 
[H]N=C(C(=O)N1C([H])([H])C([H])([H])C([H])([H])C([H])(n2nc(-c3c([H])c([H])c(Oc4c([H])c([H])c(F)c([H])c4F)c([H])c3[H])c(C(=O)N([H])[H])c2N([H])[H])C1([H])[H])c1sc(C([H])([H])[H])c(OC([H])([H])C([H])([H])C([H])([H])Oc2c([H])c([H])c3c(c2[H])C([H])([H])N(C(=O)C([H])(N([H])C(=O)C([H])(N([H])C([H])([H])[H])C([H])([H])[H])C(C([H])([H])[H])(C([H])([H])[H])C([H])([H])[H])C([H])(C(=O)N([H])C2([H])c4c([H])c([H])c([H])c([H])c4C([H])([H])C([H])([H])C2([H])[H])C3([H])[H])c1[H]

>  <smiles>  (82) 
[H]N=C(C(=O)N1C([H])([H])C([H])([H])C([H])([H])C([H])(n2nc(-c3c([H])c([H])c(Oc4c([H])c([H])c(F)c([H])c4F)c([H])c3[H])c(C(=O)N([H])[H])c2N([H])[H])C1([H])[H])c1sc(C([H])([H])[H])c(OC([H])([H])C([H])([H])C([H])([H])Oc2c([H])c([H])c3c(c2[H])C([H])([H])N(C(=O)C([H])(N([H])C(=O)C([H])(N([H])C([H])([H])[H])C([H])([H])[H])C(C([H])([H])[H])(C([H])([H])[H])C([H])([H])[H])C([H])(C(=O)N([H])C2([H])c4c([H])c([H])c([H])c([H])c4C([H])([H])C([H])([H])C2([H])[H])C3([H])[H])c1[H]

$$$$
82:0:0
     RDKit          3D

 94103  0  0  1  0  0  0  0  0999 V2000
  -27.6610  -18.1690   19.5250 C   0  0  0  0  0  3  0  0  0  0  0  0
  -30.2380  -18.0990   20.5080 C   0  0  0  0  0  3  0  0  0  0  0  0
  -28.2040  -16.9310   19.9280 C   0  0  0  0  0  0  0  0  0  0  0  0
  -29.5780  -16.8040   20.3100 C   0  0  0  0  0  0  0  0  0  0  0  0
  -28.3580  -19.3900   19.6250 C   0  0  0  0  0  0  0  0  0  0  0  0
  -29.6220  -19.4100   20.2600 C   0  0  0  0  0  0  0  0  0  0  0  0
  -30.0900  -15.3710   20.7580 C   0  0  0  0  0  0  0  0  0  0  0  0
  -30.1090  -15.1470   22.0070 N   0  0  0  0  0  0  0  0  0  0  0  0
  -29.7680  -15.9490   22.5230 H   0  0  0  0  0  0  0  0  0  0  0  0
  -30.6090  -14.1680   19.8260 C   0  0  0  0  0  0  0  0  0  0  0  0
  -30.4600  -11.8280   18.9080 C   0  0  0  0  0  2  0  0  0  0  0  0
  -29.4580  -11.7760   17.7340 C   0  0  0  0  0  2  0  0  0  0  0  0
  -28.0130  -11.5880   18.2390 C   0  0  0  0  0  2  0  0  0  0  0  0
  -27.6740  -12.5310   19.4250 C   0  0  0  0  0  3  0  0  0  0  0  0
  -28.7930  -12.4750   20.4940 C   0  0  0  0  0  2  0  0  0  0  0  0
  -30.0360  -12.9050   19.8430 N   0  0  0  0  0  0  0  0  0  0  0  0
  -31.6550  -14.3360   19.1840 O   0  0  0  0  0  0  0  0  0  0  0  0
  -25.2930  -13.1080   20.1970 C   0  0  0  0  0  0  0  0  0  0  0  0
  -24.2650  -12.3370   20.6630 C   0  0  0  0  0  0  0  0  0  0  0  0
  -24.7520  -10.9940   20.6660 C   0  0  0  0  0  0  0  0  0  0  0  0
  -26.3530  -12.2430   19.9770 N   0  0  0  0  0  0  0  0  0  0  0  0
  -26.0310  -10.9650   20.3060 N   0  0  0  0  0  0  0  0  0  0  0  0
  -24.0550   -9.7310   20.9360 C   0  0  0  0  0  0  0  0  0  0  0  0
  -24.4660   -8.8680   21.9760 C   0  0  0  0  0  3  0  0  0  0  0  0
  -23.7670   -7.6680   22.2290 C   0  0  0  0  0  3  0  0  0  0  0  0
  -22.6440   -7.3210   21.4430 C   0  0  0  0  0  0  0  0  0  0  0  0
  -22.2520   -8.1720   20.3930 C   0  0  0  0  0  3  0  0  0  0  0  0
  -22.9520   -9.3640   20.1390 C   0  0  0  0  0  3  0  0  0  0  0  0
  -21.9200   -6.1640   21.6000 O   0  0  0  0  0  0  0  0  0  0  0  0
  -21.7580   -5.5780   22.8300 C   0  0  0  0  0  0  0  0  0  0  0  0
  -21.1320   -6.2540   23.9000 C   0  0  0  0  0  3  0  0  0  0  0  0
  -20.9260   -5.5900   25.1260 C   0  0  0  0  0  3  0  0  0  0  0  0
  -21.3330   -4.2510   25.2810 C   0  0  0  0  0  0  0  0  0  0  0  0
  -21.9520   -3.5760   24.2140 C   0  0  0  0  0  3  0  0  0  0  0  0
  -22.1610   -4.2370   22.9910 C   0  0  0  0  0  0  0  0  0  0  0  0
  -22.7390   -3.5750   21.9590 F   0  0  0  0  0  0  0  0  0  0  0  0
  -21.1280   -3.6110   26.4550 F   0  0  0  0  0  0  0  0  0  0  0  0
  -22.8760  -12.8050   20.9870 C   0  0  0  0  0  0  0  0  0  0  0  0
  -22.2130  -12.1460   21.9310 N   0  0  0  0  0  0  0  0  0  0  0  0
  -22.3890  -13.7940   20.4410 O   0  0  0  0  0  0  0  0  0  0  0  0
  -22.6200  -11.3470   22.3940 H   0  0  0  0  0  0  0  0  0  0  0  0
  -21.2840  -12.4460   22.1950 H   0  0  0  0  0  0  0  0  0  0  0  0
  -25.4000  -14.4640   19.9150 N   0  0  0  0  0  4  0  0  0  0  0  0
  -24.6240  -15.1010   20.0490 H   0  0  0  0  0  0  0  0  0  0  0  0
  -26.2280  -14.9190   19.5550 H   0  0  0  0  0  0  0  0  0  0  0  0
  -26.8050  -20.5280   18.1570 C   0  0  0  0  0  1  0  0  0  0  0  0
  -27.8560  -20.5700   19.1140 O   0  0  0  0  0  0  0  0  0  0  0  0
  -25.8890  -15.9870   20.1180 C   0  0  0  0  0  2  0  0  0  0  0  0
  -27.2220  -15.8330   20.0450 C   0  0  0  0  0  2  0  0  0  0  0  0
  -30.2270  -20.6780   20.5450 O   0  0  0  0  0  0  0  0  0  0  0  0
  -29.4720  -21.8500   21.1330 C   0  0  0  0  0  2  0  0  0  0  0  0
  -29.6770  -23.3820   20.6170 C   0  0  0  0  0  3  0  0  0  0  0  0
  -28.7750  -24.5830   21.2430 C   0  0  0  0  0  3  0  0  0  0  0  0
  -28.9770  -26.0440   20.9310 O   0  0  0  0  0  0  0  0  0  0  0  0
  -24.8320  -31.4900   23.4010 C   0  0  0  0  0  0  0  0  0  0  0  0
  -27.8550  -26.8910   20.7850 C   0  0  0  0  0  0  0  0  0  0  0  0
  -23.8480  -30.0310   21.6710 C   0  0  0  0  0  3  0  0  0  0  0  0
  -25.4800  -28.4740   20.4560 C   0  0  0  0  0  0  0  0  0  0  0  0
  -26.3870  -30.3940   21.7640 C   0  0  0  0  0  2  0  0  0  0  0  0
  -26.5680  -28.9990   21.1670 C   0  0  0  0  0  0  0  0  0  0  0  0
  -27.7620  -28.2230   21.3120 C   0  0  0  0  0  3  0  0  0  0  0  0
  -26.7450  -26.4230   20.0500 C   0  0  0  0  0  3  0  0  0  0  0  0
  -25.5750  -27.1940   19.8860 C   0  0  0  0  0  3  0  0  0  0  0  0
  -24.2310  -29.3280   20.3410 C   0  0  0  0  0  2  0  0  0  0  0  0
  -25.0350  -30.6590   22.3360 N   0  0  0  0  0  0  0  0  0  0  0  0
  -23.6890  -31.7550   23.8040 O   0  0  0  0  0  0  0  0  0  0  0  0
  -23.0980  -29.0240   22.5770 C   0  0  0  0  0  0  0  0  0  0  0  0
  -21.7870  -28.8480   22.3340 N   0  0  0  0  0  0  0  0  0  0  0  0
  -23.6990  -28.4030   23.4570 O   0  0  0  0  0  0  0  0  0  0  0  0
  -21.3640  -29.4000   21.6010 H   0  0  0  0  0  0  0  0  0  0  0  0
  -18.3550  -27.7360   22.6180 C   0  0  0  0  0  0  0  0  0  0  0  0
  -20.9010  -27.9160   23.0340 C   0  0  0  0  0  3  0  0  0  0  0  0
  -20.9960  -26.4970   22.4280 C   0  0  0  0  0  2  0  0  0  0  0  0
  -19.9430  -26.2300   21.3480 C   0  0  0  0  0  2  0  0  0  0  0  0
  -18.5320  -26.3990   21.9180 C   0  0  0  0  0  2  0  0  0  0  0  0
  -19.4680  -28.4550   23.1280 C   0  0  0  0  0  0  0  0  0  0  0  0
  -19.2520  -29.7100   23.7390 C   0  0  0  0  0  3  0  0  0  0  0  0
  -17.9530  -30.2420   23.8490 C   0  0  0  0  0  3  0  0  0  0  0  0
  -16.8540  -29.5200   23.3560 C   0  0  0  0  0  3  0  0  0  0  0  0
  -17.0540  -28.2690   22.7440 C   0  0  0  0  0  3  0  0  0  0  0  0
  -26.0230  -32.1650   24.1490 C   0  0  0  0  0  3  0  0  0  0  0  0
  -25.6830  -33.5830   24.3430 N   0  0  0  0  0  0  0  0  0  0  0  0
  -26.1070  -34.5830   23.5570 C   0  0  0  0  0  0  0  0  0  0  0  0
  -26.8900  -34.4100   22.6190 O   0  0  0  0  0  0  0  0  0  0  0  0
  -25.0040  -33.7910   25.0580 H   0  0  0  0  0  0  0  0  0  0  0  0
  -24.4340  -36.3400   22.8900 C   0  0  0  0  0  1  0  0  0  0  0  0
  -25.5770  -35.9980   23.8600 C   0  0  0  0  0  3  0  0  0  0  0  0
  -27.6070  -36.9520   24.8590 C   0  0  0  0  0  1  0  0  0  0  0  0
  -26.6200  -37.0450   23.7870 N   0  0  0  0  0  0  0  0  0  0  0  0
  -26.2030  -37.9720   23.8190 H   0  0  0  0  0  0  0  0  0  0  0  0
  -26.3530  -31.4830   25.5330 C   0  0  1  0  0  0  0  0  0  0  0  0
  -25.1210  -31.3120   26.4530 C   0  0  0  0  0  1  0  0  0  0  0  0
  -26.9790  -30.0840   25.3190 C   0  0  0  0  0  1  0  0  0  0  0  0
  -27.4040  -32.3240   26.2950 C   0  0  0  0  0  1  0  0  0  0  0  0
  1  5  2  0
  1  3  1  0
  3 49  1  0
  3  4  2  0
  4  2  1  0
  4  7  1  0
  5  6  1  0
  6  2  2  0
  6 50  1  0
  7  8  2  0
  8  9  1  0
 10 16  1  0
 10  7  1  0
 11 16  1  0
 12 13  1  0
 12 11  1  0
 14 13  1  0
 14 21  1  0
 14 15  1  0
 16 15  1  0
 17 10  2  0
 18 19  2  0
 19 20  1  0
 19 38  1  0
 20 23  1  0
 21 18  1  0
 21 22  1  0
 22 20  2  0
 23 24  1  0
 24 25  2  0
 26 29  1  0
 26 25  1  0
 27 26  2  0
 28 27  1  0
 28 23  2  0
 29 30  1  0
 30 35  2  0
 30 31  1  0
 31 32  2  0
 32 33  1  0
 33 37  1  0
 34 33  2  0
 35 34  1  0
 36 35  1  0
 38 39  1  0
 39 42  1  0
 39 41  1  0
 40 38  2  0
 43 44  1  0
 43 48  1  0
 43 18  1  0
 45 43  1  0
 46 47  1  0
 47  5  1  0
 49 48  1  0
 50 51  1  0
 52 51  1  0
 52 53  2  0
 54 53  1  0
 55 66  2  0
 56 54  1  0
 56 61  1  0
 57 65  1  0
 57 67  1  0
 58 60  1  0
 59 65  1  0
 60 61  2  0
 60 59  1  0
 62 56  2  0
 63 62  1  0
 63 58  2  0
 64 58  1  0
 64 57  1  0
 65 55  1  0
 67 69  2  0
 68 67  1  0
 70 68  1  0
 71 80  2  0
 71 76  1  0
 72 68  1  0
 72 76  1  0
 73 72  1  0
 74 75  1  0
 74 73  1  0
 75 71  1  0
 76 77  2  0
 77 78  1  0
 79 78  2  0
 80 79  1  0
 81 55  1  0
 81 82  1  0
 81 91  1  0
 82 85  1  0
 83 87  1  0
 83 82  1  0
 84 83  2  0
 87 86  1  0
 89 90  1  0
 89 87  1  0
 89 88  1  0
 91 94  1  1
 91 92  1  0
 93 91  1  0
M  ISO  4   7 100  10 100  53 101  54 101
M  END
>  <TORSDO>  (83) 
F 23

>  <SCORE>  (83) 
-10.920

>  <name>  (83) 
82

>  <ligand_id>  (83) 
82

>  <original_smiles>  (83) 
[H]N=C(C(=O)N1C([H])([H])C([H])([H])C([H])([H])C([H])(n2nc(-c3c([H])c([H])c(Oc4c([H])c([H])c(F)c([H])c4F)c([H])c3[H])c(C(=O)N([H])[H])c2N([H])[H])C1([H])[H])c1c([H])c(OC([H])([H])C([H])([H])C([H])([H])Oc2c([H])c([H])c3c(c2[H])C([H])([H])N(C(=O)C([H])(N([H])C(=O)C([H])(N([H])C([H])([H])[H])C([H])([H])[H])C(C([H])([H])[H])(C([H])([H])[H])C([H])([H])[H])C([H])(C(=O)N([H])C2([H])c4c([H])c([H])c([H])c([H])c4C([H])([H])C([H])([H])C2([H])[H])C3([H])[H])c(OC([H])([H])[H])c([H])c1C([H])=C([H])[H]

>  <smiles>  (83) 
[H]N=C(C(=O)N1C([H])([H])C([H])([H])C([H])([H])C([H])(n2nc(-c3c([H])c([H])c(Oc4c([H])c([H])c(F)c([H])c4F)c([H])c3[H])c(C(=O)N([H])[H])c2N([H])[H])C1([H])[H])c1c([H])c(OC([H])([H])C([H])([H])C([H])([H])Oc2c([H])c([H])c3c(c2[H])C([H])([H])N(C(=O)C([H])(N([H])C(=O)C([H])(N([H])C([H])([H])[H])C([H])([H])[H])C(C([H])([H])[H])(C([H])([H])[H])C([H])([H])[H])C([H])(C(=O)N([H])C2([H])c4c([H])c([H])c([H])c([H])c4C([H])([H])C([H])([H])C2([H])[H])C3([H])[H])c(OC([H])([H])[H])c([H])c1C([H])=C([H])[H]

$$$$
83:0:0
     RDKit          3D

 89 97  0  0  1  0  0  0  0  0999 V2000
  -28.3570  -21.1390   20.4540 C   0  0  0  0  0  2  0  0  0  0  0  0
  -28.7030  -22.6780   20.2560 C   0  0  0  0  0  0  0  0  0  0  0  0
  -29.2880  -19.9910   20.2730 C   0  0  0  0  0  0  0  0  0  0  0  0
  -30.0470  -22.6000   19.8960 C   0  0  0  0  0  0  0  0  0  0  0  0
  -30.7260  -20.9070   19.8070 S   0  0  0  0  0  0  0  0  0  0  0  0
  -31.2620  -24.4230   20.4650 C   0  0  0  0  0  3  0  0  0  0  0  0
  -32.1810  -25.5900   20.2050 C   0  0  0  0  0  1  0  0  0  0  0  0
  -30.9100  -23.6100   19.5540 N   0  0  0  0  0  0  0  0  0  0  0  0
  -29.2690  -18.3280   20.3880 C   0  0  0  0  0  0  0  0  0  0  0  0
  -29.3890  -16.8250   20.4460 C   0  0  0  0  0  3  0  0  0  0  0  0
  -30.3160  -15.4800   20.2070 C   0  0  0  0  0  0  0  0  0  0  0  0
  -30.3570  -13.0100   19.3260 C   0  0  0  0  0  2  0  0  0  0  0  0
  -29.4130  -12.7880   18.1110 C   0  0  0  0  0  2  0  0  0  0  0  0
  -27.9790  -12.4770   18.5740 C   0  0  0  0  0  2  0  0  0  0  0  0
  -27.5350  -13.4210   19.7170 C   0  0  0  0  0  3  0  0  0  0  0  0
  -28.6020  -13.5770   20.8200 C   0  0  0  0  0  2  0  0  0  0  0  0
  -29.8130  -14.1330   20.1860 N   0  0  0  0  0  0  0  0  0  0  0  0
  -31.5240  -15.4970   19.9170 O   0  0  0  0  0  0  0  0  0  0  0  0
  -25.1840  -13.9480   20.5430 C   0  0  0  0  0  0  0  0  0  0  0  0
  -24.1360  -13.1580   20.9250 C   0  0  0  0  0  0  0  0  0  0  0  0
  -24.6080  -11.8110   20.8560 C   0  0  0  0  0  0  0  0  0  0  0  0
  -26.2240  -13.0820   20.2540 N   0  0  0  0  0  0  0  0  0  0  0  0
  -25.8920  -11.7900   20.5100 N   0  0  0  0  0  0  0  0  0  0  0  0
  -23.8890  -10.5430   21.0400 C   0  0  0  0  0  0  0  0  0  0  0  0
  -24.3300   -9.5690   21.9620 C   0  0  0  0  0  3  0  0  0  0  0  0
  -23.6080   -8.3680   22.1350 C   0  0  0  0  0  3  0  0  0  0  0  0
  -22.4310   -8.1330   21.3860 C   0  0  0  0  0  0  0  0  0  0  0  0
  -22.0090   -9.0950   20.4520 C   0  0  0  0  0  3  0  0  0  0  0  0
  -22.7320  -10.2870   20.2770 C   0  0  0  0  0  3  0  0  0  0  0  0
  -21.6800   -6.9850   21.4700 O   0  0  0  0  0  0  0  0  0  0  0  0
  -21.6190   -6.2460   22.6250 C   0  0  0  0  0  0  0  0  0  0  0  0
  -21.1320   -6.7920   23.8320 C   0  0  0  0  0  3  0  0  0  0  0  0
  -21.0210   -5.9790   24.9770 C   0  0  0  0  0  3  0  0  0  0  0  0
  -21.3870   -4.6210   24.9160 C   0  0  0  0  0  0  0  0  0  0  0  0
  -21.8670   -4.0740   23.7120 C   0  0  0  0  0  3  0  0  0  0  0  0
  -21.9790   -4.8850   22.5700 C   0  0  0  0  0  0  0  0  0  0  0  0
  -22.4220   -4.3490   21.4070 F   0  0  0  0  0  0  0  0  0  0  0  0
  -21.2740   -3.8370   26.0130 F   0  0  0  0  0  0  0  0  0  0  0  0
  -22.7430  -13.6250   21.2340 C   0  0  0  0  0  0  0  0  0  0  0  0
  -22.0360  -12.9100   22.1000 N   0  0  0  0  0  0  0  0  0  0  0  0
  -22.2930  -14.6600   20.7440 O   0  0  0  0  0  0  0  0  0  0  0  0
  -22.4140  -12.0720   22.5170 H   0  0  0  0  0  0  0  0  0  0  0  0
  -21.1020  -13.2030   22.3490 H   0  0  0  0  0  0  0  0  0  0  0  0
  -25.3350  -15.3220   20.3890 N   0  0  0  0  0  0  0  0  0  0  0  0
  -24.5660  -15.9680   20.5340 H   0  0  0  0  0  0  0  0  0  0  0  0
  -26.1660  -15.7740   20.0270 H   0  0  0  0  0  0  0  0  0  0  0  0
  -27.7710  -24.0970   20.3750 C   0  0  0  0  0  0  0  0  0  0  0  0
  -26.5870  -23.8750   20.6360 O   0  0  0  0  0  0  0  0  0  0  0  0
  -28.1110  -25.7940   20.2240 O   0  0  0  0  0  0  0  0  0  0  0  0
  -24.6040  -31.9020   23.2080 C   0  0  0  0  0  0  0  0  0  0  0  0
  -27.1400  -26.9550   20.1940 C   0  0  0  0  0  0  0  0  0  0  0  0
  -23.4050  -30.5010   21.5800 C   0  0  0  0  0  3  0  0  0  0  0  0
  -24.8500  -28.8860   20.1560 C   0  0  0  0  0  0  0  0  0  0  0  0
  -25.9760  -30.6910   21.4290 C   0  0  0  0  0  2  0  0  0  0  0  0
  -26.0430  -29.2710   20.7810 C   0  0  0  0  0  0  0  0  0  0  0  0
  -27.1780  -28.3270   20.7820 C   0  0  0  0  0  3  0  0  0  0  0  0
  -25.9170  -26.7520   19.5090 C   0  0  0  0  0  3  0  0  0  0  0  0
  -24.8160  -27.6480   19.4990 C   0  0  0  0  0  3  0  0  0  0  0  0
  -23.6340  -29.8140   20.2050 C   0  0  0  0  0  2  0  0  0  0  0  0
  -24.6850  -31.0610   22.1250 N   0  0  0  0  0  0  0  0  0  0  0  0
  -23.5160  -32.1950   23.7300 O   0  0  0  0  0  0  0  0  0  0  0  0
  -22.7110  -29.5110   22.5510 C   0  0  0  0  0  0  0  0  0  0  0  0
  -21.3820  -29.3360   22.4230 N   0  0  0  0  0  0  0  0  0  0  0  0
  -23.3760  -28.9000   23.3920 O   0  0  0  0  0  0  0  0  0  0  0  0
  -20.8960  -29.8800   21.7240 H   0  0  0  0  0  0  0  0  0  0  0  0
  -18.0050  -28.1100   22.9470 C   0  0  0  0  0  0  0  0  0  0  0  0
  -20.5640  -28.3970   23.2010 C   0  0  0  0  0  3  0  0  0  0  0  0
  -20.6720  -26.9620   22.6330 C   0  0  0  0  0  2  0  0  0  0  0  0
  -19.5700  -26.6270   21.6230 C   0  0  0  0  0  2  0  0  0  0  0  0
  -18.1900  -26.7610   22.2710 C   0  0  0  0  0  2  0  0  0  0  0  0
  -19.1180  -28.8850   23.3690 C   0  0  0  0  0  0  0  0  0  0  0  0
  -18.8890  -30.1430   23.9650 C   0  0  0  0  0  3  0  0  0  0  0  0
  -17.5790  -30.6290   24.1400 C   0  0  0  0  0  3  0  0  0  0  0  0
  -16.4800  -29.8540   23.7310 C   0  0  0  0  0  3  0  0  0  0  0  0
  -16.6940  -28.5950   23.1410 C   0  0  0  0  0  3  0  0  0  0  0  0
  -25.8760  -32.5510   23.8330 C   0  0  0  0  0  3  0  0  0  0  0  0
  -26.3800  -31.7970   25.1260 C   0  0  1  0  0  0  0  0  0  0  0  0
  -25.2780  -31.5730   26.1890 C   0  0  0  0  0  1  0  0  0  0  0  0
  -26.9670  -30.4130   24.7670 C   0  0  0  0  0  1  0  0  0  0  0  0
  -27.5260  -32.6000   25.7860 C   0  0  0  0  0  1  0  0  0  0  0  0
  -25.5580  -33.9530   24.1590 N   0  0  0  0  0  0  0  0  0  0  0  0
  -25.8880  -35.0110   23.4050 C   0  0  0  0  0  0  0  0  0  0  0  0
  -26.5510  -34.9090   22.3690 O   0  0  0  0  0  0  0  0  0  0  0  0
  -24.9680  -34.1050   24.9630 H   0  0  0  0  0  0  0  0  0  0  0  0
  -24.1680  -36.8210   23.0650 C   0  0  0  0  0  1  0  0  0  0  0  0
  -25.4090  -36.4030   23.8700 C   0  0  0  0  0  3  0  0  0  0  0  0
  -27.5430  -37.2870   24.7070 C   0  0  0  0  0  1  0  0  0  0  0  0
  -26.4450  -37.4520   23.7570 N   0  0  0  0  0  0  0  0  0  0  0  0
  -26.0420  -38.3750   23.8970 H   0  0  0  0  0  0  0  0  0  0  0  0
  2 47  1  0
  2  1  1  0
  3  9  2  0
  3  1  1  0
  4  2  2  0
  5  4  1  0
  5  3  1  0
  7  6  1  0
  8  4  1  0
  8  6  2  0
  9 10  2  0
 11 10  1  0
 12 17  1  0
 13 14  1  0
 13 12  1  0
 15 14  1  0
 15 22  1  0
 15 16  1  0
 17 11  1  0
 17 16  1  0
 18 11  2  0
 19 20  2  0
 20 39  1  0
 21 20  1  0
 21 24  1  0
 22 23  1  0
 22 19  1  0
 23 21  2  0
 24 25  1  0
 25 26  2  0
 27 30  1  0
 27 26  1  0
 28 27  2  0
 29 28  1  0
 29 24  2  0
 30 31  1  0
 31 32  1  0
 32 33  2  0
 34 33  1  0
 34 38  1  0
 35 34  2  0
 36 31  2  0
 36 35  1  0
 37 36  1  0
 39 40  1  0
 40 43  1  0
 40 42  1  0
 41 39  2  0
 44 45  1  0
 44 19  1  0
 46 44  1  0
 47 48  2  0
 49 47  1  0
 50 61  2  0
 51 49  1  0
 51 56  1  0
 52 60  1  0
 52 62  1  0
 53 59  1  0
 53 55  1  0
 54 60  1  0
 55 56  2  0
 55 54  1  0
 57 51  2  0
 58 57  1  0
 58 53  2  0
 59 52  1  0
 60 50  1  0
 62 64  2  0
 63 62  1  0
 65 63  1  0
 66 75  2  0
 66 71  1  0
 67 63  1  0
 67 71  1  0
 68 67  1  0
 69 70  1  0
 69 68  1  0
 70 66  1  0
 71 72  2  0
 72 73  1  0
 74 73  2  0
 75 74  1  0
 76 50  1  0
 76 81  1  0
 76 77  1  0
 77 80  1  1
 77 78  1  0
 79 77  1  0
 81 84  1  0
 82 86  1  0
 82 81  1  0
 83 82  2  0
 86 85  1  0
 88 86  1  0
 88 89  1  0
 88 87  1  0
M  ISO  4  10 100  11 100  47 101  49 101
M  END
>  <TORSDO>  (84) 
F 19

>  <SCORE>  (84) 
-15.355

>  <name>  (84) 
83

>  <ligand_id>  (84) 
83

>  <original_smiles>  (84) 
[H]C(=Nc1sc(C([H])=C([H])C(=O)N2C([H])([H])C([H])([H])C([H])([H])C([H])(n3nc(-c4c([H])c([H])c(Oc5c([H])c([H])c(F)c([H])c5F)c([H])c4[H])c(C(=O)N([H])[H])c3N([H])[H])C2([H])[H])c([H])c1C(=O)Oc1c([H])c([H])c2c(c1[H])C([H])([H])N(C(=O)C([H])(N([H])C(=O)C([H])(N([H])C([H])([H])[H])C([H])([H])[H])C(C([H])([H])[H])(C([H])([H])[H])C([H])([H])[H])C([H])(C(=O)N([H])C1([H])c3c([H])c([H])c([H])c([H])c3C([H])([H])C([H])([H])C1([H])[H])C2([H])[H])C([H])([H])[H]

>  <smiles>  (84) 
[H]C(=Nc1sc(C([H])=C([H])C(=O)N2C([H])([H])C([H])([H])C([H])([H])C([H])(n3nc(-c4c([H])c([H])c(Oc5c([H])c([H])c(F)c([H])c5F)c([H])c4[H])c(C(=O)N([H])[H])c3N([H])[H])C2([H])[H])c([H])c1C(=O)Oc1c([H])c([H])c2c(c1[H])C([H])([H])N(C(=O)C([H])(N([H])C(=O)C([H])(N([H])C([H])([H])[H])C([H])([H])[H])C(C([H])([H])[H])(C([H])([H])[H])C([H])([H])[H])C([H])(C(=O)N([H])C1([H])c3c([H])c([H])c([H])c([H])c3C([H])([H])C([H])([H])C1([H])[H])C2([H])[H])C([H])([H])[H]

$$$$
84:0:0
     RDKit          3D

 93101  0  0  1  0  0  0  0  0999 V2000
  -29.9210  -18.0010   20.1080 C   0  0  0  0  0  3  0  0  0  0  0  0
  -30.3090  -20.0710   21.3100 C   0  0  0  0  0  3  0  0  0  0  0  0
  -30.5770  -17.2230   21.1250 C   0  0  0  0  0  0  0  0  0  0  0  0
  -30.9070  -19.3450   22.3610 C   0  0  0  0  0  0  0  0  0  0  0  0
  -31.1050  -17.9360   22.2590 C   0  0  0  0  0  0  0  0  0  0  0  0
  -29.8160  -19.4360   20.1570 C   0  0  0  0  0  0  0  0  0  0  0  0
  -31.2780  -20.1230   23.6170 C   0  0  0  0  0  1  0  0  0  0  0  0
  -31.8690  -17.2160   23.3920 C   0  0  0  0  0  1  0  0  0  0  0  0
  -30.5890  -15.6850   21.1220 C   0  0  0  0  0  0  0  0  0  0  0  0
  -30.4480  -15.0740   22.2280 N   0  0  0  0  0  0  0  0  0  0  0  0
  -30.3180  -15.7060   23.0080 H   0  0  0  0  0  0  0  0  0  0  0  0
  -30.8650  -14.8680   19.8190 C   0  0  0  0  0  0  0  0  0  0  0  0
  -30.5320  -12.7060   18.6080 C   0  0  0  0  0  2  0  0  0  0  0  0
  -29.4410  -12.7670   17.5200 C   0  0  0  0  0  2  0  0  0  0  0  0
  -28.0270  -12.5610   18.0990 C   0  0  0  0  0  2  0  0  0  0  0  0
  -27.7950  -13.4190   19.3620 C   0  0  0  0  0  3  0  0  0  0  0  0
  -28.9550  -13.2460   20.3500 C   0  0  0  0  0  2  0  0  0  0  0  0
  -30.2070  -13.6660   19.6860 N   0  0  0  0  0  0  0  0  0  0  0  0
  -31.7390  -15.2270   19.0190 O   0  0  0  0  0  0  0  0  0  0  0  0
  -25.5480  -14.0060   20.4640 C   0  0  0  0  0  0  0  0  0  0  0  0
  -24.5170  -13.2170   20.9100 C   0  0  0  0  0  0  0  0  0  0  0  0
  -24.9290  -11.8690   20.6880 C   0  0  0  0  0  0  0  0  0  0  0  0
  -26.5150  -13.1280   20.0000 N   0  0  0  0  0  0  0  0  0  0  0  0
  -26.1580  -11.8340   20.1920 N   0  0  0  0  0  0  0  0  0  0  0  0
  -24.2020  -10.6050   20.8620 C   0  0  0  0  0  0  0  0  0  0  0  0
  -24.6630   -9.6030   21.7430 C   0  0  0  0  0  3  0  0  0  0  0  0
  -23.9370   -8.4020   21.9030 C   0  0  0  0  0  3  0  0  0  0  0  0
  -22.7370   -8.1980   21.1820 C   0  0  0  0  0  0  0  0  0  0  0  0
  -22.2940   -9.1930   20.2920 C   0  0  0  0  0  3  0  0  0  0  0  0
  -23.0200  -10.3840   20.1290 C   0  0  0  0  0  3  0  0  0  0  0  0
  -21.9790   -7.0530   21.2550 O   0  0  0  0  0  0  0  0  0  0  0  0
  -21.8540   -6.3460   22.4230 C   0  0  0  0  0  0  0  0  0  0  0  0
  -21.3190   -6.9270   23.5950 C   0  0  0  0  0  3  0  0  0  0  0  0
  -21.1450   -6.1420   24.7530 C   0  0  0  0  0  3  0  0  0  0  0  0
  -21.4980   -4.7790   24.7390 C   0  0  0  0  0  0  0  0  0  0  0  0
  -22.0280   -4.1990   23.5740 C   0  0  0  0  0  3  0  0  0  0  0  0
  -22.2020   -4.9800   22.4170 C   0  0  0  0  0  0  0  0  0  0  0  0
  -22.6910   -4.4110   21.2900 F   0  0  0  0  0  0  0  0  0  0  0  0
  -21.3260   -4.0230   25.8490 F   0  0  0  0  0  0  0  0  0  0  0  0
  -23.1900  -13.6920   21.4240 C   0  0  0  0  0  0  0  0  0  0  0  0
  -22.5780  -12.9250   22.3220 N   0  0  0  0  0  0  0  0  0  0  0  0
  -22.7050  -14.7610   21.0640 O   0  0  0  0  0  0  0  0  0  0  0  0
  -22.9800  -12.0480   22.6220 H   0  0  0  0  0  0  0  0  0  0  0  0
  -21.6930  -13.2170   22.7100 H   0  0  0  0  0  0  0  0  0  0  0  0
  -25.7360  -15.3820   20.3970 N   0  0  0  0  0  0  0  0  0  0  0  0
  -25.0250  -16.0540   20.6650 H   0  0  0  0  0  0  0  0  0  0  0  0
  -26.5770  -15.8190   20.0420 H   0  0  0  0  0  0  0  0  0  0  0  0
  -29.1860  -20.1720   19.1380 O   0  0  0  0  0  0  0  0  0  0  0  0
  -29.5190  -21.5770   18.8420 C   0  0  0  0  0  3  0  0  0  0  0  0
  -28.5220  -22.7010   19.3400 C   0  0  0  0  0  3  0  0  0  0  0  0
  -28.8980  -24.2280   19.1080 C   0  0  0  0  0  3  0  0  0  0  0  0
  -27.6770  -25.2380   18.9770 C   0  0  0  0  0  3  0  0  0  0  0  0
  -27.8810  -26.6910   19.1270 O   0  0  0  0  0  0  0  0  0  0  0  0
  -24.4500  -31.6840   23.0010 C   0  0  0  0  0  0  0  0  0  0  0  0
  -26.7470  -27.5100   19.2650 C   0  0  0  0  0  0  0  0  0  0  0  0
  -23.0820  -30.4630   21.3430 C   0  0  0  0  0  3  0  0  0  0  0  0
  -24.3830  -29.0990   19.6120 C   0  0  0  0  0  0  0  0  0  0  0  0
  -25.5900  -30.8220   20.9530 C   0  0  0  0  0  2  0  0  0  0  0  0
  -25.6010  -29.5270   20.1570 C   0  0  0  0  0  0  0  0  0  0  0  0
  -26.7790  -28.7470   19.9810 C   0  0  0  0  0  3  0  0  0  0  0  0
  -25.4960  -27.1240   18.7240 C   0  0  0  0  0  3  0  0  0  0  0  0
  -24.3370  -27.9040   18.8770 C   0  0  0  0  0  3  0  0  0  0  0  0
  -23.1490  -29.9400   19.8830 C   0  0  0  0  0  2  0  0  0  0  0  0
  -24.3950  -31.0040   21.8180 N   0  0  0  0  0  0  0  0  0  0  0  0
  -23.4300  -31.8930   23.6740 O   0  0  0  0  0  0  0  0  0  0  0  0
  -22.5210  -29.3430   22.2500 C   0  0  0  0  0  0  0  0  0  0  0  0
  -21.2020  -29.1100   22.1720 N   0  0  0  0  0  0  0  0  0  0  0  0
  -23.2690  -28.6900   22.9840 O   0  0  0  0  0  0  0  0  0  0  0  0
  -20.6620  -29.6790   21.5330 H   0  0  0  0  0  0  0  0  0  0  0  0
  -17.9250  -27.6670   22.7020 C   0  0  0  0  0  0  0  0  0  0  0  0
  -20.4690  -28.0750   22.9060 C   0  0  0  0  0  3  0  0  0  0  0  0
  -20.6450  -26.6890   22.2410 C   0  0  0  0  0  2  0  0  0  0  0  0
  -19.5290  -26.3590   21.2480 C   0  0  0  0  0  2  0  0  0  0  0  0
  -18.1670  -26.3720   21.9470 C   0  0  0  0  0  2  0  0  0  0  0  0
  -19.0060  -28.4750   23.1390 C   0  0  0  0  0  0  0  0  0  0  0  0
  -18.7250  -29.6880   23.8020 C   0  0  0  0  0  3  0  0  0  0  0  0
  -17.4000  -30.0970   24.0340 C   0  0  0  0  0  3  0  0  0  0  0  0
  -16.3320  -29.2840   23.6090 C   0  0  0  0  0  3  0  0  0  0  0  0
  -16.5940  -28.0730   22.9470 C   0  0  0  0  0  3  0  0  0  0  0  0
  -25.7960  -32.2500   23.5490 C   0  0  0  0  0  3  0  0  0  0  0  0
  -25.5470  -33.6250   24.0070 N   0  0  0  0  0  0  0  0  0  0  0  0
  -25.8500  -34.7270   23.3060 C   0  0  0  0  0  0  0  0  0  0  0  0
  -26.4410  -34.6940   22.2250 O   0  0  0  0  0  0  0  0  0  0  0  0
  -25.0210  -33.7300   24.8610 H   0  0  0  0  0  0  0  0  0  0  0  0
  -24.1430  -36.5700   23.2110 C   0  0  0  0  0  1  0  0  0  0  0  0
  -25.4260  -36.0840   23.9030 C   0  0  0  0  0  3  0  0  0  0  0  0
  -27.6250  -36.8650   24.6650 C   0  0  0  0  0  1  0  0  0  0  0  0
  -26.4740  -37.1230   23.8030 N   0  0  0  0  0  0  0  0  0  0  0  0
  -26.0990  -38.0380   24.0370 H   0  0  0  0  0  0  0  0  0  0  0  0
  -26.4130  -31.3800   24.7140 C   0  0  1  0  0  0  0  0  0  0  0  0
  -25.4120  -31.0760   25.8550 C   0  0  0  0  0  1  0  0  0  0  0  0
  -26.9440  -30.0280   24.1800 C   0  0  0  0  0  1  0  0  0  0  0  0
  -27.6320  -32.1120   25.3290 C   0  0  0  0  0  1  0  0  0  0  0  0
  1  6  2  0
  1  3  1  0
  2  4  2  0
  3  5  2  0
  4  7  1  0
  5  4  1  0
  5  8  1  0
  6  2  1  0
  9  3  1  0
  9 10  2  0
 10 11  1  0
 12  9  1  0
 13 18  1  0
 14 15  1  0
 14 13  1  0
 16 15  1  0
 16 23  1  0
 16 17  1  0
 18 12  1  0
 18 17  1  0
 19 12  2  0
 20 21  2  0
 21 40  1  0
 22 25  1  0
 22 21  1  0
 23 24  1  0
 23 20  1  0
 24 22  2  0
 25 26  1  0
 26 27  2  0
 28 31  1  0
 28 27  1  0
 29 28  2  0
 30 29  1  0
 30 25  2  0
 31 32  1  0
 32 33  1  0
 33 34  2  0
 35 34  1  0
 35 39  1  0
 36 35  2  0
 37 32  2  0
 37 36  1  0
 38 37  1  0
 40 41  1  0
 41 43  1  0
 41 44  1  0
 42 40  2  0
 45 20  1  0
 45 46  1  0
 47 45  1  0
 48  6  1  0
 49 48  1  0
 49 50  2  0
 51 50  1  0
 52 51  2  0
 52 53  1  0
 53 55  1  0
 54 65  2  0
 55 60  1  0
 56 64  1  0
 56 66  1  0
 57 63  1  0
 57 59  1  0
 58 64  1  0
 59 58  1  0
 60 59  2  0
 61 62  1  0
 61 55  2  0
 62 57  2  0
 63 56  1  0
 64 54  1  0
 66 68  2  0
 67 66  1  0
 69 67  1  0
 70 79  2  0
 70 75  1  0
 71 67  1  0
 71 75  1  0
 72 71  1  0
 73 74  1  0
 73 72  1  0
 74 70  1  0
 75 76  2  0
 76 77  1  0
 78 77  2  0
 79 78  1  0
 80 54  1  0
 80 81  1  0
 80 90  1  0
 81 84  1  0
 82 86  1  0
 82 81  1  0
 83 82  2  0
 86 85  1  0
 88 86  1  0
 88 89  1  0
 88 87  1  0
 90 93  1  1
 90 91  1  0
 92 90  1  0
M  ISO  4   9 100  12 100  52 101  53 101
M  END
>  <TORSDO>  (85) 
F 22

>  <SCORE>  (85) 
-9.484

>  <name>  (85) 
84

>  <ligand_id>  (85) 
84

>  <original_smiles>  (85) 
[H]N=C(C(=O)N1C([H])([H])C([H])([H])C([H])([H])C([H])(n2nc(-c3c([H])c([H])c(Oc4c([H])c([H])c(F)c([H])c4F)c([H])c3[H])c(C(=O)N([H])[H])c2N([H])[H])C1([H])[H])c1c([H])c(OC([H])([H])C([H])([H])C([H])([H])C([H])([H])Oc2c([H])c([H])c3c(c2[H])C([H])([H])N(C(=O)C([H])(N([H])C(=O)C([H])(N([H])C([H])([H])[H])C([H])([H])[H])C(C([H])([H])[H])(C([H])([H])[H])C([H])([H])[H])C([H])(C(=O)N([H])C2([H])c4c([H])c([H])c([H])c([H])c4C([H])([H])C([H])([H])C2([H])[H])C3([H])[H])c([H])c(C([H])([H])[H])c1C([H])([H])[H]

>  <smiles>  (85) 
[H]N=C(C(=O)N1C([H])([H])C([H])([H])C([H])([H])C([H])(n2nc(-c3c([H])c([H])c(Oc4c([H])c([H])c(F)c([H])c4F)c([H])c3[H])c(C(=O)N([H])[H])c2N([H])[H])C1([H])[H])c1c([H])c(OC([H])([H])C([H])([H])C([H])([H])C([H])([H])Oc2c([H])c([H])c3c(c2[H])C([H])([H])N(C(=O)C([H])(N([H])C(=O)C([H])(N([H])C([H])([H])[H])C([H])([H])[H])C(C([H])([H])[H])(C([H])([H])[H])C([H])([H])[H])C([H])(C(=O)N([H])C2([H])c4c([H])c([H])c([H])c([H])c4C([H])([H])C([H])([H])C2([H])[H])C3([H])[H])c([H])c(C([H])([H])[H])c1C([H])([H])[H]

$$$$
85:0:0
     RDKit          3D

 95103  0  0  1  0  0  0  0  0999 V2000
  -31.0180  -19.0450   23.8080 C   0  0  0  0  0  3  0  0  0  0  0  0
  -31.7090  -20.0240   21.2750 C   0  0  0  0  0  3  0  0  0  0  0  0
  -31.5300  -18.1440   22.8490 C   0  0  0  0  0  0  0  0  0  0  0  0
  -31.8300  -18.6300   21.5460 C   0  0  0  0  0  0  0  0  0  0  0  0
  -30.8550  -20.4100   23.5200 C   0  0  0  0  0  0  0  0  0  0  0  0
  -31.2400  -20.9290   22.2650 C   0  0  0  0  0  0  0  0  0  0  0  0
  -28.9640  -21.4860   24.3890 C   0  0  0  0  0  1  0  0  0  0  0  0
  -30.3570  -21.2230   24.5070 O   0  0  0  0  0  0  0  0  0  0  0  0
  -31.1120  -16.0920   24.2430 C   0  0  0  0  0  2  0  0  0  0  0  0
  -31.7140  -16.7260   23.2220 C   0  0  0  0  0  3  0  0  0  0  0  0
  -32.3340  -17.6930   20.4350 C   0  0  0  0  0  2  0  0  0  0  0  0
  -32.4660  -15.2250   20.0640 C   0  0  0  0  0  0  0  0  0  0  0  0
  -32.1070  -12.9320   19.2250 C   0  0  0  0  0  2  0  0  0  0  0  0
  -31.1790  -12.9870   17.9950 C   0  0  0  0  0  2  0  0  0  0  0  0
  -29.7000  -12.9530   18.4250 C   0  0  0  0  0  2  0  0  0  0  0  0
  -29.3800  -13.9750   19.5490 C   0  0  0  0  0  3  0  0  0  0  0  0
  -30.4200  -13.8870   20.6900 C   0  0  0  0  0  2  0  0  0  0  0  0
  -31.7570  -14.0640   20.0960 N   0  0  0  0  0  0  0  0  0  0  0  0
  -33.5910  -15.3110   19.5640 O   0  0  0  0  0  0  0  0  0  0  0  0
  -31.8130  -16.3200   20.4880 N   0  0  0  0  0  0  0  0  0  0  0  0
  -30.8810  -16.1930   20.8510 H   0  0  0  0  0  0  0  0  0  0  0  0
  -27.0470  -14.7770   20.2850 C   0  0  0  0  0  0  0  0  0  0  0  0
  -25.9270  -14.0940   20.6730 C   0  0  0  0  0  0  0  0  0  0  0  0
  -26.2780  -12.7100   20.6450 C   0  0  0  0  0  0  0  0  0  0  0  0
  -28.0160  -13.8130   20.0470 N   0  0  0  0  0  0  0  0  0  0  0  0
  -27.5550  -12.5650   20.3200 N   0  0  0  0  0  0  0  0  0  0  0  0
  -25.4560  -11.5100   20.8530 C   0  0  0  0  0  0  0  0  0  0  0  0
  -25.6900  -10.6330   21.9340 C   0  0  0  0  0  3  0  0  0  0  0  0
  -24.8750   -9.4960   22.1230 C   0  0  0  0  0  3  0  0  0  0  0  0
  -23.8110   -9.2290   21.2290 C   0  0  0  0  0  0  0  0  0  0  0  0
  -23.5960  -10.0950   20.1420 C   0  0  0  0  0  3  0  0  0  0  0  0
  -24.4120  -11.2210   19.9510 C   0  0  0  0  0  3  0  0  0  0  0  0
  -22.9840   -8.1360   21.3190 O   0  0  0  0  0  0  0  0  0  0  0  0
  -22.4670   -7.7220   22.5210 C   0  0  0  0  0  0  0  0  0  0  0  0
  -21.6940   -8.5810   23.3340 C   0  0  0  0  0  3  0  0  0  0  0  0
  -21.1220   -8.0940   24.5270 C   0  0  0  0  0  3  0  0  0  0  0  0
  -21.3130   -6.7500   24.9030 C   0  0  0  0  0  0  0  0  0  0  0  0
  -22.0770   -5.8930   24.0920 C   0  0  0  0  0  3  0  0  0  0  0  0
  -22.6490   -6.3780   22.9020 C   0  0  0  0  0  0  0  0  0  0  0  0
  -23.3670   -5.5430   22.1140 F   0  0  0  0  0  0  0  0  0  0  0  0
  -20.7580   -6.2810   26.0440 F   0  0  0  0  0  0  0  0  0  0  0  0
  -24.5760  -14.6830   20.9630 C   0  0  0  0  0  0  0  0  0  0  0  0
  -23.8180  -14.0640   21.8610 N   0  0  0  0  0  0  0  0  0  0  0  0
  -24.2040  -15.7260   20.4270 O   0  0  0  0  0  0  0  0  0  0  0  0
  -24.1340  -13.2190   22.3160 H   0  0  0  0  0  0  0  0  0  0  0  0
  -22.9120  -14.4400   22.0990 H   0  0  0  0  0  0  0  0  0  0  0  0
  -27.3180  -16.1290   20.0940 N   0  0  0  0  0  0  0  0  0  0  0  0
  -26.6060  -16.8410   20.2030 H   0  0  0  0  0  0  0  0  0  0  0  0
  -28.1970  -16.4960   19.7540 H   0  0  0  0  0  0  0  0  0  0  0  0
  -31.1380  -22.3030   22.1300 O   0  0  0  0  0  0  0  0  0  0  0  0
  -31.3150  -22.9660   20.8830 C   0  0  0  0  0  2  0  0  0  0  0  0
  -31.6340  -25.5230   20.7630 C   0  0  0  0  0  3  0  0  0  0  0  0
  -30.9070  -24.4270   21.0720 C   0  0  0  0  0  3  0  0  0  0  0  0
  -31.2190  -26.9540   21.1000 C   0  0  0  0  0  2  0  0  0  0  0  0
  -30.8280  -27.7350   19.9640 O   0  0  0  0  0  0  0  0  0  0  0  0
  -25.8640  -30.8730   23.9920 C   0  0  0  0  0  0  0  0  0  0  0  0
  -29.5310  -28.1790   20.0670 C   0  0  0  0  0  0  0  0  0  0  0  0
  -25.0430  -29.6400   22.0090 C   0  0  0  0  0  3  0  0  0  0  0  0
  -26.8250  -28.9410   20.3220 C   0  0  0  0  0  0  0  0  0  0  0  0
  -27.3710  -30.6990   22.0140 C   0  0  0  0  0  2  0  0  0  0  0  0
  -27.8100  -29.5960   21.0740 C   0  0  0  0  0  0  0  0  0  0  0  0
  -29.1670  -29.2210   20.9500 C   0  0  0  0  0  3  0  0  0  0  0  0
  -28.5340  -27.5360   19.3070 C   0  0  0  0  0  3  0  0  0  0  0  0
  -27.1820  -27.9090   19.4340 C   0  0  0  0  0  3  0  0  0  0  0  0
  -25.3970  -29.3950   20.5180 C   0  0  0  0  0  2  0  0  0  0  0  0
  -26.1070  -30.4080   22.7340 N   0  0  0  0  0  0  0  0  0  0  0  0
  -24.7630  -30.7090   24.5350 O   0  0  0  0  0  0  0  0  0  0  0  0
  -24.7110  -28.2830   22.6710 C   0  0  0  0  0  0  0  0  0  0  0  0
  -23.5650  -27.6950   22.2900 N   0  0  0  0  0  0  0  0  0  0  0  0
  -25.4850  -27.7690   23.4830 O   0  0  0  0  0  0  0  0  0  0  0  0
  -22.9840  -28.1820   21.6210 H   0  0  0  0  0  0  0  0  0  0  0  0
  -20.9040  -25.2860   21.8810 C   0  0  0  0  0  0  0  0  0  0  0  0
  -23.0690  -26.3990   22.7500 C   0  0  0  0  0  3  0  0  0  0  0  0
  -23.8220  -25.2380   22.0600 C   0  0  0  0  0  2  0  0  0  0  0  0
  -23.1230  -24.7350   20.7930 C   0  0  0  0  0  2  0  0  0  0  0  0
  -21.7080  -24.2440   21.1190 C   0  0  0  0  0  2  0  0  0  0  0  0
  -21.5440  -26.3060   22.6340 C   0  0  0  0  0  0  0  0  0  0  0  0
  -20.7510  -27.2690   23.2940 C   0  0  0  0  0  3  0  0  0  0  0  0
  -19.3460  -27.2230   23.2130 C   0  0  0  0  0  3  0  0  0  0  0  0
  -18.7180  -26.2010   22.4800 C   0  0  0  0  0  3  0  0  0  0  0  0
  -19.4960  -25.2340   21.8200 C   0  0  0  0  0  3  0  0  0  0  0  0
  -26.9500  -31.6540   24.7980 C   0  0  0  0  0  3  0  0  0  0  0  0
  -26.3560  -32.9330   25.2130 N   0  0  0  0  0  0  0  0  0  0  0  0
  -26.5910  -34.1080   24.6130 C   0  0  0  0  0  0  0  0  0  0  0  0
  -27.3960  -34.2380   23.6870 O   0  0  0  0  0  0  0  0  0  0  0  0
  -25.6510  -32.8940   25.9330 H   0  0  0  0  0  0  0  0  0  0  0  0
  -24.6560  -35.6470   24.1560 C   0  0  0  0  0  1  0  0  0  0  0  0
  -25.8090  -35.3340   25.1230 C   0  0  0  0  0  3  0  0  0  0  0  0
  -27.6300  -36.4020   26.3740 C   0  0  0  0  0  1  0  0  0  0  0  0
  -26.6510  -36.5370   25.2990 N   0  0  0  0  0  0  0  0  0  0  0  0
  -26.0770  -37.3530   25.4960 H   0  0  0  0  0  0  0  0  0  0  0  0
  -27.4900  -30.8570   26.0490 C   0  0  1  0  0  0  0  0  0  0  0  0
  -26.3730  -30.2790   26.9490 C   0  0  0  0  0  1  0  0  0  0  0  0
  -28.3880  -29.6800   25.6000 C   0  0  0  0  0  1  0  0  0  0  0  0
  -28.3780  -31.7810   26.9160 C   0  0  0  0  0  1  0  0  0  0  0  0
  2  4  2  0
  2  6  1  0
  3 10  1  0
  3  1  2  0
  4  3  1  0
  5  1  1  0
  5  8  1  0
  6  5  2  0
  7  8  1  0
 10  9  2  0
 11 20  1  0
 11  4  1  0
 12 18  1  0
 12 20  1  0
 13 18  1  0
 14 15  1  0
 14 13  1  0
 16 15  1  0
 16 25  1  0
 16 17  1  0
 18 17  1  0
 19 12  2  0
 20 21  1  0
 22 23  2  0
 23 42  1  0
 24 23  1  0
 24 27  1  0
 25 22  1  0
 25 26  1  0
 26 24  2  0
 27 28  1  0
 28 29  2  0
 30 33  1  0
 30 29  1  0
 31 30  2  0
 32 31  1  0
 32 27  2  0
 33 34  1  0
 34 39  2  0
 34 35  1  0
 35 36  2  0
 36 37  1  0
 37 41  1  0
 38 37  2  0
 39 38  1  0
 40 39  1  0
 42 43  1  0
 43 46  1  0
 43 45  1  0
 44 42  2  0
 47 48  1  0
 47 22  1  0
 49 47  1  0
 50  6  1  0
 51 53  1  0
 51 50  1  0
 52 53  2  0
 52 54  1  0
 55 57  1  0
 55 54  1  0
 56 67  2  0
 57 62  1  0
 58 68  1  0
 58 66  1  0
 59 65  1  0
 59 61  1  0
 60 66  1  0
 61 60  1  0
 62 61  2  0
 63 64  1  0
 63 57  2  0
 64 59  2  0
 65 58  1  0
 66 56  1  0
 68 70  2  0
 69 68  1  0
 71 69  1  0
 72 77  1  0
 73 69  1  0
 74 73  1  0
 75 76  1  0
 75 74  1  0
 76 72  1  0
 77 73  1  0
 77 78  2  0
 79 78  1  0
 80 79  2  0
 81 72  2  0
 81 80  1  0
 82 56  1  0
 82 83  1  0
 82 92  1  0
 83 86  1  0
 84 88  1  0
 84 83  1  0
 85 84  2  0
 88 87  1  0
 88 90  1  0
 90 91  1  0
 90 89  1  0
 92 95  1  1
 92 93  1  0
 94 92  1  0
M  ISO  4  12 100  20 100  54 101  55 101
M  END
>  <TORSDO>  (86) 
F 23

>  <SCORE>  (86) 
1.634

>  <name>  (86) 
85

>  <ligand_id>  (86) 
85

>  <original_smiles>  (86) 
[H]C([H])=C([H])c1c([H])c(OC([H])([H])[H])c(OC([H])([H])C([H])=C([H])C([H])([H])Oc2c([H])c([H])c3c(c2[H])C([H])([H])N(C(=O)C([H])(N([H])C(=O)C([H])(N([H])C([H])([H])[H])C([H])([H])[H])C(C([H])([H])[H])(C([H])([H])[H])C([H])([H])[H])C([H])(C(=O)N([H])C2([H])c4c([H])c([H])c([H])c([H])c4C([H])([H])C([H])([H])C2([H])[H])C3([H])[H])c([H])c1C([H])([H])N([H])C(=O)N1C([H])([H])C([H])([H])C([H])([H])C([H])(n2nc(-c3c([H])c([H])c(Oc4c([H])c([H])c(F)c([H])c4F)c([H])c3[H])c(C(=O)N([H])[H])c2N([H])[H])C1([H])[H]

>  <smiles>  (86) 
[H]C([H])=C([H])c1c([H])c(OC([H])([H])[H])c(OC([H])([H])C([H])=C([H])C([H])([H])Oc2c([H])c([H])c3c(c2[H])C([H])([H])N(C(=O)C([H])(N([H])C(=O)C([H])(N([H])C([H])([H])[H])C([H])([H])[H])C(C([H])([H])[H])(C([H])([H])[H])C([H])([H])[H])C([H])(C(=O)N([H])C2([H])c4c([H])c([H])c([H])c([H])c4C([H])([H])C([H])([H])C2([H])[H])C3([H])[H])c([H])c1C([H])([H])N([H])C(=O)N1C([H])([H])C([H])([H])C([H])([H])C([H])(n2nc(-c3c([H])c([H])c(Oc4c([H])c([H])c(F)c([H])c4F)c([H])c3[H])c(C(=O)N([H])[H])c2N([H])[H])C1([H])[H]

$$$$
86:0:0
     RDKit          3D

101110  0  0  1  0  0  0  0  0999 V2000
  -30.5780  -24.8000   19.4030 C   0  0  0  0  0  3  0  0  0  0  0  0
  -29.4110  -24.2440   19.7990 C   0  0  0  0  0  0  0  0  0  0  0  0
  -31.8330  -24.0700   19.1860 C   0  0  0  0  0  0  0  0  0  0  0  0
  -31.8780  -22.8930   18.2120 C   0  0  0  0  0  2  0  0  0  0  0  0
  -30.5400  -22.1730   17.9990 C   0  0  0  0  0  2  0  0  0  0  0  0
  -29.2400  -22.6880   20.1170 C   0  0  0  0  0  3  0  0  0  0  0  0
  -27.7600  -22.2640   20.1910 C   0  0  0  0  0  1  0  0  0  0  0  0
  -29.9640  -21.6890   19.2570 N   0  0  0  0  0  0  0  0  0  0  0  0
  -32.8830  -24.4170   19.7330 O   0  0  0  0  0  0  0  0  0  0  0  0
  -30.2850  -19.3080   18.5370 C   0  0  0  0  0  3  0  0  0  0  0  0
  -30.1690  -19.7660   20.8800 C   0  0  0  0  0  3  0  0  0  0  0  0
  -30.4910  -17.9160   18.7760 C   0  0  0  0  0  0  0  0  0  0  0  0
  -30.1290  -20.2820   19.5600 C   0  0  0  0  0  0  0  0  0  0  0  0
  -30.5430  -17.4210   20.1150 C   0  0  0  0  0  0  0  0  0  0  0  0
  -30.3700  -18.3710   21.1640 C   0  0  0  0  0  0  0  0  0  0  0  0
  -31.3470  -14.9820   19.9190 C   0  0  0  0  0  0  0  0  0  0  0  0
  -31.1050  -12.7730   18.8140 C   0  0  0  0  0  2  0  0  0  0  0  0
  -30.0630  -12.9200   17.6810 C   0  0  0  0  0  2  0  0  0  0  0  0
  -28.6270  -12.7380   18.2150 C   0  0  0  0  0  2  0  0  0  0  0  0
  -28.3580  -13.5380   19.5170 C   0  0  0  0  0  3  0  0  0  0  0  0
  -29.5070  -13.3540   20.5350 C   0  0  0  0  0  2  0  0  0  0  0  0
  -30.7610  -13.7440   19.8710 N   0  0  0  0  0  0  0  0  0  0  0  0
  -32.4520  -15.1940   19.4100 O   0  0  0  0  0  0  0  0  0  0  0  0
  -30.5800  -15.9900   20.4280 N   0  0  0  0  0  0  0  0  0  0  0  0
  -29.7920  -15.6610   20.9620 H   0  0  0  0  0  0  0  0  0  0  0  0
  -26.0600  -14.0690   20.5380 C   0  0  0  0  0  0  0  0  0  0  0  0
  -25.0190  -13.2660   20.9170 C   0  0  0  0  0  0  0  0  0  0  0  0
  -25.4470  -11.9240   20.6760 C   0  0  0  0  0  0  0  0  0  0  0  0
  -27.0580  -13.2130   20.0970 N   0  0  0  0  0  0  0  0  0  0  0  0
  -26.6990  -11.9110   20.2390 N   0  0  0  0  0  0  0  0  0  0  0  0
  -24.7170  -10.6540   20.7850 C   0  0  0  0  0  0  0  0  0  0  0  0
  -25.0990   -9.6600   21.7120 C   0  0  0  0  0  3  0  0  0  0  0  0
  -24.3700   -8.4560   21.8120 C   0  0  0  0  0  3  0  0  0  0  0  0
  -23.2450   -8.2360   20.9830 C   0  0  0  0  0  0  0  0  0  0  0  0
  -22.8820   -9.2200   20.0450 C   0  0  0  0  0  3  0  0  0  0  0  0
  -23.6110  -10.4160   19.9440 C   0  0  0  0  0  3  0  0  0  0  0  0
  -22.4920   -7.0870   20.9910 O   0  0  0  0  0  0  0  0  0  0  0  0
  -22.1950   -6.4300   22.1590 C   0  0  0  0  0  0  0  0  0  0  0  0
  -21.4970   -7.0600   23.2120 C   0  0  0  0  0  3  0  0  0  0  0  0
  -21.1510   -6.3280   24.3650 C   0  0  0  0  0  3  0  0  0  0  0  0
  -21.4930   -4.9650   24.4630 C   0  0  0  0  0  0  0  0  0  0  0  0
  -22.1810   -4.3340   23.4120 C   0  0  0  0  0  3  0  0  0  0  0  0
  -22.5280   -5.0650   22.2620 C   0  0  0  0  0  0  0  0  0  0  0  0
  -23.1730   -4.4460   21.2420 F   0  0  0  0  0  0  0  0  0  0  0  0
  -21.1540   -4.2590   25.5660 F   0  0  0  0  0  0  0  0  0  0  0  0
  -23.6650  -13.7180   21.3830 C   0  0  0  0  0  0  0  0  0  0  0  0
  -23.0180  -12.9310   22.2370 N   0  0  0  0  0  0  0  0  0  0  0  0
  -23.1920  -14.7960   21.0260 O   0  0  0  0  0  0  0  0  0  0  0  0
  -23.4170  -12.0580   22.5470 H   0  0  0  0  0  0  0  0  0  0  0  0
  -22.1120  -13.2080   22.5880 H   0  0  0  0  0  0  0  0  0  0  0  0
  -26.2350  -15.4500   20.5100 N   0  0  0  0  0  0  0  0  0  0  0  0
  -25.4960  -16.0920   20.7780 H   0  0  0  0  0  0  0  0  0  0  0  0
  -27.0450  -15.9210   20.1280 H   0  0  0  0  0  0  0  0  0  0  0  0
  -30.9380  -17.3380   16.3520 C   0  0  0  0  0  2  0  0  0  0  0  0
  -30.6450  -17.0000   17.6220 C   0  0  0  0  0  3  0  0  0  0  0  0
  -30.4020  -17.8690   22.4510 O   0  0  0  0  0  0  0  0  0  0  0  0
  -30.1770  -18.7760   23.5240 C   0  0  0  0  0  2  0  0  0  0  0  0
  -29.4340  -18.8190   25.9590 C   0  0  0  0  0  1  0  0  0  0  0  0
  -30.0680  -17.9920   24.8330 C   0  0  0  0  0  2  0  0  0  0  0  0
  -28.2010  -25.2150   20.0410 C   0  0  0  0  0  2  0  0  0  0  0  0
  -28.3910  -26.6730   19.8230 O   0  0  0  0  0  0  0  0  0  0  0  0
  -24.5610  -31.8310   23.1400 C   0  0  0  0  0  0  0  0  0  0  0  0
  -27.2440  -27.4790   19.8580 C   0  0  0  0  0  0  0  0  0  0  0  0
  -23.3600  -30.4400   21.4920 C   0  0  0  0  0  3  0  0  0  0  0  0
  -24.8210  -28.9930   19.9740 C   0  0  0  0  0  0  0  0  0  0  0  0
  -25.8790  -30.8600   21.2440 C   0  0  0  0  0  2  0  0  0  0  0  0
  -25.9890  -29.5070   20.5550 C   0  0  0  0  0  0  0  0  0  0  0  0
  -27.2030  -28.7600   20.4920 C   0  0  0  0  0  3  0  0  0  0  0  0
  -26.0550  -27.0330   19.2360 C   0  0  0  0  0  3  0  0  0  0  0  0
  -24.8560  -27.7620   19.3060 C   0  0  0  0  0  3  0  0  0  0  0  0
  -23.5540  -29.8150   20.0860 C   0  0  0  0  0  2  0  0  0  0  0  0
  -24.6190  -31.0600   22.0150 N   0  0  0  0  0  0  0  0  0  0  0  0
  -23.4870  -32.0490   23.7160 O   0  0  0  0  0  0  0  0  0  0  0  0
  -22.7670  -29.3690   22.4370 C   0  0  0  0  0  0  0  0  0  0  0  0
  -21.4510  -29.1180   22.3180 N   0  0  0  0  0  0  0  0  0  0  0  0
  -23.4880  -28.7670   23.2380 O   0  0  0  0  0  0  0  0  0  0  0  0
  -20.9250  -29.6610   21.6460 H   0  0  0  0  0  0  0  0  0  0  0  0
  -18.1640  -27.6850   22.7800 C   0  0  0  0  0  0  0  0  0  0  0  0
  -20.6950  -28.1230   23.0780 C   0  0  0  0  0  3  0  0  0  0  0  0
  -20.9030  -26.7040   22.5020 C   0  0  0  0  0  2  0  0  0  0  0  0
  -19.8380  -26.3060   21.4750 C   0  0  0  0  0  2  0  0  0  0  0  0
  -18.4430  -26.3520   22.1040 C   0  0  0  0  0  2  0  0  0  0  0  0
  -19.2210  -28.5220   23.2240 C   0  0  0  0  0  0  0  0  0  0  0  0
  -18.9080  -29.7650   23.8160 C   0  0  0  0  0  3  0  0  0  0  0  0
  -17.5710  -30.1730   23.9700 C   0  0  0  0  0  3  0  0  0  0  0  0
  -16.5270  -29.3330   23.5440 C   0  0  0  0  0  3  0  0  0  0  0  0
  -16.8240  -28.0900   22.9560 C   0  0  0  0  0  3  0  0  0  0  0  0
  -25.8400  -32.4920   23.7410 C   0  0  0  0  0  3  0  0  0  0  0  0
  -25.4960  -33.8750   24.0990 N   0  0  0  0  0  0  0  0  0  0  0  0
  -25.8080  -34.9520   23.3650 C   0  0  0  0  0  0  0  0  0  0  0  0
  -26.4850  -34.8860   22.3350 O   0  0  0  0  0  0  0  0  0  0  0  0
  -24.8920  -33.9970   24.8980 H   0  0  0  0  0  0  0  0  0  0  0  0
  -24.0500  -36.7220   23.0310 C   0  0  0  0  0  1  0  0  0  0  0  0
  -25.2870  -36.3200   23.8490 C   0  0  0  0  0  3  0  0  0  0  0  0
  -27.3880  -37.2290   24.7410 C   0  0  0  0  0  1  0  0  0  0  0  0
  -26.3010  -37.3950   23.7790 N   0  0  0  0  0  0  0  0  0  0  0  0
  -25.8730  -38.3030   23.9370 H   0  0  0  0  0  0  0  0  0  0  0  0
  -26.4080  -31.7180   24.9940 C   0  0  1  0  0  0  0  0  0  0  0  0
  -25.3460  -31.4300   26.0820 C   0  0  0  0  0  1  0  0  0  0  0  0
  -27.0210  -30.3640   24.5690 C   0  0  0  0  0  1  0  0  0  0  0  0
  -27.5490  -32.5360   25.6440 C   0  0  0  0  0  1  0  0  0  0  0  0
  1  2  2  0
  2 60  1  0
  2  6  1  0
  3  1  1  0
  3  9  2  0
  4  3  1  0
  5  4  1  0
  5  8  1  0
  6  7  1  0
  8 13  1  0
  8  6  1  0
 10 12  2  0
 10 13  1  0
 11 15  1  0
 12 14  1  0
 13 11  2  0
 14 24  1  0
 14 15  2  0
 15 56  1  0
 16 24  1  0
 17 22  1  0
 18 19  1  0
 18 17  1  0
 20 19  1  0
 20 29  1  0
 20 21  1  0
 22 16  1  0
 22 21  1  0
 23 16  2  0
 24 25  1  0
 26 27  2  0
 27 46  1  0
 28 31  1  0
 28 27  1  0
 29 30  1  0
 29 26  1  0
 30 28  2  0
 31 32  1  0
 32 33  2  0
 34 37  1  0
 34 33  1  0
 35 34  2  0
 36 35  1  0
 36 31  2  0
 37 38  1  0
 38 43  2  0
 38 39  1  0
 39 40  2  0
 40 41  1  0
 41 45  1  0
 42 41  2  0
 43 42  1  0
 44 43  1  0
 46 47  1  0
 47 49  1  0
 47 50  1  0
 48 46  2  0
 51 26  1  0
 51 52  1  0
 53 51  1  0
 54 55  2  0
 55 12  1  0
 56 57  1  0
 57 59  1  0
 59 58  1  0
 61 63  1  0
 61 60  1  0
 62 73  2  0
 63 68  1  0
 64 72  1  0
 64 74  1  0
 65 71  1  0
 65 67  1  0
 66 72  1  0
 67 66  1  0
 68 67  2  0
 69 70  1  0
 69 63  2  0
 70 65  2  0
 71 64  1  0
 72 62  1  0
 74 76  2  0
 75 74  1  0
 77 75  1  0
 78 87  2  0
 78 83  1  0
 79 75  1  0
 79 83  1  0
 80 79  1  0
 81 82  1  0
 81 80  1  0
 82 78  1  0
 83 84  2  0
 84 85  1  0
 86 85  2  0
 87 86  1  0
 88 62  1  0
 88 89  1  0
 88 98  1  0
 89 92  1  0
 90 94  1  0
 90 89  1  0
 91 90  2  0
 94 93  1  0
 96 94  1  0
 96 97  1  0
 96 95  1  0
 98101  1  1
 98 99  1  0
100 98  1  0
M  ISO  4  16 100  24 100  60 101  61 101
M  END
>  <TORSDO>  (87) 
F 22

>  <SCORE>  (87) 
-6.482

>  <name>  (87) 
86

>  <ligand_id>  (87) 
86

>  <original_smiles>  (87) 
[H]C([H])=C([H])c1c([H])c(N2C([H])([H])C([H])([H])C(=O)C([H])=C(C([H])([H])Oc3c([H])c([H])c4c(c3[H])C([H])([H])N(C(=O)C([H])(N([H])C(=O)C([H])(N([H])C([H])([H])[H])C([H])([H])[H])C(C([H])([H])[H])(C([H])([H])[H])C([H])([H])[H])C([H])(C(=O)N([H])C3([H])c5c([H])c([H])c([H])c([H])c5C([H])([H])C([H])([H])C3([H])[H])C4([H])[H])C2([H])C([H])([H])[H])c([H])c(OC([H])([H])C([H])([H])C([H])([H])[H])c1N([H])C(=O)N1C([H])([H])C([H])([H])C([H])([H])C([H])(n2nc(-c3c([H])c([H])c(Oc4c([H])c([H])c(F)c([H])c4F)c([H])c3[H])c(C(=O)N([H])[H])c2N([H])[H])C1([H])[H]

>  <smiles>  (87) 
[H]C([H])=C([H])c1c([H])c(N2C([H])([H])C([H])([H])C(=O)C([H])=C(C([H])([H])Oc3c([H])c([H])c4c(c3[H])C([H])([H])N(C(=O)C([H])(N([H])C(=O)C([H])(N([H])C([H])([H])[H])C([H])([H])[H])C(C([H])([H])[H])(C([H])([H])[H])C([H])([H])[H])C([H])(C(=O)N([H])C3([H])c5c([H])c([H])c([H])c([H])c5C([H])([H])C([H])([H])C3([H])[H])C4([H])[H])C2([H])C([H])([H])[H])c([H])c(OC([H])([H])C([H])([H])C([H])([H])[H])c1N([H])C(=O)N1C([H])([H])C([H])([H])C([H])([H])C([H])(n2nc(-c3c([H])c([H])c(Oc4c([H])c([H])c(F)c([H])c4F)c([H])c3[H])c(C(=O)N([H])[H])c2N([H])[H])C1([H])[H]

$$$$
87:0:0
     RDKit          3D

 94102  0  0  1  0  0  0  0  0999 V2000
  -30.5930  -19.6910   20.4240 C   0  0  0  0  0  3  0  0  0  0  0  0
  -28.2690  -19.0670   20.4710 C   0  0  0  0  0  3  0  0  0  0  0  0
  -30.9740  -18.3070   20.4250 C   0  0  0  0  0  0  0  0  0  0  0  0
  -29.2290  -20.0960   20.3840 C   0  0  0  0  0  0  0  0  0  0  0  0
  -29.9890  -17.2670   20.4520 C   0  0  0  0  0  0  0  0  0  0  0  0
  -28.6400  -17.7000   20.5250 C   0  0  0  0  0  0  0  0  0  0  0  0
  -32.4440  -17.9590   20.2590 C   0  0  0  0  0  1  0  0  0  0  0  0
  -27.6660  -16.7690   20.5230 F   0  0  0  0  0  0  0  0  0  0  0  0
  -30.8230  -14.8120   20.6470 C   0  0  0  0  0  0  0  0  0  0  0  0
  -30.6960  -12.4580   19.8650 C   0  0  0  0  0  2  0  0  0  0  0  0
  -29.8510  -12.3060   18.5810 C   0  0  0  0  0  2  0  0  0  0  0  0
  -28.3350  -12.2800   18.8880 C   0  0  0  0  0  2  0  0  0  0  0  0
  -27.8590  -13.2640   19.9950 C   0  0  0  0  0  3  0  0  0  0  0  0
  -28.8400  -13.3060   21.1800 C   0  0  0  0  0  2  0  0  0  0  0  0
  -30.1670  -13.6020   20.6290 N   0  0  0  0  0  0  0  0  0  0  0  0
  -32.0490  -14.8300   20.7200 O   0  0  0  0  0  0  0  0  0  0  0  0
  -30.1930  -15.8790   20.0070 N   0  0  0  0  0  0  0  0  0  0  0  0
  -25.4150  -13.8520   20.5380 C   0  0  0  0  0  0  0  0  0  0  0  0
  -24.3280  -13.0780   20.8470 C   0  0  0  0  0  0  0  0  0  0  0  0
  -24.8090  -11.7360   20.9020 C   0  0  0  0  0  0  0  0  0  0  0  0
  -26.4870  -12.9820   20.4150 N   0  0  0  0  0  0  0  0  0  0  0  0
  -26.1220  -11.7060   20.7060 N   0  0  0  0  0  0  0  0  0  0  0  0
  -24.0840  -10.4700   21.0740 C   0  0  0  0  0  0  0  0  0  0  0  0
  -24.4700   -9.5290   22.0530 C   0  0  0  0  0  3  0  0  0  0  0  0
  -23.7470   -8.3260   22.2120 C   0  0  0  0  0  3  0  0  0  0  0  0
  -22.6250   -8.0580   21.3930 C   0  0  0  0  0  0  0  0  0  0  0  0
  -22.2610   -8.9880   20.4030 C   0  0  0  0  0  3  0  0  0  0  0  0
  -22.9830  -10.1820   20.2430 C   0  0  0  0  0  3  0  0  0  0  0  0
  -21.8780   -6.9080   21.4590 O   0  0  0  0  0  0  0  0  0  0  0  0
  -21.7750   -6.1800   22.6180 C   0  0  0  0  0  0  0  0  0  0  0  0
  -21.2840   -6.7460   23.8150 C   0  0  0  0  0  3  0  0  0  0  0  0
  -21.1340   -5.9410   24.9620 C   0  0  0  0  0  3  0  0  0  0  0  0
  -21.4640   -4.5740   24.9120 C   0  0  0  0  0  0  0  0  0  0  0  0
  -21.9500   -4.0100   23.7200 C   0  0  0  0  0  3  0  0  0  0  0  0
  -22.1030   -4.8100   22.5760 C   0  0  0  0  0  0  0  0  0  0  0  0
  -22.5510   -4.2560   21.4230 F   0  0  0  0  0  0  0  0  0  0  0  0
  -21.3120   -3.8000   26.0130 F   0  0  0  0  0  0  0  0  0  0  0  0
  -22.9100  -13.5470   20.9870 C   0  0  0  0  0  0  0  0  0  0  0  0
  -22.1220  -12.8790   21.8220 N   0  0  0  0  0  0  0  0  0  0  0  0
  -22.5050  -14.5440   20.3920 O   0  0  0  0  0  0  0  0  0  0  0  0
  -22.4610  -12.0730   22.3250 H   0  0  0  0  0  0  0  0  0  0  0  0
  -21.1660  -13.1710   21.9550 H   0  0  0  0  0  0  0  0  0  0  0  0
  -25.5680  -15.2130   20.3320 N   0  0  0  0  0  0  0  0  0  0  0  0
  -24.8010  -15.8680   20.4040 H   0  0  0  0  0  0  0  0  0  0  0  0
  -26.4630  -15.6760   20.1820 H   0  0  0  0  0  0  0  0  0  0  0  0
  -30.4440  -16.7110   17.6810 C   0  0  0  0  0  2  0  0  0  0  0  0
  -30.0870  -15.7870   18.6000 C   0  0  0  0  0  3  0  0  0  0  0  0
  -29.0100  -22.6550   20.6190 C   0  0  0  0  0  0  0  0  0  0  0  0
  -28.7780  -21.4400   20.0490 N   0  0  0  0  0  0  0  0  0  0  0  0
  -29.6290  -22.7670   21.6790 O   0  0  0  0  0  0  0  0  0  0  0  0
  -28.1310  -21.4830   19.2710 H   0  0  0  0  0  0  0  0  0  0  0  0
  -28.4770  -23.9410   19.8800 C   0  0  0  0  0  2  0  0  0  0  0  0
  -28.0360  -25.1990   20.7350 C   0  0  0  0  0  2  0  0  0  0  0  0
  -28.2080  -26.5280   20.1220 O   0  0  0  0  0  0  0  0  0  0  0  0
  -24.5640  -31.8940   23.2060 C   0  0  0  0  0  0  0  0  0  0  0  0
  -27.0960  -27.3610   20.1070 C   0  0  0  0  0  0  0  0  0  0  0  0
  -23.3280  -30.5180   21.5670 C   0  0  0  0  0  3  0  0  0  0  0  0
  -24.7500  -28.9660   20.1180 C   0  0  0  0  0  0  0  0  0  0  0  0
  -25.8660  -30.8220   21.3610 C   0  0  0  0  0  2  0  0  0  0  0  0
  -25.9260  -29.4510   20.7060 C   0  0  0  0  0  0  0  0  0  0  0  0
  -27.1060  -28.6590   20.6900 C   0  0  0  0  0  3  0  0  0  0  0  0
  -25.9060  -26.9140   19.4960 C   0  0  0  0  0  3  0  0  0  0  0  0
  -24.7390  -27.7030   19.5040 C   0  0  0  0  0  3  0  0  0  0  0  0
  -23.5210  -29.8490   20.1810 C   0  0  0  0  0  2  0  0  0  0  0  0
  -24.6050  -31.0950   22.1010 N   0  0  0  0  0  0  0  0  0  0  0  0
  -23.4900  -32.1780   23.7540 O   0  0  0  0  0  0  0  0  0  0  0  0
  -22.6670  -29.5000   22.5240 C   0  0  0  0  0  0  0  0  0  0  0  0
  -21.3380  -29.3440   22.4150 N   0  0  0  0  0  0  0  0  0  0  0  0
  -23.3500  -28.8540   23.3250 O   0  0  0  0  0  0  0  0  0  0  0  0
  -20.8470  -29.9170   21.7420 H   0  0  0  0  0  0  0  0  0  0  0  0
  -17.9490  -28.2040   22.9470 C   0  0  0  0  0  0  0  0  0  0  0  0
  -20.5150  -28.4140   23.1890 C   0  0  0  0  0  3  0  0  0  0  0  0
  -20.5830  -26.9850   22.6040 C   0  0  0  0  0  2  0  0  0  0  0  0
  -19.4670  -26.6920   21.5960 C   0  0  0  0  0  2  0  0  0  0  0  0
  -18.0920  -26.8600   22.2520 C   0  0  0  0  0  2  0  0  0  0  0  0
  -19.0880  -28.9420   23.3690 C   0  0  0  0  0  0  0  0  0  0  0  0
  -18.8990  -30.2040   23.9740 C   0  0  0  0  0  3  0  0  0  0  0  0
  -17.6060  -30.7280   24.1590 C   0  0  0  0  0  3  0  0  0  0  0  0
  -16.4830  -29.9860   23.7570 C   0  0  0  0  0  3  0  0  0  0  0  0
  -16.6550  -28.7270   23.1540 C   0  0  0  0  0  3  0  0  0  0  0  0
  -25.8610  -32.5080   23.8190 C   0  0  0  0  0  3  0  0  0  0  0  0
  -26.3920  -31.7120   25.0730 C   0  0  1  0  0  0  0  0  0  0  0  0
  -25.3160  -31.4690   26.1560 C   0  0  0  0  0  1  0  0  0  0  0  0
  -26.9530  -30.3330   24.6500 C   0  0  0  0  0  1  0  0  0  0  0  0
  -27.5610  -32.4850   25.7280 C   0  0  0  0  0  1  0  0  0  0  0  0
  -25.5650  -33.9020   24.1800 N   0  0  0  0  0  0  0  0  0  0  0  0
  -25.9000  -34.9690   23.4440 C   0  0  0  0  0  0  0  0  0  0  0  0
  -26.5630  -34.8830   22.4060 O   0  0  0  0  0  0  0  0  0  0  0  0
  -24.9800  -34.0440   24.9910 H   0  0  0  0  0  0  0  0  0  0  0  0
  -24.1880  -36.7840   23.1290 C   0  0  0  0  0  1  0  0  0  0  0  0
  -25.4230  -36.3500   23.9340 C   0  0  0  0  0  3  0  0  0  0  0  0
  -27.5640  -37.1920   24.7870 C   0  0  0  0  0  1  0  0  0  0  0  0
  -26.4630  -37.3980   23.8510 N   0  0  0  0  0  0  0  0  0  0  0  0
  -26.0640  -38.3150   24.0270 H   0  0  0  0  0  0  0  0  0  0  0  0
  1  3  1  0
  2  6  2  0
  3  5  2  0
  4  1  2  0
  4  2  1  0
  5  6  1  0
  7  3  1  0
  8  6  1  0
  9 16  2  0
 10 15  1  0
 11 12  1  0
 11 10  1  0
 13 12  1  0
 13 21  1  0
 13 14  1  0
 15  9  1  0
 15 14  1  0
 17  5  1  0
 17  9  1  0
 18 19  2  0
 19 20  1  0
 19 38  1  0
 20 23  1  0
 21 18  1  0
 21 22  1  0
 22 20  2  0
 23 24  1  0
 24 25  2  0
 26 29  1  0
 26 25  1  0
 27 26  2  0
 28 27  1  0
 28 23  2  0
 29 30  1  0
 30 31  1  0
 31 32  2  0
 33 32  1  0
 33 37  1  0
 34 33  2  0
 35 30  2  0
 35 34  1  0
 36 35  1  0
 38 39  1  0
 39 42  1  0
 39 41  1  0
 40 38  2  0
 43 44  1  0
 43 18  1  0
 45 43  1  0
 46 47  2  0
 47 17  1  0
 48 50  2  0
 49  4  1  0
 49 48  1  0
 51 49  1  0
 52 48  1  0
 52 53  1  0
 54 53  1  0
 55 66  2  0
 56 54  1  0
 56 61  1  0
 57 65  1  0
 57 67  1  0
 58 64  1  0
 58 60  1  0
 59 65  1  0
 60 59  1  0
 61 60  2  0
 62 63  1  0
 62 56  2  0
 63 58  2  0
 64 57  1  0
 65 55  1  0
 67 69  2  0
 68 67  1  0
 70 68  1  0
 71 80  2  0
 71 76  1  0
 72 68  1  0
 72 76  1  0
 73 72  1  0
 74 75  1  0
 74 73  1  0
 75 71  1  0
 76 77  2  0
 77 78  1  0
 79 78  2  0
 80 79  1  0
 81 55  1  0
 81 86  1  0
 81 82  1  0
 82 85  1  1
 82 83  1  0
 84 82  1  0
 86 89  1  0
 87 91  1  0
 87 86  1  0
 88 87  2  0
 91 90  1  0
 93 91  1  0
 93 94  1  0
 93 92  1  0
M  ISO  4   9 100  17 100  53 101  54 101
M  END
>  <TORSDO>  (88) 
F 20

>  <SCORE>  (88) 
-13.155

>  <name>  (88) 
87

>  <ligand_id>  (88) 
87

>  <original_smiles>  (88) 
[H]C([H])=C([H])N(C(=O)N1C([H])([H])C([H])([H])C([H])([H])C([H])(n2nc(-c3c([H])c([H])c(Oc4c([H])c([H])c(F)c([H])c4F)c([H])c3[H])c(C(=O)N([H])[H])c2N([H])[H])C1([H])[H])c1c(F)c([H])c(N([H])C(=O)C([H])([H])C([H])([H])Oc2c([H])c([H])c3c(c2[H])C([H])([H])N(C(=O)C([H])(N([H])C(=O)C([H])(N([H])C([H])([H])[H])C([H])([H])[H])C(C([H])([H])[H])(C([H])([H])[H])C([H])([H])[H])C([H])(C(=O)N([H])C2([H])c4c([H])c([H])c([H])c([H])c4C([H])([H])C([H])([H])C2([H])[H])C3([H])[H])c([H])c1C([H])([H])[H]

>  <smiles>  (88) 
[H]C([H])=C([H])N(C(=O)N1C([H])([H])C([H])([H])C([H])([H])C([H])(n2nc(-c3c([H])c([H])c(Oc4c([H])c([H])c(F)c([H])c4F)c([H])c3[H])c(C(=O)N([H])[H])c2N([H])[H])C1([H])[H])c1c(F)c([H])c(N([H])C(=O)C([H])([H])C([H])([H])Oc2c([H])c([H])c3c(c2[H])C([H])([H])N(C(=O)C([H])(N([H])C(=O)C([H])(N([H])C([H])([H])[H])C([H])([H])[H])C(C([H])([H])[H])(C([H])([H])[H])C([H])([H])[H])C([H])(C(=O)N([H])C2([H])c4c([H])c([H])c([H])c([H])c4C([H])([H])C([H])([H])C2([H])[H])C3([H])[H])c([H])c1C([H])([H])[H]

$$$$
88:0:0
     RDKit          3D

 93101  0  0  1  0  0  0  0  0999 V2000
  -28.8710  -18.0380   20.5400 C   0  0  0  0  0  3  0  0  0  0  0  0
  -31.1250  -18.5410   19.8240 C   0  0  0  0  0  3  0  0  0  0  0  0
  -30.2320  -17.6750   20.5340 C   0  0  0  0  0  0  0  0  0  0  0  0
  -29.3100  -20.1250   19.3250 C   0  0  0  0  0  0  0  0  0  0  0  0
  -28.4110  -19.2500   19.9840 C   0  0  0  0  0  0  0  0  0  0  0  0
  -30.6770  -19.7400   19.1590 C   0  0  0  0  0  0  0  0  0  0  0  0
  -25.9560  -19.0810   19.2400 C   0  0  0  0  0  1  0  0  0  0  0  0
  -26.9560  -19.6420   20.2570 C   0  0  0  0  0  2  0  0  0  0  0  0
  -30.5840  -16.6890   21.6310 C   0  0  0  0  0  2  0  0  0  0  0  0
  -30.9830  -15.3880   21.8230 C   0  0  0  0  0  2  0  0  0  0  0  0
  -31.5670  -14.0980   21.3950 C   0  0  0  0  0  0  0  0  0  0  0  0
  -31.4630  -11.6110   21.3320 C   0  0  0  0  0  2  0  0  0  0  0  0
  -30.9010  -11.1300   19.9780 C   0  0  0  0  0  2  0  0  0  0  0  0
  -29.3670  -11.0340   20.0580 C   0  0  0  0  0  2  0  0  0  0  0  0
  -28.7300  -12.3280   20.6340 C   0  0  0  0  0  3  0  0  0  0  0  0
  -29.4400  -12.8090   21.9250 C   0  0  0  0  0  2  0  0  0  0  0  0
  -30.8790  -12.9340   21.6380 N   0  0  0  0  0  0  0  0  0  0  0  0
  -32.7250  -14.0550   20.9730 O   0  0  0  0  0  0  0  0  0  0  0  0
  -26.2850  -13.1200   20.7390 C   0  0  0  0  0  0  0  0  0  0  0  0
  -25.1120  -12.4480   20.9440 C   0  0  0  0  0  0  0  0  0  0  0  0
  -25.4700  -11.0810   21.1510 C   0  0  0  0  0  0  0  0  0  0  0  0
  -27.2900  -12.1700   20.8320 N   0  0  0  0  0  0  0  0  0  0  0  0
  -26.7910  -10.9440   21.1360 N   0  0  0  0  0  0  0  0  0  0  0  0
  -24.6290   -9.8850   21.3070 C   0  0  0  0  0  0  0  0  0  0  0  0
  -24.8620   -8.9510   22.3400 C   0  0  0  0  0  3  0  0  0  0  0  0
  -24.0270   -7.8220   22.4880 C   0  0  0  0  0  3  0  0  0  0  0  0
  -22.9450   -7.6210   21.5990 C   0  0  0  0  0  0  0  0  0  0  0  0
  -22.7300   -8.5420   20.5580 C   0  0  0  0  0  3  0  0  0  0  0  0
  -23.5650   -9.6630   20.4100 C   0  0  0  0  0  3  0  0  0  0  0  0
  -22.1010   -6.5380   21.6470 O   0  0  0  0  0  0  0  0  0  0  0  0
  -21.9010   -5.8300   22.8040 C   0  0  0  0  0  0  0  0  0  0  0  0
  -21.4300   -6.4470   23.9850 C   0  0  0  0  0  3  0  0  0  0  0  0
  -21.1740   -5.6700   25.1300 C   0  0  0  0  0  3  0  0  0  0  0  0
  -21.3770   -4.2770   25.0990 C   0  0  0  0  0  0  0  0  0  0  0  0
  -21.8390   -3.6600   23.9220 C   0  0  0  0  0  3  0  0  0  0  0  0
  -22.0960   -4.4330   22.7780 C   0  0  0  0  0  0  0  0  0  0  0  0
  -22.5220   -3.8310   21.6410 F   0  0  0  0  0  0  0  0  0  0  0  0
  -21.1240   -3.5290   26.1970 F   0  0  0  0  0  0  0  0  0  0  0  0
  -23.7240  -13.0210   20.8620 C   0  0  0  0  0  0  0  0  0  0  0  0
  -22.7940  -12.4720   21.6360 N   0  0  0  0  0  0  0  0  0  0  0  0
  -23.4740  -13.9880   20.1450 O   0  0  0  0  0  0  0  0  0  0  0  0
  -23.0090  -11.6880   22.2340 H   0  0  0  0  0  0  0  0  0  0  0  0
  -21.8530  -12.8390   21.6290 H   0  0  0  0  0  0  0  0  0  0  0  0
  -26.5850  -14.4520   20.4630 N   0  0  0  0  0  0  0  0  0  0  0  0
  -25.8690  -15.1590   20.3560 H   0  0  0  0  0  0  0  0  0  0  0  0
  -27.5210  -14.8080   20.3220 H   0  0  0  0  0  0  0  0  0  0  0  0
  -29.3890  -22.6360   19.2720 C   0  0  0  0  0  2  0  0  0  0  0  0
  -28.8130  -21.4660   18.9440 C   0  0  0  0  0  3  0  0  0  0  0  0
  -31.5910  -20.5520   18.4700 O   0  0  0  0  0  0  0  0  0  0  0  0
  -31.1160  -21.4590   17.4240 C   0  0  0  0  0  2  0  0  0  0  0  0
  -31.6170  -22.9570   17.4800 C   0  0  0  0  0  2  0  0  0  0  0  0
  -30.5120  -24.0360   17.2000 C   0  0  0  0  0  2  0  0  0  0  0  0
  -30.8110  -25.4250   17.5500 O   0  0  0  0  0  0  0  0  0  0  0  0
  -27.4980  -28.9540   22.8290 C   0  0  0  0  0  0  0  0  0  0  0  0
  -29.7310  -26.2310   17.9200 C   0  0  0  0  0  0  0  0  0  0  0  0
  -26.1610  -28.5380   20.7940 C   0  0  0  0  0  3  0  0  0  0  0  0
  -27.4690  -27.7580   18.7470 C   0  0  0  0  0  0  0  0  0  0  0  0
  -28.7070  -28.7950   20.6480 C   0  0  0  0  0  2  0  0  0  0  0  0
  -28.6800  -27.8710   19.4420 C   0  0  0  0  0  0  0  0  0  0  0  0
  -29.8150  -27.1250   19.0230 C   0  0  0  0  0  3  0  0  0  0  0  0
  -28.4970  -26.1640   17.2270 C   0  0  0  0  0  3  0  0  0  0  0  0
  -27.3790  -26.9130   17.6320 C   0  0  0  0  0  3  0  0  0  0  0  0
  -26.2920  -28.5680   19.2500 C   0  0  0  0  0  2  0  0  0  0  0  0
  -27.4770  -28.7460   21.4820 N   0  0  0  0  0  0  0  0  0  0  0  0
  -26.4500  -29.0090   23.4870 O   0  0  0  0  0  0  0  0  0  0  0  0
  -25.4530  -27.2270   21.2090 C   0  0  0  0  0  0  0  0  0  0  0  0
  -24.1220  -27.1790   21.0260 N   0  0  0  0  0  0  0  0  0  0  0  0
  -26.0970  -26.2760   21.6580 O   0  0  0  0  0  0  0  0  0  0  0  0
  -23.6620  -28.0020   20.6620 H   0  0  0  0  0  0  0  0  0  0  0  0
  -20.6990  -26.0260   20.9380 C   0  0  0  0  0  0  0  0  0  0  0  0
  -23.2570  -26.0350   21.3130 C   0  0  0  0  0  3  0  0  0  0  0  0
  -23.3220  -24.9850   20.1790 C   0  0  0  0  0  2  0  0  0  0  0  0
  -22.2360  -25.1780   19.1160 C   0  0  0  0  0  2  0  0  0  0  0  0
  -20.8450  -25.0920   19.7500 C   0  0  0  0  0  2  0  0  0  0  0  0
  -21.8320  -26.4810   21.6630 C   0  0  0  0  0  0  0  0  0  0  0  0
  -21.6430  -27.3780   22.7360 C   0  0  0  0  0  3  0  0  0  0  0  0
  -20.3520  -27.8170   23.0890 C   0  0  0  0  0  3  0  0  0  0  0  0
  -19.2330  -27.3510   22.3770 C   0  0  0  0  0  3  0  0  0  0  0  0
  -19.4080  -26.4550   21.3080 C   0  0  0  0  0  3  0  0  0  0  0  0
  -28.8390  -29.1540   23.6010 C   0  0  0  0  0  3  0  0  0  0  0  0
  -28.6380  -30.2520   24.5550 N   0  0  0  0  0  0  0  0  0  0  0  0
  -29.0970  -31.4990   24.3850 C   0  0  0  0  0  0  0  0  0  0  0  0
  -29.8030  -31.8280   23.4280 O   0  0  0  0  0  0  0  0  0  0  0  0
  -28.0180  -30.0720   25.3300 H   0  0  0  0  0  0  0  0  0  0  0  0
  -27.5650  -33.4210   24.9120 C   0  0  0  0  0  1  0  0  0  0  0  0
  -28.7110  -32.5480   25.4450 C   0  0  0  0  0  3  0  0  0  0  0  0
  -30.8590  -32.6940   26.6260 C   0  0  0  0  0  1  0  0  0  0  0  0
  -29.8410  -33.4070   25.8590 N   0  0  0  0  0  0  0  0  0  0  0  0
  -29.5130  -34.1900   26.4190 H   0  0  0  0  0  0  0  0  0  0  0  0
  -29.3260  -27.8500   24.3460 C   0  0  1  0  0  0  0  0  0  0  0  0
  -28.2430  -27.2040   25.2400 C   0  0  0  0  0  1  0  0  0  0  0  0
  -29.7960  -26.7840   23.3280 C   0  0  0  0  0  1  0  0  0  0  0  0
  -30.5480  -28.1790   25.2360 C   0  0  0  0  0  1  0  0  0  0  0  0
  2  3  2  0
  3  1  1  0
  3  9  1  0
  4  5  1  0
  5  8  1  0
  5  1  2  0
  6  4  2  0
  6  2  1  0
  7  8  1  0
  9 10  1  0
 11 17  1  0
 11 10  1  0
 12 17  1  0
 13 14  1  0
 13 12  1  0
 15 14  1  0
 15 22  1  0
 15 16  1  0
 17 16  1  0
 18 11  2  0
 19 22  1  0
 19 20  2  0
 20 21  1  0
 21 24  1  0
 22 23  1  0
 23 21  2  0
 24 25  1  0
 25 26  2  0
 27 30  1  0
 27 26  1  0
 28 27  2  0
 29 28  1  0
 29 24  2  0
 30 31  1  0
 31 32  1  0
 32 33  2  0
 34 33  1  0
 34 38  1  0
 35 34  2  0
 36 31  2  0
 36 35  1  0
 37 36  1  0
 39 20  1  0
 39 40  1  0
 40 42  1  0
 41 39  2  0
 43 40  1  0
 44 19  1  0
 45 44  1  0
 46 44  1  0
 48 47  2  0
 48  4  1  0
 49  6  1  0
 50 51  1  0
 50 49  1  0
 52 51  1  0
 52 53  1  0
 53 55  1  0
 54 65  2  0
 55 60  1  0
 56 66  1  0
 56 64  1  0
 57 63  1  0
 57 59  1  0
 58 64  1  0
 59 58  1  0
 60 59  2  0
 61 62  1  0
 61 55  2  0
 62 57  2  0
 63 56  1  0
 64 54  1  0
 66 68  2  0
 67 66  1  0
 69 67  1  0
 70 79  2  0
 70 75  1  0
 71 67  1  0
 71 75  1  0
 72 71  1  0
 73 74  1  0
 73 72  1  0
 74 70  1  0
 75 76  2  0
 76 77  1  0
 78 77  2  0
 79 78  1  0
 80 54  1  0
 80 90  1  0
 80 81  1  0
 81 84  1  0
 82 81  1  0
 82 86  1  0
 83 82  2  0
 86 85  1  0
 86 88  1  0
 88 89  1  0
 88 87  1  0
 90 93  1  1
 90 91  1  0
 92 90  1  0
M  ISO  4  10 100  11 100  52 101  53 101
M  END
>  <TORSDO>  (89) 
F 23

>  <SCORE>  (89) 
-6.505

>  <name>  (89) 
88

>  <ligand_id>  (89) 
88

>  <original_smiles>  (89) 
[H]C([H])=C([H])c1c(OC([H])([H])C([H])([H])C([H])([H])Oc2c([H])c([H])c3c(c2[H])C([H])([H])N(C(=O)C([H])(N([H])C(=O)C([H])(N([H])C([H])([H])[H])C([H])([H])[H])C(C([H])([H])[H])(C([H])([H])[H])C([H])([H])[H])C([H])(C(=O)N([H])C2([H])c4c([H])c([H])c([H])c([H])c4C([H])([H])C([H])([H])C2([H])[H])C3([H])[H])c([H])c(C([H])=C([H])C(=O)N2C([H])([H])C([H])([H])C([H])([H])C([H])(n3nc(-c4c([H])c([H])c(Oc5c([H])c([H])c(F)c([H])c5F)c([H])c4[H])c(C(=O)N([H])[H])c3N([H])[H])C2([H])[H])c([H])c1C([H])([H])C([H])([H])[H]

>  <smiles>  (89) 
[H]C([H])=C([H])c1c(OC([H])([H])C([H])([H])C([H])([H])Oc2c([H])c([H])c3c(c2[H])C([H])([H])N(C(=O)C([H])(N([H])C(=O)C([H])(N([H])C([H])([H])[H])C([H])([H])[H])C(C([H])([H])[H])(C([H])([H])[H])C([H])([H])[H])C([H])(C(=O)N([H])C2([H])c4c([H])c([H])c([H])c([H])c4C([H])([H])C([H])([H])C2([H])[H])C3([H])[H])c([H])c(C([H])=C([H])C(=O)N2C([H])([H])C([H])([H])C([H])([H])C([H])(n3nc(-c4c([H])c([H])c(Oc5c([H])c([H])c(F)c([H])c5F)c([H])c4[H])c(C(=O)N([H])[H])c3N([H])[H])C2([H])[H])c([H])c1C([H])([H])C([H])([H])[H]

$$$$
89:0:0
     RDKit          3D

 92100  0  0  1  0  0  0  0  0999 V2000
  -29.7240  -20.2540   21.4280 C   0  0  0  0  0  3  0  0  0  0  0  0
  -29.3090  -18.7370   19.1180 C   0  0  0  0  0  3  0  0  0  0  0  0
  -30.2210  -18.9250   21.3740 C   0  0  0  0  0  0  0  0  0  0  0  0
  -30.0070  -18.1570   20.1980 C   0  0  0  0  0  0  0  0  0  0  0  0
  -29.0570  -20.8400   20.3230 C   0  0  0  0  0  0  0  0  0  0  0  0
  -28.8420  -20.0590   19.1740 C   0  0  0  0  0  0  0  0  0  0  0  0
  -28.2070  -20.5900   18.1010 F   0  0  0  0  0  0  0  0  0  0  0  0
  -30.9510  -18.8620   23.7690 C   0  0  0  0  0  2  0  0  0  0  0  0
  -30.9730  -18.3770   22.5160 C   0  0  0  0  0  3  0  0  0  0  0  0
  -30.4820  -16.7790   19.9660 C   0  0  0  0  0  3  0  0  0  0  0  0
  -30.3060  -15.6370   20.6760 C   0  0  0  0  0  3  0  0  0  0  0  0
  -30.9680  -14.4400   20.1580 C   0  0  0  0  0  0  0  0  0  0  0  0
  -30.5090  -12.3840   18.9150 C   0  0  0  0  0  2  0  0  0  0  0  0
  -29.5330  -12.7310   17.7720 C   0  0  0  0  0  2  0  0  0  0  0  0
  -28.0760  -12.5900   18.2520 C   0  0  0  0  0  2  0  0  0  0  0  0
  -27.8180  -13.3110   19.6050 C   0  0  0  0  0  3  0  0  0  0  0  0
  -28.9250  -13.0070   20.6380 C   0  0  0  0  0  2  0  0  0  0  0  0
  -30.2280  -13.3060   20.0270 N   0  0  0  0  0  0  0  0  0  0  0  0
  -32.1040  -14.5210   19.6820 O   0  0  0  0  0  0  0  0  0  0  0  0
  -25.4380  -13.8660   20.4030 C   0  0  0  0  0  0  0  0  0  0  0  0
  -24.3960  -13.0740   20.8070 C   0  0  0  0  0  0  0  0  0  0  0  0
  -24.8770  -11.7310   20.7510 C   0  0  0  0  0  0  0  0  0  0  0  0
  -26.4890  -13.0040   20.1300 N   0  0  0  0  0  0  0  0  0  0  0  0
  -26.1560  -11.7140   20.3930 N   0  0  0  0  0  0  0  0  0  0  0  0
  -24.1780  -10.4560   20.9590 C   0  0  0  0  0  0  0  0  0  0  0  0
  -24.5940   -9.5400   21.9490 C   0  0  0  0  0  3  0  0  0  0  0  0
  -23.8990   -8.3270   22.1450 C   0  0  0  0  0  3  0  0  0  0  0  0
  -22.7710   -8.0220   21.3480 C   0  0  0  0  0  0  0  0  0  0  0  0
  -22.3730   -8.9260   20.3470 C   0  0  0  0  0  3  0  0  0  0  0  0
  -23.0700  -10.1300   20.1510 C   0  0  0  0  0  3  0  0  0  0  0  0
  -22.0450   -6.8590   21.4480 O   0  0  0  0  0  0  0  0  0  0  0  0
  -21.8680   -6.2230   22.6510 C   0  0  0  0  0  0  0  0  0  0  0  0
  -21.2470   -6.8620   23.7470 C   0  0  0  0  0  3  0  0  0  0  0  0
  -21.0210   -6.1470   24.9410 C   0  0  0  0  0  3  0  0  0  0  0  0
  -21.4020   -4.7960   25.0370 C   0  0  0  0  0  0  0  0  0  0  0  0
  -22.0150   -4.1570   23.9450 C   0  0  0  0  0  3  0  0  0  0  0  0
  -22.2430   -4.8690   22.7540 C   0  0  0  0  0  0  0  0  0  0  0  0
  -22.8120   -4.2420   21.6970 F   0  0  0  0  0  0  0  0  0  0  0  0
  -21.1820   -4.1080   26.1820 F   0  0  0  0  0  0  0  0  0  0  0  0
  -23.0020  -13.5290   21.1340 C   0  0  0  0  0  0  0  0  0  0  0  0
  -22.3230  -12.8330   22.0370 N   0  0  0  0  0  0  0  0  0  0  0  0
  -22.5220  -14.5400   20.6220 O   0  0  0  0  0  0  0  0  0  0  0  0
  -22.7240  -12.0170   22.4760 H   0  0  0  0  0  0  0  0  0  0  0  0
  -21.3890  -13.1190   22.2940 H   0  0  0  0  0  0  0  0  0  0  0  0
  -25.5760  -15.2380   20.2320 N   0  0  0  0  0  0  0  0  0  0  0  0
  -24.8080  -15.8850   20.3760 H   0  0  0  0  0  0  0  0  0  0  0  0
  -26.4180  -15.6900   19.8950 H   0  0  0  0  0  0  0  0  0  0  0  0
  -28.6040  -22.1430   20.2940 O   0  0  0  0  0  0  0  0  0  0  0  0
  -29.1990  -23.0660   21.1980 C   0  0  0  0  0  2  0  0  0  0  0  0
  -29.3350  -24.4450   20.5250 C   0  0  0  0  0  2  0  0  0  0  0  0
  -27.9920  -25.1430   20.2840 C   0  0  0  0  0  2  0  0  0  0  0  0
  -28.1800  -26.5160   19.9080 O   0  0  0  0  0  0  0  0  0  0  0  0
  -24.5590  -31.6850   23.1700 C   0  0  0  0  0  0  0  0  0  0  0  0
  -27.0300  -27.2720   19.9280 C   0  0  0  0  0  0  0  0  0  0  0  0
  -23.2750  -30.3150   21.5630 C   0  0  0  0  0  3  0  0  0  0  0  0
  -24.6550  -28.7980   20.0560 C   0  0  0  0  0  0  0  0  0  0  0  0
  -25.7940  -30.6680   21.2570 C   0  0  0  0  0  2  0  0  0  0  0  0
  -25.8440  -29.3070   20.5940 C   0  0  0  0  0  0  0  0  0  0  0  0
  -27.0380  -28.5540   20.5210 C   0  0  0  0  0  3  0  0  0  0  0  0
  -25.8220  -26.7810   19.3780 C   0  0  0  0  0  3  0  0  0  0  0  0
  -24.6380  -27.5340   19.4460 C   0  0  0  0  0  3  0  0  0  0  0  0
  -23.4230  -29.6650   20.1640 C   0  0  0  0  0  2  0  0  0  0  0  0
  -24.5650  -30.9010   22.0560 N   0  0  0  0  0  0  0  0  0  0  0  0
  -23.5040  -31.9510   23.7600 O   0  0  0  0  0  0  0  0  0  0  0  0
  -22.6670  -29.2750   22.5310 C   0  0  0  0  0  0  0  0  0  0  0  0
  -21.3450  -29.0620   22.4250 N   0  0  0  0  0  0  0  0  0  0  0  0
  -23.3770  -28.6640   23.3320 O   0  0  0  0  0  0  0  0  0  0  0  0
  -20.8280  -29.6110   21.7520 H   0  0  0  0  0  0  0  0  0  0  0  0
  -18.0160  -27.7510   22.9340 C   0  0  0  0  0  0  0  0  0  0  0  0
  -20.5620  -28.1070   23.2100 C   0  0  0  0  0  3  0  0  0  0  0  0
  -20.7190  -26.6700   22.6610 C   0  0  0  0  0  2  0  0  0  0  0  0
  -19.6340  -26.2870   21.6500 C   0  0  0  0  0  2  0  0  0  0  0  0
  -18.2440  -26.3970   22.2850 C   0  0  0  0  0  2  0  0  0  0  0  0
  -19.1040  -28.5600   23.3550 C   0  0  0  0  0  0  0  0  0  0  0  0
  -18.8370  -29.8270   23.9200 C   0  0  0  0  0  3  0  0  0  0  0  0
  -17.5160  -30.2850   24.0680 C   0  0  0  0  0  3  0  0  0  0  0  0
  -16.4400  -29.4720   23.6680 C   0  0  0  0  0  3  0  0  0  0  0  0
  -16.6930  -28.2080   23.1050 C   0  0  0  0  0  3  0  0  0  0  0  0
  -25.8730  -32.3040   23.7390 C   0  0  0  0  0  3  0  0  0  0  0  0
  -25.5720  -33.6850   24.1430 N   0  0  0  0  0  0  0  0  0  0  0  0
  -25.8610  -34.7700   23.4130 C   0  0  0  0  0  0  0  0  0  0  0  0
  -26.4840  -34.7160   22.3490 O   0  0  0  0  0  0  0  0  0  0  0  0
  -25.0170  -33.7980   24.9770 H   0  0  0  0  0  0  0  0  0  0  0  0
  -24.1090  -36.5640   23.2080 C   0  0  0  0  0  1  0  0  0  0  0  0
  -25.3830  -36.1330   23.9510 C   0  0  0  0  0  3  0  0  0  0  0  0
  -27.5450  -36.9970   24.7340 C   0  0  0  0  0  1  0  0  0  0  0  0
  -26.4030  -37.1980   23.8460 N   0  0  0  0  0  0  0  0  0  0  0  0
  -25.9960  -38.1050   24.0580 H   0  0  0  0  0  0  0  0  0  0  0  0
  -26.4710  -31.4870   24.9490 C   0  0  1  0  0  0  0  0  0  0  0  0
  -25.4430  -31.1910   26.0660 C   0  0  0  0  0  1  0  0  0  0  0  0
  -27.0480  -30.1380   24.4620 C   0  0  0  0  0  1  0  0  0  0  0  0
  -27.6470  -32.2680   25.5820 C   0  0  0  0  0  1  0  0  0  0  0  0
  2  6  2  0
  2  4  1  0
  3  1  1  0
  3  9  1  0
  4  3  2  0
  5  1  2  0
  6  5  1  0
  7  6  1  0
  9  8  2  0
 10  4  1  0
 10 11  2  0
 12 11  1  0
 13 18  1  0
 14 15  1  0
 14 13  1  0
 16 15  1  0
 16 23  1  0
 16 17  1  0
 18 12  1  0
 18 17  1  0
 19 12  2  0
 20 21  2  0
 21 40  1  0
 22 21  1  0
 22 25  1  0
 23 24  1  0
 23 20  1  0
 24 22  2  0
 25 26  1  0
 26 27  2  0
 28 31  1  0
 28 27  1  0
 29 28  2  0
 30 29  1  0
 30 25  2  0
 31 32  1  0
 32 37  2  0
 32 33  1  0
 33 34  2  0
 34 35  1  0
 35 39  1  0
 36 35  2  0
 37 36  1  0
 38 37  1  0
 40 41  1  0
 41 44  1  0
 41 43  1  0
 42 40  2  0
 45 46  1  0
 45 20  1  0
 47 45  1  0
 48  5  1  0
 48 49  1  0
 50 49  1  0
 51 50  1  0
 52 54  1  0
 52 51  1  0
 53 64  2  0
 54 59  1  0
 55 63  1  0
 55 65  1  0
 56 62  1  0
 56 58  1  0
 57 63  1  0
 58 57  1  0
 59 58  2  0
 60 61  1  0
 60 54  2  0
 61 56  2  0
 62 55  1  0
 63 53  1  0
 65 67  2  0
 66 65  1  0
 68 66  1  0
 69 78  2  0
 69 74  1  0
 70 66  1  0
 70 74  1  0
 71 70  1  0
 72 73  1  0
 72 71  1  0
 73 69  1  0
 74 75  2  0
 75 76  1  0
 77 76  2  0
 78 77  1  0
 79 53  1  0
 79 80  1  0
 79 89  1  0
 80 83  1  0
 81 85  1  0
 81 80  1  0
 82 81  2  0
 85 84  1  0
 87 85  1  0
 87 88  1  0
 87 86  1  0
 89 92  1  1
 89 90  1  0
 91 89  1  0
M  ISO  4  11 100  12 100  51 101  52 101
M  END
>  <TORSDO>  (90) 
F 22

>  <SCORE>  (90) 
-12.049

>  <name>  (90) 
89

>  <ligand_id>  (90) 
89

>  <original_smiles>  (90) 
[H]C([H])=C([H])c1c([H])c(OC([H])([H])C([H])([H])C([H])([H])Oc2c([H])c([H])c3c(c2[H])C([H])([H])N(C(=O)C([H])(N([H])C(=O)C([H])(N([H])C([H])([H])[H])C([H])([H])[H])C(C([H])([H])[H])(C([H])([H])[H])C([H])([H])[H])C([H])(C(=O)N([H])C2([H])c4c([H])c([H])c([H])c([H])c4C([H])([H])C([H])([H])C2([H])[H])C3([H])[H])c(F)c([H])c1C([H])=C([H])C(=O)N1C([H])([H])C([H])([H])C([H])([H])C([H])(n2nc(-c3c([H])c([H])c(Oc4c([H])c([H])c(F)c([H])c4F)c([H])c3[H])c(C(=O)N([H])[H])c2N([H])[H])C1([H])[H]

>  <smiles>  (90) 
[H]C([H])=C([H])c1c([H])c(OC([H])([H])C([H])([H])C([H])([H])Oc2c([H])c([H])c3c(c2[H])C([H])([H])N(C(=O)C([H])(N([H])C(=O)C([H])(N([H])C([H])([H])[H])C([H])([H])[H])C(C([H])([H])[H])(C([H])([H])[H])C([H])([H])[H])C([H])(C(=O)N([H])C2([H])c4c([H])c([H])c([H])c([H])c4C([H])([H])C([H])([H])C2([H])[H])C3([H])[H])c(F)c([H])c1C([H])=C([H])C(=O)N1C([H])([H])C([H])([H])C([H])([H])C([H])(n2nc(-c3c([H])c([H])c(Oc4c([H])c([H])c(F)c([H])c4F)c([H])c3[H])c(C(=O)N([H])[H])c2N([H])[H])C1([H])[H]

$$$$
90:0:0
     RDKit          3D

 95104  0  0  1  0  0  0  0  0999 V2000
  -29.1210  -23.1360   22.5100 C   0  0  0  0  0  0  0  0  0  0  0  0
  -29.6850  -24.5040   22.8470 C   0  0  0  0  0  2  0  0  0  0  0  0
  -30.3510  -24.8930   21.5310 C   0  0  0  0  0  2  0  0  0  0  0  0
  -29.4890  -24.1780   20.4800 C   0  0  0  0  0  3  0  0  0  0  0  0
  -29.1730  -22.8760   21.1840 N   0  0  0  0  0  0  0  0  0  0  0  0
  -28.6970  -22.3770   23.3900 O   0  0  0  0  0  0  0  0  0  0  0  0
  -31.0510  -19.5530   21.0740 C   0  0  0  0  0  3  0  0  0  0  0  0
  -30.7340  -20.9170   21.2980 C   0  0  0  0  0  3  0  0  0  0  0  0
  -28.7360  -20.6560   19.9970 C   0  0  0  0  0  3  0  0  0  0  0  0
  -29.0470  -19.2710   19.7470 C   0  0  0  0  0  0  0  0  0  0  0  0
  -30.2360  -18.6820   20.3040 C   0  0  0  0  0  0  0  0  0  0  0  0
  -29.5570  -21.5130   20.7810 C   0  0  0  0  0  0  0  0  0  0  0  0
  -28.1730  -17.4110   18.2060 C   0  0  0  0  0  2  0  0  0  0  0  0
  -28.0830  -18.5850   18.8530 C   0  0  0  0  0  3  0  0  0  0  0  0
  -30.8390  -17.2570   19.9920 C   0  0  0  0  0  2  0  0  0  0  0  0
  -30.8500  -14.7540   20.1330 C   0  0  0  0  0  0  0  0  0  0  0  0
  -30.4770  -12.5530   19.0660 C   0  0  0  0  0  2  0  0  0  0  0  0
  -29.5110  -12.7330   17.8800 C   0  0  0  0  0  2  0  0  0  0  0  0
  -28.0530  -12.5890   18.3530 C   0  0  0  0  0  2  0  0  0  0  0  0
  -27.7460  -13.4360   19.6190 C   0  0  0  0  0  3  0  0  0  0  0  0
  -28.8440  -13.2910   20.6970 C   0  0  0  0  0  2  0  0  0  0  0  0
  -30.1340  -13.5900   20.0630 N   0  0  0  0  0  0  0  0  0  0  0  0
  -32.0250  -14.7850   19.7630 O   0  0  0  0  0  0  0  0  0  0  0  0
  -30.1970  -15.9410   20.3490 N   0  0  0  0  0  0  0  0  0  0  0  0
  -29.2140  -15.9290   20.5770 H   0  0  0  0  0  0  0  0  0  0  0  0
  -25.3850  -14.0220   20.4300 C   0  0  0  0  0  0  0  0  0  0  0  0
  -24.3320  -13.2430   20.8280 C   0  0  0  0  0  0  0  0  0  0  0  0
  -24.7920  -11.8910   20.7680 C   0  0  0  0  0  0  0  0  0  0  0  0
  -26.4200  -13.1430   20.1510 N   0  0  0  0  0  0  0  0  0  0  0  0
  -26.0730  -11.8580   20.4200 N   0  0  0  0  0  0  0  0  0  0  0  0
  -24.0710  -10.6260   20.9670 C   0  0  0  0  0  0  0  0  0  0  0  0
  -24.5140   -9.6640   21.9010 C   0  0  0  0  0  3  0  0  0  0  0  0
  -23.7950   -8.4640   22.0870 C   0  0  0  0  0  3  0  0  0  0  0  0
  -22.6170   -8.2190   21.3410 C   0  0  0  0  0  0  0  0  0  0  0  0
  -22.1950   -9.1680   20.3930 C   0  0  0  0  0  3  0  0  0  0  0  0
  -22.9150  -10.3600   20.2050 C   0  0  0  0  0  3  0  0  0  0  0  0
  -21.8670   -7.0710   21.4390 O   0  0  0  0  0  0  0  0  0  0  0  0
  -21.8010   -6.3500   22.6030 C   0  0  0  0  0  0  0  0  0  0  0  0
  -21.2990   -6.9090   23.7990 C   0  0  0  0  0  3  0  0  0  0  0  0
  -21.1860   -6.1120   24.9560 C   0  0  0  0  0  3  0  0  0  0  0  0
  -21.5640   -4.7560   24.9170 C   0  0  0  0  0  0  0  0  0  0  0  0
  -22.0580   -4.1960   23.7260 C   0  0  0  0  0  3  0  0  0  0  0  0
  -22.1740   -4.9900   22.5720 C   0  0  0  0  0  0  0  0  0  0  0  0
  -22.6300   -4.4420   21.4210 F   0  0  0  0  0  0  0  0  0  0  0  0
  -21.4470   -3.9870   26.0240 F   0  0  0  0  0  0  0  0  0  0  0  0
  -22.9430  -13.7140   21.1460 C   0  0  0  0  0  0  0  0  0  0  0  0
  -22.2390  -13.0100   22.0270 N   0  0  0  0  0  0  0  0  0  0  0  0
  -22.4880  -14.7410   20.6440 O   0  0  0  0  0  0  0  0  0  0  0  0
  -22.6190  -12.1810   22.4590 H   0  0  0  0  0  0  0  0  0  0  0  0
  -21.3060  -13.3050   22.2730 H   0  0  0  0  0  0  0  0  0  0  0  0
  -25.5430  -15.3940   20.2590 N   0  0  0  0  0  0  0  0  0  0  0  0
  -24.7810  -16.0490   20.3980 H   0  0  0  0  0  0  0  0  0  0  0  0
  -26.3790  -15.8330   19.8950 H   0  0  0  0  0  0  0  0  0  0  0  0
  -28.2310  -25.1170   20.1520 C   0  0  0  0  0  2  0  0  0  0  0  0
  -28.4250  -26.5890   20.0870 O   0  0  0  0  0  0  0  0  0  0  0  0
  -24.5920  -31.8720   23.1590 C   0  0  0  0  0  0  0  0  0  0  0  0
  -27.2880  -27.4120   20.0430 C   0  0  0  0  0  0  0  0  0  0  0  0
  -23.4170  -30.4890   21.4880 C   0  0  0  0  0  3  0  0  0  0  0  0
  -24.8970  -28.9870   20.0410 C   0  0  0  0  0  0  0  0  0  0  0  0
  -25.9510  -30.8500   21.3200 C   0  0  0  0  0  2  0  0  0  0  0  0
  -26.0550  -29.4850   20.6500 C   0  0  0  0  0  0  0  0  0  0  0  0
  -27.2540  -28.7120   20.6350 C   0  0  0  0  0  3  0  0  0  0  0  0
  -26.1030  -26.9620   19.4170 C   0  0  0  0  0  3  0  0  0  0  0  0
  -24.9240  -27.7310   19.4130 C   0  0  0  0  0  3  0  0  0  0  0  0
  -23.6450  -29.8410   20.0960 C   0  0  0  0  0  2  0  0  0  0  0  0
  -24.6730  -31.0870   22.0470 N   0  0  0  0  0  0  0  0  0  0  0  0
  -23.5010  -32.1230   23.6940 O   0  0  0  0  0  0  0  0  0  0  0  0
  -22.7640  -29.4440   22.4230 C   0  0  0  0  0  0  0  0  0  0  0  0
  -21.4420  -29.2460   22.2780 N   0  0  0  0  0  0  0  0  0  0  0  0
  -23.4450  -28.8150   23.2370 O   0  0  0  0  0  0  0  0  0  0  0  0
  -20.9510  -29.8050   21.5940 H   0  0  0  0  0  0  0  0  0  0  0  0
  -18.0800  -27.9880   22.7180 C   0  0  0  0  0  0  0  0  0  0  0  0
  -20.6310  -28.2840   23.0250 C   0  0  0  0  0  3  0  0  0  0  0  0
  -20.7650  -26.8640   22.4260 C   0  0  0  0  0  2  0  0  0  0  0  0
  -19.6790  -26.5400   21.3950 C   0  0  0  0  0  2  0  0  0  0  0  0
  -18.2870  -26.6520   22.0230 C   0  0  0  0  0  2  0  0  0  0  0  0
  -19.1820  -28.7600   23.1740 C   0  0  0  0  0  0  0  0  0  0  0  0
  -18.9360  -30.0110   23.7830 C   0  0  0  0  0  3  0  0  0  0  0  0
  -17.6210  -30.4890   23.9400 C   0  0  0  0  0  3  0  0  0  0  0  0
  -16.5340  -29.7130   23.5020 C   0  0  0  0  0  3  0  0  0  0  0  0
  -16.7640  -28.4650   22.8970 C   0  0  0  0  0  3  0  0  0  0  0  0
  -25.8620  -32.5090   23.8020 C   0  0  0  0  0  3  0  0  0  0  0  0
  -26.3700  -31.7280   25.0750 C   0  0  1  0  0  0  0  0  0  0  0  0
  -25.2670  -31.4620   26.1250 C   0  0  0  0  0  1  0  0  0  0  0  0
  -26.9710  -30.3610   24.6710 C   0  0  0  0  0  1  0  0  0  0  0  0
  -27.5040  -32.5250   25.7610 C   0  0  0  0  0  1  0  0  0  0  0  0
  -25.5360  -33.9020   24.1450 N   0  0  0  0  0  0  0  0  0  0  0  0
  -25.8570  -34.9640   23.3970 C   0  0  0  0  0  0  0  0  0  0  0  0
  -26.5290  -34.8780   22.3640 O   0  0  0  0  0  0  0  0  0  0  0  0
  -24.9340  -34.0410   24.9430 H   0  0  0  0  0  0  0  0  0  0  0  0
  -24.1100  -36.7420   23.0590 C   0  0  0  0  0  1  0  0  0  0  0  0
  -25.3550  -36.3440   23.8670 C   0  0  0  0  0  3  0  0  0  0  0  0
  -27.4730  -37.2490   24.7180 C   0  0  0  0  0  1  0  0  0  0  0  0
  -26.3770  -37.4080   23.7670 N   0  0  0  0  0  0  0  0  0  0  0  0
  -25.9590  -38.3230   23.9160 H   0  0  0  0  0  0  0  0  0  0  0  0
  1  2  1  0
  1  6  2  0
  3  2  1  0
  4 54  1  0
  4  5  1  0
  4  3  1  0
  5  1  1  0
  7  8  1  0
  9 12  1  0
 10  9  2  0
 10 11  1  0
 11  7  2  0
 12  5  1  0
 12  8  2  0
 13 14  2  0
 14 10  1  0
 15 11  1  0
 15 24  1  0
 16 24  1  0
 17 22  1  0
 18 19  1  0
 18 17  1  0
 20 19  1  0
 20 29  1  0
 20 21  1  0
 22 16  1  0
 22 21  1  0
 23 16  2  0
 24 25  1  0
 26 27  2  0
 27 46  1  0
 28 27  1  0
 28 31  1  0
 29 30  1  0
 29 26  1  0
 30 28  2  0
 31 32  1  0
 32 33  2  0
 34 37  1  0
 34 33  1  0
 35 34  2  0
 36 35  1  0
 36 31  2  0
 37 38  1  0
 38 39  1  0
 39 40  2  0
 41 40  1  0
 41 45  1  0
 42 41  2  0
 43 38  2  0
 43 42  1  0
 44 43  1  0
 46 47  1  0
 47 50  1  0
 47 49  1  0
 48 46  2  0
 51 52  1  0
 51 26  1  0
 53 51  1  0
 55 54  1  0
 56 67  2  0
 57 55  1  0
 57 62  1  0
 58 66  1  0
 58 68  1  0
 59 65  1  0
 59 61  1  0
 60 66  1  0
 61 60  1  0
 62 61  2  0
 63 57  2  0
 64 63  1  0
 64 59  2  0
 65 58  1  0
 66 56  1  0
 68 70  2  0
 69 68  1  0
 71 69  1  0
 72 81  2  0
 72 77  1  0
 73 69  1  0
 73 77  1  0
 74 73  1  0
 75 76  1  0
 75 74  1  0
 76 72  1  0
 77 78  2  0
 78 79  1  0
 80 79  2  0
 81 80  1  0
 82 56  1  0
 82 87  1  0
 82 83  1  0
 83 86  1  1
 83 84  1  0
 85 83  1  0
 87 90  1  0
 88 92  1  0
 88 87  1  0
 89 88  2  0
 92 91  1  0
 94 92  1  0
 94 95  1  0
 94 93  1  0
M  ISO  4  16 100  24 100  54 101  55 101
M  END
>  <TORSDO>  (91) 
F 20

>  <SCORE>  (91) 
-13.505

>  <name>  (91) 
90

>  <ligand_id>  (91) 
90

>  <original_smiles>  (91) 
[H]C([H])=C([H])c1c([H])c(N2C(=O)C([H])([H])C([H])([H])C2([H])C([H])([H])Oc2c([H])c([H])c3c(c2[H])C([H])([H])N(C(=O)C([H])(N([H])C(=O)C([H])(N([H])C([H])([H])[H])C([H])([H])[H])C(C([H])([H])[H])(C([H])([H])[H])C([H])([H])[H])C([H])(C(=O)N([H])C2([H])c4c([H])c([H])c([H])c([H])c4C([H])([H])C([H])([H])C2([H])[H])C3([H])[H])c([H])c([H])c1C([H])([H])N([H])C(=O)N1C([H])([H])C([H])([H])C([H])([H])C([H])(n2nc(-c3c([H])c([H])c(Oc4c([H])c([H])c(F)c([H])c4F)c([H])c3[H])c(C(=O)N([H])[H])c2N([H])[H])C1([H])[H]

>  <smiles>  (91) 
[H]C([H])=C([H])c1c([H])c(N2C(=O)C([H])([H])C([H])([H])C2([H])C([H])([H])Oc2c([H])c([H])c3c(c2[H])C([H])([H])N(C(=O)C([H])(N([H])C(=O)C([H])(N([H])C([H])([H])[H])C([H])([H])[H])C(C([H])([H])[H])(C([H])([H])[H])C([H])([H])[H])C([H])(C(=O)N([H])C2([H])c4c([H])c([H])c([H])c([H])c4C([H])([H])C([H])([H])C2([H])[H])C3([H])[H])c([H])c([H])c1C([H])([H])N([H])C(=O)N1C([H])([H])C([H])([H])C([H])([H])C([H])(n2nc(-c3c([H])c([H])c(Oc4c([H])c([H])c(F)c([H])c4F)c([H])c3[H])c(C(=O)N([H])[H])c2N([H])[H])C1([H])[H]

$$$$
91:0:0
     RDKit          3D

 94102  0  0  1  0  0  0  0  0999 V2000
  -31.5840  -17.7180   19.5050 C   0  0  0  0  0  3  0  0  0  0  0  0
  -30.9920  -18.9950   19.3760 C   0  0  0  0  0  3  0  0  0  0  0  0
  -28.9710  -18.1310   20.3850 C   0  0  0  0  0  3  0  0  0  0  0  0
  -30.8910  -16.6180   20.0800 C   0  0  0  0  0  0  0  0  0  0  0  0
  -29.5500  -16.8500   20.5190 C   0  0  0  0  0  0  0  0  0  0  0  0
  -29.6760  -19.2130   19.8310 C   0  0  0  0  0  0  0  0  0  0  0  0
  -31.5940  -15.3000   20.2780 C   0  0  0  0  0  0  0  0  0  0  0  0
  -32.0720  -14.9680   21.4060 N   0  0  0  0  0  0  0  0  0  0  0  0
  -31.9010  -15.6950   22.0900 H   0  0  0  0  0  0  0  0  0  0  0  0
  -31.7180  -14.3740   19.0670 C   0  0  0  0  0  0  0  0  0  0  0  0
  -31.0690  -12.2260   18.0260 C   0  0  0  0  0  2  0  0  0  0  0  0
  -29.9450  -12.4120   16.9900 C   0  0  0  0  0  2  0  0  0  0  0  0
  -28.5600  -12.3770   17.6650 C   0  0  0  0  0  2  0  0  0  0  0  0
  -28.4850  -13.3070   18.9030 C   0  0  0  0  0  3  0  0  0  0  0  0
  -29.6890  -13.0520   19.8360 C   0  0  0  0  0  2  0  0  0  0  0  0
  -30.9260  -13.2610   19.0620 N   0  0  0  0  0  0  0  0  0  0  0  0
  -32.5890  -14.5850   18.2140 O   0  0  0  0  0  0  0  0  0  0  0  0
  -26.3470  -14.1310   20.0830 C   0  0  0  0  0  0  0  0  0  0  0  0
  -25.2740  -13.4580   20.6020 C   0  0  0  0  0  0  0  0  0  0  0  0
  -25.5440  -12.0700   20.4020 C   0  0  0  0  0  0  0  0  0  0  0  0
  -27.2140  -13.1570   19.6080 N   0  0  0  0  0  0  0  0  0  0  0  0
  -26.7400  -11.9080   19.8510 N   0  0  0  0  0  0  0  0  0  0  0  0
  -24.7100  -10.8880   20.6530 C   0  0  0  0  0  0  0  0  0  0  0  0
  -25.1230   -9.8680   21.5390 C   0  0  0  0  0  3  0  0  0  0  0  0
  -24.2960   -8.7480   21.7760 C   0  0  0  0  0  3  0  0  0  0  0  0
  -23.0420   -8.6420   21.1310 C   0  0  0  0  0  0  0  0  0  0  0  0
  -22.6460   -9.6490   20.2330 C   0  0  0  0  0  3  0  0  0  0  0  0
  -23.4720  -10.7600   19.9930 C   0  0  0  0  0  3  0  0  0  0  0  0
  -22.1850   -7.5790   21.2800 O   0  0  0  0  0  0  0  0  0  0  0  0
  -22.0530   -6.9240   22.4790 C   0  0  0  0  0  0  0  0  0  0  0  0
  -21.6470   -7.5940   23.6530 C   0  0  0  0  0  3  0  0  0  0  0  0
  -21.4570   -6.8700   24.8480 C   0  0  0  0  0  3  0  0  0  0  0  0
  -21.6630   -5.4770   24.8670 C   0  0  0  0  0  0  0  0  0  0  0  0
  -22.0620   -4.8070   23.6970 C   0  0  0  0  0  3  0  0  0  0  0  0
  -22.2540   -5.5290   22.5050 C   0  0  0  0  0  0  0  0  0  0  0  0
  -22.6180   -4.8760   21.3760 F   0  0  0  0  0  0  0  0  0  0  0  0
  -21.4730   -4.7800   26.0110 F   0  0  0  0  0  0  0  0  0  0  0  0
  -24.0220  -14.0680   21.1650 C   0  0  0  0  0  0  0  0  0  0  0  0
  -23.3970  -13.4030   22.1310 N   0  0  0  0  0  0  0  0  0  0  0  0
  -23.6160  -15.1650   20.7830 O   0  0  0  0  0  0  0  0  0  0  0  0
  -23.7400  -12.5120   22.4590 H   0  0  0  0  0  0  0  0  0  0  0  0
  -22.5630  -13.7900   22.5480 H   0  0  0  0  0  0  0  0  0  0  0  0
  -26.6510  -15.4830   19.9600 N   0  0  0  0  0  0  0  0  0  0  0  0
  -26.0070  -16.2100   20.2490 H   0  0  0  0  0  0  0  0  0  0  0  0
  -27.4840  -15.8480   19.5150 H   0  0  0  0  0  0  0  0  0  0  0  0
  -29.0150  -20.4510   19.7830 N   0  0  0  0  0  0  0  0  0  0  0  0
  -28.0540  -20.4880   20.1110 H   0  0  0  0  0  0  0  0  0  0  0  0
  -29.5790  -21.6870   19.2440 C   0  0  0  0  0  2  0  0  0  0  0  0
  -28.8670  -22.8970   19.8850 C   0  0  0  0  0  2  0  0  0  0  0  0
  -29.1580  -24.2730   19.2500 C   0  0  0  0  0  2  0  0  0  0  0  0
  -28.5540  -25.4140   20.0980 C   0  0  0  0  0  2  0  0  0  0  0  0
  -28.5950  -26.6830   19.4370 O   0  0  0  0  0  0  0  0  0  0  0  0
  -24.6480  -31.3770   23.0440 C   0  0  0  0  0  0  0  0  0  0  0  0
  -27.4130  -27.3800   19.5150 C   0  0  0  0  0  0  0  0  0  0  0  0
  -23.4720  -30.1070   21.2760 C   0  0  0  0  0  3  0  0  0  0  0  0
  -24.9640  -28.7710   19.6950 C   0  0  0  0  0  0  0  0  0  0  0  0
  -25.9790  -30.5790   21.0960 C   0  0  0  0  0  2  0  0  0  0  0  0
  -26.1080  -29.2840   20.3210 C   0  0  0  0  0  0  0  0  0  0  0  0
  -27.3380  -28.5950   20.2290 C   0  0  0  0  0  3  0  0  0  0  0  0
  -26.2560  -26.8740   18.8870 C   0  0  0  0  0  3  0  0  0  0  0  0
  -25.0320  -27.5640   18.9750 C   0  0  0  0  0  3  0  0  0  0  0  0
  -23.6890  -29.5740   19.8350 C   0  0  0  0  0  2  0  0  0  0  0  0
  -24.7180  -30.6960   21.8650 N   0  0  0  0  0  0  0  0  0  0  0  0
  -23.5630  -31.5570   23.6160 O   0  0  0  0  0  0  0  0  0  0  0  0
  -22.8640  -28.9740   22.1340 C   0  0  0  0  0  0  0  0  0  0  0  0
  -21.5490  -28.7490   21.9810 N   0  0  0  0  0  0  0  0  0  0  0  0
  -23.5720  -28.3050   22.8910 O   0  0  0  0  0  0  0  0  0  0  0  0
  -21.0370  -29.3450   21.3450 H   0  0  0  0  0  0  0  0  0  0  0  0
  -18.2320  -27.3610   22.3270 C   0  0  0  0  0  0  0  0  0  0  0  0
  -20.7720  -27.7090   22.6540 C   0  0  0  0  0  3  0  0  0  0  0  0
  -20.9470  -26.3420   21.9530 C   0  0  0  0  0  2  0  0  0  0  0  0
  -19.8690  -26.0620   20.9010 C   0  0  0  0  0  2  0  0  0  0  0  0
  -18.4770  -26.0860   21.5370 C   0  0  0  0  0  2  0  0  0  0  0  0
  -19.3100  -28.1310   22.8380 C   0  0  0  0  0  0  0  0  0  0  0  0
  -19.0280  -29.3260   23.5350 C   0  0  0  0  0  3  0  0  0  0  0  0
  -17.7010  -29.7520   23.7260 C   0  0  0  0  0  3  0  0  0  0  0  0
  -16.6370  -28.9790   23.2330 C   0  0  0  0  0  3  0  0  0  0  0  0
  -16.9030  -27.7840   22.5390 C   0  0  0  0  0  3  0  0  0  0  0  0
  -25.9190  -31.9860   23.7150 C   0  0  0  0  0  3  0  0  0  0  0  0
  -25.6080  -33.3770   24.0720 N   0  0  0  0  0  0  0  0  0  0  0  0
  -25.9800  -34.4450   23.3560 C   0  0  0  0  0  0  0  0  0  0  0  0
  -26.6920  -34.3640   22.3500 O   0  0  0  0  0  0  0  0  0  0  0  0
  -24.9820  -33.5140   24.8520 H   0  0  0  0  0  0  0  0  0  0  0  0
  -24.2810  -36.2600   22.9800 C   0  0  0  0  0  1  0  0  0  0  0  0
  -25.4850  -35.8250   23.8300 C   0  0  0  0  0  3  0  0  0  0  0  0
  -27.5870  -36.6740   24.7750 C   0  0  0  0  0  1  0  0  0  0  0  0
  -26.5290  -36.8720   23.7870 N   0  0  0  0  0  0  0  0  0  0  0  0
  -26.1240  -37.7920   23.9390 H   0  0  0  0  0  0  0  0  0  0  0  0
  -26.4010  -31.1770   24.9820 C   0  0  1  0  0  0  0  0  0  0  0  0
  -25.2810  -30.9160   26.0160 C   0  0  0  0  0  1  0  0  0  0  0  0
  -26.9870  -29.8080   24.5640 C   0  0  0  0  0  1  0  0  0  0  0  0
  -27.5380  -31.9480   25.6940 C   0  0  0  0  0  1  0  0  0  0  0  0
  -28.6040  -15.8990   22.6830 C   0  0  0  0  0  1  0  0  0  0  0  0
  -28.6600  -15.7830   21.1540 C   0  0  0  0  0  2  0  0  0  0  0  0
  1  4  1  0
  2  1  2  0
  2  6  1  0
  3  5  1  0
  4  7  1  0
  4  5  2  0
  5 94  1  0
  6  3  2  0
  7  8  2  0
  8  9  1  0
 10  7  1  0
 11 16  1  0
 12 13  1  0
 12 11  1  0
 14 13  1  0
 14 21  1  0
 14 15  1  0
 16 10  1  0
 16 15  1  0
 17 10  2  0
 18 19  2  0
 19 38  1  0
 20 19  1  0
 20 23  1  0
 21 22  1  0
 21 18  1  0
 22 20  2  0
 23 24  1  0
 24 25  2  0
 26 29  1  0
 26 25  1  0
 27 26  2  0
 28 27  1  0
 28 23  2  0
 29 30  1  0
 30 35  2  0
 30 31  1  0
 31 32  2  0
 32 33  1  0
 33 37  1  0
 34 33  2  0
 35 34  1  0
 36 35  1  0
 38 39  1  0
 39 41  1  0
 39 42  1  0
 40 38  2  0
 43 18  1  0
 43 44  1  0
 45 43  1  0
 46  6  1  0
 46 47  1  0
 48 46  1  0
 48 49  1  0
 50 49  1  0
 50 51  1  0
 52 54  1  0
 52 51  1  0
 53 64  2  0
 54 59  1  0
 55 63  1  0
 55 65  1  0
 56 62  1  0
 56 58  1  0
 57 63  1  0
 58 57  1  0
 59 58  2  0
 60 61  1  0
 60 54  2  0
 61 56  2  0
 62 55  1  0
 63 53  1  0
 65 67  2  0
 66 65  1  0
 68 66  1  0
 69 78  2  0
 69 74  1  0
 70 66  1  0
 70 74  1  0
 71 70  1  0
 72 73  1  0
 72 71  1  0
 73 69  1  0
 74 75  2  0
 75 76  1  0
 77 76  2  0
 78 77  1  0
 79 53  1  0
 79 80  1  0
 79 89  1  0
 80 83  1  0
 81 85  1  0
 81 80  1  0
 82 81  2  0
 85 84  1  0
 87 85  1  0
 87 88  1  0
 87 86  1  0
 89 92  1  1
 89 90  1  0
 91 89  1  0
 94 93  1  0
M  ISO  4   7 100  10 100  51 101  52 101
M  END
>  <TORSDO>  (92) 
F 23

>  <SCORE>  (92) 
-5.815

>  <name>  (92) 
91

>  <ligand_id>  (92) 
91

>  <original_smiles>  (92) 
[H]N=C(C(=O)N1C([H])([H])C([H])([H])C([H])([H])C([H])(n2nc(-c3c([H])c([H])c(Oc4c([H])c([H])c(F)c([H])c4F)c([H])c3[H])c(C(=O)N([H])[H])c2N([H])[H])C1([H])[H])c1c([H])c([H])c(N([H])C([H])([H])C([H])([H])C([H])([H])C([H])([H])Oc2c([H])c([H])c3c(c2[H])C([H])([H])N(C(=O)C([H])(N([H])C(=O)C([H])(N([H])C([H])([H])[H])C([H])([H])[H])C(C([H])([H])[H])(C([H])([H])[H])C([H])([H])[H])C([H])(C(=O)N([H])C2([H])c4c([H])c([H])c([H])c([H])c4C([H])([H])C([H])([H])C2([H])[H])C3([H])[H])c([H])c1C([H])([H])C([H])([H])[H]

>  <smiles>  (92) 
[H]N=C(C(=O)N1C([H])([H])C([H])([H])C([H])([H])C([H])(n2nc(-c3c([H])c([H])c(Oc4c([H])c([H])c(F)c([H])c4F)c([H])c3[H])c(C(=O)N([H])[H])c2N([H])[H])C1([H])[H])c1c([H])c([H])c(N([H])C([H])([H])C([H])([H])C([H])([H])C([H])([H])Oc2c([H])c([H])c3c(c2[H])C([H])([H])N(C(=O)C([H])(N([H])C(=O)C([H])(N([H])C([H])([H])[H])C([H])([H])[H])C(C([H])([H])[H])(C([H])([H])[H])C([H])([H])[H])C([H])(C(=O)N([H])C2([H])c4c([H])c([H])c([H])c([H])c4C([H])([H])C([H])([H])C2([H])[H])C3([H])[H])c([H])c1C([H])([H])C([H])([H])[H]

$$$$
92:0:0
     RDKit          3D

 95103  0  0  1  0  0  0  0  0999 V2000
  -30.5360  -16.9380   21.9340 C   0  0  0  0  0  3  0  0  0  0  0  0
  -30.1950  -19.3250   22.3080 C   0  0  0  0  0  3  0  0  0  0  0  0
  -30.0750  -17.0400   20.5960 C   0  0  0  0  0  0  0  0  0  0  0  0
  -29.7070  -18.3500   20.1190 C   0  0  0  0  0  0  0  0  0  0  0  0
  -29.7300  -19.4740   20.9910 C   0  0  0  0  0  0  0  0  0  0  0  0
  -30.6190  -18.0680   22.7670 C   0  0  0  0  0  0  0  0  0  0  0  0
  -31.0770  -17.9320   24.0360 F   0  0  0  0  0  0  0  0  0  0  0  0
  -29.8940  -15.7730   19.7780 C   0  0  0  0  0  0  0  0  0  0  0  0
  -29.1240  -15.7460   18.7720 N   0  0  0  0  0  0  0  0  0  0  0  0
  -28.6750  -16.6460   18.6360 H   0  0  0  0  0  0  0  0  0  0  0  0
  -30.7180  -14.5100   20.1240 C   0  0  0  0  0  0  0  0  0  0  0  0
  -30.3490  -12.3130   19.1000 C   0  0  0  0  0  2  0  0  0  0  0  0
  -29.3490  -12.4830   17.9360 C   0  0  0  0  0  2  0  0  0  0  0  0
  -27.8920  -12.3730   18.4330 C   0  0  0  0  0  2  0  0  0  0  0  0
  -27.6050  -13.2280   19.6950 C   0  0  0  0  0  3  0  0  0  0  0  0
  -28.7260  -13.0860   20.7510 C   0  0  0  0  0  2  0  0  0  0  0  0
  -30.0240  -13.3350   20.1030 N   0  0  0  0  0  0  0  0  0  0  0  0
  -31.9360  -14.5740   19.9330 O   0  0  0  0  0  0  0  0  0  0  0  0
  -25.2670  -13.8690   20.5370 C   0  0  0  0  0  0  0  0  0  0  0  0
  -24.2000  -13.1090   20.9320 C   0  0  0  0  0  0  0  0  0  0  0  0
  -24.6390  -11.7520   20.8640 C   0  0  0  0  0  0  0  0  0  0  0  0
  -26.2820  -12.9710   20.2470 N   0  0  0  0  0  0  0  0  0  0  0  0
  -25.9150  -11.6930   20.5100 N   0  0  0  0  0  0  0  0  0  0  0  0
  -23.9050  -10.4980   21.0570 C   0  0  0  0  0  0  0  0  0  0  0  0
  -24.3530   -9.5150   21.9680 C   0  0  0  0  0  3  0  0  0  0  0  0
  -23.6210   -8.3240   22.1480 C   0  0  0  0  0  3  0  0  0  0  0  0
  -22.4270   -8.1070   21.4190 C   0  0  0  0  0  0  0  0  0  0  0  0
  -22.0000   -9.0780   20.4970 C   0  0  0  0  0  3  0  0  0  0  0  0
  -22.7330  -10.2600   20.3130 C   0  0  0  0  0  3  0  0  0  0  0  0
  -21.6660   -6.9660   21.5100 O   0  0  0  0  0  0  0  0  0  0  0  0
  -21.6360   -6.2120   22.6550 C   0  0  0  0  0  0  0  0  0  0  0  0
  -21.2190   -6.7530   23.8910 C   0  0  0  0  0  3  0  0  0  0  0  0
  -21.1340   -5.9270   25.0280 C   0  0  0  0  0  3  0  0  0  0  0  0
  -21.4570   -4.5590   24.9320 C   0  0  0  0  0  0  0  0  0  0  0  0
  -21.8730   -4.0190   23.7020 C   0  0  0  0  0  3  0  0  0  0  0  0
  -21.9570   -4.8430   22.5670 C   0  0  0  0  0  0  0  0  0  0  0  0
  -22.3350   -4.3150   21.3780 F   0  0  0  0  0  0  0  0  0  0  0  0
  -21.3750   -3.7620   26.0230 F   0  0  0  0  0  0  0  0  0  0  0  0
  -22.8190  -13.6030   21.2610 C   0  0  0  0  0  0  0  0  0  0  0  0
  -22.1140  -12.9030   22.1410 N   0  0  0  0  0  0  0  0  0  0  0  0
  -22.3800  -14.6440   20.7770 O   0  0  0  0  0  0  0  0  0  0  0  0
  -22.4860  -12.0610   22.5550 H   0  0  0  0  0  0  0  0  0  0  0  0
  -21.1910  -13.2140   22.4080 H   0  0  0  0  0  0  0  0  0  0  0  0
  -25.4490  -15.2410   20.3790 N   0  0  0  0  0  0  0  0  0  0  0  0
  -24.7060  -15.9120   20.5410 H   0  0  0  0  0  0  0  0  0  0  0  0
  -26.3050  -15.6650   20.0410 H   0  0  0  0  0  0  0  0  0  0  0  0
  -28.1250  -19.0550   18.3130 C   0  0  0  0  0  2  0  0  0  0  0  0
  -29.3280  -18.6140   18.7140 C   0  0  0  0  0  3  0  0  0  0  0  0
  -29.1530  -20.6690   20.6130 O   0  0  0  0  0  0  0  0  0  0  0  0
  -29.9820  -21.8260   20.4880 C   0  0  0  0  0  2  0  0  0  0  0  0
  -29.0550  -23.0600   20.6360 C   0  0  0  0  0  2  0  0  0  0  0  0
  -29.6720  -24.4370   20.3460 C   0  0  0  0  0  0  0  0  0  0  0  0
  -30.5910  -24.5820   19.5320 O   0  0  0  0  0  0  0  0  0  0  0  0
  -29.0540  -25.6330   21.0910 C   0  0  0  0  0  2  0  0  0  0  0  0
  -29.1420  -26.8580   20.3420 O   0  0  0  0  0  0  0  0  0  0  0  0
  -24.8540  -31.6910   23.3320 C   0  0  0  0  0  0  0  0  0  0  0  0
  -27.9480  -27.5390   20.2810 C   0  0  0  0  0  0  0  0  0  0  0  0
  -23.8380  -30.2770   21.5770 C   0  0  0  0  0  3  0  0  0  0  0  0
  -25.4690  -28.8900   20.1890 C   0  0  0  0  0  0  0  0  0  0  0  0
  -26.3420  -30.8030   21.5390 C   0  0  0  0  0  2  0  0  0  0  0  0
  -26.5550  -29.4650   20.8610 C   0  0  0  0  0  0  0  0  0  0  0  0
  -27.8020  -28.8000   20.9000 C   0  0  0  0  0  3  0  0  0  0  0  0
  -26.8490  -26.9760   19.6000 C   0  0  0  0  0  3  0  0  0  0  0  0
  -25.6070  -27.6430   19.5540 C   0  0  0  0  0  3  0  0  0  0  0  0
  -24.1710  -29.6650   20.1910 C   0  0  0  0  0  2  0  0  0  0  0  0
  -25.0250  -30.9350   22.2100 N   0  0  0  0  0  0  0  0  0  0  0  0
  -23.7260  -31.8720   23.8160 O   0  0  0  0  0  0  0  0  0  0  0  0
  -23.2000  -29.1830   22.4610 C   0  0  0  0  0  0  0  0  0  0  0  0
  -21.8970  -28.9300   22.2510 N   0  0  0  0  0  0  0  0  0  0  0  0
  -23.8730  -28.5680   23.2910 O   0  0  0  0  0  0  0  0  0  0  0  0
  -21.4140  -29.4740   21.5510 H   0  0  0  0  0  0  0  0  0  0  0  0
  -18.5800  -27.5250   22.4980 C   0  0  0  0  0  0  0  0  0  0  0  0
  -21.0990  -27.9170   22.9340 C   0  0  0  0  0  3  0  0  0  0  0  0
  -21.3140  -26.5230   22.3040 C   0  0  0  0  0  2  0  0  0  0  0  0
  -20.3020  -26.1930   21.2050 C   0  0  0  0  0  2  0  0  0  0  0  0
  -18.8770  -26.2230   21.7720 C   0  0  0  0  0  2  0  0  0  0  0  0
  -19.6280  -28.3290   23.0270 C   0  0  0  0  0  0  0  0  0  0  0  0
  -19.3030  -29.5520   23.6500 C   0  0  0  0  0  3  0  0  0  0  0  0
  -17.9660  -29.9740   23.7600 C   0  0  0  0  0  3  0  0  0  0  0  0
  -16.9310  -29.1680   23.2540 C   0  0  0  0  0  3  0  0  0  0  0  0
  -17.2400  -27.9470   22.6280 C   0  0  0  0  0  3  0  0  0  0  0  0
  -26.0580  -32.3780   24.0510 C   0  0  0  0  0  3  0  0  0  0  0  0
  -25.6620  -33.7600   24.3520 N   0  0  0  0  0  0  0  0  0  0  0  0
  -26.0040  -34.8240   23.6150 C   0  0  0  0  0  0  0  0  0  0  0  0
  -26.7510  -34.7490   22.6350 O   0  0  0  0  0  0  0  0  0  0  0  0
  -25.0050  -33.8910   25.1100 H   0  0  0  0  0  0  0  0  0  0  0  0
  -24.2170  -36.5260   23.1340 C   0  0  0  0  0  1  0  0  0  0  0  0
  -25.4250  -36.1900   24.0260 C   0  0  0  0  0  3  0  0  0  0  0  0
  -27.4560  -37.1830   24.9860 C   0  0  0  0  0  1  0  0  0  0  0  0
  -26.4130  -37.2910   23.9690 N   0  0  0  0  0  0  0  0  0  0  0  0
  -25.9550  -38.1930   24.0710 H   0  0  0  0  0  0  0  0  0  0  0  0
  -26.5100  -31.6240   25.3600 C   0  0  1  0  0  0  0  0  0  0  0  0
  -25.3510  -31.3360   26.3420 C   0  0  0  0  0  1  0  0  0  0  0  0
  -27.1820  -30.2760   25.0120 C   0  0  0  0  0  1  0  0  0  0  0  0
  -27.5770  -32.4590   26.1070 C   0  0  0  0  0  1  0  0  0  0  0  0
  1  6  1  0
  2  6  2  0
  3  1  2  0
  4  3  1  0
  4  5  2  0
  5  2  1  0
  6  7  1  0
  8 11  1  0
  8  3  1  0
  9  8  2  0
 10  9  1  0
 12 17  1  0
 13 14  1  0
 13 12  1  0
 15 14  1  0
 15 22  1  0
 15 16  1  0
 17 11  1  0
 17 16  1  0
 18 11  2  0
 19 20  2  0
 20 39  1  0
 21 20  1  0
 21 24  1  0
 22 23  1  0
 22 19  1  0
 23 21  2  0
 24 25  1  0
 25 26  2  0
 27 30  1  0
 27 26  1  0
 28 27  2  0
 29 28  1  0
 29 24  2  0
 30 31  1  0
 31 32  1  0
 32 33  2  0
 34 33  1  0
 34 38  1  0
 35 34  2  0
 36 31  2  0
 36 35  1  0
 37 36  1  0
 39 40  1  0
 40 43  1  0
 40 42  1  0
 41 39  2  0
 44 19  1  0
 44 45  1  0
 46 44  1  0
 47 48  2  0
 48  4  1  0
 49  5  1  0
 50 49  1  0
 50 51  1  0
 52 51  1  0
 52 54  1  0
 53 52  2  0
 55 54  1  0
 56 67  2  0
 57 55  1  0
 57 62  1  0
 58 66  1  0
 58 68  1  0
 59 65  1  0
 59 61  1  0
 60 66  1  0
 61 62  2  0
 61 60  1  0
 63 57  2  0
 64 63  1  0
 64 59  2  0
 65 58  1  0
 66 56  1  0
 68 70  2  0
 69 68  1  0
 71 69  1  0
 72 81  2  0
 72 77  1  0
 73 69  1  0
 73 77  1  0
 74 73  1  0
 75 76  1  0
 75 74  1  0
 76 72  1  0
 77 78  2  0
 78 79  1  0
 80 79  2  0
 81 80  1  0
 82 56  1  0
 82 83  1  0
 82 92  1  0
 83 86  1  0
 84 88  1  0
 84 83  1  0
 85 84  2  0
 88 87  1  0
 90 88  1  0
 90 91  1  0
 90 89  1  0
 92 95  1  1
 92 93  1  0
 94 92  1  0
M  ISO  4   8 100  11 100  54 101  55 101
M  END
>  <TORSDO>  (93) 
F 23

>  <SCORE>  (93) 
-11.742

>  <name>  (93) 
92

>  <ligand_id>  (93) 
92

>  <original_smiles>  (93) 
[H]N=C(C(=O)N1C([H])([H])C([H])([H])C([H])([H])C([H])(n2nc(-c3c([H])c([H])c(Oc4c([H])c([H])c(F)c([H])c4F)c([H])c3[H])c(C(=O)N([H])[H])c2N([H])[H])C1([H])[H])c1c([H])c(F)c([H])c(OC([H])([H])C([H])([H])C(=O)C([H])([H])Oc2c([H])c([H])c3c(c2[H])C([H])([H])N(C(=O)C([H])(N([H])C(=O)C([H])(N([H])C([H])([H])[H])C([H])([H])[H])C(C([H])([H])[H])(C([H])([H])[H])C([H])([H])[H])C([H])(C(=O)N([H])C2([H])c4c([H])c([H])c([H])c([H])c4C([H])([H])C([H])([H])C2([H])[H])C3([H])[H])c1C([H])=C([H])[H]

>  <smiles>  (93) 
[H]N=C(C(=O)N1C([H])([H])C([H])([H])C([H])([H])C([H])(n2nc(-c3c([H])c([H])c(Oc4c([H])c([H])c(F)c([H])c4F)c([H])c3[H])c(C(=O)N([H])[H])c2N([H])[H])C1([H])[H])c1c([H])c(F)c([H])c(OC([H])([H])C([H])([H])C(=O)C([H])([H])Oc2c([H])c([H])c3c(c2[H])C([H])([H])N(C(=O)C([H])(N([H])C(=O)C([H])(N([H])C([H])([H])[H])C([H])([H])[H])C(C([H])([H])[H])(C([H])([H])[H])C([H])([H])[H])C([H])(C(=O)N([H])C2([H])c4c([H])c([H])c([H])c([H])c4C([H])([H])C([H])([H])C2([H])[H])C3([H])[H])c1C([H])=C([H])[H]

$$$$
93:0:0
     RDKit          3D

 91 99  0  0  1  0  0  0  0  0999 V2000
  -30.9240  -17.8620   19.4180 C   0  0  0  0  0  3  0  0  0  0  0  0
  -31.2390  -19.0220   18.6790 C   0  0  0  0  0  3  0  0  0  0  0  0
  -29.9500  -19.2710   21.1280 C   0  0  0  0  0  3  0  0  0  0  0  0
  -30.2940  -17.9610   20.6740 C   0  0  0  0  0  0  0  0  0  0  0  0
  -30.9290  -20.3220   19.1590 C   0  0  0  0  0  0  0  0  0  0  0  0
  -30.2310  -20.4550   20.3850 C   0  0  0  0  0  0  0  0  0  0  0  0
  -29.9800  -16.7840   21.5520 C   0  0  0  0  0  3  0  0  0  0  0  0
  -30.1210  -15.4230   21.5200 C   0  0  0  0  0  3  0  0  0  0  0  0
  -30.7080  -14.5190   20.5150 C   0  0  0  0  0  0  0  0  0  0  0  0
  -30.4010  -12.4020   19.2360 C   0  0  0  0  0  2  0  0  0  0  0  0
  -29.4490  -12.6250   18.0440 C   0  0  0  0  0  2  0  0  0  0  0  0
  -27.9760  -12.4620   18.4690 C   0  0  0  0  0  2  0  0  0  0  0  0
  -27.6470  -13.2620   19.7560 C   0  0  0  0  0  3  0  0  0  0  0  0
  -28.7000  -12.9870   20.8490 C   0  0  0  0  0  2  0  0  0  0  0  0
  -30.0270  -13.3470   20.3080 N   0  0  0  0  0  0  0  0  0  0  0  0
  -31.7690  -14.7490   19.9290 O   0  0  0  0  0  0  0  0  0  0  0  0
  -25.2500  -13.8800   20.4550 C   0  0  0  0  0  0  0  0  0  0  0  0
  -24.1790  -13.1120   20.8270 C   0  0  0  0  0  0  0  0  0  0  0  0
  -24.6370  -11.7590   20.8070 C   0  0  0  0  0  0  0  0  0  0  0  0
  -26.2930  -12.9930   20.2310 N   0  0  0  0  0  0  0  0  0  0  0  0
  -25.9280  -11.7130   20.5000 N   0  0  0  0  0  0  0  0  0  0  0  0
  -23.9090  -10.5000   21.0070 C   0  0  0  0  0  0  0  0  0  0  0  0
  -24.3460   -9.5330   21.9410 C   0  0  0  0  0  3  0  0  0  0  0  0
  -23.6160   -8.3380   22.1270 C   0  0  0  0  0  3  0  0  0  0  0  0
  -22.4380   -8.1010   21.3800 C   0  0  0  0  0  0  0  0  0  0  0  0
  -22.0220   -9.0560   20.4360 C   0  0  0  0  0  3  0  0  0  0  0  0
  -22.7510  -10.2430   20.2460 C   0  0  0  0  0  3  0  0  0  0  0  0
  -21.6820   -6.9580   21.4740 O   0  0  0  0  0  0  0  0  0  0  0  0
  -21.6430   -6.2140   22.6260 C   0  0  0  0  0  0  0  0  0  0  0  0
  -21.2420   -6.7710   23.8610 C   0  0  0  0  0  3  0  0  0  0  0  0
  -21.1530   -5.9550   25.0050 C   0  0  0  0  0  3  0  0  0  0  0  0
  -21.4510   -4.5820   24.9180 C   0  0  0  0  0  0  0  0  0  0  0  0
  -21.8420   -4.0240   23.6880 C   0  0  0  0  0  3  0  0  0  0  0  0
  -21.9350   -4.8370   22.5440 C   0  0  0  0  0  0  0  0  0  0  0  0
  -22.2940   -4.2900   21.3580 F   0  0  0  0  0  0  0  0  0  0  0  0
  -21.3560   -3.7950   26.0160 F   0  0  0  0  0  0  0  0  0  0  0  0
  -22.7830  -13.5950   21.0950 C   0  0  0  0  0  0  0  0  0  0  0  0
  -22.0510  -12.9050   21.9640 N   0  0  0  0  0  0  0  0  0  0  0  0
  -22.3480  -14.6180   20.5690 O   0  0  0  0  0  0  0  0  0  0  0  0
  -22.4150  -12.0760   22.4110 H   0  0  0  0  0  0  0  0  0  0  0  0
  -21.1150  -13.2140   22.1860 H   0  0  0  0  0  0  0  0  0  0  0  0
  -25.4220  -15.2480   20.2690 N   0  0  0  0  0  0  0  0  0  0  0  0
  -24.6700  -15.9170   20.3820 H   0  0  0  0  0  0  0  0  0  0  0  0
  -26.2930  -15.6760   19.9800 H   0  0  0  0  0  0  0  0  0  0  0  0
  -32.2090  -21.3750   17.4090 C   0  0  0  0  0  1  0  0  0  0  0  0
  -31.3150  -21.4780   18.5130 O   0  0  0  0  0  0  0  0  0  0  0  0
  -29.9360  -21.7070   20.9320 O   0  0  0  0  0  0  0  0  0  0  0  0
  -29.0780  -22.6300   20.2080 C   0  0  0  0  0  2  0  0  0  0  0  0
  -29.3180  -24.1500   20.5440 C   0  0  0  0  0  2  0  0  0  0  0  0
  -28.1850  -25.1180   20.0480 C   0  0  0  0  0  2  0  0  0  0  0  0
  -28.3510  -26.5570   20.2570 O   0  0  0  0  0  0  0  0  0  0  0  0
  -24.5810  -31.8840   23.2300 C   0  0  0  0  0  0  0  0  0  0  0  0
  -27.2060  -27.3550   20.1900 C   0  0  0  0  0  0  0  0  0  0  0  0
  -23.3740  -30.4750   21.5980 C   0  0  0  0  0  3  0  0  0  0  0  0
  -24.8250  -28.9240   20.1770 C   0  0  0  0  0  0  0  0  0  0  0  0
  -25.9070  -30.8090   21.4020 C   0  0  0  0  0  2  0  0  0  0  0  0
  -25.9880  -29.4290   20.7700 C   0  0  0  0  0  0  0  0  0  0  0  0
  -27.1810  -28.6560   20.7680 C   0  0  0  0  0  3  0  0  0  0  0  0
  -26.0200  -26.8960   19.5680 C   0  0  0  0  0  3  0  0  0  0  0  0
  -24.8410  -27.6610   19.5680 C   0  0  0  0  0  3  0  0  0  0  0  0
  -23.5830  -29.7880   20.2220 C   0  0  0  0  0  2  0  0  0  0  0  0
  -24.6390  -31.0740   22.1340 N   0  0  0  0  0  0  0  0  0  0  0  0
  -23.4990  -32.1650   23.7660 O   0  0  0  0  0  0  0  0  0  0  0  0
  -22.7140  -29.4630   22.5640 C   0  0  0  0  0  0  0  0  0  0  0  0
  -21.3880  -29.2860   22.4350 N   0  0  0  0  0  0  0  0  0  0  0  0
  -23.3920  -28.8420   23.3870 O   0  0  0  0  0  0  0  0  0  0  0  0
  -20.9030  -29.8400   21.7440 H   0  0  0  0  0  0  0  0  0  0  0  0
  -18.0080  -28.0950   22.9230 C   0  0  0  0  0  0  0  0  0  0  0  0
  -20.5640  -28.3580   23.2090 C   0  0  0  0  0  3  0  0  0  0  0  0
  -20.6710  -26.9200   22.6480 C   0  0  0  0  0  2  0  0  0  0  0  0
  -19.5770  -26.5880   21.6300 C   0  0  0  0  0  2  0  0  0  0  0  0
  -18.1910  -26.7390   22.2640 C   0  0  0  0  0  2  0  0  0  0  0  0
  -19.1240  -28.8620   23.3520 C   0  0  0  0  0  0  0  0  0  0  0  0
  -18.8990  -30.1320   23.9290 C   0  0  0  0  0  3  0  0  0  0  0  0
  -17.5920  -30.6330   24.0800 C   0  0  0  0  0  3  0  0  0  0  0  0
  -16.4920  -29.8630   23.6660 C   0  0  0  0  0  3  0  0  0  0  0  0
  -16.7010  -28.5950   23.0930 C   0  0  0  0  0  3  0  0  0  0  0  0
  -25.8650  -32.5150   23.8490 C   0  0  0  0  0  3  0  0  0  0  0  0
  -25.5570  -33.9120   24.1820 N   0  0  0  0  0  0  0  0  0  0  0  0
  -25.8890  -34.9670   23.4230 C   0  0  0  0  0  0  0  0  0  0  0  0
  -26.5560  -34.8620   22.3900 O   0  0  0  0  0  0  0  0  0  0  0  0
  -24.9580  -34.0680   24.9800 H   0  0  0  0  0  0  0  0  0  0  0  0
  -24.1590  -36.7590   23.0790 C   0  0  0  0  0  1  0  0  0  0  0  0
  -25.4050  -36.3560   23.8830 C   0  0  0  0  0  3  0  0  0  0  0  0
  -27.5460  -37.2360   24.7010 C   0  0  0  0  0  1  0  0  0  0  0  0
  -26.4380  -37.4080   23.7650 N   0  0  0  0  0  0  0  0  0  0  0  0
  -26.0350  -38.3290   23.9160 H   0  0  0  0  0  0  0  0  0  0  0  0
  -26.3860  -31.7400   25.1210 C   0  0  1  0  0  0  0  0  0  0  0  0
  -25.2950  -31.5010   26.1910 C   0  0  0  0  0  1  0  0  0  0  0  0
  -26.9620  -30.3620   24.7220 C   0  0  0  0  0  1  0  0  0  0  0  0
  -27.5440  -32.5280   25.7770 C   0  0  0  0  0  1  0  0  0  0  0  0
  1  4  1  0
  2  5  1  0
  2  1  2  0
  4  3  2  0
  4  7  1  0
  5  6  2  0
  6 47  1  0
  6  3  1  0
  8  7  2  0
  9  8  1  0
 10 15  1  0
 11 12  1  0
 11 10  1  0
 13 12  1  0
 13 20  1  0
 13 14  1  0
 15  9  1  0
 15 14  1  0
 16  9  2  0
 17 18  2  0
 18 37  1  0
 19 18  1  0
 19 22  1  0
 20 17  1  0
 20 21  1  0
 21 19  2  0
 22 23  1  0
 23 24  2  0
 25 28  1  0
 25 24  1  0
 26 25  2  0
 27 26  1  0
 27 22  2  0
 28 29  1  0
 29 30  1  0
 30 31  2  0
 32 31  1  0
 32 36  1  0
 33 32  2  0
 34 29  2  0
 34 33  1  0
 35 34  1  0
 37 38  1  0
 38 41  1  0
 38 40  1  0
 39 37  2  0
 42 43  1  0
 42 17  1  0
 44 42  1  0
 45 46  1  0
 46  5  1  0
 48 49  1  0
 48 47  1  0
 50 51  1  0
 50 49  1  0
 52 63  2  0
 53 51  1  0
 53 58  1  0
 54 62  1  0
 54 64  1  0
 55 61  1  0
 55 57  1  0
 56 62  1  0
 57 56  1  0
 58 57  2  0
 59 53  2  0
 60 59  1  0
 60 55  2  0
 61 54  1  0
 62 52  1  0
 64 66  2  0
 65 64  1  0
 67 65  1  0
 68 77  2  0
 68 73  1  0
 69 65  1  0
 69 73  1  0
 70 69  1  0
 71 72  1  0
 71 70  1  0
 72 68  1  0
 73 74  2  0
 74 75  1  0
 76 75  2  0
 77 76  1  0
 78 52  1  0
 78 79  1  0
 78 88  1  0
 79 82  1  0
 80 84  1  0
 80 79  1  0
 81 80  2  0
 84 83  1  0
 86 84  1  0
 86 87  1  0
 86 85  1  0
 88 91  1  1
 88 89  1  0
 90 88  1  0
M  ISO  4   8 100   9 100  50 101  51 101
M  END
>  <TORSDO>  (94) 
F 22

>  <SCORE>  (94) 
-13.186

>  <name>  (94) 
93

>  <ligand_id>  (94) 
93

>  <original_smiles>  (94) 
[H]C(C(=O)N1C([H])([H])C([H])([H])C([H])([H])C([H])(n2nc(-c3c([H])c([H])c(Oc4c([H])c([H])c(F)c([H])c4F)c([H])c3[H])c(C(=O)N([H])[H])c2N([H])[H])C1([H])[H])=C([H])c1c([H])c([H])c(OC([H])([H])[H])c(OC([H])([H])C([H])([H])C([H])([H])Oc2c([H])c([H])c3c(c2[H])C([H])([H])N(C(=O)C([H])(N([H])C(=O)C([H])(N([H])C([H])([H])[H])C([H])([H])[H])C(C([H])([H])[H])(C([H])([H])[H])C([H])([H])[H])C([H])(C(=O)N([H])C2([H])c4c([H])c([H])c([H])c([H])c4C([H])([H])C([H])([H])C2([H])[H])C3([H])[H])c1[H]

>  <smiles>  (94) 
[H]C(C(=O)N1C([H])([H])C([H])([H])C([H])([H])C([H])(n2nc(-c3c([H])c([H])c(Oc4c([H])c([H])c(F)c([H])c4F)c([H])c3[H])c(C(=O)N([H])[H])c2N([H])[H])C1([H])[H])=C([H])c1c([H])c([H])c(OC([H])([H])[H])c(OC([H])([H])C([H])([H])C([H])([H])Oc2c([H])c([H])c3c(c2[H])C([H])([H])N(C(=O)C([H])(N([H])C(=O)C([H])(N([H])C([H])([H])[H])C([H])([H])[H])C(C([H])([H])[H])(C([H])([H])[H])C([H])([H])[H])C([H])(C(=O)N([H])C2([H])c4c([H])c([H])c([H])c([H])c4C([H])([H])C([H])([H])C2([H])[H])C3([H])[H])c1[H]

$$$$
94:0:0
     RDKit          3D

 93101  0  0  1  0  0  0  0  0999 V2000
  -30.2240  -21.6850   20.4980 C   0  0  0  0  0  0  0  0  0  0  0  0
  -31.3560  -22.2170   20.7010 N   0  0  0  0  0  0  0  0  0  0  0  0
  -32.0690  -21.5050   20.8420 H   0  0  0  0  0  0  0  0  0  0  0  0
  -28.8910  -19.4310   20.4020 C   0  0  0  0  0  3  0  0  0  0  0  0
  -31.1970  -17.8670   20.6830 C   0  0  0  0  0  3  0  0  0  0  0  0
  -30.1210  -20.1360   20.5140 C   0  0  0  0  0  0  0  0  0  0  0  0
  -29.9630  -17.1830   20.5840 C   0  0  0  0  0  0  0  0  0  0  0  0
  -28.8150  -18.0050   20.4450 C   0  0  0  0  0  0  0  0  0  0  0  0
  -31.2730  -19.2910   20.6520 C   0  0  0  0  0  0  0  0  0  0  0  0
  -27.6040  -17.4070   20.3480 F   0  0  0  0  0  0  0  0  0  0  0  0
  -32.5110  -19.8330   20.7660 F   0  0  0  0  0  0  0  0  0  0  0  0
  -30.5790  -14.6810   20.2960 C   0  0  0  0  0  0  0  0  0  0  0  0
  -30.3270  -12.4710   19.1890 C   0  0  0  0  0  2  0  0  0  0  0  0
  -29.3550  -12.6340   17.9990 C   0  0  0  0  0  2  0  0  0  0  0  0
  -27.8910  -12.4750   18.4570 C   0  0  0  0  0  2  0  0  0  0  0  0
  -27.5670  -13.3120   19.7240 C   0  0  0  0  0  3  0  0  0  0  0  0
  -28.6510  -13.1250   20.8100 C   0  0  0  0  0  2  0  0  0  0  0  0
  -29.9490  -13.4680   20.2080 N   0  0  0  0  0  0  0  0  0  0  0  0
  -31.7360  -14.8350   19.8940 O   0  0  0  0  0  0  0  0  0  0  0  0
  -29.7870  -15.7340   20.6620 N   0  0  0  0  0  0  0  0  0  0  0  0
  -28.8460  -15.4560   20.8950 H   0  0  0  0  0  0  0  0  0  0  0  0
  -25.1870  -13.9050   20.4960 C   0  0  0  0  0  0  0  0  0  0  0  0
  -24.1260  -13.1280   20.8760 C   0  0  0  0  0  0  0  0  0  0  0  0
  -24.5880  -11.7770   20.8230 C   0  0  0  0  0  0  0  0  0  0  0  0
  -26.2270  -13.0270   20.2340 N   0  0  0  0  0  0  0  0  0  0  0  0
  -25.8720  -11.7410   20.4910 N   0  0  0  0  0  0  0  0  0  0  0  0
  -23.8650  -10.5130   21.0160 C   0  0  0  0  0  0  0  0  0  0  0  0
  -24.3040   -9.5450   21.9460 C   0  0  0  0  0  3  0  0  0  0  0  0
  -23.5800   -8.3460   22.1260 C   0  0  0  0  0  3  0  0  0  0  0  0
  -22.4030   -8.1070   21.3760 C   0  0  0  0  0  0  0  0  0  0  0  0
  -21.9840   -9.0660   20.4370 C   0  0  0  0  0  3  0  0  0  0  0  0
  -22.7080  -10.2550   20.2540 C   0  0  0  0  0  3  0  0  0  0  0  0
  -21.6510   -6.9610   21.4660 O   0  0  0  0  0  0  0  0  0  0  0  0
  -21.5950   -6.2250   22.6230 C   0  0  0  0  0  0  0  0  0  0  0  0
  -21.1330   -6.7790   23.8360 C   0  0  0  0  0  3  0  0  0  0  0  0
  -21.0260   -5.9680   24.9840 C   0  0  0  0  0  3  0  0  0  0  0  0
  -21.3730   -4.6050   24.9190 C   0  0  0  0  0  0  0  0  0  0  0  0
  -21.8290   -4.0500   23.7100 C   0  0  0  0  0  3  0  0  0  0  0  0
  -21.9370   -4.8590   22.5650 C   0  0  0  0  0  0  0  0  0  0  0  0
  -22.3570   -4.3150   21.3970 F   0  0  0  0  0  0  0  0  0  0  0  0
  -21.2630   -3.8240   26.0200 F   0  0  0  0  0  0  0  0  0  0  0  0
  -22.7360  -13.6040   21.1810 C   0  0  0  0  0  0  0  0  0  0  0  0
  -22.0240  -12.8990   22.0540 N   0  0  0  0  0  0  0  0  0  0  0  0
  -22.2880  -14.6350   20.6800 O   0  0  0  0  0  0  0  0  0  0  0  0
  -22.4000  -12.0660   22.4830 H   0  0  0  0  0  0  0  0  0  0  0  0
  -21.0930  -13.2010   22.3010 H   0  0  0  0  0  0  0  0  0  0  0  0
  -25.3460  -15.2780   20.3340 N   0  0  0  0  0  0  0  0  0  0  0  0
  -24.5840  -15.9260   20.4930 H   0  0  0  0  0  0  0  0  0  0  0  0
  -26.2030  -15.7480   20.0650 H   0  0  0  0  0  0  0  0  0  0  0  0
  -29.1060  -22.6940   20.2630 C   0  0  0  0  0  3  0  0  0  0  0  0
  -29.2400  -24.0670   20.1920 C   0  0  0  0  0  3  0  0  0  0  0  0
  -28.1160  -25.0990   19.8840 C   0  0  0  0  0  2  0  0  0  0  0  0
  -28.3330  -26.5250   20.2150 O   0  0  0  0  0  0  0  0  0  0  0  0
  -24.6020  -31.8970   23.2720 C   0  0  0  0  0  0  0  0  0  0  0  0
  -27.2120  -27.3740   20.1670 C   0  0  0  0  0  0  0  0  0  0  0  0
  -23.3950  -30.5150   21.6220 C   0  0  0  0  0  3  0  0  0  0  0  0
  -24.8430  -28.9830   20.1780 C   0  0  0  0  0  0  0  0  0  0  0  0
  -25.9360  -30.8360   21.4380 C   0  0  0  0  0  2  0  0  0  0  0  0
  -26.0140  -29.4650   20.7790 C   0  0  0  0  0  0  0  0  0  0  0  0
  -27.2000  -28.6720   20.7640 C   0  0  0  0  0  3  0  0  0  0  0  0
  -26.0130  -26.9490   19.5420 C   0  0  0  0  0  3  0  0  0  0  0  0
  -24.8450  -27.7300   19.5530 C   0  0  0  0  0  3  0  0  0  0  0  0
  -23.6070  -29.8540   20.2350 C   0  0  0  0  0  2  0  0  0  0  0  0
  -24.6630  -31.0980   22.1670 N   0  0  0  0  0  0  0  0  0  0  0  0
  -23.5190  -32.1690   23.8100 O   0  0  0  0  0  0  0  0  0  0  0  0
  -22.7340  -29.4870   22.5720 C   0  0  0  0  0  0  0  0  0  0  0  0
  -21.4100  -29.3080   22.4420 N   0  0  0  0  0  0  0  0  0  0  0  0
  -23.4130  -28.8550   23.3870 O   0  0  0  0  0  0  0  0  0  0  0  0
  -20.9210  -29.8690   21.7580 H   0  0  0  0  0  0  0  0  0  0  0  0
  -18.0310  -28.1120   22.9340 C   0  0  0  0  0  0  0  0  0  0  0  0
  -20.5900  -28.3650   23.2040 C   0  0  0  0  0  3  0  0  0  0  0  0
  -20.6890  -26.9380   22.6160 C   0  0  0  0  0  2  0  0  0  0  0  0
  -19.5850  -26.6260   21.6000 C   0  0  0  0  0  2  0  0  0  0  0  0
  -18.2040  -26.7690   22.2470 C   0  0  0  0  0  2  0  0  0  0  0  0
  -19.1510  -28.8690   23.3690 C   0  0  0  0  0  0  0  0  0  0  0  0
  -18.9350  -30.1270   23.9730 C   0  0  0  0  0  3  0  0  0  0  0  0
  -17.6310  -30.6290   24.1440 C   0  0  0  0  0  3  0  0  0  0  0  0
  -16.5250  -29.8690   23.7240 C   0  0  0  0  0  3  0  0  0  0  0  0
  -16.7260  -28.6130   23.1250 C   0  0  0  0  0  3  0  0  0  0  0  0
  -25.8860  -32.5230   23.8990 C   0  0  0  0  0  3  0  0  0  0  0  0
  -26.3950  -31.7480   25.1750 C   0  0  1  0  0  0  0  0  0  0  0  0
  -25.2960  -31.5100   26.2380 C   0  0  0  0  0  1  0  0  0  0  0  0
  -26.9760  -30.3690   24.7840 C   0  0  0  0  0  1  0  0  0  0  0  0
  -27.5440  -32.5380   25.8430 C   0  0  0  0  0  1  0  0  0  0  0  0
  -25.5810  -33.9210   24.2300 N   0  0  0  0  0  0  0  0  0  0  0  0
  -25.8890  -34.9730   23.4570 C   0  0  0  0  0  0  0  0  0  0  0  0
  -26.5310  -34.8650   22.4080 O   0  0  0  0  0  0  0  0  0  0  0  0
  -25.0070  -34.0780   25.0450 H   0  0  0  0  0  0  0  0  0  0  0  0
  -24.1360  -36.7500   23.1560 C   0  0  0  0  0  1  0  0  0  0  0  0
  -25.4100  -36.3620   23.9210 C   0  0  0  0  0  3  0  0  0  0  0  0
  -27.5660  -37.2730   24.6640 C   0  0  0  0  0  1  0  0  0  0  0  0
  -26.4310  -37.4200   23.7570 N   0  0  0  0  0  0  0  0  0  0  0  0
  -26.0230  -38.3400   23.9050 H   0  0  0  0  0  0  0  0  0  0  0  0
  1  6  1  0
  1  2  2  0
  2  3  1  0
  4  8  2  0
  4  6  1  0
  6  9  2  0
  7 20  1  0
  7  5  2  0
  8  7  1  0
  9  5  1  0
  9 11  1  0
 10  8  1  0
 12 20  1  0
 13 18  1  0
 14 15  1  0
 14 13  1  0
 16 15  1  0
 16 25  1  0
 16 17  1  0
 18 12  1  0
 18 17  1  0
 19 12  2  0
 20 21  1  0
 22 23  2  0
 23 42  1  0
 24 23  1  0
 24 27  1  0
 25 26  1  0
 25 22  1  0
 26 24  2  0
 27 28  1  0
 28 29  2  0
 30 33  1  0
 30 29  1  0
 31 30  2  0
 32 31  1  0
 32 27  2  0
 33 34  1  0
 34 35  1  0
 35 36  2  0
 37 36  1  0
 37 41  1  0
 38 37  2  0
 39 34  2  0
 39 38  1  0
 40 39  1  0
 42 43  1  0
 43 46  1  0
 43 45  1  0
 44 42  2  0
 47 48  1  0
 47 22  1  0
 49 47  1  0
 50  1  1  0
 51 50  2  0
 52 51  1  0
 52 53  1  0
 54 65  2  0
 55 53  1  0
 55 60  1  0
 56 64  1  0
 56 66  1  0
 57 63  1  0
 57 59  1  0
 58 64  1  0
 59 58  1  0
 60 59  2  0
 61 62  1  0
 61 55  2  0
 62 57  2  0
 63 56  1  0
 64 54  1  0
 66 68  2  0
 67 66  1  0
 69 67  1  0
 70 79  2  0
 70 75  1  0
 71 67  1  0
 71 75  1  0
 72 71  1  0
 73 74  1  0
 73 72  1  0
 74 70  1  0
 75 76  2  0
 76 77  1  0
 78 77  2  0
 79 78  1  0
 80 54  1  0
 80 85  1  0
 80 81  1  0
 81 84  1  1
 81 82  1  0
 83 81  1  0
 85 88  1  0
 86 90  1  0
 86 85  1  0
 87 86  2  0
 90 89  1  0
 92 93  1  0
 92 90  1  0
 92 91  1  0
M  ISO  4  12 100  20 100  52 101  53 101
M  END
>  <TORSDO>  (95) 
F 19

>  <SCORE>  (95) 
-14.678

>  <name>  (95) 
94

>  <ligand_id>  (95) 
94

>  <original_smiles>  (95) 
[H]N=C(C([H])=C([H])C([H])([H])Oc1c([H])c([H])c2c(c1[H])C([H])([H])N(C(=O)C([H])(N([H])C(=O)C([H])(N([H])C([H])([H])[H])C([H])([H])[H])C(C([H])([H])[H])(C([H])([H])[H])C([H])([H])[H])C([H])(C(=O)N([H])C1([H])c3c([H])c([H])c([H])c([H])c3C([H])([H])C([H])([H])C1([H])[H])C2([H])[H])c1c([H])c(F)c(N([H])C(=O)N2C([H])([H])C([H])([H])C([H])([H])C([H])(n3nc(-c4c([H])c([H])c(Oc5c([H])c([H])c(F)c([H])c5F)c([H])c4[H])c(C(=O)N([H])[H])c3N([H])[H])C2([H])[H])c([H])c1F

>  <smiles>  (95) 
[H]N=C(C([H])=C([H])C([H])([H])Oc1c([H])c([H])c2c(c1[H])C([H])([H])N(C(=O)C([H])(N([H])C(=O)C([H])(N([H])C([H])([H])[H])C([H])([H])[H])C(C([H])([H])[H])(C([H])([H])[H])C([H])([H])[H])C([H])(C(=O)N([H])C1([H])c3c([H])c([H])c([H])c([H])c3C([H])([H])C([H])([H])C1([H])[H])C2([H])[H])c1c([H])c(F)c(N([H])C(=O)N2C([H])([H])C([H])([H])C([H])([H])C([H])(n3nc(-c4c([H])c([H])c(Oc5c([H])c([H])c(F)c([H])c5F)c([H])c4[H])c(C(=O)N([H])[H])c3N([H])[H])C2([H])[H])c([H])c1F

$$$$
95:0:0
     RDKit          3D

 90 98  0  0  1  0  0  0  0  0999 V2000
  -28.4270  -19.5630   19.3250 C   0  0  0  0  0  3  0  0  0  0  0  0
  -30.5890  -20.1930   19.9850 C   0  0  0  0  0  3  0  0  0  0  0  0
  -28.7910  -18.1640   19.3940 C   0  0  0  0  0  3  0  0  0  0  0  0
  -30.9690  -18.7810   20.0390 C   0  0  0  0  0  3  0  0  0  0  0  0
  -29.2800  -20.6750   19.6400 C   0  0  0  0  0  0  0  0  0  0  0  0
  -30.0830  -17.6760   19.7660 C   0  0  0  0  0  0  0  0  0  0  0  0
  -30.9530  -15.1170   19.5200 C   0  0  0  0  0  0  0  0  0  0  0  0
  -30.7400  -12.8300   18.4220 C   0  0  0  0  0  2  0  0  0  0  0  0
  -29.5760  -12.8300   17.3990 C   0  0  0  0  0  2  0  0  0  0  0  0
  -28.2090  -12.5720   18.0700 C   0  0  0  0  0  2  0  0  0  0  0  0
  -28.0380  -13.3780   19.3820 C   0  0  0  0  0  3  0  0  0  0  0  0
  -29.2930  -13.2270   20.2610 C   0  0  0  0  0  2  0  0  0  0  0  0
  -30.4170  -13.8150   19.5010 N   0  0  0  0  0  0  0  0  0  0  0  0
  -31.9780  -15.2960   18.8480 O   0  0  0  0  0  0  0  0  0  0  0  0
  -30.3040  -16.2150   20.1810 N   0  0  0  0  0  0  0  0  0  0  0  0
  -25.9360  -13.8550   20.7670 C   0  0  0  0  0  0  0  0  0  0  0  0
  -24.9190  -13.0520   21.2030 C   0  0  0  0  0  0  0  0  0  0  0  0
  -25.2410  -11.7310   20.7610 C   0  0  0  0  0  0  0  0  0  0  0  0
  -26.8170  -13.0230   20.0970 N   0  0  0  0  0  0  0  0  0  0  0  0
  -26.4190  -11.7250   20.1470 N   0  0  0  0  0  0  0  0  0  0  0  0
  -24.4670  -10.4860   20.8370 C   0  0  0  0  0  0  0  0  0  0  0  0
  -24.9430   -9.3640   21.5500 C   0  0  0  0  0  3  0  0  0  0  0  0
  -24.1710   -8.1840   21.6260 C   0  0  0  0  0  3  0  0  0  0  0  0
  -22.9090   -8.1190   20.9880 C   0  0  0  0  0  0  0  0  0  0  0  0
  -22.4490   -9.2320   20.2630 C   0  0  0  0  0  3  0  0  0  0  0  0
  -23.2210  -10.4030   20.1830 C   0  0  0  0  0  3  0  0  0  0  0  0
  -22.1020   -7.0070   20.9880 O   0  0  0  0  0  0  0  0  0  0  0  0
  -22.0240   -6.1740   22.0750 C   0  0  0  0  0  0  0  0  0  0  0  0
  -21.6290   -6.6430   23.3460 C   0  0  0  0  0  3  0  0  0  0  0  0
  -21.4940   -5.7400   24.4190 C   0  0  0  0  0  3  0  0  0  0  0  0
  -21.7410   -4.3670   24.2220 C   0  0  0  0  0  0  0  0  0  0  0  0
  -22.1310   -3.8980   22.9540 C   0  0  0  0  0  3  0  0  0  0  0  0
  -22.2680   -4.7990   21.8840 C   0  0  0  0  0  0  0  0  0  0  0  0
  -22.6210   -4.3380   20.6590 F   0  0  0  0  0  0  0  0  0  0  0  0
  -21.6060   -3.4970   25.2490 F   0  0  0  0  0  0  0  0  0  0  0  0
  -23.6700  -13.4980   21.9080 C   0  0  0  0  0  0  0  0  0  0  0  0
  -23.1190  -12.6530   22.7730 N   0  0  0  0  0  0  0  0  0  0  0  0
  -23.2030  -14.6200   21.7290 O   0  0  0  0  0  0  0  0  0  0  0  0
  -23.5220  -11.7420   22.9350 H   0  0  0  0  0  0  0  0  0  0  0  0
  -22.2900  -12.9240   23.2820 H   0  0  0  0  0  0  0  0  0  0  0  0
  -26.1770  -15.2210   20.8680 N   0  0  0  0  0  0  0  0  0  0  0  0
  -25.5250  -15.8510   21.3230 H   0  0  0  0  0  0  0  0  0  0  0  0
  -26.9770  -15.6940   20.4730 H   0  0  0  0  0  0  0  0  0  0  0  0
  -29.8740  -15.9540   21.5770 C   0  0  0  0  0  2  0  0  0  0  0  0
  -30.8440  -17.1740   23.5830 C   0  0  0  0  0  2  0  0  0  0  0  0
  -29.9660  -17.1060   22.5690 C   0  0  0  0  0  3  0  0  0  0  0  0
  -28.6750  -22.1600   19.6030 C   0  0  0  0  0  3  0  0  0  0  0  0
  -28.9480  -23.4810   20.0260 C   0  0  0  0  0  3  0  0  0  0  0  0
  -27.9740  -24.7920   19.8360 C   0  0  0  0  0  2  0  0  0  0  0  0
  -28.3200  -26.2820   20.0880 O   0  0  0  0  0  0  0  0  0  0  0  0
  -24.7100  -31.9030   23.2040 C   0  0  0  0  0  0  0  0  0  0  0  0
  -27.2720  -27.2730   20.0420 C   0  0  0  0  0  0  0  0  0  0  0  0
  -23.4920  -30.5280   21.5590 C   0  0  0  0  0  3  0  0  0  0  0  0
  -24.9300  -28.9950   20.0820 C   0  0  0  0  0  0  0  0  0  0  0  0
  -26.0430  -30.8110   21.3700 C   0  0  0  0  0  2  0  0  0  0  0  0
  -26.1140  -29.4350   20.6890 C   0  0  0  0  0  0  0  0  0  0  0  0
  -27.2820  -28.5860   20.6630 C   0  0  0  0  0  3  0  0  0  0  0  0
  -26.0660  -26.9470   19.3830 C   0  0  0  0  0  3  0  0  0  0  0  0
  -24.9170  -27.7640   19.4160 C   0  0  0  0  0  3  0  0  0  0  0  0
  -23.6950  -29.8770   20.1670 C   0  0  0  0  0  2  0  0  0  0  0  0
  -24.7680  -31.1030   22.0970 N   0  0  0  0  0  0  0  0  0  0  0  0
  -23.6300  -32.1730   23.7540 O   0  0  0  0  0  0  0  0  0  0  0  0
  -22.8370  -29.4980   22.5130 C   0  0  0  0  0  0  0  0  0  0  0  0
  -21.5120  -29.3040   22.3910 N   0  0  0  0  0  0  0  0  0  0  0  0
  -23.5230  -28.8760   23.3300 O   0  0  0  0  0  0  0  0  0  0  0  0
  -21.0120  -29.8590   21.7100 H   0  0  0  0  0  0  0  0  0  0  0  0
  -18.1550  -28.0390   22.8870 C   0  0  0  0  0  0  0  0  0  0  0  0
  -20.7080  -28.3490   23.1580 C   0  0  0  0  0  3  0  0  0  0  0  0
  -20.8360  -26.9200   22.5790 C   0  0  0  0  0  2  0  0  0  0  0  0
  -19.7450  -26.5830   21.5600 C   0  0  0  0  0  2  0  0  0  0  0  0
  -18.3580  -26.6980   22.2010 C   0  0  0  0  0  2  0  0  0  0  0  0
  -19.2590  -28.8220   23.3200 C   0  0  0  0  0  0  0  0  0  0  0  0
  -19.0140  -30.0760   23.9210 C   0  0  0  0  0  3  0  0  0  0  0  0
  -17.7000  -30.5490   24.0910 C   0  0  0  0  0  3  0  0  0  0  0  0
  -16.6110  -29.7640   23.6740 C   0  0  0  0  0  3  0  0  0  0  0  0
  -16.8400  -28.5100   23.0780 C   0  0  0  0  0  3  0  0  0  0  0  0
  -25.9950  -32.5350   23.8180 C   0  0  0  0  0  3  0  0  0  0  0  0
  -26.5410  -31.7360   25.0660 C   0  0  1  0  0  0  0  0  0  0  0  0
  -25.4670  -31.4540   26.1420 C   0  0  0  0  0  1  0  0  0  0  0  0
  -27.1390  -30.3750   24.6380 C   0  0  0  0  0  1  0  0  0  0  0  0
  -27.6880  -32.5300   25.7320 C   0  0  0  0  0  1  0  0  0  0  0  0
  -25.6750  -33.9200   24.1980 N   0  0  0  0  0  0  0  0  0  0  0  0
  -25.9500  -35.0000   23.4570 C   0  0  0  0  0  0  0  0  0  0  0  0
  -26.5700  -34.9370   22.3910 O   0  0  0  0  0  0  0  0  0  0  0  0
  -25.1180  -34.0400   25.0320 H   0  0  0  0  0  0  0  0  0  0  0  0
  -24.1610  -36.7600   23.2620 C   0  0  0  0  0  1  0  0  0  0  0  0
  -25.4640  -36.3680   23.9780 C   0  0  0  0  0  3  0  0  0  0  0  0
  -27.6290  -37.2880   24.6830 C   0  0  0  0  0  1  0  0  0  0  0  0
  -26.4620  -37.4490   23.8190 N   0  0  0  0  0  0  0  0  0  0  0  0
  -26.0450  -38.3540   24.0170 H   0  0  0  0  0  0  0  0  0  0  0  0
  1  3  2  0
  1  5  1  0
  2  4  1  0
  3  6  1  0
  5  2  2  0
  6  4  2  0
  6 15  1  0
  7 15  1  0
  8 13  1  0
  9 10  1  0
  9  8  1  0
 11 10  1  0
 11 19  1  0
 11 12  1  0
 13  7  1  0
 13 12  1  0
 14  7  2  0
 15 44  1  0
 16 41  1  0
 16 17  2  0
 17 36  1  0
 18 21  1  0
 18 17  1  0
 19 20  1  0
 19 16  1  0
 20 18  2  0
 21 22  1  0
 22 23  2  0
 24 27  1  0
 24 23  1  0
 25 24  2  0
 26 25  1  0
 26 21  2  0
 27 28  1  0
 28 29  1  0
 29 30  2  0
 31 30  1  0
 31 35  1  0
 32 31  2  0
 33 28  2  0
 33 32  1  0
 34 33  1  0
 36 37  1  0
 37 39  1  0
 37 40  1  0
 38 36  2  0
 41 42  1  0
 43 41  1  0
 44 46  1  0
 46 45  2  0
 47  5  1  0
 47 48  2  0
 49 48  1  0
 49 50  1  0
 51 62  2  0
 52 50  1  0
 52 57  1  0
 53 61  1  0
 53 63  1  0
 54 60  1  0
 54 56  1  0
 55 61  1  0
 56 55  1  0
 57 56  2  0
 58 59  1  0
 58 52  2  0
 59 54  2  0
 60 53  1  0
 61 51  1  0
 63 65  2  0
 64 63  1  0
 66 64  1  0
 67 76  2  0
 67 72  1  0
 68 64  1  0
 68 72  1  0
 69 68  1  0
 70 71  1  0
 70 69  1  0
 71 67  1  0
 72 73  2  0
 73 74  1  0
 75 74  2  0
 76 75  1  0
 77 51  1  0
 77 82  1  0
 77 78  1  0
 78 81  1  1
 78 79  1  0
 80 78  1  0
 82 85  1  0
 83 87  1  0
 83 82  1  0
 84 83  2  0
 87 86  1  0
 89 87  1  0
 89 90  1  0
 89 88  1  0
M  ISO  4   7 100  15 100  49 101  50 101
M  END
>  <TORSDO>  (96) 
F 20

>  <SCORE>  (96) 
-9.645

>  <name>  (96) 
95

>  <ligand_id>  (96) 
95

>  <original_smiles>  (96) 
[H]C([H])=C([H])C([H])([H])N(C(=O)N1C([H])([H])C([H])([H])C([H])([H])C([H])(n2nc(-c3c([H])c([H])c(Oc4c([H])c([H])c(F)c([H])c4F)c([H])c3[H])c(C(=O)N([H])[H])c2N([H])[H])C1([H])[H])c1c([H])c([H])c(C([H])=C([H])C([H])([H])Oc2c([H])c([H])c3c(c2[H])C([H])([H])N(C(=O)C([H])(N([H])C(=O)C([H])(N([H])C([H])([H])[H])C([H])([H])[H])C(C([H])([H])[H])(C([H])([H])[H])C([H])([H])[H])C([H])(C(=O)N([H])C2([H])c4c([H])c([H])c([H])c([H])c4C([H])([H])C([H])([H])C2([H])[H])C3([H])[H])c([H])c1[H]

>  <smiles>  (96) 
[H]C([H])=C([H])C([H])([H])N(C(=O)N1C([H])([H])C([H])([H])C([H])([H])C([H])(n2nc(-c3c([H])c([H])c(Oc4c([H])c([H])c(F)c([H])c4F)c([H])c3[H])c(C(=O)N([H])[H])c2N([H])[H])C1([H])[H])c1c([H])c([H])c(C([H])=C([H])C([H])([H])Oc2c([H])c([H])c3c(c2[H])C([H])([H])N(C(=O)C([H])(N([H])C(=O)C([H])(N([H])C([H])([H])[H])C([H])([H])[H])C(C([H])([H])[H])(C([H])([H])[H])C([H])([H])[H])C([H])(C(=O)N([H])C2([H])c4c([H])c([H])c([H])c([H])c4C([H])([H])C([H])([H])C2([H])[H])C3([H])[H])c([H])c1[H]

$$$$
