0:0:0
     RDKit          3D

 94102  0  0  1  0  0  0  0  0999 V2000
  -30.3190  -17.8450   22.0020 C   0  0  0  0  0  3  0  0  0  0  0  0
  -30.2110  -17.7060   19.5680 C   0  0  0  0  0  0  0  0  0  0  0  0
  -30.1740  -19.1370   19.5130 C   0  0  0  0  0  0  0  0  0  0  0  0
  -30.2970  -17.0500   20.8360 C   0  0  0  0  0  0  0  0  0  0  0  0
  -30.1690  -19.9220   20.6950 C   0  0  0  0  0  0  0  0  0  0  0  0
  -30.2600  -19.2530   21.9430 C   0  0  0  0  0  0  0  0  0  0  0  0
  -30.0500  -19.8790   18.1840 C   0  0  0  0  0  1  0  0  0  0  0  0
  -30.2960  -19.9510   23.1050 F   0  0  0  0  0  0  0  0  0  0  0  0
  -30.9370  -14.6300   20.4950 C   0  0  0  0  0  0  0  0  0  0  0  0
  -30.6550  -12.4920   19.2940 C   0  0  0  0  0  2  0  0  0  0  0  0
  -29.7310  -12.7490   18.0860 C   0  0  0  0  0  2  0  0  0  0  0  0
  -28.2460  -12.6310   18.4890 C   0  0  0  0  0  2  0  0  0  0  0  0
  -27.9050  -13.4140   19.7860 C   0  0  0  0  0  3  0  0  0  0  0  0
  -28.9470  -13.1300   20.8930 C   0  0  0  0  0  2  0  0  0  0  0  0
  -30.2810  -13.4440   20.3510 N   0  0  0  0  0  0  0  0  0  0  0  0
  -32.0820  -14.8170   20.0800 O   0  0  0  0  0  0  0  0  0  0  0  0
  -30.1880  -15.6270   21.0150 N   0  0  0  0  0  0  0  0  0  0  0  0
  -29.3490  -15.3120   21.4800 H   0  0  0  0  0  0  0  0  0  0  0  0
  -25.4910  -14.0250   20.4330 C   0  0  0  0  0  0  0  0  0  0  0  0
  -24.4160  -13.2560   20.7880 C   0  0  0  0  0  0  0  0  0  0  0  0
  -24.8790  -11.9040   20.7810 C   0  0  0  0  0  0  0  0  0  0  0  0
  -26.5430  -13.1420   20.2370 N   0  0  0  0  0  0  0  0  0  0  0  0
  -26.1760  -11.8630   20.5020 N   0  0  0  0  0  0  0  0  0  0  0  0
  -24.1500  -10.6440   20.9710 C   0  0  0  0  0  0  0  0  0  0  0  0
  -24.5500   -9.6980   21.9390 C   0  0  0  0  0  3  0  0  0  0  0  0
  -23.8210   -8.5020   22.1150 C   0  0  0  0  0  3  0  0  0  0  0  0
  -22.6780   -8.2450   21.3220 C   0  0  0  0  0  0  0  0  0  0  0  0
  -22.2980   -9.1800   20.3440 C   0  0  0  0  0  3  0  0  0  0  0  0
  -23.0270  -10.3670   20.1660 C   0  0  0  0  0  3  0  0  0  0  0  0
  -21.9240   -7.0980   21.4050 O   0  0  0  0  0  0  0  0  0  0  0  0
  -21.8140   -6.3930   22.5760 C   0  0  0  0  0  0  0  0  0  0  0  0
  -21.3070   -6.9790   23.7550 C   0  0  0  0  0  3  0  0  0  0  0  0
  -21.1470   -6.1980   24.9170 C   0  0  0  0  0  3  0  0  0  0  0  0
  -21.4840   -4.8310   24.9000 C   0  0  0  0  0  0  0  0  0  0  0  0
  -21.9830   -4.2440   23.7230 C   0  0  0  0  0  3  0  0  0  0  0  0
  -22.1460   -5.0220   22.5640 C   0  0  0  0  0  0  0  0  0  0  0  0
  -22.6080   -4.4480   21.4280 F   0  0  0  0  0  0  0  0  0  0  0  0
  -21.3220   -4.0770   26.0120 F   0  0  0  0  0  0  0  0  0  0  0  0
  -23.0140  -13.7350   21.0260 C   0  0  0  0  0  0  0  0  0  0  0  0
  -22.2710  -13.0530   21.8910 N   0  0  0  0  0  0  0  0  0  0  0  0
  -22.5840  -14.7510   20.4810 O   0  0  0  0  0  0  0  0  0  0  0  0
  -22.6300  -12.2320   22.3530 H   0  0  0  0  0  0  0  0  0  0  0  0
  -21.3290  -13.3590   22.0930 H   0  0  0  0  0  0  0  0  0  0  0  0
  -25.6570  -15.3940   20.2450 N   0  0  0  0  0  0  0  0  0  0  0  0
  -24.8820  -16.0430   20.3250 H   0  0  0  0  0  0  0  0  0  0  0  0
  -26.5100  -15.8370   19.9310 H   0  0  0  0  0  0  0  0  0  0  0  0
  -31.3540  -16.6790   17.4890 C   0  0  0  0  0  1  0  0  0  0  0  0
  -30.0490  -16.8960   18.2760 C   0  0  0  0  0  2  0  0  0  0  0  0
  -30.0820  -21.3070   20.5690 O   0  0  0  0  0  0  0  0  0  0  0  0
  -29.2100  -22.0160   21.4600 C   0  0  0  0  0  2  0  0  0  0  0  0
  -28.7350  -23.3970   20.9030 C   0  0  0  0  0  2  0  0  0  0  0  0
  -29.5550  -24.6350   21.3690 C   0  0  0  0  0  2  0  0  0  0  0  0
  -28.7770  -25.9780   21.5110 C   0  0  0  0  0  2  0  0  0  0  0  0
  -28.6360  -26.7480   20.3070 O   0  0  0  0  0  0  0  0  0  0  0  0
  -24.7180  -31.9480   23.2720 C   0  0  0  0  0  0  0  0  0  0  0  0
  -27.4950  -27.5190   20.2850 C   0  0  0  0  0  0  0  0  0  0  0  0
  -23.5660  -30.5040   21.6250 C   0  0  0  0  0  3  0  0  0  0  0  0
  -25.0750  -28.9800   20.2390 C   0  0  0  0  0  0  0  0  0  0  0  0
  -26.0860  -30.9110   21.4630 C   0  0  0  0  0  2  0  0  0  0  0  0
  -26.2120  -29.5310   20.8460 C   0  0  0  0  0  0  0  0  0  0  0  0
  -27.4270  -28.8040   20.8750 C   0  0  0  0  0  3  0  0  0  0  0  0
  -26.3480  -26.9880   19.6640 C   0  0  0  0  0  3  0  0  0  0  0  0
  -25.1370  -27.7070   19.6450 C   0  0  0  0  0  3  0  0  0  0  0  0
  -23.8130  -29.8150   20.2560 C   0  0  0  0  0  2  0  0  0  0  0  0
  -24.8070  -31.1370   22.1800 N   0  0  0  0  0  0  0  0  0  0  0  0
  -23.6230  -32.2050   23.7930 O   0  0  0  0  0  0  0  0  0  0  0  0
  -22.9180  -29.4830   22.5870 C   0  0  0  0  0  0  0  0  0  0  0  0
  -21.5970  -29.2820   22.4490 N   0  0  0  0  0  0  0  0  0  0  0  0
  -23.6010  -28.8720   23.4160 O   0  0  0  0  0  0  0  0  0  0  0  0
  -21.1060  -29.8280   21.7550 H   0  0  0  0  0  0  0  0  0  0  0  0
  -18.2300  -28.0660   22.9430 C   0  0  0  0  0  0  0  0  0  0  0  0
  -20.7850  -28.3380   23.2180 C   0  0  0  0  0  3  0  0  0  0  0  0
  -20.8980  -26.9090   22.6410 C   0  0  0  0  0  2  0  0  0  0  0  0
  -19.7990  -26.5800   21.6260 C   0  0  0  0  0  2  0  0  0  0  0  0
  -18.4160  -26.7170   22.2670 C   0  0  0  0  0  2  0  0  0  0  0  0
  -19.3440  -28.8330   23.3760 C   0  0  0  0  0  0  0  0  0  0  0  0
  -19.1170  -30.0950   23.9680 C   0  0  0  0  0  3  0  0  0  0  0  0
  -17.8100  -30.5900   24.1300 C   0  0  0  0  0  3  0  0  0  0  0  0
  -16.7110  -29.8180   23.7150 C   0  0  0  0  0  3  0  0  0  0  0  0
  -16.9210  -28.5590   23.1280 C   0  0  0  0  0  3  0  0  0  0  0  0
  -25.9810  -32.6110   23.9060 C   0  0  0  0  0  3  0  0  0  0  0  0
  -25.6400  -34.0060   24.2170 N   0  0  0  0  0  0  0  0  0  0  0  0
  -25.9630  -35.0570   23.4520 C   0  0  0  0  0  0  0  0  0  0  0  0
  -26.6490  -34.9550   22.4310 O   0  0  0  0  0  0  0  0  0  0  0  0
  -25.0330  -34.1570   25.0100 H   0  0  0  0  0  0  0  0  0  0  0  0
  -24.2060  -36.8110   23.0490 C   0  0  0  0  0  1  0  0  0  0  0  0
  -25.4400  -36.4400   23.8860 C   0  0  0  0  0  3  0  0  0  0  0  0
  -27.5420  -37.3740   24.7490 C   0  0  0  0  0  1  0  0  0  0  0  0
  -26.4550  -37.5110   23.7820 N   0  0  0  0  0  0  0  0  0  0  0  0
  -26.0280  -38.4250   23.9160 H   0  0  0  0  0  0  0  0  0  0  0  0
  -26.4990  -31.8600   25.1920 C   0  0  1  0  0  0  0  0  0  0  0  0
  -25.3940  -31.5870   26.2400 C   0  0  0  0  0  1  0  0  0  0  0  0
  -27.1340  -30.5020   24.8100 C   0  0  0  0  0  1  0  0  0  0  0  0
  -27.6140  -32.6900   25.8720 C   0  0  0  0  0  1  0  0  0  0  0  0
  2  4  1  0
  3  2  2  0
  3  5  1  0
  4 17  1  0
  4  1  2  0
  5  6  2  0
  6  1  1  0
  6  8  1  0
  7  3  1  0
  9 17  1  0
 10 15  1  0
 11 12  1  0
 11 10  1  0
 13 12  1  0
 13 22  1  0
 13 14  1  0
 15  9  1  0
 15 14  1  0
 16  9  2  0
 17 18  1  0
 19 20  2  0
 20 39  1  0
 21 20  1  0
 21 24  1  0
 22 19  1  0
 22 23  1  0
 23 21  2  0
 24 25  1  0
 25 26  2  0
 27 30  1  0
 27 26  1  0
 28 27  2  0
 29 28  1  0
 29 24  2  0
 30 31  1  0
 31 32  1  0
 32 33  2  0
 34 33  1  0
 34 38  1  0
 35 34  2  0
 36 31  2  0
 36 35  1  0
 37 36  1  0
 39 40  1  0
 40 43  1  0
 40 42  1  0
 41 39  2  0
 44 45  1  0
 44 19  1  0
 46 44  1  0
 47 48  1  0
 48  2  1  0
 49  5  1  0
 49 50  1  0
 51 52  1  0
 51 50  1  0
 52 53  1  0
 54 53  1  0
 55 66  2  0
 56 54  1  0
 56 61  1  0
 57 65  1  0
 57 67  1  0
 58 64  1  0
 58 60  1  0
 59 65  1  0
 60 61  2  0
 60 59  1  0
 62 56  2  0
 63 62  1  0
 63 58  2  0
 64 57  1  0
 65 55  1  0
 67 69  2  0
 68 67  1  0
 70 68  1  0
 71 80  2  0
 71 76  1  0
 72 68  1  0
 72 76  1  0
 73 72  1  0
 74 75  1  0
 74 73  1  0
 75 71  1  0
 76 77  2  0
 77 78  1  0
 79 78  2  0
 80 79  1  0
 81 55  1  0
 81 82  1  0
 81 91  1  0
 82 85  1  0
 83 87  1  0
 83 82  1  0
 84 83  2  0
 87 86  1  0
 89 87  1  0
 89 90  1  0
 89 88  1  0
 91 94  1  1
 91 92  1  0
 93 91  1  0
M  ISO  4   9 100  17 100  53 101  54 101
M  END
>  <TORSDO>  (1) 
F 22

>  <SCORE>  (1) 
-12.352

>  <name>  (1) 
0

>  <ligand_id>  (1) 
0

>  <original_smiles>  (1) 
[H]c1c([H])c([H])c2c(c1[H])C([H])([H])C([H])([H])C([H])([H])C2([H])N([H])C(=O)C1([H])N(C(=O)C([H])(N([H])C(=O)C([H])(N([H])C([H])([H])[H])C([H])([H])[H])C(C([H])([H])[H])(C([H])([H])[H])C([H])([H])[H])C([H])([H])c2c([H])c(OC([H])([H])C([H])([H])C([H])([H])C([H])([H])Oc3c(F)c([H])c(N([H])C(=O)N4C([H])([H])C([H])([H])C([H])([H])C([H])(n5nc(-c6c([H])c([H])c(Oc7c([H])c([H])c(F)c([H])c7F)c([H])c6[H])c(C(=O)N([H])[H])c5N([H])[H])C4([H])[H])c(C([H])([H])C([H])([H])[H])c3C([H])([H])[H])c([H])c([H])c2C1([H])[H]

>  <smiles>  (1) 
[H]c1c([H])c([H])c2c(c1[H])C([H])([H])C([H])([H])C([H])([H])C2([H])N([H])C(=O)C1([H])N(C(=O)C([H])(N([H])C(=O)C([H])(N([H])C([H])([H])[H])C([H])([H])[H])C(C([H])([H])[H])(C([H])([H])[H])C([H])([H])[H])C([H])([H])c2c([H])c(OC([H])([H])C([H])([H])C([H])([H])C([H])([H])Oc3c(F)c([H])c(N([H])C(=O)N4C([H])([H])C([H])([H])C([H])([H])C([H])(n5nc(-c6c([H])c([H])c(Oc7c([H])c([H])c(F)c([H])c7F)c([H])c6[H])c(C(=O)N([H])[H])c5N([H])[H])C4([H])[H])c(C([H])([H])C([H])([H])[H])c3C([H])([H])[H])c([H])c([H])c2C1([H])[H]

$$$$
1:0:0
     RDKit          3D

 92100  0  0  1  0  0  0  0  0999 V2000
  -28.7210  -18.4440   18.7430 C   0  0  0  0  0  3  0  0  0  0  0  0
  -29.8050  -18.6990   20.9040 C   0  0  0  0  0  3  0  0  0  0  0  0
  -29.3970  -17.8730   19.8370 C   0  0  0  0  0  0  0  0  0  0  0  0
  -28.5570  -19.8400   18.6540 C   0  0  0  0  0  0  0  0  0  0  0  0
  -29.6800  -20.1030   20.8120 C   0  0  0  0  0  0  0  0  0  0  0  0
  -29.0710  -20.6820   19.6650 C   0  0  0  0  0  0  0  0  0  0  0  0
  -27.8920  -20.4390   17.4280 C   0  0  0  0  0  1  0  0  0  0  0  0
  -30.3100  -20.9510   21.9030 C   0  0  0  0  0  1  0  0  0  0  0  0
  -29.8050  -16.4680   19.7580 C   0  0  0  0  0  3  0  0  0  0  0  0
  -30.0740  -15.6010   20.7570 C   0  0  0  0  0  3  0  0  0  0  0  0
  -30.7740  -14.3930   20.3580 C   0  0  0  0  0  0  0  0  0  0  0  0
  -30.3670  -12.2720   19.2080 C   0  0  0  0  0  2  0  0  0  0  0  0
  -29.4400  -12.5520   18.0090 C   0  0  0  0  0  2  0  0  0  0  0  0
  -27.9640  -12.4550   18.4400 C   0  0  0  0  0  2  0  0  0  0  0  0
  -27.6540  -13.2680   19.7270 C   0  0  0  0  0  3  0  0  0  0  0  0
  -28.7120  -13.0190   20.8260 C   0  0  0  0  0  2  0  0  0  0  0  0
  -30.0420  -13.2550   20.2520 N   0  0  0  0  0  0  0  0  0  0  0  0
  -31.9250  -14.4830   19.9260 O   0  0  0  0  0  0  0  0  0  0  0  0
  -25.2590  -13.8830   20.4380 C   0  0  0  0  0  0  0  0  0  0  0  0
  -24.1900  -13.1150   20.8100 C   0  0  0  0  0  0  0  0  0  0  0  0
  -24.6480  -11.7630   20.7930 C   0  0  0  0  0  0  0  0  0  0  0  0
  -26.3030  -12.9990   20.2130 N   0  0  0  0  0  0  0  0  0  0  0  0
  -25.9390  -11.7180   20.4860 N   0  0  0  0  0  0  0  0  0  0  0  0
  -23.9190  -10.5040   20.9940 C   0  0  0  0  0  0  0  0  0  0  0  0
  -24.3490   -9.5420   21.9340 C   0  0  0  0  0  3  0  0  0  0  0  0
  -23.6180   -8.3490   22.1210 C   0  0  0  0  0  3  0  0  0  0  0  0
  -22.4450   -8.1080   21.3680 C   0  0  0  0  0  0  0  0  0  0  0  0
  -22.0340   -9.0590   20.4180 C   0  0  0  0  0  3  0  0  0  0  0  0
  -22.7640  -10.2440   20.2280 C   0  0  0  0  0  3  0  0  0  0  0  0
  -21.6880   -6.9660   21.4650 O   0  0  0  0  0  0  0  0  0  0  0  0
  -21.6340   -6.2320   22.6230 C   0  0  0  0  0  0  0  0  0  0  0  0
  -21.2050   -6.7970   23.8440 C   0  0  0  0  0  3  0  0  0  0  0  0
  -21.0990   -5.9910   24.9940 C   0  0  0  0  0  3  0  0  0  0  0  0
  -21.4130   -4.6200   24.9260 C   0  0  0  0  0  0  0  0  0  0  0  0
  -21.8340   -4.0540   23.7100 C   0  0  0  0  0  3  0  0  0  0  0  0
  -21.9420   -4.8580   22.5610 C   0  0  0  0  0  0  0  0  0  0  0  0
  -22.3290   -4.3030   21.3870 F   0  0  0  0  0  0  0  0  0  0  0  0
  -21.3040   -3.8430   26.0290 F   0  0  0  0  0  0  0  0  0  0  0  0
  -22.7940  -13.5980   21.0800 C   0  0  0  0  0  0  0  0  0  0  0  0
  -22.0660  -12.9120   21.9540 N   0  0  0  0  0  0  0  0  0  0  0  0
  -22.3590  -14.6200   20.5520 O   0  0  0  0  0  0  0  0  0  0  0  0
  -22.4300  -12.0840   22.4010 H   0  0  0  0  0  0  0  0  0  0  0  0
  -21.1290  -13.2200   22.1780 H   0  0  0  0  0  0  0  0  0  0  0  0
  -25.4280  -15.2520   20.2510 N   0  0  0  0  0  0  0  0  0  0  0  0
  -24.6680  -15.9130   20.3600 H   0  0  0  0  0  0  0  0  0  0  0  0
  -26.2920  -15.6870   19.9540 H   0  0  0  0  0  0  0  0  0  0  0  0
  -29.0910  -22.0310   19.4060 O   0  0  0  0  0  0  0  0  0  0  0  0
  -28.3190  -22.8830   20.2440 C   0  0  0  0  0  2  0  0  0  0  0  0
  -28.4700  -24.3250   19.7450 C   0  0  0  0  0  0  0  0  0  0  0  0
  -28.7010  -24.5810   18.5550 O   0  0  0  0  0  0  0  0  0  0  0  0
  -28.3250  -25.4320   20.7940 C   0  0  0  0  0  2  0  0  0  0  0  0
  -28.4480  -26.7360   20.2090 O   0  0  0  0  0  0  0  0  0  0  0  0
  -24.6090  -31.8680   23.2510 C   0  0  0  0  0  0  0  0  0  0  0  0
  -27.2790  -27.4540   20.1860 C   0  0  0  0  0  0  0  0  0  0  0  0
  -23.4150  -30.4650   21.5990 C   0  0  0  0  0  3  0  0  0  0  0  0
  -24.8780  -28.9330   20.1820 C   0  0  0  0  0  0  0  0  0  0  0  0
  -25.9370  -30.8360   21.4140 C   0  0  0  0  0  2  0  0  0  0  0  0
  -26.0300  -29.4680   20.7750 C   0  0  0  0  0  0  0  0  0  0  0  0
  -27.2360  -28.7360   20.7700 C   0  0  0  0  0  3  0  0  0  0  0  0
  -26.1140  -26.9260   19.5880 C   0  0  0  0  0  3  0  0  0  0  0  0
  -24.9140  -27.6610   19.5850 C   0  0  0  0  0  3  0  0  0  0  0  0
  -23.6310  -29.7870   20.2200 C   0  0  0  0  0  2  0  0  0  0  0  0
  -24.6720  -31.0710   22.1460 N   0  0  0  0  0  0  0  0  0  0  0  0
  -23.5250  -32.1360   23.7850 O   0  0  0  0  0  0  0  0  0  0  0  0
  -22.7620  -29.4410   22.5540 C   0  0  0  0  0  0  0  0  0  0  0  0
  -21.4370  -29.2630   22.4240 N   0  0  0  0  0  0  0  0  0  0  0  0
  -23.4420  -28.8100   23.3670 O   0  0  0  0  0  0  0  0  0  0  0  0
  -20.9500  -29.8260   21.7390 H   0  0  0  0  0  0  0  0  0  0  0  0
  -18.0550  -28.0900   22.9130 C   0  0  0  0  0  0  0  0  0  0  0  0
  -20.6150  -28.3260   23.1870 C   0  0  0  0  0  3  0  0  0  0  0  0
  -20.7070  -26.8990   22.5990 C   0  0  0  0  0  2  0  0  0  0  0  0
  -19.6020  -26.5920   21.5830 C   0  0  0  0  0  2  0  0  0  0  0  0
  -18.2220  -26.7440   22.2280 C   0  0  0  0  0  2  0  0  0  0  0  0
  -19.1800  -28.8400   23.3480 C   0  0  0  0  0  0  0  0  0  0  0  0
  -18.9720  -30.1020   23.9470 C   0  0  0  0  0  3  0  0  0  0  0  0
  -17.6710  -30.6130   24.1150 C   0  0  0  0  0  3  0  0  0  0  0  0
  -16.5600  -29.8590   23.6960 C   0  0  0  0  0  3  0  0  0  0  0  0
  -16.7540  -28.5990   23.1010 C   0  0  0  0  0  3  0  0  0  0  0  0
  -25.8910  -32.4970   23.8800 C   0  0  0  0  0  3  0  0  0  0  0  0
  -25.5840  -33.8970   24.2000 N   0  0  0  0  0  0  0  0  0  0  0  0
  -25.9220  -34.9450   23.4360 C   0  0  0  0  0  0  0  0  0  0  0  0
  -26.5970  -34.8330   22.4090 O   0  0  0  0  0  0  0  0  0  0  0  0
  -24.9860  -34.0580   24.9970 H   0  0  0  0  0  0  0  0  0  0  0  0
  -24.1960  -36.7340   23.0580 C   0  0  0  0  0  1  0  0  0  0  0  0
  -25.4320  -36.3350   23.8800 C   0  0  0  0  0  3  0  0  0  0  0  0
  -27.5610  -37.2240   24.7190 C   0  0  0  0  0  1  0  0  0  0  0  0
  -26.4660  -37.3860   23.7670 N   0  0  0  0  0  0  0  0  0  0  0  0
  -26.0600  -38.3080   23.9060 H   0  0  0  0  0  0  0  0  0  0  0  0
  -26.3980  -31.7280   25.1600 C   0  0  1  0  0  0  0  0  0  0  0  0
  -25.2980  -31.4940   26.2210 C   0  0  0  0  0  1  0  0  0  0  0  0
  -26.9810  -30.3490   24.7710 C   0  0  0  0  0  1  0  0  0  0  0  0
  -27.5450  -32.5210   25.8280 C   0  0  0  0  0  1  0  0  0  0  0  0
  1  3  1  0
  3  2  2  0
  4  1  2  0
  4  6  1  0
  5  2  1  0
  5  8  1  0
  6  5  2  0
  7  4  1  0
  9  3  1  0
  9 10  2  0
 11 10  1  0
 12 17  1  0
 13 14  1  0
 13 12  1  0
 15 14  1  0
 15 22  1  0
 15 16  1  0
 17 11  1  0
 17 16  1  0
 18 11  2  0
 19 20  2  0
 20 39  1  0
 21 20  1  0
 21 24  1  0
 22 19  1  0
 22 23  1  0
 23 21  2  0
 24 25  1  0
 25 26  2  0
 27 30  1  0
 27 26  1  0
 28 27  2  0
 29 28  1  0
 29 24  2  0
 30 31  1  0
 31 32  1  0
 32 33  2  0
 34 33  1  0
 34 38  1  0
 35 34  2  0
 36 31  2  0
 36 35  1  0
 37 36  1  0
 39 40  1  0
 40 43  1  0
 40 42  1  0
 41 39  2  0
 44 45  1  0
 44 19  1  0
 46 44  1  0
 47  6  1  0
 47 48  1  0
 49 48  1  0
 49 51  1  0
 50 49  2  0
 52 51  1  0
 53 64  2  0
 54 52  1  0
 54 59  1  0
 55 63  1  0
 55 65  1  0
 56 62  1  0
 56 58  1  0
 57 63  1  0
 58 57  1  0
 59 58  2  0
 60 54  2  0
 61 60  1  0
 61 56  2  0
 62 55  1  0
 63 53  1  0
 65 67  2  0
 66 65  1  0
 68 66  1  0
 69 78  2  0
 69 74  1  0
 70 66  1  0
 70 74  1  0
 71 70  1  0
 72 73  1  0
 72 71  1  0
 73 69  1  0
 74 75  2  0
 75 76  1  0
 77 76  2  0
 78 77  1  0
 79 53  1  0
 79 80  1  0
 79 89  1  0
 80 83  1  0
 81 85  1  0
 81 80  1  0
 82 81  2  0
 85 84  1  0
 87 85  1  0
 87 88  1  0
 87 86  1  0
 89 92  1  1
 89 90  1  0
 91 89  1  0
M  ISO  4  10 100  11 100  51 101  52 101
M  END
>  <TORSDO>  (2) 
F 21

>  <SCORE>  (2) 
-13.777

>  <name>  (2) 
1

>  <ligand_id>  (2) 
1

>  <original_smiles>  (2) 
[H]C(C(=O)N1C([H])([H])C([H])([H])C([H])([H])C([H])(n2nc(-c3c([H])c([H])c(Oc4c([H])c([H])c(F)c([H])c4F)c([H])c3[H])c(C(=O)N([H])[H])c2N([H])[H])C1([H])[H])=C([H])c1c([H])c(C([H])([H])[H])c(OC([H])([H])C(=O)C([H])([H])Oc2c([H])c([H])c3c(c2[H])C([H])([H])N(C(=O)C([H])(N([H])C(=O)C([H])(N([H])C([H])([H])[H])C([H])([H])[H])C(C([H])([H])[H])(C([H])([H])[H])C([H])([H])[H])C([H])(C(=O)N([H])C2([H])c4c([H])c([H])c([H])c([H])c4C([H])([H])C([H])([H])C2([H])[H])C3([H])[H])c(C([H])([H])[H])c1[H]

>  <smiles>  (2) 
[H]C(C(=O)N1C([H])([H])C([H])([H])C([H])([H])C([H])(n2nc(-c3c([H])c([H])c(Oc4c([H])c([H])c(F)c([H])c4F)c([H])c3[H])c(C(=O)N([H])[H])c2N([H])[H])C1([H])[H])=C([H])c1c([H])c(C([H])([H])[H])c(OC([H])([H])C(=O)C([H])([H])Oc2c([H])c([H])c3c(c2[H])C([H])([H])N(C(=O)C([H])(N([H])C(=O)C([H])(N([H])C([H])([H])[H])C([H])([H])[H])C(C([H])([H])[H])(C([H])([H])[H])C([H])([H])[H])C([H])(C(=O)N([H])C2([H])c4c([H])c([H])c([H])c([H])c4C([H])([H])C([H])([H])C2([H])[H])C3([H])[H])c(C([H])([H])[H])c1[H]

$$$$
2:0:0
     RDKit          3D

 94102  0  0  1  0  0  0  0  0999 V2000
  -28.9270  -20.0900   20.6010 C   0  0  0  0  0  0  0  0  0  0  0  0
  -27.7450  -19.8640   20.8800 O   0  0  0  0  0  0  0  0  0  0  0  0
  -32.0680  -17.1710   21.1140 C   0  0  0  0  0  3  0  0  0  0  0  0
  -32.3800  -18.5380   21.1980 C   0  0  0  0  0  3  0  0  0  0  0  0
  -29.7050  -17.7340   20.8820 C   0  0  0  0  0  3  0  0  0  0  0  0
  -30.0230  -19.1120   20.8600 C   0  0  0  0  0  0  0  0  0  0  0  0
  -30.7260  -16.7670   20.9680 C   0  0  0  0  0  0  0  0  0  0  0  0
  -31.3660  -19.5070   21.0890 C   0  0  0  0  0  0  0  0  0  0  0  0
  -31.7090  -20.8110   21.2200 F   0  0  0  0  0  0  0  0  0  0  0  0
  -30.9080  -14.5180   20.0460 C   0  0  0  0  0  0  0  0  0  0  0  0
  -30.5410  -12.3850   18.8740 C   0  0  0  0  0  2  0  0  0  0  0  0
  -29.5390  -12.5760   17.7190 C   0  0  0  0  0  2  0  0  0  0  0  0
  -28.0900  -12.4250   18.2180 C   0  0  0  0  0  2  0  0  0  0  0  0
  -27.8060  -13.2760   19.4860 C   0  0  0  0  0  3  0  0  0  0  0  0
  -28.9100  -13.0670   20.5460 C   0  0  0  0  0  2  0  0  0  0  0  0
  -30.2140  -13.3600   19.9230 N   0  0  0  0  0  0  0  0  0  0  0  0
  -31.9310  -14.7650   19.3980 O   0  0  0  0  0  0  0  0  0  0  0  0
  -30.3810  -15.4000   20.9070 N   0  0  0  0  0  0  0  0  0  0  0  0
  -29.5050  -15.1210   21.3240 H   0  0  0  0  0  0  0  0  0  0  0  0
  -25.4440  -13.8740   20.3240 C   0  0  0  0  0  0  0  0  0  0  0  0
  -24.3970  -13.0940   20.7350 C   0  0  0  0  0  0  0  0  0  0  0  0
  -24.8570  -11.7410   20.6530 C   0  0  0  0  0  0  0  0  0  0  0  0
  -26.4780  -12.9960   20.0270 N   0  0  0  0  0  0  0  0  0  0  0  0
  -26.1290  -11.7090   20.2810 N   0  0  0  0  0  0  0  0  0  0  0  0
  -24.1440  -10.4750   20.8550 C   0  0  0  0  0  0  0  0  0  0  0  0
  -24.5570   -9.5410   21.8320 C   0  0  0  0  0  3  0  0  0  0  0  0
  -23.8430   -8.3380   22.0200 C   0  0  0  0  0  3  0  0  0  0  0  0
  -22.7020   -8.0600   21.2310 C   0  0  0  0  0  0  0  0  0  0  0  0
  -22.3080   -8.9810   20.2460 C   0  0  0  0  0  3  0  0  0  0  0  0
  -23.0220  -10.1760   20.0570 C   0  0  0  0  0  3  0  0  0  0  0  0
  -21.9650   -6.9040   21.3250 O   0  0  0  0  0  0  0  0  0  0  0  0
  -21.8190   -6.2360   22.5140 C   0  0  0  0  0  0  0  0  0  0  0  0
  -21.2230   -6.8440   23.6400 C   0  0  0  0  0  3  0  0  0  0  0  0
  -21.0310   -6.0990   24.8210 C   0  0  0  0  0  3  0  0  0  0  0  0
  -21.4230   -4.7480   24.8750 C   0  0  0  0  0  0  0  0  0  0  0  0
  -22.0140   -4.1420   23.7530 C   0  0  0  0  0  3  0  0  0  0  0  0
  -22.2060   -4.8820   22.5740 C   0  0  0  0  0  0  0  0  0  0  0  0
  -22.7540   -4.2860   21.4870 F   0  0  0  0  0  0  0  0  0  0  0  0
  -21.2340   -4.0310   26.0080 F   0  0  0  0  0  0  0  0  0  0  0  0
  -23.0160  -13.5610   21.0920 C   0  0  0  0  0  0  0  0  0  0  0  0
  -22.3290  -12.8320   21.9640 N   0  0  0  0  0  0  0  0  0  0  0  0
  -22.5530  -14.6050   20.6330 O   0  0  0  0  0  0  0  0  0  0  0  0
  -22.7140  -11.9820   22.3510 H   0  0  0  0  0  0  0  0  0  0  0  0
  -21.4040  -13.1230   22.2460 H   0  0  0  0  0  0  0  0  0  0  0  0
  -25.5950  -15.2470   20.1570 N   0  0  0  0  0  0  0  0  0  0  0  0
  -24.8240  -15.8930   20.2820 H   0  0  0  0  0  0  0  0  0  0  0  0
  -26.4170  -15.6890   19.7670 H   0  0  0  0  0  0  0  0  0  0  0  0
  -29.2770  -21.3910   19.8570 C   0  0  0  0  0  2  0  0  0  0  0  0
  -28.7430  -23.8650   20.3240 C   0  0  0  0  0  3  0  0  0  0  0  0
  -28.9910  -22.6000   20.7380 C   0  0  0  0  0  3  0  0  0  0  0  0
  -28.4670  -24.9180   21.3260 C   0  0  0  0  0  0  0  0  0  0  0  0
  -27.9430  -24.6550   22.4150 O   0  0  0  0  0  0  0  0  0  0  0  0
  -28.8800  -26.3740   21.0320 C   0  0  0  0  0  2  0  0  0  0  0  0
  -28.3360  -26.8350   19.7940 O   0  0  0  0  0  0  0  0  0  0  0  0
  -24.6010  -31.9270   23.1440 C   0  0  0  0  0  0  0  0  0  0  0  0
  -27.1910  -27.5840   19.8980 C   0  0  0  0  0  0  0  0  0  0  0  0
  -23.3570  -30.5420   21.5100 C   0  0  0  0  0  3  0  0  0  0  0  0
  -24.7830  -29.0480   20.0150 C   0  0  0  0  0  0  0  0  0  0  0  0
  -25.8660  -30.9370   21.2430 C   0  0  0  0  0  2  0  0  0  0  0  0
  -25.9500  -29.5740   20.5840 C   0  0  0  0  0  0  0  0  0  0  0  0
  -27.1570  -28.8460   20.5350 C   0  0  0  0  0  3  0  0  0  0  0  0
  -26.0150  -27.0720   19.3180 C   0  0  0  0  0  3  0  0  0  0  0  0
  -24.8080  -27.7900   19.3860 C   0  0  0  0  0  3  0  0  0  0  0  0
  -23.5290  -29.8840   20.1140 C   0  0  0  0  0  2  0  0  0  0  0  0
  -24.6270  -31.1500   22.0230 N   0  0  0  0  0  0  0  0  0  0  0  0
  -23.5350  -32.1790   23.7210 O   0  0  0  0  0  0  0  0  0  0  0  0
  -22.7490  -29.4970   22.4740 C   0  0  0  0  0  0  0  0  0  0  0  0
  -21.4240  -29.2980   22.3760 N   0  0  0  0  0  0  0  0  0  0  0  0
  -23.4640  -28.8710   23.2610 O   0  0  0  0  0  0  0  0  0  0  0  0
  -20.9090  -29.8560   21.7100 H   0  0  0  0  0  0  0  0  0  0  0  0
  -18.0810  -28.0510   22.9250 C   0  0  0  0  0  0  0  0  0  0  0  0
  -20.6400  -28.3360   23.1460 C   0  0  0  0  0  3  0  0  0  0  0  0
  -20.7480  -26.9180   22.5380 C   0  0  0  0  0  2  0  0  0  0  0  0
  -19.6280  -26.6000   21.5450 C   0  0  0  0  0  2  0  0  0  0  0  0
  -18.2550  -26.7190   22.2170 C   0  0  0  0  0  2  0  0  0  0  0  0
  -19.1990  -28.8170   23.3460 C   0  0  0  0  0  0  0  0  0  0  0  0
  -18.9830  -30.0680   23.9660 C   0  0  0  0  0  3  0  0  0  0  0  0
  -17.6760  -30.5500   24.1710 C   0  0  0  0  0  3  0  0  0  0  0  0
  -16.5720  -29.7790   23.7710 C   0  0  0  0  0  3  0  0  0  0  0  0
  -16.7750  -28.5320   23.1550 C   0  0  0  0  0  3  0  0  0  0  0  0
  -25.9030  -32.5550   23.7350 C   0  0  0  0  0  3  0  0  0  0  0  0
  -25.5990  -33.9480   24.0870 N   0  0  0  0  0  0  0  0  0  0  0  0
  -25.9080  -35.0070   23.3280 C   0  0  0  0  0  0  0  0  0  0  0  0
  -26.5510  -34.9170   22.2800 O   0  0  0  0  0  0  0  0  0  0  0  0
  -25.0250  -34.0940   24.9050 H   0  0  0  0  0  0  0  0  0  0  0  0
  -24.1610  -36.7920   23.0340 C   0  0  0  0  0  1  0  0  0  0  0  0
  -25.4220  -36.3870   23.8120 C   0  0  0  0  0  3  0  0  0  0  0  0
  -27.5660  -37.2780   24.6070 C   0  0  0  0  0  1  0  0  0  0  0  0
  -26.4460  -37.4470   23.6880 N   0  0  0  0  0  0  0  0  0  0  0  0
  -26.0370  -38.3630   23.8500 H   0  0  0  0  0  0  0  0  0  0  0  0
  -26.4580  -31.7740   24.9890 C   0  0  1  0  0  0  0  0  0  0  0  0
  -25.3870  -31.5110   26.0750 C   0  0  0  0  0  1  0  0  0  0  0  0
  -27.0530  -30.4110   24.5630 C   0  0  0  0  0  1  0  0  0  0  0  0
  -27.6110  -32.5740   25.6360 C   0  0  0  0  0  1  0  0  0  0  0  0
  1  6  1  0
  1  2  2  0
  3  4  1  0
  5  7  1  0
  6  5  2  0
  6  8  1  0
  7  3  2  0
  8  4  2  0
  8  9  1  0
 10 18  1  0
 11 16  1  0
 12 13  1  0
 12 11  1  0
 14 13  1  0
 14 23  1  0
 14 15  1  0
 16 10  1  0
 16 15  1  0
 17 10  2  0
 18  7  1  0
 18 19  1  0
 20 21  2  0
 21 40  1  0
 22 21  1  0
 22 25  1  0
 23 24  1  0
 23 20  1  0
 24 22  2  0
 25 26  1  0
 26 27  2  0
 28 31  1  0
 28 27  1  0
 29 28  2  0
 30 29  1  0
 30 25  2  0
 31 32  1  0
 32 37  2  0
 32 33  1  0
 33 34  2  0
 34 35  1  0
 35 39  1  0
 36 35  2  0
 37 36  1  0
 38 37  1  0
 40 41  1  0
 41 44  1  0
 41 43  1  0
 42 40  2  0
 45 46  1  0
 45 20  1  0
 47 45  1  0
 48  1  1  0
 48 50  1  0
 49 50  2  0
 49 51  1  0
 51 52  2  0
 53 51  1  0
 54 56  1  0
 54 53  1  0
 55 66  2  0
 56 61  1  0
 57 65  1  0
 57 67  1  0
 58 64  1  0
 58 60  1  0
 59 65  1  0
 60 59  1  0
 61 60  2  0
 62 63  1  0
 62 56  2  0
 63 58  2  0
 64 57  1  0
 65 55  1  0
 67 69  2  0
 68 67  1  0
 70 68  1  0
 71 80  2  0
 71 76  1  0
 72 68  1  0
 72 76  1  0
 73 72  1  0
 74 75  1  0
 74 73  1  0
 75 71  1  0
 76 77  2  0
 77 78  1  0
 79 78  2  0
 80 79  1  0
 81 55  1  0
 81 82  1  0
 81 91  1  0
 82 85  1  0
 83 87  1  0
 83 82  1  0
 84 83  2  0
 87 86  1  0
 89 87  1  0
 89 90  1  0
 89 88  1  0
 91 94  1  1
 91 92  1  0
 93 91  1  0
M  ISO  4  10 100  18 100  53 101  54 101
M  END
>  <TORSDO>  (3) 
F 21

>  <SCORE>  (3) 
-12.852

>  <name>  (3) 
2

>  <ligand_id>  (3) 
2

>  <original_smiles>  (3) 
[H]C(C(=O)C([H])([H])Oc1c([H])c([H])c2c(c1[H])C([H])([H])N(C(=O)C([H])(N([H])C(=O)C([H])(N([H])C([H])([H])[H])C([H])([H])[H])C(C([H])([H])[H])(C([H])([H])[H])C([H])([H])[H])C([H])(C(=O)N([H])C1([H])c3c([H])c([H])c([H])c([H])c3C([H])([H])C([H])([H])C1([H])[H])C2([H])[H])=C([H])C([H])([H])C(=O)c1c([H])c(N([H])C(=O)N2C([H])([H])C([H])([H])C([H])([H])C([H])(n3nc(-c4c([H])c([H])c(Oc5c([H])c([H])c(F)c([H])c5F)c([H])c4[H])c(C(=O)N([H])[H])c3N([H])[H])C2([H])[H])c([H])c([H])c1F

>  <smiles>  (3) 
[H]C(C(=O)C([H])([H])Oc1c([H])c([H])c2c(c1[H])C([H])([H])N(C(=O)C([H])(N([H])C(=O)C([H])(N([H])C([H])([H])[H])C([H])([H])[H])C(C([H])([H])[H])(C([H])([H])[H])C([H])([H])[H])C([H])(C(=O)N([H])C1([H])c3c([H])c([H])c([H])c([H])c3C([H])([H])C([H])([H])C1([H])[H])C2([H])[H])=C([H])C([H])([H])C(=O)c1c([H])c(N([H])C(=O)N2C([H])([H])C([H])([H])C([H])([H])C([H])(n3nc(-c4c([H])c([H])c(Oc5c([H])c([H])c(F)c([H])c5F)c([H])c4[H])c(C(=O)N([H])[H])c3N([H])[H])C2([H])[H])c([H])c([H])c1F

$$$$
3:0:0
     RDKit          3D

 93101  0  0  1  0  0  0  0  0999 V2000
  -29.2680  -17.0470   19.1760 C   0  0  0  0  0  3  0  0  0  0  0  0
  -30.1980  -18.0250   21.1920 C   0  0  0  0  0  3  0  0  0  0  0  0
  -28.9270  -18.3270   18.6800 C   0  0  0  0  0  0  0  0  0  0  0  0
  -29.2920  -19.4800   19.4400 C   0  0  0  0  0  0  0  0  0  0  0  0
  -29.9110  -16.8680   20.4160 C   0  0  0  0  0  0  0  0  0  0  0  0
  -29.8980  -19.3360   20.7200 C   0  0  0  0  0  0  0  0  0  0  0  0
  -29.1110  -20.8810   18.8680 C   0  0  0  0  0  1  0  0  0  0  0  0
  -30.7710  -14.5630   20.1560 C   0  0  0  0  0  0  0  0  0  0  0  0
  -30.2990  -12.6240   18.6980 C   0  0  0  0  0  2  0  0  0  0  0  0
  -29.3040  -13.0800   17.6110 C   0  0  0  0  0  2  0  0  0  0  0  0
  -27.8540  -12.9200   18.1070 C   0  0  0  0  0  2  0  0  0  0  0  0
  -27.6340  -13.5410   19.5120 C   0  0  0  0  0  3  0  0  0  0  0  0
  -28.7400  -13.1000   20.4980 C   0  0  0  0  0  2  0  0  0  0  0  0
  -30.0460  -13.4340   19.9030 N   0  0  0  0  0  0  0  0  0  0  0  0
  -31.8760  -14.7680   19.6470 O   0  0  0  0  0  0  0  0  0  0  0  0
  -30.1510  -15.5270   20.8830 N   0  0  0  0  0  0  0  0  0  0  0  0
  -29.3980  -15.1660   21.4480 H   0  0  0  0  0  0  0  0  0  0  0  0
  -25.2620  -14.1130   20.3240 C   0  0  0  0  0  0  0  0  0  0  0  0
  -24.2180  -13.3230   20.7150 C   0  0  0  0  0  0  0  0  0  0  0  0
  -24.6900  -11.9760   20.6380 C   0  0  0  0  0  0  0  0  0  0  0  0
  -26.3040  -13.2460   20.0340 N   0  0  0  0  0  0  0  0  0  0  0  0
  -25.9670  -11.9550   20.2840 N   0  0  0  0  0  0  0  0  0  0  0  0
  -23.9870  -10.7010   20.8270 C   0  0  0  0  0  0  0  0  0  0  0  0
  -24.4530   -9.7320   21.7440 C   0  0  0  0  0  3  0  0  0  0  0  0
  -23.7480   -8.5240   21.9270 C   0  0  0  0  0  3  0  0  0  0  0  0
  -22.5660   -8.2730   21.1900 C   0  0  0  0  0  0  0  0  0  0  0  0
  -22.1200   -9.2320   20.2620 C   0  0  0  0  0  3  0  0  0  0  0  0
  -22.8240  -10.4330   20.0800 C   0  0  0  0  0  3  0  0  0  0  0  0
  -21.8320   -7.1160   21.2780 O   0  0  0  0  0  0  0  0  0  0  0  0
  -21.8050   -6.3670   22.4280 C   0  0  0  0  0  0  0  0  0  0  0  0
  -21.3910   -6.9110   23.6620 C   0  0  0  0  0  3  0  0  0  0  0  0
  -21.3110   -6.0880   24.8020 C   0  0  0  0  0  3  0  0  0  0  0  0
  -21.6350   -4.7200   24.7090 C   0  0  0  0  0  0  0  0  0  0  0  0
  -22.0400   -4.1750   23.4770 C   0  0  0  0  0  3  0  0  0  0  0  0
  -22.1210   -4.9960   22.3380 C   0  0  0  0  0  0  0  0  0  0  0  0
  -22.4920   -4.4610   21.1500 F   0  0  0  0  0  0  0  0  0  0  0  0
  -21.5490   -3.9260   25.8000 F   0  0  0  0  0  0  0  0  0  0  0  0
  -22.8290  -13.7780   21.0490 C   0  0  0  0  0  0  0  0  0  0  0  0
  -22.1450  -13.0620   21.9330 N   0  0  0  0  0  0  0  0  0  0  0  0
  -22.3550  -14.8010   20.5580 O   0  0  0  0  0  0  0  0  0  0  0  0
  -22.5410  -12.2330   22.3490 H   0  0  0  0  0  0  0  0  0  0  0  0
  -21.2120  -13.3440   22.1930 H   0  0  0  0  0  0  0  0  0  0  0  0
  -25.4150  -15.4920   20.1820 N   0  0  0  0  0  0  0  0  0  0  0  0
  -24.6490  -16.1370   20.3430 H   0  0  0  0  0  0  0  0  0  0  0  0
  -26.2600  -15.9520   19.8720 H   0  0  0  0  0  0  0  0  0  0  0  0
  -27.8470  -17.4060   16.5770 C   0  0  0  0  0  2  0  0  0  0  0  0
  -28.2040  -18.4220   17.3870 C   0  0  0  0  0  3  0  0  0  0  0  0
  -30.3140  -20.4330   21.4740 O   0  0  0  0  0  0  0  0  0  0  0  0
  -29.3920  -21.4950   21.8190 C   0  0  0  0  0  2  0  0  0  0  0  0
  -29.8810  -22.8970   21.3190 C   0  0  0  0  0  2  0  0  0  0  0  0
  -29.0600  -24.1730   21.7080 C   0  0  0  0  0  2  0  0  0  0  0  0
  -29.3040  -25.3740   20.7370 C   0  0  0  0  0  2  0  0  0  0  0  0
  -28.9910  -26.6900   21.2400 O   0  0  0  0  0  0  0  0  0  0  0  0
  -24.7710  -31.9940   23.3750 C   0  0  0  0  0  0  0  0  0  0  0  0
  -27.7850  -27.3320   21.0050 C   0  0  0  0  0  0  0  0  0  0  0  0
  -23.7480  -30.3980   21.7840 C   0  0  0  0  0  3  0  0  0  0  0  0
  -25.3560  -28.7660   20.6510 C   0  0  0  0  0  0  0  0  0  0  0  0
  -26.2730  -30.8020   21.7800 C   0  0  0  0  0  2  0  0  0  0  0  0
  -26.4410  -29.3770   21.2900 C   0  0  0  0  0  0  0  0  0  0  0  0
  -27.6480  -28.6640   21.4670 C   0  0  0  0  0  3  0  0  0  0  0  0
  -26.6870  -26.7420   20.3400 C   0  0  0  0  0  3  0  0  0  0  0  0
  -25.4770  -27.4490   20.1700 C   0  0  0  0  0  3  0  0  0  0  0  0
  -24.0960  -29.5920   20.5030 C   0  0  0  0  0  2  0  0  0  0  0  0
  -24.9420  -31.0910   22.3680 N   0  0  0  0  0  0  0  0  0  0  0  0
  -23.6410  -32.2860   23.7880 O   0  0  0  0  0  0  0  0  0  0  0  0
  -23.0340  -29.4610   22.7850 C   0  0  0  0  0  0  0  0  0  0  0  0
  -21.7250  -29.2440   22.5760 N   0  0  0  0  0  0  0  0  0  0  0  0
  -23.6590  -28.9270   23.7060 O   0  0  0  0  0  0  0  0  0  0  0  0
  -21.2790  -29.7280   21.8080 H   0  0  0  0  0  0  0  0  0  0  0  0
  -18.3340  -28.0470   22.9470 C   0  0  0  0  0  0  0  0  0  0  0  0
  -20.8660  -28.3610   23.3680 C   0  0  0  0  0  3  0  0  0  0  0  0
  -21.0190  -26.8890   22.9230 C   0  0  0  0  0  2  0  0  0  0  0  0
  -19.9900  -26.4680   21.8660 C   0  0  0  0  0  2  0  0  0  0  0  0
  -18.5670  -26.6480   22.4010 C   0  0  0  0  0  2  0  0  0  0  0  0
  -19.4150  -28.8570   23.3850 C   0  0  0  0  0  0  0  0  0  0  0  0
  -19.1460  -30.1610   23.8500 C   0  0  0  0  0  3  0  0  0  0  0  0
  -17.8290  -30.6580   23.8830 C   0  0  0  0  0  3  0  0  0  0  0  0
  -16.7620  -29.8470   23.4600 C   0  0  0  0  0  3  0  0  0  0  0  0
  -17.0150  -28.5430   22.9980 C   0  0  0  0  0  3  0  0  0  0  0  0
  -25.9830  -32.7210   24.0370 C   0  0  0  0  0  3  0  0  0  0  0  0
  -25.6120  -34.1320   24.2090 N   0  0  0  0  0  0  0  0  0  0  0  0
  -25.9690  -35.1220   23.3780 C   0  0  0  0  0  0  0  0  0  0  0  0
  -26.7160  -34.9480   22.4120 O   0  0  0  0  0  0  0  0  0  0  0  0
  -24.9610  -34.3420   24.9520 H   0  0  0  0  0  0  0  0  0  0  0  0
  -24.2130  -36.8050   22.7390 C   0  0  0  0  0  1  0  0  0  0  0  0
  -25.4070  -36.5280   23.6670 C   0  0  0  0  0  3  0  0  0  0  0  0
  -27.4510  -37.5620   24.5490 C   0  0  0  0  0  1  0  0  0  0  0  0
  -26.4110  -37.6050   23.5240 N   0  0  0  0  0  0  0  0  0  0  0  0
  -25.9670  -38.5190   23.5620 H   0  0  0  0  0  0  0  0  0  0  0  0
  -26.4160  -32.0870   25.4170 C   0  0  1  0  0  0  0  0  0  0  0  0
  -25.2460  -31.8880   26.4070 C   0  0  0  0  0  1  0  0  0  0  0  0
  -27.0860  -30.7100   25.2000 C   0  0  0  0  0  1  0  0  0  0  0  0
  -27.4740  -32.9870   26.0990 C   0  0  0  0  0  1  0  0  0  0  0  0
  1  5  1  0
  3  1  2  0
  3  4  1  0
  4  6  2  0
  5 16  1  0
  5  2  2  0
  6  2  1  0
  6 48  1  0
  7  4  1  0
  8 16  1  0
  9 14  1  0
 10 11  1  0
 10  9  1  0
 12 11  1  0
 12 21  1  0
 12 13  1  0
 14  8  1  0
 14 13  1  0
 15  8  2  0
 16 17  1  0
 18 19  2  0
 19 38  1  0
 20 19  1  0
 20 23  1  0
 21 22  1  0
 21 18  1  0
 22 20  2  0
 23 24  1  0
 24 25  2  0
 26 29  1  0
 26 25  1  0
 27 26  2  0
 28 27  1  0
 28 23  2  0
 29 30  1  0
 30 31  1  0
 31 32  2  0
 33 32  1  0
 33 37  1  0
 34 33  2  0
 35 30  2  0
 35 34  1  0
 36 35  1  0
 38 39  1  0
 39 42  1  0
 39 41  1  0
 40 38  2  0
 43 18  1  0
 43 44  1  0
 45 43  1  0
 46 47  2  0
 47  3  1  0
 48 49  1  0
 50 51  1  0
 50 49  1  0
 52 53  1  0
 52 51  1  0
 54 65  2  0
 55 53  1  0
 55 60  1  0
 56 64  1  0
 56 66  1  0
 57 59  1  0
 58 64  1  0
 59 60  2  0
 59 58  1  0
 61 55  2  0
 62 61  1  0
 62 57  2  0
 63 57  1  0
 63 56  1  0
 64 54  1  0
 66 68  2  0
 67 66  1  0
 69 67  1  0
 70 79  2  0
 70 75  1  0
 71 67  1  0
 71 75  1  0
 72 71  1  0
 73 74  1  0
 73 72  1  0
 74 70  1  0
 75 76  2  0
 76 77  1  0
 78 77  2  0
 79 78  1  0
 80 54  1  0
 80 81  1  0
 80 90  1  0
 81 84  1  0
 82 86  1  0
 82 81  1  0
 83 82  2  0
 86 85  1  0
 88 89  1  0
 88 86  1  0
 88 87  1  0
 90 93  1  1
 90 91  1  0
 92 90  1  0
M  ISO  4   8 100  16 100  52 101  53 101
M  END
>  <TORSDO>  (4) 
F 22

>  <SCORE>  (4) 
-10.212

>  <name>  (4) 
3

>  <ligand_id>  (4) 
3

>  <original_smiles>  (4) 
[H]C([H])=C([H])c1c([H])c(N([H])C(=O)N2C([H])([H])C([H])([H])C([H])([H])C([H])(n3nc(-c4c([H])c([H])c(Oc5c([H])c([H])c(F)c([H])c5F)c([H])c4[H])c(C(=O)N([H])[H])c3N([H])[H])C2([H])[H])c([H])c(OC([H])([H])C([H])([H])C([H])([H])C([H])([H])Oc2c([H])c([H])c3c(c2[H])C([H])([H])N(C(=O)C([H])(N([H])C(=O)C([H])(N([H])C([H])([H])[H])C([H])([H])[H])C(C([H])([H])[H])(C([H])([H])[H])C([H])([H])[H])C([H])(C(=O)N([H])C2([H])c4c([H])c([H])c([H])c([H])c4C([H])([H])C([H])([H])C2([H])[H])C3([H])[H])c1C([H])([H])[H]

>  <smiles>  (4) 
[H]C([H])=C([H])c1c([H])c(N([H])C(=O)N2C([H])([H])C([H])([H])C([H])([H])C([H])(n3nc(-c4c([H])c([H])c(Oc5c([H])c([H])c(F)c([H])c5F)c([H])c4[H])c(C(=O)N([H])[H])c3N([H])[H])C2([H])[H])c([H])c(OC([H])([H])C([H])([H])C([H])([H])C([H])([H])Oc2c([H])c([H])c3c(c2[H])C([H])([H])N(C(=O)C([H])(N([H])C(=O)C([H])(N([H])C([H])([H])[H])C([H])([H])[H])C(C([H])([H])[H])(C([H])([H])[H])C([H])([H])[H])C([H])(C(=O)N([H])C2([H])c4c([H])c([H])c([H])c([H])c4C([H])([H])C([H])([H])C2([H])[H])C3([H])[H])c1C([H])([H])[H]

$$$$
4:0:0
     RDKit          3D

 92100  0  0  1  0  0  0  0  0999 V2000
  -27.7350  -19.1340   19.9280 C   0  0  0  0  0  3  0  0  0  0  0  0
  -30.4690  -19.4570   20.3510 C   0  0  0  0  0  3  0  0  0  0  0  0
  -28.3170  -20.3980   19.6920 C   0  0  0  0  0  0  0  0  0  0  0  0
  -29.9180  -18.1450   20.4240 C   0  0  0  0  0  0  0  0  0  0  0  0
  -28.5010  -18.0280   20.3470 C   0  0  0  0  0  0  0  0  0  0  0  0
  -29.6690  -20.6030   20.0710 C   0  0  0  0  0  0  0  0  0  0  0  0
  -27.7510  -16.7620   20.7410 C   0  0  0  0  0  1  0  0  0  0  0  0
  -26.3700  -21.3610   18.3800 C   0  0  0  0  0  2  0  0  0  0  0  0
  -27.5570  -21.4700   19.0010 C   0  0  0  0  0  3  0  0  0  0  0  0
  -30.8240  -16.9520   20.4150 C   0  0  0  0  0  3  0  0  0  0  0  0
  -30.4410  -15.7290   19.9540 C   0  0  0  0  0  3  0  0  0  0  0  0
  -31.3120  -14.5580   19.8060 C   0  0  0  0  0  0  0  0  0  0  0  0
  -31.0630  -12.2500   18.9740 C   0  0  0  0  0  2  0  0  0  0  0  0
  -30.0690  -12.2510   17.7920 C   0  0  0  0  0  2  0  0  0  0  0  0
  -28.6160  -12.1200   18.2930 C   0  0  0  0  0  2  0  0  0  0  0  0
  -28.2820  -13.1050   19.4420 C   0  0  0  0  0  3  0  0  0  0  0  0
  -29.3870  -13.0820   20.5250 C   0  0  0  0  0  2  0  0  0  0  0  0
  -30.6790  -13.3500   19.8720 N   0  0  0  0  0  0  0  0  0  0  0  0
  -32.4670  -14.6630   19.3850 O   0  0  0  0  0  0  0  0  0  0  0  0
  -25.9490  -13.7610   20.3150 C   0  0  0  0  0  0  0  0  0  0  0  0
  -24.8920  -13.0120   20.7520 C   0  0  0  0  0  0  0  0  0  0  0  0
  -25.3170  -11.6480   20.6780 C   0  0  0  0  0  0  0  0  0  0  0  0
  -26.9570  -12.8590   20.0080 N   0  0  0  0  0  0  0  0  0  0  0  0
  -26.5830  -11.5830   20.2830 N   0  0  0  0  0  0  0  0  0  0  0  0
  -24.5730  -10.4040   20.8930 C   0  0  0  0  0  0  0  0  0  0  0  0
  -24.9380   -9.4920   21.9090 C   0  0  0  0  0  3  0  0  0  0  0  0
  -24.1950   -8.3090   22.1060 C   0  0  0  0  0  3  0  0  0  0  0  0
  -23.0760   -8.0300   21.2870 C   0  0  0  0  0  0  0  0  0  0  0  0
  -22.7310   -8.9300   20.2640 C   0  0  0  0  0  3  0  0  0  0  0  0
  -23.4720  -10.1030   20.0630 C   0  0  0  0  0  3  0  0  0  0  0  0
  -22.3080   -6.8950   21.3940 O   0  0  0  0  0  0  0  0  0  0  0  0
  -22.0600   -6.3030   22.6070 C   0  0  0  0  0  0  0  0  0  0  0  0
  -21.3910   -6.9870   23.6460 C   0  0  0  0  0  3  0  0  0  0  0  0
  -21.0900   -6.3210   24.8500 C   0  0  0  0  0  3  0  0  0  0  0  0
  -21.4500   -4.9690   25.0170 C   0  0  0  0  0  0  0  0  0  0  0  0
  -22.1070   -4.2840   23.9810 C   0  0  0  0  0  3  0  0  0  0  0  0
  -22.4080   -4.9490   22.7790 C   0  0  0  0  0  0  0  0  0  0  0  0
  -23.0250   -4.2750   21.7780 F   0  0  0  0  0  0  0  0  0  0  0  0
  -21.1550   -4.3290   26.1710 F   0  0  0  0  0  0  0  0  0  0  0  0
  -23.5290  -13.5210   21.1260 C   0  0  0  0  0  0  0  0  0  0  0  0
  -22.8450  -12.8400   22.0380 N   0  0  0  0  0  0  0  0  0  0  0  0
  -23.0800  -14.5600   20.6400 O   0  0  0  0  0  0  0  0  0  0  0  0
  -23.2240  -11.9990   22.4480 H   0  0  0  0  0  0  0  0  0  0  0  0
  -21.9340  -13.1620   22.3320 H   0  0  0  0  0  0  0  0  0  0  0  0
  -26.1280  -15.1290   20.1270 N   0  0  0  0  0  0  0  0  0  0  0  0
  -25.4000  -15.8060   20.3260 H   0  0  0  0  0  0  0  0  0  0  0  0
  -26.9580  -15.5580   19.7420 H   0  0  0  0  0  0  0  0  0  0  0  0
  -30.2290  -21.8750   20.0940 O   0  0  0  0  0  0  0  0  0  0  0  0
  -29.5960  -22.8550   20.9600 C   0  0  0  0  0  2  0  0  0  0  0  0
  -29.6700  -24.3050   20.3920 C   0  0  0  0  0  2  0  0  0  0  0  0
  -28.8450  -25.3650   21.1750 C   0  0  0  0  0  2  0  0  0  0  0  0
  -28.9910  -26.6980   20.6300 O   0  0  0  0  0  0  0  0  0  0  0  0
  -24.7910  -31.7290   23.4160 C   0  0  0  0  0  0  0  0  0  0  0  0
  -27.8230  -27.4220   20.5230 C   0  0  0  0  0  0  0  0  0  0  0  0
  -23.7710  -30.3200   21.6580 C   0  0  0  0  0  3  0  0  0  0  0  0
  -25.3910  -28.8580   20.3310 C   0  0  0  0  0  0  0  0  0  0  0  0
  -26.2890  -30.7680   21.6720 C   0  0  0  0  0  2  0  0  0  0  0  0
  -26.4770  -29.4100   21.0210 C   0  0  0  0  0  0  0  0  0  0  0  0
  -27.6990  -28.7020   21.1100 C   0  0  0  0  0  3  0  0  0  0  0  0
  -26.7250  -26.8870   19.8180 C   0  0  0  0  0  3  0  0  0  0  0  0
  -25.5120  -27.5970   19.7200 C   0  0  0  0  0  3  0  0  0  0  0  0
  -24.1150  -29.6730   20.2900 C   0  0  0  0  0  2  0  0  0  0  0  0
  -24.9630  -30.9530   22.3100 N   0  0  0  0  0  0  0  0  0  0  0  0
  -23.6610  -31.9550   23.8730 O   0  0  0  0  0  0  0  0  0  0  0  0
  -23.0800  -29.2600   22.5470 C   0  0  0  0  0  0  0  0  0  0  0  0
  -21.7710  -29.0580   22.3300 N   0  0  0  0  0  0  0  0  0  0  0  0
  -23.7210  -28.6220   23.3860 O   0  0  0  0  0  0  0  0  0  0  0  0
  -21.3140  -29.6260   21.6300 H   0  0  0  0  0  0  0  0  0  0  0  0
  -18.3820  -27.8370   22.6210 C   0  0  0  0  0  0  0  0  0  0  0  0
  -20.9250  -28.0840   23.0190 C   0  0  0  0  0  3  0  0  0  0  0  0
  -21.0570  -26.6810   22.3820 C   0  0  0  0  0  2  0  0  0  0  0  0
  -20.0030  -26.4050   21.3060 C   0  0  0  0  0  2  0  0  0  0  0  0
  -18.5930  -26.5190   21.8930 C   0  0  0  0  0  2  0  0  0  0  0  0
  -19.4780  -28.5800   23.1360 C   0  0  0  0  0  0  0  0  0  0  0  0
  -19.2300  -29.8150   23.7730 C   0  0  0  0  0  3  0  0  0  0  0  0
  -17.9170  -30.3080   23.9010 C   0  0  0  0  0  3  0  0  0  0  0  0
  -16.8350  -29.5630   23.4030 C   0  0  0  0  0  3  0  0  0  0  0  0
  -17.0680  -28.3280   22.7700 C   0  0  0  0  0  3  0  0  0  0  0  0
  -26.0010  -32.3910   24.1500 C   0  0  0  0  0  3  0  0  0  0  0  0
  -25.6500  -33.7940   24.4060 N   0  0  0  0  0  0  0  0  0  0  0  0
  -26.0450  -34.8250   23.6470 C   0  0  0  0  0  0  0  0  0  0  0  0
  -26.8100  -34.6970   22.6870 O   0  0  0  0  0  0  0  0  0  0  0  0
  -24.9810  -33.9660   25.1400 H   0  0  0  0  0  0  0  0  0  0  0  0
  -24.3290  -36.5760   23.0800 C   0  0  0  0  0  1  0  0  0  0  0  0
  -25.5020  -36.2210   24.0080 C   0  0  0  0  0  3  0  0  0  0  0  0
  -27.5420  -37.1720   24.9890 C   0  0  0  0  0  1  0  0  0  0  0  0
  -26.5270  -37.2850   23.9440 N   0  0  0  0  0  0  0  0  0  0  0  0
  -26.0990  -38.2030   24.0150 H   0  0  0  0  0  0  0  0  0  0  0  0
  -26.3900  -31.6590   25.4930 C   0  0  1  0  0  0  0  0  0  0  0  0
  -25.1940  -31.4370   26.4500 C   0  0  0  0  0  1  0  0  0  0  0  0
  -27.0200  -30.2760   25.1980 C   0  0  0  0  0  1  0  0  0  0  0  0
  -27.4590  -32.4810   26.2480 C   0  0  0  0  0  1  0  0  0  0  0  0
  1  5  1  0
  2  4  1  0
  3  1  2  0
  3  6  1  0
  5  4  2  0
  5  7  1  0
  6 48  1  0
  6  2  2  0
  8  9  2  0
  9  3  1  0
 10  4  1  0
 11 10  2  0
 12 18  1  0
 12 11  1  0
 13 18  1  0
 14 15  1  0
 14 13  1  0
 16 15  1  0
 16 23  1  0
 16 17  1  0
 18 17  1  0
 19 12  2  0
 20 21  2  0
 21 40  1  0
 22 21  1  0
 22 25  1  0
 23 24  1  0
 23 20  1  0
 24 22  2  0
 25 26  1  0
 26 27  2  0
 28 31  1  0
 28 27  1  0
 29 28  2  0
 30 29  1  0
 30 25  2  0
 31 32  1  0
 32 37  2  0
 32 33  1  0
 33 34  2  0
 34 35  1  0
 35 39  1  0
 36 35  2  0
 37 36  1  0
 38 37  1  0
 40 41  1  0
 41 44  1  0
 41 43  1  0
 42 40  2  0
 45 20  1  0
 45 46  1  0
 47 45  1  0
 48 49  1  0
 50 49  1  0
 50 51  1  0
 52 51  1  0
 53 64  2  0
 54 52  1  0
 54 59  1  0
 55 63  1  0
 55 65  1  0
 56 58  1  0
 57 63  1  0
 58 59  2  0
 58 57  1  0
 60 54  2  0
 61 60  1  0
 61 56  2  0
 62 56  1  0
 62 55  1  0
 63 53  1  0
 65 67  2  0
 66 65  1  0
 68 66  1  0
 69 78  2  0
 69 74  1  0
 70 66  1  0
 70 74  1  0
 71 70  1  0
 72 73  1  0
 72 71  1  0
 73 69  1  0
 74 75  2  0
 75 76  1  0
 77 76  2  0
 78 77  1  0
 79 53  1  0
 79 80  1  0
 79 89  1  0
 80 83  1  0
 81 85  1  0
 81 80  1  0
 82 81  2  0
 85 84  1  0
 87 85  1  0
 87 88  1  0
 87 86  1  0
 89 92  1  1
 89 90  1  0
 91 89  1  0
M  ISO  4  11 100  12 100  51 101  52 101
M  END
>  <TORSDO>  (5) 
F 22

>  <SCORE>  (5) 
-11.956

>  <name>  (5) 
4

>  <ligand_id>  (5) 
4

>  <original_smiles>  (5) 
[H]C([H])=C([H])c1c([H])c(C([H])([H])[H])c(C([H])=C([H])C(=O)N2C([H])([H])C([H])([H])C([H])([H])C([H])(n3nc(-c4c([H])c([H])c(Oc5c([H])c([H])c(F)c([H])c5F)c([H])c4[H])c(C(=O)N([H])[H])c3N([H])[H])C2([H])[H])c([H])c1OC([H])([H])C([H])([H])C([H])([H])Oc1c([H])c([H])c2c(c1[H])C([H])([H])N(C(=O)C([H])(N([H])C(=O)C([H])(N([H])C([H])([H])[H])C([H])([H])[H])C(C([H])([H])[H])(C([H])([H])[H])C([H])([H])[H])C([H])(C(=O)N([H])C1([H])c3c([H])c([H])c([H])c([H])c3C([H])([H])C([H])([H])C1([H])[H])C2([H])[H]

>  <smiles>  (5) 
[H]C([H])=C([H])c1c([H])c(C([H])([H])[H])c(C([H])=C([H])C(=O)N2C([H])([H])C([H])([H])C([H])([H])C([H])(n3nc(-c4c([H])c([H])c(Oc5c([H])c([H])c(F)c([H])c5F)c([H])c4[H])c(C(=O)N([H])[H])c3N([H])[H])C2([H])[H])c([H])c1OC([H])([H])C([H])([H])C([H])([H])Oc1c([H])c([H])c2c(c1[H])C([H])([H])N(C(=O)C([H])(N([H])C(=O)C([H])(N([H])C([H])([H])[H])C([H])([H])[H])C(C([H])([H])[H])(C([H])([H])[H])C([H])([H])[H])C([H])(C(=O)N([H])C1([H])c3c([H])c([H])c([H])c([H])c3C([H])([H])C([H])([H])C1([H])[H])C2([H])[H]

$$$$
5:0:0
     RDKit          3D

 90 98  0  0  1  0  0  0  0  0999 V2000
  -30.5640  -19.5820   20.8440 C   0  0  0  0  0  3  0  0  0  0  0  0
  -28.2220  -20.3230   19.5820 C   0  0  0  0  0  3  0  0  0  0  0  0
  -29.7750  -18.5340   20.3030 C   0  0  0  0  0  0  0  0  0  0  0  0
  -29.0420  -21.3790   20.0620 C   0  0  0  0  0  0  0  0  0  0  0  0
  -28.5610  -18.9420   19.6790 C   0  0  0  0  0  0  0  0  0  0  0  0
  -30.2270  -20.9660   20.7370 C   0  0  0  0  0  0  0  0  0  0  0  0
  -27.6180  -17.9570   19.0090 C   0  0  0  0  0  1  0  0  0  0  0  0
  -31.2020  -21.9710   21.3210 C   0  0  0  0  0  1  0  0  0  0  0  0
  -30.3450  -17.1250   20.3490 C   0  0  0  0  0  3  0  0  0  0  0  0
  -29.8020  -15.8880   20.5880 C   0  0  0  0  0  3  0  0  0  0  0  0
  -30.6150  -14.6430   20.4360 C   0  0  0  0  0  0  0  0  0  0  0  0
  -30.3600  -12.3980   19.4320 C   0  0  0  0  0  2  0  0  0  0  0  0
  -29.4470  -12.5510   18.1960 C   0  0  0  0  0  2  0  0  0  0  0  0
  -27.9670  -12.4010   18.6010 C   0  0  0  0  0  2  0  0  0  0  0  0
  -27.5950  -13.2690   19.8330 C   0  0  0  0  0  3  0  0  0  0  0  0
  -28.6380  -13.1360   20.9640 C   0  0  0  0  0  2  0  0  0  0  0  0
  -29.9590  -13.4400   20.3990 N   0  0  0  0  0  0  0  0  0  0  0  0
  -31.8120  -14.6930   20.1350 O   0  0  0  0  0  0  0  0  0  0  0  0
  -25.1980  -13.8710   20.5300 C   0  0  0  0  0  0  0  0  0  0  0  0
  -24.1270  -13.1010   20.8940 C   0  0  0  0  0  0  0  0  0  0  0  0
  -24.5890  -11.7500   20.8780 C   0  0  0  0  0  0  0  0  0  0  0  0
  -26.2440  -12.9880   20.3100 N   0  0  0  0  0  0  0  0  0  0  0  0
  -25.8820  -11.7080   20.5820 N   0  0  0  0  0  0  0  0  0  0  0  0
  -23.8600  -10.4900   21.0710 C   0  0  0  0  0  0  0  0  0  0  0  0
  -24.2930   -9.5190   22.0010 C   0  0  0  0  0  3  0  0  0  0  0  0
  -23.5640   -8.3240   22.1800 C   0  0  0  0  0  3  0  0  0  0  0  0
  -22.3860   -8.0920   21.4310 C   0  0  0  0  0  0  0  0  0  0  0  0
  -21.9720   -9.0510   20.4900 C   0  0  0  0  0  3  0  0  0  0  0  0
  -22.7020  -10.2370   20.3080 C   0  0  0  0  0  3  0  0  0  0  0  0
  -21.6280   -6.9490   21.5200 O   0  0  0  0  0  0  0  0  0  0  0  0
  -21.5950   -6.1940   22.6640 C   0  0  0  0  0  0  0  0  0  0  0  0
  -21.1910   -6.7370   23.9040 C   0  0  0  0  0  3  0  0  0  0  0  0
  -21.1070   -5.9080   25.0410 C   0  0  0  0  0  3  0  0  0  0  0  0
  -21.4150   -4.5390   24.9390 C   0  0  0  0  0  0  0  0  0  0  0  0
  -21.8110   -3.9950   23.7040 C   0  0  0  0  0  3  0  0  0  0  0  0
  -21.8980   -4.8210   22.5700 C   0  0  0  0  0  0  0  0  0  0  0  0
  -22.2600   -4.2880   21.3780 F   0  0  0  0  0  0  0  0  0  0  0  0
  -21.3250   -3.7400   26.0280 F   0  0  0  0  0  0  0  0  0  0  0  0
  -22.7280  -13.5820   21.1460 C   0  0  0  0  0  0  0  0  0  0  0  0
  -21.9880  -12.8940   22.0070 N   0  0  0  0  0  0  0  0  0  0  0  0
  -22.2980  -14.6050   20.6140 O   0  0  0  0  0  0  0  0  0  0  0  0
  -22.3450  -12.0660   22.4620 H   0  0  0  0  0  0  0  0  0  0  0  0
  -21.0480  -13.1990   22.2150 H   0  0  0  0  0  0  0  0  0  0  0  0
  -25.3660  -15.2400   20.3460 N   0  0  0  0  0  0  0  0  0  0  0  0
  -24.5990  -15.8960   20.4490 H   0  0  0  0  0  0  0  0  0  0  0  0
  -26.2280  -15.6760   20.0490 H   0  0  0  0  0  0  0  0  0  0  0  0
  -28.5990  -22.7970   19.7240 C   0  0  0  0  0  3  0  0  0  0  0  0
  -29.0530  -24.0510   20.0350 C   0  0  0  0  0  3  0  0  0  0  0  0
  -28.5150  -25.3600   19.3850 C   0  0  0  0  0  2  0  0  0  0  0  0
  -28.3610  -26.5510   20.2300 O   0  0  0  0  0  0  0  0  0  0  0  0
  -24.5910  -31.8830   23.2500 C   0  0  0  0  0  0  0  0  0  0  0  0
  -27.2120  -27.3500   20.1740 C   0  0  0  0  0  0  0  0  0  0  0  0
  -23.3910  -30.4910   21.6030 C   0  0  0  0  0  3  0  0  0  0  0  0
  -24.8420  -28.9490   20.1810 C   0  0  0  0  0  0  0  0  0  0  0  0
  -25.9320  -30.8110   21.4290 C   0  0  0  0  0  2  0  0  0  0  0  0
  -26.0100  -29.4390   20.7770 C   0  0  0  0  0  0  0  0  0  0  0  0
  -27.1940  -28.6490   20.7680 C   0  0  0  0  0  3  0  0  0  0  0  0
  -26.0040  -26.8980   19.5890 C   0  0  0  0  0  3  0  0  0  0  0  0
  -24.8380  -27.6820   19.5840 C   0  0  0  0  0  3  0  0  0  0  0  0
  -23.6080  -29.8220   20.2220 C   0  0  0  0  0  2  0  0  0  0  0  0
  -24.6570  -31.0790   22.1500 N   0  0  0  0  0  0  0  0  0  0  0  0
  -23.5050  -32.1610   23.7800 O   0  0  0  0  0  0  0  0  0  0  0  0
  -22.7270  -29.4700   22.5560 C   0  0  0  0  0  0  0  0  0  0  0  0
  -21.4010  -29.2930   22.4210 N   0  0  0  0  0  0  0  0  0  0  0  0
  -23.4010  -28.8400   23.3750 O   0  0  0  0  0  0  0  0  0  0  0  0
  -20.9190  -29.8520   21.7320 H   0  0  0  0  0  0  0  0  0  0  0  0
  -18.0140  -28.1190   22.9090 C   0  0  0  0  0  0  0  0  0  0  0  0
  -20.5740  -28.3580   23.1860 C   0  0  0  0  0  3  0  0  0  0  0  0
  -20.6660  -26.9280   22.6030 C   0  0  0  0  0  2  0  0  0  0  0  0
  -19.5640  -26.6180   21.5850 C   0  0  0  0  0  2  0  0  0  0  0  0
  -18.1820  -26.7720   22.2280 C   0  0  0  0  0  2  0  0  0  0  0  0
  -19.1380  -28.8710   23.3440 C   0  0  0  0  0  0  0  0  0  0  0  0
  -18.9270  -30.1320   23.9410 C   0  0  0  0  0  3  0  0  0  0  0  0
  -17.6240  -30.6420   24.1070 C   0  0  0  0  0  3  0  0  0  0  0  0
  -16.5160  -29.8860   23.6880 C   0  0  0  0  0  3  0  0  0  0  0  0
  -16.7120  -28.6270   23.0950 C   0  0  0  0  0  3  0  0  0  0  0  0
  -25.8720  -32.5120   23.8790 C   0  0  0  0  0  3  0  0  0  0  0  0
  -26.3710  -31.7480   25.1660 C   0  0  1  0  0  0  0  0  0  0  0  0
  -25.2670  -31.5210   26.2250 C   0  0  0  0  0  1  0  0  0  0  0  0
  -26.9510  -30.3650   24.7890 C   0  0  0  0  0  1  0  0  0  0  0  0
  -27.5200  -32.5400   25.8340 C   0  0  0  0  0  1  0  0  0  0  0  0
  -25.5660  -33.9140   24.1970 N   0  0  0  0  0  0  0  0  0  0  0  0
  -25.9060  -34.9600   23.4340 C   0  0  0  0  0  0  0  0  0  0  0  0
  -26.5840  -34.8470   22.4070 O   0  0  0  0  0  0  0  0  0  0  0  0
  -24.9660  -34.0750   24.9930 H   0  0  0  0  0  0  0  0  0  0  0  0
  -24.1900  -36.7590   23.0510 C   0  0  0  0  0  1  0  0  0  0  0  0
  -25.4210  -36.3530   23.8780 C   0  0  0  0  0  3  0  0  0  0  0  0
  -27.5500  -37.2340   24.7270 C   0  0  0  0  0  1  0  0  0  0  0  0
  -26.4610  -37.4010   23.7690 N   0  0  0  0  0  0  0  0  0  0  0  0
  -26.0580  -38.3240   23.9030 H   0  0  0  0  0  0  0  0  0  0  0  0
  2  5  2  0
  2  4  1  0
  3  9  1  0
  3  1  2  0
  4  6  2  0
  5  3  1  0
  6  1  1  0
  6  8  1  0
  7  5  1  0
  9 10  2  0
 11 10  1  0
 12 17  1  0
 13 14  1  0
 13 12  1  0
 15 14  1  0
 15 22  1  0
 15 16  1  0
 17 11  1  0
 17 16  1  0
 18 11  2  0
 19 20  2  0
 20 39  1  0
 21 20  1  0
 21 24  1  0
 22 19  1  0
 22 23  1  0
 23 21  2  0
 24 25  1  0
 25 26  2  0
 27 30  1  0
 27 26  1  0
 28 27  2  0
 29 28  1  0
 29 24  2  0
 30 31  1  0
 31 32  1  0
 32 33  2  0
 34 33  1  0
 34 38  1  0
 35 34  2  0
 36 31  2  0
 36 35  1  0
 37 36  1  0
 39 40  1  0
 40 43  1  0
 40 42  1  0
 41 39  2  0
 44 45  1  0
 44 19  1  0
 46 44  1  0
 47 48  2  0
 47  4  1  0
 49 48  1  0
 49 50  1  0
 51 62  2  0
 52 50  1  0
 52 57  1  0
 53 61  1  0
 53 63  1  0
 54 60  1  0
 54 56  1  0
 55 61  1  0
 56 55  1  0
 57 56  2  0
 58 52  2  0
 59 58  1  0
 59 54  2  0
 60 53  1  0
 61 51  1  0
 63 65  2  0
 64 63  1  0
 66 64  1  0
 67 76  2  0
 67 72  1  0
 68 64  1  0
 68 72  1  0
 69 68  1  0
 70 71  1  0
 70 69  1  0
 71 67  1  0
 72 73  2  0
 73 74  1  0
 75 74  2  0
 76 75  1  0
 77 51  1  0
 77 82  1  0
 77 78  1  0
 78 81  1  1
 78 79  1  0
 80 78  1  0
 82 85  1  0
 83 87  1  0
 83 82  1  0
 84 83  2  0
 87 86  1  0
 89 87  1  0
 89 90  1  0
 89 88  1  0
M  ISO  4  10 100  11 100  49 101  50 101
M  END
>  <TORSDO>  (6) 
F 19

>  <SCORE>  (6) 
-14.500

>  <name>  (6) 
5

>  <ligand_id>  (6) 
5

>  <original_smiles>  (6) 
[H]C(C(=O)N1C([H])([H])C([H])([H])C([H])([H])C([H])(n2nc(-c3c([H])c([H])c(Oc4c([H])c([H])c(F)c([H])c4F)c([H])c3[H])c(C(=O)N([H])[H])c2N([H])[H])C1([H])[H])=C([H])c1c([H])c(C([H])([H])[H])c(C([H])=C([H])C([H])([H])Oc2c([H])c([H])c3c(c2[H])C([H])([H])N(C(=O)C([H])(N([H])C(=O)C([H])(N([H])C([H])([H])[H])C([H])([H])[H])C(C([H])([H])[H])(C([H])([H])[H])C([H])([H])[H])C([H])(C(=O)N([H])C2([H])c4c([H])c([H])c([H])c([H])c4C([H])([H])C([H])([H])C2([H])[H])C3([H])[H])c([H])c1C([H])([H])[H]

>  <smiles>  (6) 
[H]C(C(=O)N1C([H])([H])C([H])([H])C([H])([H])C([H])(n2nc(-c3c([H])c([H])c(Oc4c([H])c([H])c(F)c([H])c4F)c([H])c3[H])c(C(=O)N([H])[H])c2N([H])[H])C1([H])[H])=C([H])c1c([H])c(C([H])([H])[H])c(C([H])=C([H])C([H])([H])Oc2c([H])c([H])c3c(c2[H])C([H])([H])N(C(=O)C([H])(N([H])C(=O)C([H])(N([H])C([H])([H])[H])C([H])([H])[H])C(C([H])([H])[H])(C([H])([H])[H])C([H])([H])[H])C([H])(C(=O)N([H])C2([H])c4c([H])c([H])c([H])c([H])c4C([H])([H])C([H])([H])C2([H])[H])C3([H])[H])c([H])c1C([H])([H])[H]

$$$$
6:0:0
     RDKit          3D

 93101  0  0  1  0  0  0  0  0999 V2000
  -32.0530  -18.8690   21.7130 C   0  0  0  0  0  3  0  0  0  0  0  0
  -29.7450  -19.0240   20.9790 C   0  0  0  0  0  3  0  0  0  0  0  0
  -30.8670  -18.2250   21.3120 C   0  0  0  0  0  0  0  0  0  0  0  0
  -32.1920  -20.2650   21.6610 C   0  0  0  0  0  0  0  0  0  0  0  0
  -31.1040  -21.0610   21.2280 C   0  0  0  0  0  0  0  0  0  0  0  0
  -29.8470  -20.4450   20.9540 C   0  0  0  0  0  0  0  0  0  0  0  0
  -31.3220  -22.5480   20.9660 C   0  0  0  0  0  1  0  0  0  0  0  0
  -34.5100  -20.8070   20.7970 C   0  0  0  0  0  1  0  0  0  0  0  0
  -33.5600  -20.8420   22.0020 C   0  0  0  0  0  2  0  0  0  0  0  0
  -30.9940  -16.7570   21.1440 C   0  0  0  0  0  3  0  0  0  0  0  0
  -30.1260  -15.7600   20.8370 C   0  0  0  0  0  3  0  0  0  0  0  0
  -30.7380  -14.4790   20.4450 C   0  0  0  0  0  0  0  0  0  0  0  0
  -30.3120  -12.3220   19.3540 C   0  0  0  0  0  2  0  0  0  0  0  0
  -29.4050  -12.5570   18.1310 C   0  0  0  0  0  2  0  0  0  0  0  0
  -27.9280  -12.4450   18.5490 C   0  0  0  0  0  2  0  0  0  0  0  0
  -27.5930  -13.2920   19.8090 C   0  0  0  0  0  3  0  0  0  0  0  0
  -28.6460  -13.1170   20.9270 C   0  0  0  0  0  2  0  0  0  0  0  0
  -29.9730  -13.3560   20.3490 N   0  0  0  0  0  0  0  0  0  0  0  0
  -31.8910  -14.4760   20.0050 O   0  0  0  0  0  0  0  0  0  0  0  0
  -25.2020  -13.8990   20.5280 C   0  0  0  0  0  0  0  0  0  0  0  0
  -24.1310  -13.1300   20.8950 C   0  0  0  0  0  0  0  0  0  0  0  0
  -24.5870  -11.7760   20.8640 C   0  0  0  0  0  0  0  0  0  0  0  0
  -26.2430  -13.0140   20.2950 N   0  0  0  0  0  0  0  0  0  0  0  0
  -25.8780  -11.7330   20.5570 N   0  0  0  0  0  0  0  0  0  0  0  0
  -23.8540  -10.5170   21.0510 C   0  0  0  0  0  0  0  0  0  0  0  0
  -24.2780   -9.5470   21.9860 C   0  0  0  0  0  3  0  0  0  0  0  0
  -23.5450   -8.3530   22.1630 C   0  0  0  0  0  3  0  0  0  0  0  0
  -22.3720   -8.1220   21.4050 C   0  0  0  0  0  0  0  0  0  0  0  0
  -21.9670   -9.0810   20.4590 C   0  0  0  0  0  3  0  0  0  0  0  0
  -22.7010  -10.2650   20.2810 C   0  0  0  0  0  3  0  0  0  0  0  0
  -21.6110   -6.9810   21.4910 O   0  0  0  0  0  0  0  0  0  0  0  0
  -21.5530   -6.2390   22.6430 C   0  0  0  0  0  0  0  0  0  0  0  0
  -21.1260   -6.7960   23.8680 C   0  0  0  0  0  3  0  0  0  0  0  0
  -21.0160   -5.9800   25.0120 C   0  0  0  0  0  3  0  0  0  0  0  0
  -21.3220   -4.6090   24.9310 C   0  0  0  0  0  0  0  0  0  0  0  0
  -21.7410   -4.0510   23.7100 C   0  0  0  0  0  3  0  0  0  0  0  0
  -21.8540   -4.8640   22.5690 C   0  0  0  0  0  0  0  0  0  0  0  0
  -22.2370   -4.3160   21.3910 F   0  0  0  0  0  0  0  0  0  0  0  0
  -21.2090   -3.8230   26.0280 F   0  0  0  0  0  0  0  0  0  0  0  0
  -22.7360  -13.6150   21.1630 C   0  0  0  0  0  0  0  0  0  0  0  0
  -21.9990  -12.9190   22.0230 N   0  0  0  0  0  0  0  0  0  0  0  0
  -22.3060  -14.6450   20.6470 O   0  0  0  0  0  0  0  0  0  0  0  0
  -22.3600  -12.0870   22.4680 H   0  0  0  0  0  0  0  0  0  0  0  0
  -21.0610  -13.2220   22.2400 H   0  0  0  0  0  0  0  0  0  0  0  0
  -25.3750  -15.2680   20.3520 N   0  0  0  0  0  0  0  0  0  0  0  0
  -24.6170  -15.9310   20.4630 H   0  0  0  0  0  0  0  0  0  0  0  0
  -26.2350  -15.7000   20.0360 H   0  0  0  0  0  0  0  0  0  0  0  0
  -28.7390  -21.1780   20.5640 O   0  0  0  0  0  0  0  0  0  0  0  0
  -28.2770  -22.2080   21.4530 C   0  0  0  0  0  2  0  0  0  0  0  0
  -28.0410  -23.5620   20.7300 C   0  0  0  0  0  2  0  0  0  0  0  0
  -27.8190  -24.7620   21.6860 C   0  0  0  0  0  2  0  0  0  0  0  0
  -28.6970  -26.0140   21.4170 C   0  0  0  0  0  2  0  0  0  0  0  0
  -28.4230  -26.6890   20.1850 O   0  0  0  0  0  0  0  0  0  0  0  0
  -24.6060  -31.8860   23.2370 C   0  0  0  0  0  0  0  0  0  0  0  0
  -27.2820  -27.4510   20.1950 C   0  0  0  0  0  0  0  0  0  0  0  0
  -23.4170  -30.4740   21.5900 C   0  0  0  0  0  3  0  0  0  0  0  0
  -24.8870  -28.9390   20.1780 C   0  0  0  0  0  0  0  0  0  0  0  0
  -25.9410  -30.8460   21.4080 C   0  0  0  0  0  2  0  0  0  0  0  0
  -26.0370  -29.4730   20.7770 C   0  0  0  0  0  0  0  0  0  0  0  0
  -27.2420  -28.7340   20.7850 C   0  0  0  0  0  3  0  0  0  0  0  0
  -26.1240  -26.9320   19.5860 C   0  0  0  0  0  3  0  0  0  0  0  0
  -24.9240  -27.6670   19.5800 C   0  0  0  0  0  3  0  0  0  0  0  0
  -23.6390  -29.7910   20.2120 C   0  0  0  0  0  2  0  0  0  0  0  0
  -24.6720  -31.0830   22.1370 N   0  0  0  0  0  0  0  0  0  0  0  0
  -23.5200  -32.1540   23.7700 O   0  0  0  0  0  0  0  0  0  0  0  0
  -22.7650  -29.4510   22.5480 C   0  0  0  0  0  0  0  0  0  0  0  0
  -21.4420  -29.2690   22.4180 N   0  0  0  0  0  0  0  0  0  0  0  0
  -23.4470  -28.8240   23.3630 O   0  0  0  0  0  0  0  0  0  0  0  0
  -20.9560  -29.8280   21.7310 H   0  0  0  0  0  0  0  0  0  0  0  0
  -18.0600  -28.0980   22.9250 C   0  0  0  0  0  0  0  0  0  0  0  0
  -20.6220  -28.3300   23.1840 C   0  0  0  0  0  3  0  0  0  0  0  0
  -20.7080  -26.9040   22.5950 C   0  0  0  0  0  2  0  0  0  0  0  0
  -19.5970  -26.6000   21.5860 C   0  0  0  0  0  2  0  0  0  0  0  0
  -18.2200  -26.7530   22.2390 C   0  0  0  0  0  2  0  0  0  0  0  0
  -19.1880  -28.8460   23.3550 C   0  0  0  0  0  0  0  0  0  0  0  0
  -18.9860  -30.1090   23.9540 C   0  0  0  0  0  3  0  0  0  0  0  0
  -17.6870  -30.6200   24.1330 C   0  0  0  0  0  3  0  0  0  0  0  0
  -16.5730  -29.8680   23.7200 C   0  0  0  0  0  3  0  0  0  0  0  0
  -16.7610  -28.6100   23.1220 C   0  0  0  0  0  3  0  0  0  0  0  0
  -25.8850  -32.5240   23.8640 C   0  0  0  0  0  3  0  0  0  0  0  0
  -25.5700  -33.9230   24.1850 N   0  0  0  0  0  0  0  0  0  0  0  0
  -25.9100  -34.9720   23.4250 C   0  0  0  0  0  0  0  0  0  0  0  0
  -26.5970  -34.8660   22.4050 O   0  0  0  0  0  0  0  0  0  0  0  0
  -24.9670  -34.0780   24.9790 H   0  0  0  0  0  0  0  0  0  0  0  0
  -24.1930  -36.7630   23.0220 C   0  0  0  0  0  1  0  0  0  0  0  0
  -25.4110  -36.3610   23.8670 C   0  0  0  0  0  3  0  0  0  0  0  0
  -27.5240  -37.2450   24.7550 C   0  0  0  0  0  1  0  0  0  0  0  0
  -26.4470  -37.4130   23.7810 N   0  0  0  0  0  0  0  0  0  0  0  0
  -26.0380  -38.3340   23.9190 H   0  0  0  0  0  0  0  0  0  0  0  0
  -26.3980  -31.7580   25.1450 C   0  0  1  0  0  0  0  0  0  0  0  0
  -25.3000  -31.5130   26.2080 C   0  0  0  0  0  1  0  0  0  0  0  0
  -26.9940  -30.3840   24.7580 C   0  0  0  0  0  1  0  0  0  0  0  0
  -27.5410  -32.5610   25.8120 C   0  0  0  0  0  1  0  0  0  0  0  0
  2  3  1  0
  3  1  2  0
  4  1  1  0
  4  9  1  0
  5  4  2  0
  6  2  2  0
  6  5  1  0
  7  5  1  0
  8  9  1  0
 10  3  1  0
 11 10  2  0
 12 11  1  0
 13 18  1  0
 14 15  1  0
 14 13  1  0
 16 15  1  0
 16 23  1  0
 16 17  1  0
 18 12  1  0
 18 17  1  0
 19 12  2  0
 20 21  2  0
 21 40  1  0
 22 21  1  0
 22 25  1  0
 23 20  1  0
 23 24  1  0
 24 22  2  0
 25 26  1  0
 26 27  2  0
 28 31  1  0
 28 27  1  0
 29 28  2  0
 30 29  1  0
 30 25  2  0
 31 32  1  0
 32 33  1  0
 33 34  2  0
 35 34  1  0
 35 39  1  0
 36 35  2  0
 37 32  2  0
 37 36  1  0
 38 37  1  0
 40 41  1  0
 41 44  1  0
 41 43  1  0
 42 40  2  0
 45 46  1  0
 45 20  1  0
 47 45  1  0
 48  6  1  0
 48 49  1  0
 50 49  1  0
 50 51  1  0
 52 51  1  0
 53 55  1  0
 53 52  1  0
 54 65  2  0
 55 60  1  0
 56 64  1  0
 56 66  1  0
 57 63  1  0
 57 59  1  0
 58 64  1  0
 59 60  2  0
 59 58  1  0
 61 55  2  0
 62 61  1  0
 62 57  2  0
 63 56  1  0
 64 54  1  0
 66 68  2  0
 67 66  1  0
 69 67  1  0
 70 79  2  0
 70 75  1  0
 71 67  1  0
 71 75  1  0
 72 71  1  0
 73 74  1  0
 73 72  1  0
 74 70  1  0
 75 76  2  0
 76 77  1  0
 78 77  2  0
 79 78  1  0
 80 54  1  0
 80 81  1  0
 80 90  1  0
 81 84  1  0
 82 86  1  0
 82 81  1  0
 83 82  2  0
 86 85  1  0
 88 86  1  0
 88 89  1  0
 88 87  1  0
 90 93  1  1
 90 91  1  0
 92 90  1  0
M  ISO  4  11 100  12 100  52 101  53 101
M  END
>  <TORSDO>  (7) 
F 23

>  <SCORE>  (7) 
-13.251

>  <name>  (7) 
6

>  <ligand_id>  (7) 
6

>  <original_smiles>  (7) 
[H]C(C(=O)N1C([H])([H])C([H])([H])C([H])([H])C([H])(n2nc(-c3c([H])c([H])c(Oc4c([H])c([H])c(F)c([H])c4F)c([H])c3[H])c(C(=O)N([H])[H])c2N([H])[H])C1([H])[H])=C([H])c1c([H])c(OC([H])([H])C([H])([H])C([H])([H])C([H])([H])Oc2c([H])c([H])c3c(c2[H])C([H])([H])N(C(=O)C([H])(N([H])C(=O)C([H])(N([H])C([H])([H])[H])C([H])([H])[H])C(C([H])([H])[H])(C([H])([H])[H])C([H])([H])[H])C([H])(C(=O)N([H])C2([H])c4c([H])c([H])c([H])c([H])c4C([H])([H])C([H])([H])C2([H])[H])C3([H])[H])c(C([H])([H])[H])c(C([H])([H])C([H])([H])[H])c1[H]

>  <smiles>  (7) 
[H]C(C(=O)N1C([H])([H])C([H])([H])C([H])([H])C([H])(n2nc(-c3c([H])c([H])c(Oc4c([H])c([H])c(F)c([H])c4F)c([H])c3[H])c(C(=O)N([H])[H])c2N([H])[H])C1([H])[H])=C([H])c1c([H])c(OC([H])([H])C([H])([H])C([H])([H])C([H])([H])Oc2c([H])c([H])c3c(c2[H])C([H])([H])N(C(=O)C([H])(N([H])C(=O)C([H])(N([H])C([H])([H])[H])C([H])([H])[H])C(C([H])([H])[H])(C([H])([H])[H])C([H])([H])[H])C([H])(C(=O)N([H])C2([H])c4c([H])c([H])c([H])c([H])c4C([H])([H])C([H])([H])C2([H])[H])C3([H])[H])c(C([H])([H])[H])c(C([H])([H])C([H])([H])[H])c1[H]

$$$$
7:0:0
     RDKit          3D

 92100  0  0  1  0  0  0  0  0999 V2000
  -30.6230  -21.1810   20.7760 C   0  0  0  0  0  3  0  0  0  0  0  0
  -29.7910  -22.0580   21.3750 C   0  0  0  0  0  3  0  0  0  0  0  0
  -29.8100  -19.0280   21.7980 C   0  0  0  0  0  3  0  0  0  0  0  0
  -29.7130  -17.6210   21.8160 C   0  0  0  0  0  3  0  0  0  0  0  0
  -30.9480  -17.5200   19.7310 C   0  0  0  0  0  3  0  0  0  0  0  0
  -30.4970  -19.7040   20.7630 C   0  0  0  0  0  0  0  0  0  0  0  0
  -31.0490  -18.9300   19.7100 C   0  0  0  0  0  0  0  0  0  0  0  0
  -30.2940  -16.8470   20.7920 C   0  0  0  0  0  0  0  0  0  0  0  0
  -31.7570  -19.5880   18.5350 C   0  0  0  0  0  1  0  0  0  0  0  0
  -30.7660  -14.4750   20.1370 C   0  0  0  0  0  0  0  0  0  0  0  0
  -30.3780  -12.3810   18.9020 C   0  0  0  0  0  2  0  0  0  0  0  0
  -29.3670  -12.6590   17.7710 C   0  0  0  0  0  2  0  0  0  0  0  0
  -27.9190  -12.5100   18.2810 C   0  0  0  0  0  2  0  0  0  0  0  0
  -27.6680  -13.2810   19.6040 C   0  0  0  0  0  3  0  0  0  0  0  0
  -28.7860  -12.9890   20.6320 C   0  0  0  0  0  2  0  0  0  0  0  0
  -30.0810  -13.3070   20.0050 N   0  0  0  0  0  0  0  0  0  0  0  0
  -31.8490  -14.6780   19.5800 O   0  0  0  0  0  0  0  0  0  0  0  0
  -30.1380  -15.4270   20.8530 N   0  0  0  0  0  0  0  0  0  0  0  0
  -29.3580  -15.0930   21.3980 H   0  0  0  0  0  0  0  0  0  0  0  0
  -25.3050  -13.8580   20.4520 C   0  0  0  0  0  0  0  0  0  0  0  0
  -24.2620  -13.0700   20.8610 C   0  0  0  0  0  0  0  0  0  0  0  0
  -24.7290  -11.7220   20.7760 C   0  0  0  0  0  0  0  0  0  0  0  0
  -26.3420  -12.9880   20.1480 N   0  0  0  0  0  0  0  0  0  0  0  0
  -26.0010  -11.6990   20.3980 N   0  0  0  0  0  0  0  0  0  0  0  0
  -24.0210  -10.4520   20.9780 C   0  0  0  0  0  0  0  0  0  0  0  0
  -24.4770   -9.4930   21.9100 C   0  0  0  0  0  3  0  0  0  0  0  0
  -23.7710   -8.2860   22.1000 C   0  0  0  0  0  3  0  0  0  0  0  0
  -22.5940   -8.0290   21.3590 C   0  0  0  0  0  0  0  0  0  0  0  0
  -22.1560   -8.9760   20.4160 C   0  0  0  0  0  3  0  0  0  0  0  0
  -22.8630  -10.1750   20.2240 C   0  0  0  0  0  3  0  0  0  0  0  0
  -21.8560   -6.8740   21.4580 O   0  0  0  0  0  0  0  0  0  0  0  0
  -21.7830   -6.1660   22.6320 C   0  0  0  0  0  0  0  0  0  0  0  0
  -21.2990   -6.7470   23.8240 C   0  0  0  0  0  3  0  0  0  0  0  0
  -21.1730   -5.9650   24.9880 C   0  0  0  0  0  3  0  0  0  0  0  0
  -21.5210   -4.6010   24.9620 C   0  0  0  0  0  0  0  0  0  0  0  0
  -21.9970   -4.0190   23.7740 C   0  0  0  0  0  3  0  0  0  0  0  0
  -22.1240   -4.7990   22.6120 C   0  0  0  0  0  0  0  0  0  0  0  0
  -22.5640   -4.2270   21.4650 F   0  0  0  0  0  0  0  0  0  0  0  0
  -21.3940   -3.8460   26.0790 F   0  0  0  0  0  0  0  0  0  0  0  0
  -22.8800  -13.5320   21.2210 C   0  0  0  0  0  0  0  0  0  0  0  0
  -22.2050  -12.8120   22.1100 N   0  0  0  0  0  0  0  0  0  0  0  0
  -22.4070  -14.5650   20.7480 O   0  0  0  0  0  0  0  0  0  0  0  0
  -22.6000  -11.9750   22.5130 H   0  0  0  0  0  0  0  0  0  0  0  0
  -21.2790  -13.1020   22.3920 H   0  0  0  0  0  0  0  0  0  0  0  0
  -25.4510  -15.2320   20.2950 N   0  0  0  0  0  0  0  0  0  0  0  0
  -24.6870  -15.8780   20.4620 H   0  0  0  0  0  0  0  0  0  0  0  0
  -26.2840  -15.6870   19.9400 H   0  0  0  0  0  0  0  0  0  0  0  0
  -30.0390  -23.5610   21.4600 C   0  0  0  0  0  2  0  0  0  0  0  0
  -29.1250  -24.4050   20.5610 C   0  0  0  0  0  0  0  0  0  0  0  0
  -28.8360  -24.0490   19.4140 O   0  0  0  0  0  0  0  0  0  0  0  0
  -28.6010  -25.7220   21.1560 C   0  0  0  0  0  2  0  0  0  0  0  0
  -28.5570  -26.7580   20.1690 O   0  0  0  0  0  0  0  0  0  0  0  0
  -24.6710  -31.8850   23.2330 C   0  0  0  0  0  0  0  0  0  0  0  0
  -27.3890  -27.4760   20.1900 C   0  0  0  0  0  0  0  0  0  0  0  0
  -23.4900  -30.4550   21.5930 C   0  0  0  0  0  3  0  0  0  0  0  0
  -24.9710  -28.9270   20.1870 C   0  0  0  0  0  0  0  0  0  0  0  0
  -26.0090  -30.8520   21.4010 C   0  0  0  0  0  2  0  0  0  0  0  0
  -26.1180  -29.4790   20.7740 C   0  0  0  0  0  0  0  0  0  0  0  0
  -27.3320  -28.7600   20.7740 C   0  0  0  0  0  3  0  0  0  0  0  0
  -26.2320  -26.9290   19.6020 C   0  0  0  0  0  3  0  0  0  0  0  0
  -25.0220  -27.6490   19.5990 C   0  0  0  0  0  3  0  0  0  0  0  0
  -23.7150  -29.7670   20.2210 C   0  0  0  0  0  2  0  0  0  0  0  0
  -24.7410  -31.0800   22.1340 N   0  0  0  0  0  0  0  0  0  0  0  0
  -23.5850  -32.1450   23.7680 O   0  0  0  0  0  0  0  0  0  0  0  0
  -22.8490  -29.4320   22.5580 C   0  0  0  0  0  0  0  0  0  0  0  0
  -21.5260  -29.2410   22.4370 N   0  0  0  0  0  0  0  0  0  0  0  0
  -23.5400  -28.8110   23.3710 O   0  0  0  0  0  0  0  0  0  0  0  0
  -21.0310  -29.7930   21.7500 H   0  0  0  0  0  0  0  0  0  0  0  0
  -18.1580  -28.0440   22.9560 C   0  0  0  0  0  0  0  0  0  0  0  0
  -20.7170  -28.3020   23.2110 C   0  0  0  0  0  3  0  0  0  0  0  0
  -20.8150  -26.8720   22.6310 C   0  0  0  0  0  2  0  0  0  0  0  0
  -19.7070  -26.5530   21.6220 C   0  0  0  0  0  2  0  0  0  0  0  0
  -18.3290  -26.6970   22.2740 C   0  0  0  0  0  2  0  0  0  0  0  0
  -19.2790  -28.8050   23.3810 C   0  0  0  0  0  0  0  0  0  0  0  0
  -19.0650  -30.0670   23.9740 C   0  0  0  0  0  3  0  0  0  0  0  0
  -17.7610  -30.5690   24.1490 C   0  0  0  0  0  3  0  0  0  0  0  0
  -16.6540  -29.8040   23.7430 C   0  0  0  0  0  3  0  0  0  0  0  0
  -16.8530  -28.5450   23.1510 C   0  0  0  0  0  3  0  0  0  0  0  0
  -25.9480  -32.5350   23.8530 C   0  0  0  0  0  3  0  0  0  0  0  0
  -26.4780  -31.7720   25.1280 C   0  0  1  0  0  0  0  0  0  0  0  0
  -25.3910  -31.5180   26.1970 C   0  0  0  0  0  1  0  0  0  0  0  0
  -27.0800  -30.4030   24.7320 C   0  0  0  0  0  1  0  0  0  0  0  0
  -27.6180  -32.5830   25.7880 C   0  0  0  0  0  1  0  0  0  0  0  0
  -25.6200  -33.9280   24.1790 N   0  0  0  0  0  0  0  0  0  0  0  0
  -25.9380  -34.9830   23.4160 C   0  0  0  0  0  0  0  0  0  0  0  0
  -26.6090  -34.8860   22.3850 O   0  0  0  0  0  0  0  0  0  0  0  0
  -25.0250  -34.0770   24.9810 H   0  0  0  0  0  0  0  0  0  0  0  0
  -24.1840  -36.7470   23.0510 C   0  0  0  0  0  1  0  0  0  0  0  0
  -25.4280  -36.3640   23.8680 C   0  0  0  0  0  3  0  0  0  0  0  0
  -27.5460  -37.2820   24.7050 C   0  0  0  0  0  1  0  0  0  0  0  0
  -26.4450  -37.4330   23.7570 N   0  0  0  0  0  0  0  0  0  0  0  0
  -26.0250  -38.3480   23.9030 H   0  0  0  0  0  0  0  0  0  0  0  0
  1  2  2  0
  2 48  1  0
  3  4  1  0
  5  8  1  0
  6  1  1  0
  6  3  2  0
  7  5  2  0
  7  6  1  0
  8 18  1  0
  8  4  2  0
  9  7  1  0
 10 18  1  0
 11 16  1  0
 12 13  1  0
 12 11  1  0
 14 13  1  0
 14 23  1  0
 14 15  1  0
 16 10  1  0
 16 15  1  0
 17 10  2  0
 18 19  1  0
 20 21  2  0
 21 40  1  0
 22 21  1  0
 22 25  1  0
 23 24  1  0
 23 20  1  0
 24 22  2  0
 25 26  1  0
 26 27  2  0
 28 31  1  0
 28 27  1  0
 29 28  2  0
 30 29  1  0
 30 25  2  0
 31 32  1  0
 32 33  1  0
 33 34  2  0
 35 34  1  0
 35 39  1  0
 36 35  2  0
 37 32  2  0
 37 36  1  0
 38 37  1  0
 40 41  1  0
 41 44  1  0
 41 43  1  0
 42 40  2  0
 45 20  1  0
 45 46  1  0
 47 45  1  0
 49 51  1  0
 49 48  1  0
 50 49  2  0
 52 54  1  0
 52 51  1  0
 53 64  2  0
 54 59  1  0
 55 63  1  0
 55 65  1  0
 56 62  1  0
 56 58  1  0
 57 63  1  0
 58 57  1  0
 59 58  2  0
 60 54  2  0
 61 60  1  0
 61 56  2  0
 62 55  1  0
 63 53  1  0
 65 67  2  0
 66 65  1  0
 68 66  1  0
 69 78  2  0
 69 74  1  0
 70 66  1  0
 70 74  1  0
 71 70  1  0
 72 73  1  0
 72 71  1  0
 73 69  1  0
 74 75  2  0
 75 76  1  0
 77 76  2  0
 78 77  1  0
 79 53  1  0
 79 84  1  0
 79 80  1  0
 80 83  1  1
 80 81  1  0
 82 80  1  0
 84 87  1  0
 85 89  1  0
 85 84  1  0
 86 85  2  0
 89 88  1  0
 91 89  1  0
 91 92  1  0
 91 90  1  0
M  ISO  4  10 100  18 100  51 101  52 101
M  END
>  <TORSDO>  (8) 
F 20

>  <SCORE>  (8) 
-13.054

>  <name>  (8) 
7

>  <ligand_id>  (8) 
7

>  <original_smiles>  (8) 
[H]C(=C([H])C([H])([H])C(=O)C([H])([H])Oc1c([H])c([H])c2c(c1[H])C([H])([H])N(C(=O)C([H])(N([H])C(=O)C([H])(N([H])C([H])([H])[H])C([H])([H])[H])C(C([H])([H])[H])(C([H])([H])[H])C([H])([H])[H])C([H])(C(=O)N([H])C1([H])c3c([H])c([H])c([H])c([H])c3C([H])([H])C([H])([H])C1([H])[H])C2([H])[H])c1c([H])c([H])c(N([H])C(=O)N2C([H])([H])C([H])([H])C([H])([H])C([H])(n3nc(-c4c([H])c([H])c(Oc5c([H])c([H])c(F)c([H])c5F)c([H])c4[H])c(C(=O)N([H])[H])c3N([H])[H])C2([H])[H])c([H])c1C([H])([H])[H]

>  <smiles>  (8) 
[H]C(=C([H])C([H])([H])C(=O)C([H])([H])Oc1c([H])c([H])c2c(c1[H])C([H])([H])N(C(=O)C([H])(N([H])C(=O)C([H])(N([H])C([H])([H])[H])C([H])([H])[H])C(C([H])([H])[H])(C([H])([H])[H])C([H])([H])[H])C([H])(C(=O)N([H])C1([H])c3c([H])c([H])c([H])c([H])c3C([H])([H])C([H])([H])C1([H])[H])C2([H])[H])c1c([H])c([H])c(N([H])C(=O)N2C([H])([H])C([H])([H])C([H])([H])C([H])(n3nc(-c4c([H])c([H])c(Oc5c([H])c([H])c(F)c([H])c5F)c([H])c4[H])c(C(=O)N([H])[H])c3N([H])[H])C2([H])[H])c([H])c1C([H])([H])[H]

$$$$
8:0:0
     RDKit          3D

 92101  0  0  1  0  0  0  0  0999 V2000
  -30.0420  -21.1060   23.5580 C   0  0  0  0  0  2  0  0  0  0  0  0
  -28.9730  -21.7070   22.6220 C   0  0  0  0  0  2  0  0  0  0  0  0
  -30.9910  -20.2880   22.6750 C   0  0  0  0  0  2  0  0  0  0  0  0
  -29.3850  -21.3360   21.1840 C   0  0  0  0  0  3  0  0  0  0  0  0
  -30.3030  -20.1480   21.3990 N   0  0  0  0  0  0  0  0  0  0  0  0
  -30.2710  -17.9030   18.4450 C   0  0  0  0  0  3  0  0  0  0  0  0
  -30.1000  -19.0030   19.2920 C   0  0  0  0  0  3  0  0  0  0  0  0
  -30.6690  -17.5590   21.1720 C   0  0  0  0  0  3  0  0  0  0  0  0
  -30.7920  -16.3670   20.3330 C   0  0  0  0  0  0  0  0  0  0  0  0
  -30.6760  -16.6450   18.9360 C   0  0  0  0  0  0  0  0  0  0  0  0
  -30.3430  -18.8950   20.6680 C   0  0  0  0  0  0  0  0  0  0  0  0
  -31.1360  -15.6650   17.8800 C   0  0  0  0  0  1  0  0  0  0  0  0
  -31.3660  -14.9680   20.7860 C   0  0  0  0  0  0  0  0  0  0  0  0
  -31.1510  -12.5880   19.9870 C   0  0  0  0  0  2  0  0  0  0  0  0
  -30.3340  -12.3590   18.6940 C   0  0  0  0  0  2  0  0  0  0  0  0
  -28.8140  -12.3890   18.9490 C   0  0  0  0  0  2  0  0  0  0  0  0
  -28.3500  -13.4480   19.9900 C   0  0  0  0  0  3  0  0  0  0  0  0
  -29.2940  -13.5410   21.2020 C   0  0  0  0  0  2  0  0  0  0  0  0
  -30.6500  -13.7840   20.7100 N   0  0  0  0  0  0  0  0  0  0  0  0
  -32.5950  -14.9080   20.7930 O   0  0  0  0  0  0  0  0  0  0  0  0
  -25.9570  -14.1760   20.5500 C   0  0  0  0  0  0  0  0  0  0  0  0
  -24.8250  -13.4670   20.8340 C   0  0  0  0  0  0  0  0  0  0  0  0
  -25.2110  -12.0900   20.8500 C   0  0  0  0  0  0  0  0  0  0  0  0
  -26.9650  -13.2390   20.4010 N   0  0  0  0  0  0  0  0  0  0  0  0
  -26.5180  -11.9830   20.6520 N   0  0  0  0  0  0  0  0  0  0  0  0
  -24.4060  -10.8720   20.9780 C   0  0  0  0  0  0  0  0  0  0  0  0
  -24.7290   -9.8620   21.9130 C   0  0  0  0  0  3  0  0  0  0  0  0
  -23.9180   -8.7110   22.0330 C   0  0  0  0  0  3  0  0  0  0  0  0
  -22.7710   -8.5620   21.2170 C   0  0  0  0  0  0  0  0  0  0  0  0
  -22.4660   -9.5590   20.2730 C   0  0  0  0  0  3  0  0  0  0  0  0
  -23.2780  -10.7010   20.1520 C   0  0  0  0  0  3  0  0  0  0  0  0
  -21.9410   -7.4680   21.2500 O   0  0  0  0  0  0  0  0  0  0  0  0
  -21.8190   -6.6960   22.3770 C   0  0  0  0  0  0  0  0  0  0  0  0
  -21.3950   -7.2370   23.6120 C   0  0  0  0  0  3  0  0  0  0  0  0
  -21.2190   -6.3940   24.7260 C   0  0  0  0  0  3  0  0  0  0  0  0
  -21.4520   -5.0100   24.6070 C   0  0  0  0  0  0  0  0  0  0  0  0
  -21.8700   -4.4690   23.3780 C   0  0  0  0  0  3  0  0  0  0  0  0
  -22.0500   -5.3080   22.2660 C   0  0  0  0  0  0  0  0  0  0  0  0
  -22.4350   -4.7800   21.0780 F   0  0  0  0  0  0  0  0  0  0  0  0
  -21.2710   -4.1970   25.6740 F   0  0  0  0  0  0  0  0  0  0  0  0
  -23.4350  -14.0240   20.9700 C   0  0  0  0  0  0  0  0  0  0  0  0
  -22.5870  -13.3970   21.7740 N   0  0  0  0  0  0  0  0  0  0  0  0
  -23.1130  -15.0600   20.3910 O   0  0  0  0  0  0  0  0  0  0  0  0
  -22.8510  -12.5730   22.2970 H   0  0  0  0  0  0  0  0  0  0  0  0
  -21.6510  -13.7630   21.8750 H   0  0  0  0  0  0  0  0  0  0  0  0
  -26.2040  -15.5350   20.3750 N   0  0  0  0  0  0  0  0  0  0  0  0
  -25.4420  -16.2020   20.3630 H   0  0  0  0  0  0  0  0  0  0  0  0
  -27.1050  -15.9550   20.1950 H   0  0  0  0  0  0  0  0  0  0  0  0
  -29.9460  -22.6780   20.4900 C   0  0  0  0  0  2  0  0  0  0  0  0
  -28.9440  -23.8930   20.0820 C   0  0  0  0  0  2  0  0  0  0  0  0
  -29.0710  -25.3530   20.7560 C   0  0  0  0  0  2  0  0  0  0  0  0
  -28.8140  -26.6460   20.0580 O   0  0  0  0  0  0  0  0  0  0  0  0
  -24.7040  -31.7680   23.1830 C   0  0  0  0  0  0  0  0  0  0  0  0
  -27.6180  -27.3790   20.1470 C   0  0  0  0  0  0  0  0  0  0  0  0
  -23.6240  -30.3730   21.4560 C   0  0  0  0  0  3  0  0  0  0  0  0
  -25.1930  -28.9030   20.0620 C   0  0  0  0  0  0  0  0  0  0  0  0
  -26.1560  -30.7880   21.3890 C   0  0  0  0  0  2  0  0  0  0  0  0
  -26.3150  -29.4250   20.7200 C   0  0  0  0  0  0  0  0  0  0  0  0
  -27.5340  -28.6810   20.7360 C   0  0  0  0  0  3  0  0  0  0  0  0
  -26.4670  -26.8940   19.4930 C   0  0  0  0  0  3  0  0  0  0  0  0
  -25.2720  -27.6460   19.4370 C   0  0  0  0  0  3  0  0  0  0  0  0
  -23.9240  -29.7360   20.0720 C   0  0  0  0  0  2  0  0  0  0  0  0
  -24.8450  -30.9940   22.0670 N   0  0  0  0  0  0  0  0  0  0  0  0
  -23.5880  -31.9990   23.6740 O   0  0  0  0  0  0  0  0  0  0  0  0
  -22.9590  -29.3120   22.3670 C   0  0  0  0  0  0  0  0  0  0  0  0
  -21.6380  -29.1260   22.2070 N   0  0  0  0  0  0  0  0  0  0  0  0
  -23.6310  -28.6570   23.1680 O   0  0  0  0  0  0  0  0  0  0  0  0
  -21.1560  -29.7090   21.5370 H   0  0  0  0  0  0  0  0  0  0  0  0
  -18.2540  -27.9080   22.6330 C   0  0  0  0  0  0  0  0  0  0  0  0
  -20.8130  -28.1470   22.9200 C   0  0  0  0  0  3  0  0  0  0  0  0
  -20.9130  -26.7510   22.2630 C   0  0  0  0  0  2  0  0  0  0  0  0
  -19.8130  -26.4920   21.2280 C   0  0  0  0  0  2  0  0  0  0  0  0
  -18.4300  -26.6010   21.8790 C   0  0  0  0  0  2  0  0  0  0  0  0
  -19.3740  -28.6430   23.1070 C   0  0  0  0  0  0  0  0  0  0  0  0
  -19.1580  -29.8690   23.7740 C   0  0  0  0  0  3  0  0  0  0  0  0
  -17.8540  -30.3610   23.9660 C   0  0  0  0  0  3  0  0  0  0  0  0
  -16.7490  -29.6220   23.5100 C   0  0  0  0  0  3  0  0  0  0  0  0
  -16.9500  -28.3960   22.8510 C   0  0  0  0  0  3  0  0  0  0  0  0
  -25.9360  -32.4280   23.8820 C   0  0  0  0  0  3  0  0  0  0  0  0
  -26.4260  -31.6390   25.1580 C   0  0  1  0  0  0  0  0  0  0  0  0
  -25.3030  -31.3380   26.1760 C   0  0  0  0  0  1  0  0  0  0  0  0
  -27.0660  -30.2930   24.7520 C   0  0  0  0  0  1  0  0  0  0  0  0
  -27.5290  -32.4470   25.8810 C   0  0  0  0  0  1  0  0  0  0  0  0
  -25.5640  -33.8070   24.2370 N   0  0  0  0  0  0  0  0  0  0  0  0
  -25.8940  -34.8920   23.5240 C   0  0  0  0  0  0  0  0  0  0  0  0
  -26.6150  -34.8410   22.5250 O   0  0  0  0  0  0  0  0  0  0  0  0
  -24.9330  -33.9180   25.0150 H   0  0  0  0  0  0  0  0  0  0  0  0
  -24.1270  -36.6360   23.1400 C   0  0  0  0  0  1  0  0  0  0  0  0
  -25.3410  -36.2500   23.9980 C   0  0  0  0  0  3  0  0  0  0  0  0
  -27.4040  -37.1750   24.9570 C   0  0  0  0  0  1  0  0  0  0  0  0
  -26.3440  -37.3380   23.9650 N   0  0  0  0  0  0  0  0  0  0  0  0
  -25.9010  -38.2390   24.1210 H   0  0  0  0  0  0  0  0  0  0  0  0
  2  1  1  0
  3  1  1  0
  4 49  1  0
  4  5  1  0
  4  2  1  0
  5  3  1  0
  6 10  2  0
  6  7  1  0
  7 11  2  0
  9 13  1  0
  9  8  2  0
 10  9  1  0
 11  8  1  0
 11  5  1  0
 12 10  1  0
 13 20  2  0
 14 19  1  0
 15 16  1  0
 15 14  1  0
 17 16  1  0
 17 24  1  0
 17 18  1  0
 19 13  1  0
 19 18  1  0
 21 22  2  0
 22 23  1  0
 22 41  1  0
 23 26  1  0
 24 21  1  0
 24 25  1  0
 25 23  2  0
 26 27  1  0
 27 28  2  0
 29 32  1  0
 29 28  1  0
 30 29  2  0
 31 30  1  0
 31 26  2  0
 32 33  1  0
 33 34  1  0
 34 35  2  0
 36 35  1  0
 36 40  1  0
 37 36  2  0
 38 33  2  0
 38 37  1  0
 39 38  1  0
 41 42  1  0
 42 45  1  0
 42 44  1  0
 43 41  2  0
 46 21  1  0
 47 46  1  0
 48 46  1  0
 50 49  1  0
 50 51  1  0
 52 54  1  0
 52 51  1  0
 53 64  2  0
 54 59  1  0
 55 63  1  0
 55 65  1  0
 56 62  1  0
 56 58  1  0
 57 63  1  0
 58 59  2  0
 58 57  1  0
 60 54  2  0
 61 60  1  0
 61 56  2  0
 62 55  1  0
 63 53  1  0
 65 67  2  0
 66 65  1  0
 68 66  1  0
 69 78  2  0
 69 74  1  0
 70 66  1  0
 70 74  1  0
 71 70  1  0
 72 73  1  0
 72 71  1  0
 73 69  1  0
 74 75  2  0
 75 76  1  0
 77 76  2  0
 78 77  1  0
 79 53  1  0
 79 84  1  0
 79 80  1  0
 80 83  1  1
 80 81  1  0
 82 80  1  0
 84 87  1  0
 85 89  1  0
 85 84  1  0
 86 85  2  0
 89 88  1  0
 91 89  1  0
 91 92  1  0
 91 90  1  0
M  ISO  4   9 100  13 100  51 101  52 101
M  END
>  <TORSDO>  (9) 
F 20

>  <SCORE>  (9) 
-12.705

>  <name>  (9) 
8

>  <ligand_id>  (9) 
8

>  <original_smiles>  (9) 
[H]c1c([H])c([H])c2c(c1[H])C([H])([H])C([H])([H])C([H])([H])C2([H])N([H])C(=O)C1([H])N(C(=O)C([H])(N([H])C(=O)C([H])(N([H])C([H])([H])[H])C([H])([H])[H])C(C([H])([H])[H])(C([H])([H])[H])C([H])([H])[H])C([H])([H])c2c([H])c(OC([H])([H])C([H])([H])C([H])([H])C3([H])N(c4c([H])c([H])c(C([H])([H])[H])c(C(=O)N5C([H])([H])C([H])([H])C([H])([H])C([H])(n6nc(-c7c([H])c([H])c(Oc8c([H])c([H])c(F)c([H])c8F)c([H])c7[H])c(C(=O)N([H])[H])c6N([H])[H])C5([H])[H])c4[H])C([H])([H])C([H])([H])C3([H])[H])c([H])c([H])c2C1([H])[H]

>  <smiles>  (9) 
[H]c1c([H])c([H])c2c(c1[H])C([H])([H])C([H])([H])C([H])([H])C2([H])N([H])C(=O)C1([H])N(C(=O)C([H])(N([H])C(=O)C([H])(N([H])C([H])([H])[H])C([H])([H])[H])C(C([H])([H])[H])(C([H])([H])[H])C([H])([H])[H])C([H])([H])c2c([H])c(OC([H])([H])C([H])([H])C([H])([H])C3([H])N(c4c([H])c([H])c(C([H])([H])[H])c(C(=O)N5C([H])([H])C([H])([H])C([H])([H])C([H])(n6nc(-c7c([H])c([H])c(Oc8c([H])c([H])c(F)c([H])c8F)c([H])c7[H])c(C(=O)N([H])[H])c6N([H])[H])C5([H])[H])c4[H])C([H])([H])C([H])([H])C3([H])[H])c([H])c([H])c2C1([H])[H]

$$$$
9:0:0
     RDKit          3D

 94102  0  0  1  0  0  0  0  0999 V2000
  -32.0030  -17.5900   19.3370 C   0  0  0  0  0  3  0  0  0  0  0  0
  -29.5090  -18.6490   20.0110 C   0  0  0  0  0  3  0  0  0  0  0  0
  -31.0770  -16.7310   19.9820 C   0  0  0  0  0  0  0  0  0  0  0  0
  -29.8100  -17.3010   20.3330 C   0  0  0  0  0  0  0  0  0  0  0  0
  -30.4490  -19.4840   19.3650 C   0  0  0  0  0  0  0  0  0  0  0  0
  -31.6990  -18.9300   19.0330 C   0  0  0  0  0  0  0  0  0  0  0  0
  -32.6350  -19.7010   18.4260 F   0  0  0  0  0  0  0  0  0  0  0  0
  -31.4830  -15.3170   20.3340 C   0  0  0  0  0  0  0  0  0  0  0  0
  -31.7050  -14.9710   21.5340 N   0  0  0  0  0  0  0  0  0  0  0  0
  -31.5550  -15.7500   22.1620 H   0  0  0  0  0  0  0  0  0  0  0  0
  -31.6440  -14.3230   19.1730 C   0  0  0  0  0  0  0  0  0  0  0  0
  -30.9040  -12.2730   18.0150 C   0  0  0  0  0  2  0  0  0  0  0  0
  -29.7570  -12.5790   17.0320 C   0  0  0  0  0  2  0  0  0  0  0  0
  -28.3970  -12.5000   17.7500 C   0  0  0  0  0  2  0  0  0  0  0  0
  -28.3780  -13.3180   19.0680 C   0  0  0  0  0  3  0  0  0  0  0  0
  -29.6110  -12.9880   19.9360 C   0  0  0  0  0  2  0  0  0  0  0  0
  -30.8270  -13.2280   19.1340 N   0  0  0  0  0  0  0  0  0  0  0  0
  -32.5350  -14.5060   18.3360 O   0  0  0  0  0  0  0  0  0  0  0  0
  -26.2960  -14.0490   20.3930 C   0  0  0  0  0  0  0  0  0  0  0  0
  -25.2400  -13.3410   20.8980 C   0  0  0  0  0  0  0  0  0  0  0  0
  -25.4950  -11.9710   20.5830 C   0  0  0  0  0  0  0  0  0  0  0  0
  -27.1350  -13.1140   19.8070 N   0  0  0  0  0  0  0  0  0  0  0  0
  -26.6680  -11.8500   19.9750 N   0  0  0  0  0  0  0  0  0  0  0  0
  -24.6650  -10.7750   20.7710 C   0  0  0  0  0  0  0  0  0  0  0  0
  -25.0860   -9.7040   21.5900 C   0  0  0  0  0  3  0  0  0  0  0  0
  -24.2610   -8.5720   21.7700 C   0  0  0  0  0  3  0  0  0  0  0  0
  -23.0000   -8.5040   21.1300 C   0  0  0  0  0  0  0  0  0  0  0  0
  -22.5950   -9.5630   20.2980 C   0  0  0  0  0  3  0  0  0  0  0  0
  -23.4200  -10.6860   20.1160 C   0  0  0  0  0  3  0  0  0  0  0  0
  -22.1450   -7.4340   21.2250 O   0  0  0  0  0  0  0  0  0  0  0  0
  -22.0070   -6.7240   22.3910 C   0  0  0  0  0  0  0  0  0  0  0  0
  -21.5720   -7.3330   23.5880 C   0  0  0  0  0  3  0  0  0  0  0  0
  -21.3770   -6.5520   24.7450 C   0  0  0  0  0  3  0  0  0  0  0  0
  -21.6070   -5.1640   24.7060 C   0  0  0  0  0  0  0  0  0  0  0  0
  -22.0340   -4.5540   23.5120 C   0  0  0  0  0  3  0  0  0  0  0  0
  -22.2300   -5.3320   22.3580 C   0  0  0  0  0  0  0  0  0  0  0  0
  -22.6220   -4.7370   21.2060 F   0  0  0  0  0  0  0  0  0  0  0  0
  -21.4120   -4.4130   25.8140 F   0  0  0  0  0  0  0  0  0  0  0  0
  -24.0140  -13.9090   21.5550 C   0  0  0  0  0  0  0  0  0  0  0  0
  -23.4240  -13.1740   22.4910 N   0  0  0  0  0  0  0  0  0  0  0  0
  -23.6000  -15.0330   21.2730 O   0  0  0  0  0  0  0  0  0  0  0  0
  -23.7750  -12.2590   22.7340 H   0  0  0  0  0  0  0  0  0  0  0  0
  -22.6100  -13.5310   22.9710 H   0  0  0  0  0  0  0  0  0  0  0  0
  -26.6060  -15.4050   20.3640 N   0  0  0  0  0  0  0  0  0  0  0  0
  -25.9790  -16.1120   20.7300 H   0  0  0  0  0  0  0  0  0  0  0  0
  -27.4150  -15.7960   19.8960 H   0  0  0  0  0  0  0  0  0  0  0  0
  -29.0320  -16.5470   22.6130 C   0  0  0  0  0  1  0  0  0  0  0  0
  -28.7370  -16.5420   21.1070 C   0  0  0  0  0  2  0  0  0  0  0  0
  -30.2380  -20.8150   19.0460 O   0  0  0  0  0  0  0  0  0  0  0  0
  -29.0170  -21.4590   19.4090 C   0  0  0  0  0  2  0  0  0  0  0  0
  -28.8000  -24.0210   19.5060 C   0  0  0  0  0  3  0  0  0  0  0  0
  -29.0070  -22.8700   18.8340 C   0  0  0  0  0  3  0  0  0  0  0  0
  -28.8720  -25.3970   18.8520 C   0  0  0  0  0  2  0  0  0  0  0  0
  -28.6270  -26.4760   19.7620 O   0  0  0  0  0  0  0  0  0  0  0  0
  -24.6560  -31.3630   23.0640 C   0  0  0  0  0  0  0  0  0  0  0  0
  -27.4130  -27.1360   19.7730 C   0  0  0  0  0  0  0  0  0  0  0  0
  -23.4930  -30.0410   21.3250 C   0  0  0  0  0  3  0  0  0  0  0  0
  -24.9890  -28.6030   19.8410 C   0  0  0  0  0  0  0  0  0  0  0  0
  -26.0160  -30.4420   21.1880 C   0  0  0  0  0  2  0  0  0  0  0  0
  -26.1300  -29.1100   20.4730 C   0  0  0  0  0  0  0  0  0  0  0  0
  -27.3390  -28.3810   20.4390 C   0  0  0  0  0  3  0  0  0  0  0  0
  -26.2430  -26.6290   19.1600 C   0  0  0  0  0  3  0  0  0  0  0  0
  -25.0390  -27.3590   19.1860 C   0  0  0  0  0  3  0  0  0  0  0  0
  -23.7340  -29.4430   19.9120 C   0  0  0  0  0  2  0  0  0  0  0  0
  -24.7390  -30.6270   21.9180 N   0  0  0  0  0  0  0  0  0  0  0  0
  -23.5640  -31.5870   23.6050 O   0  0  0  0  0  0  0  0  0  0  0  0
  -22.8440  -28.9570   22.2150 C   0  0  0  0  0  0  0  0  0  0  0  0
  -21.5260  -28.7600   22.0550 N   0  0  0  0  0  0  0  0  0  0  0  0
  -23.5260  -28.3000   23.0080 O   0  0  0  0  0  0  0  0  0  0  0  0
  -21.0380  -29.3460   21.3920 H   0  0  0  0  0  0  0  0  0  0  0  0
  -18.1630  -27.5020   22.4430 C   0  0  0  0  0  0  0  0  0  0  0  0
  -20.7130  -27.7680   22.7580 C   0  0  0  0  0  3  0  0  0  0  0  0
  -20.8370  -26.3760   22.0950 C   0  0  0  0  0  2  0  0  0  0  0  0
  -19.7500  -26.1070   21.0510 C   0  0  0  0  0  2  0  0  0  0  0  0
  -18.3600  -26.1990   21.6870 C   0  0  0  0  0  2  0  0  0  0  0  0
  -19.2670  -28.2480   22.9310 C   0  0  0  0  0  0  0  0  0  0  0  0
  -19.0310  -29.4720   23.5950 C   0  0  0  0  0  3  0  0  0  0  0  0
  -17.7190  -29.9500   23.7750 C   0  0  0  0  0  3  0  0  0  0  0  0
  -16.6270  -29.1990   23.3040 C   0  0  0  0  0  3  0  0  0  0  0  0
  -16.8500  -27.9780   22.6440 C   0  0  0  0  0  3  0  0  0  0  0  0
  -25.9250  -31.9770   23.7350 C   0  0  0  0  0  3  0  0  0  0  0  0
  -25.6190  -33.3770   24.0570 N   0  0  0  0  0  0  0  0  0  0  0  0
  -26.0000  -34.4290   23.3190 C   0  0  0  0  0  0  0  0  0  0  0  0
  -26.7170  -34.3210   22.3200 O   0  0  0  0  0  0  0  0  0  0  0  0
  -24.9930  -33.5330   24.8320 H   0  0  0  0  0  0  0  0  0  0  0  0
  -24.3130  -36.2460   22.8930 C   0  0  0  0  0  1  0  0  0  0  0  0
  -25.5090  -35.8210   23.7600 C   0  0  0  0  0  3  0  0  0  0  0  0
  -27.6070  -36.6830   24.7020 C   0  0  0  0  0  1  0  0  0  0  0  0
  -26.5570  -36.8630   23.7020 N   0  0  0  0  0  0  0  0  0  0  0  0
  -26.1530  -37.7870   23.8310 H   0  0  0  0  0  0  0  0  0  0  0  0
  -26.3870  -31.1940   25.0250 C   0  0  1  0  0  0  0  0  0  0  0  0
  -25.2580  -30.9610   26.0550 C   0  0  0  0  0  1  0  0  0  0  0  0
  -26.9690  -29.8110   24.6460 C   0  0  0  0  0  1  0  0  0  0  0  0
  -27.5200  -31.9770   25.7320 C   0  0  0  0  0  1  0  0  0  0  0  0
  1  3  1  0
  2  4  1  0
  3  4  2  0
  3  8  1  0
  4 48  1  0
  5  2  2  0
  6  1  2  0
  6  5  1  0
  7  6  1  0
  8  9  2  0
  9 10  1  0
 11  8  1  0
 12 17  1  0
 13 14  1  0
 13 12  1  0
 15 14  1  0
 15 22  1  0
 15 16  1  0
 17 11  1  0
 17 16  1  0
 18 11  2  0
 19 20  2  0
 20 39  1  0
 21 24  1  0
 21 20  1  0
 22 23  1  0
 22 19  1  0
 23 21  2  0
 24 25  1  0
 25 26  2  0
 27 30  1  0
 27 26  1  0
 28 27  2  0
 29 28  1  0
 29 24  2  0
 30 31  1  0
 31 32  1  0
 32 33  2  0
 34 33  1  0
 34 38  1  0
 35 34  2  0
 36 31  2  0
 36 35  1  0
 37 36  1  0
 39 40  1  0
 40 42  1  0
 40 43  1  0
 41 39  2  0
 44 19  1  0
 44 45  1  0
 46 44  1  0
 48 47  1  0
 49  5  1  0
 49 50  1  0
 52 50  1  0
 52 51  2  0
 53 51  1  0
 53 54  1  0
 54 56  1  0
 55 66  2  0
 56 61  1  0
 57 65  1  0
 57 67  1  0
 58 64  1  0
 58 60  1  0
 59 65  1  0
 60 59  1  0
 61 60  2  0
 62 63  1  0
 62 56  2  0
 63 58  2  0
 64 57  1  0
 65 55  1  0
 67 69  2  0
 68 67  1  0
 70 68  1  0
 71 80  2  0
 71 76  1  0
 72 68  1  0
 72 76  1  0
 73 72  1  0
 74 75  1  0
 74 73  1  0
 75 71  1  0
 76 77  2  0
 77 78  1  0
 79 78  2  0
 80 79  1  0
 81 55  1  0
 81 82  1  0
 81 91  1  0
 82 85  1  0
 83 87  1  0
 83 82  1  0
 84 83  2  0
 87 86  1  0
 89 87  1  0
 89 90  1  0
 89 88  1  0
 91 94  1  1
 91 92  1  0
 93 91  1  0
M  ISO  4   8 100  11 100  53 101  54 101
M  END
>  <TORSDO>  (10) 
F 22

>  <SCORE>  (10) 
-7.243

>  <name>  (10) 
9

>  <ligand_id>  (10) 
9

>  <original_smiles>  (10) 
[H]N=C(C(=O)N1C([H])([H])C([H])([H])C([H])([H])C([H])(n2nc(-c3c([H])c([H])c(Oc4c([H])c([H])c(F)c([H])c4F)c([H])c3[H])c(C(=O)N([H])[H])c2N([H])[H])C1([H])[H])c1c([H])c(F)c(OC([H])([H])C([H])=C([H])C([H])([H])Oc2c([H])c([H])c3c(c2[H])C([H])([H])N(C(=O)C([H])(N([H])C(=O)C([H])(N([H])C([H])([H])[H])C([H])([H])[H])C(C([H])([H])[H])(C([H])([H])[H])C([H])([H])[H])C([H])(C(=O)N([H])C2([H])c4c([H])c([H])c([H])c([H])c4C([H])([H])C([H])([H])C2([H])[H])C3([H])[H])c([H])c1C([H])([H])C([H])([H])[H]

>  <smiles>  (10) 
[H]N=C(C(=O)N1C([H])([H])C([H])([H])C([H])([H])C([H])(n2nc(-c3c([H])c([H])c(Oc4c([H])c([H])c(F)c([H])c4F)c([H])c3[H])c(C(=O)N([H])[H])c2N([H])[H])C1([H])[H])c1c([H])c(F)c(OC([H])([H])C([H])=C([H])C([H])([H])Oc2c([H])c([H])c3c(c2[H])C([H])([H])N(C(=O)C([H])(N([H])C(=O)C([H])(N([H])C([H])([H])[H])C([H])([H])[H])C(C([H])([H])[H])(C([H])([H])[H])C([H])([H])[H])C([H])(C(=O)N([H])C2([H])c4c([H])c([H])c([H])c([H])c4C([H])([H])C([H])([H])C2([H])[H])C3([H])[H])c([H])c1C([H])([H])C([H])([H])[H]

$$$$
10:0:0
     RDKit          3D

 94102  0  0  1  0  0  0  0  0999 V2000
  -30.3900  -17.6810   20.4220 C   0  0  0  0  0  3  0  0  0  0  0  0
  -31.1580  -18.7670   22.8810 C   0  0  0  0  0  3  0  0  0  0  0  0
  -30.3050  -19.0890   20.6000 C   0  0  0  0  0  0  0  0  0  0  0  0
  -30.7210  -19.6300   21.8540 C   0  0  0  0  0  0  0  0  0  0  0  0
  -31.1850  -17.3720   22.7110 C   0  0  0  0  0  0  0  0  0  0  0  0
  -30.8150  -16.8200   21.4670 C   0  0  0  0  0  0  0  0  0  0  0  0
  -31.5920  -16.4820   23.8760 C   0  0  0  0  0  1  0  0  0  0  0  0
  -31.2550  -14.5540   20.4790 C   0  0  0  0  0  0  0  0  0  0  0  0
  -30.9370  -12.3370   19.4280 C   0  0  0  0  0  2  0  0  0  0  0  0
  -30.0250  -12.4730   18.1900 C   0  0  0  0  0  2  0  0  0  0  0  0
  -28.5350  -12.4210   18.5830 C   0  0  0  0  0  2  0  0  0  0  0  0
  -28.1970  -13.3710   19.7600 C   0  0  0  0  0  3  0  0  0  0  0  0
  -29.2020  -13.1630   20.9130 C   0  0  0  0  0  2  0  0  0  0  0  0
  -30.5660  -13.3860   20.3890 N   0  0  0  0  0  0  0  0  0  0  0  0
  -32.2950  -14.7870   19.8530 O   0  0  0  0  0  0  0  0  0  0  0  0
  -30.7410  -15.4020   21.3790 N   0  0  0  0  0  0  0  0  0  0  0  0
  -30.0720  -14.9730   21.9990 H   0  0  0  0  0  0  0  0  0  0  0  0
  -25.8360  -14.1520   20.4430 C   0  0  0  0  0  0  0  0  0  0  0  0
  -24.7060  -13.4540   20.7790 C   0  0  0  0  0  0  0  0  0  0  0  0
  -25.0640  -12.0720   20.7190 C   0  0  0  0  0  0  0  0  0  0  0  0
  -26.8150  -13.1980   20.2080 N   0  0  0  0  0  0  0  0  0  0  0  0
  -26.3510  -11.9410   20.4260 N   0  0  0  0  0  0  0  0  0  0  0  0
  -24.2410  -10.8630   20.8660 C   0  0  0  0  0  0  0  0  0  0  0  0
  -24.5950   -9.8320   21.7640 C   0  0  0  0  0  3  0  0  0  0  0  0
  -23.7780   -8.6890   21.8990 C   0  0  0  0  0  3  0  0  0  0  0  0
  -22.5920   -8.5710   21.1360 C   0  0  0  0  0  0  0  0  0  0  0  0
  -22.2570   -9.5890   20.2270 C   0  0  0  0  0  3  0  0  0  0  0  0
  -23.0740  -10.7240   20.0890 C   0  0  0  0  0  3  0  0  0  0  0  0
  -21.7500   -7.4850   21.1840 O   0  0  0  0  0  0  0  0  0  0  0  0
  -21.6510   -6.7010   22.3050 C   0  0  0  0  0  0  0  0  0  0  0  0
  -21.2680   -7.2330   23.5570 C   0  0  0  0  0  3  0  0  0  0  0  0
  -21.1110   -6.3780   24.6670 C   0  0  0  0  0  3  0  0  0  0  0  0
  -21.3260   -4.9940   24.5260 C   0  0  0  0  0  0  0  0  0  0  0  0
  -21.7000   -4.4620   23.2800 C   0  0  0  0  0  3  0  0  0  0  0  0
  -21.8590   -5.3120   22.1720 C   0  0  0  0  0  0  0  0  0  0  0  0
  -22.2000   -4.7920   20.9680 F   0  0  0  0  0  0  0  0  0  0  0  0
  -21.1670   -4.1720   25.5900 F   0  0  0  0  0  0  0  0  0  0  0  0
  -23.3450  -14.0280   21.0480 C   0  0  0  0  0  0  0  0  0  0  0  0
  -22.5610  -13.3780   21.9020 N   0  0  0  0  0  0  0  0  0  0  0  0
  -22.9850  -15.0860   20.5340 O   0  0  0  0  0  0  0  0  0  0  0  0
  -22.8620  -12.5190   22.3400 H   0  0  0  0  0  0  0  0  0  0  0  0
  -21.6470  -13.7470   22.1230 H   0  0  0  0  0  0  0  0  0  0  0  0
  -26.1110  -15.5090   20.3060 N   0  0  0  0  0  0  0  0  0  0  0  0
  -25.4070  -16.2260   20.4370 H   0  0  0  0  0  0  0  0  0  0  0  0
  -27.0080  -15.8850   20.0250 H   0  0  0  0  0  0  0  0  0  0  0  0
  -29.7000  -19.8700   19.4800 C   0  0  0  0  0  3  0  0  0  0  0  0
  -28.9680  -21.0080   19.5270 C   0  0  0  0  0  3  0  0  0  0  0  0
  -28.3650  -21.7060   18.3160 C   0  0  0  0  0  2  0  0  0  0  0  0
  -28.7350  -23.2020   18.1420 C   0  0  0  0  0  2  0  0  0  0  0  0
  -28.0700  -24.2300   19.1000 C   0  0  0  0  0  2  0  0  0  0  0  0
  -28.2430  -25.6880   18.5900 C   0  0  0  0  0  2  0  0  0  0  0  0
  -28.0690  -26.7250   19.5700 O   0  0  0  0  0  0  0  0  0  0  0  0
  -24.4750  -31.7740   23.0810 C   0  0  0  0  0  0  0  0  0  0  0  0
  -26.8900  -27.4450   19.6380 C   0  0  0  0  0  0  0  0  0  0  0  0
  -23.1650  -30.4690   21.4400 C   0  0  0  0  0  3  0  0  0  0  0  0
  -24.5160  -28.9790   19.8670 C   0  0  0  0  0  0  0  0  0  0  0  0
  -25.6830  -30.7950   21.1310 C   0  0  0  0  0  2  0  0  0  0  0  0
  -25.7100  -29.4550   20.4210 C   0  0  0  0  0  0  0  0  0  0  0  0
  -26.8930  -28.6920   20.3110 C   0  0  0  0  0  3  0  0  0  0  0  0
  -25.6740  -26.9780   19.0930 C   0  0  0  0  0  3  0  0  0  0  0  0
  -24.4930  -27.7380   19.2050 C   0  0  0  0  0  3  0  0  0  0  0  0
  -23.2920  -29.8530   20.0210 C   0  0  0  0  0  2  0  0  0  0  0  0
  -24.4620  -31.0250   21.9400 N   0  0  0  0  0  0  0  0  0  0  0  0
  -23.4280  -32.0350   23.6890 O   0  0  0  0  0  0  0  0  0  0  0  0
  -22.5490  -29.4130   22.3840 C   0  0  0  0  0  0  0  0  0  0  0  0
  -21.2260  -29.2090   22.2750 N   0  0  0  0  0  0  0  0  0  0  0  0
  -23.2570  -28.7770   23.1690 O   0  0  0  0  0  0  0  0  0  0  0  0
  -20.7160  -29.7710   21.6060 H   0  0  0  0  0  0  0  0  0  0  0  0
  -17.8980  -27.8760   22.7260 C   0  0  0  0  0  0  0  0  0  0  0  0
  -20.4390  -28.2380   23.0330 C   0  0  0  0  0  3  0  0  0  0  0  0
  -20.6100  -26.8140   22.4580 C   0  0  0  0  0  2  0  0  0  0  0  0
  -19.5360  -26.4450   21.4300 C   0  0  0  0  0  2  0  0  0  0  0  0
  -18.1400  -26.5340   22.0520 C   0  0  0  0  0  2  0  0  0  0  0  0
  -18.9770  -28.6820   23.1710 C   0  0  0  0  0  0  0  0  0  0  0  0
  -18.6990  -29.9360   23.7590 C   0  0  0  0  0  3  0  0  0  0  0  0
  -17.3720  -30.3840   23.9030 C   0  0  0  0  0  3  0  0  0  0  0  0
  -16.3070  -29.5750   23.4720 C   0  0  0  0  0  3  0  0  0  0  0  0
  -16.5700  -28.3220   22.8900 C   0  0  0  0  0  3  0  0  0  0  0  0
  -25.8020  -32.3570   23.6600 C   0  0  0  0  0  3  0  0  0  0  0  0
  -25.5380  -33.7440   24.0630 N   0  0  0  0  0  0  0  0  0  0  0  0
  -25.8600  -34.8220   23.3360 C   0  0  0  0  0  0  0  0  0  0  0  0
  -26.4820  -34.7520   22.2730 O   0  0  0  0  0  0  0  0  0  0  0  0
  -24.9910  -33.8760   24.9010 H   0  0  0  0  0  0  0  0  0  0  0  0
  -24.1550  -36.6540   23.1360 C   0  0  0  0  0  1  0  0  0  0  0  0
  -25.4220  -36.1970   23.8760 C   0  0  0  0  0  3  0  0  0  0  0  0
  -27.6060  -37.0060   24.6530 C   0  0  0  0  0  1  0  0  0  0  0  0
  -26.4690  -37.2350   23.7650 N   0  0  0  0  0  0  0  0  0  0  0  0
  -26.0870  -38.1560   23.9690 H   0  0  0  0  0  0  0  0  0  0  0  0
  -26.3700  -31.5230   24.8740 C   0  0  1  0  0  0  0  0  0  0  0  0
  -25.3300  -31.2650   25.9880 C   0  0  0  0  0  1  0  0  0  0  0  0
  -26.9000  -30.1530   24.3900 C   0  0  0  0  0  1  0  0  0  0  0  0
  -27.5700  -32.2700   25.5040 C   0  0  0  0  0  1  0  0  0  0  0  0
  -29.5440  -21.5520   23.0250 C   0  0  0  0  0  1  0  0  0  0  0  0
  -30.7510  -21.1170   22.1760 C   0  0  0  0  0  2  0  0  0  0  0  0
  1  3  2  0
  1  6  1  0
  3  4  1  0
  4 94  1  0
  4  2  2  0
  5  2  1  0
  5  7  1  0
  6  5  2  0
  8 16  1  0
  9 14  1  0
 10 11  1  0
 10  9  1  0
 12 11  1  0
 12 21  1  0
 12 13  1  0
 14  8  1  0
 14 13  1  0
 15  8  2  0
 16  6  1  0
 16 17  1  0
 18 19  2  0
 19 38  1  0
 20 19  1  0
 20 23  1  0
 21 22  1  0
 21 18  1  0
 22 20  2  0
 23 24  1  0
 24 25  2  0
 26 29  1  0
 26 25  1  0
 27 26  2  0
 28 27  1  0
 28 23  2  0
 29 30  1  0
 30 31  1  0
 31 32  2  0
 33 32  1  0
 33 37  1  0
 34 33  2  0
 35 30  2  0
 35 34  1  0
 36 35  1  0
 38 39  1  0
 39 42  1  0
 39 41  1  0
 40 38  2  0
 43 44  1  0
 43 18  1  0
 45 43  1  0
 46 47  2  0
 46  3  1  0
 48 47  1  0
 49 48  1  0
 49 50  1  0
 51 50  1  0
 51 52  1  0
 52 54  1  0
 53 64  2  0
 54 59  1  0
 55 63  1  0
 55 65  1  0
 56 62  1  0
 56 58  1  0
 57 63  1  0
 58 57  1  0
 59 58  2  0
 60 61  1  0
 60 54  2  0
 61 56  2  0
 62 55  1  0
 63 53  1  0
 65 67  2  0
 66 65  1  0
 68 66  1  0
 69 78  2  0
 69 74  1  0
 70 66  1  0
 70 74  1  0
 71 70  1  0
 72 73  1  0
 72 71  1  0
 73 69  1  0
 74 75  2  0
 75 76  1  0
 77 76  2  0
 78 77  1  0
 79 53  1  0
 79 80  1  0
 79 89  1  0
 80 83  1  0
 81 85  1  0
 81 80  1  0
 82 81  2  0
 85 84  1  0
 87 85  1  0
 87 88  1  0
 87 86  1  0
 89 92  1  1
 89 90  1  0
 91 89  1  0
 94 93  1  0
M  ISO  4   8 100  16 100  51 101  52 101
M  END
>  <TORSDO>  (11) 
F 22

>  <SCORE>  (11) 
-9.668

>  <name>  (11) 
10

>  <ligand_id>  (11) 
10

>  <original_smiles>  (11) 
[H]C(=C([H])C([H])([H])C([H])([H])C([H])([H])C([H])([H])Oc1c([H])c([H])c2c(c1[H])C([H])([H])N(C(=O)C([H])(N([H])C(=O)C([H])(N([H])C([H])([H])[H])C([H])([H])[H])C(C([H])([H])[H])(C([H])([H])[H])C([H])([H])[H])C([H])(C(=O)N([H])C1([H])c3c([H])c([H])c([H])c([H])c3C([H])([H])C([H])([H])C1([H])[H])C2([H])[H])c1c([H])c(N([H])C(=O)N2C([H])([H])C([H])([H])C([H])([H])C([H])(n3nc(-c4c([H])c([H])c(Oc5c([H])c([H])c(F)c([H])c5F)c([H])c4[H])c(C(=O)N([H])[H])c3N([H])[H])C2([H])[H])c(C([H])([H])[H])c([H])c1C([H])([H])C([H])([H])[H]

>  <smiles>  (11) 
[H]C(=C([H])C([H])([H])C([H])([H])C([H])([H])C([H])([H])Oc1c([H])c([H])c2c(c1[H])C([H])([H])N(C(=O)C([H])(N([H])C(=O)C([H])(N([H])C([H])([H])[H])C([H])([H])[H])C(C([H])([H])[H])(C([H])([H])[H])C([H])([H])[H])C([H])(C(=O)N([H])C1([H])c3c([H])c([H])c([H])c([H])c3C([H])([H])C([H])([H])C1([H])[H])C2([H])[H])c1c([H])c(N([H])C(=O)N2C([H])([H])C([H])([H])C([H])([H])C([H])(n3nc(-c4c([H])c([H])c(Oc5c([H])c([H])c(F)c([H])c5F)c([H])c4[H])c(C(=O)N([H])[H])c3N([H])[H])C2([H])[H])c(C([H])([H])[H])c([H])c1C([H])([H])C([H])([H])[H]

$$$$
11:0:0
     RDKit          3D

 91 99  0  0  1  0  0  0  0  0999 V2000
  -29.0280  -20.3370   20.9360 O   0  0  0  0  0  0  0  0  0  0  0  0
  -29.8620  -18.0410   21.5210 C   0  0  0  0  0  3  0  0  0  0  0  0
  -29.5710  -19.1040   20.6120 C   0  0  0  0  0  0  0  0  0  0  0  0
  -30.2160  -16.9280   20.7910 C   0  0  0  0  0  0  0  0  0  0  0  0
  -29.8010  -18.5760   19.3690 C   0  0  0  0  0  0  0  0  0  0  0  0
  -29.6440  -19.1040   17.9840 C   0  0  0  0  0  1  0  0  0  0  0  0
  -30.1930  -17.2640   19.4650 O   0  0  0  0  0  0  0  0  0  0  0  0
  -30.5330  -15.5240   21.1610 C   0  0  0  0  0  0  0  0  0  0  0  0
  -30.5040  -15.1650   22.3780 N   0  0  0  0  0  0  0  0  0  0  0  0
  -30.2390  -15.9380   22.9760 H   0  0  0  0  0  0  0  0  0  0  0  0
  -30.9370  -14.5440   20.0380 C   0  0  0  0  0  0  0  0  0  0  0  0
  -30.4740  -12.4850   18.7400 C   0  0  0  0  0  2  0  0  0  0  0  0
  -29.4580  -12.7730   17.6160 C   0  0  0  0  0  2  0  0  0  0  0  0
  -28.0140  -12.6220   18.1310 C   0  0  0  0  0  2  0  0  0  0  0  0
  -27.7820  -13.3830   19.4620 C   0  0  0  0  0  3  0  0  0  0  0  0
  -28.8990  -13.0660   20.4790 C   0  0  0  0  0  2  0  0  0  0  0  0
  -30.1990  -13.4020   19.8640 N   0  0  0  0  0  0  0  0  0  0  0  0
  -31.9370  -14.7930   19.3530 O   0  0  0  0  0  0  0  0  0  0  0  0
  -25.4310  -13.9900   20.3130 C   0  0  0  0  0  0  0  0  0  0  0  0
  -24.3830  -13.2170   20.7370 C   0  0  0  0  0  0  0  0  0  0  0  0
  -24.8360  -11.8640   20.6650 C   0  0  0  0  0  0  0  0  0  0  0  0
  -26.4570  -13.1070   20.0130 N   0  0  0  0  0  0  0  0  0  0  0  0
  -26.1050  -11.8230   20.2800 N   0  0  0  0  0  0  0  0  0  0  0  0
  -24.1170  -10.6040   20.8880 C   0  0  0  0  0  0  0  0  0  0  0  0
  -24.5760   -9.6480   21.8210 C   0  0  0  0  0  3  0  0  0  0  0  0
  -23.8580   -8.4500   22.0310 C   0  0  0  0  0  3  0  0  0  0  0  0
  -22.6680   -8.2000   21.3060 C   0  0  0  0  0  0  0  0  0  0  0  0
  -22.2290   -9.1450   20.3620 C   0  0  0  0  0  3  0  0  0  0  0  0
  -22.9470  -10.3350   20.1520 C   0  0  0  0  0  3  0  0  0  0  0  0
  -21.9200   -7.0540   21.4250 O   0  0  0  0  0  0  0  0  0  0  0  0
  -21.8670   -6.3460   22.5990 C   0  0  0  0  0  0  0  0  0  0  0  0
  -21.4400   -6.9380   23.8070 C   0  0  0  0  0  3  0  0  0  0  0  0
  -21.3350   -6.1550   24.9740 C   0  0  0  0  0  3  0  0  0  0  0  0
  -21.6480   -4.7840   24.9350 C   0  0  0  0  0  0  0  0  0  0  0  0
  -22.0680   -4.1910   23.7310 C   0  0  0  0  0  3  0  0  0  0  0  0
  -22.1750   -4.9710   22.5650 C   0  0  0  0  0  0  0  0  0  0  0  0
  -22.5600   -4.3900   21.4030 F   0  0  0  0  0  0  0  0  0  0  0  0
  -21.5400   -4.0300   26.0540 F   0  0  0  0  0  0  0  0  0  0  0  0
  -23.0070  -13.6960   21.1000 C   0  0  0  0  0  0  0  0  0  0  0  0
  -22.3440  -13.0100   22.0240 N   0  0  0  0  0  0  0  0  0  0  0  0
  -22.5320  -14.7140   20.5990 O   0  0  0  0  0  0  0  0  0  0  0  0
  -22.7430  -12.1870   22.4480 H   0  0  0  0  0  0  0  0  0  0  0  0
  -21.4230  -13.3140   22.3110 H   0  0  0  0  0  0  0  0  0  0  0  0
  -25.5900  -15.3610   20.1390 N   0  0  0  0  0  0  0  0  0  0  0  0
  -24.8340  -16.0180   20.2950 H   0  0  0  0  0  0  0  0  0  0  0  0
  -26.4280  -15.8010   19.7790 H   0  0  0  0  0  0  0  0  0  0  0  0
  -29.7850  -21.5380   20.7060 C   0  0  0  0  0  2  0  0  0  0  0  0
  -28.7950  -22.7030   20.3970 C   0  0  0  0  0  2  0  0  0  0  0  0
  -29.3150  -24.1810   20.4430 C   0  0  0  0  0  2  0  0  0  0  0  0
  -28.1810  -25.1820   20.0690 C   0  0  0  0  0  2  0  0  0  0  0  0
  -28.4300  -26.6110   20.1730 O   0  0  0  0  0  0  0  0  0  0  0  0
  -24.7520  -31.9220   23.2640 C   0  0  0  0  0  0  0  0  0  0  0  0
  -27.2970  -27.4220   20.1350 C   0  0  0  0  0  0  0  0  0  0  0  0
  -23.5150  -30.5490   21.6260 C   0  0  0  0  0  3  0  0  0  0  0  0
  -24.9350  -29.0070   20.1710 C   0  0  0  0  0  0  0  0  0  0  0  0
  -26.0490  -30.8600   21.4150 C   0  0  0  0  0  2  0  0  0  0  0  0
  -26.1090  -29.4930   20.7580 C   0  0  0  0  0  0  0  0  0  0  0  0
  -27.2950  -28.7100   20.7350 C   0  0  0  0  0  3  0  0  0  0  0  0
  -26.0970  -26.9790   19.5250 C   0  0  0  0  0  3  0  0  0  0  0  0
  -24.9260  -27.7530   19.5470 C   0  0  0  0  0  3  0  0  0  0  0  0
  -23.7040  -29.8850   20.2370 C   0  0  0  0  0  2  0  0  0  0  0  0
  -24.7900  -31.1250   22.1590 N   0  0  0  0  0  0  0  0  0  0  0  0
  -23.6790  -32.2090   23.8130 O   0  0  0  0  0  0  0  0  0  0  0  0
  -22.8560  -29.5290   22.5840 C   0  0  0  0  0  0  0  0  0  0  0  0
  -21.5310  -29.3550   22.4560 N   0  0  0  0  0  0  0  0  0  0  0  0
  -23.5360  -28.8990   23.3980 O   0  0  0  0  0  0  0  0  0  0  0  0
  -21.0470  -29.9160   21.7670 H   0  0  0  0  0  0  0  0  0  0  0  0
  -18.1460  -28.1800   22.9500 C   0  0  0  0  0  0  0  0  0  0  0  0
  -20.7060  -28.4240   23.2240 C   0  0  0  0  0  3  0  0  0  0  0  0
  -20.8000  -26.9920   22.6470 C   0  0  0  0  0  2  0  0  0  0  0  0
  -19.6960  -26.6760   21.6320 C   0  0  0  0  0  2  0  0  0  0  0  0
  -18.3140  -26.8300   22.2740 C   0  0  0  0  0  2  0  0  0  0  0  0
  -19.2690  -28.9350   23.3810 C   0  0  0  0  0  0  0  0  0  0  0  0
  -19.0580  -30.1990   23.9720 C   0  0  0  0  0  3  0  0  0  0  0  0
  -17.7570  -30.7100   24.1360 C   0  0  0  0  0  3  0  0  0  0  0  0
  -16.6490  -29.9520   23.7210 C   0  0  0  0  0  3  0  0  0  0  0  0
  -16.8430  -28.6890   23.1340 C   0  0  0  0  0  3  0  0  0  0  0  0
  -26.0520  -32.5310   23.8770 C   0  0  0  0  0  3  0  0  0  0  0  0
  -25.7570  -33.9240   24.2380 N   0  0  0  0  0  0  0  0  0  0  0  0
  -26.1110  -34.9900   23.5080 C   0  0  0  0  0  0  0  0  0  0  0  0
  -26.7910  -34.9030   22.4830 O   0  0  0  0  0  0  0  0  0  0  0  0
  -25.1540  -34.0650   25.0350 H   0  0  0  0  0  0  0  0  0  0  0  0
  -24.4270  -36.8260   23.1610 C   0  0  0  0  0  1  0  0  0  0  0  0
  -25.6360  -36.3720   23.9940 C   0  0  0  0  0  3  0  0  0  0  0  0
  -27.7620  -37.1850   24.9140 C   0  0  0  0  0  1  0  0  0  0  0  0
  -26.6900  -37.4080   23.9470 N   0  0  0  0  0  0  0  0  0  0  0  0
  -26.2970  -38.3300   24.1180 H   0  0  0  0  0  0  0  0  0  0  0  0
  -26.5830  -31.7300   25.1270 C   0  0  1  0  0  0  0  0  0  0  0  0
  -25.5040  -31.4710   26.2050 C   0  0  0  0  0  1  0  0  0  0  0  0
  -27.1520  -30.3580   24.6950 C   0  0  0  0  0  1  0  0  0  0  0  0
  -27.7470  -32.5050   25.7900 C   0  0  0  0  0  1  0  0  0  0  0  0
  3  1  1  0
  3  2  1  0
  4  8  1  0
  4  2  2  0
  5  7  1  0
  5  3  2  0
  6  5  1  0
  7  4  1  0
  8  9  2  0
  9 10  1  0
 11  8  1  0
 12 17  1  0
 13 14  1  0
 13 12  1  0
 15 14  1  0
 15 22  1  0
 15 16  1  0
 17 11  1  0
 17 16  1  0
 18 11  2  0
 19 20  2  0
 20 39  1  0
 21 20  1  0
 21 24  1  0
 22 23  1  0
 22 19  1  0
 23 21  2  0
 24 25  1  0
 25 26  2  0
 27 30  1  0
 27 26  1  0
 28 27  2  0
 29 28  1  0
 29 24  2  0
 30 31  1  0
 31 32  1  0
 32 33  2  0
 34 33  1  0
 34 38  1  0
 35 34  2  0
 36 31  2  0
 36 35  1  0
 37 36  1  0
 39 40  1  0
 40 43  1  0
 40 42  1  0
 41 39  2  0
 44 45  1  0
 44 19  1  0
 46 44  1  0
 47  1  1  0
 48 49  1  0
 48 47  1  0
 50 51  1  0
 50 49  1  0
 52 63  2  0
 53 51  1  0
 53 58  1  0
 54 62  1  0
 54 64  1  0
 55 61  1  0
 55 57  1  0
 56 62  1  0
 57 56  1  0
 58 57  2  0
 59 60  1  0
 59 53  2  0
 60 55  2  0
 61 54  1  0
 62 52  1  0
 64 66  2  0
 65 64  1  0
 67 65  1  0
 68 77  2  0
 68 73  1  0
 69 65  1  0
 69 73  1  0
 70 69  1  0
 71 72  1  0
 71 70  1  0
 72 68  1  0
 73 74  2  0
 74 75  1  0
 76 75  2  0
 77 76  1  0
 78 52  1  0
 78 79  1  0
 78 88  1  0
 79 82  1  0
 80 84  1  0
 80 79  1  0
 81 80  2  0
 84 83  1  0
 86 84  1  0
 86 87  1  0
 86 85  1  0
 88 91  1  1
 88 89  1  0
 90 88  1  0
M  ISO  4   8 100  11 100  50 101  51 101
M  END
>  <TORSDO>  (12) 
F 22

>  <SCORE>  (12) 
-12.204

>  <name>  (12) 
11

>  <ligand_id>  (12) 
11

>  <original_smiles>  (12) 
[H]N=C(C(=O)N1C([H])([H])C([H])([H])C([H])([H])C([H])(n2nc(-c3c([H])c([H])c(Oc4c([H])c([H])c(F)c([H])c4F)c([H])c3[H])c(C(=O)N([H])[H])c2N([H])[H])C1([H])[H])c1oc(C([H])([H])[H])c(OC([H])([H])C([H])([H])C([H])([H])C([H])([H])Oc2c([H])c([H])c3c(c2[H])C([H])([H])N(C(=O)C([H])(N([H])C(=O)C([H])(N([H])C([H])([H])[H])C([H])([H])[H])C(C([H])([H])[H])(C([H])([H])[H])C([H])([H])[H])C([H])(C(=O)N([H])C2([H])c4c([H])c([H])c([H])c([H])c4C([H])([H])C([H])([H])C2([H])[H])C3([H])[H])c1[H]

>  <smiles>  (12) 
[H]N=C(C(=O)N1C([H])([H])C([H])([H])C([H])([H])C([H])(n2nc(-c3c([H])c([H])c(Oc4c([H])c([H])c(F)c([H])c4F)c([H])c3[H])c(C(=O)N([H])[H])c2N([H])[H])C1([H])[H])c1oc(C([H])([H])[H])c(OC([H])([H])C([H])([H])C([H])([H])C([H])([H])Oc2c([H])c([H])c3c(c2[H])C([H])([H])N(C(=O)C([H])(N([H])C(=O)C([H])(N([H])C([H])([H])[H])C([H])([H])[H])C(C([H])([H])[H])(C([H])([H])[H])C([H])([H])[H])C([H])(C(=O)N([H])C2([H])c4c([H])c([H])c([H])c([H])c4C([H])([H])C([H])([H])C2([H])[H])C3([H])[H])c1[H]

$$$$
12:0:0
     RDKit          3D

 92100  0  0  1  0  0  0  0  0999 V2000
  -30.3680  -18.5480   22.3250 C   0  0  0  0  0  3  0  0  0  0  0  0
  -30.5290  -19.7390   21.5900 C   0  0  0  0  0  3  0  0  0  0  0  0
  -31.0510  -18.4040   19.6390 C   0  0  0  0  0  3  0  0  0  0  0  0
  -30.5120  -17.2720   21.7230 C   0  0  0  0  0  0  0  0  0  0  0  0
  -30.8100  -17.1700   20.3320 C   0  0  0  0  0  0  0  0  0  0  0  0
  -30.8920  -19.6800   20.2330 C   0  0  0  0  0  0  0  0  0  0  0  0
  -30.3020  -16.0700   22.6240 C   0  0  0  0  0  1  0  0  0  0  0  0
  -31.4740  -14.7900   19.7250 C   0  0  0  0  0  0  0  0  0  0  0  0
  -31.0860  -12.5220   18.7880 C   0  0  0  0  0  2  0  0  0  0  0  0
  -30.0670  -12.5800   17.6270 C   0  0  0  0  0  2  0  0  0  0  0  0
  -28.6160  -12.5420   18.1490 C   0  0  0  0  0  2  0  0  0  0  0  0
  -28.3650  -13.4810   19.3550 C   0  0  0  0  0  3  0  0  0  0  0  0
  -29.4910  -13.3700   20.4020 C   0  0  0  0  0  2  0  0  0  0  0  0
  -30.7710  -13.6160   19.7240 N   0  0  0  0  0  0  0  0  0  0  0  0
  -32.6740  -14.8210   19.4380 O   0  0  0  0  0  0  0  0  0  0  0  0
  -30.7210  -15.9320   19.5580 N   0  0  0  0  0  0  0  0  0  0  0  0
  -26.0950  -14.2120   20.3020 C   0  0  0  0  0  0  0  0  0  0  0  0
  -25.0100  -13.4960   20.7280 C   0  0  0  0  0  0  0  0  0  0  0  0
  -25.3730  -12.1200   20.6030 C   0  0  0  0  0  0  0  0  0  0  0  0
  -27.0490  -13.2750   19.9430 N   0  0  0  0  0  0  0  0  0  0  0  0
  -26.6260  -12.0100   20.1880 N   0  0  0  0  0  0  0  0  0  0  0  0
  -24.5830  -10.8990   20.7910 C   0  0  0  0  0  0  0  0  0  0  0  0
  -24.9670   -9.9090   21.7210 C   0  0  0  0  0  3  0  0  0  0  0  0
  -24.1840   -8.7480   21.8970 C   0  0  0  0  0  3  0  0  0  0  0  0
  -23.0010   -8.5690   21.1400 C   0  0  0  0  0  0  0  0  0  0  0  0
  -22.6370   -9.5450   20.1930 C   0  0  0  0  0  3  0  0  0  0  0  0
  -23.4220  -10.6980   20.0160 C   0  0  0  0  0  3  0  0  0  0  0  0
  -22.1900   -7.4650   21.2270 O   0  0  0  0  0  0  0  0  0  0  0  0
  -21.9790   -6.8180   22.4190 C   0  0  0  0  0  0  0  0  0  0  0  0
  -21.4310   -7.4800   23.5390 C   0  0  0  0  0  3  0  0  0  0  0  0
  -21.1700   -6.7620   24.7230 C   0  0  0  0  0  3  0  0  0  0  0  0
  -21.4410   -5.3820   24.7850 C   0  0  0  0  0  0  0  0  0  0  0  0
  -21.9820   -4.7190   23.6690 C   0  0  0  0  0  3  0  0  0  0  0  0
  -22.2470   -5.4360   22.4870 C   0  0  0  0  0  0  0  0  0  0  0  0
  -22.7490   -4.7880   21.4090 F   0  0  0  0  0  0  0  0  0  0  0  0
  -21.1790   -4.6900   25.9180 F   0  0  0  0  0  0  0  0  0  0  0  0
  -23.6730  -14.0490   21.1310 C   0  0  0  0  0  0  0  0  0  0  0  0
  -22.9870  -13.3740   22.0450 N   0  0  0  0  0  0  0  0  0  0  0  0
  -23.2480  -15.1080   20.6690 O   0  0  0  0  0  0  0  0  0  0  0  0
  -23.3560  -12.5220   22.4390 H   0  0  0  0  0  0  0  0  0  0  0  0
  -22.0960  -13.7220   22.3670 H   0  0  0  0  0  0  0  0  0  0  0  0
  -26.3460  -15.5760   20.1730 N   0  0  0  0  0  0  0  0  0  0  0  0
  -25.6560  -16.2790   20.4120 H   0  0  0  0  0  0  0  0  0  0  0  0
  -27.2080  -15.9700   19.8190 H   0  0  0  0  0  0  0  0  0  0  0  0
  -30.8150  -16.0470   17.0960 C   0  0  0  0  0  2  0  0  0  0  0  0
  -30.1870  -16.1840   18.2760 C   0  0  0  0  0  3  0  0  0  0  0  0
  -31.1550  -20.8210   19.4880 O   0  0  0  0  0  0  0  0  0  0  0  0
  -30.1400  -21.8380   19.3600 C   0  0  0  0  0  2  0  0  0  0  0  0
  -30.4130  -23.1370   20.1750 C   0  0  0  0  0  2  0  0  0  0  0  0
  -29.9770  -24.4800   19.4920 C   0  0  0  0  0  2  0  0  0  0  0  0
  -29.0640  -25.4240   20.3250 C   0  0  0  0  0  2  0  0  0  0  0  0
  -29.0110  -26.7650   19.7830 O   0  0  0  0  0  0  0  0  0  0  0  0
  -24.5710  -31.3250   23.0110 C   0  0  0  0  0  0  0  0  0  0  0  0
  -27.7760  -27.3860   19.7840 C   0  0  0  0  0  0  0  0  0  0  0  0
  -23.5860  -29.9550   21.2020 C   0  0  0  0  0  3  0  0  0  0  0  0
  -25.2520  -28.6710   19.7530 C   0  0  0  0  0  0  0  0  0  0  0  0
  -26.0720  -30.5610   21.1710 C   0  0  0  0  0  2  0  0  0  0  0  0
  -26.3230  -29.2540   20.4400 C   0  0  0  0  0  0  0  0  0  0  0  0
  -27.5900  -28.6230   20.4440 C   0  0  0  0  0  3  0  0  0  0  0  0
  -26.6870  -26.8180   19.0880 C   0  0  0  0  0  3  0  0  0  0  0  0
  -25.4310  -27.4540   19.0710 C   0  0  0  0  0  3  0  0  0  0  0  0
  -23.9280  -29.4020   19.7910 C   0  0  0  0  0  2  0  0  0  0  0  0
  -24.7580  -30.6260   21.8550 N   0  0  0  0  0  0  0  0  0  0  0  0
  -23.4460  -31.4490   23.5120 O   0  0  0  0  0  0  0  0  0  0  0  0
  -22.9900  -28.8080   22.0490 C   0  0  0  0  0  0  0  0  0  0  0  0
  -21.7030  -28.4990   21.8230 N   0  0  0  0  0  0  0  0  0  0  0  0
  -23.6860  -28.1980   22.8660 O   0  0  0  0  0  0  0  0  0  0  0  0
  -21.1970  -29.0520   21.1430 H   0  0  0  0  0  0  0  0  0  0  0  0
  -18.4560  -26.9200   22.0130 C   0  0  0  0  0  0  0  0  0  0  0  0
  -20.9500  -27.4240   22.4700 C   0  0  0  0  0  3  0  0  0  0  0  0
  -21.2410  -26.0560   21.8080 C   0  0  0  0  0  2  0  0  0  0  0  0
  -20.2420  -25.6950   20.7040 C   0  0  0  0  0  2  0  0  0  0  0  0
  -18.8180  -25.6490   21.2640 C   0  0  0  0  0  2  0  0  0  0  0  0
  -19.4580  -27.7600   22.5670 C   0  0  0  0  0  0  0  0  0  0  0  0
  -19.0710  -28.9470   23.2260 C   0  0  0  0  0  3  0  0  0  0  0  0
  -17.7130  -29.2980   23.3380 C   0  0  0  0  0  3  0  0  0  0  0  0
  -16.7230  -28.4560   22.8010 C   0  0  0  0  0  3  0  0  0  0  0  0
  -17.0960  -27.2700   22.1440 C   0  0  0  0  0  3  0  0  0  0  0  0
  -25.7580  -32.0240   23.7450 C   0  0  0  0  0  3  0  0  0  0  0  0
  -25.3300  -33.3910   24.0790 N   0  0  0  0  0  0  0  0  0  0  0  0
  -25.6700  -34.4850   23.3840 C   0  0  0  0  0  0  0  0  0  0  0  0
  -26.4440  -34.4540   22.4230 O   0  0  0  0  0  0  0  0  0  0  0  0
  -24.6540  -33.4810   24.8210 H   0  0  0  0  0  0  0  0  0  0  0  0
  -23.8830  -36.1860   22.8960 C   0  0  0  0  0  1  0  0  0  0  0  0
  -25.0550  -35.8270   23.8240 C   0  0  0  0  0  3  0  0  0  0  0  0
  -27.0240  -36.8140   24.9100 C   0  0  0  0  0  1  0  0  0  0  0  0
  -26.0280  -36.9420   23.8500 N   0  0  0  0  0  0  0  0  0  0  0  0
  -25.5530  -37.8330   23.9640 H   0  0  0  0  0  0  0  0  0  0  0  0
  -26.2250  -31.2550   25.0420 C   0  0  1  0  0  0  0  0  0  0  0  0
  -25.0730  -30.9110   26.0140 C   0  0  0  0  0  1  0  0  0  0  0  0
  -26.9310  -29.9320   24.6640 C   0  0  0  0  0  1  0  0  0  0  0  0
  -27.2630  -32.1060   25.8100 C   0  0  0  0  0  1  0  0  0  0  0  0
  2  1  2  0
  3  6  2  0
  3  5  1  0
  4  1  1  0
  4  7  1  0
  5  4  2  0
  6  2  1  0
  9 14  1  0
 10 11  1  0
 10  9  1  0
 12 11  1  0
 12 20  1  0
 12 13  1  0
 14  8  1  0
 14 13  1  0
 15  8  2  0
 16  8  1  0
 16  5  1  0
 17 18  2  0
 18 37  1  0
 19 18  1  0
 19 22  1  0
 20 21  1  0
 20 17  1  0
 21 19  2  0
 22 23  1  0
 23 24  2  0
 25 28  1  0
 25 24  1  0
 26 25  2  0
 27 26  1  0
 27 22  2  0
 28 29  1  0
 29 34  2  0
 29 30  1  0
 30 31  2  0
 31 32  1  0
 32 36  1  0
 33 32  2  0
 34 33  1  0
 35 34  1  0
 37 38  1  0
 38 41  1  0
 38 40  1  0
 39 37  2  0
 42 17  1  0
 42 43  1  0
 44 42  1  0
 45 46  2  0
 46 16  1  0
 47  6  1  0
 48 47  1  0
 48 49  1  0
 50 49  1  0
 50 51  1  0
 52 54  1  0
 52 51  1  0
 53 64  2  0
 54 59  1  0
 55 63  1  0
 55 65  1  0
 56 62  1  0
 56 58  1  0
 57 63  1  0
 58 59  2  0
 58 57  1  0
 60 54  2  0
 61 60  1  0
 61 56  2  0
 62 55  1  0
 63 53  1  0
 65 67  2  0
 66 65  1  0
 68 66  1  0
 69 78  2  0
 69 74  1  0
 70 66  1  0
 70 74  1  0
 71 70  1  0
 72 73  1  0
 72 71  1  0
 73 69  1  0
 74 75  2  0
 75 76  1  0
 77 76  2  0
 78 77  1  0
 79 53  1  0
 79 80  1  0
 79 89  1  0
 80 83  1  0
 81 85  1  0
 81 80  1  0
 82 81  2  0
 85 84  1  0
 85 87  1  0
 87 88  1  0
 87 86  1  0
 89 92  1  1
 89 90  1  0
 91 89  1  0
M  ISO  4   8 100  16 100  51 101  52 101
M  END
>  <TORSDO>  (13) 
F 22

>  <SCORE>  (13) 
-8.573

>  <name>  (13) 
12

>  <ligand_id>  (13) 
12

>  <original_smiles>  (13) 
[H]C([H])=C([H])N(C(=O)N1C([H])([H])C([H])([H])C([H])([H])C([H])(n2nc(-c3c([H])c([H])c(Oc4c([H])c([H])c(F)c([H])c4F)c([H])c3[H])c(C(=O)N([H])[H])c2N([H])[H])C1([H])[H])c1c([H])c(OC([H])([H])C([H])([H])C([H])([H])C([H])([H])Oc2c([H])c([H])c3c(c2[H])C([H])([H])N(C(=O)C([H])(N([H])C(=O)C([H])(N([H])C([H])([H])[H])C([H])([H])[H])C(C([H])([H])[H])(C([H])([H])[H])C([H])([H])[H])C([H])(C(=O)N([H])C2([H])c4c([H])c([H])c([H])c([H])c4C([H])([H])C([H])([H])C2([H])[H])C3([H])[H])c([H])c([H])c1C([H])([H])[H]

>  <smiles>  (13) 
[H]C([H])=C([H])N(C(=O)N1C([H])([H])C([H])([H])C([H])([H])C([H])(n2nc(-c3c([H])c([H])c(Oc4c([H])c([H])c(F)c([H])c4F)c([H])c3[H])c(C(=O)N([H])[H])c2N([H])[H])C1([H])[H])c1c([H])c(OC([H])([H])C([H])([H])C([H])([H])C([H])([H])Oc2c([H])c([H])c3c(c2[H])C([H])([H])N(C(=O)C([H])(N([H])C(=O)C([H])(N([H])C([H])([H])[H])C([H])([H])[H])C(C([H])([H])[H])(C([H])([H])[H])C([H])([H])[H])C([H])(C(=O)N([H])C2([H])c4c([H])c([H])c([H])c([H])c4C([H])([H])C([H])([H])C2([H])[H])C3([H])[H])c([H])c([H])c1C([H])([H])[H]

$$$$
13:0:0
     RDKit          3D

 90 91  0  0  1  0  0  0  0  0999 V2000
  -21.4030  -24.8470   21.1560 C   0  0  0  0  0 15  0  0  0  0  0  0
  -20.3800  -23.0320   20.5490 C   0  0  0  0  0  3  0  0  0  0  0  0
  -18.6760  -25.7810   19.8840 C   0  0  0  0  0  3  0  0  0  0  0  0
  -22.0960  -22.9770   20.6470 C   0  0  0  0  0  1  0  0  0  0  0  0
  -20.1440  -26.8210   20.2980 C   0  0  1  0  0  0  0  0  0  0  0  0
  -18.9610  -24.0640   20.3210 C   0  0  0  0  0  0  0  0  0  0  0  0
  -17.6700  -23.2740   20.2470 C   0  0  0  0  0  1  0  0  0  0  0  0
  -23.9920  -20.8530   20.2770 C   0  0  0  0  0 15  0  0  0  0  0  0
  -25.6770  -19.5330   20.0300 C   0  0  0  0  0 15  0  0  0  0  0  0
  -27.3730  -17.6690   19.6690 C   0  0  0  0  0  2  0  0  0  0  0  0
  -29.2860  -15.0800   18.6710 C   0  0  0  0  0  2  0  0  0  0  0  0
  -29.2100  -13.6260   17.8240 C   0  0  0  0  0  2  0  0  0  0  0  0
  -28.2510  -12.6030   18.4190 C   0  0  0  0  0  2  0  0  0  0  0  0
  -27.3680  -13.5490   19.2030 C   0  0  0  0  0  3  0  0  0  0  0  0
  -27.9680  -14.6000   20.2090 C   0  0  0  0  0  2  0  0  0  0  0  0
  -27.9930  -15.9770   19.4830 N   0  0  0  0  0  0  0  0  0  0  0  0
  -28.7060  -17.6620   19.3710 O   0  0  0  0  0  1  0  0  0  0  0  0
  -25.2780  -13.9670   20.2660 C   0  0  0  0  0  0  0  0  0  0  0  0
  -24.3340  -13.1770   20.7920 C   0  0  0  0  0  0  0  0  0  0  0  0
  -24.7530  -11.8320   20.5430 C   0  0  0  0  0  0  0  0  0  0  0  0
  -26.2060  -13.0880   19.7760 N   0  0  0  0  0  0  0  0  0  0  0  0
  -25.9520  -11.7860   19.9790 N   0  0  0  0  0  0  0  0  0  0  0  0
  -24.0270  -10.5950   20.7350 C   0  0  0  0  0  0  0  0  0  0  0  0
  -24.4370   -9.6340   21.6790 C   0  0  0  0  0  3  0  0  0  0  0  0
  -23.6780   -8.4610   21.8570 C   0  0  0  0  0  3  0  0  0  0  0  0
  -22.5080   -8.2550   21.0870 C   0  0  0  0  0  0  0  0  0  0  0  0
  -22.1290   -9.2070   20.1270 C   0  0  0  0  0  3  0  0  0  0  0  0
  -22.8870  -10.3700   19.9460 C   0  0  0  0  0  3  0  0  0  0  0  0
  -21.7150   -7.1410   21.1790 O   0  0  0  0  0  0  0  0  0  0  0  0
  -21.4630   -6.5450   22.3850 C   0  0  0  0  0  0  0  0  0  0  0  0
  -20.8350   -7.2360   23.4440 C   0  0  0  0  0  3  0  0  0  0  0  0
  -20.5330   -6.5590   24.6420 C   0  0  0  0  0  3  0  0  0  0  0  0
  -20.8490   -5.1940   24.7780 C   0  0  0  0  0  0  0  0  0  0  0  0
  -21.4730   -4.5050   23.7220 C   0  0  0  0  0  3  0  0  0  0  0  0
  -21.7780   -5.1800   22.5280 C   0  0  0  0  0  0  0  0  0  0  0  0
  -22.3590   -4.5100   21.5040 F   0  0  0  0  0  0  0  0  0  0  0  0
  -20.5500   -4.5390   25.9240 F   0  0  0  0  0  0  0  0  0  0  0  0
  -23.0680  -13.6930   21.3750 C   0  0  0  0  0  0  0  0  0  0  0  0
  -22.5050  -12.9650   22.3250 N   0  0  0  0  0  0  0  0  0  0  0  0
  -22.6170  -14.7850   21.0320 O   0  0  0  0  0  0  0  0  0  0  0  0
  -22.9060  -12.0860   22.6150 H   0  0  0  0  0  0  0  0  0  0  0  0
  -21.6620  -13.2930   22.7740 H   0  0  0  0  0  0  0  0  0  0  0  0
  -25.4040  -15.3520   20.1570 N   0  0  0  0  0  0  0  0  0  0  0  0
  -24.6170  -15.9560   20.3700 H   0  0  0  0  0  0  0  0  0  0  0  0
  -26.0790  -15.7660   19.5280 H   0  0  0  0  0  0  0  0  0  0  0  0
  -20.2220  -28.6800   20.8750 C   0  0  0  0  0  2  0  0  0  0  0  0
  -20.9510  -29.4330   22.1300 C   0  0  0  0  0  1  0  0  0  0  0  0
  -22.3280  -28.7630   23.5320 C   0  0  0  0  0 15  0  0  0  0  0  0
  -24.0960  -27.4450   23.3870 C   0  0  0  0  0 15  0  0  0  0  0  0
  -25.5380  -26.9280   22.2920 O   0  0  0  0  0  1  0  0  0  0  0  0
  -24.5400  -31.8920   22.8780 C   0  0  0  0  0  0  0  0  0  0  0  0
  -26.5210  -27.4230   21.3160 C   0  0  0  0  0  3  0  0  0  0  0  0
  -23.9850  -30.7590   20.6080 C   0  0  0  0  0  3  0  0  0  0  0  0
  -25.8310  -29.3160   19.6340 C   0  0  0  0  0  3  0  0  0  0  0  0
  -26.3940  -31.0450   21.4010 C   0  0  0  0  0  2  0  0  0  0  0  0
  -26.5930  -29.6660   20.7710 C   0  0  0  0  0  3  0  0  0  0  0  0
  -27.1740  -28.6430   21.5280 C   0  0  0  0  0  2  0  0  0  0  0  0
  -26.4190  -27.0050   19.9600 C   0  0  0  0  0  2  0  0  0  0  0  0
  -25.9010  -28.0030   19.1140 C   0  0  0  0  0  2  0  0  0  0  0  0
  -24.6910  -30.2860   19.3090 C   0  0  0  0  0  2  0  0  0  0  0  0
  -24.9690  -31.4310   21.6270 N   0  0  0  0  0  0  0  0  0  0  0  0
  -23.3320  -32.0270   23.1360 O   0  0  0  0  0  0  0  0  0  0  0  0
  -23.6200  -29.4170   21.1610 C   0  0  0  0  0  0  0  0  0  0  0  0
  -22.8510  -28.3560   20.7220 N   0  0  0  0  0  0  0  0  0  0  0  0
  -24.2210  -29.3500   22.1570 O   0  0  0  0  0  0  0  0  0  0  0  0
  -22.5170  -28.5140   19.7850 H   0  0  0  0  0  0  0  0  0  0  0  0
  -19.1040  -26.2230   21.8420 C   0  0  0  0  0  3  0  0  0  0  0  0
  -21.9520  -27.1040   21.4250 C   0  0  0  0  0  2  0  0  0  0  0  0
  -22.3220  -26.7420   19.8130 C   0  0  0  0  0  2  0  0  0  0  0  0
  -21.3660  -26.5730   18.4800 C   0  0  0  0  0  2  0  0  0  0  0  0
  -19.9900  -25.7490   18.7060 C   0  0  0  0  0  3  0  0  0  0  0  0
  -20.2370  -27.0580   22.5780 C   0  0  0  0  0  2  0  0  0  0  0  0
  -19.7490  -28.1790   23.6340 C   0  0  0  0  0  2  0  0  0  0  0  0
  -18.7430  -29.2410   23.4960 C   0  0  0  0  0  2  0  0  0  0  0  0
  -17.7330  -28.7720   22.6710 C   0  0  0  0  0  2  0  0  0  0  0  0
  -17.8910  -27.3540   22.1580 C   0  0  0  0  0  2  0  0  0  0  0  0
  -25.5420  -32.2320   24.0480 C   0  0  0  0  0  3  0  0  0  0  0  0
  -25.4790  -31.3820   25.3930 C   0  0  1  0  0  0  0  0  0  0  0  0
  -24.0760  -31.2670   26.0250 C   0  0  0  0  0  1  0  0  0  0  0  0
  -26.0310  -29.9590   25.1690 C   0  0  0  0  0  1  0  0  0  0  0  0
  -26.4120  -32.0240   26.4550 C   0  0  0  0  0  1  0  0  0  0  0  0
  -25.3000  -33.6370   24.3530 N   0  0  0  0  0  0  0  0  0  0  0  0
  -25.9840  -34.6300   23.7780 C   0  0  0  0  0  0  0  0  0  0  0  0
  -26.9310  -34.4350   23.0130 O   0  0  0  0  0  0  0  0  0  0  0  0
  -24.5010  -33.8580   24.9270 H   0  0  0  0  0  0  0  0  0  0  0  0
  -24.7150  -36.6140   22.9280 C   0  0  0  0  0  1  0  0  0  0  0  0
  -25.5410  -36.0630   24.1010 C   0  0  0  0  0  3  0  0  0  0  0  0
  -27.3570  -36.6440   25.6440 C   0  0  0  0  0  1  0  0  0  0  0  0
  -26.6740  -36.9660   24.3930 N   0  0  0  0  0  0  0  0  0  0  0  0
  -26.3650  -37.9330   24.4390 H   0  0  0  0  0  0  0  0  0  0  0  0
  2  4  1  0
  3  5  1  0
  3  6  1  0
  5 46  1  6
  5 67  1  0
  6  2  2  0
  7  6  1  0
 11 16  1  0
 12 13  1  0
 12 11  1  0
 14 13  1  0
 14 21  1  0
 14 15  1  0
 16 10  1  0
 16 15  1  0
 17 10  1  0
 18 19  2  0
 19 38  1  0
 20 23  1  0
 20 19  1  0
 21 22  1  0
 21 18  1  0
 22 20  2  0
 23 24  1  0
 24 25  2  0
 26 29  1  0
 26 25  1  0
 27 26  2  0
 28 27  1  0
 28 23  2  0
 29 30  1  0
 30 35  2  0
 30 31  1  0
 31 32  2  0
 32 33  1  0
 33 37  1  0
 34 33  2  0
 35 34  1  0
 36 35  1  0
 38 39  1  0
 39 41  1  0
 39 42  1  0
 40 38  2  0
 43 18  1  0
 43 44  1  0
 45 43  1  0
 46 47  1  0
 51 62  2  0
 52 57  1  0
 52 50  1  0
 53 63  1  0
 53 61  1  0
 54 59  1  0
 54 56  1  0
 55 61  1  0
 56 55  1  0
 56 57  1  0
 58 52  1  0
 59 58  1  0
 60 54  1  0
 60 53  1  0
 61 51  1  0
 63 65  2  0
 64 63  1  0
 64 68  1  0
 66 64  1  0
 67 76  1  0
 67 72  1  0
 69 68  1  0
 70 69  1  0
 71 70  1  0
 71  3  1  0
 71  5  1  0
 72 73  1  0
 74 73  1  0
 75 74  1  0
 76 75  1  0
 77 51  1  0
 77 82  1  0
 77 78  1  0
 78 79  1  1
 78 81  1  0
 80 78  1  0
 82 85  1  0
 83 87  1  0
 83 82  1  0
 84 83  2  0
 87 86  1  0
 87 89  1  0
 89 90  1  0
 89 88  1  0
M  ISO  4   9 100  10 100  49 101  50 101
M  END
>  <TORSDO>  (14) 
F 20

>  <SCORE>  (14) 
-2.486

>  <name>  (14) 
13

>  <ligand_id>  (14) 
13

>  <original_smiles>  (14) 
[H]C(C(=O)N1C([H])([H])C([H])([H])C([H])([H])C([H])(n2nc(-c3c([H])c([H])c(Oc4c([H])c([H])c(F)c([H])c4F)c([H])c3[H])c(C(=O)N([H])[H])c2N([H])[H])C1([H])[H])=C([H])c1c([H])c(C([H])=C([H])C([H])([H])C([H])([H])Oc2c([H])c([H])c3c(c2[H])C([H])([H])N(C(=O)C([H])(N([H])C(=O)C([H])(N([H])C([H])([H])[H])C([H])([H])[H])C(C([H])([H])[H])(C([H])([H])[H])C([H])([H])[H])C([H])(C(=O)N([H])C2([H])c4c([H])c([H])c([H])c([H])c4C([H])([H])C([H])([H])C2([H])[H])C3([H])[H])c([H])c(C([H])([H])[H])c1[H]

>  <smiles>  (14) 
[H]C(C(=O)N1C([H])([H])C([H])([H])C([H])([H])C([H])(n2nc(-c3c([H])c([H])c(Oc4c([H])c([H])c(F)c([H])c4F)c([H])c3[H])c(C(=O)N([H])[H])c2N([H])[H])C1([H])[H])=C([H])c1c([H])c(C([H])=C([H])C([H])([H])C([H])([H])Oc2c([H])c([H])c3c(c2[H])C([H])([H])N(C(=O)C([H])(N([H])C(=O)C([H])(N([H])C([H])([H])[H])C([H])([H])[H])C(C([H])([H])[H])(C([H])([H])[H])C([H])([H])[H])C([H])(C(=O)N([H])C2([H])c4c([H])c([H])c([H])c([H])c4C([H])([H])C([H])([H])C2([H])[H])C3([H])[H])c([H])c(C([H])([H])[H])c1[H]

$$$$
14:0:0
     RDKit          3D

 89 98  0  0  1  0  0  0  0  0999 V2000
  -30.7140  -14.8300   20.3170 C   0  0  0  0  0  0  0  0  0  0  0  0
  -30.4750  -12.4980   19.4260 C   0  0  0  0  0  2  0  0  0  0  0  0
  -29.5610  -12.4880   18.1830 C   0  0  0  0  0  2  0  0  0  0  0  0
  -28.0870  -12.3440   18.6020 C   0  0  0  0  0  2  0  0  0  0  0  0
  -27.6970  -13.3020   19.7600 C   0  0  0  0  0  3  0  0  0  0  0  0
  -28.7410  -13.2930   20.8980 C   0  0  0  0  0  2  0  0  0  0  0  0
  -30.0330  -13.6250   20.2880 N   0  0  0  0  0  0  0  0  0  0  0  0
  -31.9140  -14.8140   20.0180 O   0  0  0  0  0  0  0  0  0  0  0  0
  -28.2850  -20.5680   21.0510 C   0  0  0  0  0  3  0  0  0  0  0  0
  -28.2130  -19.2120   21.5100 C   0  0  0  0  0  3  0  0  0  0  0  0
  -29.9040  -19.9000   19.3900 C   0  0  0  0  0  3  0  0  0  0  0  0
  -29.1190  -20.9760   19.9670 C   0  0  0  0  0  0  0  0  0  0  0  0
  -28.9890  -18.1930   20.9000 C   0  0  0  0  0  0  0  0  0  0  0  0
  -29.8270  -18.5340   19.8630 C   0  0  0  0  0  0  0  0  0  0  0  0
  -29.0670  -16.6730   21.1940 C   0  0  0  0  0  3  0  0  0  0  0  0
  -30.5440  -17.2350   19.4190 C   0  0  0  0  0  3  0  0  0  0  0  0
  -30.0300  -16.0560   20.2250 N   0  0  0  0  0  0  0  0  0  0  0  0
  -25.3180  -13.9400   20.4620 C   0  0  0  0  0  0  0  0  0  0  0  0
  -24.2370  -13.1890   20.8360 C   0  0  0  0  0  0  0  0  0  0  0  0
  -24.6780  -11.8300   20.8300 C   0  0  0  0  0  0  0  0  0  0  0  0
  -26.3490  -13.0390   20.2480 N   0  0  0  0  0  0  0  0  0  0  0  0
  -25.9700  -11.7670   20.5340 N   0  0  0  0  0  0  0  0  0  0  0  0
  -23.9270  -10.5840   21.0320 C   0  0  0  0  0  0  0  0  0  0  0  0
  -24.3550   -9.6040   21.9560 C   0  0  0  0  0  3  0  0  0  0  0  0
  -23.6040   -8.4240   22.1460 C   0  0  0  0  0  3  0  0  0  0  0  0
  -22.4110   -8.2150   21.4130 C   0  0  0  0  0  0  0  0  0  0  0  0
  -22.0030   -9.1820   20.4790 C   0  0  0  0  0  3  0  0  0  0  0  0
  -22.7540  -10.3540   20.2860 C   0  0  0  0  0  3  0  0  0  0  0  0
  -21.6310   -7.0880   21.5140 O   0  0  0  0  0  0  0  0  0  0  0  0
  -21.6100   -6.3280   22.6560 C   0  0  0  0  0  0  0  0  0  0  0  0
  -21.2690   -6.8780   23.9110 C   0  0  0  0  0  3  0  0  0  0  0  0
  -21.1920   -6.0470   25.0460 C   0  0  0  0  0  3  0  0  0  0  0  0
  -21.4430   -4.6670   24.9280 C   0  0  0  0  0  0  0  0  0  0  0  0
  -21.7760   -4.1160   23.6780 C   0  0  0  0  0  3  0  0  0  0  0  0
  -21.8560   -4.9450   22.5450 C   0  0  0  0  0  0  0  0  0  0  0  0
  -22.1560   -4.4050   21.3390 F   0  0  0  0  0  0  0  0  0  0  0  0
  -21.3610   -3.8670   26.0170 F   0  0  0  0  0  0  0  0  0  0  0  0
  -22.8460  -13.6960   21.0860 C   0  0  0  0  0  0  0  0  0  0  0  0
  -22.1010  -13.0320   21.9620 N   0  0  0  0  0  0  0  0  0  0  0  0
  -22.4300  -14.7150   20.5370 O   0  0  0  0  0  0  0  0  0  0  0  0
  -22.4510  -12.2080   22.4280 H   0  0  0  0  0  0  0  0  0  0  0  0
  -21.1680  -13.3550   22.1730 H   0  0  0  0  0  0  0  0  0  0  0  0
  -25.5040  -15.3040   20.2590 N   0  0  0  0  0  0  0  0  0  0  0  0
  -24.7410  -15.9660   20.3430 H   0  0  0  0  0  0  0  0  0  0  0  0
  -26.3500  -15.7190   19.8930 H   0  0  0  0  0  0  0  0  0  0  0  0
  -29.1520  -22.4400   19.4240 C   0  0  0  0  0  3  0  0  0  0  0  0
  -28.5590  -23.6500   19.7920 C   0  0  0  0  0  3  0  0  0  0  0  0
  -28.6310  -25.0400   18.9920 C   0  0  0  0  0  2  0  0  0  0  0  0
  -28.5400  -26.4000   19.6460 O   0  0  0  0  0  0  0  0  0  0  0  0
  -24.6870  -31.6310   22.9040 C   0  0  0  0  0  0  0  0  0  0  0  0
  -27.3960  -27.2430   19.6090 C   0  0  0  0  0  0  0  0  0  0  0  0
  -23.5040  -30.2560   21.2310 C   0  0  0  0  0  3  0  0  0  0  0  0
  -24.9810  -28.8160   19.7100 C   0  0  0  0  0  0  0  0  0  0  0  0
  -26.0320  -30.6600   21.0170 C   0  0  0  0  0  2  0  0  0  0  0  0
  -26.1470  -29.3080   20.3070 C   0  0  0  0  0  0  0  0  0  0  0  0
  -27.3520  -28.5330   20.2490 C   0  0  0  0  0  3  0  0  0  0  0  0
  -26.1960  -26.8180   18.9960 C   0  0  0  0  0  3  0  0  0  0  0  0
  -25.0120  -27.5810   19.0450 C   0  0  0  0  0  3  0  0  0  0  0  0
  -23.7170  -29.6470   19.8200 C   0  0  0  0  0  2  0  0  0  0  0  0
  -24.7610  -30.8670   21.7740 N   0  0  0  0  0  0  0  0  0  0  0  0
  -23.6030  -31.8470   23.4690 O   0  0  0  0  0  0  0  0  0  0  0  0
  -22.8960  -29.1790   22.1620 C   0  0  0  0  0  0  0  0  0  0  0  0
  -21.5690  -28.9830   22.0790 N   0  0  0  0  0  0  0  0  0  0  0  0
  -23.6170  -28.5240   22.9190 O   0  0  0  0  0  0  0  0  0  0  0  0
  -21.0430  -29.5650   21.4420 H   0  0  0  0  0  0  0  0  0  0  0  0
  -18.2340  -27.7000   22.6590 C   0  0  0  0  0  0  0  0  0  0  0  0
  -20.7990  -27.9900   22.8300 C   0  0  0  0  0  3  0  0  0  0  0  0
  -20.8960  -26.5950   22.1710 C   0  0  0  0  0  2  0  0  0  0  0  0
  -19.7550  -26.3100   21.1880 C   0  0  0  0  0  2  0  0  0  0  0  0
  -18.4020  -26.3940   21.9000 C   0  0  0  0  0  2  0  0  0  0  0  0
  -19.3600  -28.4560   23.0820 C   0  0  0  0  0  0  0  0  0  0  0  0
  -19.1480  -29.6790   23.7560 C   0  0  0  0  0  3  0  0  0  0  0  0
  -17.8430  -30.1460   24.0080 C   0  0  0  0  0  3  0  0  0  0  0  0
  -16.7340  -29.3850   23.5990 C   0  0  0  0  0  3  0  0  0  0  0  0
  -16.9310  -28.1640   22.9310 C   0  0  0  0  0  3  0  0  0  0  0  0
  -25.9550  -32.2890   23.5290 C   0  0  0  0  0  3  0  0  0  0  0  0
  -25.5820  -33.6380   23.9790 N   0  0  0  0  0  0  0  0  0  0  0  0
  -25.8350  -34.7660   23.3030 C   0  0  0  0  0  0  0  0  0  0  0  0
  -26.4780  -34.7820   22.2490 O   0  0  0  0  0  0  0  0  0  0  0  0
  -25.0040  -33.6950   24.8050 H   0  0  0  0  0  0  0  0  0  0  0  0
  -24.0040  -36.4850   23.1490 C   0  0  0  0  0  1  0  0  0  0  0  0
  -25.2920  -36.0860   23.8860 C   0  0  0  0  0  3  0  0  0  0  0  0
  -27.4070  -37.0180   24.7160 C   0  0  0  0  0  1  0  0  0  0  0  0
  -26.2630  -37.2000   23.8270 N   0  0  0  0  0  0  0  0  0  0  0  0
  -25.8150  -38.0810   24.0620 H   0  0  0  0  0  0  0  0  0  0  0  0
  -26.5600  -31.4550   24.7260 C   0  0  1  0  0  0  0  0  0  0  0  0
  -25.5250  -31.0870   25.8140 C   0  0  0  0  0  1  0  0  0  0  0  0
  -27.1920  -30.1410   24.2140 C   0  0  0  0  0  1  0  0  0  0  0  0
  -27.6970  -32.2590   25.4010 C   0  0  0  0  0  1  0  0  0  0  0  0
  2  7  1  0
  3  4  1  0
  3  2  1  0
  5  4  1  0
  5 21  1  0
  5  6  1  0
  7  1  1  0
  7  6  1  0
  8  1  2  0
  9 10  2  0
 11 14  1  0
 11 12  2  0
 12  9  1  0
 13 15  2  0
 13 10  1  0
 14 13  1  0
 16 14  2  0
 16 17  1  0
 17  1  1  0
 17 15  1  0
 18 19  2  0
 19 38  1  0
 20 19  1  0
 20 23  1  0
 21 18  1  0
 21 22  1  0
 22 20  2  0
 23 24  1  0
 24 25  2  0
 26 29  1  0
 26 25  1  0
 27 26  2  0
 28 27  1  0
 28 23  2  0
 29 30  1  0
 30 31  1  0
 31 32  2  0
 33 32  1  0
 33 37  1  0
 34 33  2  0
 35 30  2  0
 35 34  1  0
 36 35  1  0
 38 39  1  0
 39 42  1  0
 39 41  1  0
 40 38  2  0
 43 44  1  0
 43 18  1  0
 45 43  1  0
 46 47  2  0
 46 12  1  0
 48 49  1  0
 48 47  1  0
 50 61  2  0
 51 49  1  0
 51 56  1  0
 52 60  1  0
 52 62  1  0
 53 59  1  0
 53 55  1  0
 54 60  1  0
 55 54  1  0
 56 55  2  0
 57 58  1  0
 57 51  2  0
 58 53  2  0
 59 52  1  0
 60 50  1  0
 62 64  2  0
 63 62  1  0
 65 63  1  0
 66 75  2  0
 66 71  1  0
 67 63  1  0
 67 71  1  0
 68 67  1  0
 69 70  1  0
 69 68  1  0
 70 66  1  0
 71 72  2  0
 72 73  1  0
 74 73  2  0
 75 74  1  0
 76 50  1  0
 76 77  1  0
 76 86  1  0
 77 80  1  0
 78 82  1  0
 78 77  1  0
 79 78  2  0
 82 81  1  0
 84 82  1  0
 84 85  1  0
 84 83  1  0
 86 89  1  1
 86 87  1  0
 88 86  1  0
M  ISO  4   1 100  17 100  48 101  49 101
M  END
>  <TORSDO>  (15) 
F 17

>  <SCORE>  (15) 
-12.234

>  <name>  (15) 
14

>  <ligand_id>  (15) 
14

>  <original_smiles>  (15) 
[H]C(=C([H])C([H])([H])Oc1c([H])c([H])c2c(c1[H])C([H])([H])N(C(=O)C([H])(N([H])C(=O)C([H])(N([H])C([H])([H])[H])C([H])([H])[H])C(C([H])([H])[H])(C([H])([H])[H])C([H])([H])[H])C([H])(C(=O)N([H])C1([H])c3c([H])c([H])c([H])c([H])c3C([H])([H])C([H])([H])C1([H])[H])C2([H])[H])c1c([H])c([H])c2c(c1[H])C([H])([H])N(C(=O)N1C([H])([H])C([H])([H])C([H])([H])C([H])(n3nc(-c4c([H])c([H])c(Oc5c([H])c([H])c(F)c([H])c5F)c([H])c4[H])c(C(=O)N([H])[H])c3N([H])[H])C1([H])[H])C2([H])[H]

>  <smiles>  (15) 
[H]C(=C([H])C([H])([H])Oc1c([H])c([H])c2c(c1[H])C([H])([H])N(C(=O)C([H])(N([H])C(=O)C([H])(N([H])C([H])([H])[H])C([H])([H])[H])C(C([H])([H])[H])(C([H])([H])[H])C([H])([H])[H])C([H])(C(=O)N([H])C1([H])c3c([H])c([H])c([H])c([H])c3C([H])([H])C([H])([H])C1([H])[H])C2([H])[H])c1c([H])c([H])c2c(c1[H])C([H])([H])N(C(=O)N1C([H])([H])C([H])([H])C([H])([H])C([H])(n3nc(-c4c([H])c([H])c(Oc5c([H])c([H])c(F)c([H])c5F)c([H])c4[H])c(C(=O)N([H])[H])c3N([H])[H])C1([H])[H])C2([H])[H]

$$$$
15:0:0
     RDKit          3D

 94102  0  0  1  0  0  0  0  0999 V2000
  -29.7620  -22.6100   20.3490 C   0  0  0  0  0  0  0  0  0  0  0  0
  -30.5190  -23.3180   21.0760 N   0  0  0  0  0  0  0  0  0  0  0  0
  -31.0880  -22.7450   21.6890 H   0  0  0  0  0  0  0  0  0  0  0  0
  -29.5060  -19.0010   19.1830 C   0  0  0  0  0  3  0  0  0  0  0  0
  -29.3750  -20.3970   19.2710 C   0  0  0  0  0  3  0  0  0  0  0  0
  -30.2710  -18.9160   21.4740 C   0  0  0  0  0  3  0  0  0  0  0  0
  -30.0010  -18.2460   20.2610 C   0  0  0  0  0  0  0  0  0  0  0  0
  -29.7630  -21.1060   20.4330 C   0  0  0  0  0  0  0  0  0  0  0  0
  -30.1690  -20.3300   21.5710 C   0  0  0  0  0  0  0  0  0  0  0  0
  -30.5340  -20.9400   22.9220 C   0  0  0  0  0  1  0  0  0  0  0  0
  -30.2950  -16.8200   20.0110 C   0  0  0  0  0  3  0  0  0  0  0  0
  -30.2260  -15.7170   20.7980 C   0  0  0  0  0  3  0  0  0  0  0  0
  -30.8340  -14.5080   20.2370 C   0  0  0  0  0  0  0  0  0  0  0  0
  -30.4030  -12.3680   19.1100 C   0  0  0  0  0  2  0  0  0  0  0  0
  -29.4770  -12.6470   17.9100 C   0  0  0  0  0  2  0  0  0  0  0  0
  -27.9990  -12.5500   18.3420 C   0  0  0  0  0  2  0  0  0  0  0  0
  -27.6930  -13.3420   19.6450 C   0  0  0  0  0  3  0  0  0  0  0  0
  -28.7690  -13.1140   20.7310 C   0  0  0  0  0  2  0  0  0  0  0  0
  -30.0890  -13.3690   20.1440 N   0  0  0  0  0  0  0  0  0  0  0  0
  -31.9550  -14.5730   19.7310 O   0  0  0  0  0  0  0  0  0  0  0  0
  -25.3090  -13.9310   20.4150 C   0  0  0  0  0  0  0  0  0  0  0  0
  -24.2510  -13.1560   20.8100 C   0  0  0  0  0  0  0  0  0  0  0  0
  -24.7140  -11.8050   20.7670 C   0  0  0  0  0  0  0  0  0  0  0  0
  -26.3510  -13.0550   20.1510 N   0  0  0  0  0  0  0  0  0  0  0  0
  -25.9980  -11.7700   20.4200 N   0  0  0  0  0  0  0  0  0  0  0  0
  -23.9920  -10.5400   20.9650 C   0  0  0  0  0  0  0  0  0  0  0  0
  -24.4350   -9.5770   21.8950 C   0  0  0  0  0  3  0  0  0  0  0  0
  -23.7080   -8.3820   22.0870 C   0  0  0  0  0  3  0  0  0  0  0  0
  -22.5250   -8.1420   21.3490 C   0  0  0  0  0  0  0  0  0  0  0  0
  -22.1030   -9.0950   20.4050 C   0  0  0  0  0  3  0  0  0  0  0  0
  -22.8300  -10.2800   20.2100 C   0  0  0  0  0  3  0  0  0  0  0  0
  -21.7720   -6.9960   21.4500 O   0  0  0  0  0  0  0  0  0  0  0  0
  -21.7240   -6.2650   22.6110 C   0  0  0  0  0  0  0  0  0  0  0  0
  -21.2940   -6.8280   23.8320 C   0  0  0  0  0  3  0  0  0  0  0  0
  -21.1920   -6.0210   24.9830 C   0  0  0  0  0  3  0  0  0  0  0  0
  -21.5110   -4.6520   24.9120 C   0  0  0  0  0  0  0  0  0  0  0  0
  -21.9380   -4.0880   23.6960 C   0  0  0  0  0  3  0  0  0  0  0  0
  -22.0420   -4.8930   22.5500 C   0  0  0  0  0  0  0  0  0  0  0  0
  -22.4280   -4.3400   21.3750 F   0  0  0  0  0  0  0  0  0  0  0  0
  -21.4070   -3.8740   26.0140 F   0  0  0  0  0  0  0  0  0  0  0  0
  -22.8610  -13.6350   21.1080 C   0  0  0  0  0  0  0  0  0  0  0  0
  -22.1470  -12.9430   21.9910 N   0  0  0  0  0  0  0  0  0  0  0  0
  -22.4120  -14.6580   20.5950 O   0  0  0  0  0  0  0  0  0  0  0  0
  -22.5160  -12.1180   22.4440 H   0  0  0  0  0  0  0  0  0  0  0  0
  -21.2090  -13.2430   22.2120 H   0  0  0  0  0  0  0  0  0  0  0  0
  -25.4630  -15.3020   20.2420 N   0  0  0  0  0  0  0  0  0  0  0  0
  -24.6980  -15.9480   20.3960 H   0  0  0  0  0  0  0  0  0  0  0  0
  -26.3090  -15.7620   19.9300 H   0  0  0  0  0  0  0  0  0  0  0  0
  -28.9410  -23.3550   19.3570 C   0  0  0  0  0  3  0  0  0  0  0  0
  -29.4640  -24.3210   18.5720 C   0  0  0  0  0  3  0  0  0  0  0  0
  -28.6850  -25.2200   17.6200 C   0  0  0  0  0  2  0  0  0  0  0  0
  -29.0130  -26.7310   17.7890 C   0  0  0  0  0  2  0  0  0  0  0  0
  -29.3150  -27.2140   19.2250 C   0  0  0  0  0  2  0  0  0  0  0  0
  -28.3220  -26.7820   20.1390 O   0  0  0  0  0  0  0  0  0  0  0  0
  -24.5770  -31.9540   23.2480 C   0  0  0  0  0  0  0  0  0  0  0  0
  -27.1790  -27.5320   20.1580 C   0  0  0  0  0  0  0  0  0  0  0  0
  -23.3500  -30.5550   21.6200 C   0  0  0  0  0  3  0  0  0  0  0  0
  -24.7880  -29.0090   20.1920 C   0  0  0  0  0  0  0  0  0  0  0  0
  -25.8740  -30.9170   21.3950 C   0  0  0  0  0  2  0  0  0  0  0  0
  -25.9510  -29.5460   20.7640 C   0  0  0  0  0  0  0  0  0  0  0  0
  -27.1530  -28.8130   20.7480 C   0  0  0  0  0  3  0  0  0  0  0  0
  -26.0010  -26.9880   19.6150 C   0  0  0  0  0  3  0  0  0  0  0  0
  -24.8040  -27.7260   19.6180 C   0  0  0  0  0  3  0  0  0  0  0  0
  -23.5490  -29.8740   20.2380 C   0  0  0  0  0  2  0  0  0  0  0  0
  -24.6200  -31.1530   22.1490 N   0  0  0  0  0  0  0  0  0  0  0  0
  -23.4990  -32.2300   23.7970 O   0  0  0  0  0  0  0  0  0  0  0  0
  -22.7020  -29.5370   22.5860 C   0  0  0  0  0  0  0  0  0  0  0  0
  -21.3800  -29.3470   22.4580 N   0  0  0  0  0  0  0  0  0  0  0  0
  -23.3890  -28.9180   23.4040 O   0  0  0  0  0  0  0  0  0  0  0  0
  -20.8850  -29.8980   21.7700 H   0  0  0  0  0  0  0  0  0  0  0  0
  -18.0120  -28.1400   22.9680 C   0  0  0  0  0  0  0  0  0  0  0  0
  -20.5680  -28.4140   23.2400 C   0  0  0  0  0  3  0  0  0  0  0  0
  -20.6770  -26.9750   22.6820 C   0  0  0  0  0  2  0  0  0  0  0  0
  -19.5810  -26.6350   21.6680 C   0  0  0  0  0  2  0  0  0  0  0  0
  -18.1980  -26.7810   22.3070 C   0  0  0  0  0  2  0  0  0  0  0  0
  -19.1260  -28.9100   23.3920 C   0  0  0  0  0  0  0  0  0  0  0  0
  -18.8980  -30.1780   23.9690 C   0  0  0  0  0  3  0  0  0  0  0  0
  -17.5920  -30.6780   24.1190 C   0  0  0  0  0  3  0  0  0  0  0  0
  -16.4920  -29.9040   23.7100 C   0  0  0  0  0  3  0  0  0  0  0  0
  -16.7040  -28.6340   23.1430 C   0  0  0  0  0  3  0  0  0  0  0  0
  -25.8710  -32.5830   23.8560 C   0  0  0  0  0  3  0  0  0  0  0  0
  -25.5670  -33.9830   24.1830 N   0  0  0  0  0  0  0  0  0  0  0  0
  -25.9010  -35.0340   23.4210 C   0  0  0  0  0  0  0  0  0  0  0  0
  -26.5690  -34.9240   22.3910 O   0  0  0  0  0  0  0  0  0  0  0  0
  -24.9660  -34.1400   24.9810 H   0  0  0  0  0  0  0  0  0  0  0  0
  -24.1830  -36.8380   23.0580 C   0  0  0  0  0  1  0  0  0  0  0  0
  -25.4160  -36.4250   23.8780 C   0  0  0  0  0  3  0  0  0  0  0  0
  -27.5530  -37.2970   24.7210 C   0  0  0  0  0  1  0  0  0  0  0  0
  -26.4550  -37.4730   23.7730 N   0  0  0  0  0  0  0  0  0  0  0  0
  -26.0520  -38.3940   23.9230 H   0  0  0  0  0  0  0  0  0  0  0  0
  -26.3990  -31.8100   25.1240 C   0  0  1  0  0  0  0  0  0  0  0  0
  -25.3140  -31.5640   26.1980 C   0  0  0  0  0  1  0  0  0  0  0  0
  -26.9840  -30.4350   24.7260 C   0  0  0  0  0  1  0  0  0  0  0  0
  -27.5500  -32.6060   25.7860 C   0  0  0  0  0  1  0  0  0  0  0  0
  1  8  1  0
  1  2  2  0
  2  3  1  0
  4  5  2  0
  4  7  1  0
  5  8  1  0
  6  9  1  0
  7  6  2  0
  8  9  2  0
  9 10  1  0
 11  7  1  0
 11 12  2  0
 13 12  1  0
 14 19  1  0
 15 16  1  0
 15 14  1  0
 17 16  1  0
 17 24  1  0
 17 18  1  0
 19 13  1  0
 19 18  1  0
 20 13  2  0
 21 22  2  0
 22 41  1  0
 23 22  1  0
 23 26  1  0
 24 21  1  0
 24 25  1  0
 25 23  2  0
 26 27  1  0
 27 28  2  0
 29 32  1  0
 29 28  1  0
 30 29  2  0
 31 30  1  0
 31 26  2  0
 32 33  1  0
 33 34  1  0
 34 35  2  0
 36 35  1  0
 36 40  1  0
 37 36  2  0
 38 33  2  0
 38 37  1  0
 39 38  1  0
 41 42  1  0
 42 45  1  0
 42 44  1  0
 43 41  2  0
 46 47  1  0
 46 21  1  0
 48 46  1  0
 49  1  1  0
 50 49  2  0
 51 52  1  0
 51 50  1  0
 52 53  1  0
 53 54  1  0
 54 56  1  0
 55 66  2  0
 56 61  1  0
 57 65  1  0
 57 67  1  0
 58 64  1  0
 58 60  1  0
 59 65  1  0
 60 59  1  0
 61 60  2  0
 62 63  1  0
 62 56  2  0
 63 58  2  0
 64 57  1  0
 65 55  1  0
 67 69  2  0
 68 67  1  0
 70 68  1  0
 71 80  2  0
 71 76  1  0
 72 68  1  0
 72 76  1  0
 73 72  1  0
 74 75  1  0
 74 73  1  0
 75 71  1  0
 76 77  2  0
 77 78  1  0
 79 78  2  0
 80 79  1  0
 81 55  1  0
 81 82  1  0
 81 91  1  0
 82 85  1  0
 83 87  1  0
 83 82  1  0
 84 83  2  0
 87 86  1  0
 89 87  1  0
 89 90  1  0
 89 88  1  0
 91 94  1  1
 91 92  1  0
 93 91  1  0
M  ISO  4  12 100  13 100  53 101  54 101
M  END
>  <TORSDO>  (16) 
F 22

>  <SCORE>  (16) 
-13.198

>  <name>  (16) 
15

>  <ligand_id>  (16) 
15

>  <original_smiles>  (16) 
[H]N=C(C([H])=C([H])C([H])([H])C([H])([H])C([H])([H])Oc1c([H])c([H])c2c(c1[H])C([H])([H])N(C(=O)C([H])(N([H])C(=O)C([H])(N([H])C([H])([H])[H])C([H])([H])[H])C(C([H])([H])[H])(C([H])([H])[H])C([H])([H])[H])C([H])(C(=O)N([H])C1([H])c3c([H])c([H])c([H])c([H])c3C([H])([H])C([H])([H])C1([H])[H])C2([H])[H])c1c([H])c([H])c(C([H])=C([H])C(=O)N2C([H])([H])C([H])([H])C([H])([H])C([H])(n3nc(-c4c([H])c([H])c(Oc5c([H])c([H])c(F)c([H])c5F)c([H])c4[H])c(C(=O)N([H])[H])c3N([H])[H])C2([H])[H])c([H])c1C([H])([H])[H]

>  <smiles>  (16) 
[H]N=C(C([H])=C([H])C([H])([H])C([H])([H])C([H])([H])Oc1c([H])c([H])c2c(c1[H])C([H])([H])N(C(=O)C([H])(N([H])C(=O)C([H])(N([H])C([H])([H])[H])C([H])([H])[H])C(C([H])([H])[H])(C([H])([H])[H])C([H])([H])[H])C([H])(C(=O)N([H])C1([H])c3c([H])c([H])c([H])c([H])c3C([H])([H])C([H])([H])C1([H])[H])C2([H])[H])c1c([H])c([H])c(C([H])=C([H])C(=O)N2C([H])([H])C([H])([H])C([H])([H])C([H])(n3nc(-c4c([H])c([H])c(Oc5c([H])c([H])c(F)c([H])c5F)c([H])c4[H])c(C(=O)N([H])[H])c3N([H])[H])C2([H])[H])c([H])c1C([H])([H])[H]

$$$$
16:0:0
     RDKit          3D

 91 99  0  0  1  0  0  0  0  0999 V2000
  -29.7660  -21.4330   20.2610 C   0  0  0  0  0  3  0  0  0  0  0  0
  -29.4420  -22.7650   20.5610 C   0  0  0  0  0  3  0  0  0  0  0  0
  -32.6480  -21.0250   22.6730 C   0  0  0  0  0  3  0  0  0  0  0  0
  -31.4370  -21.3390   22.0500 C   0  0  0  0  0  3  0  0  0  0  0  0
  -33.4130  -19.9750   22.1770 C   0  0  0  0  0  3  0  0  0  0  0  0
  -30.9020  -20.6190   20.9450 C   0  0  0  0  0  0  0  0  0  0  0  0
  -32.9020  -19.1490   21.1640 C   0  0  0  0  0  0  0  0  0  0  0  0
  -31.5800  -19.3310   20.6370 C   0  0  0  0  0  0  0  0  0  0  0  0
  -33.8680  -18.0740   20.6720 C   0  0  0  0  0  1  0  0  0  0  0  0
  -31.0600  -18.0680   19.8270 C   0  0  0  0  0  2  0  0  0  0  0  0
  -30.7840  -16.6990   20.6810 C   0  0  0  0  0  2  0  0  0  0  0  0
  -31.6480  -15.3410   20.5880 C   0  0  0  0  0  0  0  0  0  0  0  0
  -31.4960  -12.9960   19.7240 C   0  0  0  0  0  2  0  0  0  0  0  0
  -30.6590  -13.0210   18.4230 C   0  0  0  0  0  2  0  0  0  0  0  0
  -29.1510  -12.9250   18.7330 C   0  0  0  0  0  2  0  0  0  0  0  0
  -28.7120  -13.9000   19.8550 C   0  0  0  0  0  3  0  0  0  0  0  0
  -29.6700  -13.8330   21.0630 C   0  0  0  0  0  2  0  0  0  0  0  0
  -31.0290  -14.1080   20.5800 N   0  0  0  0  0  0  0  0  0  0  0  0
  -32.8570  -15.4090   20.3450 O   0  0  0  0  0  0  0  0  0  0  0  0
  -26.3150  -14.6450   20.3940 C   0  0  0  0  0  0  0  0  0  0  0  0
  -25.1810  -13.9390   20.6930 C   0  0  0  0  0  0  0  0  0  0  0  0
  -25.5660  -12.5640   20.7140 C   0  0  0  0  0  0  0  0  0  0  0  0
  -27.3210  -13.7010   20.2470 N   0  0  0  0  0  0  0  0  0  0  0  0
  -26.8710  -12.4460   20.5030 N   0  0  0  0  0  0  0  0  0  0  0  0
  -24.7560  -11.3480   20.8660 C   0  0  0  0  0  0  0  0  0  0  0  0
  -25.0500  -10.3830   21.8540 C   0  0  0  0  0  3  0  0  0  0  0  0
  -24.2440   -9.2320   21.9910 C   0  0  0  0  0  3  0  0  0  0  0  0
  -23.1310   -9.0390   21.1390 C   0  0  0  0  0  0  0  0  0  0  0  0
  -22.8570   -9.9910   20.1420 C   0  0  0  0  0  3  0  0  0  0  0  0
  -23.6630  -11.1340   20.0030 C   0  0  0  0  0  3  0  0  0  0  0  0
  -22.3090   -7.9390   21.1830 O   0  0  0  0  0  0  0  0  0  0  0  0
  -22.0830   -7.2540   22.3500 C   0  0  0  0  0  0  0  0  0  0  0  0
  -21.5390   -7.8860   23.4900 C   0  0  0  0  0  3  0  0  0  0  0  0
  -21.2590   -7.1300   24.6460 C   0  0  0  0  0  3  0  0  0  0  0  0
  -21.5120   -5.7450   24.6620 C   0  0  0  0  0  0  0  0  0  0  0  0
  -22.0480   -5.1140   23.5250 C   0  0  0  0  0  3  0  0  0  0  0  0
  -22.3300   -5.8670   22.3720 C   0  0  0  0  0  0  0  0  0  0  0  0
  -22.8270   -5.2510   21.2730 F   0  0  0  0  0  0  0  0  0  0  0  0
  -21.2350   -5.0180   25.7690 F   0  0  0  0  0  0  0  0  0  0  0  0
  -23.7970  -14.5000   20.8530 C   0  0  0  0  0  0  0  0  0  0  0  0
  -22.9750  -13.8750   21.6880 N   0  0  0  0  0  0  0  0  0  0  0  0
  -23.4530  -15.5280   20.2720 O   0  0  0  0  0  0  0  0  0  0  0  0
  -23.2650  -13.0430   22.1820 H   0  0  0  0  0  0  0  0  0  0  0  0
  -22.0430  -14.2330   21.8360 H   0  0  0  0  0  0  0  0  0  0  0  0
  -26.5720  -16.0000   20.2140 N   0  0  0  0  0  0  0  0  0  0  0  0
  -25.8410  -16.7020   20.2690 H   0  0  0  0  0  0  0  0  0  0  0  0
  -27.4730  -16.3870   19.9640 H   0  0  0  0  0  0  0  0  0  0  0  0
  -28.3440  -23.7230   20.0580 C   0  0  0  0  0  0  0  0  0  0  0  0
  -27.6090  -23.4280   19.1110 O   0  0  0  0  0  0  0  0  0  0  0  0
  -28.1290  -25.1360   20.7970 C   0  0  0  0  0  2  0  0  0  0  0  0
  -28.2790  -26.4320   20.0500 O   0  0  0  0  0  0  0  0  0  0  0  0
  -24.6590  -31.8480   23.2880 C   0  0  0  0  0  0  0  0  0  0  0  0
  -27.1830  -27.3190   20.0870 C   0  0  0  0  0  0  0  0  0  0  0  0
  -23.4070  -30.4700   21.6680 C   0  0  0  0  0  3  0  0  0  0  0  0
  -24.8180  -28.9420   20.1710 C   0  0  0  0  0  0  0  0  0  0  0  0
  -25.9400  -30.7960   21.4040 C   0  0  0  0  0  2  0  0  0  0  0  0
  -26.0060  -29.4240   20.7350 C   0  0  0  0  0  0  0  0  0  0  0  0
  -27.1950  -28.6270   20.6770 C   0  0  0  0  0  3  0  0  0  0  0  0
  -25.9720  -26.9000   19.4980 C   0  0  0  0  0  3  0  0  0  0  0  0
  -24.8040  -27.6880   19.5400 C   0  0  0  0  0  3  0  0  0  0  0  0
  -23.5800  -29.8140   20.2720 C   0  0  0  0  0  2  0  0  0  0  0  0
  -24.6900  -31.0560   22.1760 N   0  0  0  0  0  0  0  0  0  0  0  0
  -23.5920  -32.1120   23.8640 O   0  0  0  0  0  0  0  0  0  0  0  0
  -22.7790  -29.4370   22.6360 C   0  0  0  0  0  0  0  0  0  0  0  0
  -21.4680  -29.1820   22.4850 N   0  0  0  0  0  0  0  0  0  0  0  0
  -23.4730  -28.8670   23.4820 O   0  0  0  0  0  0  0  0  0  0  0  0
  -20.9650  -29.6970   21.7750 H   0  0  0  0  0  0  0  0  0  0  0  0
  -18.1920  -27.6840   22.8260 C   0  0  0  0  0  0  0  0  0  0  0  0
  -20.6850  -28.2140   23.2570 C   0  0  0  0  0  3  0  0  0  0  0  0
  -20.9680  -26.7690   22.7850 C   0  0  0  0  0  2  0  0  0  0  0  0
  -19.9820  -26.2780   21.7200 C   0  0  0  0  0  2  0  0  0  0  0  0
  -18.5470  -26.3220   22.2550 C   0  0  0  0  0  2  0  0  0  0  0  0
  -19.1960  -28.5790   23.2820 C   0  0  0  0  0  0  0  0  0  0  0  0
  -18.8130  -29.8460   23.7720 C   0  0  0  0  0  3  0  0  0  0  0  0
  -17.4560  -30.2220   23.8140 C   0  0  0  0  0  3  0  0  0  0  0  0
  -16.4660  -29.3260   23.3760 C   0  0  0  0  0  3  0  0  0  0  0  0
  -16.8340  -28.0600   22.8870 C   0  0  0  0  0  3  0  0  0  0  0  0
  -25.9570  -32.4790   23.8780 C   0  0  0  0  0  3  0  0  0  0  0  0
  -25.6680  -33.8860   24.1890 N   0  0  0  0  0  0  0  0  0  0  0  0
  -26.0240  -34.9250   23.4210 C   0  0  0  0  0  0  0  0  0  0  0  0
  -26.6990  -34.7980   22.3970 O   0  0  0  0  0  0  0  0  0  0  0  0
  -25.0720  -34.0590   24.9850 H   0  0  0  0  0  0  0  0  0  0  0  0
  -24.3290  -36.7440   23.0350 C   0  0  0  0  0  1  0  0  0  0  0  0
  -25.5580  -36.3270   23.8600 C   0  0  0  0  0  3  0  0  0  0  0  0
  -27.7020  -37.1840   24.6960 C   0  0  0  0  0  1  0  0  0  0  0  0
  -26.6100  -37.3600   23.7420 N   0  0  0  0  0  0  0  0  0  0  0  0
  -26.2190  -38.2900   23.8780 H   0  0  0  0  0  0  0  0  0  0  0  0
  -26.4850  -31.7270   25.1620 C   0  0  1  0  0  0  0  0  0  0  0  0
  -25.4070  -31.5210   26.2510 C   0  0  0  0  0  1  0  0  0  0  0  0
  -27.0470  -30.3340   24.7880 C   0  0  0  0  0  1  0  0  0  0  0  0
  -27.6550  -32.5190   25.7900 C   0  0  0  0  0  1  0  0  0  0  0  0
  1  2  2  0
  1  6  1  0
  4  3  2  0
  5  3  1  0
  6  4  1  0
  7  5  2  0
  8  6  2  0
  8  7  1  0
  9  7  1  0
 10  8  1  0
 10 11  1  0
 12 11  1  0
 13 18  1  0
 14 15  1  0
 14 13  1  0
 16 15  1  0
 16 23  1  0
 16 17  1  0
 18 12  1  0
 18 17  1  0
 19 12  2  0
 20 21  2  0
 21 22  1  0
 21 40  1  0
 22 25  1  0
 23 20  1  0
 23 24  1  0
 24 22  2  0
 25 26  1  0
 26 27  2  0
 28 31  1  0
 28 27  1  0
 29 28  2  0
 30 29  1  0
 30 25  2  0
 31 32  1  0
 32 37  2  0
 32 33  1  0
 33 34  2  0
 34 35  1  0
 35 39  1  0
 36 35  2  0
 37 36  1  0
 38 37  1  0
 40 41  1  0
 41 44  1  0
 41 43  1  0
 42 40  2  0
 45 46  1  0
 45 20  1  0
 47 45  1  0
 48  2  1  0
 48 50  1  0
 49 48  2  0
 51 53  1  0
 51 50  1  0
 52 63  2  0
 53 58  1  0
 54 62  1  0
 54 64  1  0
 55 61  1  0
 55 57  1  0
 56 62  1  0
 57 56  1  0
 58 57  2  0
 59 60  1  0
 59 53  2  0
 60 55  2  0
 61 54  1  0
 62 52  1  0
 64 66  2  0
 65 64  1  0
 67 65  1  0
 68 77  2  0
 68 73  1  0
 69 65  1  0
 69 73  1  0
 70 69  1  0
 71 72  1  0
 71 70  1  0
 72 68  1  0
 73 74  2  0
 74 75  1  0
 76 75  2  0
 77 76  1  0
 78 52  1  0
 78 79  1  0
 78 88  1  0
 79 82  1  0
 80 84  1  0
 80 79  1  0
 81 80  2  0
 84 83  1  0
 86 84  1  0
 86 87  1  0
 86 85  1  0
 88 91  1  1
 88 89  1  0
 90 88  1  0
M  ISO  4  11 100  12 100  50 101  51 101
M  END
>  <TORSDO>  (17) 
F 21

>  <SCORE>  (17) 
-11.405

>  <name>  (17) 
16

>  <ligand_id>  (17) 
16

>  <original_smiles>  (17) 
[H]C(C(=O)C([H])([H])Oc1c([H])c([H])c2c(c1[H])C([H])([H])N(C(=O)C([H])(N([H])C(=O)C([H])(N([H])C([H])([H])[H])C([H])([H])[H])C(C([H])([H])[H])(C([H])([H])[H])C([H])([H])[H])C([H])(C(=O)N([H])C1([H])c3c([H])c([H])c([H])c([H])c3C([H])([H])C([H])([H])C1([H])[H])C2([H])[H])=C([H])c1c([H])c([H])c([H])c(C([H])([H])[H])c1C([H])([H])C([H])([H])C(=O)N1C([H])([H])C([H])([H])C([H])([H])C([H])(n2nc(-c3c([H])c([H])c(Oc4c([H])c([H])c(F)c([H])c4F)c([H])c3[H])c(C(=O)N([H])[H])c2N([H])[H])C1([H])[H]

>  <smiles>  (17) 
[H]C(C(=O)C([H])([H])Oc1c([H])c([H])c2c(c1[H])C([H])([H])N(C(=O)C([H])(N([H])C(=O)C([H])(N([H])C([H])([H])[H])C([H])([H])[H])C(C([H])([H])[H])(C([H])([H])[H])C([H])([H])[H])C([H])(C(=O)N([H])C1([H])c3c([H])c([H])c([H])c([H])c3C([H])([H])C([H])([H])C1([H])[H])C2([H])[H])=C([H])c1c([H])c([H])c([H])c(C([H])([H])[H])c1C([H])([H])C([H])([H])C(=O)N1C([H])([H])C([H])([H])C([H])([H])C([H])(n2nc(-c3c([H])c([H])c(Oc4c([H])c([H])c(F)c([H])c4F)c([H])c3[H])c(C(=O)N([H])[H])c2N([H])[H])C1([H])[H]

$$$$
17:0:0
     RDKit          3D

 92100  0  0  1  0  0  0  0  0999 V2000
  -31.2370  -19.3990   20.8110 C   0  0  0  0  0  3  0  0  0  0  0  0
  -31.1900  -17.9690   20.8510 C   0  0  0  0  0  3  0  0  0  0  0  0
  -28.9030  -19.4930   20.3020 C   0  0  0  0  0  3  0  0  0  0  0  0
  -30.0930  -20.2080   20.5550 C   0  0  0  0  0  0  0  0  0  0  0  0
  -28.8430  -18.0700   20.3440 C   0  0  0  0  0  0  0  0  0  0  0  0
  -29.9800  -17.2550   20.6360 C   0  0  0  0  0  0  0  0  0  0  0  0
  -30.6370  -14.7270   20.5110 C   0  0  0  0  0  0  0  0  0  0  0  0
  -30.4280  -12.4820   19.4610 C   0  0  0  0  0  2  0  0  0  0  0  0
  -29.4920  -12.6010   18.2370 C   0  0  0  0  0  2  0  0  0  0  0  0
  -28.0170  -12.4340   18.6540 C   0  0  0  0  0  2  0  0  0  0  0  0
  -27.6370  -13.2940   19.8900 C   0  0  0  0  0  3  0  0  0  0  0  0
  -28.6970  -13.1620   21.0100 C   0  0  0  0  0  2  0  0  0  0  0  0
  -30.0090  -13.5070   20.4350 N   0  0  0  0  0  0  0  0  0  0  0  0
  -31.8140  -14.8650   20.1690 O   0  0  0  0  0  0  0  0  0  0  0  0
  -29.8230  -15.7980   20.7750 N   0  0  0  0  0  0  0  0  0  0  0  0
  -28.8780  -15.5040   20.9570 H   0  0  0  0  0  0  0  0  0  0  0  0
  -25.2220  -13.8640   20.5830 C   0  0  0  0  0  0  0  0  0  0  0  0
  -24.1620  -13.0890   20.9490 C   0  0  0  0  0  0  0  0  0  0  0  0
  -24.6360  -11.7440   20.9140 C   0  0  0  0  0  0  0  0  0  0  0  0
  -26.2840  -13.0000   20.3610 N   0  0  0  0  0  0  0  0  0  0  0  0
  -25.9320  -11.7150   20.6190 N   0  0  0  0  0  0  0  0  0  0  0  0
  -23.9110  -10.4820   21.0840 C   0  0  0  0  0  0  0  0  0  0  0  0
  -24.3280   -9.5160   22.0250 C   0  0  0  0  0  3  0  0  0  0  0  0
  -23.6000   -8.3180   22.1870 C   0  0  0  0  0  3  0  0  0  0  0  0
  -22.4440   -8.0790   21.4070 C   0  0  0  0  0  0  0  0  0  0  0  0
  -22.0470   -9.0360   20.4560 C   0  0  0  0  0  3  0  0  0  0  0  0
  -22.7750  -10.2250   20.2920 C   0  0  0  0  0  3  0  0  0  0  0  0
  -21.6900   -6.9330   21.4780 O   0  0  0  0  0  0  0  0  0  0  0  0
  -21.6070   -6.1990   22.6340 C   0  0  0  0  0  0  0  0  0  0  0  0
  -21.1250   -6.7570   23.8380 C   0  0  0  0  0  3  0  0  0  0  0  0
  -20.9880   -5.9480   24.9830 C   0  0  0  0  0  3  0  0  0  0  0  0
  -21.3260   -4.5830   24.9260 C   0  0  0  0  0  0  0  0  0  0  0  0
  -21.8020   -4.0240   23.7270 C   0  0  0  0  0  3  0  0  0  0  0  0
  -21.9400   -4.8300   22.5840 C   0  0  0  0  0  0  0  0  0  0  0  0
  -22.3790   -4.2830   21.4240 F   0  0  0  0  0  0  0  0  0  0  0  0
  -21.1880   -3.8040   26.0240 F   0  0  0  0  0  0  0  0  0  0  0  0
  -22.7620  -13.5650   21.2060 C   0  0  0  0  0  0  0  0  0  0  0  0
  -22.0280  -12.8720   22.0680 N   0  0  0  0  0  0  0  0  0  0  0  0
  -22.3290  -14.5900   20.6810 O   0  0  0  0  0  0  0  0  0  0  0  0
  -22.3910  -12.0440   22.5170 H   0  0  0  0  0  0  0  0  0  0  0  0
  -21.0890  -13.1740   22.2830 H   0  0  0  0  0  0  0  0  0  0  0  0
  -25.3390  -15.2300   20.3920 N   0  0  0  0  0  0  0  0  0  0  0  0
  -24.5190  -15.8250   20.4310 H   0  0  0  0  0  0  0  0  0  0  0  0
  -26.1110  -15.6540   19.8980 H   0  0  0  0  0  0  0  0  0  0  0  0
  -30.1580  -21.7290   20.5780 C   0  0  0  0  0  3  0  0  0  0  0  0
  -29.1810  -22.6620   20.3290 C   0  0  0  0  0  3  0  0  0  0  0  0
  -29.3710  -24.1690   20.4220 C   0  0  0  0  0  0  0  0  0  0  0  0
  -30.4400  -24.6630   20.7950 O   0  0  0  0  0  0  0  0  0  0  0  0
  -28.1900  -25.1410   20.0410 C   0  0  0  0  0  2  0  0  0  0  0  0
  -28.3880  -26.5780   20.3310 O   0  0  0  0  0  0  0  0  0  0  0  0
  -24.6240  -31.9710   23.3030 C   0  0  0  0  0  0  0  0  0  0  0  0
  -27.2560  -27.4090   20.2760 C   0  0  0  0  0  0  0  0  0  0  0  0
  -23.4300  -30.5760   21.6510 C   0  0  0  0  0  3  0  0  0  0  0  0
  -24.8880  -29.0150   20.2480 C   0  0  0  0  0  0  0  0  0  0  0  0
  -25.9730  -30.8820   21.4970 C   0  0  0  0  0  2  0  0  0  0  0  0
  -26.0520  -29.5040   20.8550 C   0  0  0  0  0  0  0  0  0  0  0  0
  -27.2380  -28.7120   20.8610 C   0  0  0  0  0  3  0  0  0  0  0  0
  -26.0640  -26.9680   19.6530 C   0  0  0  0  0  3  0  0  0  0  0  0
  -24.8940  -27.7510   19.6420 C   0  0  0  0  0  3  0  0  0  0  0  0
  -23.6570  -29.8960   20.2760 C   0  0  0  0  0  2  0  0  0  0  0  0
  -24.6930  -31.1590   22.2080 N   0  0  0  0  0  0  0  0  0  0  0  0
  -23.5360  -32.2570   23.8240 O   0  0  0  0  0  0  0  0  0  0  0  0
  -22.7500  -29.5650   22.6050 C   0  0  0  0  0  0  0  0  0  0  0  0
  -21.4240  -29.3990   22.4630 N   0  0  0  0  0  0  0  0  0  0  0  0
  -23.4140  -28.9340   23.4320 O   0  0  0  0  0  0  0  0  0  0  0  0
  -20.9480  -29.9610   21.7700 H   0  0  0  0  0  0  0  0  0  0  0  0
  -18.0280  -28.2490   22.9400 C   0  0  0  0  0  0  0  0  0  0  0  0
  -20.5880  -28.4720   23.2260 C   0  0  0  0  0  3  0  0  0  0  0  0
  -20.6730  -27.0400   22.6480 C   0  0  0  0  0  2  0  0  0  0  0  0
  -19.5720  -26.7350   21.6260 C   0  0  0  0  0  2  0  0  0  0  0  0
  -18.1900  -26.9000   22.2620 C   0  0  0  0  0  2  0  0  0  0  0  0
  -19.1550  -28.9950   23.3790 C   0  0  0  0  0  0  0  0  0  0  0  0
  -18.9510  -30.2590   23.9720 C   0  0  0  0  0  3  0  0  0  0  0  0
  -17.6520  -30.7780   24.1310 C   0  0  0  0  0  3  0  0  0  0  0  0
  -16.5400  -30.0300   23.7090 C   0  0  0  0  0  3  0  0  0  0  0  0
  -16.7280  -28.7680   23.1190 C   0  0  0  0  0  3  0  0  0  0  0  0
  -25.9050  -32.5940   23.9390 C   0  0  0  0  0  3  0  0  0  0  0  0
  -26.3970  -31.8250   25.2260 C   0  0  1  0  0  0  0  0  0  0  0  0
  -25.2880  -31.6030   26.2810 C   0  0  0  0  0  1  0  0  0  0  0  0
  -26.9730  -30.4400   24.8500 C   0  0  0  0  0  1  0  0  0  0  0  0
  -27.5470  -32.6110   25.8970 C   0  0  0  0  0  1  0  0  0  0  0  0
  -25.6040  -33.9970   24.2570 N   0  0  0  0  0  0  0  0  0  0  0  0
  -25.9290  -35.0400   23.4820 C   0  0  0  0  0  0  0  0  0  0  0  0
  -26.5850  -34.9220   22.4430 O   0  0  0  0  0  0  0  0  0  0  0  0
  -25.0200  -34.1620   25.0640 H   0  0  0  0  0  0  0  0  0  0  0  0
  -24.1900  -36.8260   23.1460 C   0  0  0  0  0  1  0  0  0  0  0  0
  -25.4530  -36.4350   23.9300 C   0  0  0  0  0  3  0  0  0  0  0  0
  -27.6080  -37.3360   24.6890 C   0  0  0  0  0  1  0  0  0  0  0  0
  -26.4800  -37.4880   23.7720 N   0  0  0  0  0  0  0  0  0  0  0  0
  -26.0770  -38.4090   23.9160 H   0  0  0  0  0  0  0  0  0  0  0  0
  -27.3840  -17.0070   18.5860 C   0  0  0  0  0  1  0  0  0  0  0  0
  -27.5010  -17.4440   20.0530 C   0  0  0  0  0  2  0  0  0  0  0  0
  1  2  1  0
  3  5  2  0
  3  4  1  0
  4 45  1  0
  4  1  2  0
  5  6  1  0
  6 15  1  0
  6  2  2  0
  7 15  1  0
  8 13  1  0
  9 10  1  0
  9  8  1  0
 11 10  1  0
 11 20  1  0
 11 12  1  0
 13  7  1  0
 13 12  1  0
 14  7  2  0
 15 16  1  0
 17 18  2  0
 18 37  1  0
 19 18  1  0
 19 22  1  0
 20 17  1  0
 20 21  1  0
 21 19  2  0
 22 23  1  0
 23 24  2  0
 25 28  1  0
 25 24  1  0
 26 25  2  0
 27 26  1  0
 27 22  2  0
 28 29  1  0
 29 30  1  0
 30 31  2  0
 32 31  1  0
 32 36  1  0
 33 32  2  0
 34 29  2  0
 34 33  1  0
 35 34  1  0
 37 38  1  0
 38 41  1  0
 38 40  1  0
 39 37  2  0
 42 43  1  0
 42 17  1  0
 44 42  1  0
 46 47  1  0
 46 45  2  0
 47 48  2  0
 49 50  1  0
 49 47  1  0
 51 62  2  0
 52 50  1  0
 52 57  1  0
 53 61  1  0
 53 63  1  0
 54 60  1  0
 54 56  1  0
 55 61  1  0
 56 57  2  0
 56 55  1  0
 58 52  2  0
 59 58  1  0
 59 54  2  0
 60 53  1  0
 61 51  1  0
 63 65  2  0
 64 63  1  0
 66 64  1  0
 67 76  2  0
 67 72  1  0
 68 64  1  0
 68 72  1  0
 69 68  1  0
 70 71  1  0
 70 69  1  0
 71 67  1  0
 72 73  2  0
 73 74  1  0
 75 74  2  0
 76 75  1  0
 77 51  1  0
 77 82  1  0
 77 78  1  0
 78 81  1  1
 78 79  1  0
 80 78  1  0
 82 85  1  0
 83 87  1  0
 83 82  1  0
 84 83  2  0
 87 86  1  0
 89 90  1  0
 89 87  1  0
 89 88  1  0
 91 92  1  0
 92  5  1  0
M  ISO  4   7 100  15 100  49 101  50 101
M  END
>  <TORSDO>  (18) 
F 20

>  <SCORE>  (18) 
-14.013

>  <name>  (18) 
17

>  <ligand_id>  (18) 
17

>  <original_smiles>  (18) 
[H]C(C(=O)C([H])([H])Oc1c([H])c([H])c2c(c1[H])C([H])([H])N(C(=O)C([H])(N([H])C(=O)C([H])(N([H])C([H])([H])[H])C([H])([H])[H])C(C([H])([H])[H])(C([H])([H])[H])C([H])([H])[H])C([H])(C(=O)N([H])C1([H])c3c([H])c([H])c([H])c([H])c3C([H])([H])C([H])([H])C1([H])[H])C2([H])[H])=C([H])c1c([H])c([H])c(N([H])C(=O)N2C([H])([H])C([H])([H])C([H])([H])C([H])(n3nc(-c4c([H])c([H])c(Oc5c([H])c([H])c(F)c([H])c5F)c([H])c4[H])c(C(=O)N([H])[H])c3N([H])[H])C2([H])[H])c(C([H])([H])C([H])([H])[H])c1[H]

>  <smiles>  (18) 
[H]C(C(=O)C([H])([H])Oc1c([H])c([H])c2c(c1[H])C([H])([H])N(C(=O)C([H])(N([H])C(=O)C([H])(N([H])C([H])([H])[H])C([H])([H])[H])C(C([H])([H])[H])(C([H])([H])[H])C([H])([H])[H])C([H])(C(=O)N([H])C1([H])c3c([H])c([H])c([H])c([H])c3C([H])([H])C([H])([H])C1([H])[H])C2([H])[H])=C([H])c1c([H])c([H])c(N([H])C(=O)N2C([H])([H])C([H])([H])C([H])([H])C([H])(n3nc(-c4c([H])c([H])c(Oc5c([H])c([H])c(F)c([H])c5F)c([H])c4[H])c(C(=O)N([H])[H])c3N([H])[H])C2([H])[H])c(C([H])([H])C([H])([H])[H])c1[H]

$$$$
18:0:0
     RDKit          3D

 93102  0  0  1  0  0  0  0  0999 V2000
  -28.4300  -24.0960   21.0710 C   0  0  0  0  0  0  0  0  0  0  0  0
  -28.0350  -25.4100   21.0650 C   0  0  0  0  0  3  0  0  0  0  0  0
  -27.8710  -23.1320   22.0940 C   0  0  0  0  0  2  0  0  0  0  0  0
  -29.3370  -23.2310   20.1760 C   0  0  0  0  0  2  0  0  0  0  0  0
  -27.8880  -21.7590   21.4140 C   0  0  0  0  0  2  0  0  0  0  0  0
  -28.9720  -21.8080   20.4400 N   0  0  0  0  0  0  0  0  0  0  0  0
  -31.4190  -18.2770   20.2010 C   0  0  0  0  0  3  0  0  0  0  0  0
  -31.2090  -20.7280   20.2500 C   0  0  0  0  0  3  0  0  0  0  0  0
  -29.2300  -19.3260   20.3320 C   0  0  0  0  0  3  0  0  0  0  0  0
  -32.0090  -19.5570   20.2070 C   0  0  0  0  0  0  0  0  0  0  0  0
  -30.0230  -18.1400   20.2550 C   0  0  0  0  0  0  0  0  0  0  0  0
  -29.7980  -20.6420   20.3350 C   0  0  0  0  0  0  0  0  0  0  0  0
  -33.5200  -19.6500   20.1670 C   0  0  0  0  0  1  0  0  0  0  0  0
  -29.3860  -16.7410   20.1090 C   0  0  0  0  0  2  0  0  0  0  0  0
  -30.6810  -14.5840   20.4000 C   0  0  0  0  0  0  0  0  0  0  0  0
  -30.4740  -12.3690   19.3240 C   0  0  0  0  0  2  0  0  0  0  0  0
  -29.5460  -12.5590   18.1020 C   0  0  0  0  0  2  0  0  0  0  0  0
  -28.0690  -12.4080   18.5100 C   0  0  0  0  0  2  0  0  0  0  0  0
  -27.7090  -13.2610   19.7550 C   0  0  0  0  0  3  0  0  0  0  0  0
  -28.7440  -13.0450   20.8840 C   0  0  0  0  0  2  0  0  0  0  0  0
  -30.0790  -13.3590   20.3450 N   0  0  0  0  0  0  0  0  0  0  0  0
  -31.7850  -14.7990   19.8950 O   0  0  0  0  0  0  0  0  0  0  0  0
  -29.9030  -15.5810   20.8820 N   0  0  0  0  0  0  0  0  0  0  0  0
  -29.2150  -15.2300   21.5300 H   0  0  0  0  0  0  0  0  0  0  0  0
  -25.3040  -13.8860   20.4190 C   0  0  0  0  0  0  0  0  0  0  0  0
  -24.2290  -13.1220   20.7890 C   0  0  0  0  0  0  0  0  0  0  0  0
  -24.6880  -11.7710   20.7830 C   0  0  0  0  0  0  0  0  0  0  0  0
  -26.3480  -12.9980   20.2160 N   0  0  0  0  0  0  0  0  0  0  0  0
  -25.9800  -11.7220   20.4920 N   0  0  0  0  0  0  0  0  0  0  0  0
  -23.9580  -10.5140   20.9830 C   0  0  0  0  0  0  0  0  0  0  0  0
  -24.3800   -9.5580   21.9320 C   0  0  0  0  0  3  0  0  0  0  0  0
  -23.6530   -8.3640   22.1220 C   0  0  0  0  0  3  0  0  0  0  0  0
  -22.4860   -8.1150   21.3580 C   0  0  0  0  0  0  0  0  0  0  0  0
  -22.0850   -9.0580   20.3960 C   0  0  0  0  0  3  0  0  0  0  0  0
  -22.8130  -10.2450   20.2060 C   0  0  0  0  0  3  0  0  0  0  0  0
  -21.7330   -6.9690   21.4490 O   0  0  0  0  0  0  0  0  0  0  0  0
  -21.6730   -6.2420   22.6100 C   0  0  0  0  0  0  0  0  0  0  0  0
  -21.2350   -6.8110   23.8250 C   0  0  0  0  0  3  0  0  0  0  0  0
  -21.1220   -6.0100   24.9770 C   0  0  0  0  0  3  0  0  0  0  0  0
  -21.4350   -4.6390   24.9160 C   0  0  0  0  0  0  0  0  0  0  0  0
  -21.8600   -4.0680   23.7050 C   0  0  0  0  0  3  0  0  0  0  0  0
  -21.9780   -4.8680   22.5540 C   0  0  0  0  0  0  0  0  0  0  0  0
  -22.3720   -4.3070   21.3860 F   0  0  0  0  0  0  0  0  0  0  0  0
  -21.3160   -3.8670   26.0220 F   0  0  0  0  0  0  0  0  0  0  0  0
  -22.8300  -13.6050   21.0370 C   0  0  0  0  0  0  0  0  0  0  0  0
  -22.0910  -12.9250   21.9060 N   0  0  0  0  0  0  0  0  0  0  0  0
  -22.4000  -14.6210   20.4950 O   0  0  0  0  0  0  0  0  0  0  0  0
  -22.4550  -12.1030   22.3650 H   0  0  0  0  0  0  0  0  0  0  0  0
  -21.1500  -13.2320   22.1140 H   0  0  0  0  0  0  0  0  0  0  0  0
  -25.4720  -15.2530   20.2230 N   0  0  0  0  0  0  0  0  0  0  0  0
  -24.6970  -15.9030   20.2970 H   0  0  0  0  0  0  0  0  0  0  0  0
  -26.3100  -15.6840   19.8580 H   0  0  0  0  0  0  0  0  0  0  0  0
  -28.3050  -26.4960   20.2230 O   0  0  0  0  0  0  0  0  0  0  0  0
  -24.5910  -31.8800   23.1990 C   0  0  0  0  0  0  0  0  0  0  0  0
  -27.2370  -27.3860   20.1270 C   0  0  0  0  0  0  0  0  0  0  0  0
  -23.3940  -30.4790   21.5560 C   0  0  0  0  0  3  0  0  0  0  0  0
  -24.8590  -28.9540   20.1140 C   0  0  0  0  0  0  0  0  0  0  0  0
  -25.9300  -30.8240   21.3740 C   0  0  0  0  0  2  0  0  0  0  0  0
  -26.0220  -29.4550   20.7190 C   0  0  0  0  0  0  0  0  0  0  0  0
  -27.2160  -28.6800   20.7210 C   0  0  0  0  0  3  0  0  0  0  0  0
  -26.0590  -26.9280   19.4990 C   0  0  0  0  0  3  0  0  0  0  0  0
  -24.8790  -27.6950   19.4910 C   0  0  0  0  0  3  0  0  0  0  0  0
  -23.6130  -29.8130   20.1710 C   0  0  0  0  0  2  0  0  0  0  0  0
  -24.6570  -31.0770   22.0990 N   0  0  0  0  0  0  0  0  0  0  0  0
  -23.5070  -32.1520   23.7380 O   0  0  0  0  0  0  0  0  0  0  0  0
  -22.7410  -29.4540   22.5120 C   0  0  0  0  0  0  0  0  0  0  0  0
  -21.4140  -29.2820   22.3950 N   0  0  0  0  0  0  0  0  0  0  0  0
  -23.4230  -28.8220   23.3200 O   0  0  0  0  0  0  0  0  0  0  0  0
  -20.9220  -29.8380   21.7100 H   0  0  0  0  0  0  0  0  0  0  0  0
  -18.0340  -28.1070   22.9240 C   0  0  0  0  0  0  0  0  0  0  0  0
  -20.5970  -28.3460   23.1670 C   0  0  0  0  0  3  0  0  0  0  0  0
  -20.6830  -26.9210   22.5750 C   0  0  0  0  0  2  0  0  0  0  0  0
  -19.5660  -26.6150   21.5720 C   0  0  0  0  0  2  0  0  0  0  0  0
  -18.1920  -26.7630   22.2310 C   0  0  0  0  0  2  0  0  0  0  0  0
  -19.1620  -28.8560   23.3490 C   0  0  0  0  0  0  0  0  0  0  0  0
  -18.9610  -30.1140   23.9570 C   0  0  0  0  0  3  0  0  0  0  0  0
  -17.6610  -30.6220   24.1470 C   0  0  0  0  0  3  0  0  0  0  0  0
  -16.5470  -29.8690   23.7380 C   0  0  0  0  0  3  0  0  0  0  0  0
  -16.7330  -28.6130   23.1320 C   0  0  0  0  0  3  0  0  0  0  0  0
  -25.8720  -32.5180   23.8220 C   0  0  0  0  0  3  0  0  0  0  0  0
  -25.5570  -33.9130   24.1600 N   0  0  0  0  0  0  0  0  0  0  0  0
  -25.8840  -34.9720   23.4070 C   0  0  0  0  0  0  0  0  0  0  0  0
  -26.5510  -34.8770   22.3740 O   0  0  0  0  0  0  0  0  0  0  0  0
  -24.9640  -34.0620   24.9620 H   0  0  0  0  0  0  0  0  0  0  0  0
  -24.1460  -36.7590   23.0590 C   0  0  0  0  0  1  0  0  0  0  0  0
  -25.3870  -36.3540   23.8710 C   0  0  0  0  0  3  0  0  0  0  0  0
  -27.5170  -37.2400   24.7140 C   0  0  0  0  0  1  0  0  0  0  0  0
  -26.4150  -37.4140   23.7710 N   0  0  0  0  0  0  0  0  0  0  0  0
  -26.0040  -38.3310   23.9300 H   0  0  0  0  0  0  0  0  0  0  0  0
  -26.3970  -31.7420   25.0930 C   0  0  1  0  0  0  0  0  0  0  0  0
  -25.3080  -31.4950   26.1610 C   0  0  0  0  0  1  0  0  0  0  0  0
  -26.9860  -30.3680   24.6950 C   0  0  0  0  0  1  0  0  0  0  0  0
  -27.5440  -32.5400   25.7550 C   0  0  0  0  0  1  0  0  0  0  0  0
  1  3  1  0
  2  1  2  0
  4  6  1  0
  4  1  1  0
  5  3  1  0
  6  5  1  0
  7 10  2  0
  7 11  1  0
  8 12  2  0
  9 12  1  0
 10  8  1  0
 11  9  2  0
 12  6  1  0
 13 10  1  0
 14 11  1  0
 14 23  1  0
 15 23  1  0
 16 21  1  0
 17 18  1  0
 17 16  1  0
 19 18  1  0
 19 28  1  0
 19 20  1  0
 21 15  1  0
 21 20  1  0
 22 15  2  0
 23 24  1  0
 25 26  2  0
 26 45  1  0
 27 26  1  0
 27 30  1  0
 28 25  1  0
 28 29  1  0
 29 27  2  0
 30 31  1  0
 31 32  2  0
 33 36  1  0
 33 32  1  0
 34 33  2  0
 35 34  1  0
 35 30  2  0
 36 37  1  0
 37 38  1  0
 38 39  2  0
 40 39  1  0
 40 44  1  0
 41 40  2  0
 42 37  2  0
 42 41  1  0
 43 42  1  0
 45 46  1  0
 46 49  1  0
 46 48  1  0
 47 45  2  0
 50 51  1  0
 50 25  1  0
 52 50  1  0
 53  2  1  0
 54 65  2  0
 55 53  1  0
 55 60  1  0
 56 64  1  0
 56 66  1  0
 57 63  1  0
 57 59  1  0
 58 64  1  0
 59 60  2  0
 59 58  1  0
 61 55  2  0
 62 61  1  0
 62 57  2  0
 63 56  1  0
 64 54  1  0
 66 68  2  0
 67 66  1  0
 69 67  1  0
 70 79  2  0
 70 75  1  0
 71 67  1  0
 71 75  1  0
 72 71  1  0
 73 74  1  0
 73 72  1  0
 74 70  1  0
 75 76  2  0
 76 77  1  0
 78 77  2  0
 79 78  1  0
 80 54  1  0
 80 81  1  0
 80 90  1  0
 81 84  1  0
 82 86  1  0
 82 81  1  0
 83 82  2  0
 86 85  1  0
 88 86  1  0
 88 89  1  0
 88 87  1  0
 90 93  1  1
 90 91  1  0
 92 90  1  0
M  ISO  4   2 101  15 100  23 100  53 101
M  END
>  <TORSDO>  (19) 
F 18

>  <SCORE>  (19) 
-14.685

>  <name>  (19) 
18

>  <ligand_id>  (19) 
18

>  <original_smiles>  (19) 
[H]C(Oc1c([H])c([H])c2c(c1[H])C([H])([H])N(C(=O)C([H])(N([H])C(=O)C([H])(N([H])C([H])([H])[H])C([H])([H])[H])C(C([H])([H])[H])(C([H])([H])[H])C([H])([H])[H])C([H])(C(=O)N([H])C1([H])c3c([H])c([H])c([H])c([H])c3C([H])([H])C([H])([H])C1([H])[H])C2([H])[H])=C1C([H])([H])N(c2c([H])c(C([H])([H])[H])c([H])c(C([H])([H])N([H])C(=O)N3C([H])([H])C([H])([H])C([H])([H])C([H])(n4nc(-c5c([H])c([H])c(Oc6c([H])c([H])c(F)c([H])c6F)c([H])c5[H])c(C(=O)N([H])[H])c4N([H])[H])C3([H])[H])c2[H])C([H])([H])C1([H])[H]

>  <smiles>  (19) 
[H]C(Oc1c([H])c([H])c2c(c1[H])C([H])([H])N(C(=O)C([H])(N([H])C(=O)C([H])(N([H])C([H])([H])[H])C([H])([H])[H])C(C([H])([H])[H])(C([H])([H])[H])C([H])([H])[H])C([H])(C(=O)N([H])C1([H])c3c([H])c([H])c([H])c([H])c3C([H])([H])C([H])([H])C1([H])[H])C2([H])[H])=C1C([H])([H])N(c2c([H])c(C([H])([H])[H])c([H])c(C([H])([H])N([H])C(=O)N3C([H])([H])C([H])([H])C([H])([H])C([H])(n4nc(-c5c([H])c([H])c(Oc6c([H])c([H])c(F)c([H])c6F)c([H])c5[H])c(C(=O)N([H])[H])c4N([H])[H])C3([H])[H])c2[H])C([H])([H])C1([H])[H]

$$$$
19:0:0
     RDKit          3D

 90 99  0  0  1  0  0  0  0  0999 V2000
  -28.7090  -19.8200   19.3520 C   0  0  0  0  0  3  0  0  0  0  0  0
  -28.9260  -18.3770   19.3340 C   0  0  0  0  0  3  0  0  0  0  0  0
  -30.3160  -18.5240   21.2500 C   0  0  0  0  0  3  0  0  0  0  0  0
  -29.2650  -20.6810   20.3510 C   0  0  0  0  0  0  0  0  0  0  0  0
  -30.0660  -19.9580   21.2700 C   0  0  0  0  0  0  0  0  0  0  0  0
  -29.7420  -17.6380   20.2710 C   0  0  0  0  0  0  0  0  0  0  0  0
  -29.1220  -22.2140   20.7410 C   0  0  0  0  0  0  0  0  0  0  0  0
  -28.5450  -23.3860   20.1900 C   0  0  0  0  0  3  0  0  0  0  0  0
  -30.5590  -20.9110   22.3370 C   0  0  0  0  0  2  0  0  0  0  0  0
  -29.7660  -22.2370   22.1270 C   0  0  0  0  0  2  0  0  0  0  0  0
  -30.5720  -15.0020   20.1800 C   0  0  0  0  0  0  0  0  0  0  0  0
  -30.4650  -12.6660   19.2050 C   0  0  0  0  0  2  0  0  0  0  0  0
  -29.4930  -12.6510   18.0010 C   0  0  0  0  0  2  0  0  0  0  0  0
  -28.0390  -12.4380   18.4660 C   0  0  0  0  0  2  0  0  0  0  0  0
  -27.6660  -13.3370   19.6710 C   0  0  0  0  0  3  0  0  0  0  0  0
  -28.7510  -13.3080   20.7690 C   0  0  0  0  0  2  0  0  0  0  0  0
  -30.0100  -13.7300   20.1410 N   0  0  0  0  0  0  0  0  0  0  0  0
  -31.7640  -15.1200   19.8730 O   0  0  0  0  0  0  0  0  0  0  0  0
  -29.7060  -16.1110   20.3600 N   0  0  0  0  0  0  0  0  0  0  0  0
  -28.7670  -15.7680   20.4870 H   0  0  0  0  0  0  0  0  0  0  0  0
  -25.2970  -13.9120   20.4610 C   0  0  0  0  0  0  0  0  0  0  0  0
  -24.2450  -13.1330   20.8550 C   0  0  0  0  0  0  0  0  0  0  0  0
  -24.7120  -11.7830   20.8080 C   0  0  0  0  0  0  0  0  0  0  0  0
  -26.3390  -13.0370   20.1970 N   0  0  0  0  0  0  0  0  0  0  0  0
  -25.9960  -11.7510   20.4690 N   0  0  0  0  0  0  0  0  0  0  0  0
  -23.9940  -10.5180   21.0080 C   0  0  0  0  0  0  0  0  0  0  0  0
  -24.4290   -9.5620   21.9520 C   0  0  0  0  0  3  0  0  0  0  0  0
  -23.7110   -8.3630   22.1390 C   0  0  0  0  0  3  0  0  0  0  0  0
  -22.5420   -8.1090   21.3830 C   0  0  0  0  0  0  0  0  0  0  0  0
  -22.1250   -9.0540   20.4280 C   0  0  0  0  0  3  0  0  0  0  0  0
  -22.8450  -10.2460   20.2390 C   0  0  0  0  0  3  0  0  0  0  0  0
  -21.7940   -6.9610   21.4790 O   0  0  0  0  0  0  0  0  0  0  0  0
  -21.7180   -6.2470   22.6480 C   0  0  0  0  0  0  0  0  0  0  0  0
  -21.2240   -6.8220   23.8400 C   0  0  0  0  0  3  0  0  0  0  0  0
  -21.0960   -6.0340   25.0010 C   0  0  0  0  0  3  0  0  0  0  0  0
  -21.4510   -4.6730   24.9730 C   0  0  0  0  0  0  0  0  0  0  0  0
  -21.9380   -4.0980   23.7860 C   0  0  0  0  0  3  0  0  0  0  0  0
  -22.0680   -4.8820   22.6270 C   0  0  0  0  0  0  0  0  0  0  0  0
  -22.5180   -4.3170   21.4800 F   0  0  0  0  0  0  0  0  0  0  0  0
  -21.3200   -3.9140   26.0860 F   0  0  0  0  0  0  0  0  0  0  0  0
  -22.8520  -13.6040   21.1560 C   0  0  0  0  0  0  0  0  0  0  0  0
  -22.1420  -12.9020   22.0310 N   0  0  0  0  0  0  0  0  0  0  0  0
  -22.4030  -14.6340   20.6510 O   0  0  0  0  0  0  0  0  0  0  0  0
  -22.5170  -12.0700   22.4630 H   0  0  0  0  0  0  0  0  0  0  0  0
  -21.2090  -13.2010   22.2750 H   0  0  0  0  0  0  0  0  0  0  0  0
  -25.4480  -15.2830   20.2800 N   0  0  0  0  0  0  0  0  0  0  0  0
  -24.6680  -15.9220   20.3870 H   0  0  0  0  0  0  0  0  0  0  0  0
  -26.2550  -15.7230   19.8560 H   0  0  0  0  0  0  0  0  0  0  0  0
  -28.2160  -24.8500   20.8780 C   0  0  0  0  0  2  0  0  0  0  0  0
  -28.4200  -26.2630   20.2790 O   0  0  0  0  0  0  0  0  0  0  0  0
  -24.6260  -31.8680   23.2380 C   0  0  0  0  0  0  0  0  0  0  0  0
  -27.3450  -27.2180   20.2610 C   0  0  0  0  0  0  0  0  0  0  0  0
  -23.4850  -30.4610   21.5670 C   0  0  0  0  0  3  0  0  0  0  0  0
  -24.9900  -28.9100   20.1760 C   0  0  0  0  0  0  0  0  0  0  0  0
  -26.0360  -30.7710   21.4580 C   0  0  0  0  0  2  0  0  0  0  0  0
  -26.1470  -29.3810   20.8090 C   0  0  0  0  0  0  0  0  0  0  0  0
  -27.3300  -28.5510   20.8330 C   0  0  0  0  0  3  0  0  0  0  0  0
  -26.1610  -26.8380   19.5970 C   0  0  0  0  0  3  0  0  0  0  0  0
  -25.0070  -27.6500   19.5570 C   0  0  0  0  0  3  0  0  0  0  0  0
  -23.7470  -29.7890   20.1930 C   0  0  0  0  0  2  0  0  0  0  0  0
  -24.7340  -31.0550   22.1430 N   0  0  0  0  0  0  0  0  0  0  0  0
  -23.5240  -32.1340   23.7410 O   0  0  0  0  0  0  0  0  0  0  0  0
  -22.8000  -29.4390   22.5100 C   0  0  0  0  0  0  0  0  0  0  0  0
  -21.4740  -29.2660   22.3660 N   0  0  0  0  0  0  0  0  0  0  0  0
  -23.4650  -28.8060   23.3330 O   0  0  0  0  0  0  0  0  0  0  0  0
  -20.9940  -29.8270   21.6760 H   0  0  0  0  0  0  0  0  0  0  0  0
  -18.0870  -28.0740   22.8360 C   0  0  0  0  0  0  0  0  0  0  0  0
  -20.6460  -28.3190   23.1170 C   0  0  0  0  0  3  0  0  0  0  0  0
  -20.7430  -26.8970   22.5160 C   0  0  0  0  0  2  0  0  0  0  0  0
  -19.6430  -26.6000   21.4900 C   0  0  0  0  0  2  0  0  0  0  0  0
  -18.2600  -26.7380   22.1330 C   0  0  0  0  0  2  0  0  0  0  0  0
  -19.2070  -28.8240   23.2830 C   0  0  0  0  0  0  0  0  0  0  0  0
  -18.9900  -30.0750   23.9010 C   0  0  0  0  0  3  0  0  0  0  0  0
  -17.6860  -30.5750   24.0750 C   0  0  0  0  0  3  0  0  0  0  0  0
  -16.5800  -29.8220   23.6420 C   0  0  0  0  0  3  0  0  0  0  0  0
  -16.7820  -28.5740   23.0280 C   0  0  0  0  0  3  0  0  0  0  0  0
  -25.8790  -32.5200   23.8960 C   0  0  0  0  0  3  0  0  0  0  0  0
  -25.5450  -33.9170   24.2150 N   0  0  0  0  0  0  0  0  0  0  0  0
  -25.8760  -34.9740   23.4610 C   0  0  0  0  0  0  0  0  0  0  0  0
  -26.5620  -34.8760   22.4400 O   0  0  0  0  0  0  0  0  0  0  0  0
  -24.9330  -34.0650   25.0040 H   0  0  0  0  0  0  0  0  0  0  0  0
  -24.1340  -36.7490   23.0750 C   0  0  0  0  0  1  0  0  0  0  0  0
  -25.3660  -36.3580   23.9070 C   0  0  0  0  0  3  0  0  0  0  0  0
  -27.4750  -37.2740   24.7740 C   0  0  0  0  0  1  0  0  0  0  0  0
  -26.3890  -37.4230   23.8070 N   0  0  0  0  0  0  0  0  0  0  0  0
  -25.9690  -38.3390   23.9420 H   0  0  0  0  0  0  0  0  0  0  0  0
  -26.3610  -31.7620   25.1950 C   0  0  1  0  0  0  0  0  0  0  0  0
  -25.2370  -31.5260   26.2310 C   0  0  0  0  0  1  0  0  0  0  0  0
  -26.9650  -30.3850   24.8340 C   0  0  0  0  0  1  0  0  0  0  0  0
  -27.4850  -32.5700   25.8850 C   0  0  0  0  0  1  0  0  0  0  0  0
  1  4  1  0
  2  1  2  0
  2  6  1  0
  3  5  1  0
  4  7  1  0
  4  5  2  0
  5  9  1  0
  6 19  1  0
  6  3  2  0
  7 10  1  0
  8  7  2  0
  8 49  1  0
 10  9  1  0
 11 19  1  0
 12 17  1  0
 13 14  1  0
 13 12  1  0
 15 14  1  0
 15 24  1  0
 15 16  1  0
 17 11  1  0
 17 16  1  0
 18 11  2  0
 19 20  1  0
 21 22  2  0
 22 41  1  0
 23 22  1  0
 23 26  1  0
 24 21  1  0
 24 25  1  0
 25 23  2  0
 26 27  1  0
 27 28  2  0
 29 32  1  0
 29 28  1  0
 30 29  2  0
 31 30  1  0
 31 26  2  0
 32 33  1  0
 33 34  1  0
 34 35  2  0
 36 35  1  0
 36 40  1  0
 37 36  2  0
 38 33  2  0
 38 37  1  0
 39 38  1  0
 41 42  1  0
 42 45  1  0
 42 44  1  0
 43 41  2  0
 46 47  1  0
 46 21  1  0
 48 46  1  0
 50 49  1  0
 51 62  2  0
 52 50  1  0
 52 57  1  0
 53 61  1  0
 53 63  1  0
 54 60  1  0
 54 56  1  0
 55 61  1  0
 56 57  2  0
 56 55  1  0
 58 52  2  0
 59 58  1  0
 59 54  2  0
 60 53  1  0
 61 51  1  0
 63 65  2  0
 64 63  1  0
 66 64  1  0
 67 76  2  0
 67 72  1  0
 68 64  1  0
 68 72  1  0
 69 68  1  0
 70 71  1  0
 70 69  1  0
 71 67  1  0
 72 73  2  0
 73 74  1  0
 75 74  2  0
 76 75  1  0
 77 51  1  0
 77 78  1  0
 77 87  1  0
 78 81  1  0
 79 83  1  0
 79 78  1  0
 80 79  2  0
 83 82  1  0
 85 83  1  0
 85 86  1  0
 85 84  1  0
 87 90  1  1
 87 88  1  0
 89 87  1  0
M  ISO  4  11 100  19 100  49 101  50 101
M  END
>  <TORSDO>  (20) 
F 17

>  <SCORE>  (20) 
-15.277

>  <name>  (20) 
19

>  <ligand_id>  (20) 
19

>  <original_smiles>  (20) 
[H]C(=C1c2c([H])c([H])c(N([H])C(=O)N3C([H])([H])C([H])([H])C([H])([H])C([H])(n4nc(-c5c([H])c([H])c(Oc6c([H])c([H])c(F)c([H])c6F)c([H])c5[H])c(C(=O)N([H])[H])c4N([H])[H])C3([H])[H])c([H])c2C([H])([H])C1([H])[H])C([H])([H])Oc1c([H])c([H])c2c(c1[H])C([H])([H])N(C(=O)C([H])(N([H])C(=O)C([H])(N([H])C([H])([H])[H])C([H])([H])[H])C(C([H])([H])[H])(C([H])([H])[H])C([H])([H])[H])C([H])(C(=O)N([H])C1([H])c3c([H])c([H])c([H])c([H])c3C([H])([H])C([H])([H])C1([H])[H])C2([H])[H]

>  <smiles>  (20) 
[H]C(=C1c2c([H])c([H])c(N([H])C(=O)N3C([H])([H])C([H])([H])C([H])([H])C([H])(n4nc(-c5c([H])c([H])c(Oc6c([H])c([H])c(F)c([H])c6F)c([H])c5[H])c(C(=O)N([H])[H])c4N([H])[H])C3([H])[H])c([H])c2C([H])([H])C1([H])[H])C([H])([H])Oc1c([H])c([H])c2c(c1[H])C([H])([H])N(C(=O)C([H])(N([H])C(=O)C([H])(N([H])C([H])([H])[H])C([H])([H])[H])C(C([H])([H])[H])(C([H])([H])[H])C([H])([H])[H])C([H])(C(=O)N([H])C1([H])c3c([H])c([H])c([H])c([H])c3C([H])([H])C([H])([H])C1([H])[H])C2([H])[H]

$$$$
20:0:0
     RDKit          3D

 93101  0  0  1  0  0  0  0  0999 V2000
  -30.3630  -21.2620   21.6330 C   0  0  0  0  0  0  0  0  0  0  0  0
  -30.6010  -21.6670   22.7760 O   0  0  0  0  0  0  0  0  0  0  0  0
  -29.4310  -19.2440   20.3850 C   0  0  0  0  0  3  0  0  0  0  0  0
  -31.0750  -17.4830   21.8290 C   0  0  0  0  0  3  0  0  0  0  0  0
  -30.3330  -19.7840   21.3330 C   0  0  0  0  0  0  0  0  0  0  0  0
  -29.3130  -17.8440   20.1960 C   0  0  0  0  0  0  0  0  0  0  0  0
  -30.1230  -16.9460   20.9370 C   0  0  0  0  0  0  0  0  0  0  0  0
  -31.1810  -18.8790   22.0270 C   0  0  0  0  0  0  0  0  0  0  0  0
  -28.2830  -17.3300   19.2070 C   0  0  0  0  0  1  0  0  0  0  0  0
  -32.1020  -19.3310   22.9150 F   0  0  0  0  0  0  0  0  0  0  0  0
  -30.6300  -14.5530   20.3810 C   0  0  0  0  0  0  0  0  0  0  0  0
  -30.3450  -12.4050   19.1950 C   0  0  0  0  0  2  0  0  0  0  0  0
  -29.3690  -12.6190   18.0170 C   0  0  0  0  0  2  0  0  0  0  0  0
  -27.9050  -12.4630   18.4770 C   0  0  0  0  0  2  0  0  0  0  0  0
  -27.5900  -13.2750   19.7610 C   0  0  0  0  0  3  0  0  0  0  0  0
  -28.6710  -13.0310   20.8390 C   0  0  0  0  0  2  0  0  0  0  0  0
  -29.9820  -13.3620   20.2490 N   0  0  0  0  0  0  0  0  0  0  0  0
  -31.7580  -14.7620   19.9240 O   0  0  0  0  0  0  0  0  0  0  0  0
  -29.8690  -15.5390   20.8990 N   0  0  0  0  0  0  0  0  0  0  0  0
  -28.9290  -15.2540   21.1280 H   0  0  0  0  0  0  0  0  0  0  0  0
  -25.2000  -13.8680   20.5170 C   0  0  0  0  0  0  0  0  0  0  0  0
  -24.1440  -13.0900   20.9010 C   0  0  0  0  0  0  0  0  0  0  0  0
  -24.6110  -11.7410   20.8510 C   0  0  0  0  0  0  0  0  0  0  0  0
  -26.2470  -12.9940   20.2620 N   0  0  0  0  0  0  0  0  0  0  0  0
  -25.8950  -11.7090   20.5200 N   0  0  0  0  0  0  0  0  0  0  0  0
  -23.8930  -10.4750   21.0470 C   0  0  0  0  0  0  0  0  0  0  0  0
  -24.3510   -9.5010   21.9610 C   0  0  0  0  0  3  0  0  0  0  0  0
  -23.6340   -8.2990   22.1440 C   0  0  0  0  0  3  0  0  0  0  0  0
  -22.4470   -8.0630   21.4120 C   0  0  0  0  0  0  0  0  0  0  0  0
  -22.0080   -9.0260   20.4860 C   0  0  0  0  0  3  0  0  0  0  0  0
  -22.7260  -10.2200   20.3020 C   0  0  0  0  0  3  0  0  0  0  0  0
  -21.6980   -6.9150   21.5040 O   0  0  0  0  0  0  0  0  0  0  0  0
  -21.6830   -6.1570   22.6470 C   0  0  0  0  0  0  0  0  0  0  0  0
  -21.2890   -6.6940   23.8930 C   0  0  0  0  0  3  0  0  0  0  0  0
  -21.2210   -5.8620   25.0280 C   0  0  0  0  0  3  0  0  0  0  0  0
  -21.5380   -4.4950   24.9200 C   0  0  0  0  0  0  0  0  0  0  0  0
  -21.9260   -3.9580   23.6800 C   0  0  0  0  0  3  0  0  0  0  0  0
  -21.9960   -4.7860   22.5460 C   0  0  0  0  0  0  0  0  0  0  0  0
  -22.3500   -4.2590   21.3500 F   0  0  0  0  0  0  0  0  0  0  0  0
  -21.4660   -3.6940   26.0090 F   0  0  0  0  0  0  0  0  0  0  0  0
  -22.7500  -13.5600   21.2020 C   0  0  0  0  0  0  0  0  0  0  0  0
  -22.0390  -12.8530   22.0730 N   0  0  0  0  0  0  0  0  0  0  0  0
  -22.3000  -14.5900   20.7010 O   0  0  0  0  0  0  0  0  0  0  0  0
  -22.4160  -12.0200   22.4990 H   0  0  0  0  0  0  0  0  0  0  0  0
  -21.1060  -13.1500   22.3180 H   0  0  0  0  0  0  0  0  0  0  0  0
  -25.3520  -15.2390   20.3440 N   0  0  0  0  0  0  0  0  0  0  0  0
  -24.5760  -15.8830   20.4620 H   0  0  0  0  0  0  0  0  0  0  0  0
  -26.1810  -15.6830   19.9770 H   0  0  0  0  0  0  0  0  0  0  0  0
  -30.1130  -22.2400   20.5370 C   0  0  0  0  0  3  0  0  0  0  0  0
  -29.8960  -23.5590   20.7780 C   0  0  0  0  0  3  0  0  0  0  0  0
  -29.7300  -24.6460   19.7140 C   0  0  0  0  0  2  0  0  0  0  0  0
  -28.3600  -25.3720   19.6960 C   0  0  0  0  0  2  0  0  0  0  0  0
  -28.4030  -26.7360   20.1600 O   0  0  0  0  0  0  0  0  0  0  0  0
  -24.5770  -31.9160   23.2540 C   0  0  0  0  0  0  0  0  0  0  0  0
  -27.2200  -27.4630   20.1530 C   0  0  0  0  0  0  0  0  0  0  0  0
  -23.3700  -30.5190   21.6110 C   0  0  0  0  0  3  0  0  0  0  0  0
  -24.8210  -28.9880   20.1800 C   0  0  0  0  0  0  0  0  0  0  0  0
  -25.8990  -30.8730   21.4130 C   0  0  0  0  0  2  0  0  0  0  0  0
  -25.9830  -29.5030   20.7680 C   0  0  0  0  0  0  0  0  0  0  0  0
  -27.1830  -28.7480   20.7500 C   0  0  0  0  0  3  0  0  0  0  0  0
  -26.0270  -26.9680   19.5690 C   0  0  0  0  0  3  0  0  0  0  0  0
  -24.8390  -27.7190   19.5810 C   0  0  0  0  0  3  0  0  0  0  0  0
  -23.5780  -29.8470   20.2290 C   0  0  0  0  0  2  0  0  0  0  0  0
  -24.6340  -31.1180   22.1510 N   0  0  0  0  0  0  0  0  0  0  0  0
  -23.4960  -32.1870   23.7950 O   0  0  0  0  0  0  0  0  0  0  0  0
  -22.7190  -29.4940   22.5680 C   0  0  0  0  0  0  0  0  0  0  0  0
  -21.3950  -29.3080   22.4380 N   0  0  0  0  0  0  0  0  0  0  0  0
  -23.4030  -28.8700   23.3840 O   0  0  0  0  0  0  0  0  0  0  0  0
  -20.9040  -29.8660   21.7520 H   0  0  0  0  0  0  0  0  0  0  0  0
  -18.0240  -28.1060   22.9300 C   0  0  0  0  0  0  0  0  0  0  0  0
  -20.5800  -28.3680   23.2070 C   0  0  0  0  0  3  0  0  0  0  0  0
  -20.6860  -26.9380   22.6280 C   0  0  0  0  0  2  0  0  0  0  0  0
  -19.5860  -26.6150   21.6120 C   0  0  0  0  0  2  0  0  0  0  0  0
  -18.2030  -26.7580   22.2540 C   0  0  0  0  0  2  0  0  0  0  0  0
  -19.1400  -28.8690   23.3640 C   0  0  0  0  0  0  0  0  0  0  0  0
  -18.9180  -30.1310   23.9550 C   0  0  0  0  0  3  0  0  0  0  0  0
  -17.6130  -30.6320   24.1170 C   0  0  0  0  0  3  0  0  0  0  0  0
  -16.5110  -29.8660   23.7000 C   0  0  0  0  0  3  0  0  0  0  0  0
  -16.7170  -28.6060   23.1130 C   0  0  0  0  0  3  0  0  0  0  0  0
  -25.8630  -32.5470   23.8740 C   0  0  0  0  0  3  0  0  0  0  0  0
  -26.3810  -31.7740   25.1490 C   0  0  1  0  0  0  0  0  0  0  0  0
  -25.2870  -31.5360   26.2170 C   0  0  0  0  0  1  0  0  0  0  0  0
  -26.9620  -30.3960   24.7540 C   0  0  0  0  0  1  0  0  0  0  0  0
  -27.5320  -32.5660   25.8100 C   0  0  0  0  0  1  0  0  0  0  0  0
  -25.5570  -33.9440   24.2010 N   0  0  0  0  0  0  0  0  0  0  0  0
  -25.8990  -34.9950   23.4430 C   0  0  0  0  0  0  0  0  0  0  0  0
  -26.5770  -34.8890   22.4170 O   0  0  0  0  0  0  0  0  0  0  0  0
  -24.9550  -34.1020   24.9970 H   0  0  0  0  0  0  0  0  0  0  0  0
  -24.1840  -36.7950   23.0660 C   0  0  0  0  0  1  0  0  0  0  0  0
  -25.4120  -36.3860   23.8950 C   0  0  0  0  0  3  0  0  0  0  0  0
  -27.5400  -37.2560   24.7560 C   0  0  0  0  0  1  0  0  0  0  0  0
  -26.4510  -37.4330   23.8000 N   0  0  0  0  0  0  0  0  0  0  0  0
  -26.0470  -38.3550   23.9450 H   0  0  0  0  0  0  0  0  0  0  0  0
  1  2  2  0
  3  5  1  0
  4  8  1  0
  5  1  1  0
  5  8  2  0
  6  3  2  0
  6  7  1  0
  7  4  2  0
  8 10  1  0
  9  6  1  0
 11 19  1  0
 12 17  1  0
 13 14  1  0
 13 12  1  0
 15 14  1  0
 15 24  1  0
 15 16  1  0
 17 11  1  0
 17 16  1  0
 18 11  2  0
 19  7  1  0
 19 20  1  0
 21 22  2  0
 22 41  1  0
 23 22  1  0
 23 26  1  0
 24 21  1  0
 24 25  1  0
 25 23  2  0
 26 27  1  0
 27 28  2  0
 29 32  1  0
 29 28  1  0
 30 29  2  0
 31 30  1  0
 31 26  2  0
 32 33  1  0
 33 34  1  0
 34 35  2  0
 36 35  1  0
 36 40  1  0
 37 36  2  0
 38 33  2  0
 38 37  1  0
 39 38  1  0
 41 42  1  0
 42 45  1  0
 42 44  1  0
 43 41  2  0
 46 47  1  0
 46 21  1  0
 48 46  1  0
 49 50  2  0
 49  1  1  0
 51 50  1  0
 52 51  1  0
 52 53  1  0
 54 65  2  0
 55 53  1  0
 55 60  1  0
 56 64  1  0
 56 66  1  0
 57 63  1  0
 57 59  1  0
 58 64  1  0
 59 58  1  0
 60 59  2  0
 61 62  1  0
 61 55  2  0
 62 57  2  0
 63 56  1  0
 64 54  1  0
 66 68  2  0
 67 66  1  0
 69 67  1  0
 70 79  2  0
 70 75  1  0
 71 67  1  0
 71 75  1  0
 72 71  1  0
 73 74  1  0
 73 72  1  0
 74 70  1  0
 75 76  2  0
 76 77  1  0
 78 77  2  0
 79 78  1  0
 80 54  1  0
 80 85  1  0
 80 81  1  0
 81 84  1  1
 81 82  1  0
 83 81  1  0
 85 88  1  0
 86 90  1  0
 86 85  1  0
 87 86  2  0
 90 89  1  0
 92 90  1  0
 92 93  1  0
 92 91  1  0
M  ISO  4  11 100  19 100  52 101  53 101
M  END
>  <TORSDO>  (21) 
F 20

>  <SCORE>  (21) 
-14.383

>  <name>  (21) 
20

>  <ligand_id>  (21) 
20

>  <original_smiles>  (21) 
[H]C(C(=O)c1c([H])c(C([H])([H])[H])c(N([H])C(=O)N2C([H])([H])C([H])([H])C([H])([H])C([H])(n3nc(-c4c([H])c([H])c(Oc5c([H])c([H])c(F)c([H])c5F)c([H])c4[H])c(C(=O)N([H])[H])c3N([H])[H])C2([H])[H])c([H])c1F)=C([H])C([H])([H])C([H])([H])Oc1c([H])c([H])c2c(c1[H])C([H])([H])N(C(=O)C([H])(N([H])C(=O)C([H])(N([H])C([H])([H])[H])C([H])([H])[H])C(C([H])([H])[H])(C([H])([H])[H])C([H])([H])[H])C([H])(C(=O)N([H])C1([H])c3c([H])c([H])c([H])c([H])c3C([H])([H])C([H])([H])C1([H])[H])C2([H])[H]

>  <smiles>  (21) 
[H]C(C(=O)c1c([H])c(C([H])([H])[H])c(N([H])C(=O)N2C([H])([H])C([H])([H])C([H])([H])C([H])(n3nc(-c4c([H])c([H])c(Oc5c([H])c([H])c(F)c([H])c5F)c([H])c4[H])c(C(=O)N([H])[H])c3N([H])[H])C2([H])[H])c([H])c1F)=C([H])C([H])([H])C([H])([H])Oc1c([H])c([H])c2c(c1[H])C([H])([H])N(C(=O)C([H])(N([H])C(=O)C([H])(N([H])C([H])([H])[H])C([H])([H])[H])C(C([H])([H])[H])(C([H])([H])[H])C([H])([H])[H])C([H])(C(=O)N([H])C1([H])c3c([H])c([H])c([H])c([H])c3C([H])([H])C([H])([H])C1([H])[H])C2([H])[H]

$$$$
21:0:0
     RDKit          3D

 94102  0  0  1  0  0  0  0  0999 V2000
  -31.2130  -19.6700   21.2250 C   0  0  0  0  0  3  0  0  0  0  0  0
  -31.6820  -17.2880   21.3880 C   0  0  0  0  0  3  0  0  0  0  0  0
  -29.8740  -19.4130   20.8510 C   0  0  0  0  0  0  0  0  0  0  0  0
  -29.4480  -18.0490   20.7360 C   0  0  0  0  0  0  0  0  0  0  0  0
  -30.3650  -16.9780   20.9770 C   0  0  0  0  0  0  0  0  0  0  0  0
  -32.1030  -18.6220   21.5040 C   0  0  0  0  0  0  0  0  0  0  0  0
  -33.3740  -18.8980   21.8840 F   0  0  0  0  0  0  0  0  0  0  0  0
  -30.6200  -14.6110   20.1990 C   0  0  0  0  0  0  0  0  0  0  0  0
  -30.2630  -12.4970   18.9780 C   0  0  0  0  0  2  0  0  0  0  0  0
  -29.2610  -12.7330   17.8290 C   0  0  0  0  0  2  0  0  0  0  0  0
  -27.8130  -12.5620   18.3280 C   0  0  0  0  0  2  0  0  0  0  0  0
  -27.5320  -13.3550   19.6320 C   0  0  0  0  0  3  0  0  0  0  0  0
  -28.6440  -13.1120   20.6790 C   0  0  0  0  0  2  0  0  0  0  0  0
  -29.9350  -13.4440   20.0550 N   0  0  0  0  0  0  0  0  0  0  0  0
  -31.7150  -14.8000   19.6630 O   0  0  0  0  0  0  0  0  0  0  0  0
  -29.9630  -15.6040   20.8410 N   0  0  0  0  0  0  0  0  0  0  0  0
  -29.0220  -15.3770   21.1220 H   0  0  0  0  0  0  0  0  0  0  0  0
  -25.1630  -13.9110   20.4690 C   0  0  0  0  0  0  0  0  0  0  0  0
  -24.1240  -13.1170   20.8720 C   0  0  0  0  0  0  0  0  0  0  0  0
  -24.5990  -11.7720   20.7840 C   0  0  0  0  0  0  0  0  0  0  0  0
  -26.2060  -13.0510   20.1670 N   0  0  0  0  0  0  0  0  0  0  0  0
  -25.8740  -11.7580   20.4140 N   0  0  0  0  0  0  0  0  0  0  0  0
  -23.8970  -10.4970   20.9750 C   0  0  0  0  0  0  0  0  0  0  0  0
  -24.3460   -9.5400   21.9110 C   0  0  0  0  0  3  0  0  0  0  0  0
  -23.6430   -8.3290   22.0900 C   0  0  0  0  0  3  0  0  0  0  0  0
  -22.4780   -8.0660   21.3310 C   0  0  0  0  0  0  0  0  0  0  0  0
  -22.0490   -9.0120   20.3830 C   0  0  0  0  0  3  0  0  0  0  0  0
  -22.7520  -10.2150   20.2030 C   0  0  0  0  0  3  0  0  0  0  0  0
  -21.7450   -6.9070   21.4180 O   0  0  0  0  0  0  0  0  0  0  0  0
  -21.6620   -6.1950   22.5890 C   0  0  0  0  0  0  0  0  0  0  0  0
  -21.1430   -6.7660   23.7710 C   0  0  0  0  0  3  0  0  0  0  0  0
  -21.0100   -5.9790   24.9330 C   0  0  0  0  0  3  0  0  0  0  0  0
  -21.3850   -4.6230   24.9120 C   0  0  0  0  0  0  0  0  0  0  0  0
  -21.8960   -4.0520   23.7330 C   0  0  0  0  0  3  0  0  0  0  0  0
  -22.0310   -4.8350   22.5740 C   0  0  0  0  0  0  0  0  0  0  0  0
  -22.5050   -4.2750   21.4350 F   0  0  0  0  0  0  0  0  0  0  0  0
  -21.2500   -3.8630   26.0240 F   0  0  0  0  0  0  0  0  0  0  0  0
  -22.7360  -13.5690   21.2220 C   0  0  0  0  0  0  0  0  0  0  0  0
  -22.0530  -12.8340   22.0930 N   0  0  0  0  0  0  0  0  0  0  0  0
  -22.2670  -14.6080   20.7610 O   0  0  0  0  0  0  0  0  0  0  0  0
  -22.4450  -11.9920   22.4860 H   0  0  0  0  0  0  0  0  0  0  0  0
  -21.1240  -13.1190   22.3690 H   0  0  0  0  0  0  0  0  0  0  0  0
  -25.2970  -15.2870   20.3110 N   0  0  0  0  0  0  0  0  0  0  0  0
  -24.5140  -15.9160   20.4510 H   0  0  0  0  0  0  0  0  0  0  0  0
  -26.0910  -15.7320   19.8740 H   0  0  0  0  0  0  0  0  0  0  0  0
  -28.9870  -20.5760   20.5470 C   0  0  0  0  0  3  0  0  0  0  0  0
  -29.3670  -21.8260   20.1910 C   0  0  0  0  0  3  0  0  0  0  0  0
  -28.3870  -22.9710   19.9190 C   0  0  0  0  0  2  0  0  0  0  0  0
  -29.0010  -24.3830   20.0170 C   0  0  0  0  0  0  0  0  0  0  0  0
  -30.1330  -24.6270   19.5840 O   0  0  0  0  0  0  0  0  0  0  0  0
  -28.1310  -25.4800   20.6590 C   0  0  0  0  0  2  0  0  0  0  0  0
  -28.3110  -26.7720   20.0410 O   0  0  0  0  0  0  0  0  0  0  0  0
  -24.5490  -31.9290   23.2100 C   0  0  0  0  0  0  0  0  0  0  0  0
  -27.1630  -27.5350   20.0400 C   0  0  0  0  0  0  0  0  0  0  0  0
  -23.3260  -30.5410   21.5700 C   0  0  0  0  0  3  0  0  0  0  0  0
  -24.7650  -29.0320   20.1000 C   0  0  0  0  0  0  0  0  0  0  0  0
  -25.8460  -30.9170   21.3370 C   0  0  0  0  0  2  0  0  0  0  0  0
  -25.9300  -29.5550   20.6770 C   0  0  0  0  0  0  0  0  0  0  0  0
  -27.1350  -28.8140   20.6430 C   0  0  0  0  0  3  0  0  0  0  0  0
  -25.9850  -27.0360   19.4420 C   0  0  0  0  0  3  0  0  0  0  0  0
  -24.7880  -27.7730   19.4770 C   0  0  0  0  0  3  0  0  0  0  0  0
  -23.5160  -29.8810   20.1790 C   0  0  0  0  0  2  0  0  0  0  0  0
  -24.5930  -31.1430   22.0970 N   0  0  0  0  0  0  0  0  0  0  0  0
  -23.4750  -32.1880   23.7710 O   0  0  0  0  0  0  0  0  0  0  0  0
  -22.6960  -29.5040   22.5280 C   0  0  0  0  0  0  0  0  0  0  0  0
  -21.3720  -29.3080   22.4120 N   0  0  0  0  0  0  0  0  0  0  0  0
  -23.3940  -28.8780   23.3300 O   0  0  0  0  0  0  0  0  0  0  0  0
  -20.8690  -29.8640   21.7350 H   0  0  0  0  0  0  0  0  0  0  0  0
  -18.0140  -28.0800   22.9370 C   0  0  0  0  0  0  0  0  0  0  0  0
  -20.5730  -28.3550   23.1820 C   0  0  0  0  0  3  0  0  0  0  0  0
  -20.6810  -26.9320   22.5880 C   0  0  0  0  0  2  0  0  0  0  0  0
  -19.5690  -26.6110   21.5830 C   0  0  0  0  0  2  0  0  0  0  0  0
  -18.1940  -26.7380   22.2450 C   0  0  0  0  0  2  0  0  0  0  0  0
  -19.1320  -28.8450   23.3630 C   0  0  0  0  0  0  0  0  0  0  0  0
  -18.9100  -30.1010   23.9680 C   0  0  0  0  0  3  0  0  0  0  0  0
  -17.6040  -30.5900   24.1540 C   0  0  0  0  0  3  0  0  0  0  0  0
  -16.5000  -29.8220   23.7450 C   0  0  0  0  0  3  0  0  0  0  0  0
  -16.7080  -28.5670   23.1420 C   0  0  0  0  0  3  0  0  0  0  0  0
  -25.8420  -32.5590   23.8170 C   0  0  0  0  0  3  0  0  0  0  0  0
  -25.5370  -33.9560   24.1530 N   0  0  0  0  0  0  0  0  0  0  0  0
  -25.8730  -35.0110   23.3980 C   0  0  0  0  0  0  0  0  0  0  0  0
  -26.5450  -34.9090   22.3670 O   0  0  0  0  0  0  0  0  0  0  0  0
  -24.9420  -34.1100   24.9540 H   0  0  0  0  0  0  0  0  0  0  0  0
  -24.1630  -36.8170   23.0310 C   0  0  0  0  0  1  0  0  0  0  0  0
  -25.3880  -36.3980   23.8590 C   0  0  0  0  0  3  0  0  0  0  0  0
  -27.5130  -37.2630   24.7340 C   0  0  0  0  0  1  0  0  0  0  0  0
  -26.4290  -37.4440   23.7720 N   0  0  0  0  0  0  0  0  0  0  0  0
  -26.0270  -38.3660   23.9180 H   0  0  0  0  0  0  0  0  0  0  0  0
  -26.3770  -31.7830   25.0830 C   0  0  1  0  0  0  0  0  0  0  0  0
  -25.2960  -31.5310   26.1590 C   0  0  0  0  0  1  0  0  0  0  0  0
  -26.9660  -30.4130   24.6730 C   0  0  0  0  0  1  0  0  0  0  0  0
  -27.5280  -32.5810   25.7400 C   0  0  0  0  0  1  0  0  0  0  0  0
  -27.8860  -17.6590   18.7750 C   0  0  0  0  0  1  0  0  0  0  0  0
  -28.0190  -17.7210   20.3030 C   0  0  0  0  0  2  0  0  0  0  0  0
  1  6  1  0
  2  6  2  0
  3  1  2  0
  4  3  1  0
  4  5  2  0
  5  2  1  0
  6  7  1  0
  8 16  1  0
  9 14  1  0
 10 11  1  0
 10  9  1  0
 12 11  1  0
 12 21  1  0
 12 13  1  0
 14  8  1  0
 14 13  1  0
 15  8  2  0
 16  5  1  0
 16 17  1  0
 18 19  2  0
 19 38  1  0
 20 19  1  0
 20 23  1  0
 21 22  1  0
 21 18  1  0
 22 20  2  0
 23 24  1  0
 24 25  2  0
 26 29  1  0
 26 25  1  0
 27 26  2  0
 28 27  1  0
 28 23  2  0
 29 30  1  0
 30 31  1  0
 31 32  2  0
 33 32  1  0
 33 37  1  0
 34 33  2  0
 35 30  2  0
 35 34  1  0
 36 35  1  0
 38 39  1  0
 39 42  1  0
 39 41  1  0
 40 38  2  0
 43 44  1  0
 43 18  1  0
 45 43  1  0
 46  3  1  0
 47 46  2  0
 48 49  1  0
 48 47  1  0
 49 51  1  0
 50 49  2  0
 52 51  1  0
 53 64  2  0
 54 52  1  0
 54 59  1  0
 55 63  1  0
 55 65  1  0
 56 62  1  0
 56 58  1  0
 57 63  1  0
 58 57  1  0
 59 58  2  0
 60 61  1  0
 60 54  2  0
 61 56  2  0
 62 55  1  0
 63 53  1  0
 65 67  2  0
 66 65  1  0
 68 66  1  0
 69 78  2  0
 69 74  1  0
 70 66  1  0
 70 74  1  0
 71 70  1  0
 72 73  1  0
 72 71  1  0
 73 69  1  0
 74 75  2  0
 75 76  1  0
 77 76  2  0
 78 77  1  0
 79 53  1  0
 79 80  1  0
 79 89  1  0
 80 83  1  0
 81 85  1  0
 81 80  1  0
 82 81  2  0
 85 84  1  0
 87 85  1  0
 87 88  1  0
 87 86  1  0
 89 92  1  1
 89 90  1  0
 91 89  1  0
 93 94  1  0
 94  4  1  0
M  ISO  4   8 100  16 100  51 101  52 101
M  END
>  <TORSDO>  (22) 
F 21

>  <SCORE>  (22) 
-13.732

>  <name>  (22) 
21

>  <ligand_id>  (22) 
21

>  <original_smiles>  (22) 
[H]C(=C([H])C([H])([H])C(=O)C([H])([H])Oc1c([H])c([H])c2c(c1[H])C([H])([H])N(C(=O)C([H])(N([H])C(=O)C([H])(N([H])C([H])([H])[H])C([H])([H])[H])C(C([H])([H])[H])(C([H])([H])[H])C([H])([H])[H])C([H])(C(=O)N([H])C1([H])c3c([H])c([H])c([H])c([H])c3C([H])([H])C([H])([H])C1([H])[H])C2([H])[H])c1c([H])c(F)c([H])c(N([H])C(=O)N2C([H])([H])C([H])([H])C([H])([H])C([H])(n3nc(-c4c([H])c([H])c(Oc5c([H])c([H])c(F)c([H])c5F)c([H])c4[H])c(C(=O)N([H])[H])c3N([H])[H])C2([H])[H])c1C([H])([H])C([H])([H])[H]

>  <smiles>  (22) 
[H]C(=C([H])C([H])([H])C(=O)C([H])([H])Oc1c([H])c([H])c2c(c1[H])C([H])([H])N(C(=O)C([H])(N([H])C(=O)C([H])(N([H])C([H])([H])[H])C([H])([H])[H])C(C([H])([H])[H])(C([H])([H])[H])C([H])([H])[H])C([H])(C(=O)N([H])C1([H])c3c([H])c([H])c([H])c([H])c3C([H])([H])C([H])([H])C1([H])[H])C2([H])[H])c1c([H])c(F)c([H])c(N([H])C(=O)N2C([H])([H])C([H])([H])C([H])([H])C([H])(n3nc(-c4c([H])c([H])c(Oc5c([H])c([H])c(F)c([H])c5F)c([H])c4[H])c(C(=O)N([H])[H])c3N([H])[H])C2([H])[H])c1C([H])([H])C([H])([H])[H]

$$$$
22:0:0
     RDKit          3D

 92100  0  0  1  0  0  0  0  0999 V2000
  -29.2920  -18.5340   20.7270 C   0  0  0  0  0  3  0  0  0  0  0  0
  -31.2830  -18.8930   22.0730 C   0  0  0  0  0  3  0  0  0  0  0  0
  -30.4030  -18.0150   21.4190 C   0  0  0  0  0  0  0  0  0  0  0  0
  -30.1320  -20.8050   21.0800 C   0  0  0  0  0  0  0  0  0  0  0  0
  -29.1570  -19.9250   20.5360 C   0  0  0  0  0  0  0  0  0  0  0  0
  -31.1540  -20.2830   21.9090 C   0  0  0  0  0  0  0  0  0  0  0  0
  -28.0280  -20.4120   19.6400 C   0  0  0  0  0  1  0  0  0  0  0  0
  -32.1730  -21.1910   22.5820 C   0  0  0  0  0  1  0  0  0  0  0  0
  -30.7870  -16.6080   21.3120 C   0  0  0  0  0  3  0  0  0  0  0  0
  -30.0350  -15.5830   20.8650 C   0  0  0  0  0  3  0  0  0  0  0  0
  -30.7330  -14.3740   20.4610 C   0  0  0  0  0  0  0  0  0  0  0  0
  -30.3350  -12.2570   19.2940 C   0  0  0  0  0  2  0  0  0  0  0  0
  -29.4230  -12.5250   18.0830 C   0  0  0  0  0  2  0  0  0  0  0  0
  -27.9430  -12.4140   18.4940 C   0  0  0  0  0  2  0  0  0  0  0  0
  -27.6100  -13.2370   19.7690 C   0  0  0  0  0  3  0  0  0  0  0  0
  -28.6530  -13.0000   20.8840 C   0  0  0  0  0  2  0  0  0  0  0  0
  -29.9890  -13.2460   20.3240 N   0  0  0  0  0  0  0  0  0  0  0  0
  -31.8880  -14.4470   20.0350 O   0  0  0  0  0  0  0  0  0  0  0  0
  -25.2080  -13.8570   20.4520 C   0  0  0  0  0  0  0  0  0  0  0  0
  -24.1350  -13.0900   20.8190 C   0  0  0  0  0  0  0  0  0  0  0  0
  -24.5940  -11.7370   20.8060 C   0  0  0  0  0  0  0  0  0  0  0  0
  -26.2530  -12.9710   20.2380 N   0  0  0  0  0  0  0  0  0  0  0  0
  -25.8860  -11.6930   20.5100 N   0  0  0  0  0  0  0  0  0  0  0  0
  -23.8640  -10.4780   21.0010 C   0  0  0  0  0  0  0  0  0  0  0  0
  -24.2830   -9.5200   21.9500 C   0  0  0  0  0  3  0  0  0  0  0  0
  -23.5570   -8.3230   22.1290 C   0  0  0  0  0  3  0  0  0  0  0  0
  -22.3940   -8.0780   21.3610 C   0  0  0  0  0  0  0  0  0  0  0  0
  -21.9940   -9.0240   20.4010 C   0  0  0  0  0  3  0  0  0  0  0  0
  -22.7220  -10.2110   20.2190 C   0  0  0  0  0  3  0  0  0  0  0  0
  -21.6360   -6.9360   21.4520 O   0  0  0  0  0  0  0  0  0  0  0  0
  -21.5670   -6.2070   22.6140 C   0  0  0  0  0  0  0  0  0  0  0  0
  -21.1220   -6.7780   23.8260 C   0  0  0  0  0  3  0  0  0  0  0  0
  -21.0030   -5.9750   24.9780 C   0  0  0  0  0  3  0  0  0  0  0  0
  -21.3170   -4.6040   24.9180 C   0  0  0  0  0  0  0  0  0  0  0  0
  -21.7550   -4.0340   23.7090 C   0  0  0  0  0  3  0  0  0  0  0  0
  -21.8780   -4.8330   22.5600 C   0  0  0  0  0  0  0  0  0  0  0  0
  -22.2800   -4.2750   21.3930 F   0  0  0  0  0  0  0  0  0  0  0  0
  -21.1940   -3.8310   26.0220 F   0  0  0  0  0  0  0  0  0  0  0  0
  -22.7360  -13.5720   21.0710 C   0  0  0  0  0  0  0  0  0  0  0  0
  -21.9960  -12.8850   21.9340 N   0  0  0  0  0  0  0  0  0  0  0  0
  -22.3080  -14.5950   20.5380 O   0  0  0  0  0  0  0  0  0  0  0  0
  -22.3560  -12.0590   22.3890 H   0  0  0  0  0  0  0  0  0  0  0  0
  -21.0550  -13.1880   22.1420 H   0  0  0  0  0  0  0  0  0  0  0  0
  -25.3780  -15.2260   20.2620 N   0  0  0  0  0  0  0  0  0  0  0  0
  -24.6110  -15.8830   20.3530 H   0  0  0  0  0  0  0  0  0  0  0  0
  -26.2340  -15.6600   19.9430 H   0  0  0  0  0  0  0  0  0  0  0  0
  -30.1850  -22.2350   20.7450 C   0  0  0  0  0  3  0  0  0  0  0  0
  -29.1780  -23.1190   20.8230 C   0  0  0  0  0  3  0  0  0  0  0  0
  -29.3720  -24.5100   20.4010 C   0  0  0  0  0  0  0  0  0  0  0  0
  -30.2980  -24.8770   19.6670 O   0  0  0  0  0  0  0  0  0  0  0  0
  -28.3520  -25.5170   20.9180 C   0  0  0  0  0  2  0  0  0  0  0  0
  -28.4890  -26.7620   20.2370 O   0  0  0  0  0  0  0  0  0  0  0  0
  -24.6160  -31.8790   23.2390 C   0  0  0  0  0  0  0  0  0  0  0  0
  -27.3220  -27.4740   20.2130 C   0  0  0  0  0  0  0  0  0  0  0  0
  -23.4370  -30.4630   21.5880 C   0  0  0  0  0  3  0  0  0  0  0  0
  -24.9170  -28.9320   20.1900 C   0  0  0  0  0  0  0  0  0  0  0  0
  -25.9590  -30.8470   21.4180 C   0  0  0  0  0  2  0  0  0  0  0  0
  -26.0630  -29.4770   20.7860 C   0  0  0  0  0  0  0  0  0  0  0  0
  -27.2720  -28.7550   20.7930 C   0  0  0  0  0  3  0  0  0  0  0  0
  -26.1660  -26.9330   19.6090 C   0  0  0  0  0  3  0  0  0  0  0  0
  -24.9620  -27.6570   19.6000 C   0  0  0  0  0  3  0  0  0  0  0  0
  -23.6660  -29.7760   20.2140 C   0  0  0  0  0  2  0  0  0  0  0  0
  -24.6880  -31.0780   22.1400 N   0  0  0  0  0  0  0  0  0  0  0  0
  -23.5280  -32.1460   23.7660 O   0  0  0  0  0  0  0  0  0  0  0  0
  -22.7850  -29.4400   22.5440 C   0  0  0  0  0  0  0  0  0  0  0  0
  -21.4610  -29.2580   22.4080 N   0  0  0  0  0  0  0  0  0  0  0  0
  -23.4650  -28.8140   23.3620 O   0  0  0  0  0  0  0  0  0  0  0  0
  -20.9760  -29.8140   21.7180 H   0  0  0  0  0  0  0  0  0  0  0  0
  -18.0780  -28.0910   22.9020 C   0  0  0  0  0  0  0  0  0  0  0  0
  -20.6380  -28.3210   23.1730 C   0  0  0  0  0  3  0  0  0  0  0  0
  -20.7270  -26.8930   22.5860 C   0  0  0  0  0  2  0  0  0  0  0  0
  -19.6200  -26.5880   21.5710 C   0  0  0  0  0  2  0  0  0  0  0  0
  -18.2410  -26.7430   22.2180 C   0  0  0  0  0  2  0  0  0  0  0  0
  -19.2050  -28.8380   23.3360 C   0  0  0  0  0  0  0  0  0  0  0  0
  -18.9990  -30.1000   23.9340 C   0  0  0  0  0  3  0  0  0  0  0  0
  -17.7010  -30.6150   24.1020 C   0  0  0  0  0  3  0  0  0  0  0  0
  -16.5880  -29.8630   23.6850 C   0  0  0  0  0  3  0  0  0  0  0  0
  -16.7780  -28.6020   23.0910 C   0  0  0  0  0  3  0  0  0  0  0  0
  -25.8920  -32.5190   23.8720 C   0  0  0  0  0  3  0  0  0  0  0  0
  -26.4020  -31.7550   25.1550 C   0  0  1  0  0  0  0  0  0  0  0  0
  -25.2990  -31.5120   26.2110 C   0  0  0  0  0  1  0  0  0  0  0  0
  -26.9970  -30.3790   24.7720 C   0  0  0  0  0  1  0  0  0  0  0  0
  -27.5400  -32.5590   25.8280 C   0  0  0  0  0  1  0  0  0  0  0  0
  -25.5720  -33.9160   24.1900 N   0  0  0  0  0  0  0  0  0  0  0  0
  -25.9090  -34.9650   23.4270 C   0  0  0  0  0  0  0  0  0  0  0  0
  -26.5930  -34.8600   22.4050 O   0  0  0  0  0  0  0  0  0  0  0  0
  -24.9630  -34.0730   24.9790 H   0  0  0  0  0  0  0  0  0  0  0  0
  -24.1750  -36.7440   23.0360 C   0  0  0  0  0  1  0  0  0  0  0  0
  -25.4060  -36.3530   23.8700 C   0  0  0  0  0  3  0  0  0  0  0  0
  -27.5220  -37.2520   24.7290 C   0  0  0  0  0  1  0  0  0  0  0  0
  -26.4340  -37.4110   23.7680 N   0  0  0  0  0  0  0  0  0  0  0  0
  -26.0210  -38.3300   23.9050 H   0  0  0  0  0  0  0  0  0  0  0  0
  1  3  1  0
  3  2  2  0
  4  6  2  0
  5  1  2  0
  5  4  1  0
  6  2  1  0
  6  8  1  0
  7  5  1  0
  9  3  1  0
 10  9  2  0
 11 10  1  0
 12 17  1  0
 13 14  1  0
 13 12  1  0
 15 14  1  0
 15 22  1  0
 15 16  1  0
 17 11  1  0
 17 16  1  0
 18 11  2  0
 19 20  2  0
 20 39  1  0
 21 20  1  0
 21 24  1  0
 22 19  1  0
 22 23  1  0
 23 21  2  0
 24 25  1  0
 25 26  2  0
 27 30  1  0
 27 26  1  0
 28 27  2  0
 29 28  1  0
 29 24  2  0
 30 31  1  0
 31 32  1  0
 32 33  2  0
 34 33  1  0
 34 38  1  0
 35 34  2  0
 36 31  2  0
 36 35  1  0
 37 36  1  0
 39 40  1  0
 40 43  1  0
 40 42  1  0
 41 39  2  0
 44 45  1  0
 44 19  1  0
 46 44  1  0
 47 48  2  0
 47  4  1  0
 49 48  1  0
 49 51  1  0
 50 49  2  0
 52 51  1  0
 53 64  2  0
 54 52  1  0
 54 59  1  0
 55 63  1  0
 55 65  1  0
 56 62  1  0
 56 58  1  0
 57 63  1  0
 58 59  2  0
 58 57  1  0
 60 54  2  0
 61 60  1  0
 61 56  2  0
 62 55  1  0
 63 53  1  0
 65 67  2  0
 66 65  1  0
 68 66  1  0
 69 78  2  0
 69 74  1  0
 70 66  1  0
 70 74  1  0
 71 70  1  0
 72 73  1  0
 72 71  1  0
 73 69  1  0
 74 75  2  0
 75 76  1  0
 77 76  2  0
 78 77  1  0
 79 53  1  0
 79 84  1  0
 79 80  1  0
 80 83  1  1
 80 81  1  0
 82 80  1  0
 84 87  1  0
 85 89  1  0
 85 84  1  0
 86 85  2  0
 89 88  1  0
 91 89  1  0
 91 92  1  0
 91 90  1  0
M  ISO  4  10 100  11 100  51 101  52 101
M  END
>  <TORSDO>  (23) 
F 20

>  <SCORE>  (23) 
-14.152

>  <name>  (23) 
22

>  <ligand_id>  (23) 
22

>  <original_smiles>  (23) 
[H]C(C(=O)N1C([H])([H])C([H])([H])C([H])([H])C([H])(n2nc(-c3c([H])c([H])c(Oc4c([H])c([H])c(F)c([H])c4F)c([H])c3[H])c(C(=O)N([H])[H])c2N([H])[H])C1([H])[H])=C([H])c1c([H])c(C([H])([H])[H])c(C([H])=C([H])C(=O)C([H])([H])Oc2c([H])c([H])c3c(c2[H])C([H])([H])N(C(=O)C([H])(N([H])C(=O)C([H])(N([H])C([H])([H])[H])C([H])([H])[H])C(C([H])([H])[H])(C([H])([H])[H])C([H])([H])[H])C([H])(C(=O)N([H])C2([H])c4c([H])c([H])c([H])c([H])c4C([H])([H])C([H])([H])C2([H])[H])C3([H])[H])c(C([H])([H])[H])c1[H]

>  <smiles>  (23) 
[H]C(C(=O)N1C([H])([H])C([H])([H])C([H])([H])C([H])(n2nc(-c3c([H])c([H])c(Oc4c([H])c([H])c(F)c([H])c4F)c([H])c3[H])c(C(=O)N([H])[H])c2N([H])[H])C1([H])[H])=C([H])c1c([H])c(C([H])([H])[H])c(C([H])=C([H])C(=O)C([H])([H])Oc2c([H])c([H])c3c(c2[H])C([H])([H])N(C(=O)C([H])(N([H])C(=O)C([H])(N([H])C([H])([H])[H])C([H])([H])[H])C(C([H])([H])[H])(C([H])([H])[H])C([H])([H])[H])C([H])(C(=O)N([H])C2([H])c4c([H])c([H])c([H])c([H])c4C([H])([H])C([H])([H])C2([H])[H])C3([H])[H])c(C([H])([H])[H])c1[H]

$$$$
23:0:0
     RDKit          3D

 92100  0  0  1  0  0  0  0  0999 V2000
  -28.0350  -17.8220   19.5090 C   0  0  0  0  0  3  0  0  0  0  0  0
  -27.1400  -18.7690   18.9990 C   0  0  0  0  0  3  0  0  0  0  0  0
  -29.4780  -19.6110   20.2640 C   0  0  0  0  0  3  0  0  0  0  0  0
  -29.2310  -18.2180   20.1330 C   0  0  0  0  0  0  0  0  0  0  0  0
  -27.4000  -20.1530   19.0770 C   0  0  0  0  0  0  0  0  0  0  0  0
  -28.5880  -20.6030   19.7480 C   0  0  0  0  0  0  0  0  0  0  0  0
  -25.0510  -20.8080   18.5280 C   0  0  0  0  0  2  0  0  0  0  0  0
  -26.3780  -21.0050   18.4390 C   0  0  0  0  0  3  0  0  0  0  0  0
  -30.1760  -17.1530   20.5710 C   0  0  0  0  0  3  0  0  0  0  0  0
  -29.7970  -15.9060   20.9570 C   0  0  0  0  0  3  0  0  0  0  0  0
  -30.7370  -14.7840   21.1030 C   0  0  0  0  0  0  0  0  0  0  0  0
  -30.6970  -12.4390   20.3540 C   0  0  0  0  0  2  0  0  0  0  0  0
  -29.9330  -12.4100   19.0110 C   0  0  0  0  0  2  0  0  0  0  0  0
  -28.4140  -12.2610   19.2430 C   0  0  0  0  0  2  0  0  0  0  0  0
  -27.8720  -13.2610   20.2960 C   0  0  0  0  0  3  0  0  0  0  0  0
  -28.7660  -13.2610   21.5590 C   0  0  0  0  0  2  0  0  0  0  0  0
  -30.1490  -13.5510   21.1480 N   0  0  0  0  0  0  0  0  0  0  0  0
  -31.9520  -14.9170   20.9230 O   0  0  0  0  0  0  0  0  0  0  0  0
  -25.4080  -13.8950   20.6900 C   0  0  0  0  0  0  0  0  0  0  0  0
  -24.3020  -13.1370   20.9570 C   0  0  0  0  0  0  0  0  0  0  0  0
  -24.7620  -11.7870   21.0400 C   0  0  0  0  0  0  0  0  0  0  0  0
  -26.4720  -13.0080   20.6220 N   0  0  0  0  0  0  0  0  0  0  0  0
  -26.0790  -11.7370   20.8930 N   0  0  0  0  0  0  0  0  0  0  0  0
  -24.0170  -10.5330   21.1940 C   0  0  0  0  0  0  0  0  0  0  0  0
  -24.3710   -9.5800   22.1750 C   0  0  0  0  0  3  0  0  0  0  0  0
  -23.6280   -8.3890   22.3150 C   0  0  0  0  0  3  0  0  0  0  0  0
  -22.5180   -8.1420   21.4740 C   0  0  0  0  0  0  0  0  0  0  0  0
  -22.1840   -9.0840   20.4840 C   0  0  0  0  0  3  0  0  0  0  0  0
  -22.9280  -10.2660   20.3420 C   0  0  0  0  0  3  0  0  0  0  0  0
  -21.7540   -7.0010   21.5200 O   0  0  0  0  0  0  0  0  0  0  0  0
  -21.6680   -6.2380   22.6570 C   0  0  0  0  0  0  0  0  0  0  0  0
  -21.2020   -6.7720   23.8780 C   0  0  0  0  0  3  0  0  0  0  0  0
  -21.0630   -5.9370   25.0050 C   0  0  0  0  0  3  0  0  0  0  0  0
  -21.3810   -4.5690   24.9100 C   0  0  0  0  0  0  0  0  0  0  0  0
  -21.8400   -4.0340   23.6930 C   0  0  0  0  0  3  0  0  0  0  0  0
  -21.9800   -4.8670   22.5700 C   0  0  0  0  0  0  0  0  0  0  0  0
  -22.4030   -4.3420   21.3940 F   0  0  0  0  0  0  0  0  0  0  0  0
  -21.2400   -3.7640   25.9900 F   0  0  0  0  0  0  0  0  0  0  0  0
  -22.8820  -13.6210   21.0370 C   0  0  0  0  0  0  0  0  0  0  0  0
  -22.0590  -12.9730   21.8530 N   0  0  0  0  0  0  0  0  0  0  0  0
  -22.5090  -14.6110   20.4090 O   0  0  0  0  0  0  0  0  0  0  0  0
  -22.3720  -12.1730   22.3830 H   0  0  0  0  0  0  0  0  0  0  0  0
  -21.1020  -13.2810   21.9500 H   0  0  0  0  0  0  0  0  0  0  0  0
  -25.5900  -15.2580   20.4820 N   0  0  0  0  0  0  0  0  0  0  0  0
  -24.8170  -15.9120   20.4870 H   0  0  0  0  0  0  0  0  0  0  0  0
  -26.4800  -15.6940   20.2910 H   0  0  0  0  0  0  0  0  0  0  0  0
  -28.9670  -21.9280   19.9730 O   0  0  0  0  0  0  0  0  0  0  0  0
  -28.2010  -23.0220   19.4340 C   0  0  0  0  0  2  0  0  0  0  0  0
  -28.7050  -24.4070   19.8840 C   0  0  0  0  0  0  0  0  0  0  0  0
  -29.3360  -24.5560   20.9380 O   0  0  0  0  0  0  0  0  0  0  0  0
  -28.3780  -25.6010   18.9590 C   0  0  0  0  0  2  0  0  0  0  0  0
  -28.2650  -26.8470   19.6810 O   0  0  0  0  0  0  0  0  0  0  0  0
  -24.5190  -31.8440   23.1080 C   0  0  0  0  0  0  0  0  0  0  0  0
  -27.0650  -27.5390   19.7310 C   0  0  0  0  0  0  0  0  0  0  0  0
  -23.2630  -30.5290   21.4330 C   0  0  0  0  0  3  0  0  0  0  0  0
  -24.6690  -29.0580   19.8950 C   0  0  0  0  0  0  0  0  0  0  0  0
  -25.7850  -30.8850   21.1840 C   0  0  0  0  0  2  0  0  0  0  0  0
  -25.8460  -29.5450   20.4740 C   0  0  0  0  0  0  0  0  0  0  0  0
  -27.0410  -28.7920   20.3930 C   0  0  0  0  0  3  0  0  0  0  0  0
  -25.8570  -27.0610   19.1660 C   0  0  0  0  0  3  0  0  0  0  0  0
  -24.6700  -27.8150   19.2420 C   0  0  0  0  0  3  0  0  0  0  0  0
  -23.4320  -29.9180   20.0170 C   0  0  0  0  0  2  0  0  0  0  0  0
  -24.5420  -31.0980   21.9670 N   0  0  0  0  0  0  0  0  0  0  0  0
  -23.4540  -32.0920   23.6900 O   0  0  0  0  0  0  0  0  0  0  0  0
  -22.6340  -29.4630   22.3590 C   0  0  0  0  0  0  0  0  0  0  0  0
  -21.3050  -29.2980   22.2670 N   0  0  0  0  0  0  0  0  0  0  0  0
  -23.3390  -28.7900   23.1170 O   0  0  0  0  0  0  0  0  0  0  0  0
  -20.7980  -29.8940   21.6270 H   0  0  0  0  0  0  0  0  0  0  0  0
  -17.9370  -28.1030   22.8060 C   0  0  0  0  0  0  0  0  0  0  0  0
  -20.5040  -28.3270   23.0120 C   0  0  0  0  0  3  0  0  0  0  0  0
  -20.5760  -26.9280   22.3590 C   0  0  0  0  0  2  0  0  0  0  0  0
  -19.4400  -26.6680   21.3630 C   0  0  0  0  0  2  0  0  0  0  0  0
  -18.0810  -26.7890   22.0570 C   0  0  0  0  0  2  0  0  0  0  0  0
  -19.0750  -28.8330   23.2400 C   0  0  0  0  0  0  0  0  0  0  0  0
  -18.8870  -30.0660   23.9020 C   0  0  0  0  0  3  0  0  0  0  0  0
  -17.5930  -30.5690   24.1320 C   0  0  0  0  0  3  0  0  0  0  0  0
  -16.4690  -29.8350   23.7140 C   0  0  0  0  0  3  0  0  0  0  0  0
  -16.6420  -28.6040   23.0580 C   0  0  0  0  0  3  0  0  0  0  0  0
  -25.8250  -32.4400   23.7220 C   0  0  0  0  0  3  0  0  0  0  0  0
  -25.5310  -33.8190   24.1330 N   0  0  0  0  0  0  0  0  0  0  0  0
  -25.8700  -34.9090   23.4330 C   0  0  0  0  0  0  0  0  0  0  0  0
  -26.5330  -34.8580   22.3930 O   0  0  0  0  0  0  0  0  0  0  0  0
  -24.9420  -33.9330   24.9450 H   0  0  0  0  0  0  0  0  0  0  0  0
  -24.1610  -36.7370   23.1820 C   0  0  0  0  0  1  0  0  0  0  0  0
  -25.3960  -36.2730   23.9700 C   0  0  0  0  0  3  0  0  0  0  0  0
  -27.5350  -37.0870   24.8580 C   0  0  0  0  0  1  0  0  0  0  0  0
  -26.4400  -37.3190   23.9210 N   0  0  0  0  0  0  0  0  0  0  0  0
  -26.0430  -38.2340   24.1170 H   0  0  0  0  0  0  0  0  0  0  0  0
  -26.3790  -31.6000   24.9380 C   0  0  1  0  0  0  0  0  0  0  0  0
  -25.3220  -31.3140   26.0300 C   0  0  0  0  0  1  0  0  0  0  0  0
  -26.9380  -30.2420   24.4550 C   0  0  0  0  0  1  0  0  0  0  0  0
  -27.5580  -32.3520   25.6000 C   0  0  0  0  0  1  0  0  0  0  0  0
  1  4  1  0
  2  5  1  0
  2  1  2  0
  4  3  2  0
  4  9  1  0
  5  6  2  0
  6 47  1  0
  6  3  1  0
  8  7  2  0
  8  5  1  0
  9 10  2  0
 10 11  1  0
 11 17  1  0
 12 17  1  0
 13 14  1  0
 13 12  1  0
 15 14  1  0
 15 22  1  0
 15 16  1  0
 17 16  1  0
 18 11  2  0
 19 20  2  0
 20 39  1  0
 20 21  1  0
 21 24  1  0
 22 19  1  0
 22 23  1  0
 23 21  2  0
 24 25  1  0
 25 26  2  0
 27 30  1  0
 27 26  1  0
 28 27  2  0
 29 28  1  0
 29 24  2  0
 30 31  1  0
 31 32  1  0
 32 33  2  0
 34 33  1  0
 34 38  1  0
 35 34  2  0
 36 31  2  0
 36 35  1  0
 37 36  1  0
 39 40  1  0
 40 43  1  0
 40 42  1  0
 41 39  2  0
 44 45  1  0
 44 19  1  0
 46 44  1  0
 48 49  1  0
 48 47  1  0
 49 50  2  0
 51 52  1  0
 51 49  1  0
 52 54  1  0
 53 64  2  0
 54 59  1  0
 55 63  1  0
 55 65  1  0
 56 62  1  0
 56 58  1  0
 57 63  1  0
 58 57  1  0
 59 58  2  0
 60 61  1  0
 60 54  2  0
 61 56  2  0
 62 55  1  0
 63 53  1  0
 65 67  2  0
 66 65  1  0
 68 66  1  0
 69 78  2  0
 69 74  1  0
 70 66  1  0
 70 74  1  0
 71 70  1  0
 72 73  1  0
 72 71  1  0
 73 69  1  0
 74 75  2  0
 75 76  1  0
 77 76  2  0
 78 77  1  0
 79 53  1  0
 79 80  1  0
 79 89  1  0
 80 83  1  0
 81 85  1  0
 81 80  1  0
 82 81  2  0
 85 84  1  0
 87 85  1  0
 87 88  1  0
 87 86  1  0
 89 92  1  1
 89 90  1  0
 91 89  1  0
M  ISO  4  10 100  11 100  51 101  52 101
M  END
>  <TORSDO>  (24) 
F 22

>  <SCORE>  (24) 
-12.697

>  <name>  (24) 
23

>  <ligand_id>  (24) 
23

>  <original_smiles>  (24) 
[H]C([H])=C([H])c1c([H])c([H])c(C([H])=C([H])C(=O)N2C([H])([H])C([H])([H])C([H])([H])C([H])(n3nc(-c4c([H])c([H])c(Oc5c([H])c([H])c(F)c([H])c5F)c([H])c4[H])c(C(=O)N([H])[H])c3N([H])[H])C2([H])[H])c([H])c1OC([H])([H])C(=O)C([H])([H])Oc1c([H])c([H])c2c(c1[H])C([H])([H])N(C(=O)C([H])(N([H])C(=O)C([H])(N([H])C([H])([H])[H])C([H])([H])[H])C(C([H])([H])[H])(C([H])([H])[H])C([H])([H])[H])C([H])(C(=O)N([H])C1([H])c3c([H])c([H])c([H])c([H])c3C([H])([H])C([H])([H])C1([H])[H])C2([H])[H]

>  <smiles>  (24) 
[H]C([H])=C([H])c1c([H])c([H])c(C([H])=C([H])C(=O)N2C([H])([H])C([H])([H])C([H])([H])C([H])(n3nc(-c4c([H])c([H])c(Oc5c([H])c([H])c(F)c([H])c5F)c([H])c4[H])c(C(=O)N([H])[H])c3N([H])[H])C2([H])[H])c([H])c1OC([H])([H])C(=O)C([H])([H])Oc1c([H])c([H])c2c(c1[H])C([H])([H])N(C(=O)C([H])(N([H])C(=O)C([H])(N([H])C([H])([H])[H])C([H])([H])[H])C(C([H])([H])[H])(C([H])([H])[H])C([H])([H])[H])C([H])(C(=O)N([H])C1([H])c3c([H])c([H])c([H])c([H])c3C([H])([H])C([H])([H])C1([H])[H])C2([H])[H]

$$$$
24:0:0
     RDKit          3D

 90 98  0  0  1  0  0  0  0  0999 V2000
  -29.3520  -19.7820   20.2200 C   0  0  0  0  0  3  0  0  0  0  0  0
  -30.7310  -18.9460   22.0320 C   0  0  0  0  0  3  0  0  0  0  0  0
  -30.1380  -21.3300   21.9340 C   0  0  0  0  0  3  0  0  0  0  0  0
  -30.0550  -18.6600   20.8200 C   0  0  0  0  0  0  0  0  0  0  0  0
  -29.3720  -21.1430   20.7560 C   0  0  0  0  0  0  0  0  0  0  0  0
  -30.7920  -20.2500   22.5650 C   0  0  0  0  0  0  0  0  0  0  0  0
  -31.5200  -20.4810   23.6890 F   0  0  0  0  0  0  0  0  0  0  0  0
  -30.2310  -17.2470   20.2030 C   0  0  0  0  0  3  0  0  0  0  0  0
  -30.3220  -15.9880   20.7850 C   0  0  0  0  0  3  0  0  0  0  0  0
  -30.8810  -14.7750   20.0790 C   0  0  0  0  0  0  0  0  0  0  0  0
  -30.5000  -12.5730   18.9600 C   0  0  0  0  0  2  0  0  0  0  0  0
  -29.5470  -12.8170   17.7710 C   0  0  0  0  0  2  0  0  0  0  0  0
  -28.0750  -12.7040   18.2320 C   0  0  0  0  0  2  0  0  0  0  0  0
  -27.7990  -13.4910   19.5490 C   0  0  0  0  0  3  0  0  0  0  0  0
  -28.8950  -13.2560   20.6140 C   0  0  0  0  0  2  0  0  0  0  0  0
  -30.1850  -13.5850   20.0000 N   0  0  0  0  0  0  0  0  0  0  0  0
  -31.9820  -14.8430   19.5240 O   0  0  0  0  0  0  0  0  0  0  0  0
  -25.4470  -14.1140   20.3600 C   0  0  0  0  0  0  0  0  0  0  0  0
  -24.3810  -13.3640   20.7640 C   0  0  0  0  0  0  0  0  0  0  0  0
  -24.8120  -12.0020   20.7050 C   0  0  0  0  0  0  0  0  0  0  0  0
  -26.4650  -13.2190   20.0760 N   0  0  0  0  0  0  0  0  0  0  0  0
  -26.0900  -11.9400   20.3410 N   0  0  0  0  0  0  0  0  0  0  0  0
  -24.0670  -10.7550   20.9190 C   0  0  0  0  0  0  0  0  0  0  0  0
  -24.5130   -9.7790   21.8380 C   0  0  0  0  0  3  0  0  0  0  0  0
  -23.7720   -8.5930   22.0410 C   0  0  0  0  0  3  0  0  0  0  0  0
  -22.5670   -8.3790   21.3300 C   0  0  0  0  0  0  0  0  0  0  0  0
  -22.1400   -9.3450   20.4000 C   0  0  0  0  0  3  0  0  0  0  0  0
  -22.8810  -10.5200   20.1960 C   0  0  0  0  0  3  0  0  0  0  0  0
  -21.7950   -7.2490   21.4400 O   0  0  0  0  0  0  0  0  0  0  0  0
  -21.7590   -6.5120   22.5960 C   0  0  0  0  0  0  0  0  0  0  0  0
  -21.3720   -7.0820   23.8300 C   0  0  0  0  0  3  0  0  0  0  0  0
  -21.2840   -6.2710   24.9800 C   0  0  0  0  0  3  0  0  0  0  0  0
  -21.5710   -4.8940   24.8960 C   0  0  0  0  0  0  0  0  0  0  0  0
  -21.9480   -4.3270   23.6690 C   0  0  0  0  0  3  0  0  0  0  0  0
  -22.0410   -5.1340   22.5220 C   0  0  0  0  0  0  0  0  0  0  0  0
  -22.3850   -4.5790   21.3340 F   0  0  0  0  0  0  0  0  0  0  0  0
  -21.4810   -4.1140   26.0000 F   0  0  0  0  0  0  0  0  0  0  0  0
  -23.0040  -13.8670   21.0920 C   0  0  0  0  0  0  0  0  0  0  0  0
  -22.2930  -13.1970   21.9900 N   0  0  0  0  0  0  0  0  0  0  0  0
  -22.5700  -14.9010   20.5830 O   0  0  0  0  0  0  0  0  0  0  0  0
  -22.6500  -12.3680   22.4440 H   0  0  0  0  0  0  0  0  0  0  0  0
  -21.3740  -13.5310   22.2360 H   0  0  0  0  0  0  0  0  0  0  0  0
  -25.6400  -15.4840   20.1840 N   0  0  0  0  0  0  0  0  0  0  0  0
  -24.9220  -16.1750   20.3760 H   0  0  0  0  0  0  0  0  0  0  0  0
  -26.5080  -15.8940   19.8590 H   0  0  0  0  0  0  0  0  0  0  0  0
  -28.6080  -22.3620   20.1370 C   0  0  0  0  0  0  0  0  0  0  0  0
  -27.6620  -22.1080   19.3810 O   0  0  0  0  0  0  0  0  0  0  0  0
  -28.9650  -23.8590   20.3670 C   0  0  0  0  0  3  0  0  0  0  0  0
  -28.0730  -24.9110   20.2010 C   0  0  0  0  0  3  0  0  0  0  0  0
  -28.2830  -26.3380   20.2480 O   0  0  0  0  0  0  0  0  0  0  0  0
  -24.6200  -31.8970   23.2350 C   0  0  0  0  0  0  0  0  0  0  0  0
  -27.1980  -27.2590   20.1810 C   0  0  0  0  0  0  0  0  0  0  0  0
  -23.4070  -30.4950   21.6090 C   0  0  0  0  0  3  0  0  0  0  0  0
  -24.8480  -28.9380   20.1800 C   0  0  0  0  0  0  0  0  0  0  0  0
  -25.9600  -30.7830   21.4360 C   0  0  0  0  0  2  0  0  0  0  0  0
  -26.0290  -29.4040   20.7750 C   0  0  0  0  0  0  0  0  0  0  0  0
  -27.2010  -28.5710   20.7750 C   0  0  0  0  0  3  0  0  0  0  0  0
  -26.0040  -26.8960   19.5110 C   0  0  0  0  0  3  0  0  0  0  0  0
  -24.8450  -27.6920   19.5390 C   0  0  0  0  0  3  0  0  0  0  0  0
  -23.6100  -29.8130   20.2330 C   0  0  0  0  0  2  0  0  0  0  0  0
  -24.6790  -31.0830   22.1420 N   0  0  0  0  0  0  0  0  0  0  0  0
  -23.5380  -32.1750   23.7720 O   0  0  0  0  0  0  0  0  0  0  0  0
  -22.7500  -29.4800   22.5740 C   0  0  0  0  0  0  0  0  0  0  0  0
  -21.4290  -29.2770   22.4380 N   0  0  0  0  0  0  0  0  0  0  0  0
  -23.4300  -28.8790   23.4080 O   0  0  0  0  0  0  0  0  0  0  0  0
  -20.9410  -29.8040   21.7250 H   0  0  0  0  0  0  0  0  0  0  0  0
  -18.0710  -28.0100   22.9040 C   0  0  0  0  0  0  0  0  0  0  0  0
  -20.6170  -28.3390   23.2170 C   0  0  0  0  0  3  0  0  0  0  0  0
  -20.7640  -26.8940   22.6840 C   0  0  0  0  0  2  0  0  0  0  0  0
  -19.6940  -26.5180   21.6550 C   0  0  0  0  0  2  0  0  0  0  0  0
  -18.2910  -26.6530   22.2550 C   0  0  0  0  0  2  0  0  0  0  0  0
  -19.1620  -28.8070   23.3370 C   0  0  0  0  0  0  0  0  0  0  0  0
  -18.9000  -30.0780   23.8950 C   0  0  0  0  0  3  0  0  0  0  0  0
  -17.5800  -30.5500   24.0250 C   0  0  0  0  0  3  0  0  0  0  0  0
  -16.5030  -29.7440   23.6170 C   0  0  0  0  0  3  0  0  0  0  0  0
  -16.7490  -28.4760   23.0610 C   0  0  0  0  0  3  0  0  0  0  0  0
  -25.9040  -32.5320   23.8480 C   0  0  0  0  0  3  0  0  0  0  0  0
  -26.4160  -31.7750   25.1350 C   0  0  1  0  0  0  0  0  0  0  0  0
  -25.3220  -31.5710   26.2100 C   0  0  0  0  0  1  0  0  0  0  0  0
  -26.9780  -30.3780   24.7810 C   0  0  0  0  0  1  0  0  0  0  0  0
  -27.5860  -32.5640   25.7710 C   0  0  0  0  0  1  0  0  0  0  0  0
  -25.5940  -33.9330   24.1650 N   0  0  0  0  0  0  0  0  0  0  0  0
  -25.9270  -34.9830   23.4010 C   0  0  0  0  0  0  0  0  0  0  0  0
  -26.5940  -34.8720   22.3700 O   0  0  0  0  0  0  0  0  0  0  0  0
  -24.9960  -34.0920   24.9610 H   0  0  0  0  0  0  0  0  0  0  0  0
  -24.1970  -36.7770   23.0390 C   0  0  0  0  0  1  0  0  0  0  0  0
  -25.4390  -36.3740   23.8500 C   0  0  0  0  0  3  0  0  0  0  0  0
  -27.5710  -37.2650   24.6800 C   0  0  0  0  0  1  0  0  0  0  0  0
  -26.4740  -37.4250   23.7300 N   0  0  0  0  0  0  0  0  0  0  0  0
  -26.0690  -38.3500   23.8580 H   0  0  0  0  0  0  0  0  0  0  0  0
  1  5  2  0
  1  4  1  0
  2  6  1  0
  3  6  2  0
  4  2  2  0
  5  3  1  0
  6  7  1  0
  8  9  2  0
  8  4  1  0
 10  9  1  0
 11 16  1  0
 12 13  1  0
 12 11  1  0
 14 13  1  0
 14 21  1  0
 14 15  1  0
 16 10  1  0
 16 15  1  0
 17 10  2  0
 18 19  2  0
 19 38  1  0
 20 19  1  0
 20 23  1  0
 21 22  1  0
 21 18  1  0
 22 20  2  0
 23 24  1  0
 24 25  2  0
 26 29  1  0
 26 25  1  0
 27 26  2  0
 28 27  1  0
 28 23  2  0
 29 30  1  0
 30 31  1  0
 31 32  2  0
 33 32  1  0
 33 37  1  0
 34 33  2  0
 35 30  2  0
 35 34  1  0
 36 35  1  0
 38 39  1  0
 39 42  1  0
 39 41  1  0
 40 38  2  0
 43 18  1  0
 43 44  1  0
 45 43  1  0
 46 48  1  0
 46  5  1  0
 47 46  2  0
 49 50  1  0
 49 48  2  0
 51 62  2  0
 52 50  1  0
 52 57  1  0
 53 61  1  0
 53 63  1  0
 54 60  1  0
 54 56  1  0
 55 61  1  0
 56 55  1  0
 57 56  2  0
 58 59  1  0
 58 52  2  0
 59 54  2  0
 60 53  1  0
 61 51  1  0
 63 65  2  0
 64 63  1  0
 66 64  1  0
 67 76  2  0
 67 72  1  0
 68 64  1  0
 68 72  1  0
 69 68  1  0
 70 71  1  0
 70 69  1  0
 71 67  1  0
 72 73  2  0
 73 74  1  0
 75 74  2  0
 76 75  1  0
 77 51  1  0
 77 82  1  0
 77 78  1  0
 78 81  1  1
 78 79  1  0
 80 78  1  0
 82 85  1  0
 83 87  1  0
 83 82  1  0
 84 83  2  0
 87 86  1  0
 89 87  1  0
 89 90  1  0
 89 88  1  0
M  ISO  4   9 100  10 100  49 101  50 101
M  END
>  <TORSDO>  (25) 
F 19

>  <SCORE>  (25) 
-14.120

>  <name>  (25) 
24

>  <ligand_id>  (25) 
24

>  <original_smiles>  (25) 
[H]C(Oc1c([H])c([H])c2c(c1[H])C([H])([H])N(C(=O)C([H])(N([H])C(=O)C([H])(N([H])C([H])([H])[H])C([H])([H])[H])C(C([H])([H])[H])(C([H])([H])[H])C([H])([H])[H])C([H])(C(=O)N([H])C1([H])c3c([H])c([H])c([H])c([H])c3C([H])([H])C([H])([H])C1([H])[H])C2([H])[H])=C([H])C(=O)c1c([H])c(F)c([H])c(C([H])=C([H])C(=O)N2C([H])([H])C([H])([H])C([H])([H])C([H])(n3nc(-c4c([H])c([H])c(Oc5c([H])c([H])c(F)c([H])c5F)c([H])c4[H])c(C(=O)N([H])[H])c3N([H])[H])C2([H])[H])c1[H]

>  <smiles>  (25) 
[H]C(Oc1c([H])c([H])c2c(c1[H])C([H])([H])N(C(=O)C([H])(N([H])C(=O)C([H])(N([H])C([H])([H])[H])C([H])([H])[H])C(C([H])([H])[H])(C([H])([H])[H])C([H])([H])[H])C([H])(C(=O)N([H])C1([H])c3c([H])c([H])c([H])c([H])c3C([H])([H])C([H])([H])C1([H])[H])C2([H])[H])=C([H])C(=O)c1c([H])c(F)c([H])c(C([H])=C([H])C(=O)N2C([H])([H])C([H])([H])C([H])([H])C([H])(n3nc(-c4c([H])c([H])c(Oc5c([H])c([H])c(F)c([H])c5F)c([H])c4[H])c(C(=O)N([H])[H])c3N([H])[H])C2([H])[H])c1[H]

$$$$
25:0:0
     RDKit          3D

 95103  0  0  1  0  0  0  0  0999 V2000
  -26.9460  -20.7080   19.9740 C   0  0  0  0  0  0  0  0  0  0  0  0
  -25.8190  -20.4330   19.4680 N   0  0  0  0  0  0  0  0  0  0  0  0
  -25.8410  -19.5180   19.0300 H   0  0  0  0  0  0  0  0  0  0  0  0
  -29.4010  -20.1840   20.0140 C   0  0  0  0  0  3  0  0  0  0  0  0
  -30.4840  -19.2860   19.9760 C   0  0  0  0  0  3  0  0  0  0  0  0
  -28.9350  -17.4330   19.7210 C   0  0  0  0  0  3  0  0  0  0  0  0
  -28.0680  -19.7280   19.9110 C   0  0  0  0  0  0  0  0  0  0  0  0
  -30.2600  -17.9020   19.8260 C   0  0  0  0  0  0  0  0  0  0  0  0
  -27.8420  -18.3280   19.7650 C   0  0  0  0  0  0  0  0  0  0  0  0
  -26.4380  -17.7370   19.7150 C   0  0  0  0  0  1  0  0  0  0  0  0
  -31.4470  -16.9420   19.8270 C   0  0  0  0  0  2  0  0  0  0  0  0
  -31.9410  -14.5500   20.2820 C   0  0  0  0  0  0  0  0  0  0  0  0
  -31.8670  -12.0940   20.1230 C   0  0  0  0  0  2  0  0  0  0  0  0
  -31.0730  -11.7090   18.8580 C   0  0  0  0  0  2  0  0  0  0  0  0
  -29.5560  -11.6690   19.1390 C   0  0  0  0  0  2  0  0  0  0  0  0
  -29.0470  -12.9180   19.9080 C   0  0  0  0  0  3  0  0  0  0  0  0
  -29.9630  -13.2290   21.1110 C   0  0  0  0  0  2  0  0  0  0  0  0
  -31.3400  -13.3760   20.6060 N   0  0  0  0  0  0  0  0  0  0  0  0
  -33.0840  -14.6300   19.8270 O   0  0  0  0  0  0  0  0  0  0  0  0
  -31.1430  -15.6190   20.3690 N   0  0  0  0  0  0  0  0  0  0  0  0
  -30.2150  -15.4640   20.7260 H   0  0  0  0  0  0  0  0  0  0  0  0
  -26.6700  -13.7320   20.4770 C   0  0  0  0  0  0  0  0  0  0  0  0
  -25.5240  -13.0530   20.8000 C   0  0  0  0  0  0  0  0  0  0  0  0
  -25.8750  -11.6680   20.8130 C   0  0  0  0  0  0  0  0  0  0  0  0
  -27.6500  -12.7640   20.3150 N   0  0  0  0  0  0  0  0  0  0  0  0
  -27.1710  -11.5180   20.5690 N   0  0  0  0  0  0  0  0  0  0  0  0
  -25.0380  -10.4740   20.9860 C   0  0  0  0  0  0  0  0  0  0  0  0
  -25.2300   -9.5900   22.0710 C   0  0  0  0  0  3  0  0  0  0  0  0
  -24.4020   -8.4570   22.2290 C   0  0  0  0  0  3  0  0  0  0  0  0
  -23.3700   -8.1980   21.2970 C   0  0  0  0  0  0  0  0  0  0  0  0
  -23.1960   -9.0690   20.2060 C   0  0  0  0  0  3  0  0  0  0  0  0
  -24.0230  -10.1940   20.0490 C   0  0  0  0  0  3  0  0  0  0  0  0
  -22.5330   -7.1100   21.3520 O   0  0  0  0  0  0  0  0  0  0  0  0
  -22.1350   -6.5700   22.5490 C   0  0  0  0  0  0  0  0  0  0  0  0
  -21.4310   -7.3280   23.5110 C   0  0  0  0  0  3  0  0  0  0  0  0
  -20.9780   -6.7140   24.6970 C   0  0  0  0  0  3  0  0  0  0  0  0
  -21.2210   -5.3450   24.9200 C   0  0  0  0  0  0  0  0  0  0  0  0
  -21.9200   -4.5890   23.9640 C   0  0  0  0  0  3  0  0  0  0  0  0
  -22.3740   -5.2010   22.7820 C   0  0  0  0  0  0  0  0  0  0  0  0
  -23.0260   -4.4610   21.8530 F   0  0  0  0  0  0  0  0  0  0  0  0
  -20.7800   -4.7570   26.0560 F   0  0  0  0  0  0  0  0  0  0  0  0
  -24.1580  -13.6470   20.9950 C   0  0  0  0  0  0  0  0  0  0  0  0
  -23.3470  -13.0480   21.8590 N   0  0  0  0  0  0  0  0  0  0  0  0
  -23.8190  -14.6770   20.4140 O   0  0  0  0  0  0  0  0  0  0  0  0
  -23.6290  -12.2200   22.3570 H   0  0  0  0  0  0  0  0  0  0  0  0
  -22.4270  -13.4300   22.0280 H   0  0  0  0  0  0  0  0  0  0  0  0
  -26.9550  -15.0820   20.2940 N   0  0  0  0  0  0  0  0  0  0  0  0
  -26.2450  -15.7980   20.3940 H   0  0  0  0  0  0  0  0  0  0  0  0
  -27.8670  -15.4580   20.0680 H   0  0  0  0  0  0  0  0  0  0  0  0
  -27.0670  -21.9970   20.6850 C   0  0  0  0  0  3  0  0  0  0  0  0
  -27.9690  -22.9510   20.3590 C   0  0  0  0  0  3  0  0  0  0  0  0
  -28.4330  -24.4070   20.5060 C   0  0  0  0  0  2  0  0  0  0  0  0
  -28.4000  -25.1440   19.1560 C   0  0  0  0  0  2  0  0  0  0  0  0
  -28.8150  -26.6260   19.2410 C   0  0  0  0  0  2  0  0  0  0  0  0
  -28.2250  -27.3710   18.1770 O   0  0  0  0  0  0  0  0  0  0  0  0
  -24.6900  -31.3860   22.8600 C   0  0  0  0  0  0  0  0  0  0  0  0
  -27.0480  -27.9850   18.5200 C   0  0  0  0  0  0  0  0  0  0  0  0
  -23.3160  -30.2890   21.1170 C   0  0  0  0  0  3  0  0  0  0  0  0
  -24.6120  -29.2280   19.1950 C   0  0  0  0  0  0  0  0  0  0  0  0
  -25.7560  -30.8970   20.6650 C   0  0  0  0  0  2  0  0  0  0  0  0
  -25.8140  -29.7090   19.7290 C   0  0  0  0  0  0  0  0  0  0  0  0
  -27.0370  -29.0920   19.3950 C   0  0  0  0  0  3  0  0  0  0  0  0
  -25.8350  -27.5120   17.9820 C   0  0  0  0  0  3  0  0  0  0  0  0
  -24.6140  -28.1240   18.3230 C   0  0  0  0  0  3  0  0  0  0  0  0
  -23.3490  -29.9520   19.6010 C   0  0  0  0  0  2  0  0  0  0  0  0
  -24.6130  -30.8600   21.6060 N   0  0  0  0  0  0  0  0  0  0  0  0
  -23.6900  -31.4440   23.5900 O   0  0  0  0  0  0  0  0  0  0  0  0
  -22.8670  -29.0340   21.8970 C   0  0  0  0  0  0  0  0  0  0  0  0
  -21.5610  -28.7290   21.8350 N   0  0  0  0  0  0  0  0  0  0  0  0
  -23.6850  -28.3470   22.5160 O   0  0  0  0  0  0  0  0  0  0  0  0
  -20.9550  -29.3460   21.3130 H   0  0  0  0  0  0  0  0  0  0  0  0
  -18.4010  -27.0220   22.2270 C   0  0  0  0  0  0  0  0  0  0  0  0
  -20.9160  -27.5730   22.4590 C   0  0  0  0  0  3  0  0  0  0  0  0
  -21.1710  -26.2870   21.6390 C   0  0  0  0  0  2  0  0  0  0  0  0
  -20.0640  -25.9930   20.6200 C   0  0  0  0  0  2  0  0  0  0  0  0
  -18.7130  -25.8410   21.3250 C   0  0  0  0  0  2  0  0  0  0  0  0
  -19.4350  -27.8450   22.7470 C   0  0  0  0  0  0  0  0  0  0  0  0
  -19.0890  -28.9500   23.5540 C   0  0  0  0  0  3  0  0  0  0  0  0
  -17.7420  -29.2360   23.8450 C   0  0  0  0  0  3  0  0  0  0  0  0
  -16.7240  -28.4080   23.3420 C   0  0  0  0  0  3  0  0  0  0  0  0
  -17.0540  -27.3020   22.5380 C   0  0  0  0  0  3  0  0  0  0  0  0
  -26.0240  -31.9640   23.4270 C   0  0  0  0  0  3  0  0  0  0  0  0
  -25.7160  -33.2640   24.0400 N   0  0  0  0  0  0  0  0  0  0  0  0
  -25.9730  -34.4510   23.4730 C   0  0  0  0  0  0  0  0  0  0  0  0
  -26.5650  -34.5640   22.3960 O   0  0  0  0  0  0  0  0  0  0  0  0
  -25.1820  -33.2450   24.8950 H   0  0  0  0  0  0  0  0  0  0  0  0
  -24.2020  -36.2330   23.5750 C   0  0  0  0  0  1  0  0  0  0  0  0
  -25.4970  -35.7120   24.2180 C   0  0  0  0  0  3  0  0  0  0  0  0
  -27.6640  -36.4780   25.0800 C   0  0  0  0  0  1  0  0  0  0  0  0
  -26.5060  -36.7930   24.2480 N   0  0  0  0  0  0  0  0  0  0  0  0
  -26.0960  -37.6570   24.5910 H   0  0  0  0  0  0  0  0  0  0  0  0
  -26.7230  -31.0070   24.4680 C   0  0  1  0  0  0  0  0  0  0  0  0
  -25.7870  -30.5270   25.6010 C   0  0  0  0  0  1  0  0  0  0  0  0
  -27.2860  -29.7530   23.7570 C   0  0  0  0  0  1  0  0  0  0  0  0
  -27.9310  -31.7250   25.1150 C   0  0  0  0  0  1  0  0  0  0  0  0
  1 50  1  0
  2  1  2  0
  3  2  1  0
  5  4  1  0
  6  9  2  0
  6  8  1  0
  7  1  1  0
  7  4  2  0
  8 11  1  0
  8  5  2  0
  9  7  1  0
 10  9  1  0
 11 20  1  0
 12 20  1  0
 12 18  1  0
 13 18  1  0
 14 15  1  0
 14 13  1  0
 16 15  1  0
 16 25  1  0
 16 17  1  0
 18 17  1  0
 19 12  2  0
 20 21  1  0
 22 23  2  0
 23 24  1  0
 23 42  1  0
 24 27  1  0
 25 22  1  0
 25 26  1  0
 26 24  2  0
 27 28  1  0
 28 29  2  0
 30 33  1  0
 30 29  1  0
 31 30  2  0
 32 31  1  0
 32 27  2  0
 33 34  1  0
 34 39  2  0
 34 35  1  0
 35 36  2  0
 36 37  1  0
 37 41  1  0
 38 37  2  0
 39 38  1  0
 40 39  1  0
 42 43  1  0
 43 46  1  0
 43 45  1  0
 44 42  2  0
 47 48  1  0
 47 22  1  0
 49 47  1  0
 51 52  1  0
 51 50  2  0
 53 54  1  0
 53 52  1  0
 55 57  1  0
 55 54  1  0
 56 67  2  0
 57 62  1  0
 58 66  1  0
 58 68  1  0
 59 65  1  0
 59 61  1  0
 60 66  1  0
 61 60  1  0
 62 61  2  0
 63 64  1  0
 63 57  2  0
 64 59  2  0
 65 58  1  0
 66 56  1  0
 68 70  2  0
 69 68  1  0
 71 69  1  0
 72 81  2  0
 72 77  1  0
 73 69  1  0
 73 77  1  0
 74 73  1  0
 75 76  1  0
 75 74  1  0
 76 72  1  0
 77 78  2  0
 78 79  1  0
 80 79  2  0
 81 80  1  0
 82 56  1  0
 82 83  1  0
 82 92  1  0
 83 86  1  0
 84 83  1  0
 84 88  1  0
 85 84  2  0
 88 87  1  0
 88 90  1  0
 90 91  1  0
 90 89  1  0
 92 95  1  1
 92 93  1  0
 94 92  1  0
M  ISO  4  12 100  20 100  54 101  55 101
M  END
>  <TORSDO>  (26) 
F 22

>  <SCORE>  (26) 
-7.616

>  <name>  (26) 
25

>  <ligand_id>  (26) 
25

>  <original_smiles>  (26) 
[H]N=C(C([H])=C([H])C([H])([H])C([H])([H])C([H])([H])Oc1c([H])c([H])c2c(c1[H])C([H])([H])N(C(=O)C([H])(N([H])C(=O)C([H])(N([H])C([H])([H])[H])C([H])([H])[H])C(C([H])([H])[H])(C([H])([H])[H])C([H])([H])[H])C([H])(C(=O)N([H])C1([H])c3c([H])c([H])c([H])c([H])c3C([H])([H])C([H])([H])C1([H])[H])C2([H])[H])c1c([H])c([H])c(C([H])([H])N([H])C(=O)N2C([H])([H])C([H])([H])C([H])([H])C([H])(n3nc(-c4c([H])c([H])c(Oc5c([H])c([H])c(F)c([H])c5F)c([H])c4[H])c(C(=O)N([H])[H])c3N([H])[H])C2([H])[H])c([H])c1C([H])([H])[H]

>  <smiles>  (26) 
[H]N=C(C([H])=C([H])C([H])([H])C([H])([H])C([H])([H])Oc1c([H])c([H])c2c(c1[H])C([H])([H])N(C(=O)C([H])(N([H])C(=O)C([H])(N([H])C([H])([H])[H])C([H])([H])[H])C(C([H])([H])[H])(C([H])([H])[H])C([H])([H])[H])C([H])(C(=O)N([H])C1([H])c3c([H])c([H])c([H])c([H])c3C([H])([H])C([H])([H])C1([H])[H])C2([H])[H])c1c([H])c([H])c(C([H])([H])N([H])C(=O)N2C([H])([H])C([H])([H])C([H])([H])C([H])(n3nc(-c4c([H])c([H])c(Oc5c([H])c([H])c(F)c([H])c5F)c([H])c4[H])c(C(=O)N([H])[H])c3N([H])[H])C2([H])[H])c([H])c1C([H])([H])[H]

$$$$
26:0:0
     RDKit          3D

 95103  0  0  1  0  0  0  0  0999 V2000
  -31.4070  -17.4170   21.4470 C   0  0  0  0  0  3  0  0  0  0  0  0
  -30.8280  -19.7800   21.5720 C   0  0  0  0  0  3  0  0  0  0  0  0
  -30.5840  -17.2170   20.3070 C   0  0  0  0  0  0  0  0  0  0  0  0
  -29.7360  -18.3370   19.9140 C   0  0  0  0  0  0  0  0  0  0  0  0
  -29.9080  -19.6300   20.5100 C   0  0  0  0  0  0  0  0  0  0  0  0
  -31.5210  -18.6670   22.0700 C   0  0  0  0  0  0  0  0  0  0  0  0
  -32.3490  -18.8140   23.1320 F   0  0  0  0  0  0  0  0  0  0  0  0
  -30.7550  -15.9210   19.4920 C   0  0  0  0  0  0  0  0  0  0  0  0
  -30.4180  -15.9340   18.2680 N   0  0  0  0  0  0  0  0  0  0  0  0
  -30.6590  -15.0760   17.7940 H   0  0  0  0  0  0  0  0  0  0  0  0
  -31.5310  -14.6690   20.0490 C   0  0  0  0  0  0  0  0  0  0  0  0
  -31.2570  -12.2530   19.5910 C   0  0  0  0  0  2  0  0  0  0  0  0
  -30.3810  -12.0700   18.3360 C   0  0  0  0  0  2  0  0  0  0  0  0
  -28.8870  -12.0260   18.7240 C   0  0  0  0  0  2  0  0  0  0  0  0
  -28.4700  -13.1760   19.6780 C   0  0  0  0  0  3  0  0  0  0  0  0
  -29.4860  -13.3830   20.8220 C   0  0  0  0  0  2  0  0  0  0  0  0
  -30.8260  -13.5090   20.2360 N   0  0  0  0  0  0  0  0  0  0  0  0
  -32.7540  -14.6440   19.8810 O   0  0  0  0  0  0  0  0  0  0  0  0
  -26.1700  -14.0230   20.4160 C   0  0  0  0  0  0  0  0  0  0  0  0
  -25.0230  -13.3630   20.7630 C   0  0  0  0  0  0  0  0  0  0  0  0
  -25.3350  -11.9710   20.6990 C   0  0  0  0  0  0  0  0  0  0  0  0
  -27.1080  -13.0340   20.1640 N   0  0  0  0  0  0  0  0  0  0  0  0
  -26.6130  -11.7930   20.3990 N   0  0  0  0  0  0  0  0  0  0  0  0
  -24.4750  -10.7930   20.8510 C   0  0  0  0  0  0  0  0  0  0  0  0
  -24.8070   -9.7460   21.7340 C   0  0  0  0  0  3  0  0  0  0  0  0
  -23.9570   -8.6290   21.8730 C   0  0  0  0  0  3  0  0  0  0  0  0
  -22.7560   -8.5550   21.1260 C   0  0  0  0  0  0  0  0  0  0  0  0
  -22.4420   -9.5900   20.2260 C   0  0  0  0  0  3  0  0  0  0  0  0
  -23.2950  -10.6990   20.0890 C   0  0  0  0  0  3  0  0  0  0  0  0
  -21.8790   -7.4980   21.1780 O   0  0  0  0  0  0  0  0  0  0  0  0
  -21.7560   -6.7210   22.3000 C   0  0  0  0  0  0  0  0  0  0  0  0
  -21.4120   -7.2710   23.5550 C   0  0  0  0  0  3  0  0  0  0  0  0
  -21.2240   -6.4260   24.6660 C   0  0  0  0  0  3  0  0  0  0  0  0
  -21.3710   -5.0330   24.5260 C   0  0  0  0  0  0  0  0  0  0  0  0
  -21.7080   -4.4830   23.2770 C   0  0  0  0  0  3  0  0  0  0  0  0
  -21.8960   -5.3250   22.1660 C   0  0  0  0  0  0  0  0  0  0  0  0
  -22.1970   -4.7870   20.9600 F   0  0  0  0  0  0  0  0  0  0  0  0
  -21.1850   -4.2190   25.5920 F   0  0  0  0  0  0  0  0  0  0  0  0
  -23.6860  -13.9860   21.0430 C   0  0  0  0  0  0  0  0  0  0  0  0
  -22.8910  -13.3550   21.9000 N   0  0  0  0  0  0  0  0  0  0  0  0
  -23.3620  -15.0600   20.5390 O   0  0  0  0  0  0  0  0  0  0  0  0
  -23.1710  -12.4860   22.3260 H   0  0  0  0  0  0  0  0  0  0  0  0
  -21.9900  -13.7470   22.1380 H   0  0  0  0  0  0  0  0  0  0  0  0
  -26.4820  -15.3700   20.2620 N   0  0  0  0  0  0  0  0  0  0  0  0
  -25.7730  -16.0920   20.3280 H   0  0  0  0  0  0  0  0  0  0  0  0
  -27.3530  -15.7060   19.8720 H   0  0  0  0  0  0  0  0  0  0  0  0
  -28.6810  -18.1880   18.7860 C   0  0  0  0  0  2  0  0  0  0  0  0
  -26.4550  -18.7720   20.0900 C   0  0  0  0  0  1  0  0  0  0  0  0
  -27.3320  -18.9660   18.8400 C   0  0  0  0  0  2  0  0  0  0  0  0
  -29.2010  -20.7080   19.9820 O   0  0  0  0  0  0  0  0  0  0  0  0
  -28.9990  -21.9610   20.6620 C   0  0  0  0  0  2  0  0  0  0  0  0
  -28.3010  -24.1930   19.5540 C   0  0  0  0  0  3  0  0  0  0  0  0
  -29.1360  -23.1330   19.6820 C   0  0  0  0  0  3  0  0  0  0  0  0
  -28.4550  -25.3130   18.5130 C   0  0  0  0  0  2  0  0  0  0  0  0
  -28.3700  -26.6520   19.0490 O   0  0  0  0  0  0  0  0  0  0  0  0
  -24.6340  -31.3680   22.8510 C   0  0  0  0  0  0  0  0  0  0  0  0
  -27.1640  -27.3290   19.1560 C   0  0  0  0  0  0  0  0  0  0  0  0
  -23.3560  -30.1370   21.1300 C   0  0  0  0  0  3  0  0  0  0  0  0
  -24.7480  -28.8080   19.4560 C   0  0  0  0  0  0  0  0  0  0  0  0
  -25.8620  -30.5690   20.8320 C   0  0  0  0  0  2  0  0  0  0  0  0
  -25.9330  -29.2780   20.0380 C   0  0  0  0  0  0  0  0  0  0  0  0
  -27.1370  -28.5490   19.8790 C   0  0  0  0  0  3  0  0  0  0  0  0
  -25.9520  -26.8800   18.5760 C   0  0  0  0  0  3  0  0  0  0  0  0
  -24.7580  -27.6130   18.7200 C   0  0  0  0  0  3  0  0  0  0  0  0
  -23.4930  -29.6280   19.6710 C   0  0  0  0  0  2  0  0  0  0  0  0
  -24.6380  -30.7000   21.6630 N   0  0  0  0  0  0  0  0  0  0  0  0
  -23.5820  -31.5510   23.4820 O   0  0  0  0  0  0  0  0  0  0  0  0
  -22.7800  -29.0010   22.0010 C   0  0  0  0  0  0  0  0  0  0  0  0
  -21.4500  -28.8210   21.9510 N   0  0  0  0  0  0  0  0  0  0  0  0
  -23.5230  -28.2840   22.6750 O   0  0  0  0  0  0  0  0  0  0  0  0
  -20.9080  -29.4620   21.3920 H   0  0  0  0  0  0  0  0  0  0  0  0
  -18.1240  -27.5420   22.5690 C   0  0  0  0  0  0  0  0  0  0  0  0
  -20.6980  -27.7850   22.6580 C   0  0  0  0  0  3  0  0  0  0  0  0
  -20.7490  -26.4420   21.9040 C   0  0  0  0  0  2  0  0  0  0  0  0
  -19.5660  -26.2450   20.9510 C   0  0  0  0  0  2  0  0  0  0  0  0
  -18.2440  -26.2950   21.7180 C   0  0  0  0  0  2  0  0  0  0  0  0
  -19.2790  -28.2530   22.9970 C   0  0  0  0  0  0  0  0  0  0  0  0
  -19.1140  -29.4340   23.7540 C   0  0  0  0  0  3  0  0  0  0  0  0
  -17.8310  -29.9060   24.0820 C   0  0  0  0  0  3  0  0  0  0  0  0
  -16.6930  -29.1930   23.6700 C   0  0  0  0  0  3  0  0  0  0  0  0
  -16.8400  -28.0110   22.9210 C   0  0  0  0  0  3  0  0  0  0  0  0
  -25.9420  -31.9550   23.4660 C   0  0  0  0  0  3  0  0  0  0  0  0
  -25.6300  -33.2960   23.9730 N   0  0  0  0  0  0  0  0  0  0  0  0
  -25.9260  -34.4390   23.3360 C   0  0  0  0  0  0  0  0  0  0  0  0
  -26.5660  -34.4710   22.2810 O   0  0  0  0  0  0  0  0  0  0  0  0
  -25.0560  -33.3420   24.8030 H   0  0  0  0  0  0  0  0  0  0  0  0
  -24.1770  -36.2420   23.2450 C   0  0  0  0  0  1  0  0  0  0  0  0
  -25.4370  -35.7520   23.9740 C   0  0  0  0  0  3  0  0  0  0  0  0
  -27.5850  -36.5480   24.8610 C   0  0  0  0  0  1  0  0  0  0  0  0
  -26.4590  -36.8210   23.9720 N   0  0  0  0  0  0  0  0  0  0  0  0
  -26.0520  -37.7110   24.2430 H   0  0  0  0  0  0  0  0  0  0  0  0
  -26.5520  -31.0520   24.6080 C   0  0  1  0  0  0  0  0  0  0  0  0
  -25.5330  -30.6720   25.7090 C   0  0  0  0  0  1  0  0  0  0  0  0
  -27.1290  -29.7410   24.0200 C   0  0  0  0  0  1  0  0  0  0  0  0
  -27.7350  -31.7880   25.2840 C   0  0  0  0  0  1  0  0  0  0  0  0
  1  6  1  0
  2  6  2  0
  3  1  2  0
  4  3  1  0
  4  5  2  0
  5  2  1  0
  6  7  1  0
  8 11  1  0
  8  3  1  0
  9  8  2  0
 10  9  1  0
 11 17  1  0
 12 17  1  0
 13 14  1  0
 13 12  1  0
 15 14  1  0
 15 22  1  0
 15 16  1  0
 17 16  1  0
 18 11  2  0
 19 20  2  0
 20 39  1  0
 21 20  1  0
 21 24  1  0
 22 23  1  0
 22 19  1  0
 23 21  2  0
 24 25  1  0
 25 26  2  0
 27 30  1  0
 27 26  1  0
 28 27  2  0
 29 28  1  0
 29 24  2  0
 30 31  1  0
 31 32  1  0
 32 33  2  0
 34 33  1  0
 34 38  1  0
 35 34  2  0
 36 31  2  0
 36 35  1  0
 37 36  1  0
 39 40  1  0
 40 43  1  0
 40 42  1  0
 41 39  2  0
 44 45  1  0
 44 19  1  0
 46 44  1  0
 47 49  1  0
 47  4  1  0
 49 48  1  0
 50  5  1  0
 50 51  1  0
 52 53  2  0
 53 51  1  0
 54 55  1  0
 54 52  1  0
 55 57  1  0
 56 67  2  0
 57 62  1  0
 58 66  1  0
 58 68  1  0
 59 65  1  0
 59 61  1  0
 60 66  1  0
 61 60  1  0
 62 61  2  0
 63 64  1  0
 63 57  2  0
 64 59  2  0
 65 58  1  0
 66 56  1  0
 68 70  2  0
 69 68  1  0
 71 69  1  0
 72 81  2  0
 72 77  1  0
 73 69  1  0
 73 77  1  0
 74 73  1  0
 75 76  1  0
 75 74  1  0
 76 72  1  0
 77 78  2  0
 78 79  1  0
 80 79  2  0
 81 80  1  0
 82 56  1  0
 82 83  1  0
 82 92  1  0
 83 86  1  0
 84 83  1  0
 84 88  1  0
 85 84  2  0
 88 87  1  0
 90 88  1  0
 90 91  1  0
 90 89  1  0
 92 95  1  1
 92 93  1  0
 94 92  1  0
M  ISO  4   8 100  11 100  54 101  55 101
M  END
>  <TORSDO>  (27) 
F 23

>  <SCORE>  (27) 
-10.384

>  <name>  (27) 
26

>  <ligand_id>  (27) 
26

>  <original_smiles>  (27) 
[H]N=C(C(=O)N1C([H])([H])C([H])([H])C([H])([H])C([H])(n2nc(-c3c([H])c([H])c(Oc4c([H])c([H])c(F)c([H])c4F)c([H])c3[H])c(C(=O)N([H])[H])c2N([H])[H])C1([H])[H])c1c([H])c(F)c([H])c(OC([H])([H])C([H])=C([H])C([H])([H])Oc2c([H])c([H])c3c(c2[H])C([H])([H])N(C(=O)C([H])(N([H])C(=O)C([H])(N([H])C([H])([H])[H])C([H])([H])[H])C(C([H])([H])[H])(C([H])([H])[H])C([H])([H])[H])C([H])(C(=O)N([H])C2([H])c4c([H])c([H])c([H])c([H])c4C([H])([H])C([H])([H])C2([H])[H])C3([H])[H])c1C([H])([H])C([H])([H])C([H])([H])[H]

>  <smiles>  (27) 
[H]N=C(C(=O)N1C([H])([H])C([H])([H])C([H])([H])C([H])(n2nc(-c3c([H])c([H])c(Oc4c([H])c([H])c(F)c([H])c4F)c([H])c3[H])c(C(=O)N([H])[H])c2N([H])[H])C1([H])[H])c1c([H])c(F)c([H])c(OC([H])([H])C([H])=C([H])C([H])([H])Oc2c([H])c([H])c3c(c2[H])C([H])([H])N(C(=O)C([H])(N([H])C(=O)C([H])(N([H])C([H])([H])[H])C([H])([H])[H])C(C([H])([H])[H])(C([H])([H])[H])C([H])([H])[H])C([H])(C(=O)N([H])C2([H])c4c([H])c([H])c([H])c([H])c4C([H])([H])C([H])([H])C2([H])[H])C3([H])[H])c1C([H])([H])C([H])([H])C([H])([H])[H]

$$$$
27:0:0
     RDKit          3D

 94102  0  0  1  0  0  0  0  0999 V2000
  -31.2980  -20.2120   21.6100 C   0  0  0  0  0  0  0  0  0  0  0  0
  -32.4320  -19.9320   22.0950 N   0  0  0  0  0  0  0  0  0  0  0  0
  -32.6840  -18.9670   21.9100 H   0  0  0  0  0  0  0  0  0  0  0  0
  -30.6420  -17.7940   21.2930 C   0  0  0  0  0  3  0  0  0  0  0  0
  -29.6840  -19.4610   19.8020 C   0  0  0  0  0  3  0  0  0  0  0  0
  -29.0500  -17.1180   19.5770 C   0  0  0  0  0  3  0  0  0  0  0  0
  -30.5340  -19.1520   20.8890 C   0  0  0  0  0  0  0  0  0  0  0  0
  -29.9090  -16.7770   20.6450 C   0  0  0  0  0  0  0  0  0  0  0  0
  -28.9490  -18.4540   19.1530 C   0  0  0  0  0  0  0  0  0  0  0  0
  -28.1360  -18.7720   18.1170 F   0  0  0  0  0  0  0  0  0  0  0  0
  -30.6630  -14.4700   20.4870 C   0  0  0  0  0  0  0  0  0  0  0  0
  -30.3720  -12.3330   19.3010 C   0  0  0  0  0  2  0  0  0  0  0  0
  -29.4270  -12.5760   18.1050 C   0  0  0  0  0  2  0  0  0  0  0  0
  -27.9500  -12.4420   18.5310 C   0  0  0  0  0  2  0  0  0  0  0  0
  -27.6200  -13.2500   19.8150 C   0  0  0  0  0  3  0  0  0  0  0  0
  -28.6730  -12.9860   20.9150 C   0  0  0  0  0  2  0  0  0  0  0  0
  -30.0050  -13.2870   20.3580 N   0  0  0  0  0  0  0  0  0  0  0  0
  -31.7730  -14.6910   19.9910 O   0  0  0  0  0  0  0  0  0  0  0  0
  -29.9640  -15.4350   21.1040 N   0  0  0  0  0  0  0  0  0  0  0  0
  -29.1170  -15.0900   21.5330 H   0  0  0  0  0  0  0  0  0  0  0  0
  -25.2170  -13.8670   20.5070 C   0  0  0  0  0  0  0  0  0  0  0  0
  -24.1460  -13.0980   20.8770 C   0  0  0  0  0  0  0  0  0  0  0  0
  -24.6050  -11.7460   20.8490 C   0  0  0  0  0  0  0  0  0  0  0  0
  -26.2610  -12.9840   20.2850 N   0  0  0  0  0  0  0  0  0  0  0  0
  -25.8960  -11.7030   20.5460 N   0  0  0  0  0  0  0  0  0  0  0  0
  -23.8770  -10.4860   21.0450 C   0  0  0  0  0  0  0  0  0  0  0  0
  -24.3170   -9.5170   21.9730 C   0  0  0  0  0  3  0  0  0  0  0  0
  -23.5930   -8.3180   22.1550 C   0  0  0  0  0  3  0  0  0  0  0  0
  -22.4140   -8.0810   21.4070 C   0  0  0  0  0  0  0  0  0  0  0  0
  -21.9930   -9.0400   20.4700 C   0  0  0  0  0  3  0  0  0  0  0  0
  -22.7180  -10.2300   20.2860 C   0  0  0  0  0  3  0  0  0  0  0  0
  -21.6610   -6.9370   21.4990 O   0  0  0  0  0  0  0  0  0  0  0  0
  -21.6300   -6.1850   22.6460 C   0  0  0  0  0  0  0  0  0  0  0  0
  -21.2350   -6.7340   23.8840 C   0  0  0  0  0  3  0  0  0  0  0  0
  -21.1500   -5.9090   25.0240 C   0  0  0  0  0  3  0  0  0  0  0  0
  -21.4490   -4.5370   24.9250 C   0  0  0  0  0  0  0  0  0  0  0  0
  -21.8360   -3.9870   23.6910 C   0  0  0  0  0  3  0  0  0  0  0  0
  -21.9230   -4.8090   22.5540 C   0  0  0  0  0  0  0  0  0  0  0  0
  -22.2760   -4.2710   21.3610 F   0  0  0  0  0  0  0  0  0  0  0  0
  -21.3590   -3.7430   26.0180 F   0  0  0  0  0  0  0  0  0  0  0  0
  -22.7490  -13.5780   21.1450 C   0  0  0  0  0  0  0  0  0  0  0  0
  -22.0170  -12.8850   22.0120 N   0  0  0  0  0  0  0  0  0  0  0  0
  -22.3130  -14.6030   20.6220 O   0  0  0  0  0  0  0  0  0  0  0  0
  -22.3810  -12.0550   22.4590 H   0  0  0  0  0  0  0  0  0  0  0  0
  -21.0800  -13.1900   22.2340 H   0  0  0  0  0  0  0  0  0  0  0  0
  -25.3820  -15.2370   20.3270 N   0  0  0  0  0  0  0  0  0  0  0  0
  -24.6140  -15.8900   20.4370 H   0  0  0  0  0  0  0  0  0  0  0  0
  -26.2320  -15.6800   20.0080 H   0  0  0  0  0  0  0  0  0  0  0  0
  -30.8480  -21.6150   21.8130 C   0  0  0  0  0  3  0  0  0  0  0  0
  -29.6150  -22.1260   21.6140 C   0  0  0  0  0  3  0  0  0  0  0  0
  -29.2350  -23.5520   21.9750 C   0  0  0  0  0  2  0  0  0  0  0  0
  -28.9600  -24.4810   20.7800 C   0  0  0  0  0  2  0  0  0  0  0  0
  -28.5800  -25.8940   21.2540 C   0  0  0  0  0  2  0  0  0  0  0  0
  -28.4310  -26.7720   20.1430 O   0  0  0  0  0  0  0  0  0  0  0  0
  -24.5930  -31.8990   23.2440 C   0  0  0  0  0  0  0  0  0  0  0  0
  -27.2690  -27.4970   20.1700 C   0  0  0  0  0  0  0  0  0  0  0  0
  -23.3960  -30.4910   21.5970 C   0  0  0  0  0  3  0  0  0  0  0  0
  -24.8630  -28.9640   20.1740 C   0  0  0  0  0  0  0  0  0  0  0  0
  -25.9160  -30.8710   21.4030 C   0  0  0  0  0  2  0  0  0  0  0  0
  -26.0130  -29.5000   20.7680 C   0  0  0  0  0  0  0  0  0  0  0  0
  -27.2190  -28.7710   20.7710 C   0  0  0  0  0  3  0  0  0  0  0  0
  -26.1090  -26.9580   19.5790 C   0  0  0  0  0  3  0  0  0  0  0  0
  -24.9030  -27.6880   19.5790 C   0  0  0  0  0  3  0  0  0  0  0  0
  -23.6110  -29.8100   20.2170 C   0  0  0  0  0  2  0  0  0  0  0  0
  -24.6520  -31.0990   22.1420 N   0  0  0  0  0  0  0  0  0  0  0  0
  -23.5100  -32.1670   23.7830 O   0  0  0  0  0  0  0  0  0  0  0  0
  -22.7510  -29.4660   22.5570 C   0  0  0  0  0  0  0  0  0  0  0  0
  -21.4280  -29.2800   22.4260 N   0  0  0  0  0  0  0  0  0  0  0  0
  -23.4360  -28.8420   23.3730 O   0  0  0  0  0  0  0  0  0  0  0  0
  -20.9360  -29.8330   21.7380 H   0  0  0  0  0  0  0  0  0  0  0  0
  -18.0560  -28.0810   22.9130 C   0  0  0  0  0  0  0  0  0  0  0  0
  -20.6120  -28.3380   23.1930 C   0  0  0  0  0  3  0  0  0  0  0  0
  -20.7190  -26.9100   22.6120 C   0  0  0  0  0  2  0  0  0  0  0  0
  -19.6180  -26.5900   21.5950 C   0  0  0  0  0  2  0  0  0  0  0  0
  -18.2340  -26.7320   22.2360 C   0  0  0  0  0  2  0  0  0  0  0  0
  -19.1730  -28.8420   23.3480 C   0  0  0  0  0  0  0  0  0  0  0  0
  -18.9530  -30.1060   23.9400 C   0  0  0  0  0  3  0  0  0  0  0  0
  -17.6470  -30.6060   24.1020 C   0  0  0  0  0  3  0  0  0  0  0  0
  -16.5440  -29.8420   23.6860 C   0  0  0  0  0  3  0  0  0  0  0  0
  -16.7500  -28.5800   23.0960 C   0  0  0  0  0  3  0  0  0  0  0  0
  -25.8770  -32.5340   23.8650 C   0  0  0  0  0  3  0  0  0  0  0  0
  -25.5660  -33.9320   24.1900 N   0  0  0  0  0  0  0  0  0  0  0  0
  -25.9030  -34.9820   23.4300 C   0  0  0  0  0  0  0  0  0  0  0  0
  -26.5790  -34.8760   22.4030 O   0  0  0  0  0  0  0  0  0  0  0  0
  -24.9650  -34.0890   24.9860 H   0  0  0  0  0  0  0  0  0  0  0  0
  -24.1720  -36.7690   23.0560 C   0  0  0  0  0  1  0  0  0  0  0  0
  -25.4070  -36.3700   23.8790 C   0  0  0  0  0  3  0  0  0  0  0  0
  -27.5330  -37.2580   24.7260 C   0  0  0  0  0  1  0  0  0  0  0  0
  -26.4370  -37.4250   23.7750 N   0  0  0  0  0  0  0  0  0  0  0  0
  -26.0280  -38.3440   23.9200 H   0  0  0  0  0  0  0  0  0  0  0  0
  -26.3970  -31.7650   25.1410 C   0  0  1  0  0  0  0  0  0  0  0  0
  -25.3040  -31.5260   26.2070 C   0  0  0  0  0  1  0  0  0  0  0  0
  -26.9860  -30.3900   24.7490 C   0  0  0  0  0  1  0  0  0  0  0  0
  -27.5450  -32.5630   25.8040 C   0  0  0  0  0  1  0  0  0  0  0  0
  1 49  1  0
  1  2  2  0
  3  2  1  0
  5  7  2  0
  6  8  1  0
  7  4  1  0
  7  1  1  0
  8 19  1  0
  8  4  2  0
  9  6  2  0
  9  5  1  0
 10  9  1  0
 11 19  1  0
 12 17  1  0
 13 14  1  0
 13 12  1  0
 15 14  1  0
 15 24  1  0
 15 16  1  0
 17 11  1  0
 17 16  1  0
 18 11  2  0
 19 20  1  0
 21 22  2  0
 22 41  1  0
 23 22  1  0
 23 26  1  0
 24 21  1  0
 24 25  1  0
 25 23  2  0
 26 27  1  0
 27 28  2  0
 29 32  1  0
 29 28  1  0
 30 29  2  0
 31 30  1  0
 31 26  2  0
 32 33  1  0
 33 34  1  0
 34 35  2  0
 36 35  1  0
 36 40  1  0
 37 36  2  0
 38 33  2  0
 38 37  1  0
 39 38  1  0
 41 42  1  0
 42 45  1  0
 42 44  1  0
 43 41  2  0
 46 47  1  0
 46 21  1  0
 48 46  1  0
 50 49  2  0
 50 51  1  0
 52 53  1  0
 52 51  1  0
 54 56  1  0
 54 53  1  0
 55 66  2  0
 56 61  1  0
 57 65  1  0
 57 67  1  0
 58 64  1  0
 58 60  1  0
 59 65  1  0
 60 61  2  0
 60 59  1  0
 62 63  1  0
 62 56  2  0
 63 58  2  0
 64 57  1  0
 65 55  1  0
 67 69  2  0
 68 67  1  0
 70 68  1  0
 71 80  2  0
 71 76  1  0
 72 68  1  0
 72 76  1  0
 73 72  1  0
 74 75  1  0
 74 73  1  0
 75 71  1  0
 76 77  2  0
 77 78  1  0
 79 78  2  0
 80 79  1  0
 81 55  1  0
 81 82  1  0
 81 91  1  0
 82 85  1  0
 83 87  1  0
 83 82  1  0
 84 83  2  0
 87 86  1  0
 89 87  1  0
 89 90  1  0
 89 88  1  0
 91 94  1  1
 91 92  1  0
 93 91  1  0
M  ISO  4  11 100  19 100  53 101  54 101
M  END
>  <TORSDO>  (28) 
F 21

>  <SCORE>  (28) 
-14.069

>  <name>  (28) 
27

>  <ligand_id>  (28) 
27

>  <original_smiles>  (28) 
[H]N=C(C([H])=C([H])C([H])([H])C([H])([H])C([H])([H])Oc1c([H])c([H])c2c(c1[H])C([H])([H])N(C(=O)C([H])(N([H])C(=O)C([H])(N([H])C([H])([H])[H])C([H])([H])[H])C(C([H])([H])[H])(C([H])([H])[H])C([H])([H])[H])C([H])(C(=O)N([H])C1([H])c3c([H])c([H])c([H])c([H])c3C([H])([H])C([H])([H])C1([H])[H])C2([H])[H])c1c([H])c(F)c([H])c(N([H])C(=O)N2C([H])([H])C([H])([H])C([H])([H])C([H])(n3nc(-c4c([H])c([H])c(Oc5c([H])c([H])c(F)c([H])c5F)c([H])c4[H])c(C(=O)N([H])[H])c3N([H])[H])C2([H])[H])c1[H]

>  <smiles>  (28) 
[H]N=C(C([H])=C([H])C([H])([H])C([H])([H])C([H])([H])Oc1c([H])c([H])c2c(c1[H])C([H])([H])N(C(=O)C([H])(N([H])C(=O)C([H])(N([H])C([H])([H])[H])C([H])([H])[H])C(C([H])([H])[H])(C([H])([H])[H])C([H])([H])[H])C([H])(C(=O)N([H])C1([H])c3c([H])c([H])c([H])c([H])c3C([H])([H])C([H])([H])C1([H])[H])C2([H])[H])c1c([H])c(F)c([H])c(N([H])C(=O)N2C([H])([H])C([H])([H])C([H])([H])C([H])(n3nc(-c4c([H])c([H])c(Oc5c([H])c([H])c(F)c([H])c5F)c([H])c4[H])c(C(=O)N([H])[H])c3N([H])[H])C2([H])[H])c1[H]

$$$$
28:0:0
     RDKit          3D

 91 99  0  0  1  0  0  0  0  0999 V2000
  -29.9450  -19.5430   20.4020 C   0  0  0  0  0  3  0  0  0  0  0  0
  -29.2770  -18.2430   18.4630 C   0  0  0  0  0  3  0  0  0  0  0  0
  -29.8550  -18.2850   19.7450 C   0  0  0  0  0  0  0  0  0  0  0  0
  -29.5130  -20.7460   19.7670 C   0  0  0  0  0  0  0  0  0  0  0  0
  -28.9430  -19.4250   17.7730 C   0  0  0  0  0  0  0  0  0  0  0  0
  -29.0970  -20.6870   18.3990 C   0  0  0  0  0  0  0  0  0  0  0  0
  -28.5000  -19.2770   16.3250 C   0  0  0  0  0  1  0  0  0  0  0  0
  -28.9150  -21.9550   17.5490 C   0  0  0  0  0  1  0  0  0  0  0  0
  -30.4690  -17.0230   20.2330 C   0  0  0  0  0  3  0  0  0  0  0  0
  -29.8740  -15.8000   20.2790 C   0  0  0  0  0  3  0  0  0  0  0  0
  -30.6720  -14.5650   20.3910 C   0  0  0  0  0  0  0  0  0  0  0  0
  -30.3540  -12.3530   19.3720 C   0  0  0  0  0  2  0  0  0  0  0  0
  -29.4280  -12.5230   18.1480 C   0  0  0  0  0  2  0  0  0  0  0  0
  -27.9530  -12.3670   18.5690 C   0  0  0  0  0  2  0  0  0  0  0  0
  -27.5900  -13.2410   19.7990 C   0  0  0  0  0  3  0  0  0  0  0  0
  -28.6510  -13.1270   20.9220 C   0  0  0  0  0  2  0  0  0  0  0  0
  -29.9790  -13.3870   20.3500 N   0  0  0  0  0  0  0  0  0  0  0  0
  -31.8840  -14.5950   20.1790 O   0  0  0  0  0  0  0  0  0  0  0  0
  -25.2020  -13.8510   20.5280 C   0  0  0  0  0  0  0  0  0  0  0  0
  -24.1330  -13.0810   20.8980 C   0  0  0  0  0  0  0  0  0  0  0  0
  -24.5960  -11.7280   20.8720 C   0  0  0  0  0  0  0  0  0  0  0  0
  -26.2440  -12.9660   20.2930 N   0  0  0  0  0  0  0  0  0  0  0  0
  -25.8870  -11.6860   20.5630 N   0  0  0  0  0  0  0  0  0  0  0  0
  -23.8680  -10.4680   21.0570 C   0  0  0  0  0  0  0  0  0  0  0  0
  -24.2950   -9.4990   21.9900 C   0  0  0  0  0  3  0  0  0  0  0  0
  -23.5690   -8.3030   22.1620 C   0  0  0  0  0  3  0  0  0  0  0  0
  -22.4000   -8.0680   21.4040 C   0  0  0  0  0  0  0  0  0  0  0  0
  -21.9890   -9.0270   20.4610 C   0  0  0  0  0  3  0  0  0  0  0  0
  -22.7170  -10.2150   20.2870 C   0  0  0  0  0  3  0  0  0  0  0  0
  -21.6390   -6.9280   21.4920 O   0  0  0  0  0  0  0  0  0  0  0  0
  -21.5890   -6.1800   22.6410 C   0  0  0  0  0  0  0  0  0  0  0  0
  -21.1610   -6.7300   23.8670 C   0  0  0  0  0  3  0  0  0  0  0  0
  -21.0600   -5.9110   25.0090 C   0  0  0  0  0  3  0  0  0  0  0  0
  -21.3710   -4.5420   24.9250 C   0  0  0  0  0  0  0  0  0  0  0  0
  -21.7910   -3.9900   23.7010 C   0  0  0  0  0  3  0  0  0  0  0  0
  -21.8930   -4.8050   22.5610 C   0  0  0  0  0  0  0  0  0  0  0  0
  -22.2770   -4.2660   21.3810 F   0  0  0  0  0  0  0  0  0  0  0  0
  -21.2660   -3.7520   26.0200 F   0  0  0  0  0  0  0  0  0  0  0  0
  -22.7350  -13.5590   21.1650 C   0  0  0  0  0  0  0  0  0  0  0  0
  -22.0020  -12.8610   22.0230 N   0  0  0  0  0  0  0  0  0  0  0  0
  -22.3040  -14.5930   20.6530 O   0  0  0  0  0  0  0  0  0  0  0  0
  -22.3620  -12.0250   22.4620 H   0  0  0  0  0  0  0  0  0  0  0  0
  -21.0620  -13.1610   22.2450 H   0  0  0  0  0  0  0  0  0  0  0  0
  -25.3750  -15.2200   20.3430 N   0  0  0  0  0  0  0  0  0  0  0  0
  -24.6220  -15.8860   20.4620 H   0  0  0  0  0  0  0  0  0  0  0  0
  -26.2330  -15.6550   20.0320 H   0  0  0  0  0  0  0  0  0  0  0  0
  -29.5030  -22.0230   20.5350 C   0  0  0  0  0  3  0  0  0  0  0  0
  -28.5270  -22.9600   20.4280 C   0  0  0  0  0  3  0  0  0  0  0  0
  -28.4700  -24.3660   21.0210 C   0  0  0  0  0  2  0  0  0  0  0  0
  -28.6360  -25.4270   19.9000 C   0  0  0  0  0  2  0  0  0  0  0  0
  -28.4710  -26.7900   20.3120 O   0  0  0  0  0  0  0  0  0  0  0  0
  -24.5500  -31.8850   23.2350 C   0  0  0  0  0  0  0  0  0  0  0  0
  -27.2490  -27.4400   20.2390 C   0  0  0  0  0  0  0  0  0  0  0  0
  -23.3560  -30.4660   21.6010 C   0  0  0  0  0  3  0  0  0  0  0  0
  -24.8320  -28.9190   20.2020 C   0  0  0  0  0  0  0  0  0  0  0  0
  -25.8740  -30.8500   21.4020 C   0  0  0  0  0  2  0  0  0  0  0  0
  -25.9760  -29.4680   20.7850 C   0  0  0  0  0  0  0  0  0  0  0  0
  -27.1830  -28.7370   20.7940 C   0  0  0  0  0  3  0  0  0  0  0  0
  -26.0820  -26.8950   19.6530 C   0  0  0  0  0  3  0  0  0  0  0  0
  -24.8770  -27.6300   19.6370 C   0  0  0  0  0  3  0  0  0  0  0  0
  -23.5760  -29.7650   20.2320 C   0  0  0  0  0  2  0  0  0  0  0  0
  -24.6110  -31.0790   22.1390 N   0  0  0  0  0  0  0  0  0  0  0  0
  -23.4640  -32.1560   23.7680 O   0  0  0  0  0  0  0  0  0  0  0  0
  -22.7040  -29.4500   22.5670 C   0  0  0  0  0  0  0  0  0  0  0  0
  -21.3810  -29.2660   22.4320 N   0  0  0  0  0  0  0  0  0  0  0  0
  -23.3850  -28.8270   23.3850 O   0  0  0  0  0  0  0  0  0  0  0  0
  -20.8940  -29.8210   21.7430 H   0  0  0  0  0  0  0  0  0  0  0  0
  -18.0030  -28.0920   22.9330 C   0  0  0  0  0  0  0  0  0  0  0  0
  -20.5610  -28.3340   23.2040 C   0  0  0  0  0  3  0  0  0  0  0  0
  -20.6560  -26.9030   22.6250 C   0  0  0  0  0  2  0  0  0  0  0  0
  -19.5510  -26.5880   21.6120 C   0  0  0  0  0  2  0  0  0  0  0  0
  -18.1720  -26.7410   22.2580 C   0  0  0  0  0  2  0  0  0  0  0  0
  -19.1270  -28.8460   23.3640 C   0  0  0  0  0  0  0  0  0  0  0  0
  -18.9230  -30.1110   23.9540 C   0  0  0  0  0  3  0  0  0  0  0  0
  -17.6230  -30.6220   24.1290 C   0  0  0  0  0  3  0  0  0  0  0  0
  -16.5120  -29.8640   23.7200 C   0  0  0  0  0  3  0  0  0  0  0  0
  -16.7030  -28.6030   23.1230 C   0  0  0  0  0  3  0  0  0  0  0  0
  -25.8350  -32.5190   23.8590 C   0  0  0  0  0  3  0  0  0  0  0  0
  -26.3500  -31.7510   25.1410 C   0  0  1  0  0  0  0  0  0  0  0  0
  -25.2510  -31.5110   26.2040 C   0  0  0  0  0  1  0  0  0  0  0  0
  -26.9470  -30.3750   24.7570 C   0  0  0  0  0  1  0  0  0  0  0  0
  -27.4900  -32.5530   25.8100 C   0  0  0  0  0  1  0  0  0  0  0  0
  -25.5230  -33.9180   24.1800 N   0  0  0  0  0  0  0  0  0  0  0  0
  -25.8640  -34.9650   23.4200 C   0  0  0  0  0  0  0  0  0  0  0  0
  -26.5480  -34.8570   22.3960 O   0  0  0  0  0  0  0  0  0  0  0  0
  -24.9150  -34.0760   24.9730 H   0  0  0  0  0  0  0  0  0  0  0  0
  -24.1420  -36.7570   23.0310 C   0  0  0  0  0  1  0  0  0  0  0  0
  -25.3660  -36.3540   23.8650 C   0  0  0  0  0  3  0  0  0  0  0  0
  -27.4830  -37.2410   24.7340 C   0  0  0  0  0  1  0  0  0  0  0  0
  -26.3970  -37.4070   23.7710 N   0  0  0  0  0  0  0  0  0  0  0  0
  -25.9880  -38.3250   23.9130 H   0  0  0  0  0  0  0  0  0  0  0  0
  2  3  1  0
  3  9  1  0
  3  1  2  0
  4  1  1  0
  4 47  1  0
  5  6  1  0
  5  2  2  0
  6  4  2  0
  7  5  1  0
  8  6  1  0
  9 10  2  0
 10 11  1  0
 12 17  1  0
 13 14  1  0
 13 12  1  0
 15 14  1  0
 15 22  1  0
 15 16  1  0
 17 11  1  0
 17 16  1  0
 18 11  2  0
 19 20  2  0
 20 39  1  0
 21 20  1  0
 21 24  1  0
 22 19  1  0
 22 23  1  0
 23 21  2  0
 24 25  1  0
 25 26  2  0
 27 30  1  0
 27 26  1  0
 28 27  2  0
 29 28  1  0
 29 24  2  0
 30 31  1  0
 31 32  1  0
 32 33  2  0
 34 33  1  0
 34 38  1  0
 35 34  2  0
 36 31  2  0
 36 35  1  0
 37 36  1  0
 39 40  1  0
 40 43  1  0
 40 42  1  0
 41 39  2  0
 44 45  1  0
 44 19  1  0
 46 44  1  0
 48 47  2  0
 48 49  1  0
 50 51  1  0
 50 49  1  0
 52 63  2  0
 53 51  1  0
 53 58  1  0
 54 62  1  0
 54 64  1  0
 55 61  1  0
 55 57  1  0
 56 62  1  0
 57 58  2  0
 57 56  1  0
 59 53  2  0
 60 59  1  0
 60 55  2  0
 61 54  1  0
 62 52  1  0
 64 66  2  0
 65 64  1  0
 67 65  1  0
 68 77  2  0
 68 73  1  0
 69 65  1  0
 69 73  1  0
 70 69  1  0
 71 72  1  0
 71 70  1  0
 72 68  1  0
 73 74  2  0
 74 75  1  0
 76 75  2  0
 77 76  1  0
 78 52  1  0
 78 83  1  0
 78 79  1  0
 79 82  1  1
 79 80  1  0
 81 79  1  0
 83 86  1  0
 84 88  1  0
 84 83  1  0
 85 84  2  0
 88 87  1  0
 90 88  1  0
 90 91  1  0
 90 89  1  0
M  ISO  4  10 100  11 100  50 101  51 101
M  END
>  <TORSDO>  (29) 
F 20

>  <SCORE>  (29) 
-14.057

>  <name>  (29) 
28

>  <ligand_id>  (29) 
28

>  <original_smiles>  (29) 
[H]C(C(=O)N1C([H])([H])C([H])([H])C([H])([H])C([H])(n2nc(-c3c([H])c([H])c(Oc4c([H])c([H])c(F)c([H])c4F)c([H])c3[H])c(C(=O)N([H])[H])c2N([H])[H])C1([H])[H])=C([H])c1c([H])c(C([H])=C([H])C([H])([H])C([H])([H])Oc2c([H])c([H])c3c(c2[H])C([H])([H])N(C(=O)C([H])(N([H])C(=O)C([H])(N([H])C([H])([H])[H])C([H])([H])[H])C(C([H])([H])[H])(C([H])([H])[H])C([H])([H])[H])C([H])(C(=O)N([H])C2([H])c4c([H])c([H])c([H])c([H])c4C([H])([H])C([H])([H])C2([H])[H])C3([H])[H])c(C([H])([H])[H])c(C([H])([H])[H])c1[H]

>  <smiles>  (29) 
[H]C(C(=O)N1C([H])([H])C([H])([H])C([H])([H])C([H])(n2nc(-c3c([H])c([H])c(Oc4c([H])c([H])c(F)c([H])c4F)c([H])c3[H])c(C(=O)N([H])[H])c2N([H])[H])C1([H])[H])=C([H])c1c([H])c(C([H])=C([H])C([H])([H])C([H])([H])Oc2c([H])c([H])c3c(c2[H])C([H])([H])N(C(=O)C([H])(N([H])C(=O)C([H])(N([H])C([H])([H])[H])C([H])([H])[H])C(C([H])([H])[H])(C([H])([H])[H])C([H])([H])[H])C([H])(C(=O)N([H])C2([H])c4c([H])c([H])c([H])c([H])c4C([H])([H])C([H])([H])C2([H])[H])C3([H])[H])c(C([H])([H])[H])c(C([H])([H])[H])c1[H]

$$$$
29:0:0
     RDKit          3D

 94102  0  0  1  0  0  0  0  0999 V2000
  -31.6340  -18.9430   20.5590 C   0  0  0  0  0  3  0  0  0  0  0  0
  -30.3360  -19.2120   22.5880 C   0  0  0  0  0  3  0  0  0  0  0  0
  -31.0790  -18.3790   21.7260 C   0  0  0  0  0  0  0  0  0  0  0  0
  -31.5400  -20.3320   20.3020 C   0  0  0  0  0  0  0  0  0  0  0  0
  -30.2320  -20.6040   22.3420 C   0  0  0  0  0  0  0  0  0  0  0  0
  -30.8610  -21.1850   21.2090 C   0  0  0  0  0  0  0  0  0  0  0  0
  -32.2550  -20.8850   19.0810 C   0  0  0  0  0  1  0  0  0  0  0  0
  -30.3620  -21.8810   24.5330 C   0  0  0  0  0  1  0  0  0  0  0  0
  -29.4820  -21.4630   23.3480 C   0  0  0  0  0  2  0  0  0  0  0  0
  -31.4460  -16.9460   22.1340 C   0  0  0  0  0  2  0  0  0  0  0  0
  -31.2810  -14.9080   20.7040 C   0  0  0  0  0  0  0  0  0  0  0  0
  -30.9330  -12.8090   19.4420 C   0  0  0  0  0  2  0  0  0  0  0  0
  -30.0350  -13.0540   18.2140 C   0  0  0  0  0  2  0  0  0  0  0  0
  -28.5480  -12.9360   18.5990 C   0  0  0  0  0  2  0  0  0  0  0  0
  -28.1930  -13.7640   19.8620 C   0  0  0  0  0  3  0  0  0  0  0  0
  -29.2040  -13.4990   21.0000 C   0  0  0  0  0  2  0  0  0  0  0  0
  -30.5530  -13.7790   20.4810 N   0  0  0  0  0  0  0  0  0  0  0  0
  -32.3900  -15.0910   20.1930 O   0  0  0  0  0  0  0  0  0  0  0  0
  -30.7190  -15.8360   21.5020 N   0  0  0  0  0  0  0  0  0  0  0  0
  -29.7900  -15.6400   21.8430 H   0  0  0  0  0  0  0  0  0  0  0  0
  -25.7980  -14.4250   20.5320 C   0  0  0  0  0  0  0  0  0  0  0  0
  -24.6940  -13.6760   20.8380 C   0  0  0  0  0  0  0  0  0  0  0  0
  -25.1090  -12.3110   20.7620 C   0  0  0  0  0  0  0  0  0  0  0  0
  -26.8190  -13.5180   20.2920 N   0  0  0  0  0  0  0  0  0  0  0  0
  -26.4060  -12.2380   20.4870 N   0  0  0  0  0  0  0  0  0  0  0  0
  -24.3360  -11.0680   20.8780 C   0  0  0  0  0  0  0  0  0  0  0  0
  -24.7240  -10.0360   21.7610 C   0  0  0  0  0  3  0  0  0  0  0  0
  -23.9540   -8.8590   21.8680 C   0  0  0  0  0  3  0  0  0  0  0  0
  -22.7800   -8.7050   21.0900 C   0  0  0  0  0  0  0  0  0  0  0  0
  -22.4110   -9.7260   20.1980 C   0  0  0  0  0  3  0  0  0  0  0  0
  -23.1810  -10.8950   20.0880 C   0  0  0  0  0  3  0  0  0  0  0  0
  -21.9830   -7.5860   21.1100 O   0  0  0  0  0  0  0  0  0  0  0  0
  -21.9060   -6.7770   22.2150 C   0  0  0  0  0  0  0  0  0  0  0  0
  -21.5140   -7.2750   23.4770 C   0  0  0  0  0  3  0  0  0  0  0  0
  -21.3800   -6.3950   24.5700 C   0  0  0  0  0  3  0  0  0  0  0  0
  -21.6260   -5.0190   24.4030 C   0  0  0  0  0  0  0  0  0  0  0  0
  -22.0110   -4.5210   23.1450 C   0  0  0  0  0  3  0  0  0  0  0  0
  -22.1470   -5.3970   22.0540 C   0  0  0  0  0  0  0  0  0  0  0  0
  -22.4970   -4.9080   20.8400 F   0  0  0  0  0  0  0  0  0  0  0  0
  -21.4900   -4.1740   25.4500 F   0  0  0  0  0  0  0  0  0  0  0  0
  -23.3070  -14.1900   21.0940 C   0  0  0  0  0  0  0  0  0  0  0  0
  -22.5350  -13.4890   21.9180 N   0  0  0  0  0  0  0  0  0  0  0  0
  -22.9160  -15.2470   20.6010 O   0  0  0  0  0  0  0  0  0  0  0  0
  -22.8640  -12.6320   22.3370 H   0  0  0  0  0  0  0  0  0  0  0  0
  -21.6040  -13.8140   22.1330 H   0  0  0  0  0  0  0  0  0  0  0  0
  -26.0180  -15.7940   20.4180 N   0  0  0  0  0  0  0  0  0  0  0  0
  -25.2770  -16.4770   20.5390 H   0  0  0  0  0  0  0  0  0  0  0  0
  -26.8980  -16.2120   20.1410 H   0  0  0  0  0  0  0  0  0  0  0  0
  -30.9320  -22.5640   21.1020 O   0  0  0  0  0  0  0  0  0  0  0  0
  -30.1640  -23.2010   20.0720 C   0  0  0  0  0  2  0  0  0  0  0  0
  -30.2580  -24.7430   20.1910 C   0  0  0  0  0  0  0  0  0  0  0  0
  -31.2200  -25.2930   20.7410 O   0  0  0  0  0  0  0  0  0  0  0  0
  -29.0950  -25.5580   19.5920 C   0  0  0  0  0  2  0  0  0  0  0  0
  -29.1170  -26.9610   19.9590 O   0  0  0  0  0  0  0  0  0  0  0  0
  -24.8330  -31.5880   23.2950 C   0  0  0  0  0  0  0  0  0  0  0  0
  -27.8990  -27.6240   19.9390 C   0  0  0  0  0  0  0  0  0  0  0  0
  -23.7830  -30.2240   21.5220 C   0  0  0  0  0  3  0  0  0  0  0  0
  -25.3880  -28.9440   20.0100 C   0  0  0  0  0  0  0  0  0  0  0  0
  -26.2750  -30.8070   21.4140 C   0  0  0  0  0  2  0  0  0  0  0  0
  -26.4890  -29.5040   20.6680 C   0  0  0  0  0  0  0  0  0  0  0  0
  -27.7470  -28.8530   20.6300 C   0  0  0  0  0  3  0  0  0  0  0  0
  -26.7750  -27.1000   19.2560 C   0  0  0  0  0  3  0  0  0  0  0  0
  -25.5270  -27.7430   19.3000 C   0  0  0  0  0  3  0  0  0  0  0  0
  -24.0730  -29.6850   20.0980 C   0  0  0  0  0  2  0  0  0  0  0  0
  -24.9810  -30.8850   22.1360 N   0  0  0  0  0  0  0  0  0  0  0  0
  -23.7240  -31.7210   23.8280 O   0  0  0  0  0  0  0  0  0  0  0  0
  -23.2090  -29.0740   22.3820 C   0  0  0  0  0  0  0  0  0  0  0  0
  -21.9260  -28.7450   22.1640 N   0  0  0  0  0  0  0  0  0  0  0  0
  -23.9170  -28.4860   23.2040 O   0  0  0  0  0  0  0  0  0  0  0  0
  -21.4110  -29.2790   21.4790 H   0  0  0  0  0  0  0  0  0  0  0  0
  -18.7260  -27.0710   22.3140 C   0  0  0  0  0  0  0  0  0  0  0  0
  -21.1870  -27.6730   22.8320 C   0  0  0  0  0  3  0  0  0  0  0  0
  -21.5440  -26.2940   22.2300 C   0  0  0  0  0  2  0  0  0  0  0  0
  -20.5940  -25.8590   21.1100 C   0  0  0  0  0  2  0  0  0  0  0  0
  -19.1530  -25.7850   21.6240 C   0  0  0  0  0  2  0  0  0  0  0  0
  -19.6820  -27.9630   22.8660 C   0  0  0  0  0  0  0  0  0  0  0  0
  -19.2350  -29.1610   23.4650 C   0  0  0  0  0  3  0  0  0  0  0  0
  -17.8620  -29.4690   23.5210 C   0  0  0  0  0  3  0  0  0  0  0  0
  -16.9190  -28.5740   22.9880 C   0  0  0  0  0  3  0  0  0  0  0  0
  -17.3510  -27.3760   22.3900 C   0  0  0  0  0  3  0  0  0  0  0  0
  -26.0480  -32.2780   23.9910 C   0  0  0  0  0  3  0  0  0  0  0  0
  -25.6340  -33.6380   24.3570 N   0  0  0  0  0  0  0  0  0  0  0  0
  -25.9210  -34.7370   23.6470 C   0  0  0  0  0  0  0  0  0  0  0  0
  -26.6320  -34.7160   22.6380 O   0  0  0  0  0  0  0  0  0  0  0  0
  -25.0040  -33.7230   25.1410 H   0  0  0  0  0  0  0  0  0  0  0  0
  -24.0760  -36.4110   23.2990 C   0  0  0  0  0  1  0  0  0  0  0  0
  -25.3230  -36.0720   24.1320 C   0  0  0  0  0  3  0  0  0  0  0  0
  -27.3680  -37.0770   25.0450 C   0  0  0  0  0  1  0  0  0  0  0  0
  -26.2790  -37.1990   24.0790 N   0  0  0  0  0  0  0  0  0  0  0  0
  -25.8050  -38.0830   24.2450 H   0  0  0  0  0  0  0  0  0  0  0  0
  -26.5670  -31.4910   25.2560 C   0  0  1  0  0  0  0  0  0  0  0  0
  -25.4540  -31.1460   26.2720 C   0  0  0  0  0  1  0  0  0  0  0  0
  -27.2510  -30.1700   24.8350 C   0  0  0  0  0  1  0  0  0  0  0  0
  -27.6410  -32.3290   25.9900 C   0  0  0  0  0  1  0  0  0  0  0  0
  1  3  1  0
  3 10  1  0
  3  2  2  0
  4  1  2  0
  4  6  1  0
  5  2  1  0
  5  9  1  0
  6  5  2  0
  7  4  1  0
  9  8  1  0
 11 19  1  0
 12 17  1  0
 13 14  1  0
 13 12  1  0
 15 14  1  0
 15 24  1  0
 15 16  1  0
 17 11  1  0
 17 16  1  0
 18 11  2  0
 19 20  1  0
 19 10  1  0
 21 22  2  0
 22 41  1  0
 23 22  1  0
 23 26  1  0
 24 25  1  0
 24 21  1  0
 25 23  2  0
 26 27  1  0
 27 28  2  0
 29 32  1  0
 29 28  1  0
 30 29  2  0
 31 30  1  0
 31 26  2  0
 32 33  1  0
 33 34  1  0
 34 35  2  0
 36 35  1  0
 36 40  1  0
 37 36  2  0
 38 33  2  0
 38 37  1  0
 39 38  1  0
 41 42  1  0
 42 45  1  0
 42 44  1  0
 43 41  2  0
 46 21  1  0
 46 47  1  0
 48 46  1  0
 49  6  1  0
 50 51  1  0
 50 49  1  0
 51 52  2  0
 53 54  1  0
 53 51  1  0
 55 66  2  0
 56 54  1  0
 56 61  1  0
 57 65  1  0
 57 67  1  0
 58 64  1  0
 58 60  1  0
 59 65  1  0
 60 59  1  0
 61 60  2  0
 62 63  1  0
 62 56  2  0
 63 58  2  0
 64 57  1  0
 65 55  1  0
 67 69  2  0
 68 67  1  0
 70 68  1  0
 71 80  2  0
 71 76  1  0
 72 68  1  0
 72 76  1  0
 73 72  1  0
 74 75  1  0
 74 73  1  0
 75 71  1  0
 76 77  2  0
 77 78  1  0
 79 78  2  0
 80 79  1  0
 81 55  1  0
 81 82  1  0
 81 91  1  0
 82 85  1  0
 83 87  1  0
 83 82  1  0
 84 83  2  0
 87 86  1  0
 89 87  1  0
 89 90  1  0
 89 88  1  0
 91 94  1  1
 91 92  1  0
 93 91  1  0
M  ISO  4  11 100  19 100  53 101  54 101
M  END
>  <TORSDO>  (30) 
F 22

>  <SCORE>  (30) 
-10.640

>  <name>  (30) 
29

>  <ligand_id>  (30) 
29

>  <original_smiles>  (30) 
[H]c1c([H])c([H])c2c(c1[H])C([H])([H])C([H])([H])C([H])([H])C2([H])N([H])C(=O)C1([H])N(C(=O)C([H])(N([H])C(=O)C([H])(N([H])C([H])([H])[H])C([H])([H])[H])C(C([H])([H])[H])(C([H])([H])[H])C([H])([H])[H])C([H])([H])c2c([H])c(OC([H])([H])C(=O)C([H])([H])Oc3c(C([H])([H])[H])c([H])c(C([H])([H])N([H])C(=O)N4C([H])([H])C([H])([H])C([H])([H])C([H])(n5nc(-c6c([H])c([H])c(Oc7c([H])c([H])c(F)c([H])c7F)c([H])c6[H])c(C(=O)N([H])[H])c5N([H])[H])C4([H])[H])c([H])c3C([H])([H])C([H])([H])[H])c([H])c([H])c2C1([H])[H]

>  <smiles>  (30) 
[H]c1c([H])c([H])c2c(c1[H])C([H])([H])C([H])([H])C([H])([H])C2([H])N([H])C(=O)C1([H])N(C(=O)C([H])(N([H])C(=O)C([H])(N([H])C([H])([H])[H])C([H])([H])[H])C(C([H])([H])[H])(C([H])([H])[H])C([H])([H])[H])C([H])([H])c2c([H])c(OC([H])([H])C(=O)C([H])([H])Oc3c(C([H])([H])[H])c([H])c(C([H])([H])N([H])C(=O)N4C([H])([H])C([H])([H])C([H])([H])C([H])(n5nc(-c6c([H])c([H])c(Oc7c([H])c([H])c(F)c([H])c7F)c([H])c6[H])c(C(=O)N([H])[H])c5N([H])[H])C4([H])[H])c([H])c3C([H])([H])C([H])([H])[H])c([H])c([H])c2C1([H])[H]

$$$$
30:0:0
     RDKit          3D

 94102  0  0  1  0  0  0  0  0999 V2000
  -29.9420  -19.1030   18.8010 C   0  0  0  0  0  3  0  0  0  0  0  0
  -30.8260  -17.4570   17.2290 C   0  0  0  0  0  3  0  0  0  0  0  0
  -30.4690  -17.8170   18.5480 C   0  0  0  0  0  0  0  0  0  0  0  0
  -29.8390  -20.0360   17.7480 C   0  0  0  0  0  0  0  0  0  0  0  0
  -30.3350  -19.7070   16.4590 C   0  0  0  0  0  0  0  0  0  0  0  0
  -30.8130  -18.4050   16.1870 C   0  0  0  0  0  0  0  0  0  0  0  0
  -31.7300  -16.8430   14.5740 C   0  0  0  0  0  1  0  0  0  0  0  0
  -31.2830  -18.1500   14.9150 O   0  0  0  0  0  0  0  0  0  0  0  0
  -31.6170  -21.6400   15.4350 C   0  0  0  0  0  1  0  0  0  0  0  0
  -30.3730  -20.7430   15.3360 C   0  0  0  0  0  2  0  0  0  0  0  0
  -29.0860  -21.2850   17.8910 C   0  0  0  0  0  3  0  0  0  0  0  0
  -29.5930  -22.5030   18.1290 C   0  0  0  0  0  3  0  0  0  0  0  0
  -28.7800  -23.7730   17.9640 C   0  0  0  0  0  2  0  0  0  0  0  0
  -28.5590  -24.6100   19.2300 C   0  0  0  0  0  2  0  0  0  0  0  0
  -28.4740  -26.1030   18.8830 C   0  0  0  0  0  2  0  0  0  0  0  0
  -28.2320  -26.8760   20.0570 O   0  0  0  0  0  0  0  0  0  0  0  0
  -24.5250  -32.0030   23.2850 C   0  0  0  0  0  0  0  0  0  0  0  0
  -27.0380  -27.5560   20.1200 C   0  0  0  0  0  0  0  0  0  0  0  0
  -23.2550  -30.6110   21.6800 C   0  0  0  0  0  3  0  0  0  0  0  0
  -24.6520  -29.0600   20.2200 C   0  0  0  0  0  0  0  0  0  0  0  0
  -25.7750  -30.9510   21.4100 C   0  0  0  0  0  2  0  0  0  0  0  0
  -25.8290  -29.5750   20.7760 C   0  0  0  0  0  0  0  0  0  0  0  0
  -27.0190  -28.8230   20.7390 C   0  0  0  0  0  3  0  0  0  0  0  0
  -25.8370  -27.0320   19.5900 C   0  0  0  0  0  3  0  0  0  0  0  0
  -24.6480  -27.7850   19.6330 C   0  0  0  0  0  3  0  0  0  0  0  0
  -23.4200  -29.9290   20.2960 C   0  0  0  0  0  2  0  0  0  0  0  0
  -24.5370  -31.2020   22.1830 N   0  0  0  0  0  0  0  0  0  0  0  0
  -23.4640  -32.2860   23.8560 O   0  0  0  0  0  0  0  0  0  0  0  0
  -22.6260  -29.5920   22.6570 C   0  0  0  0  0  0  0  0  0  0  0  0
  -21.3130  -29.3530   22.5050 N   0  0  0  0  0  0  0  0  0  0  0  0
  -23.3160  -29.0180   23.5030 O   0  0  0  0  0  0  0  0  0  0  0  0
  -20.8200  -29.8780   21.7990 H   0  0  0  0  0  0  0  0  0  0  0  0
  -18.0010  -27.9650   22.8670 C   0  0  0  0  0  0  0  0  0  0  0  0
  -20.5120  -28.4060   23.2800 C   0  0  0  0  0  3  0  0  0  0  0  0
  -20.7430  -26.9540   22.7980 C   0  0  0  0  0  2  0  0  0  0  0  0
  -19.7310  -26.5010   21.7420 C   0  0  0  0  0  2  0  0  0  0  0  0
  -18.3060  -26.5910   22.2940 C   0  0  0  0  0  2  0  0  0  0  0  0
  -19.0390  -28.8220   23.3160 C   0  0  0  0  0  0  0  0  0  0  0  0
  -18.7070  -30.1040   23.8100 C   0  0  0  0  0  3  0  0  0  0  0  0
  -17.3660  -30.5310   23.8590 C   0  0  0  0  0  3  0  0  0  0  0  0
  -16.3410  -29.6700   23.4350 C   0  0  0  0  0  3  0  0  0  0  0  0
  -16.6570  -28.3890   22.9450 C   0  0  0  0  0  3  0  0  0  0  0  0
  -25.8370  -32.6190   23.8670 C   0  0  0  0  0  3  0  0  0  0  0  0
  -25.5590  -34.0180   24.2070 N   0  0  0  0  0  0  0  0  0  0  0  0
  -25.8900  -35.0660   23.4420 C   0  0  0  0  0  0  0  0  0  0  0  0
  -26.5350  -34.9580   22.3970 O   0  0  0  0  0  0  0  0  0  0  0  0
  -24.9900  -34.1810   25.0260 H   0  0  0  0  0  0  0  0  0  0  0  0
  -24.1770  -36.8770   23.1300 C   0  0  0  0  0  1  0  0  0  0  0  0
  -25.4300  -36.4580   23.9140 C   0  0  0  0  0  3  0  0  0  0  0  0
  -27.5940  -37.3150   24.6960 C   0  0  0  0  0  1  0  0  0  0  0  0
  -26.4730  -37.4970   23.7790 N   0  0  0  0  0  0  0  0  0  0  0  0
  -26.0820  -38.4220   23.9440 H   0  0  0  0  0  0  0  0  0  0  0  0
  -26.3880  -31.8360   25.1210 C   0  0  1  0  0  0  0  0  0  0  0  0
  -25.3200  -31.5830   26.2110 C   0  0  0  0  0  1  0  0  0  0  0  0
  -26.9720  -30.4700   24.6970 C   0  0  0  0  0  1  0  0  0  0  0  0
  -27.5450  -32.6340   25.7690 C   0  0  0  0  0  1  0  0  0  0  0  0
  -30.7460  -16.8490   19.6180 C   0  0  0  0  0  2  0  0  0  0  0  0
  -30.4880  -15.5390   19.4650 C   0  0  0  0  0  2  0  0  0  0  0  0
  -31.1350  -14.5320   20.2820 C   0  0  0  0  0  0  0  0  0  0  0  0
  -30.7720  -12.3150   19.3810 C   0  0  0  0  0  2  0  0  0  0  0  0
  -29.8820  -12.4960   18.1330 C   0  0  0  0  0  2  0  0  0  0  0  0
  -28.3860  -12.4970   18.5130 C   0  0  0  0  0  2  0  0  0  0  0  0
  -28.0380  -13.3860   19.7380 C   0  0  0  0  0  3  0  0  0  0  0  0
  -29.0740  -13.2290   20.8740 C   0  0  0  0  0  2  0  0  0  0  0  0
  -30.4290  -13.3770   20.3280 N   0  0  0  0  0  0  0  0  0  0  0  0
  -32.3600  -14.5850   20.3510 O   0  0  0  0  0  0  0  0  0  0  0  0
  -25.6640  -14.0810   20.4190 C   0  0  0  0  0  0  0  0  0  0  0  0
  -24.5620  -13.3530   20.7680 C   0  0  0  0  0  0  0  0  0  0  0  0
  -24.9740  -11.9860   20.7530 C   0  0  0  0  0  0  0  0  0  0  0  0
  -26.6760  -13.1590   20.2070 N   0  0  0  0  0  0  0  0  0  0  0  0
  -26.2660  -11.8950   20.4720 N   0  0  0  0  0  0  0  0  0  0  0  0
  -24.2020  -10.7520   20.9330 C   0  0  0  0  0  0  0  0  0  0  0  0
  -24.5860   -9.7720   21.8740 C   0  0  0  0  0  3  0  0  0  0  0  0
  -23.8160   -8.5990   22.0380 C   0  0  0  0  0  3  0  0  0  0  0  0
  -22.6490   -8.3990   21.2590 C   0  0  0  0  0  0  0  0  0  0  0  0
  -22.2880   -9.3680   20.3040 C   0  0  0  0  0  3  0  0  0  0  0  0
  -23.0590  -10.5300   20.1390 C   0  0  0  0  0  3  0  0  0  0  0  0
  -21.8540   -7.2810   21.3350 O   0  0  0  0  0  0  0  0  0  0  0  0
  -21.7520   -6.5490   22.4910 C   0  0  0  0  0  0  0  0  0  0  0  0
  -21.3290   -7.1290   23.7090 C   0  0  0  0  0  3  0  0  0  0  0  0
  -21.1790   -6.3220   24.8560 C   0  0  0  0  0  3  0  0  0  0  0  0
  -21.4310   -4.9400   24.7840 C   0  0  0  0  0  0  0  0  0  0  0  0
  -21.8450   -4.3600   23.5720 C   0  0  0  0  0  3  0  0  0  0  0  0
  -22.0020   -5.1630   22.4280 C   0  0  0  0  0  0  0  0  0  0  0  0
  -22.3810   -4.5980   21.2570 F   0  0  0  0  0  0  0  0  0  0  0  0
  -21.2730   -4.1640   25.8820 F   0  0  0  0  0  0  0  0  0  0  0  0
  -23.1780  -13.8800   21.0130 C   0  0  0  0  0  0  0  0  0  0  0  0
  -22.4190  -13.2260   21.8850 N   0  0  0  0  0  0  0  0  0  0  0  0
  -22.7800  -14.9090   20.4660 O   0  0  0  0  0  0  0  0  0  0  0  0
  -22.7530  -12.3970   22.3550 H   0  0  0  0  0  0  0  0  0  0  0  0
  -21.4860  -13.5600   22.0880 H   0  0  0  0  0  0  0  0  0  0  0  0
  -25.8850  -15.4450   20.2440 N   0  0  0  0  0  0  0  0  0  0  0  0
  -25.1470  -16.1350   20.3360 H   0  0  0  0  0  0  0  0  0  0  0  0
  -26.7720  -15.8480   19.9710 H   0  0  0  0  0  0  0  0  0  0  0  0
  2  3  2  0
  3  1  1  0
  3 57  1  0
  4 11  1  0
  4  1  2  0
  5  4  1  0
  6  5  2  0
  6  2  1  0
  7  8  1  0
  8  6  1  0
 10  9  1  0
 10  5  1  0
 11 12  2  0
 13 12  1  0
 13 14  1  0
 15 14  1  0
 15 16  1  0
 16 18  1  0
 17 28  2  0
 18 23  1  0
 19 27  1  0
 19 29  1  0
 20 26  1  0
 20 22  1  0
 21 27  1  0
 22 21  1  0
 23 22  2  0
 24 25  1  0
 24 18  2  0
 25 20  2  0
 26 19  1  0
 27 17  1  0
 29 31  2  0
 30 29  1  0
 32 30  1  0
 33 42  2  0
 33 38  1  0
 34 30  1  0
 34 38  1  0
 35 34  1  0
 36 37  1  0
 36 35  1  0
 37 33  1  0
 38 39  2  0
 39 40  1  0
 41 40  2  0
 42 41  1  0
 43 17  1  0
 43 44  1  0
 43 53  1  0
 44 47  1  0
 45 49  1  0
 45 44  1  0
 46 45  2  0
 49 48  1  0
 51 49  1  0
 51 52  1  0
 51 50  1  0
 53 56  1  1
 53 54  1  0
 55 53  1  0
 58 57  1  0
 58 59  1  0
 59 65  1  0
 59 66  2  0
 60 65  1  0
 61 62  1  0
 61 60  1  0
 63 62  1  0
 63 70  1  0
 63 64  1  0
 65 64  1  0
 67 68  2  0
 68 87  1  0
 69 68  1  0
 69 72  1  0
 70 67  1  0
 70 71  1  0
 71 69  2  0
 72 73  1  0
 73 74  2  0
 75 78  1  0
 75 74  1  0
 76 75  2  0
 77 76  1  0
 77 72  2  0
 78 79  1  0
 79 80  1  0
 80 81  2  0
 82 81  1  0
 82 86  1  0
 83 82  2  0
 84 79  2  0
 84 83  1  0
 85 84  1  0
 87 88  1  0
 88 91  1  0
 88 90  1  0
 89 87  2  0
 92 93  1  0
 92 67  1  0
 94 92  1  0
M  ISO  4  15 101  16 101  58 100  59 100
M  END
>  <TORSDO>  (31) 
F 23

>  <SCORE>  (31) 
-12.408

>  <name>  (31) 
30

>  <ligand_id>  (31) 
30

>  <original_smiles>  (31) 
[H]C(C(=O)N1C([H])([H])C([H])([H])C([H])([H])C([H])(n2nc(-c3c([H])c([H])c(Oc4c([H])c([H])c(F)c([H])c4F)c([H])c3[H])c(C(=O)N([H])[H])c2N([H])[H])C1([H])[H])=C([H])c1c([H])c(OC([H])([H])[H])c(C([H])([H])C([H])([H])[H])c(C([H])=C([H])C([H])([H])C([H])([H])C([H])([H])Oc2c([H])c([H])c3c(c2[H])C([H])([H])N(C(=O)C([H])(N([H])C(=O)C([H])(N([H])C([H])([H])[H])C([H])([H])[H])C(C([H])([H])[H])(C([H])([H])[H])C([H])([H])[H])C([H])(C(=O)N([H])C2([H])c4c([H])c([H])c([H])c([H])c4C([H])([H])C([H])([H])C2([H])[H])C3([H])[H])c1[H]

>  <smiles>  (31) 
[H]C(C(=O)N1C([H])([H])C([H])([H])C([H])([H])C([H])(n2nc(-c3c([H])c([H])c(Oc4c([H])c([H])c(F)c([H])c4F)c([H])c3[H])c(C(=O)N([H])[H])c2N([H])[H])C1([H])[H])=C([H])c1c([H])c(OC([H])([H])[H])c(C([H])([H])C([H])([H])[H])c(C([H])=C([H])C([H])([H])C([H])([H])C([H])([H])Oc2c([H])c([H])c3c(c2[H])C([H])([H])N(C(=O)C([H])(N([H])C(=O)C([H])(N([H])C([H])([H])[H])C([H])([H])[H])C(C([H])([H])[H])(C([H])([H])[H])C([H])([H])[H])C([H])(C(=O)N([H])C2([H])c4c([H])c([H])c([H])c([H])c4C([H])([H])C([H])([H])C2([H])[H])C3([H])[H])c1[H]

$$$$
31:0:0
     RDKit          3D

 92100  0  0  1  0  0  0  0  0999 V2000
  -29.0450  -19.2990   20.4780 C   0  0  0  0  0  3  0  0  0  0  0  0
  -31.4100  -17.8190   20.3260 C   0  0  0  0  0  3  0  0  0  0  0  0
  -30.2490  -20.0270   20.3130 C   0  0  0  0  0  0  0  0  0  0  0  0
  -29.0040  -17.8690   20.5590 C   0  0  0  0  0  0  0  0  0  0  0  0
  -30.2040  -17.0870   20.4950 C   0  0  0  0  0  0  0  0  0  0  0  0
  -31.4300  -19.2400   20.2360 C   0  0  0  0  0  0  0  0  0  0  0  0
  -32.6280  -19.8550   20.0780 F   0  0  0  0  0  0  0  0  0  0  0  0
  -30.8680  -14.6140   19.9900 C   0  0  0  0  0  0  0  0  0  0  0  0
  -30.5240  -12.4770   18.7700 C   0  0  0  0  0  2  0  0  0  0  0  0
  -29.4830  -12.7240   17.6540 C   0  0  0  0  0  2  0  0  0  0  0  0
  -28.0480  -12.5550   18.1920 C   0  0  0  0  0  2  0  0  0  0  0  0
  -27.8160  -13.3150   19.5250 C   0  0  0  0  0  3  0  0  0  0  0  0
  -28.9580  -13.0410   20.5300 C   0  0  0  0  0  2  0  0  0  0  0  0
  -30.2250  -13.4080   19.8760 N   0  0  0  0  0  0  0  0  0  0  0  0
  -31.9820  -14.7940   19.4920 O   0  0  0  0  0  0  0  0  0  0  0  0
  -30.1380  -15.6210   20.5640 N   0  0  0  0  0  0  0  0  0  0  0  0
  -29.3130  -15.2700   21.0230 H   0  0  0  0  0  0  0  0  0  0  0  0
  -25.4810  -13.8890   20.4340 C   0  0  0  0  0  0  0  0  0  0  0  0
  -24.4430  -13.1060   20.8540 C   0  0  0  0  0  0  0  0  0  0  0  0
  -24.8960  -11.7560   20.7390 C   0  0  0  0  0  0  0  0  0  0  0  0
  -26.5040  -13.0190   20.0940 N   0  0  0  0  0  0  0  0  0  0  0  0
  -26.1600  -11.7270   20.3360 N   0  0  0  0  0  0  0  0  0  0  0  0
  -24.1810  -10.4880   20.9340 C   0  0  0  0  0  0  0  0  0  0  0  0
  -24.6270   -9.5230   21.8640 C   0  0  0  0  0  3  0  0  0  0  0  0
  -23.9110   -8.3210   22.0470 C   0  0  0  0  0  3  0  0  0  0  0  0
  -22.7340   -8.0740   21.3000 C   0  0  0  0  0  0  0  0  0  0  0  0
  -22.3080   -9.0280   20.3580 C   0  0  0  0  0  3  0  0  0  0  0  0
  -23.0240  -10.2230   20.1740 C   0  0  0  0  0  3  0  0  0  0  0  0
  -21.9900   -6.9240   21.3920 O   0  0  0  0  0  0  0  0  0  0  0  0
  -21.8620   -6.2420   22.5750 C   0  0  0  0  0  0  0  0  0  0  0  0
  -21.3340   -6.8530   23.7330 C   0  0  0  0  0  3  0  0  0  0  0  0
  -21.1560   -6.0960   24.9090 C   0  0  0  0  0  3  0  0  0  0  0  0
  -21.4950   -4.7310   24.9260 C   0  0  0  0  0  0  0  0  0  0  0  0
  -22.0170   -4.1200   23.7720 C   0  0  0  0  0  3  0  0  0  0  0  0
  -22.1970   -4.8730   22.5990 C   0  0  0  0  0  0  0  0  0  0  0  0
  -22.6790   -4.2750   21.4840 F   0  0  0  0  0  0  0  0  0  0  0  0
  -21.3170   -4.0010   26.0530 F   0  0  0  0  0  0  0  0  0  0  0  0
  -23.0710  -13.5740   21.2470 C   0  0  0  0  0  0  0  0  0  0  0  0
  -22.4190  -12.8630   22.1600 N   0  0  0  0  0  0  0  0  0  0  0  0
  -22.5900  -14.6060   20.7800 O   0  0  0  0  0  0  0  0  0  0  0  0
  -22.8240  -12.0280   22.5570 H   0  0  0  0  0  0  0  0  0  0  0  0
  -21.5040  -13.1600   22.4680 H   0  0  0  0  0  0  0  0  0  0  0  0
  -25.6340  -15.2640   20.2860 N   0  0  0  0  0  0  0  0  0  0  0  0
  -24.8750  -15.9080   20.4760 H   0  0  0  0  0  0  0  0  0  0  0  0
  -26.4460  -15.7140   19.8860 H   0  0  0  0  0  0  0  0  0  0  0  0
  -30.3310  -21.5480   20.2510 C   0  0  0  0  0  3  0  0  0  0  0  0
  -29.3760  -22.5210   20.3830 C   0  0  0  0  0  3  0  0  0  0  0  0
  -29.6280  -24.0690   20.4130 C   0  0  0  0  0  3  0  0  0  0  0  0
  -28.5190  -25.0350   19.8310 C   0  0  0  0  0  3  0  0  0  0  0  0
  -28.6490  -26.4800   20.1110 O   0  0  0  0  0  0  0  0  0  0  0  0
  -24.6220  -31.6270   23.1520 C   0  0  0  0  0  0  0  0  0  0  0  0
  -27.4910  -27.2690   20.0500 C   0  0  0  0  0  0  0  0  0  0  0  0
  -23.5210  -30.2430   21.4290 C   0  0  0  0  0  3  0  0  0  0  0  0
  -25.0680  -28.7860   20.0110 C   0  0  0  0  0  0  0  0  0  0  0  0
  -26.0510  -30.6530   21.3440 C   0  0  0  0  0  2  0  0  0  0  0  0
  -26.1990  -29.3010   20.6590 C   0  0  0  0  0  0  0  0  0  0  0  0
  -27.4140  -28.5550   20.6670 C   0  0  0  0  0  3  0  0  0  0  0  0
  -26.3330  -26.8020   19.3860 C   0  0  0  0  0  3  0  0  0  0  0  0
  -25.1360  -27.5420   19.3680 C   0  0  0  0  0  3  0  0  0  0  0  0
  -23.8020  -29.6170   20.0380 C   0  0  0  0  0  2  0  0  0  0  0  0
  -24.7470  -30.8580   22.0320 N   0  0  0  0  0  0  0  0  0  0  0  0
  -23.5130  -31.8550   23.6560 O   0  0  0  0  0  0  0  0  0  0  0  0
  -22.8600  -29.1760   22.3350 C   0  0  0  0  0  0  0  0  0  0  0  0
  -21.5410  -28.9810   22.1740 N   0  0  0  0  0  0  0  0  0  0  0  0
  -23.5340  -28.5290   23.1400 O   0  0  0  0  0  0  0  0  0  0  0  0
  -21.0580  -29.5570   21.4990 H   0  0  0  0  0  0  0  0  0  0  0  0
  -18.1610  -27.7750   22.6250 C   0  0  0  0  0  0  0  0  0  0  0  0
  -20.7220  -28.0010   22.8890 C   0  0  0  0  0  3  0  0  0  0  0  0
  -20.8100  -26.6090   22.2210 C   0  0  0  0  0  2  0  0  0  0  0  0
  -19.6970  -26.3590   21.1980 C   0  0  0  0  0  2  0  0  0  0  0  0
  -18.3220  -26.4700   21.8640 C   0  0  0  0  0  2  0  0  0  0  0  0
  -19.2880  -28.5010   23.0930 C   0  0  0  0  0  0  0  0  0  0  0  0
  -19.0820  -29.7250   23.7660 C   0  0  0  0  0  3  0  0  0  0  0  0
  -17.7830  -30.2230   23.9760 C   0  0  0  0  0  3  0  0  0  0  0  0
  -16.6690  -29.4930   23.5240 C   0  0  0  0  0  3  0  0  0  0  0  0
  -16.8590  -28.2700   22.8550 C   0  0  0  0  0  3  0  0  0  0  0  0
  -25.8630  -32.2790   23.8370 C   0  0  0  0  0  3  0  0  0  0  0  0
  -26.3380  -31.5050   25.1280 C   0  0  1  0  0  0  0  0  0  0  0  0
  -25.2010  -31.2220   26.1360 C   0  0  0  0  0  1  0  0  0  0  0  0
  -26.9780  -30.1480   24.7470 C   0  0  0  0  0  1  0  0  0  0  0  0
  -27.4320  -32.3200   25.8550 C   0  0  0  0  0  1  0  0  0  0  0  0
  -25.5090  -33.6660   24.1670 N   0  0  0  0  0  0  0  0  0  0  0  0
  -25.8280  -34.7320   23.4210 C   0  0  0  0  0  0  0  0  0  0  0  0
  -26.5220  -34.6520   22.4020 O   0  0  0  0  0  0  0  0  0  0  0  0
  -24.8950  -33.8010   24.9570 H   0  0  0  0  0  0  0  0  0  0  0  0
  -24.0570  -36.4780   23.0430 C   0  0  0  0  0  1  0  0  0  0  0  0
  -25.2940  -36.1040   23.8750 C   0  0  0  0  0  3  0  0  0  0  0  0
  -27.3830  -37.0490   24.7550 C   0  0  0  0  0  1  0  0  0  0  0  0
  -26.2990  -37.1850   23.7850 N   0  0  0  0  0  0  0  0  0  0  0  0
  -25.8650  -38.0940   23.9230 H   0  0  0  0  0  0  0  0  0  0  0  0
  -26.6550  -17.4060   19.5940 C   0  0  0  0  0  1  0  0  0  0  0  0
  -27.6440  -17.1940   20.7540 C   0  0  0  0  0  2  0  0  0  0  0  0
  1  4  1  0
  2  5  1  0
  3  1  2  0
  4 92  1  0
  5  4  2  0
  5 16  1  0
  6  3  1  0
  6  2  2  0
  7  6  1  0
  8 16  1  0
  9 14  1  0
 10 11  1  0
 10  9  1  0
 12 11  1  0
 12 21  1  0
 12 13  1  0
 14  8  1  0
 14 13  1  0
 15  8  2  0
 16 17  1  0
 18 19  2  0
 19 38  1  0
 20 19  1  0
 20 23  1  0
 21 22  1  0
 21 18  1  0
 22 20  2  0
 23 24  1  0
 24 25  2  0
 26 29  1  0
 26 25  1  0
 27 26  2  0
 28 27  1  0
 28 23  2  0
 29 30  1  0
 30 35  2  0
 30 31  1  0
 31 32  2  0
 32 33  1  0
 33 37  1  0
 34 33  2  0
 35 34  1  0
 36 35  1  0
 38 39  1  0
 39 42  1  0
 39 41  1  0
 40 38  2  0
 43 18  1  0
 43 44  1  0
 45 43  1  0
 46  3  1  0
 46 47  2  0
 47 48  1  0
 49 50  1  0
 49 48  2  0
 51 62  2  0
 52 50  1  0
 52 57  1  0
 53 61  1  0
 53 63  1  0
 54 60  1  0
 54 56  1  0
 55 61  1  0
 56 57  2  0
 56 55  1  0
 58 52  2  0
 59 58  1  0
 59 54  2  0
 60 53  1  0
 61 51  1  0
 63 65  2  0
 64 63  1  0
 66 64  1  0
 67 76  2  0
 67 72  1  0
 68 64  1  0
 68 72  1  0
 69 68  1  0
 70 71  1  0
 70 69  1  0
 71 67  1  0
 72 73  2  0
 73 74  1  0
 75 74  2  0
 76 75  1  0
 77 51  1  0
 77 82  1  0
 77 78  1  0
 78 81  1  1
 78 79  1  0
 80 78  1  0
 82 85  1  0
 83 87  1  0
 83 82  1  0
 84 83  2  0
 87 86  1  0
 89 87  1  0
 89 90  1  0
 89 88  1  0
 91 92  1  0
M  ISO  4   8 100  16 100  49 101  50 101
M  END
>  <TORSDO>  (32) 
F 20

>  <SCORE>  (32) 
-13.051

>  <name>  (32) 
31

>  <ligand_id>  (32) 
31

>  <original_smiles>  (32) 
[H]C(=C([H])C([H])([H])C([H])([H])Oc1c([H])c([H])c2c(c1[H])C([H])([H])N(C(=O)C([H])(N([H])C(=O)C([H])(N([H])C([H])([H])[H])C([H])([H])[H])C(C([H])([H])[H])(C([H])([H])[H])C([H])([H])[H])C([H])(C(=O)N([H])C1([H])c3c([H])c([H])c([H])c([H])c3C([H])([H])C([H])([H])C1([H])[H])C2([H])[H])c1c([H])c(C([H])([H])C([H])([H])[H])c(N([H])C(=O)N2C([H])([H])C([H])([H])C([H])([H])C([H])(n3nc(-c4c([H])c([H])c(Oc5c([H])c([H])c(F)c([H])c5F)c([H])c4[H])c(C(=O)N([H])[H])c3N([H])[H])C2([H])[H])c([H])c1F

>  <smiles>  (32) 
[H]C(=C([H])C([H])([H])C([H])([H])Oc1c([H])c([H])c2c(c1[H])C([H])([H])N(C(=O)C([H])(N([H])C(=O)C([H])(N([H])C([H])([H])[H])C([H])([H])[H])C(C([H])([H])[H])(C([H])([H])[H])C([H])([H])[H])C([H])(C(=O)N([H])C1([H])c3c([H])c([H])c([H])c([H])c3C([H])([H])C([H])([H])C1([H])[H])C2([H])[H])c1c([H])c(C([H])([H])C([H])([H])[H])c(N([H])C(=O)N2C([H])([H])C([H])([H])C([H])([H])C([H])(n3nc(-c4c([H])c([H])c(Oc5c([H])c([H])c(F)c([H])c5F)c([H])c4[H])c(C(=O)N([H])[H])c3N([H])[H])C2([H])[H])c([H])c1F

$$$$
32:0:0
     RDKit          3D

 93101  0  0  1  0  0  0  0  0999 V2000
  -28.8240  -21.6440   20.1180 C   0  0  0  0  0  3  0  0  0  0  0  0
  -28.8000  -22.9920   20.2340 C   0  0  0  0  0  3  0  0  0  0  0  0
  -29.7040  -19.3260   20.4430 C   0  0  0  0  0  3  0  0  0  0  0  0
  -31.1370  -18.7400   22.3160 C   0  0  0  0  0  3  0  0  0  0  0  0
  -30.3840  -21.0490   22.0190 C   0  0  0  0  0  3  0  0  0  0  0  0
  -30.4580  -18.3490   21.1410 C   0  0  0  0  0  0  0  0  0  0  0  0
  -29.6390  -20.6720   20.8800 C   0  0  0  0  0  0  0  0  0  0  0  0
  -31.1250  -20.0920   22.7390 C   0  0  0  0  0  0  0  0  0  0  0  0
  -31.9290  -20.5330   23.9510 C   0  0  0  0  0  1  0  0  0  0  0  0
  -30.6500  -16.9970   20.5610 C   0  0  0  0  0  3  0  0  0  0  0  0
  -30.5160  -15.7670   21.1290 C   0  0  0  0  0  3  0  0  0  0  0  0
  -31.0370  -14.6140   20.3890 C   0  0  0  0  0  0  0  0  0  0  0  0
  -30.6610  -12.4390   19.2920 C   0  0  0  0  0  2  0  0  0  0  0  0
  -29.7620  -12.6310   18.0570 C   0  0  0  0  0  2  0  0  0  0  0  0
  -28.2770  -12.5220   18.4510 C   0  0  0  0  0  2  0  0  0  0  0  0
  -27.9190  -13.3680   19.7000 C   0  0  0  0  0  3  0  0  0  0  0  0
  -28.9590  -13.2040   20.8310 C   0  0  0  0  0  2  0  0  0  0  0  0
  -30.2980  -13.4700   20.2820 N   0  0  0  0  0  0  0  0  0  0  0  0
  -32.1310  -14.7060   19.8240 O   0  0  0  0  0  0  0  0  0  0  0  0
  -25.5130  -13.9760   20.3820 C   0  0  0  0  0  0  0  0  0  0  0  0
  -24.4410  -13.2060   20.7510 C   0  0  0  0  0  0  0  0  0  0  0  0
  -24.9010  -11.8530   20.7370 C   0  0  0  0  0  0  0  0  0  0  0  0
  -26.5600  -13.0910   20.1670 N   0  0  0  0  0  0  0  0  0  0  0  0
  -26.1960  -11.8110   20.4400 N   0  0  0  0  0  0  0  0  0  0  0  0
  -24.1710  -10.5930   20.9380 C   0  0  0  0  0  0  0  0  0  0  0  0
  -24.5780   -9.6470   21.9070 C   0  0  0  0  0  3  0  0  0  0  0  0
  -23.8470   -8.4520   22.0910 C   0  0  0  0  0  3  0  0  0  0  0  0
  -22.6970   -8.1950   21.3090 C   0  0  0  0  0  0  0  0  0  0  0  0
  -22.3090   -9.1280   20.3320 C   0  0  0  0  0  3  0  0  0  0  0  0
  -23.0390  -10.3140   20.1450 C   0  0  0  0  0  3  0  0  0  0  0  0
  -21.9400   -7.0510   21.4000 O   0  0  0  0  0  0  0  0  0  0  0  0
  -21.8330   -6.3490   22.5740 C   0  0  0  0  0  0  0  0  0  0  0  0
  -21.3320   -6.9440   23.7530 C   0  0  0  0  0  3  0  0  0  0  0  0
  -21.1760   -6.1730   24.9220 C   0  0  0  0  0  3  0  0  0  0  0  0
  -21.5030   -4.8020   24.9090 C   0  0  0  0  0  0  0  0  0  0  0  0
  -21.9940   -4.2050   23.7340 C   0  0  0  0  0  3  0  0  0  0  0  0
  -22.1560   -4.9760   22.5690 C   0  0  0  0  0  0  0  0  0  0  0  0
  -22.6100   -4.3930   21.4340 F   0  0  0  0  0  0  0  0  0  0  0  0
  -21.3490   -4.0580   26.0280 F   0  0  0  0  0  0  0  0  0  0  0  0
  -23.0400  -13.6830   21.0010 C   0  0  0  0  0  0  0  0  0  0  0  0
  -22.3040  -13.0070   21.8770 N   0  0  0  0  0  0  0  0  0  0  0  0
  -22.6030  -14.6950   20.4550 O   0  0  0  0  0  0  0  0  0  0  0  0
  -22.6630  -12.1950   22.3570 H   0  0  0  0  0  0  0  0  0  0  0  0
  -21.3590  -13.3120   22.0690 H   0  0  0  0  0  0  0  0  0  0  0  0
  -25.6830  -15.3460   20.1950 N   0  0  0  0  0  0  0  0  0  0  0  0
  -24.9250  -16.0130   20.3020 H   0  0  0  0  0  0  0  0  0  0  0  0
  -26.5570  -15.7810   19.9300 H   0  0  0  0  0  0  0  0  0  0  0  0
  -27.8470  -23.8850   19.4350 C   0  0  0  0  0  2  0  0  0  0  0  0
  -29.8040  -24.1940   17.8360 C   0  0  0  0  0  1  0  0  0  0  0  0
  -27.5210  -24.7990   17.1000 C   0  0  0  0  0  1  0  0  0  0  0  0
  -28.4690  -24.7990   18.3250 C   0  0  1  0  0  0  0  0  0  0  0  0
  -28.6970  -26.2930   18.7490 C   0  0  0  0  0  2  0  0  0  0  0  0
  -28.1630  -26.7270   20.0000 O   0  0  0  0  0  0  0  0  0  0  0  0
  -24.5110  -31.8980   23.2060 C   0  0  0  0  0  0  0  0  0  0  0  0
  -27.0090  -27.4810   19.9870 C   0  0  0  0  0  0  0  0  0  0  0  0
  -23.2370  -30.5290   21.5880 C   0  0  0  0  0  3  0  0  0  0  0  0
  -24.6280  -29.0020   20.0900 C   0  0  0  0  0  0  0  0  0  0  0  0
  -25.7540  -30.8720   21.3050 C   0  0  0  0  0  2  0  0  0  0  0  0
  -25.8070  -29.5060   20.6530 C   0  0  0  0  0  0  0  0  0  0  0  0
  -26.9960  -28.7470   20.6100 C   0  0  0  0  0  3  0  0  0  0  0  0
  -25.8110  -26.9830   19.4320 C   0  0  0  0  0  3  0  0  0  0  0  0
  -24.6220  -27.7370   19.4750 C   0  0  0  0  0  3  0  0  0  0  0  0
  -23.3940  -29.8670   20.1910 C   0  0  0  0  0  2  0  0  0  0  0  0
  -24.5240  -31.1090   22.0940 N   0  0  0  0  0  0  0  0  0  0  0  0
  -23.4530  -32.1750   23.7820 O   0  0  0  0  0  0  0  0  0  0  0  0
  -22.6080  -29.5020   22.5560 C   0  0  0  0  0  0  0  0  0  0  0  0
  -21.2830  -29.3080   22.4450 N   0  0  0  0  0  0  0  0  0  0  0  0
  -23.3070  -28.8850   23.3620 O   0  0  0  0  0  0  0  0  0  0  0  0
  -20.7760  -29.8590   21.7670 H   0  0  0  0  0  0  0  0  0  0  0  0
  -17.9300  -28.0680   22.9650 C   0  0  0  0  0  0  0  0  0  0  0  0
  -20.4850  -28.3640   23.2270 C   0  0  0  0  0  3  0  0  0  0  0  0
  -20.6090  -26.9290   22.6640 C   0  0  0  0  0  2  0  0  0  0  0  0
  -19.5090  -26.5840   21.6550 C   0  0  0  0  0  2  0  0  0  0  0  0
  -18.1260  -26.7140   22.3010 C   0  0  0  0  0  2  0  0  0  0  0  0
  -19.0390  -28.8490   23.3860 C   0  0  0  0  0  0  0  0  0  0  0  0
  -18.8040  -30.1140   23.9640 C   0  0  0  0  0  3  0  0  0  0  0  0
  -17.4930  -30.6000   24.1270 C   0  0  0  0  0  3  0  0  0  0  0  0
  -16.3990  -29.8150   23.7210 C   0  0  0  0  0  3  0  0  0  0  0  0
  -16.6170  -28.5530   23.1450 C   0  0  0  0  0  3  0  0  0  0  0  0
  -25.8240  -32.5090   23.7880 C   0  0  0  0  0  3  0  0  0  0  0  0
  -25.5420  -33.9070   24.1430 N   0  0  0  0  0  0  0  0  0  0  0  0
  -25.8810  -34.9640   23.3930 C   0  0  0  0  0  0  0  0  0  0  0  0
  -26.5340  -34.8620   22.3490 O   0  0  0  0  0  0  0  0  0  0  0  0
  -24.9570  -34.0580   24.9510 H   0  0  0  0  0  0  0  0  0  0  0  0
  -24.1850  -36.7940   23.0740 C   0  0  0  0  0  1  0  0  0  0  0  0
  -25.4220  -36.3530   23.8750 C   0  0  0  0  0  3  0  0  0  0  0  0
  -27.5740  -37.1780   24.7170 C   0  0  0  0  0  1  0  0  0  0  0  0
  -26.4740  -37.3880   23.7810 N   0  0  0  0  0  0  0  0  0  0  0  0
  -26.0870  -38.3120   23.9530 H   0  0  0  0  0  0  0  0  0  0  0  0
  -26.3800  -31.7120   25.0300 C   0  0  1  0  0  0  0  0  0  0  0  0
  -25.3250  -31.4670   26.1330 C   0  0  0  0  0  1  0  0  0  0  0  0
  -26.9330  -30.3350   24.5960 C   0  0  0  0  0  1  0  0  0  0  0  0
  -27.5620  -32.4830   25.6640 C   0  0  0  0  0  1  0  0  0  0  0  0
  1  2  2  0
  1  7  1  0
  3  7  2  0
  3  6  1  0
  4  8  1  0
  5  8  2  0
  6  4  2  0
  7  5  1  0
  8  9  1  0
 10 11  2  0
 10  6  1  0
 12 11  1  0
 13 18  1  0
 14 15  1  0
 14 13  1  0
 16 15  1  0
 16 23  1  0
 16 17  1  0
 18 12  1  0
 18 17  1  0
 19 12  2  0
 20 21  2  0
 21 40  1  0
 22 21  1  0
 22 25  1  0
 23 20  1  0
 23 24  1  0
 24 22  2  0
 25 26  1  0
 26 27  2  0
 28 31  1  0
 28 27  1  0
 29 28  2  0
 30 29  1  0
 30 25  2  0
 31 32  1  0
 32 33  1  0
 33 34  2  0
 35 34  1  0
 35 39  1  0
 36 35  2  0
 37 32  2  0
 37 36  1  0
 38 37  1  0
 40 41  1  0
 41 44  1  0
 41 43  1  0
 42 40  2  0
 45 46  1  0
 45 20  1  0
 47 45  1  0
 48  2  1  0
 51 49  1  6
 50 51  1  0
 51 52  1  0
 51 48  1  0
 52 53  1  0
 54 65  2  0
 55 53  1  0
 55 60  1  0
 56 64  1  0
 56 66  1  0
 57 63  1  0
 57 59  1  0
 58 64  1  0
 59 58  1  0
 60 59  2  0
 61 62  1  0
 61 55  2  0
 62 57  2  0
 63 56  1  0
 64 54  1  0
 66 68  2  0
 67 66  1  0
 69 67  1  0
 70 79  2  0
 70 75  1  0
 71 67  1  0
 71 75  1  0
 72 71  1  0
 73 74  1  0
 73 72  1  0
 74 70  1  0
 75 76  2  0
 76 77  1  0
 78 77  2  0
 79 78  1  0
 80 54  1  0
 80 81  1  0
 80 90  1  0
 81 84  1  0
 82 86  1  0
 82 81  1  0
 83 82  2  0
 86 85  1  0
 88 86  1  0
 88 89  1  0
 88 87  1  0
 90 93  1  1
 90 91  1  0
 92 90  1  0
M  ISO  4  11 100  12 100  52 101  53 101
M  END
>  <TORSDO>  (33) 
F 21

>  <SCORE>  (33) 
-13.608

>  <name>  (33) 
32

>  <ligand_id>  (33) 
32

>  <original_smiles>  (33) 
[H]C(C(=O)N1C([H])([H])C([H])([H])C([H])([H])C([H])(n2nc(-c3c([H])c([H])c(Oc4c([H])c([H])c(F)c([H])c4F)c([H])c3[H])c(C(=O)N([H])[H])c2N([H])[H])C1([H])[H])=C([H])c1c([H])c(C([H])=C([H])C([H])([H])C(C([H])([H])[H])(C([H])([H])[H])C([H])([H])Oc2c([H])c([H])c3c(c2[H])C([H])([H])N(C(=O)C([H])(N([H])C(=O)C([H])(N([H])C([H])([H])[H])C([H])([H])[H])C(C([H])([H])[H])(C([H])([H])[H])C([H])([H])[H])C([H])(C(=O)N([H])C2([H])c4c([H])c([H])c([H])c([H])c4C([H])([H])C([H])([H])C2([H])[H])C3([H])[H])c([H])c(C([H])([H])[H])c1[H]

>  <smiles>  (33) 
[H]C(C(=O)N1C([H])([H])C([H])([H])C([H])([H])C([H])(n2nc(-c3c([H])c([H])c(Oc4c([H])c([H])c(F)c([H])c4F)c([H])c3[H])c(C(=O)N([H])[H])c2N([H])[H])C1([H])[H])=C([H])c1c([H])c(C([H])=C([H])C([H])([H])C(C([H])([H])[H])(C([H])([H])[H])C([H])([H])Oc2c([H])c([H])c3c(c2[H])C([H])([H])N(C(=O)C([H])(N([H])C(=O)C([H])(N([H])C([H])([H])[H])C([H])([H])[H])C(C([H])([H])[H])(C([H])([H])[H])C([H])([H])[H])C([H])(C(=O)N([H])C2([H])c4c([H])c([H])c([H])c([H])c4C([H])([H])C([H])([H])C2([H])[H])C3([H])[H])c([H])c(C([H])([H])[H])c1[H]

$$$$
33:0:0
     RDKit          3D

 94102  0  0  1  0  0  0  0  0999 V2000
  -33.0520  -16.4800    9.2630 C   0  0  0  0  0  3  0  0  0  0  0  0
  -31.7950  -14.4650    8.7960 C   0  0  0  0  0  3  0  0  0  0  0  0
  -34.2130  -15.7410    9.7740 C   0  0  0  0  0  0  0  0  0  0  0  0
  -32.8530  -13.7010    9.3070 C   0  0  0  0  0  0  0  0  0  0  0  0
  -33.9930  -14.3200    9.8970 C   0  0  0  0  0  0  0  0  0  0  0  0
  -31.7880  -15.8720    8.8330 C   0  0  0  0  0  0  0  0  0  0  0  0
  -32.6580  -12.1860    9.2770 C   0  0  0  0  0  1  0  0  0  0  0  0
  -35.4860  -16.3760   10.4730 C   0  0  0  0  0  0  0  0  0  0  0  0
  -35.2460  -17.1450   11.4520 N   0  0  0  0  0  0  0  0  0  0  0  0
  -34.2500  -17.1960   11.6220 H   0  0  0  0  0  0  0  0  0  0  0  0
  -37.0380  -16.2170   10.0750 C   0  0  0  0  0  0  0  0  0  0  0  0
  -39.5070  -16.3250   10.5600 C   0  0  0  0  0  2  0  0  0  0  0  0
  -39.9980  -14.9950   11.1750 C   0  0  0  0  0  2  0  0  0  0  0  0
  -39.7890  -14.9750   12.7020 C   0  0  0  0  0  2  0  0  0  0  0  0
  -38.3760  -15.4720   13.1050 C   0  0  0  0  0  3  0  0  0  0  0  0
  -38.0390  -16.7920   12.3790 C   0  0  0  0  0  2  0  0  0  0  0  0
  -38.0820  -16.5260   10.9380 N   0  0  0  0  0  0  0  0  0  0  0  0
  -37.3060  -15.9740    8.8900 O   0  0  0  0  0  0  0  0  0  0  0  0
  -37.2320  -15.0950   15.3710 C   0  0  0  0  0  0  0  0  0  0  0  0
  -37.5980  -15.4110   16.6500 C   0  0  0  0  0  0  0  0  0  0  0  0
  -38.8610  -16.0690   16.5460 C   0  0  0  0  0  0  0  0  0  0  0  0
  -38.2360  -15.5860   14.5540 N   0  0  0  0  0  0  0  0  0  0  0  0
  -39.2010  -16.2180   15.2710 N   0  0  0  0  0  0  0  0  0  0  0  0
  -39.7940  -16.5110   17.5910 C   0  0  0  0  0  0  0  0  0  0  0  0
  -39.6510  -17.7620   18.2290 C   0  0  0  0  0  3  0  0  0  0  0  0
  -40.5500  -18.1540   19.2440 C   0  0  0  0  0  3  0  0  0  0  0  0
  -41.6020  -17.2920   19.6340 C   0  0  0  0  0  0  0  0  0  0  0  0
  -41.7530  -16.0560   18.9790 C   0  0  0  0  0  3  0  0  0  0  0  0
  -40.8600  -15.6690   17.9650 C   0  0  0  0  0  3  0  0  0  0  0  0
  -42.5380  -17.6000   20.5920 O   0  0  0  0  0  0  0  0  0  0  0  0
  -42.2260  -17.5980   21.9270 C   0  0  0  0  0  0  0  0  0  0  0  0
  -42.1280  -16.3990   22.6670 C   0  0  0  0  0  3  0  0  0  0  0  0
  -41.8750  -16.4460   24.0530 C   0  0  0  0  0  3  0  0  0  0  0  0
  -41.7300  -17.6880   24.7020 C   0  0  0  0  0  0  0  0  0  0  0  0
  -41.8310  -18.8820   23.9660 C   0  0  0  0  0  3  0  0  0  0  0  0
  -42.0810  -18.8360   22.5840 C   0  0  0  0  0  0  0  0  0  0  0  0
  -42.2010  -19.9910   21.8840 F   0  0  0  0  0  0  0  0  0  0  0  0
  -41.4950  -17.7330   26.0330 F   0  0  0  0  0  0  0  0  0  0  0  0
  -36.8660  -15.0320   17.9060 C   0  0  0  0  0  0  0  0  0  0  0  0
  -36.5070  -16.0130   18.7250 N   0  0  0  0  0  0  0  0  0  0  0  0
  -36.5640  -13.8630   18.1420 O   0  0  0  0  0  0  0  0  0  0  0  0
  -36.7380  -16.9740   18.5240 H   0  0  0  0  0  0  0  0  0  0  0  0
  -35.9910  -15.8000   19.5680 H   0  0  0  0  0  0  0  0  0  0  0  0
  -36.1470  -14.4080   14.8410 N   0  0  0  0  0  0  0  0  0  0  0  0
  -35.4480  -13.9790   15.4340 H   0  0  0  0  0  0  0  0  0  0  0  0
  -36.0010  -14.2190   13.8580 H   0  0  0  0  0  0  0  0  0  0  0  0
  -34.3490  -13.3100   12.2280 C   0  0  0  0  0  1  0  0  0  0  0  0
  -34.8660  -13.4180   10.7850 C   0  0  0  0  0  2  0  0  0  0  0  0
  -30.5760  -16.5580    8.4780 O   0  0  0  0  0  0  0  0  0  0  0  0
  -29.4790  -16.7340    9.5020 C   0  0  0  0  0  2  0  0  0  0  0  0
  -29.0770  -18.1880   10.0640 C   0  0  0  0  0  0  0  0  0  0  0  0
  -27.8920  -18.5320   10.1410 O   0  0  0  0  0  0  0  0  0  0  0  0
  -30.2520  -19.1810   10.5350 C   0  0  0  0  0  2  0  0  0  0  0  0
  -31.2690  -18.7850   11.5880 O   0  0  0  0  0  0  0  0  0  0  0  0
  -34.2250  -21.9040   17.4760 C   0  0  0  0  0  0  0  0  0  0  0  0
  -32.0240  -19.8400   12.1630 C   0  0  0  0  0  0  0  0  0  0  0  0
  -33.8110  -23.3480   15.5200 C   0  0  0  0  0  3  0  0  0  0  0  0
  -33.3130  -22.1420   13.3190 C   0  0  0  0  0  0  0  0  0  0  0  0
  -34.3110  -20.8490   15.1980 C   0  0  0  0  0  2  0  0  0  0  0  0
  -33.4730  -20.8850   13.9200 C   0  0  0  0  0  0  0  0  0  0  0  0
  -32.8460  -19.7330   13.3390 C   0  0  0  0  0  3  0  0  0  0  0  0
  -31.9650  -21.1210   11.5660 C   0  0  0  0  0  3  0  0  0  0  0  0
  -32.5730  -22.2530   12.1340 C   0  0  0  0  0  3  0  0  0  0  0  0
  -33.9670  -23.3420   13.9790 C   0  0  0  0  0  2  0  0  0  0  0  0
  -34.1030  -22.0060   16.1190 N   0  0  0  0  0  0  0  0  0  0  0  0
  -34.1200  -22.8990   18.2090 O   0  0  0  0  0  0  0  0  0  0  0  0
  -32.4060  -23.8890   15.8850 C   0  0  0  0  0  0  0  0  0  0  0  0
  -32.3480  -25.1230   16.4150 N   0  0  0  0  0  0  0  0  0  0  0  0
  -31.3980  -23.2110   15.6700 O   0  0  0  0  0  0  0  0  0  0  0  0
  -33.2180  -25.6140   16.5710 H   0  0  0  0  0  0  0  0  0  0  0  0
  -30.9710  -27.5250   18.7460 C   0  0  0  0  0  0  0  0  0  0  0  0
  -31.1270  -25.8400   16.7910 C   0  0  0  0  0  3  0  0  0  0  0  0
  -30.8840  -27.0530   15.8620 C   0  0  0  0  0  2  0  0  0  0  0  0
  -31.4700  -28.3590   16.4100 C   0  0  0  0  0  2  0  0  0  0  0  0
  -30.8650  -28.6900   17.7760 C   0  0  0  0  0  2  0  0  0  0  0  0
  -31.1090  -26.1890   18.2840 C   0  0  0  0  0  0  0  0  0  0  0  0
  -31.2370  -25.1470   19.2280 C   0  0  0  0  0  3  0  0  0  0  0  0
  -31.2250  -25.4220   20.6080 C   0  0  0  0  0  3  0  0  0  0  0  0
  -31.0730  -26.7440   21.0610 C   0  0  0  0  0  3  0  0  0  0  0  0
  -30.9420  -27.7910   20.1310 C   0  0  0  0  0  3  0  0  0  0  0  0
  -34.5210  -20.5390   18.1670 C   0  0  0  0  0  3  0  0  0  0  0  0
  -35.1220  -20.8250   19.4770 N   0  0  0  0  0  0  0  0  0  0  0  0
  -36.4180  -21.0940   19.6810 C   0  0  0  0  0  0  0  0  0  0  0  0
  -37.2570  -21.0610   18.7760 O   0  0  0  0  0  0  0  0  0  0  0  0
  -34.4850  -20.9210   20.2550 H   0  0  0  0  0  0  0  0  0  0  0  0
  -37.3080  -22.9230   21.1600 C   0  0  0  0  0  1  0  0  0  0  0  0
  -36.8540  -21.4550   21.1140 C   0  0  0  0  0  3  0  0  0  0  0  0
  -37.4410  -19.5330   22.5240 C   0  0  0  0  0  1  0  0  0  0  0  0
  -37.9300  -20.5880   21.6400 N   0  0  0  0  0  0  0  0  0  0  0  0
  -38.6190  -21.1350   22.1490 H   0  0  0  0  0  0  0  0  0  0  0  0
  -33.2360  -19.6370   18.3320 C   0  0  1  0  0  0  0  0  0  0  0  0
  -31.9080  -20.4000   18.1130 C   0  0  0  0  0  1  0  0  0  0  0  0
  -33.2680  -18.4530   17.3380 C   0  0  0  0  0  1  0  0  0  0  0  0
  -33.2100  -19.0190   19.7500 C   0  0  0  0  0  1  0  0  0  0  0  0
  1  3  1  0
  2  6  1  0
  2  4  2  0
  3  5  2  0
  3  8  1  0
  4  5  1  0
  5 48  1  0
  6  1  2  0
  7  4  1  0
  8  9  2  0
  9 10  1  0
 11  8  1  0
 11 17  1  0
 12 17  1  0
 12 13  1  0
 13 14  1  0
 14 15  1  0
 15 16  1  0
 15 22  1  0
 17 16  1  0
 18 11  2  0
 19 20  2  0
 20 39  1  0
 21 20  1  0
 21 24  1  0
 22 23  1  0
 22 19  1  0
 23 21  2  0
 24 29  2  0
 24 25  1  0
 25 26  2  0
 26 27  1  0
 27 30  1  0
 28 27  2  0
 29 28  1  0
 30 31  1  0
 31 36  2  0
 31 32  1  0
 32 33  2  0
 33 34  1  0
 34 38  1  0
 35 34  2  0
 36 35  1  0
 37 36  1  0
 39 41  2  0
 39 40  1  0
 40 43  1  0
 42 40  1  0
 44 19  1  0
 44 45  1  0
 46 44  1  0
 48 47  1  0
 49  6  1  0
 49 50  1  0
 50 51  1  0
 51 52  2  0
 51 53  1  0
 53 54  1  0
 54 56  1  0
 55 66  2  0
 56 61  1  0
 57 67  1  0
 57 65  1  0
 58 60  1  0
 58 64  1  0
 59 65  1  0
 60 59  1  0
 61 60  2  0
 62 63  1  0
 62 56  2  0
 63 58  2  0
 64 57  1  0
 65 55  1  0
 67 68  1  0
 68 70  1  0
 69 67  2  0
 71 80  1  0
 72 68  1  0
 72 76  1  0
 73 74  1  0
 73 72  1  0
 74 75  1  0
 75 71  1  0
 76 71  2  0
 76 77  1  0
 77 78  2  0
 78 79  1  0
 80 79  2  0
 81 55  1  0
 81 91  1  0
 81 82  1  0
 82 83  1  0
 82 85  1  0
 83 87  1  0
 84 83  2  0
 87 86  1  0
 87 89  1  0
 89 90  1  0
 89 88  1  0
 91 94  1  1
 92 91  1  0
 93 91  1  0
M  ISO  4   8 100  11 100  53 101  54 101
M  END
>  <TORSDO>  (34) 
F 22

>  <SCORE>  (34) 
-2.138

>  <name>  (34) 
33

>  <ligand_id>  (34) 
33

>  <original_smiles>  (34) 
[H]N=C(C(=O)N1C([H])([H])C([H])([H])C([H])([H])C([H])(n2nc(-c3c([H])c([H])c(Oc4c([H])c([H])c(F)c([H])c4F)c([H])c3[H])c(C(=O)N([H])[H])c2N([H])[H])C1([H])[H])c1c([H])c(OC([H])([H])C(=O)C([H])([H])Oc2c([H])c([H])c3c(c2[H])C([H])([H])N(C(=O)C([H])(N([H])C(=O)C([H])(N([H])C([H])([H])[H])C([H])([H])[H])C(C([H])([H])[H])(C([H])([H])[H])C([H])([H])[H])C([H])(C(=O)N([H])C2([H])c4c([H])c([H])c([H])c([H])c4C([H])([H])C([H])([H])C2([H])[H])C3([H])[H])c([H])c(C([H])([H])[H])c1C([H])([H])C([H])([H])[H]

>  <smiles>  (34) 
[H]N=C(C(=O)N1C([H])([H])C([H])([H])C([H])([H])C([H])(n2nc(-c3c([H])c([H])c(Oc4c([H])c([H])c(F)c([H])c4F)c([H])c3[H])c(C(=O)N([H])[H])c2N([H])[H])C1([H])[H])c1c([H])c(OC([H])([H])C(=O)C([H])([H])Oc2c([H])c([H])c3c(c2[H])C([H])([H])N(C(=O)C([H])(N([H])C(=O)C([H])(N([H])C([H])([H])[H])C([H])([H])[H])C(C([H])([H])[H])(C([H])([H])[H])C([H])([H])[H])C([H])(C(=O)N([H])C2([H])c4c([H])c([H])c([H])c([H])c4C([H])([H])C([H])([H])C2([H])[H])C3([H])[H])c([H])c(C([H])([H])[H])c1C([H])([H])C([H])([H])[H]

$$$$
34:0:0
     RDKit          3D

 91 99  0  0  1  0  0  0  0  0999 V2000
  -29.4820  -18.4790   20.6020 C   0  0  0  0  0  3  0  0  0  0  0  0
  -31.3210  -19.0490   18.6390 C   0  0  0  0  0  3  0  0  0  0  0  0
  -29.6940  -19.8850   20.2670 C   0  0  0  0  0  0  0  0  0  0  0  0
  -30.6820  -20.1280   19.2860 C   0  0  0  0  0  0  0  0  0  0  0  0
  -31.0490  -17.6950   18.9270 C   0  0  0  0  0  0  0  0  0  0  0  0
  -30.1600  -17.3440   19.9930 C   0  0  0  0  0  0  0  0  0  0  0  0
  -31.0980  -21.5250   18.8750 C   0  0  0  0  0  1  0  0  0  0  0  0
  -31.7110  -16.6960   17.9880 C   0  0  0  0  0  1  0  0  0  0  0  0
  -30.6170  -14.7620   20.3440 C   0  0  0  0  0  0  0  0  0  0  0  0
  -30.3830  -12.4830   19.3780 C   0  0  0  0  0  2  0  0  0  0  0  0
  -29.4500  -12.5530   18.1500 C   0  0  0  0  0  2  0  0  0  0  0  0
  -27.9800  -12.3840   18.5780 C   0  0  0  0  0  2  0  0  0  0  0  0
  -27.6010  -13.2840   19.7840 C   0  0  0  0  0  3  0  0  0  0  0  0
  -28.6620  -13.2200   20.9040 C   0  0  0  0  0  2  0  0  0  0  0  0
  -29.9600  -13.5540   20.3050 N   0  0  0  0  0  0  0  0  0  0  0  0
  -31.8320  -14.7860   20.1470 O   0  0  0  0  0  0  0  0  0  0  0  0
  -29.8660  -15.9310   20.3940 N   0  0  0  0  0  0  0  0  0  0  0  0
  -28.9220  -15.7790   20.7070 H   0  0  0  0  0  0  0  0  0  0  0  0
  -25.2080  -13.8710   20.5070 C   0  0  0  0  0  0  0  0  0  0  0  0
  -24.1430  -13.0940   20.8760 C   0  0  0  0  0  0  0  0  0  0  0  0
  -24.6110  -11.7460   20.8550 C   0  0  0  0  0  0  0  0  0  0  0  0
  -26.2560  -12.9950   20.2780 N   0  0  0  0  0  0  0  0  0  0  0  0
  -25.9040  -11.7120   20.5530 N   0  0  0  0  0  0  0  0  0  0  0  0
  -23.8870  -10.4820   21.0450 C   0  0  0  0  0  0  0  0  0  0  0  0
  -24.3260   -9.5120   21.9720 C   0  0  0  0  0  3  0  0  0  0  0  0
  -23.6050   -8.3120   22.1510 C   0  0  0  0  0  3  0  0  0  0  0  0
  -22.4270   -8.0740   21.4030 C   0  0  0  0  0  0  0  0  0  0  0  0
  -22.0080   -9.0310   20.4610 C   0  0  0  0  0  3  0  0  0  0  0  0
  -22.7310  -10.2230   20.2810 C   0  0  0  0  0  3  0  0  0  0  0  0
  -21.6750   -6.9290   21.4960 O   0  0  0  0  0  0  0  0  0  0  0  0
  -21.6410   -6.1780   22.6430 C   0  0  0  0  0  0  0  0  0  0  0  0
  -21.2340   -6.7230   23.8800 C   0  0  0  0  0  3  0  0  0  0  0  0
  -21.1490   -5.8980   25.0190 C   0  0  0  0  0  3  0  0  0  0  0  0
  -21.4600   -4.5280   24.9250 C   0  0  0  0  0  0  0  0  0  0  0  0
  -21.8580   -3.9820   23.6910 C   0  0  0  0  0  3  0  0  0  0  0  0
  -21.9460   -4.8040   22.5540 C   0  0  0  0  0  0  0  0  0  0  0  0
  -22.3110   -4.2670   21.3650 F   0  0  0  0  0  0  0  0  0  0  0  0
  -21.3700   -3.7340   26.0170 F   0  0  0  0  0  0  0  0  0  0  0  0
  -22.7430  -13.5680   21.1380 C   0  0  0  0  0  0  0  0  0  0  0  0
  -22.0110  -12.8720   22.0020 N   0  0  0  0  0  0  0  0  0  0  0  0
  -22.3060  -14.5890   20.6100 O   0  0  0  0  0  0  0  0  0  0  0  0
  -22.3780  -12.0500   22.4580 H   0  0  0  0  0  0  0  0  0  0  0  0
  -21.0690  -13.1690   22.2120 H   0  0  0  0  0  0  0  0  0  0  0  0
  -25.3650  -15.2410   20.3230 N   0  0  0  0  0  0  0  0  0  0  0  0
  -24.5930  -15.8910   20.4250 H   0  0  0  0  0  0  0  0  0  0  0  0
  -26.2010  -15.6800   19.9600 H   0  0  0  0  0  0  0  0  0  0  0  0
  -28.8880  -20.9970   20.9770 C   0  0  0  0  0  3  0  0  0  0  0  0
  -28.6650  -22.3740   21.0400 C   0  0  0  0  0  3  0  0  0  0  0  0
  -29.1200  -23.7490   20.3880 C   0  0  0  0  0  3  0  0  0  0  0  0
  -28.0320  -24.9450   20.4570 C   0  0  0  0  0  3  0  0  0  0  0  0
  -28.3270  -26.4060   20.2530 O   0  0  0  0  0  0  0  0  0  0  0  0
  -24.6140  -31.9030   23.2390 C   0  0  0  0  0  0  0  0  0  0  0  0
  -27.2280  -27.3000   20.2080 C   0  0  0  0  0  0  0  0  0  0  0  0
  -23.4140  -30.5010   21.6020 C   0  0  0  0  0  3  0  0  0  0  0  0
  -24.8700  -28.9460   20.1880 C   0  0  0  0  0  0  0  0  0  0  0  0
  -25.9620  -30.8110   21.4270 C   0  0  0  0  0  2  0  0  0  0  0  0
  -26.0430  -29.4260   20.7860 C   0  0  0  0  0  0  0  0  0  0  0  0
  -27.2260  -28.6170   20.7850 C   0  0  0  0  0  3  0  0  0  0  0  0
  -26.0310  -26.8970   19.5720 C   0  0  0  0  0  3  0  0  0  0  0  0
  -24.8700  -27.6870   19.5710 C   0  0  0  0  0  3  0  0  0  0  0  0
  -23.6340  -29.8230   20.2250 C   0  0  0  0  0  2  0  0  0  0  0  0
  -24.6830  -31.0890   22.1460 N   0  0  0  0  0  0  0  0  0  0  0  0
  -23.5260  -32.1820   23.7660 O   0  0  0  0  0  0  0  0  0  0  0  0
  -22.7500  -29.4860   22.5630 C   0  0  0  0  0  0  0  0  0  0  0  0
  -21.4220  -29.3140   22.4390 N   0  0  0  0  0  0  0  0  0  0  0  0
  -23.4260  -28.8580   23.3810 O   0  0  0  0  0  0  0  0  0  0  0  0
  -20.9360  -29.8780   21.7560 H   0  0  0  0  0  0  0  0  0  0  0  0
  -18.0350  -28.1420   22.9540 C   0  0  0  0  0  0  0  0  0  0  0  0
  -20.5980  -28.3810   23.2120 C   0  0  0  0  0  3  0  0  0  0  0  0
  -20.6830  -26.9510   22.6340 C   0  0  0  0  0  2  0  0  0  0  0  0
  -19.5730  -26.6360   21.6260 C   0  0  0  0  0  2  0  0  0  0  0  0
  -18.1960  -26.7910   22.2780 C   0  0  0  0  0  2  0  0  0  0  0  0
  -19.1610  -28.8940   23.3790 C   0  0  0  0  0  0  0  0  0  0  0  0
  -18.9550  -30.1590   23.9720 C   0  0  0  0  0  3  0  0  0  0  0  0
  -17.6540  -30.6670   24.1470 C   0  0  0  0  0  3  0  0  0  0  0  0
  -16.5420  -29.9120   23.7360 C   0  0  0  0  0  3  0  0  0  0  0  0
  -16.7330  -28.6510   23.1430 C   0  0  0  0  0  3  0  0  0  0  0  0
  -25.8910  -32.5390   23.8660 C   0  0  0  0  0  3  0  0  0  0  0  0
  -26.4010  -31.7730   25.1470 C   0  0  1  0  0  0  0  0  0  0  0  0
  -25.3040  -31.5400   26.2110 C   0  0  0  0  0  1  0  0  0  0  0  0
  -26.9860  -30.3920   24.7620 C   0  0  0  0  0  1  0  0  0  0  0  0
  -27.5490  -32.5710   25.8080 C   0  0  0  0  0  1  0  0  0  0  0  0
  -25.5770  -33.9390   24.1910 N   0  0  0  0  0  0  0  0  0  0  0  0
  -25.9110  -34.9900   23.4310 C   0  0  0  0  0  0  0  0  0  0  0  0
  -26.5870  -34.8880   22.4040 O   0  0  0  0  0  0  0  0  0  0  0  0
  -24.9760  -34.0930   24.9860 H   0  0  0  0  0  0  0  0  0  0  0  0
  -24.1850  -36.7860   23.0660 C   0  0  0  0  0  1  0  0  0  0  0  0
  -25.4200  -36.3800   23.8860 C   0  0  0  0  0  3  0  0  0  0  0  0
  -27.5500  -37.2640   24.7320 C   0  0  0  0  0  1  0  0  0  0  0  0
  -26.4540  -37.4320   23.7810 N   0  0  0  0  0  0  0  0  0  0  0  0
  -26.0470  -38.3530   23.9220 H   0  0  0  0  0  0  0  0  0  0  0  0
  2  5  2  0
  2  4  1  0
  3  1  1  0
  3 47  1  0
  4  3  2  0
  5  6  1  0
  6 17  1  0
  6  1  2  0
  7  4  1  0
  8  5  1  0
  9 17  1  0
 10 15  1  0
 11 12  1  0
 11 10  1  0
 13 12  1  0
 13 22  1  0
 13 14  1  0
 15  9  1  0
 15 14  1  0
 16  9  2  0
 17 18  1  0
 19 20  2  0
 20 39  1  0
 21 20  1  0
 21 24  1  0
 22 19  1  0
 22 23  1  0
 23 21  2  0
 24 25  1  0
 25 26  2  0
 27 30  1  0
 27 26  1  0
 28 27  2  0
 29 28  1  0
 29 24  2  0
 30 31  1  0
 31 32  1  0
 32 33  2  0
 34 33  1  0
 34 38  1  0
 35 34  2  0
 36 31  2  0
 36 35  1  0
 37 36  1  0
 39 40  1  0
 40 43  1  0
 40 42  1  0
 41 39  2  0
 44 45  1  0
 44 19  1  0
 46 44  1  0
 47 48  2  0
 49 50  2  0
 49 48  1  0
 51 50  1  0
 52 63  2  0
 53 51  1  0
 53 58  1  0
 54 62  1  0
 54 64  1  0
 55 61  1  0
 55 57  1  0
 56 62  1  0
 57 56  1  0
 58 57  2  0
 59 53  2  0
 60 59  1  0
 60 55  2  0
 61 54  1  0
 62 52  1  0
 64 66  2  0
 65 64  1  0
 67 65  1  0
 68 77  2  0
 68 73  1  0
 69 65  1  0
 69 73  1  0
 70 69  1  0
 71 72  1  0
 71 70  1  0
 72 68  1  0
 73 74  2  0
 74 75  1  0
 76 75  2  0
 77 76  1  0
 78 52  1  0
 78 83  1  0
 78 79  1  0
 79 82  1  1
 79 80  1  0
 81 79  1  0
 83 86  1  0
 84 88  1  0
 84 83  1  0
 85 84  2  0
 88 87  1  0
 90 88  1  0
 90 91  1  0
 90 89  1  0
M  ISO  4   9 100  17 100  50 101  51 101
M  END
>  <TORSDO>  (35) 
F 19

>  <SCORE>  (35) 
-14.386

>  <name>  (35) 
34

>  <ligand_id>  (35) 
34

>  <original_smiles>  (35) 
[H]C(=C([H])C([H])([H])C([H])([H])Oc1c([H])c([H])c2c(c1[H])C([H])([H])N(C(=O)C([H])(N([H])C(=O)C([H])(N([H])C([H])([H])[H])C([H])([H])[H])C(C([H])([H])[H])(C([H])([H])[H])C([H])([H])[H])C([H])(C(=O)N([H])C1([H])c3c([H])c([H])c([H])c([H])c3C([H])([H])C([H])([H])C1([H])[H])C2([H])[H])c1c([H])c(N([H])C(=O)N2C([H])([H])C([H])([H])C([H])([H])C([H])(n3nc(-c4c([H])c([H])c(Oc5c([H])c([H])c(F)c([H])c5F)c([H])c4[H])c(C(=O)N([H])[H])c3N([H])[H])C2([H])[H])c(C([H])([H])[H])c([H])c1C([H])([H])[H]

>  <smiles>  (35) 
[H]C(=C([H])C([H])([H])C([H])([H])Oc1c([H])c([H])c2c(c1[H])C([H])([H])N(C(=O)C([H])(N([H])C(=O)C([H])(N([H])C([H])([H])[H])C([H])([H])[H])C(C([H])([H])[H])(C([H])([H])[H])C([H])([H])[H])C([H])(C(=O)N([H])C1([H])c3c([H])c([H])c([H])c([H])c3C([H])([H])C([H])([H])C1([H])[H])C2([H])[H])c1c([H])c(N([H])C(=O)N2C([H])([H])C([H])([H])C([H])([H])C([H])(n3nc(-c4c([H])c([H])c(Oc5c([H])c([H])c(F)c([H])c5F)c([H])c4[H])c(C(=O)N([H])[H])c3N([H])[H])C2([H])[H])c(C([H])([H])[H])c([H])c1C([H])([H])[H]

$$$$
35:0:0
     RDKit          3D

 90 98  0  0  1  0  0  0  0  0999 V2000
  -28.0390  -21.2740   20.1900 C   0  0  0  0  0  3  0  0  0  0  0  0
  -27.7900  -22.6300   20.1440 C   0  0  0  0  0  3  0  0  0  0  0  0
  -31.5920  -19.7520   20.1000 C   0  0  0  0  0  3  0  0  0  0  0  0
  -30.5340  -20.6800   19.9710 C   0  0  0  0  0  3  0  0  0  0  0  0
  -31.3530  -18.4240   20.5170 C   0  0  0  0  0  3  0  0  0  0  0  0
  -28.9850  -18.9390   20.6400 C   0  0  0  0  0  3  0  0  0  0  0  0
  -29.2030  -20.3060   20.2420 C   0  0  0  0  0  0  0  0  0  0  0  0
  -30.0470  -17.9890   20.8010 C   0  0  0  0  0  0  0  0  0  0  0  0
  -29.8460  -16.6880   21.5240 C   0  0  0  0  0  3  0  0  0  0  0  0
  -30.1390  -15.3570   21.3690 C   0  0  0  0  0  3  0  0  0  0  0  0
  -30.7410  -14.5660   20.2740 C   0  0  0  0  0  0  0  0  0  0  0  0
  -30.4560  -12.4980   18.9040 C   0  0  0  0  0  2  0  0  0  0  0  0
  -29.4280  -12.7440   17.7770 C   0  0  0  0  0  2  0  0  0  0  0  0
  -27.9730  -12.5860   18.2670 C   0  0  0  0  0  2  0  0  0  0  0  0
  -27.7150  -13.3110   19.6140 C   0  0  0  0  0  3  0  0  0  0  0  0
  -28.8220  -12.9300   20.6190 C   0  0  0  0  0  2  0  0  0  0  0  0
  -30.1130  -13.3660   20.0450 N   0  0  0  0  0  0  0  0  0  0  0  0
  -31.7530  -14.8890   19.6430 O   0  0  0  0  0  0  0  0  0  0  0  0
  -25.3500  -13.9110   20.4340 C   0  0  0  0  0  0  0  0  0  0  0  0
  -24.3000  -13.1390   20.8470 C   0  0  0  0  0  0  0  0  0  0  0  0
  -24.7520  -11.7860   20.7640 C   0  0  0  0  0  0  0  0  0  0  0  0
  -26.3810  -13.0320   20.1390 N   0  0  0  0  0  0  0  0  0  0  0  0
  -26.0230  -11.7460   20.3910 N   0  0  0  0  0  0  0  0  0  0  0  0
  -24.0280  -10.5230   20.9680 C   0  0  0  0  0  0  0  0  0  0  0  0
  -24.4790   -9.5480   21.8840 C   0  0  0  0  0  3  0  0  0  0  0  0
  -23.7530   -8.3530   22.0750 C   0  0  0  0  0  3  0  0  0  0  0  0
  -22.5590   -8.1250   21.3510 C   0  0  0  0  0  0  0  0  0  0  0  0
  -22.1270   -9.0870   20.4210 C   0  0  0  0  0  3  0  0  0  0  0  0
  -22.8560  -10.2720   20.2280 C   0  0  0  0  0  3  0  0  0  0  0  0
  -21.8030   -6.9810   21.4520 O   0  0  0  0  0  0  0  0  0  0  0  0
  -21.7550   -6.2490   22.6110 C   0  0  0  0  0  0  0  0  0  0  0  0
  -21.3450   -6.8210   23.8370 C   0  0  0  0  0  3  0  0  0  0  0  0
  -21.2470   -6.0160   24.9910 C   0  0  0  0  0  3  0  0  0  0  0  0
  -21.5450   -4.6430   24.9180 C   0  0  0  0  0  0  0  0  0  0  0  0
  -21.9470   -4.0710   23.6980 C   0  0  0  0  0  3  0  0  0  0  0  0
  -22.0490   -4.8720   22.5480 C   0  0  0  0  0  0  0  0  0  0  0  0
  -22.4180   -4.3140   21.3700 F   0  0  0  0  0  0  0  0  0  0  0  0
  -21.4410   -3.8670   26.0240 F   0  0  0  0  0  0  0  0  0  0  0  0
  -22.9190  -13.6150   21.1980 C   0  0  0  0  0  0  0  0  0  0  0  0
  -22.2290  -12.9130   22.0890 N   0  0  0  0  0  0  0  0  0  0  0  0
  -22.4620  -14.6520   20.7160 O   0  0  0  0  0  0  0  0  0  0  0  0
  -22.6110  -12.0750   22.5070 H   0  0  0  0  0  0  0  0  0  0  0  0
  -21.3050  -13.2180   22.3610 H   0  0  0  0  0  0  0  0  0  0  0  0
  -25.5100  -15.2850   20.2710 N   0  0  0  0  0  0  0  0  0  0  0  0
  -24.7450  -15.9350   20.4200 H   0  0  0  0  0  0  0  0  0  0  0  0
  -26.3470  -15.7310   19.9180 H   0  0  0  0  0  0  0  0  0  0  0  0
  -28.6240  -23.8900   20.1140 C   0  0  0  0  0  0  0  0  0  0  0  0
  -29.7220  -23.9590   19.5540 O   0  0  0  0  0  0  0  0  0  0  0  0
  -28.0150  -25.1720   20.8000 C   0  0  0  0  0  2  0  0  0  0  0  0
  -28.3290  -26.4940   20.2170 O   0  0  0  0  0  0  0  0  0  0  0  0
  -24.5940  -31.8710   23.2080 C   0  0  0  0  0  0  0  0  0  0  0  0
  -27.2330  -27.3550   20.1630 C   0  0  0  0  0  0  0  0  0  0  0  0
  -23.4010  -30.4760   21.5500 C   0  0  0  0  0  3  0  0  0  0  0  0
  -24.8660  -28.9360   20.1340 C   0  0  0  0  0  0  0  0  0  0  0  0
  -25.9390  -30.8110   21.3890 C   0  0  0  0  0  2  0  0  0  0  0  0
  -26.0260  -29.4360   20.7420 C   0  0  0  0  0  0  0  0  0  0  0  0
  -27.2150  -28.6530   20.7540 C   0  0  0  0  0  3  0  0  0  0  0  0
  -26.0610  -26.9090   19.5210 C   0  0  0  0  0  3  0  0  0  0  0  0
  -24.8820  -27.6760   19.5180 C   0  0  0  0  0  3  0  0  0  0  0  0
  -23.6300  -29.8020   20.1710 C   0  0  0  0  0  2  0  0  0  0  0  0
  -24.6610  -31.0720   22.1050 N   0  0  0  0  0  0  0  0  0  0  0  0
  -23.5100  -32.1430   23.7410 O   0  0  0  0  0  0  0  0  0  0  0  0
  -22.7400  -29.4560   22.5070 C   0  0  0  0  0  0  0  0  0  0  0  0
  -21.4110  -29.2860   22.3850 N   0  0  0  0  0  0  0  0  0  0  0  0
  -23.4170  -28.8250   23.3230 O   0  0  0  0  0  0  0  0  0  0  0  0
  -20.9250  -29.8410   21.6940 H   0  0  0  0  0  0  0  0  0  0  0  0
  -18.0300  -28.1000   22.8860 C   0  0  0  0  0  0  0  0  0  0  0  0
  -20.5920  -28.3500   23.1560 C   0  0  0  0  0  3  0  0  0  0  0  0
  -20.6910  -26.9190   22.5790 C   0  0  0  0  0  2  0  0  0  0  0  0
  -19.5870  -26.6030   21.5650 C   0  0  0  0  0  2  0  0  0  0  0  0
  -18.2040  -26.7510   22.2090 C   0  0  0  0  0  2  0  0  0  0  0  0
  -19.1520  -28.8550   23.3190 C   0  0  0  0  0  0  0  0  0  0  0  0
  -18.9360  -30.1170   23.9160 C   0  0  0  0  0  3  0  0  0  0  0  0
  -17.6320  -30.6220   24.0830 C   0  0  0  0  0  3  0  0  0  0  0  0
  -16.5260  -29.8630   23.6660 C   0  0  0  0  0  3  0  0  0  0  0  0
  -16.7260  -28.6040   23.0740 C   0  0  0  0  0  3  0  0  0  0  0  0
  -25.8770  -32.5030   23.8360 C   0  0  0  0  0  3  0  0  0  0  0  0
  -26.3970  -31.7260   25.1080 C   0  0  1  0  0  0  0  0  0  0  0  0
  -25.3080  -31.4780   26.1760 C   0  0  0  0  0  1  0  0  0  0  0  0
  -26.9810  -30.3500   24.7090 C   0  0  0  0  0  1  0  0  0  0  0  0
  -27.5480  -32.5180   25.7700 C   0  0  0  0  0  1  0  0  0  0  0  0
  -25.5640  -33.9000   24.1710 N   0  0  0  0  0  0  0  0  0  0  0  0
  -25.8980  -34.9550   23.4170 C   0  0  0  0  0  0  0  0  0  0  0  0
  -26.5690  -34.8580   22.3860 O   0  0  0  0  0  0  0  0  0  0  0  0
  -24.9750  -34.0480   24.9760 H   0  0  0  0  0  0  0  0  0  0  0  0
  -24.1690  -36.7480   23.0630 C   0  0  0  0  0  1  0  0  0  0  0  0
  -25.4060  -36.3410   23.8800 C   0  0  0  0  0  3  0  0  0  0  0  0
  -27.5350  -37.2220   24.7250 C   0  0  0  0  0  1  0  0  0  0  0  0
  -26.4350  -37.3980   23.7800 N   0  0  0  0  0  0  0  0  0  0  0  0
  -26.0260  -38.3130   23.9420 H   0  0  0  0  0  0  0  0  0  0  0  0
  1  7  1  0
  2  1  2  0
  3  5  1  0
  4  3  2  0
  4  7  1  0
  5  8  2  0
  6  8  1  0
  7  6  2  0
  8  9  1  0
 10  9  2  0
 11 10  1  0
 12 17  1  0
 13 14  1  0
 13 12  1  0
 15 14  1  0
 15 22  1  0
 15 16  1  0
 17 11  1  0
 17 16  1  0
 18 11  2  0
 19 20  2  0
 20 39  1  0
 21 20  1  0
 21 24  1  0
 22 23  1  0
 22 19  1  0
 23 21  2  0
 24 25  1  0
 25 26  2  0
 27 30  1  0
 27 26  1  0
 28 27  2  0
 29 28  1  0
 29 24  2  0
 30 31  1  0
 31 32  1  0
 32 33  2  0
 34 33  1  0
 34 38  1  0
 35 34  2  0
 36 31  2  0
 36 35  1  0
 37 36  1  0
 39 40  1  0
 40 43  1  0
 40 42  1  0
 41 39  2  0
 44 45  1  0
 44 19  1  0
 46 44  1  0
 47  2  1  0
 47 49  1  0
 48 47  2  0
 50 49  1  0
 51 62  2  0
 52 50  1  0
 52 57  1  0
 53 61  1  0
 53 63  1  0
 54 60  1  0
 54 56  1  0
 55 61  1  0
 56 57  2  0
 56 55  1  0
 58 52  2  0
 59 58  1  0
 59 54  2  0
 60 53  1  0
 61 51  1  0
 63 65  2  0
 64 63  1  0
 66 64  1  0
 67 76  2  0
 67 72  1  0
 68 64  1  0
 68 72  1  0
 69 68  1  0
 70 71  1  0
 70 69  1  0
 71 67  1  0
 72 73  2  0
 73 74  1  0
 75 74  2  0
 76 75  1  0
 77 51  1  0
 77 82  1  0
 77 78  1  0
 78 81  1  1
 78 79  1  0
 80 78  1  0
 82 85  1  0
 83 87  1  0
 83 82  1  0
 84 83  2  0
 87 86  1  0
 89 87  1  0
 89 90  1  0
 89 88  1  0
M  ISO  4  10 100  11 100  49 101  50 101
M  END
>  <TORSDO>  (36) 
F 20

>  <SCORE>  (36) 
-13.875

>  <name>  (36) 
35

>  <ligand_id>  (36) 
35

>  <original_smiles>  (36) 
[H]C(C(=O)N1C([H])([H])C([H])([H])C([H])([H])C([H])(n2nc(-c3c([H])c([H])c(Oc4c([H])c([H])c(F)c([H])c4F)c([H])c3[H])c(C(=O)N([H])[H])c2N([H])[H])C1([H])[H])=C([H])c1c([H])c([H])c([H])c(C([H])=C([H])C(=O)C([H])([H])Oc2c([H])c([H])c3c(c2[H])C([H])([H])N(C(=O)C([H])(N([H])C(=O)C([H])(N([H])C([H])([H])[H])C([H])([H])[H])C(C([H])([H])[H])(C([H])([H])[H])C([H])([H])[H])C([H])(C(=O)N([H])C2([H])c4c([H])c([H])c([H])c([H])c4C([H])([H])C([H])([H])C2([H])[H])C3([H])[H])c1[H]

>  <smiles>  (36) 
[H]C(C(=O)N1C([H])([H])C([H])([H])C([H])([H])C([H])(n2nc(-c3c([H])c([H])c(Oc4c([H])c([H])c(F)c([H])c4F)c([H])c3[H])c(C(=O)N([H])[H])c2N([H])[H])C1([H])[H])=C([H])c1c([H])c([H])c([H])c(C([H])=C([H])C(=O)C([H])([H])Oc2c([H])c([H])c3c(c2[H])C([H])([H])N(C(=O)C([H])(N([H])C(=O)C([H])(N([H])C([H])([H])[H])C([H])([H])[H])C(C([H])([H])[H])(C([H])([H])[H])C([H])([H])[H])C([H])(C(=O)N([H])C2([H])c4c([H])c([H])c([H])c([H])c4C([H])([H])C([H])([H])C2([H])[H])C3([H])[H])c1[H]

$$$$
36:0:0
     RDKit          3D

 95103  0  0  1  0  0  0  0  0999 V2000
  -30.4650  -18.2170   21.5330 C   0  0  0  0  0  3  0  0  0  0  0  0
  -30.8090  -19.5770   21.5490 C   0  0  0  0  0  3  0  0  0  0  0  0
  -30.7700  -17.3760   20.4340 C   0  0  0  0  0  0  0  0  0  0  0  0
  -31.5350  -17.9380   19.3540 C   0  0  0  0  0  0  0  0  0  0  0  0
  -31.9280  -19.3160   19.4110 C   0  0  0  0  0  0  0  0  0  0  0  0
  -31.4930  -20.1550   20.4630 C   0  0  0  0  0  0  0  0  0  0  0  0
  -32.7800  -19.9740   18.3200 C   0  0  0  0  0  1  0  0  0  0  0  0
  -30.0760  -16.0310   20.4650 C   0  0  0  0  0  0  0  0  0  0  0  0
  -28.8240  -16.0750   20.6840 N   0  0  0  0  0  0  0  0  0  0  0  0
  -28.5190  -17.0370   20.7880 H   0  0  0  0  0  0  0  0  0  0  0  0
  -30.9170  -14.7270   20.2650 C   0  0  0  0  0  0  0  0  0  0  0  0
  -30.6590  -12.5010   19.2470 C   0  0  0  0  0  2  0  0  0  0  0  0
  -29.7290  -12.6420   18.0200 C   0  0  0  0  0  2  0  0  0  0  0  0
  -28.2440  -12.5190   18.4180 C   0  0  0  0  0  2  0  0  0  0  0  0
  -27.8940  -13.3700   19.6630 C   0  0  0  0  0  3  0  0  0  0  0  0
  -28.9410  -13.1710   20.7850 C   0  0  0  0  0  2  0  0  0  0  0  0
  -30.2590  -13.5200   20.2310 N   0  0  0  0  0  0  0  0  0  0  0  0
  -32.1060  -14.8230   19.9420 O   0  0  0  0  0  0  0  0  0  0  0  0
  -25.5070  -14.0410   20.3280 C   0  0  0  0  0  0  0  0  0  0  0  0
  -24.4170  -13.2970   20.6820 C   0  0  0  0  0  0  0  0  0  0  0  0
  -24.8520  -11.9350   20.6820 C   0  0  0  0  0  0  0  0  0  0  0  0
  -26.5350  -13.1320   20.1310 N   0  0  0  0  0  0  0  0  0  0  0  0
  -26.1460  -11.8610   20.4000 N   0  0  0  0  0  0  0  0  0  0  0  0
  -24.1050  -10.6920   20.8940 C   0  0  0  0  0  0  0  0  0  0  0  0
  -24.5080   -9.7530   21.8700 C   0  0  0  0  0  3  0  0  0  0  0  0
  -23.7740   -8.5640   22.0640 C   0  0  0  0  0  3  0  0  0  0  0  0
  -22.6230   -8.3070   21.2810 C   0  0  0  0  0  0  0  0  0  0  0  0
  -22.2350   -9.2350   20.3000 C   0  0  0  0  0  3  0  0  0  0  0  0
  -22.9680  -10.4170   20.1060 C   0  0  0  0  0  3  0  0  0  0  0  0
  -21.8620   -7.1690   21.3760 O   0  0  0  0  0  0  0  0  0  0  0  0
  -21.7440   -6.4800   22.5550 C   0  0  0  0  0  0  0  0  0  0  0  0
  -21.2800   -7.0990   23.7350 C   0  0  0  0  0  3  0  0  0  0  0  0
  -21.1070   -6.3360   24.9070 C   0  0  0  0  0  3  0  0  0  0  0  0
  -21.3900   -4.9570   24.9010 C   0  0  0  0  0  0  0  0  0  0  0  0
  -21.8490   -4.3410   23.7250 C   0  0  0  0  0  3  0  0  0  0  0  0
  -22.0230   -5.1000   22.5550 C   0  0  0  0  0  0  0  0  0  0  0  0
  -22.4440   -4.4960   21.4170 F   0  0  0  0  0  0  0  0  0  0  0  0
  -21.2160   -4.2230   26.0260 F   0  0  0  0  0  0  0  0  0  0  0  0
  -23.0250  -13.7990   20.9360 C   0  0  0  0  0  0  0  0  0  0  0  0
  -22.2920  -13.1350   21.8180 N   0  0  0  0  0  0  0  0  0  0  0  0
  -22.6010  -14.8140   20.3840 O   0  0  0  0  0  0  0  0  0  0  0  0
  -22.6550  -12.3090   22.2710 H   0  0  0  0  0  0  0  0  0  0  0  0
  -21.3600  -13.4490   22.0470 H   0  0  0  0  0  0  0  0  0  0  0  0
  -25.7160  -15.4060   20.1460 N   0  0  0  0  0  0  0  0  0  0  0  0
  -25.0010  -16.0980   20.3340 H   0  0  0  0  0  0  0  0  0  0  0  0
  -26.6580  -15.7890   20.1100 H   0  0  0  0  0  0  0  0  0  0  0  0
  -31.9210  -17.1180   18.1120 C   0  0  0  0  0  2  0  0  0  0  0  0
  -32.0360  -16.9810   15.5560 C   0  0  0  0  0  1  0  0  0  0  0  0
  -31.4100  -17.6870   16.7700 C   0  0  0  0  0  2  0  0  0  0  0  0
  -31.7680  -21.5060   20.3640 O   0  0  0  0  0  0  0  0  0  0  0  0
  -31.0060  -22.4500   21.1230 C   0  0  0  0  0  2  0  0  0  0  0  0
  -30.3940  -23.5020   20.1780 C   0  0  0  0  0  2  0  0  0  0  0  0
  -29.9660  -24.7940   20.8850 C   0  0  0  0  0  2  0  0  0  0  0  0
  -28.8840  -25.5070   20.0760 C   0  0  0  0  0  2  0  0  0  0  0  0
  -28.8010  -26.8660   20.4620 O   0  0  0  0  0  0  0  0  0  0  0  0
  -24.5650  -31.7950   23.1940 C   0  0  0  0  0  0  0  0  0  0  0  0
  -27.5790  -27.4840   20.3410 C   0  0  0  0  0  0  0  0  0  0  0  0
  -23.5090  -30.3040   21.5240 C   0  0  0  0  0  3  0  0  0  0  0  0
  -25.1040  -28.8340   20.2010 C   0  0  0  0  0  0  0  0  0  0  0  0
  -26.0060  -30.8150   21.4200 C   0  0  0  0  0  2  0  0  0  0  0  0
  -26.2000  -29.4400   20.8260 C   0  0  0  0  0  0  0  0  0  0  0  0
  -27.4380  -28.7720   20.8950 C   0  0  0  0  0  3  0  0  0  0  0  0
  -26.4650  -26.8920   19.6940 C   0  0  0  0  0  3  0  0  0  0  0  0
  -25.2290  -27.5550   19.6380 C   0  0  0  0  0  3  0  0  0  0  0  0
  -23.8120  -29.6140   20.1700 C   0  0  0  0  0  2  0  0  0  0  0  0
  -24.7090  -30.9850   22.1100 N   0  0  0  0  0  0  0  0  0  0  0  0
  -23.4470  -32.0220   23.6760 O   0  0  0  0  0  0  0  0  0  0  0  0
  -22.8690  -29.2650   22.4710 C   0  0  0  0  0  0  0  0  0  0  0  0
  -21.5590  -29.0310   22.2970 N   0  0  0  0  0  0  0  0  0  0  0  0
  -23.5480  -28.6720   23.3140 O   0  0  0  0  0  0  0  0  0  0  0  0
  -21.0750  -29.5570   21.5830 H   0  0  0  0  0  0  0  0  0  0  0  0
  -18.2060  -27.7710   22.7390 C   0  0  0  0  0  0  0  0  0  0  0  0
  -20.7520  -28.0740   23.0500 C   0  0  0  0  0  3  0  0  0  0  0  0
  -20.8940  -26.6490   22.4690 C   0  0  0  0  0  2  0  0  0  0  0  0
  -19.8150  -26.3150   21.4330 C   0  0  0  0  0  2  0  0  0  0  0  0
  -18.4180  -26.4330   22.0480 C   0  0  0  0  0  2  0  0  0  0  0  0
  -19.3030  -28.5510   23.1900 C   0  0  0  0  0  0  0  0  0  0  0  0
  -19.0540  -29.8080   23.7820 C   0  0  0  0  0  3  0  0  0  0  0  0
  -17.7390  -30.2840   23.9340 C   0  0  0  0  0  3  0  0  0  0  0  0
  -16.6560  -29.5000   23.5010 C   0  0  0  0  0  3  0  0  0  0  0  0
  -16.8890  -28.2470   22.9080 C   0  0  0  0  0  3  0  0  0  0  0  0
  -25.7900  -32.4980   23.8580 C   0  0  0  0  0  3  0  0  0  0  0  0
  -25.3960  -33.8810   24.1620 N   0  0  0  0  0  0  0  0  0  0  0  0
  -25.6900  -34.9400   23.3950 C   0  0  0  0  0  0  0  0  0  0  0  0
  -26.4000  -34.8630   22.3880 O   0  0  0  0  0  0  0  0  0  0  0  0
  -24.7950  -34.0180   24.9600 H   0  0  0  0  0  0  0  0  0  0  0  0
  -23.8720  -36.6110   22.9380 C   0  0  0  0  0  1  0  0  0  0  0  0
  -25.1000  -36.3010   23.8090 C   0  0  0  0  0  3  0  0  0  0  0  0
  -27.1490  -37.3150   24.7040 C   0  0  0  0  0  1  0  0  0  0  0  0
  -26.0690  -37.4150   23.7260 N   0  0  0  0  0  0  0  0  0  0  0  0
  -25.6010  -38.3070   23.8680 H   0  0  0  0  0  0  0  0  0  0  0  0
  -26.3020  -31.7600   25.1550 C   0  0  1  0  0  0  0  0  0  0  0  0
  -25.1790  -31.4380   26.1690 C   0  0  0  0  0  1  0  0  0  0  0  0
  -26.9930  -30.4270   24.7810 C   0  0  0  0  0  1  0  0  0  0  0  0
  -27.3740  -32.6220   25.8630 C   0  0  0  0  0  1  0  0  0  0  0  0
  1  2  1  0
  3  8  1  0
  3  1  2  0
  4  5  2  0
  4  3  1  0
  5  6  1  0
  6  2  2  0
  7  5  1  0
  8  9  2  0
  9 10  1  0
 11  8  1  0
 12 17  1  0
 13 14  1  0
 13 12  1  0
 15 14  1  0
 15 22  1  0
 15 16  1  0
 17 11  1  0
 17 16  1  0
 18 11  2  0
 19 20  2  0
 20 39  1  0
 21 20  1  0
 21 24  1  0
 22 19  1  0
 22 23  1  0
 23 21  2  0
 24 25  1  0
 25 26  2  0
 27 30  1  0
 27 26  1  0
 28 27  2  0
 29 28  1  0
 29 24  2  0
 30 31  1  0
 31 36  2  0
 31 32  1  0
 32 33  2  0
 34 33  1  0
 34 38  1  0
 35 34  2  0
 36 35  1  0
 37 36  1  0
 39 40  1  0
 40 43  1  0
 40 42  1  0
 41 39  2  0
 44 19  1  0
 44 45  1  0
 46 44  1  0
 47  4  1  0
 48 49  1  0
 49 47  1  0
 50  6  1  0
 50 51  1  0
 52 53  1  0
 52 51  1  0
 54 55  1  0
 54 53  1  0
 56 67  2  0
 57 55  1  0
 57 62  1  0
 58 66  1  0
 58 68  1  0
 59 61  1  0
 60 66  1  0
 61 62  2  0
 61 60  1  0
 63 57  2  0
 64 63  1  0
 64 59  2  0
 65 59  1  0
 65 58  1  0
 66 56  1  0
 68 70  2  0
 69 68  1  0
 71 69  1  0
 72 81  2  0
 72 77  1  0
 73 69  1  0
 73 77  1  0
 74 73  1  0
 75 76  1  0
 75 74  1  0
 76 72  1  0
 77 78  2  0
 78 79  1  0
 80 79  2  0
 81 80  1  0
 82 56  1  0
 82 83  1  0
 82 92  1  0
 83 86  1  0
 84 88  1  0
 84 83  1  0
 85 84  2  0
 88 87  1  0
 90 88  1  0
 90 91  1  0
 90 89  1  0
 92 95  1  1
 92 93  1  0
 94 92  1  0
M  ISO  4   8 100  11 100  54 101  55 101
M  END
>  <TORSDO>  (37) 
F 24

>  <SCORE>  (37) 
-12.426

>  <name>  (37) 
36

>  <ligand_id>  (37) 
36

>  <original_smiles>  (37) 
[H]N=C(C(=O)N1C([H])([H])C([H])([H])C([H])([H])C([H])(n2nc(-c3c([H])c([H])c(Oc4c([H])c([H])c(F)c([H])c4F)c([H])c3[H])c(C(=O)N([H])[H])c2N([H])[H])C1([H])[H])c1c([H])c([H])c(OC([H])([H])C([H])([H])C([H])([H])C([H])([H])Oc2c([H])c([H])c3c(c2[H])C([H])([H])N(C(=O)C([H])(N([H])C(=O)C([H])(N([H])C([H])([H])[H])C([H])([H])[H])C(C([H])([H])[H])(C([H])([H])[H])C([H])([H])[H])C([H])(C(=O)N([H])C2([H])c4c([H])c([H])c([H])c([H])c4C([H])([H])C([H])([H])C2([H])[H])C3([H])[H])c(C([H])([H])[H])c1C([H])([H])C([H])([H])C([H])([H])[H]

>  <smiles>  (37) 
[H]N=C(C(=O)N1C([H])([H])C([H])([H])C([H])([H])C([H])(n2nc(-c3c([H])c([H])c(Oc4c([H])c([H])c(F)c([H])c4F)c([H])c3[H])c(C(=O)N([H])[H])c2N([H])[H])C1([H])[H])c1c([H])c([H])c(OC([H])([H])C([H])([H])C([H])([H])C([H])([H])Oc2c([H])c([H])c3c(c2[H])C([H])([H])N(C(=O)C([H])(N([H])C(=O)C([H])(N([H])C([H])([H])[H])C([H])([H])[H])C(C([H])([H])[H])(C([H])([H])[H])C([H])([H])[H])C([H])(C(=O)N([H])C2([H])c4c([H])c([H])c([H])c([H])c4C([H])([H])C([H])([H])C2([H])[H])C3([H])[H])c(C([H])([H])[H])c1C([H])([H])C([H])([H])C([H])([H])[H]

$$$$
37:0:0
     RDKit          3D

 90 98  0  0  1  0  0  0  0  0999 V2000
  -29.0650  -22.9590   20.4620 C   0  0  0  0  0  2  0  0  0  0  0  0
  -29.1950  -24.4090   19.9690 C   0  0  0  0  0  0  0  0  0  0  0  0
  -29.9540  -24.7240   19.0420 O   0  0  0  0  0  0  0  0  0  0  0  0
  -28.3220  -25.4420   20.6980 C   0  0  0  0  0  2  0  0  0  0  0  0
  -28.4540  -26.7600   20.1390 O   0  0  0  0  0  0  0  0  0  0  0  0
  -24.6620  -31.9080   23.2720 C   0  0  0  0  0  0  0  0  0  0  0  0
  -27.2900  -27.4910   20.1550 C   0  0  0  0  0  0  0  0  0  0  0  0
  -23.4460  -30.5120   21.6300 C   0  0  0  0  0  3  0  0  0  0  0  0
  -24.8910  -28.9820   20.1910 C   0  0  0  0  0  0  0  0  0  0  0  0
  -25.9680  -30.8790   21.4150 C   0  0  0  0  0  2  0  0  0  0  0  0
  -26.0520  -29.5110   20.7700 C   0  0  0  0  0  0  0  0  0  0  0  0
  -27.2580  -28.7730   20.7470 C   0  0  0  0  0  3  0  0  0  0  0  0
  -26.1150  -26.9740   19.5680 C   0  0  0  0  0  3  0  0  0  0  0  0
  -24.9170  -27.7120   19.5870 C   0  0  0  0  0  3  0  0  0  0  0  0
  -23.6450  -29.8370   20.2470 C   0  0  0  0  0  2  0  0  0  0  0  0
  -24.7100  -31.1130   22.1650 N   0  0  0  0  0  0  0  0  0  0  0  0
  -23.5850  -32.1760   23.8200 O   0  0  0  0  0  0  0  0  0  0  0  0
  -22.8010  -29.4870   22.5910 C   0  0  0  0  0  0  0  0  0  0  0  0
  -21.4770  -29.3000   22.4650 N   0  0  0  0  0  0  0  0  0  0  0  0
  -23.4890  -28.8640   23.4030 O   0  0  0  0  0  0  0  0  0  0  0  0
  -20.9840  -29.8560   21.7810 H   0  0  0  0  0  0  0  0  0  0  0  0
  -18.1140  -28.0670   22.9350 C   0  0  0  0  0  0  0  0  0  0  0  0
  -20.6650  -28.3580   23.2330 C   0  0  0  0  0  3  0  0  0  0  0  0
  -20.7910  -26.9230   22.6690 C   0  0  0  0  0  2  0  0  0  0  0  0
  -19.7040  -26.5800   21.6450 C   0  0  0  0  0  2  0  0  0  0  0  0
  -18.3140  -26.7140   22.2730 C   0  0  0  0  0  2  0  0  0  0  0  0
  -19.2190  -28.8450   23.3720 C   0  0  0  0  0  0  0  0  0  0  0  0
  -18.9800  -30.1120   23.9490 C   0  0  0  0  0  3  0  0  0  0  0  0
  -17.6670  -30.5990   24.0960 C   0  0  0  0  0  3  0  0  0  0  0  0
  -16.5770  -29.8180   23.6760 C   0  0  0  0  0  3  0  0  0  0  0  0
  -16.8010  -28.5540   23.1030 C   0  0  0  0  0  3  0  0  0  0  0  0
  -25.9530  -32.5340   23.8850 C   0  0  0  0  0  3  0  0  0  0  0  0
  -25.6540  -33.9350   24.2080 N   0  0  0  0  0  0  0  0  0  0  0  0
  -25.9990  -34.9820   23.4460 C   0  0  0  0  0  0  0  0  0  0  0  0
  -26.6740  -34.8680   22.4190 O   0  0  0  0  0  0  0  0  0  0  0  0
  -25.0580  -34.0990   25.0060 H   0  0  0  0  0  0  0  0  0  0  0  0
  -24.2890  -36.7860   23.0670 C   0  0  0  0  0  1  0  0  0  0  0  0
  -25.5170  -36.3750   23.8930 C   0  0  0  0  0  3  0  0  0  0  0  0
  -27.6520  -37.2440   24.7410 C   0  0  0  0  0  1  0  0  0  0  0  0
  -26.5590  -37.4200   23.7870 N   0  0  0  0  0  0  0  0  0  0  0  0
  -26.1590  -38.3430   23.9300 H   0  0  0  0  0  0  0  0  0  0  0  0
  -26.4730  -31.7660   25.1620 C   0  0  1  0  0  0  0  0  0  0  0  0
  -25.3840  -31.5340   26.2350 C   0  0  0  0  0  1  0  0  0  0  0  0
  -27.0490  -30.3850   24.7680 C   0  0  0  0  0  1  0  0  0  0  0  0
  -27.6280  -32.5570   25.8180 C   0  0  0  0  0  1  0  0  0  0  0  0
  -29.9650  -22.0790   19.7760 O   0  0  0  0  0  0  0  0  0  0  0  0
  -29.2980  -18.8680   21.5840 C   0  0  0  0  0  2  0  0  0  0  0  0
  -31.0270  -18.5350   19.9150 C   0  0  0  0  0  3  0  0  0  0  0  0
  -29.1910  -20.2230   21.2130 C   0  0  0  0  0  3  0  0  0  0  0  0
  -30.9170  -19.8930   19.5400 C   0  0  0  0  0  3  0  0  0  0  0  0
  -30.2120  -18.0050   20.9440 C   0  0  0  0  0  0  0  0  0  0  0  0
  -30.0050  -20.7580   20.1840 C   0  0  0  0  0  0  0  0  0  0  0  0
  -30.2830  -16.6090   21.4310 C   0  0  0  0  0  0  0  0  0  0  0  0
  -30.6180  -15.2880   21.3880 C   0  0  0  0  0  3  0  0  0  0  0  0
  -31.0570  -14.4860   20.2390 C   0  0  0  0  0  0  0  0  0  0  0  0
  -30.6170  -12.4530   18.8970 C   0  0  0  0  0  2  0  0  0  0  0  0
  -29.6160  -12.7440   17.7610 C   0  0  0  0  0  2  0  0  0  0  0  0
  -28.1640  -12.6080   18.2580 C   0  0  0  0  0  2  0  0  0  0  0  0
  -27.9140  -13.3850   19.5770 C   0  0  0  0  0  3  0  0  0  0  0  0
  -29.0080  -13.0530   20.6160 C   0  0  0  0  0  2  0  0  0  0  0  0
  -30.3230  -13.3600   20.0170 N   0  0  0  0  0  0  0  0  0  0  0  0
  -32.0380  -14.7870   19.5540 O   0  0  0  0  0  0  0  0  0  0  0  0
  -25.5510  -14.0210   20.3860 C   0  0  0  0  0  0  0  0  0  0  0  0
  -24.4870  -13.2590   20.7890 C   0  0  0  0  0  0  0  0  0  0  0  0
  -24.9260  -11.9010   20.7200 C   0  0  0  0  0  0  0  0  0  0  0  0
  -26.5740  -13.1280   20.1040 N   0  0  0  0  0  0  0  0  0  0  0  0
  -26.2020  -11.8470   20.3580 N   0  0  0  0  0  0  0  0  0  0  0  0
  -24.1910  -10.6470   20.9240 C   0  0  0  0  0  0  0  0  0  0  0  0
  -24.6120   -9.6900   21.8740 C   0  0  0  0  0  3  0  0  0  0  0  0
  -23.8780   -8.4990   22.0630 C   0  0  0  0  0  3  0  0  0  0  0  0
  -22.7090   -8.2580   21.3040 C   0  0  0  0  0  0  0  0  0  0  0  0
  -22.3070   -9.2030   20.3450 C   0  0  0  0  0  3  0  0  0  0  0  0
  -23.0410  -10.3850   20.1530 C   0  0  0  0  0  3  0  0  0  0  0  0
  -21.9480   -7.1190   21.4020 O   0  0  0  0  0  0  0  0  0  0  0  0
  -21.8340   -6.4280   22.5820 C   0  0  0  0  0  0  0  0  0  0  0  0
  -21.3540   -7.0410   23.7600 C   0  0  0  0  0  3  0  0  0  0  0  0
  -21.1870   -6.2770   24.9330 C   0  0  0  0  0  3  0  0  0  0  0  0
  -21.4900   -4.9030   24.9280 C   0  0  0  0  0  0  0  0  0  0  0  0
  -21.9620   -4.2900   23.7540 C   0  0  0  0  0  3  0  0  0  0  0  0
  -22.1300   -5.0500   22.5840 C   0  0  0  0  0  0  0  0  0  0  0  0
  -22.5660   -4.4510   21.4490 F   0  0  0  0  0  0  0  0  0  0  0  0
  -21.3220   -4.1670   26.0520 F   0  0  0  0  0  0  0  0  0  0  0  0
  -23.1090  -13.7510   21.1290 C   0  0  0  0  0  0  0  0  0  0  0  0
  -22.4120  -13.0550   22.0180 N   0  0  0  0  0  0  0  0  0  0  0  0
  -22.6630  -14.7880   20.6390 O   0  0  0  0  0  0  0  0  0  0  0  0
  -22.7850  -12.2150   22.4360 H   0  0  0  0  0  0  0  0  0  0  0  0
  -21.4890  -13.3660   22.2870 H   0  0  0  0  0  0  0  0  0  0  0  0
  -25.7290  -15.3910   20.2210 N   0  0  0  0  0  0  0  0  0  0  0  0
  -24.9810  -16.0580   20.3770 H   0  0  0  0  0  0  0  0  0  0  0  0
  -26.5850  -15.8230   19.8960 H   0  0  0  0  0  0  0  0  0  0  0  0
  2  1  1  0
  2  4  1  0
  3  2  2  0
  5  7  1  0
  5  4  1  0
  6 17  2  0
  7 12  1  0
  8 16  1  0
  8 18  1  0
  9 15  1  0
  9 11  1  0
 10 16  1  0
 11 10  1  0
 12 11  2  0
 13 14  1  0
 13  7  2  0
 14  9  2  0
 15  8  1  0
 16  6  1  0
 18 20  2  0
 19 18  1  0
 21 19  1  0
 22 31  2  0
 22 27  1  0
 23 19  1  0
 23 27  1  0
 24 23  1  0
 25 26  1  0
 25 24  1  0
 26 22  1  0
 27 28  2  0
 28 29  1  0
 30 29  2  0
 31 30  1  0
 32  6  1  0
 32 33  1  0
 32 42  1  0
 33 36  1  0
 34 38  1  0
 34 33  1  0
 35 34  2  0
 38 37  1  0
 40 38  1  0
 40 41  1  0
 40 39  1  0
 42 45  1  1
 42 43  1  0
 44 42  1  0
 46 52  1  0
 46  1  1  0
 48 51  1  0
 49 47  1  0
 50 48  2  0
 50 52  1  0
 51 53  2  0
 51 47  1  0
 52 49  2  0
 54 53  2  0
 55 54  1  0
 56 61  1  0
 57 58  1  0
 57 56  1  0
 59 58  1  0
 59 66  1  0
 59 60  1  0
 61 55  1  0
 61 60  1  0
 62 55  2  0
 63 64  2  0
 64 83  1  0
 65 64  1  0
 65 68  1  0
 66 67  1  0
 66 63  1  0
 67 65  2  0
 68 69  1  0
 69 70  2  0
 71 74  1  0
 71 70  1  0
 72 71  2  0
 73 72  1  0
 73 68  2  0
 74 75  1  0
 75 80  2  0
 75 76  1  0
 76 77  2  0
 78 77  1  0
 78 82  1  0
 79 78  2  0
 80 79  1  0
 81 80  1  0
 83 84  1  0
 84 87  1  0
 84 86  1  0
 85 83  2  0
 88 89  1  0
 88 63  1  0
 90 88  1  0
M  ISO  4   4 101   5 101  54 100  55 100
M  END
>  <TORSDO>  (38) 
F 21

>  <SCORE>  (38) 
-12.562

>  <name>  (38) 
37

>  <ligand_id>  (38) 
37

>  <original_smiles>  (38) 
[H]C(C(=O)N1C([H])([H])C([H])([H])C([H])([H])C([H])(n2nc(-c3c([H])c([H])c(Oc4c([H])c([H])c(F)c([H])c4F)c([H])c3[H])c(C(=O)N([H])[H])c2N([H])[H])C1([H])[H])=C([H])c1c([H])c([H])c(OC([H])([H])C(=O)C([H])([H])Oc2c([H])c([H])c3c(c2[H])C([H])([H])N(C(=O)C([H])(N([H])C(=O)C([H])(N([H])C([H])([H])[H])C([H])([H])[H])C(C([H])([H])[H])(C([H])([H])[H])C([H])([H])[H])C([H])(C(=O)N([H])C2([H])c4c([H])c([H])c([H])c([H])c4C([H])([H])C([H])([H])C2([H])[H])C3([H])[H])c([H])c1[H]

>  <smiles>  (38) 
[H]C(C(=O)N1C([H])([H])C([H])([H])C([H])([H])C([H])(n2nc(-c3c([H])c([H])c(Oc4c([H])c([H])c(F)c([H])c4F)c([H])c3[H])c(C(=O)N([H])[H])c2N([H])[H])C1([H])[H])=C([H])c1c([H])c([H])c(OC([H])([H])C(=O)C([H])([H])Oc2c([H])c([H])c3c(c2[H])C([H])([H])N(C(=O)C([H])(N([H])C(=O)C([H])(N([H])C([H])([H])[H])C([H])([H])[H])C(C([H])([H])[H])(C([H])([H])[H])C([H])([H])[H])C([H])(C(=O)N([H])C2([H])c4c([H])c([H])c([H])c([H])c4C([H])([H])C([H])([H])C2([H])[H])C3([H])[H])c([H])c1[H]

$$$$
38:0:0
     RDKit          3D

 94102  0  0  1  0  0  0  0  0999 V2000
  -32.3320  -18.6400   21.2150 C   0  0  0  0  0  3  0  0  0  0  0  0
  -32.5660  -20.0000   21.4470 C   0  0  0  0  0  3  0  0  0  0  0  0
  -29.9230  -19.0070   21.3100 C   0  0  0  0  0  3  0  0  0  0  0  0
  -31.0210  -18.1210   21.1380 C   0  0  0  0  0  0  0  0  0  0  0  0
  -31.4870  -20.8910   21.5660 C   0  0  0  0  0  0  0  0  0  0  0  0
  -30.1520  -20.4050   21.4920 C   0  0  0  0  0  0  0  0  0  0  0  0
  -31.0110  -16.6760   20.8470 C   0  0  0  0  0  2  0  0  0  0  0  0
  -30.3380  -15.5930   21.3280 C   0  0  0  0  0  2  0  0  0  0  0  0
  -30.8860  -14.2950   20.9000 C   0  0  0  0  0  0  0  0  0  0  0  0
  -30.5200  -12.0510   19.9820 C   0  0  0  0  0  2  0  0  0  0  0  0
  -29.7460  -12.2360   18.6680 C   0  0  0  0  0  2  0  0  0  0  0  0
  -28.2410  -12.1170   18.9610 C   0  0  0  0  0  2  0  0  0  0  0  0
  -27.7970  -13.0430   20.1280 C   0  0  0  0  0  3  0  0  0  0  0  0
  -28.7470  -12.9700   21.3450 C   0  0  0  0  0  2  0  0  0  0  0  0
  -30.1210  -13.1640   20.8670 N   0  0  0  0  0  0  0  0  0  0  0  0
  -32.0510  -14.2350   20.4980 O   0  0  0  0  0  0  0  0  0  0  0  0
  -25.3710  -13.6850   20.6410 C   0  0  0  0  0  0  0  0  0  0  0  0
  -24.2680  -12.9390   20.9400 C   0  0  0  0  0  0  0  0  0  0  0  0
  -24.7110  -11.5780   20.9890 C   0  0  0  0  0  0  0  0  0  0  0  0
  -26.4150  -12.7880   20.5130 N   0  0  0  0  0  0  0  0  0  0  0  0
  -26.0220  -11.5150   20.7830 N   0  0  0  0  0  0  0  0  0  0  0  0
  -23.9490  -10.3330   21.1600 C   0  0  0  0  0  0  0  0  0  0  0  0
  -24.3210   -9.3650   22.1210 C   0  0  0  0  0  3  0  0  0  0  0  0
  -23.5550   -8.1880   22.2790 C   0  0  0  0  0  3  0  0  0  0  0  0
  -22.4110   -7.9690   21.4760 C   0  0  0  0  0  0  0  0  0  0  0  0
  -22.0650   -8.9240   20.5040 C   0  0  0  0  0  3  0  0  0  0  0  0
  -22.8250  -10.0920   20.3450 C   0  0  0  0  0  3  0  0  0  0  0  0
  -21.6270   -6.8430   21.5430 O   0  0  0  0  0  0  0  0  0  0  0  0
  -21.5390   -6.0940   22.6870 C   0  0  0  0  0  0  0  0  0  0  0  0
  -21.1170   -6.6500   23.9130 C   0  0  0  0  0  3  0  0  0  0  0  0
  -20.9780   -5.8270   25.0490 C   0  0  0  0  0  3  0  0  0  0  0  0
  -21.2490   -4.4480   24.9560 C   0  0  0  0  0  0  0  0  0  0  0  0
  -21.6620   -3.8900   23.7320 C   0  0  0  0  0  3  0  0  0  0  0  0
  -21.8020   -4.7130   22.6010 C   0  0  0  0  0  0  0  0  0  0  0  0
  -22.1810   -4.1660   21.4210 F   0  0  0  0  0  0  0  0  0  0  0  0
  -21.1080   -3.6550   26.0450 F   0  0  0  0  0  0  0  0  0  0  0  0
  -22.8620  -13.4410   21.0880 C   0  0  0  0  0  0  0  0  0  0  0  0
  -22.0640  -12.7880   21.9240 N   0  0  0  0  0  0  0  0  0  0  0  0
  -22.4810  -14.4530   20.4970 O   0  0  0  0  0  0  0  0  0  0  0  0
  -22.3850  -11.9700   22.4220 H   0  0  0  0  0  0  0  0  0  0  0  0
  -21.1180  -13.1100   22.0730 H   0  0  0  0  0  0  0  0  0  0  0  0
  -25.5750  -15.0470   20.4460 N   0  0  0  0  0  0  0  0  0  0  0  0
  -24.8200  -15.7210   20.4580 H   0  0  0  0  0  0  0  0  0  0  0  0
  -26.4790  -15.4620   20.2600 H   0  0  0  0  0  0  0  0  0  0  0  0
  -31.8290  -22.3700   21.6850 C   0  0  0  0  0  2  0  0  0  0  0  0
  -33.5710  -23.6040   20.2540 C   0  0  0  0  0  2  0  0  0  0  0  0
  -32.4770  -22.8390   20.3880 C   0  0  0  0  0  3  0  0  0  0  0  0
  -29.1110  -21.2980   21.6450 O   0  0  0  0  0  0  0  0  0  0  0  0
  -28.3940  -21.7000   20.4680 C   0  0  0  0  0  2  0  0  0  0  0  0
  -29.0610  -22.8640   19.6840 C   0  0  0  0  0  2  0  0  0  0  0  0
  -28.7340  -24.2940   20.1660 C   0  0  0  0  0  0  0  0  0  0  0  0
  -28.7250  -24.5690   21.3690 O   0  0  0  0  0  0  0  0  0  0  0  0
  -28.5200  -25.3860   19.0830 C   0  0  0  0  0  2  0  0  0  0  0  0
  -28.3290  -26.6780   19.6830 O   0  0  0  0  0  0  0  0  0  0  0  0
  -24.5930  -31.6550   23.0780 C   0  0  0  0  0  0  0  0  0  0  0  0
  -27.0970  -27.3030   19.7460 C   0  0  0  0  0  0  0  0  0  0  0  0
  -23.3110  -30.3300   21.4230 C   0  0  0  0  0  3  0  0  0  0  0  0
  -24.7010  -28.8110   19.9110 C   0  0  0  0  0  0  0  0  0  0  0  0
  -25.8360  -30.6560   21.1680 C   0  0  0  0  0  2  0  0  0  0  0  0
  -25.8820  -29.3120   20.4660 C   0  0  0  0  0  0  0  0  0  0  0  0
  -27.0740  -28.5680   20.3710 C   0  0  0  0  0  3  0  0  0  0  0  0
  -25.8850  -26.7850   19.2250 C   0  0  0  0  0  3  0  0  0  0  0  0
  -24.6930  -27.5430   19.3010 C   0  0  0  0  0  3  0  0  0  0  0  0
  -23.4750  -29.6960   20.0130 C   0  0  0  0  0  2  0  0  0  0  0  0
  -24.5980  -30.8950   21.9450 N   0  0  0  0  0  0  0  0  0  0  0  0
  -23.5360  -31.9250   23.6640 O   0  0  0  0  0  0  0  0  0  0  0  0
  -22.6770  -29.2840   22.3680 C   0  0  0  0  0  0  0  0  0  0  0  0
  -21.3440  -29.1360   22.2850 N   0  0  0  0  0  0  0  0  0  0  0  0
  -23.3780  -28.6140   23.1290 O   0  0  0  0  0  0  0  0  0  0  0  0
  -20.8390  -29.7410   21.6540 H   0  0  0  0  0  0  0  0  0  0  0  0
  -17.9600  -28.0010   22.8420 C   0  0  0  0  0  0  0  0  0  0  0  0
  -20.5300  -28.1860   23.0440 C   0  0  0  0  0  3  0  0  0  0  0  0
  -20.5770  -26.7730   22.4170 C   0  0  0  0  0  2  0  0  0  0  0  0
  -19.4430  -26.5180   21.4210 C   0  0  0  0  0  2  0  0  0  0  0  0
  -18.0810  -26.6750   22.1060 C   0  0  0  0  0  2  0  0  0  0  0  0
  -19.1110  -28.7190   23.2630 C   0  0  0  0  0  0  0  0  0  0  0  0
  -18.9420  -29.9700   23.9000 C   0  0  0  0  0  3  0  0  0  0  0  0
  -17.6560  -30.4910   24.1340 C   0  0  0  0  0  3  0  0  0  0  0  0
  -16.5200  -29.7620   23.7380 C   0  0  0  0  0  3  0  0  0  0  0  0
  -16.6740  -28.5230   23.0900 C   0  0  0  0  0  3  0  0  0  0  0  0
  -25.9120  -32.2410   23.6750 C   0  0  0  0  0  3  0  0  0  0  0  0
  -25.6330  -33.6230   24.0900 N   0  0  0  0  0  0  0  0  0  0  0  0
  -25.9470  -34.7150   23.3770 C   0  0  0  0  0  0  0  0  0  0  0  0
  -26.5820  -34.6650   22.3190 O   0  0  0  0  0  0  0  0  0  0  0  0
  -25.0780  -33.7390   24.9250 H   0  0  0  0  0  0  0  0  0  0  0  0
  -24.2210  -36.5310   23.1710 C   0  0  0  0  0  1  0  0  0  0  0  0
  -25.4790  -36.0750   23.9250 C   0  0  0  0  0  3  0  0  0  0  0  0
  -27.6690  -36.8810   24.7080 C   0  0  0  0  0  1  0  0  0  0  0  0
  -26.5060  -37.1390   23.8630 N   0  0  0  0  0  0  0  0  0  0  0  0
  -26.1050  -38.0260   24.1570 H   0  0  0  0  0  0  0  0  0  0  0  0
  -26.4740  -31.4000   24.8860 C   0  0  1  0  0  0  0  0  0  0  0  0
  -25.4370  -31.1340   26.0000 C   0  0  0  0  0  1  0  0  0  0  0  0
  -27.0080  -30.0270   24.4050 C   0  0  0  0  0  1  0  0  0  0  0  0
  -27.6640  -32.1440   25.5310 C   0  0  0  0  0  1  0  0  0  0  0  0
  1  2  1  0
  2  5  2  0
  3  6  2  0
  4  1  2  0
  4  3  1  0
  5 45  1  0
  6  5  1  0
  6 48  1  0
  7  4  1  0
  7  8  1  0
  9  8  1  0
 10 15  1  0
 11 12  1  0
 11 10  1  0
 13 12  1  0
 13 20  1  0
 13 14  1  0
 15  9  1  0
 15 14  1  0
 16  9  2  0
 17 18  2  0
 18 19  1  0
 18 37  1  0
 19 22  1  0
 20 17  1  0
 20 21  1  0
 21 19  2  0
 22 23  1  0
 23 24  2  0
 25 28  1  0
 25 24  1  0
 26 25  2  0
 27 26  1  0
 27 22  2  0
 28 29  1  0
 29 30  1  0
 30 31  2  0
 32 31  1  0
 32 36  1  0
 33 32  2  0
 34 29  2  0
 34 33  1  0
 35 34  1  0
 37 38  1  0
 38 41  1  0
 38 40  1  0
 39 37  2  0
 42 43  1  0
 42 17  1  0
 44 42  1  0
 46 47  2  0
 47 45  1  0
 49 48  1  0
 50 51  1  0
 50 49  1  0
 51 52  2  0
 53 54  1  0
 53 51  1  0
 54 56  1  0
 55 66  2  0
 56 61  1  0
 57 65  1  0
 57 67  1  0
 58 64  1  0
 58 60  1  0
 59 65  1  0
 60 59  1  0
 61 60  2  0
 62 63  1  0
 62 56  2  0
 63 58  2  0
 64 57  1  0
 65 55  1  0
 67 69  2  0
 68 67  1  0
 70 68  1  0
 71 80  2  0
 71 76  1  0
 72 68  1  0
 72 76  1  0
 73 72  1  0
 74 75  1  0
 74 73  1  0
 75 71  1  0
 76 77  2  0
 77 78  1  0
 79 78  2  0
 80 79  1  0
 81 55  1  0
 81 82  1  0
 81 91  1  0
 82 85  1  0
 83 87  1  0
 83 82  1  0
 84 83  2  0
 87 86  1  0
 89 87  1  0
 89 90  1  0
 89 88  1  0
 91 94  1  1
 91 92  1  0
 93 91  1  0
M  ISO  4   8 100   9 100  53 101  54 101
M  END
>  <TORSDO>  (39) 
F 24

>  <SCORE>  (39) 
-11.478

>  <name>  (39) 
38

>  <ligand_id>  (39) 
38

>  <original_smiles>  (39) 
[H]C([H])=C([H])C([H])([H])c1c([H])c([H])c(C([H])=C([H])C(=O)N2C([H])([H])C([H])([H])C([H])([H])C([H])(n3nc(-c4c([H])c([H])c(Oc5c([H])c([H])c(F)c([H])c5F)c([H])c4[H])c(C(=O)N([H])[H])c3N([H])[H])C2([H])[H])c([H])c1OC([H])([H])C([H])([H])C(=O)C([H])([H])Oc1c([H])c([H])c2c(c1[H])C([H])([H])N(C(=O)C([H])(N([H])C(=O)C([H])(N([H])C([H])([H])[H])C([H])([H])[H])C(C([H])([H])[H])(C([H])([H])[H])C([H])([H])[H])C([H])(C(=O)N([H])C1([H])c3c([H])c([H])c([H])c([H])c3C([H])([H])C([H])([H])C1([H])[H])C2([H])[H]

>  <smiles>  (39) 
[H]C([H])=C([H])C([H])([H])c1c([H])c([H])c(C([H])=C([H])C(=O)N2C([H])([H])C([H])([H])C([H])([H])C([H])(n3nc(-c4c([H])c([H])c(Oc5c([H])c([H])c(F)c([H])c5F)c([H])c4[H])c(C(=O)N([H])[H])c3N([H])[H])C2([H])[H])c([H])c1OC([H])([H])C([H])([H])C(=O)C([H])([H])Oc1c([H])c([H])c2c(c1[H])C([H])([H])N(C(=O)C([H])(N([H])C(=O)C([H])(N([H])C([H])([H])[H])C([H])([H])[H])C(C([H])([H])[H])(C([H])([H])[H])C([H])([H])[H])C([H])(C(=O)N([H])C1([H])c3c([H])c([H])c([H])c([H])c3C([H])([H])C([H])([H])C1([H])[H])C2([H])[H]

$$$$
39:0:0
     RDKit          3D

 91 99  0  0  1  0  0  0  0  0999 V2000
  -30.2570  -21.9390   19.6440 C   0  0  0  0  0  3  0  0  0  0  0  0
  -29.3230  -22.7340   20.2380 C   0  0  0  0  0  3  0  0  0  0  0  0
  -29.9840  -19.4040   20.3830 C   0  0  0  0  0  3  0  0  0  0  0  0
  -31.1580  -20.0560   18.3650 C   0  0  0  0  0  3  0  0  0  0  0  0
  -30.9780  -17.6940   18.9540 C   0  0  0  0  0  3  0  0  0  0  0  0
  -30.4400  -20.4480   19.5150 C   0  0  0  0  0  0  0  0  0  0  0  0
  -30.2710  -18.0140   20.1320 C   0  0  0  0  0  0  0  0  0  0  0  0
  -31.4240  -18.7040   18.0810 C   0  0  0  0  0  0  0  0  0  0  0  0
  -32.2000  -18.3300   16.8340 C   0  0  0  0  0  1  0  0  0  0  0  0
  -29.8340  -16.9550   21.1100 C   0  0  0  0  0  3  0  0  0  0  0  0
  -29.9590  -15.5940   21.2630 C   0  0  0  0  0  3  0  0  0  0  0  0
  -30.6560  -14.5620   20.4610 C   0  0  0  0  0  0  0  0  0  0  0  0
  -30.3780  -12.3970   19.2610 C   0  0  0  0  0  2  0  0  0  0  0  0
  -29.4220  -12.5920   18.0640 C   0  0  0  0  0  2  0  0  0  0  0  0
  -27.9490  -12.4420   18.4950 C   0  0  0  0  0  2  0  0  0  0  0  0
  -27.6220  -13.2550   19.7750 C   0  0  0  0  0  3  0  0  0  0  0  0
  -28.6820  -13.0000   20.8660 C   0  0  0  0  0  2  0  0  0  0  0  0
  -29.9980  -13.3670   20.3090 N   0  0  0  0  0  0  0  0  0  0  0  0
  -31.7660  -14.7370   19.9470 O   0  0  0  0  0  0  0  0  0  0  0  0
  -25.2290  -13.8740   20.4830 C   0  0  0  0  0  0  0  0  0  0  0  0
  -24.1580  -13.1080   20.8580 C   0  0  0  0  0  0  0  0  0  0  0  0
  -24.6140  -11.7550   20.8370 C   0  0  0  0  0  0  0  0  0  0  0  0
  -26.2700  -12.9870   20.2560 N   0  0  0  0  0  0  0  0  0  0  0  0
  -25.9040  -11.7080   20.5260 N   0  0  0  0  0  0  0  0  0  0  0  0
  -23.8840  -10.4980   21.0380 C   0  0  0  0  0  0  0  0  0  0  0  0
  -24.3290   -9.5250   21.9610 C   0  0  0  0  0  3  0  0  0  0  0  0
  -23.6000   -8.3310   22.1500 C   0  0  0  0  0  3  0  0  0  0  0  0
  -22.4130   -8.1010   21.4140 C   0  0  0  0  0  0  0  0  0  0  0  0
  -21.9880   -9.0620   20.4800 C   0  0  0  0  0  3  0  0  0  0  0  0
  -22.7170  -10.2470   20.2900 C   0  0  0  0  0  3  0  0  0  0  0  0
  -21.6560   -6.9590   21.5110 O   0  0  0  0  0  0  0  0  0  0  0  0
  -21.6370   -6.2020   22.6560 C   0  0  0  0  0  0  0  0  0  0  0  0
  -21.2620   -6.7470   23.9030 C   0  0  0  0  0  3  0  0  0  0  0  0
  -21.1900   -5.9190   25.0410 C   0  0  0  0  0  3  0  0  0  0  0  0
  -21.4800   -4.5450   24.9320 C   0  0  0  0  0  0  0  0  0  0  0  0
  -21.8480   -3.9990   23.6900 C   0  0  0  0  0  3  0  0  0  0  0  0
  -21.9230   -4.8250   22.5540 C   0  0  0  0  0  0  0  0  0  0  0  0
  -22.2580   -4.2890   21.3550 F   0  0  0  0  0  0  0  0  0  0  0  0
  -21.4040   -3.7480   26.0230 F   0  0  0  0  0  0  0  0  0  0  0  0
  -22.7630  -13.5940   21.1310 C   0  0  0  0  0  0  0  0  0  0  0  0
  -22.0360  -12.9070   22.0040 N   0  0  0  0  0  0  0  0  0  0  0  0
  -22.3280  -14.6180   20.6050 O   0  0  0  0  0  0  0  0  0  0  0  0
  -22.4030  -12.0820   22.4520 H   0  0  0  0  0  0  0  0  0  0  0  0
  -21.1000  -13.2130   22.2290 H   0  0  0  0  0  0  0  0  0  0  0  0
  -25.3990  -15.2430   20.3000 N   0  0  0  0  0  0  0  0  0  0  0  0
  -24.6370  -15.9030   20.4150 H   0  0  0  0  0  0  0  0  0  0  0  0
  -26.2620  -15.6790   19.9970 H   0  0  0  0  0  0  0  0  0  0  0  0
  -29.4210  -24.2430   20.1630 C   0  0  0  0  0  0  0  0  0  0  0  0
  -30.4740  -24.8090   19.8480 O   0  0  0  0  0  0  0  0  0  0  0  0
  -28.1780  -25.1330   20.4720 C   0  0  0  0  0  2  0  0  0  0  0  0
  -28.3750  -26.5630   20.2070 O   0  0  0  0  0  0  0  0  0  0  0  0
  -24.6060  -31.8780   23.2370 C   0  0  0  0  0  0  0  0  0  0  0  0
  -27.2320  -27.3590   20.1870 C   0  0  0  0  0  0  0  0  0  0  0  0
  -23.4000  -30.4750   21.5960 C   0  0  0  0  0  3  0  0  0  0  0  0
  -24.8520  -28.9270   20.1790 C   0  0  0  0  0  0  0  0  0  0  0  0
  -25.9340  -30.8100   21.4090 C   0  0  0  0  0  2  0  0  0  0  0  0
  -26.0180  -29.4330   20.7710 C   0  0  0  0  0  0  0  0  0  0  0  0
  -27.2100  -28.6580   20.7670 C   0  0  0  0  0  3  0  0  0  0  0  0
  -26.0450  -26.8950   19.5710 C   0  0  0  0  0  3  0  0  0  0  0  0
  -24.8660  -27.6630   19.5700 C   0  0  0  0  0  3  0  0  0  0  0  0
  -23.6140  -29.7960   20.2180 C   0  0  0  0  0  2  0  0  0  0  0  0
  -24.6640  -31.0700   22.1380 N   0  0  0  0  0  0  0  0  0  0  0  0
  -23.5220  -32.1540   23.7730 O   0  0  0  0  0  0  0  0  0  0  0  0
  -22.7390  -29.4590   22.5580 C   0  0  0  0  0  0  0  0  0  0  0  0
  -21.4140  -29.2760   22.4250 N   0  0  0  0  0  0  0  0  0  0  0  0
  -23.4170  -28.8400   23.3830 O   0  0  0  0  0  0  0  0  0  0  0  0
  -20.9270  -29.8280   21.7330 H   0  0  0  0  0  0  0  0  0  0  0  0
  -18.0450  -28.0560   22.8930 C   0  0  0  0  0  0  0  0  0  0  0  0
  -20.5960  -28.3400   23.1960 C   0  0  0  0  0  3  0  0  0  0  0  0
  -20.7210  -26.9030   22.6400 C   0  0  0  0  0  2  0  0  0  0  0  0
  -19.6360  -26.5570   21.6150 C   0  0  0  0  0  2  0  0  0  0  0  0
  -18.2430  -26.6990   22.2370 C   0  0  0  0  0  2  0  0  0  0  0  0
  -19.1510  -28.8330   23.3290 C   0  0  0  0  0  0  0  0  0  0  0  0
  -18.9140  -30.1010   23.9010 C   0  0  0  0  0  3  0  0  0  0  0  0
  -17.6030  -30.5920   24.0450 C   0  0  0  0  0  3  0  0  0  0  0  0
  -16.5110  -29.8120   23.6260 C   0  0  0  0  0  3  0  0  0  0  0  0
  -16.7330  -28.5470   23.0540 C   0  0  0  0  0  3  0  0  0  0  0  0
  -25.8900  -32.5090   23.8560 C   0  0  0  0  0  3  0  0  0  0  0  0
  -26.4130  -31.7340   25.1280 C   0  0  1  0  0  0  0  0  0  0  0  0
  -25.3270  -31.4930   26.2010 C   0  0  0  0  0  1  0  0  0  0  0  0
  -26.9950  -30.3570   24.7300 C   0  0  0  0  0  1  0  0  0  0  0  0
  -27.5660  -32.5270   25.7880 C   0  0  0  0  0  1  0  0  0  0  0  0
  -25.5820  -33.9060   24.1900 N   0  0  0  0  0  0  0  0  0  0  0  0
  -25.9100  -34.9610   23.4300 C   0  0  0  0  0  0  0  0  0  0  0  0
  -26.5730  -34.8590   22.3950 O   0  0  0  0  0  0  0  0  0  0  0  0
  -24.9960  -34.0620   24.9970 H   0  0  0  0  0  0  0  0  0  0  0  0
  -24.1770  -36.7520   23.0880 C   0  0  0  0  0  1  0  0  0  0  0  0
  -25.4230  -36.3480   23.8920 C   0  0  0  0  0  3  0  0  0  0  0  0
  -27.5620  -37.2340   24.7120 C   0  0  0  0  0  1  0  0  0  0  0  0
  -26.4530  -37.4010   23.7760 N   0  0  0  0  0  0  0  0  0  0  0  0
  -26.0460  -38.3200   23.9290 H   0  0  0  0  0  0  0  0  0  0  0  0
  1  2  2  0
  4  6  1  0
  5  7  2  0
  6  1  1  0
  6  3  2  0
  7  3  1  0
  7 10  1  0
  8  4  2  0
  8  5  1  0
  9  8  1  0
 10 11  2  0
 12 11  1  0
 13 18  1  0
 14 15  1  0
 14 13  1  0
 16 15  1  0
 16 23  1  0
 16 17  1  0
 18 12  1  0
 18 17  1  0
 19 12  2  0
 20 21  2  0
 21 40  1  0
 22 21  1  0
 22 25  1  0
 23 20  1  0
 23 24  1  0
 24 22  2  0
 25 26  1  0
 26 27  2  0
 28 31  1  0
 28 27  1  0
 29 28  2  0
 30 29  1  0
 30 25  2  0
 31 32  1  0
 32 33  1  0
 33 34  2  0
 35 34  1  0
 35 39  1  0
 36 35  2  0
 37 32  2  0
 37 36  1  0
 38 37  1  0
 40 41  1  0
 41 44  1  0
 41 43  1  0
 42 40  2  0
 45 46  1  0
 45 20  1  0
 47 45  1  0
 48  2  1  0
 48 50  1  0
 49 48  2  0
 51 50  1  0
 52 63  2  0
 53 51  1  0
 53 58  1  0
 54 62  1  0
 54 64  1  0
 55 61  1  0
 55 57  1  0
 56 62  1  0
 57 56  1  0
 58 57  2  0
 59 53  2  0
 60 59  1  0
 60 55  2  0
 61 54  1  0
 62 52  1  0
 64 66  2  0
 65 64  1  0
 67 65  1  0
 68 77  2  0
 68 73  1  0
 69 65  1  0
 69 73  1  0
 70 69  1  0
 71 72  1  0
 71 70  1  0
 72 68  1  0
 73 74  2  0
 74 75  1  0
 76 75  2  0
 77 76  1  0
 78 52  1  0
 78 83  1  0
 78 79  1  0
 79 82  1  1
 79 80  1  0
 81 79  1  0
 83 86  1  0
 84 88  1  0
 84 83  1  0
 85 84  2  0
 88 87  1  0
 90 88  1  0
 90 91  1  0
 90 89  1  0
M  ISO  4  11 100  12 100  50 101  51 101
M  END
>  <TORSDO>  (40) 
F 20

>  <SCORE>  (40) 
-13.951

>  <name>  (40) 
39

>  <ligand_id>  (40) 
39

>  <original_smiles>  (40) 
[H]C(C(=O)N1C([H])([H])C([H])([H])C([H])([H])C([H])(n2nc(-c3c([H])c([H])c(Oc4c([H])c([H])c(F)c([H])c4F)c([H])c3[H])c(C(=O)N([H])[H])c2N([H])[H])C1([H])[H])=C([H])c1c([H])c(C([H])=C([H])C(=O)C([H])([H])Oc2c([H])c([H])c3c(c2[H])C([H])([H])N(C(=O)C([H])(N([H])C(=O)C([H])(N([H])C([H])([H])[H])C([H])([H])[H])C(C([H])([H])[H])(C([H])([H])[H])C([H])([H])[H])C([H])(C(=O)N([H])C2([H])c4c([H])c([H])c([H])c([H])c4C([H])([H])C([H])([H])C2([H])[H])C3([H])[H])c([H])c(C([H])([H])[H])c1[H]

>  <smiles>  (40) 
[H]C(C(=O)N1C([H])([H])C([H])([H])C([H])([H])C([H])(n2nc(-c3c([H])c([H])c(Oc4c([H])c([H])c(F)c([H])c4F)c([H])c3[H])c(C(=O)N([H])[H])c2N([H])[H])C1([H])[H])=C([H])c1c([H])c(C([H])=C([H])C(=O)C([H])([H])Oc2c([H])c([H])c3c(c2[H])C([H])([H])N(C(=O)C([H])(N([H])C(=O)C([H])(N([H])C([H])([H])[H])C([H])([H])[H])C(C([H])([H])[H])(C([H])([H])[H])C([H])([H])[H])C([H])(C(=O)N([H])C2([H])c4c([H])c([H])c([H])c([H])c4C([H])([H])C([H])([H])C2([H])[H])C3([H])[H])c([H])c(C([H])([H])[H])c1[H]

$$$$
40:0:0
     RDKit          3D

 92100  0  0  1  0  0  0  0  0999 V2000
  -28.5530  -22.3140   21.2530 C   0  0  0  0  0  0  0  0  0  0  0  0
  -27.3630  -22.5710   21.5920 N   0  0  0  0  0  0  0  0  0  0  0  0
  -26.8050  -21.7260   21.6480 H   0  0  0  0  0  0  0  0  0  0  0  0
  -28.8930  -18.9270   19.5590 C   0  0  0  0  0  3  0  0  0  0  0  0
  -28.4870  -20.2430   19.8640 C   0  0  0  0  0  3  0  0  0  0  0  0
  -30.3070  -18.9020   21.5300 C   0  0  0  0  0  3  0  0  0  0  0  0
  -29.8210  -18.2510   20.3770 C   0  0  0  0  0  0  0  0  0  0  0  0
  -29.0030  -20.9190   20.9910 C   0  0  0  0  0  0  0  0  0  0  0  0
  -29.9250  -20.2330   21.8300 C   0  0  0  0  0  0  0  0  0  0  0  0
  -30.5380  -20.9030   23.0490 C   0  0  0  0  0  1  0  0  0  0  0  0
  -30.2840  -16.9080   19.9810 C   0  0  0  0  0  3  0  0  0  0  0  0
  -30.5560  -15.8410   20.7680 C   0  0  0  0  0  3  0  0  0  0  0  0
  -31.1860  -14.6860   20.1350 C   0  0  0  0  0  0  0  0  0  0  0  0
  -30.7360  -12.5880   18.9450 C   0  0  0  0  0  2  0  0  0  0  0  0
  -29.7710  -12.8880   17.7800 C   0  0  0  0  0  2  0  0  0  0  0  0
  -28.3080  -12.7850   18.2560 C   0  0  0  0  0  2  0  0  0  0  0  0
  -28.0440  -13.5750   19.5660 C   0  0  0  0  0  3  0  0  0  0  0  0
  -29.1320  -13.2950   20.6260 C   0  0  0  0  0  2  0  0  0  0  0  0
  -30.4460  -13.5500   20.0200 N   0  0  0  0  0  0  0  0  0  0  0  0
  -32.2960  -14.7970   19.6070 O   0  0  0  0  0  0  0  0  0  0  0  0
  -25.6860  -14.2090   20.3770 C   0  0  0  0  0  0  0  0  0  0  0  0
  -24.6170  -13.4480   20.7670 C   0  0  0  0  0  0  0  0  0  0  0  0
  -25.0520  -12.0900   20.6960 C   0  0  0  0  0  0  0  0  0  0  0  0
  -26.7040  -13.3140   20.0880 N   0  0  0  0  0  0  0  0  0  0  0  0
  -26.3290  -12.0330   20.3390 N   0  0  0  0  0  0  0  0  0  0  0  0
  -24.3110  -10.8360   20.8910 C   0  0  0  0  0  0  0  0  0  0  0  0
  -24.7070   -9.8850   21.8580 C   0  0  0  0  0  3  0  0  0  0  0  0
  -23.9660   -8.6970   22.0370 C   0  0  0  0  0  3  0  0  0  0  0  0
  -22.8180   -8.4490   21.2490 C   0  0  0  0  0  0  0  0  0  0  0  0
  -22.4420   -9.3880   20.2720 C   0  0  0  0  0  3  0  0  0  0  0  0
  -23.1820  -10.5680   20.0910 C   0  0  0  0  0  3  0  0  0  0  0  0
  -22.0550   -7.3100   21.3350 O   0  0  0  0  0  0  0  0  0  0  0  0
  -21.8810   -6.6480   22.5240 C   0  0  0  0  0  0  0  0  0  0  0  0
  -21.3320   -7.2860   23.6580 C   0  0  0  0  0  3  0  0  0  0  0  0
  -21.1060   -6.5480   24.8380 C   0  0  0  0  0  3  0  0  0  0  0  0
  -21.4180   -5.1760   24.8830 C   0  0  0  0  0  0  0  0  0  0  0  0
  -21.9590   -4.5400   23.7540 C   0  0  0  0  0  3  0  0  0  0  0  0
  -22.1870   -5.2730   22.5750 C   0  0  0  0  0  0  0  0  0  0  0  0
  -22.6890   -4.6490   21.4820 F   0  0  0  0  0  0  0  0  0  0  0  0
  -21.1940   -4.4680   26.0140 F   0  0  0  0  0  0  0  0  0  0  0  0
  -23.2400  -13.9450   21.1010 C   0  0  0  0  0  0  0  0  0  0  0  0
  -22.5400  -13.2600   22.0000 N   0  0  0  0  0  0  0  0  0  0  0  0
  -22.7930  -14.9740   20.5970 O   0  0  0  0  0  0  0  0  0  0  0  0
  -22.9130  -12.4270   22.4290 H   0  0  0  0  0  0  0  0  0  0  0  0
  -21.6180  -13.5780   22.2640 H   0  0  0  0  0  0  0  0  0  0  0  0
  -25.8720  -15.5800   20.2250 N   0  0  0  0  0  0  0  0  0  0  0  0
  -25.1300  -16.2500   20.3910 H   0  0  0  0  0  0  0  0  0  0  0  0
  -26.7350  -16.0130   19.9180 H   0  0  0  0  0  0  0  0  0  0  0  0
  -29.5810  -23.4350   21.1020 C   0  0  0  0  0  2  0  0  0  0  0  0
  -29.2320  -24.5340   20.0630 C   0  0  0  0  0  2  0  0  0  0  0  0
  -28.2570  -25.6130   20.5730 C   0  0  0  0  0  2  0  0  0  0  0  0
  -28.2800  -26.7750   19.7340 O   0  0  0  0  0  0  0  0  0  0  0  0
  -24.4940  -31.7860   23.0770 C   0  0  0  0  0  0  0  0  0  0  0  0
  -27.1180  -27.5060   19.7800 C   0  0  0  0  0  0  0  0  0  0  0  0
  -23.2620  -30.4180   21.4250 C   0  0  0  0  0  3  0  0  0  0  0  0
  -24.7000  -28.9570   19.9060 C   0  0  0  0  0  0  0  0  0  0  0  0
  -25.7740  -30.8310   21.1670 C   0  0  0  0  0  2  0  0  0  0  0  0
  -25.8650  -29.4870   20.4770 C   0  0  0  0  0  0  0  0  0  0  0  0
  -27.0790  -28.7690   20.4110 C   0  0  0  0  0  3  0  0  0  0  0  0
  -25.9410  -26.9890   19.1990 C   0  0  0  0  0  3  0  0  0  0  0  0
  -24.7320  -27.7080   19.2650 C   0  0  0  0  0  3  0  0  0  0  0  0
  -23.4410  -29.7880   20.0170 C   0  0  0  0  0  2  0  0  0  0  0  0
  -24.5300  -31.0240   21.9480 N   0  0  0  0  0  0  0  0  0  0  0  0
  -23.4250  -32.0260   23.6540 O   0  0  0  0  0  0  0  0  0  0  0  0
  -22.6590  -29.3540   22.3690 C   0  0  0  0  0  0  0  0  0  0  0  0
  -21.3390  -29.1320   22.2520 N   0  0  0  0  0  0  0  0  0  0  0  0
  -23.3710  -28.7320   23.1600 O   0  0  0  0  0  0  0  0  0  0  0  0
  -20.8250  -29.6870   21.5840 H   0  0  0  0  0  0  0  0  0  0  0  0
  -18.0150  -27.7980   22.7330 C   0  0  0  0  0  0  0  0  0  0  0  0
  -20.5610  -28.1530   23.0100 C   0  0  0  0  0  3  0  0  0  0  0  0
  -20.7200  -26.7340   22.4120 C   0  0  0  0  0  2  0  0  0  0  0  0
  -19.6300  -26.3830   21.3940 C   0  0  0  0  0  2  0  0  0  0  0  0
  -18.2450  -26.4660   22.0400 C   0  0  0  0  0  2  0  0  0  0  0  0
  -19.1030  -28.5980   23.1730 C   0  0  0  0  0  0  0  0  0  0  0  0
  -18.8350  -29.8440   23.7780 C   0  0  0  0  0  3  0  0  0  0  0  0
  -17.5120  -30.2920   23.9500 C   0  0  0  0  0  3  0  0  0  0  0  0
  -16.4380  -29.4890   23.5250 C   0  0  0  0  0  3  0  0  0  0  0  0
  -16.6910  -28.2450   22.9230 C   0  0  0  0  0  3  0  0  0  0  0  0
  -25.7870  -32.4170   23.6800 C   0  0  0  0  0  3  0  0  0  0  0  0
  -25.4680  -33.8010   24.0590 N   0  0  0  0  0  0  0  0  0  0  0  0
  -25.7780  -34.8810   23.3280 C   0  0  0  0  0  0  0  0  0  0  0  0
  -26.4380  -34.8180   22.2860 O   0  0  0  0  0  0  0  0  0  0  0  0
  -24.8810  -33.9230   24.8710 H   0  0  0  0  0  0  0  0  0  0  0  0
  -24.0300  -36.6660   23.0410 C   0  0  0  0  0  1  0  0  0  0  0  0
  -25.2800  -36.2490   23.8320 C   0  0  0  0  0  3  0  0  0  0  0  0
  -27.4140  -37.1240   24.6750 C   0  0  0  0  0  1  0  0  0  0  0  0
  -26.3020  -37.3160   23.7470 N   0  0  0  0  0  0  0  0  0  0  0  0
  -25.8880  -38.2250   23.9300 H   0  0  0  0  0  0  0  0  0  0  0  0
  -26.3530  -31.6170   24.9150 C   0  0  1  0  0  0  0  0  0  0  0  0
  -25.2930  -31.3220   26.0030 C   0  0  0  0  0  1  0  0  0  0  0  0
  -26.9540  -30.2640   24.4650 C   0  0  0  0  0  1  0  0  0  0  0  0
  -27.5080  -32.4130   25.5690 C   0  0  0  0  0  1  0  0  0  0  0  0
  1  2  2  0
  2  3  1  0
  4  5  2  0
  4  7  1  0
  5  8  1  0
  6  9  1  0
  7  6  2  0
  8  1  1  0
  8  9  2  0
  9 10  1  0
 11  7  1  0
 11 12  2  0
 13 12  1  0
 14 19  1  0
 15 16  1  0
 15 14  1  0
 17 16  1  0
 17 24  1  0
 17 18  1  0
 19 13  1  0
 19 18  1  0
 20 13  2  0
 21 22  2  0
 22 41  1  0
 23 22  1  0
 23 26  1  0
 24 25  1  0
 24 21  1  0
 25 23  2  0
 26 27  1  0
 27 28  2  0
 29 32  1  0
 29 28  1  0
 30 29  2  0
 31 30  1  0
 31 26  2  0
 32 33  1  0
 33 38  2  0
 33 34  1  0
 34 35  2  0
 35 36  1  0
 36 40  1  0
 37 36  2  0
 38 37  1  0
 39 38  1  0
 41 42  1  0
 42 45  1  0
 42 44  1  0
 43 41  2  0
 46 21  1  0
 46 47  1  0
 48 46  1  0
 49  1  1  0
 50 51  1  0
 50 49  1  0
 52 54  1  0
 52 51  1  0
 53 64  2  0
 54 59  1  0
 55 63  1  0
 55 65  1  0
 56 62  1  0
 56 58  1  0
 57 63  1  0
 58 57  1  0
 59 58  2  0
 60 61  1  0
 60 54  2  0
 61 56  2  0
 62 55  1  0
 63 53  1  0
 65 67  2  0
 66 65  1  0
 68 66  1  0
 69 78  2  0
 69 74  1  0
 70 66  1  0
 70 74  1  0
 71 70  1  0
 72 73  1  0
 72 71  1  0
 73 69  1  0
 74 75  2  0
 75 76  1  0
 77 76  2  0
 78 77  1  0
 79 53  1  0
 79 80  1  0
 79 89  1  0
 80 83  1  0
 81 85  1  0
 81 80  1  0
 82 81  2  0
 85 84  1  0
 87 85  1  0
 87 88  1  0
 87 86  1  0
 89 92  1  1
 89 90  1  0
 91 89  1  0
M  ISO  4  12 100  13 100  51 101  52 101
M  END
>  <TORSDO>  (41) 
F 21

>  <SCORE>  (41) 
-12.992

>  <name>  (41) 
40

>  <ligand_id>  (41) 
40

>  <original_smiles>  (41) 
[H]N=C(c1c([H])c([H])c(C([H])=C([H])C(=O)N2C([H])([H])C([H])([H])C([H])([H])C([H])(n3nc(-c4c([H])c([H])c(Oc5c([H])c([H])c(F)c([H])c5F)c([H])c4[H])c(C(=O)N([H])[H])c3N([H])[H])C2([H])[H])c([H])c1C([H])([H])[H])C([H])([H])C([H])([H])C([H])([H])Oc1c([H])c([H])c2c(c1[H])C([H])([H])N(C(=O)C([H])(N([H])C(=O)C([H])(N([H])C([H])([H])[H])C([H])([H])[H])C(C([H])([H])[H])(C([H])([H])[H])C([H])([H])[H])C([H])(C(=O)N([H])C1([H])c3c([H])c([H])c([H])c([H])c3C([H])([H])C([H])([H])C1([H])[H])C2([H])[H]

>  <smiles>  (41) 
[H]N=C(c1c([H])c([H])c(C([H])=C([H])C(=O)N2C([H])([H])C([H])([H])C([H])([H])C([H])(n3nc(-c4c([H])c([H])c(Oc5c([H])c([H])c(F)c([H])c5F)c([H])c4[H])c(C(=O)N([H])[H])c3N([H])[H])C2([H])[H])c([H])c1C([H])([H])[H])C([H])([H])C([H])([H])C([H])([H])Oc1c([H])c([H])c2c(c1[H])C([H])([H])N(C(=O)C([H])(N([H])C(=O)C([H])(N([H])C([H])([H])[H])C([H])([H])[H])C(C([H])([H])[H])(C([H])([H])[H])C([H])([H])[H])C([H])(C(=O)N([H])C1([H])c3c([H])c([H])c([H])c([H])c3C([H])([H])C([H])([H])C1([H])[H])C2([H])[H]

$$$$
41:0:0
     RDKit          3D

 97105  0  0  1  0  0  0  0  0999 V2000
  -28.1790  -19.9130   17.9020 C   0  0  0  0  0  0  0  0  0  0  0  0
  -27.8590  -19.5780   16.6830 N   0  0  0  0  0  4  0  0  0  0  0  0
  -27.9620  -18.6240   16.3420 H   0  0  0  0  0  0  0  0  0  0  0  0
  -27.4590  -20.2190   16.0070 H   0  0  0  0  0  0  0  0  0  0  0  0
  -29.8870  -18.1460   18.2790 C   0  0  0  0  0  3  0  0  0  0  0  0
  -30.3800  -17.0120   18.9480 C   0  0  0  0  0  3  0  0  0  0  0  0
  -28.5840  -17.2060   20.5800 C   0  0  0  0  0  3  0  0  0  0  0  0
  -28.7260  -18.8070   18.7320 C   0  0  0  0  0  0  0  0  0  0  0  0
  -28.0830  -18.3500   19.9150 C   0  0  0  0  0  0  0  0  0  0  0  0
  -29.7100  -16.5090   20.0900 C   0  0  0  0  0  0  0  0  0  0  0  0
  -26.8390  -19.0350   20.4730 C   0  0  0  0  0  1  0  0  0  0  0  0
  -30.7690  -14.2890   20.1710 C   0  0  0  0  0  0  0  0  0  0  0  0
  -30.3870  -12.1900   18.9630 C   0  0  0  0  0  2  0  0  0  0  0  0
  -29.3970  -12.4890   17.8170 C   0  0  0  0  0  2  0  0  0  0  0  0
  -27.9380  -12.3780   18.3040 C   0  0  0  0  0  2  0  0  0  0  0  0
  -27.6810  -13.1590   19.6220 C   0  0  0  0  0  3  0  0  0  0  0  0
  -28.7740  -12.8340   20.6670 C   0  0  0  0  0  2  0  0  0  0  0  0
  -30.0890  -13.1200   20.0610 N   0  0  0  0  0  0  0  0  0  0  0  0
  -31.8830  -14.4820   19.6700 O   0  0  0  0  0  0  0  0  0  0  0  0
  -30.0640  -15.2850   20.7290 N   0  0  0  0  0  0  0  0  0  0  0  0
  -29.3640  -14.9440   21.3710 H   0  0  0  0  0  0  0  0  0  0  0  0
  -25.3170  -13.7950   20.4250 C   0  0  0  0  0  0  0  0  0  0  0  0
  -24.2540  -13.0330   20.8300 C   0  0  0  0  0  0  0  0  0  0  0  0
  -24.6960  -11.6760   20.7720 C   0  0  0  0  0  0  0  0  0  0  0  0
  -26.3420  -12.9020   20.1470 N   0  0  0  0  0  0  0  0  0  0  0  0
  -25.9720  -11.6230   20.4120 N   0  0  0  0  0  0  0  0  0  0  0  0
  -23.9640  -10.4200   20.9850 C   0  0  0  0  0  0  0  0  0  0  0  0
  -24.4110   -9.4500   21.9080 C   0  0  0  0  0  3  0  0  0  0  0  0
  -23.6780   -8.2600   22.1070 C   0  0  0  0  0  3  0  0  0  0  0  0
  -22.4860   -8.0310   21.3800 C   0  0  0  0  0  0  0  0  0  0  0  0
  -22.0570   -8.9910   20.4470 C   0  0  0  0  0  3  0  0  0  0  0  0
  -22.7910  -10.1720   20.2460 C   0  0  0  0  0  3  0  0  0  0  0  0
  -21.7240   -6.8930   21.4890 O   0  0  0  0  0  0  0  0  0  0  0  0
  -21.6830   -6.1620   22.6490 C   0  0  0  0  0  0  0  0  0  0  0  0
  -21.2690   -6.7310   23.8740 C   0  0  0  0  0  3  0  0  0  0  0  0
  -21.1730   -5.9260   25.0270 C   0  0  0  0  0  3  0  0  0  0  0  0
  -21.4820   -4.5550   24.9570 C   0  0  0  0  0  0  0  0  0  0  0  0
  -21.8910   -3.9860   23.7380 C   0  0  0  0  0  3  0  0  0  0  0  0
  -21.9880   -4.7880   22.5880 C   0  0  0  0  0  0  0  0  0  0  0  0
  -22.3620   -4.2310   21.4100 F   0  0  0  0  0  0  0  0  0  0  0  0
  -21.3830   -3.7800   26.0630 F   0  0  0  0  0  0  0  0  0  0  0  0
  -22.8750  -13.5260   21.1620 C   0  0  0  0  0  0  0  0  0  0  0  0
  -22.1740  -12.8380   22.0540 N   0  0  0  0  0  0  0  0  0  0  0  0
  -22.4270  -14.5590   20.6640 O   0  0  0  0  0  0  0  0  0  0  0  0
  -22.5480  -12.0030   22.4830 H   0  0  0  0  0  0  0  0  0  0  0  0
  -21.2520  -13.1520   22.3220 H   0  0  0  0  0  0  0  0  0  0  0  0
  -25.4910  -15.1630   20.2510 N   0  0  0  0  0  0  0  0  0  0  0  0
  -24.7320  -15.8210   20.3920 H   0  0  0  0  0  0  0  0  0  0  0  0
  -26.3270  -15.5910   19.8770 H   0  0  0  0  0  0  0  0  0  0  0  0
  -27.5060  -22.1480   17.6930 C   0  0  0  0  0  3  0  0  0  0  0  0
  -27.9870  -21.1800   18.3770 N   0  0  0  0  0  0  0  0  0  0  0  0
  -27.2740  -23.5370   18.2420 C   0  0  0  0  0  2  0  0  0  0  0  0
  -28.5600  -24.3900   18.3090 C   0  0  0  0  0  2  0  0  0  0  0  0
  -30.2670  -23.8240   20.0500 C   0  0  0  0  0  2  0  0  0  0  0  0
  -29.1500  -24.4840   19.7060 C   0  0  0  0  0  0  0  0  0  0  0  0
  -28.4070  -25.3770   20.6840 C   0  0  0  0  0  2  0  0  0  0  0  0
  -28.4550  -26.7340   20.2490 O   0  0  0  0  0  0  0  0  0  0  0  0
  -24.4970  -31.8420   23.1530 C   0  0  0  0  0  0  0  0  0  0  0  0
  -27.2620  -27.4110   20.2080 C   0  0  0  0  0  0  0  0  0  0  0  0
  -23.3470  -30.4170   21.4870 C   0  0  0  0  0  3  0  0  0  0  0  0
  -24.8520  -28.8750   20.1260 C   0  0  0  0  0  0  0  0  0  0  0  0
  -25.8710  -30.8000   21.3570 C   0  0  0  0  0  2  0  0  0  0  0  0
  -25.9850  -29.4240   20.7390 C   0  0  0  0  0  0  0  0  0  0  0  0
  -27.1950  -28.6990   20.7740 C   0  0  0  0  0  3  0  0  0  0  0  0
  -26.1150  -26.8690   19.5840 C   0  0  0  0  0  3  0  0  0  0  0  0
  -24.9110  -27.5950   19.5450 C   0  0  0  0  0  3  0  0  0  0  0  0
  -23.6020  -29.7220   20.1220 C   0  0  0  0  0  2  0  0  0  0  0  0
  -24.5880  -31.0340   22.0590 N   0  0  0  0  0  0  0  0  0  0  0  0
  -23.3990  -32.1120   23.6590 O   0  0  0  0  0  0  0  0  0  0  0  0
  -22.6760  -29.4000   22.4380 C   0  0  0  0  0  0  0  0  0  0  0  0
  -21.3530  -29.2230   22.2850 N   0  0  0  0  0  0  0  0  0  0  0  0
  -23.3410  -28.7730   23.2660 O   0  0  0  0  0  0  0  0  0  0  0  0
  -20.8790  -29.7810   21.5880 H   0  0  0  0  0  0  0  0  0  0  0  0
  -17.9590  -28.0770   22.7410 C   0  0  0  0  0  0  0  0  0  0  0  0
  -20.5160  -28.2910   23.0390 C   0  0  0  0  0  3  0  0  0  0  0  0
  -20.6030  -26.8640   22.4520 C   0  0  0  0  0  2  0  0  0  0  0  0
  -19.5070  -26.5680   21.4250 C   0  0  0  0  0  2  0  0  0  0  0  0
  -18.1210  -26.7290   22.0570 C   0  0  0  0  0  2  0  0  0  0  0  0
  -19.0840  -28.8170   23.1880 C   0  0  0  0  0  0  0  0  0  0  0  0
  -18.8810  -30.0800   23.7860 C   0  0  0  0  0  3  0  0  0  0  0  0
  -17.5830  -30.6020   23.9410 C   0  0  0  0  0  3  0  0  0  0  0  0
  -16.4710  -29.8570   23.5100 C   0  0  0  0  0  3  0  0  0  0  0  0
  -16.6600  -28.5970   22.9170 C   0  0  0  0  0  3  0  0  0  0  0  0
  -25.7630  -32.4830   23.8040 C   0  0  0  0  0  3  0  0  0  0  0  0
  -25.4330  -33.8760   24.1340 N   0  0  0  0  0  0  0  0  0  0  0  0
  -25.7730  -34.9340   23.3880 C   0  0  0  0  0  0  0  0  0  0  0  0
  -26.4710  -34.8420   22.3720 O   0  0  0  0  0  0  0  0  0  0  0  0
  -24.8170  -34.0200   24.9210 H   0  0  0  0  0  0  0  0  0  0  0  0
  -24.0400  -36.7100   22.9860 C   0  0  0  0  0  1  0  0  0  0  0  0
  -25.2580  -36.3140   23.8360 C   0  0  0  0  0  3  0  0  0  0  0  0
  -27.3560  -37.2140   24.7400 C   0  0  0  0  0  1  0  0  0  0  0  0
  -26.2840  -37.3770   23.7630 N   0  0  0  0  0  0  0  0  0  0  0  0
  -25.8640  -38.2930   23.9020 H   0  0  0  0  0  0  0  0  0  0  0  0
  -26.2640  -31.7080   25.0850 C   0  0  1  0  0  0  0  0  0  0  0  0
  -25.1530  -31.4480   26.1280 C   0  0  0  0  0  1  0  0  0  0  0  0
  -26.8710  -30.3410   24.6890 C   0  0  0  0  0  1  0  0  0  0  0  0
  -27.3900  -32.5110   25.7780 C   0  0  0  0  0  1  0  0  0  0  0  0
  1 51  1  0
  1  8  1  0
  2  1  2  0
  3  2  1  0
  4  2  1  0
  5  8  2  0
  5  6  1  0
  6 10  2  0
  8  9  1  0
  9 11  1  0
  9  7  2  0
 10  7  1  0
 10 20  1  0
 12 20  1  0
 13 18  1  0
 14 15  1  0
 14 13  1  0
 16 15  1  0
 16 25  1  0
 16 17  1  0
 18 12  1  0
 18 17  1  0
 19 12  2  0
 20 21  1  0
 22 23  2  0
 23 42  1  0
 24 23  1  0
 24 27  1  0
 25 26  1  0
 25 22  1  0
 26 24  2  0
 27 28  1  0
 28 29  2  0
 30 33  1  0
 30 29  1  0
 31 30  2  0
 32 31  1  0
 32 27  2  0
 33 34  1  0
 34 35  1  0
 35 36  2  0
 37 36  1  0
 37 41  1  0
 38 37  2  0
 39 34  2  0
 39 38  1  0
 40 39  1  0
 42 43  1  0
 43 46  1  0
 43 45  1  0
 44 42  2  0
 47 48  1  0
 47 22  1  0
 49 47  1  0
 50 52  1  0
 50 51  2  0
 52 53  1  0
 53 55  1  0
 55 54  2  0
 55 56  1  0
 57 56  1  0
 58 69  2  0
 59 57  1  0
 59 64  1  0
 60 68  1  0
 60 70  1  0
 61 63  1  0
 62 68  1  0
 63 64  2  0
 63 62  1  0
 65 59  2  0
 66 65  1  0
 66 61  2  0
 67 61  1  0
 67 60  1  0
 68 58  1  0
 70 72  2  0
 71 70  1  0
 73 71  1  0
 74 83  2  0
 74 79  1  0
 75 71  1  0
 75 79  1  0
 76 75  1  0
 77 78  1  0
 77 76  1  0
 78 74  1  0
 79 80  2  0
 80 81  1  0
 82 81  2  0
 83 82  1  0
 84 58  1  0
 84 85  1  0
 84 94  1  0
 85 88  1  0
 86 90  1  0
 86 85  1  0
 87 86  2  0
 90 89  1  0
 92 90  1  0
 92 93  1  0
 92 91  1  0
 94 97  1  1
 94 95  1  0
 96 94  1  0
M  ISO  4  12 100  20 100  56 101  57 101
M  END
>  <TORSDO>  (42) 
F 22

>  <SCORE>  (42) 
-12.544

>  <name>  (42) 
41

>  <ligand_id>  (42) 
41

>  <original_smiles>  (42) 
[H]C(=NC(c1c([H])c([H])c(N([H])C(=O)N2C([H])([H])C([H])([H])C([H])([H])C([H])(n3nc(-c4c([H])c([H])c(Oc5c([H])c([H])c(F)c([H])c5F)c([H])c4[H])c(C(=O)N([H])[H])c3N([H])[H])C2([H])[H])c([H])c1C([H])([H])[H])=[N+]([H])[H])C([H])([H])C([H])([H])C(=C([H])[H])C([H])([H])Oc1c([H])c([H])c2c(c1[H])C([H])([H])N(C(=O)C([H])(N([H])C(=O)C([H])(N([H])C([H])([H])[H])C([H])([H])[H])C(C([H])([H])[H])(C([H])([H])[H])C([H])([H])[H])C([H])(C(=O)N([H])C1([H])c3c([H])c([H])c([H])c([H])c3C([H])([H])C([H])([H])C1([H])[H])C2([H])[H]

>  <smiles>  (42) 
[H]C(=NC(c1c([H])c([H])c(N([H])C(=O)N2C([H])([H])C([H])([H])C([H])([H])C([H])(n3nc(-c4c([H])c([H])c(Oc5c([H])c([H])c(F)c([H])c5F)c([H])c4[H])c(C(=O)N([H])[H])c3N([H])[H])C2([H])[H])c([H])c1C([H])([H])[H])=[N+]([H])[H])C([H])([H])C([H])([H])C(=C([H])[H])C([H])([H])Oc1c([H])c([H])c2c(c1[H])C([H])([H])N(C(=O)C([H])(N([H])C(=O)C([H])(N([H])C([H])([H])[H])C([H])([H])[H])C(C([H])([H])[H])(C([H])([H])[H])C([H])([H])[H])C([H])(C(=O)N([H])C1([H])c3c([H])c([H])c([H])c([H])c3C([H])([H])C([H])([H])C1([H])[H])C2([H])[H]

$$$$
42:0:0
     RDKit          3D

 93101  0  0  1  0  0  0  0  0999 V2000
  -29.6300  -19.8350   21.4880 C   0  0  0  0  0  3  0  0  0  0  0  0
  -29.6040  -18.4180   21.4900 C   0  0  0  0  0  3  0  0  0  0  0  0
  -31.1000  -19.7490   19.6100 C   0  0  0  0  0  3  0  0  0  0  0  0
  -30.3620  -20.5400   20.5200 C   0  0  0  0  0  0  0  0  0  0  0  0
  -30.2350  -17.5820   20.5050 C   0  0  0  0  0  0  0  0  0  0  0  0
  -31.0420  -18.3150   19.5520 C   0  0  0  0  0  0  0  0  0  0  0  0
  -29.7730  -16.0800   20.5360 C   0  0  0  0  0  0  0  0  0  0  0  0
  -28.5690  -15.9520   20.9240 N   0  0  0  0  0  0  0  0  0  0  0  0
  -28.1760  -16.8620   21.1290 H   0  0  0  0  0  0  0  0  0  0  0  0
  -30.6410  -14.7790   20.1400 C   0  0  0  0  0  0  0  0  0  0  0  0
  -30.4040  -12.5730   18.9830 C   0  0  0  0  0  2  0  0  0  0  0  0
  -29.3810  -12.6890   17.8250 C   0  0  0  0  0  2  0  0  0  0  0  0
  -27.9350  -12.4740   18.3240 C   0  0  0  0  0  2  0  0  0  0  0  0
  -27.6310  -13.3030   19.5950 C   0  0  0  0  0  3  0  0  0  0  0  0
  -28.7530  -13.0840   20.6380 C   0  0  0  0  0  2  0  0  0  0  0  0
  -30.0150  -13.5460   20.0300 N   0  0  0  0  0  0  0  0  0  0  0  0
  -31.8250  -14.8740   19.8040 O   0  0  0  0  0  0  0  0  0  0  0  0
  -25.2850  -13.9010   20.4610 C   0  0  0  0  0  0  0  0  0  0  0  0
  -24.2320  -13.1240   20.8570 C   0  0  0  0  0  0  0  0  0  0  0  0
  -24.6860  -11.7720   20.7640 C   0  0  0  0  0  0  0  0  0  0  0  0
  -26.3100  -13.0210   20.1440 N   0  0  0  0  0  0  0  0  0  0  0  0
  -25.9550  -11.7340   20.3870 N   0  0  0  0  0  0  0  0  0  0  0  0
  -23.9680  -10.5070   20.9550 C   0  0  0  0  0  0  0  0  0  0  0  0
  -24.4320   -9.5290   21.8610 C   0  0  0  0  0  3  0  0  0  0  0  0
  -23.7200   -8.3240   22.0390 C   0  0  0  0  0  3  0  0  0  0  0  0
  -22.5290   -8.0920   21.3120 C   0  0  0  0  0  0  0  0  0  0  0  0
  -22.0830   -9.0600   20.3950 C   0  0  0  0  0  3  0  0  0  0  0  0
  -22.7960  -10.2560   20.2160 C   0  0  0  0  0  3  0  0  0  0  0  0
  -21.7810   -6.9440   21.4020 O   0  0  0  0  0  0  0  0  0  0  0  0
  -21.7350   -6.2060   22.5580 C   0  0  0  0  0  0  0  0  0  0  0  0
  -21.2710   -6.7510   23.7750 C   0  0  0  0  0  3  0  0  0  0  0  0
  -21.1780   -5.9370   24.9200 C   0  0  0  0  0  3  0  0  0  0  0  0
  -21.5340   -4.5760   24.8500 C   0  0  0  0  0  0  0  0  0  0  0  0
  -21.9890   -4.0290   23.6360 C   0  0  0  0  0  3  0  0  0  0  0  0
  -22.0870   -4.8430   22.4940 C   0  0  0  0  0  0  0  0  0  0  0  0
  -22.5040   -4.3070   21.3230 F   0  0  0  0  0  0  0  0  0  0  0  0
  -21.4330   -3.7920   25.9470 F   0  0  0  0  0  0  0  0  0  0  0  0
  -22.8540  -13.5950   21.2240 C   0  0  0  0  0  0  0  0  0  0  0  0
  -22.1790  -12.8750   22.1110 N   0  0  0  0  0  0  0  0  0  0  0  0
  -22.3870  -14.6360   20.7590 O   0  0  0  0  0  0  0  0  0  0  0  0
  -22.5710  -12.0330   22.5080 H   0  0  0  0  0  0  0  0  0  0  0  0
  -21.2560  -13.1680   22.4010 H   0  0  0  0  0  0  0  0  0  0  0  0
  -25.4580  -15.2760   20.3340 N   0  0  0  0  0  0  0  0  0  0  0  0
  -24.7560  -15.9410   20.6350 H   0  0  0  0  0  0  0  0  0  0  0  0
  -26.3910  -15.6750   20.2770 H   0  0  0  0  0  0  0  0  0  0  0  0
  -32.4720  -18.2780   17.4450 C   0  0  0  0  0  2  0  0  0  0  0  0
  -31.8060  -17.6790   18.4500 C   0  0  0  0  0  3  0  0  0  0  0  0
  -30.4080  -22.0450   20.4710 C   0  0  0  0  0  3  0  0  0  0  0  0
  -29.3590  -22.9100   20.3550 C   0  0  0  0  0  3  0  0  0  0  0  0
  -29.5060  -24.4100   20.3630 C   0  0  0  0  0  0  0  0  0  0  0  0
  -30.5170  -24.9620   20.8170 O   0  0  0  0  0  0  0  0  0  0  0  0
  -28.3580  -25.3020   19.7920 C   0  0  0  0  0  2  0  0  0  0  0  0
  -28.4240  -26.6980   20.2120 O   0  0  0  0  0  0  0  0  0  0  0  0
  -24.5700  -31.9140   23.2540 C   0  0  0  0  0  0  0  0  0  0  0  0
  -27.2540  -27.4550   20.1670 C   0  0  0  0  0  0  0  0  0  0  0  0
  -23.3810  -30.5160   21.5960 C   0  0  0  0  0  3  0  0  0  0  0  0
  -24.8520  -28.9930   20.1650 C   0  0  0  0  0  0  0  0  0  0  0  0
  -25.9120  -30.8710   21.4230 C   0  0  0  0  0  2  0  0  0  0  0  0
  -26.0070  -29.5010   20.7740 C   0  0  0  0  0  0  0  0  0  0  0  0
  -27.2060  -28.7410   20.7710 C   0  0  0  0  0  3  0  0  0  0  0  0
  -26.0780  -26.9830   19.5370 C   0  0  0  0  0  3  0  0  0  0  0  0
  -24.8880  -27.7360   19.5420 C   0  0  0  0  0  3  0  0  0  0  0  0
  -23.6020  -29.8460   20.2140 C   0  0  0  0  0  2  0  0  0  0  0  0
  -24.6380  -31.1170   22.1480 N   0  0  0  0  0  0  0  0  0  0  0  0
  -23.4840  -32.1800   23.7870 O   0  0  0  0  0  0  0  0  0  0  0  0
  -22.7260  -29.4900   22.5470 C   0  0  0  0  0  0  0  0  0  0  0  0
  -21.4020  -29.3040   22.4120 N   0  0  0  0  0  0  0  0  0  0  0  0
  -23.4060  -28.8570   23.3600 O   0  0  0  0  0  0  0  0  0  0  0  0
  -20.9120  -29.8670   21.7280 H   0  0  0  0  0  0  0  0  0  0  0  0
  -18.0290  -28.1050   22.9010 C   0  0  0  0  0  0  0  0  0  0  0  0
  -20.5850  -28.3570   23.1720 C   0  0  0  0  0  3  0  0  0  0  0  0
  -20.6850  -26.9320   22.5810 C   0  0  0  0  0  2  0  0  0  0  0  0
  -19.5840  -26.6220   21.5620 C   0  0  0  0  0  2  0  0  0  0  0  0
  -18.2010  -26.7640   22.2060 C   0  0  0  0  0  2  0  0  0  0  0  0
  -19.1470  -28.8610   23.3390 C   0  0  0  0  0  0  0  0  0  0  0  0
  -18.9310  -30.1170   23.9440 C   0  0  0  0  0  3  0  0  0  0  0  0
  -17.6270  -30.6190   24.1170 C   0  0  0  0  0  3  0  0  0  0  0  0
  -16.5230  -29.8590   23.6940 C   0  0  0  0  0  3  0  0  0  0  0  0
  -16.7240  -28.6040   23.0940 C   0  0  0  0  0  3  0  0  0  0  0  0
  -25.8490  -32.5480   23.8840 C   0  0  0  0  0  3  0  0  0  0  0  0
  -25.5360  -33.9470   24.2040 N   0  0  0  0  0  0  0  0  0  0  0  0
  -25.8520  -34.9960   23.4320 C   0  0  0  0  0  0  0  0  0  0  0  0
  -26.5110  -34.8870   22.3940 O   0  0  0  0  0  0  0  0  0  0  0  0
  -24.9520  -34.1080   25.0130 H   0  0  0  0  0  0  0  0  0  0  0  0
  -24.0990  -36.7660   23.0950 C   0  0  0  0  0  1  0  0  0  0  0  0
  -25.3620  -36.3840   23.8840 C   0  0  0  0  0  3  0  0  0  0  0  0
  -27.5000  -37.3040   24.6660 C   0  0  0  0  0  1  0  0  0  0  0  0
  -26.3820  -37.4450   23.7370 N   0  0  0  0  0  0  0  0  0  0  0  0
  -25.9670  -38.3640   23.8780 H   0  0  0  0  0  0  0  0  0  0  0  0
  -26.3550  -31.7820   25.1690 C   0  0  1  0  0  0  0  0  0  0  0  0
  -25.2500  -31.5420   26.2240 C   0  0  0  0  0  1  0  0  0  0  0  0
  -26.9490  -30.4060   24.7860 C   0  0  0  0  0  1  0  0  0  0  0  0
  -27.4980  -32.5810   25.8390 C   0  0  0  0  0  1  0  0  0  0  0  0
  1  2  1  0
  3  4  1  0
  4  1  2  0
  5  7  1  0
  5  2  2  0
  6  3  2  0
  6  5  1  0
  7  8  2  0
  8  9  1  0
 10  7  1  0
 11 16  1  0
 12 13  1  0
 12 11  1  0
 14 13  1  0
 14 21  1  0
 14 15  1  0
 16 10  1  0
 16 15  1  0
 17 10  2  0
 18 19  2  0
 19 38  1  0
 20 19  1  0
 20 23  1  0
 21 22  1  0
 21 18  1  0
 22 20  2  0
 23 24  1  0
 24 25  2  0
 26 29  1  0
 26 25  1  0
 27 26  2  0
 28 27  1  0
 28 23  2  0
 29 30  1  0
 30 31  1  0
 31 32  2  0
 33 32  1  0
 33 37  1  0
 34 33  2  0
 35 30  2  0
 35 34  1  0
 36 35  1  0
 38 39  1  0
 39 42  1  0
 39 41  1  0
 40 38  2  0
 43 18  1  0
 43 44  1  0
 45 43  1  0
 46 47  2  0
 47  6  1  0
 48  4  1  0
 49 50  1  0
 49 48  2  0
 50 51  2  0
 52 53  1  0
 52 50  1  0
 54 65  2  0
 55 53  1  0
 55 60  1  0
 56 64  1  0
 56 66  1  0
 57 63  1  0
 57 59  1  0
 58 64  1  0
 59 58  1  0
 60 59  2  0
 61 62  1  0
 61 55  2  0
 62 57  2  0
 63 56  1  0
 64 54  1  0
 66 68  2  0
 67 66  1  0
 69 67  1  0
 70 79  2  0
 70 75  1  0
 71 67  1  0
 71 75  1  0
 72 71  1  0
 73 74  1  0
 73 72  1  0
 74 70  1  0
 75 76  2  0
 76 77  1  0
 78 77  2  0
 79 78  1  0
 80 54  1  0
 80 81  1  0
 80 90  1  0
 81 84  1  0
 82 86  1  0
 82 81  1  0
 83 82  2  0
 86 85  1  0
 88 89  1  0
 88 86  1  0
 88 87  1  0
 90 93  1  1
 90 91  1  0
 92 90  1  0
M  ISO  4   7 100  10 100  52 101  53 101
M  END
>  <TORSDO>  (43) 
F 21

>  <SCORE>  (43) 
-12.986

>  <name>  (43) 
42

>  <ligand_id>  (43) 
42

>  <original_smiles>  (43) 
[H]N=C(C(=O)N1C([H])([H])C([H])([H])C([H])([H])C([H])(n2nc(-c3c([H])c([H])c(Oc4c([H])c([H])c(F)c([H])c4F)c([H])c3[H])c(C(=O)N([H])[H])c2N([H])[H])C1([H])[H])c1c([H])c([H])c(C([H])=C([H])C(=O)C([H])([H])Oc2c([H])c([H])c3c(c2[H])C([H])([H])N(C(=O)C([H])(N([H])C(=O)C([H])(N([H])C([H])([H])[H])C([H])([H])[H])C(C([H])([H])[H])(C([H])([H])[H])C([H])([H])[H])C([H])(C(=O)N([H])C2([H])c4c([H])c([H])c([H])c([H])c4C([H])([H])C([H])([H])C2([H])[H])C3([H])[H])c([H])c1C([H])=C([H])[H]

>  <smiles>  (43) 
[H]N=C(C(=O)N1C([H])([H])C([H])([H])C([H])([H])C([H])(n2nc(-c3c([H])c([H])c(Oc4c([H])c([H])c(F)c([H])c4F)c([H])c3[H])c(C(=O)N([H])[H])c2N([H])[H])C1([H])[H])c1c([H])c([H])c(C([H])=C([H])C(=O)C([H])([H])Oc2c([H])c([H])c3c(c2[H])C([H])([H])N(C(=O)C([H])(N([H])C(=O)C([H])(N([H])C([H])([H])[H])C([H])([H])[H])C(C([H])([H])[H])(C([H])([H])[H])C([H])([H])[H])C([H])(C(=O)N([H])C2([H])c4c([H])c([H])c([H])c([H])c4C([H])([H])C([H])([H])C2([H])[H])C3([H])[H])c([H])c1C([H])=C([H])[H]

$$$$
43:0:0
     RDKit          3D

 95103  0  0  1  0  0  0  0  0999 V2000
  -29.7010  -17.4250   19.5700 C   0  0  0  0  0  3  0  0  0  0  0  0
  -31.8680  -18.4810   19.0850 C   0  0  0  0  0  3  0  0  0  0  0  0
  -30.3060  -16.1560   19.6950 C   0  0  0  0  0  0  0  0  0  0  0  0
  -31.6870  -16.0670   19.2960 C   0  0  0  0  0  0  0  0  0  0  0  0
  -32.5300  -17.2380   19.2160 C   0  0  0  0  0  0  0  0  0  0  0  0
  -30.4580  -18.5570   19.1890 C   0  0  0  0  0  0  0  0  0  0  0  0
  -29.8230  -19.7310   18.9480 F   0  0  0  0  0  0  0  0  0  0  0  0
  -29.5350  -14.9440   20.2270 C   0  0  0  0  0  3  0  0  0  0  0  0
  -29.5430  -14.7540   21.4870 N   0  0  0  0  0  2  0  0  0  0  0  0
  -30.2190  -15.4020   21.8830 H   0  0  0  0  0  0  0  0  0  0  0  0
  -28.6280  -14.0590   19.3140 C   0  0  0  0  0  0  0  0  0  0  0  0
  -27.8060  -11.7310   19.5930 C   0  0  0  0  0  2  0  0  0  0  0  0
  -27.9090  -11.3370   21.0870 C   0  0  0  0  0  2  0  0  0  0  0  0
  -29.3000  -10.7430   21.4010 C   0  0  0  0  0  2  0  0  0  0  0  0
  -30.4460  -11.6320   20.8690 C   0  0  0  0  0  3  0  0  0  0  0  0
  -30.1980  -12.0770   19.4070 C   0  0  0  0  0  2  0  0  0  0  0  0
  -28.8810  -12.7090   19.3230 N   0  0  0  0  0  0  0  0  0  0  0  0
  -27.5410  -14.5200   18.9690 O   0  0  0  0  0  0  0  0  0  0  0  0
  -32.8910  -11.6100   21.6020 C   0  0  0  0  0  0  0  0  0  0  0  0
  -33.8410  -10.6220   21.6040 C   0  0  0  0  0  0  0  0  0  0  0  0
  -33.1940   -9.4850   21.0430 C   0  0  0  0  0  0  0  0  0  0  0  0
  -31.7560  -11.0470   21.0450 N   0  0  0  0  0  0  0  0  0  0  0  0
  -31.9590   -9.7740   20.6490 N   0  0  0  0  0  0  0  0  0  0  0  0
  -33.6540   -8.1060   20.9120 C   0  0  0  0  0  0  0  0  0  0  0  0
  -34.3500   -7.6810   19.7620 C   0  0  0  0  0  3  0  0  0  0  0  0
  -34.7880   -6.3450   19.6530 C   0  0  0  0  0  3  0  0  0  0  0  0
  -34.5310   -5.4300   20.7020 C   0  0  0  0  0  0  0  0  0  0  0  0
  -33.8170   -5.8570   21.8370 C   0  0  0  0  0  3  0  0  0  0  0  0
  -33.3790   -7.1860   21.9410 C   0  0  0  0  0  3  0  0  0  0  0  0
  -34.9060   -4.1110   20.6790 O   0  0  0  0  0  0  0  0  0  0  0  0
  -36.0060   -3.6900   19.9780 C   0  0  0  0  0  0  0  0  0  0  0  0
  -37.2880   -3.6330   20.5650 C   0  0  0  0  0  3  0  0  0  0  0  0
  -38.3800   -3.1310   19.8260 C   0  0  0  0  0  3  0  0  0  0  0  0
  -38.1880   -2.6720   18.5100 C   0  0  0  0  0  0  0  0  0  0  0  0
  -36.9090   -2.7180   17.9290 C   0  0  0  0  0  3  0  0  0  0  0  0
  -35.8220   -3.2270   18.6610 C   0  0  0  0  0  0  0  0  0  0  0  0
  -34.5880   -3.2550   18.1030 F   0  0  0  0  0  0  0  0  0  0  0  0
  -39.2300   -2.1780   17.8000 F   0  0  0  0  0  0  0  0  0  0  0  0
  -35.2160  -10.7190   22.1960 C   0  0  0  0  0  0  0  0  0  0  0  0
  -36.2350  -10.3580   21.4150 N   0  0  0  0  0  0  0  0  0  0  0  0
  -35.4030  -11.1510   23.3320 O   0  0  0  0  0  0  0  0  0  0  0  0
  -36.0650   -9.9680   20.5020 H   0  0  0  0  0  0  0  0  0  0  0  0
  -37.1850  -10.4040   21.7610 H   0  0  0  0  0  0  0  0  0  0  0  0
  -32.8950  -12.9030   22.0600 N   0  0  0  0  0  0  0  0  0  0  0  0
  -33.6680  -13.3230   22.5510 H   0  0  0  0  0  0  0  0  0  0  0  0
  -32.0350  -13.4400   22.0850 H   0  0  0  0  0  0  0  0  0  0  0  0
  -32.0200  -14.8100   18.4700 C   0  0  0  0  0  2  0  0  0  0  0  0
  -34.1450  -14.0150   17.4460 C   0  0  0  0  0  1  0  0  0  0  0  0
  -33.2820  -13.9880   18.7240 C   0  0  0  0  0  2  0  0  0  0  0  0
  -33.9370  -17.1850   19.2060 O   0  0  0  0  0  0  0  0  0  0  0  0
  -34.6990  -18.3980   19.5340 C   0  0  0  0  0  2  0  0  0  0  0  0
  -36.1860  -18.0870   19.9160 C   0  0  0  0  0  2  0  0  0  0  0  0
  -36.9500  -18.8360   21.0840 C   0  0  0  0  0  2  0  0  0  0  0  0
  -36.4480  -20.2260   21.5870 C   0  0  0  0  0  2  0  0  0  0  0  0
  -37.5340  -21.0480   22.0940 O   0  0  0  0  0  0  0  0  0  0  0  0
  -39.2110  -27.8710   22.9990 C   0  0  0  0  0  0  0  0  0  0  0  0
  -37.6900  -22.2700   21.4800 C   0  0  0  0  0  0  0  0  0  0  0  0
  -37.9470  -27.3370   20.9490 C   0  0  0  0  0  3  0  0  0  0  0  0
  -37.8240  -24.8530   20.3370 C   0  0  0  0  0  0  0  0  0  0  0  0
  -39.5290  -25.6170   21.9940 C   0  0  0  0  0  2  0  0  0  0  0  0
  -38.6330  -24.5330   21.4350 C   0  0  0  0  0  0  0  0  0  0  0  0
  -38.5700  -23.2420   22.0110 C   0  0  0  0  0  3  0  0  0  0  0  0
  -36.9200  -22.5950   20.3390 C   0  0  0  0  0  3  0  0  0  0  0  0
  -36.9740  -23.8840   19.7740 C   0  0  0  0  0  3  0  0  0  0  0  0
  -37.9190  -26.2730   19.8170 C   0  0  0  0  0  2  0  0  0  0  0  0
  -38.8970  -26.9550   22.0400 N   0  0  0  0  0  0  0  0  0  0  0  0
  -38.7530  -29.0230   22.9550 O   0  0  0  0  0  0  0  0  0  0  0  0
  -36.4980  -27.5760   21.4350 C   0  0  0  0  0  0  0  0  0  0  0  0
  -35.6560  -28.1250   20.5450 N   0  0  0  0  0  0  0  0  0  0  0  0
  -36.1440  -27.2440   22.5690 O   0  0  0  0  0  0  0  0  0  0  0  0
  -36.0190  -28.3780   19.6320 H   0  0  0  0  0  0  0  0  0  0  0  0
  -32.5010  -28.7120   18.9000 C   0  0  0  0  0  0  0  0  0  0  0  0
  -34.2420  -28.4350   20.7950 C   0  0  0  0  0  3  0  0  0  0  0  0
  -33.4340  -27.1520   21.1690 C   0  0  0  0  0  2  0  0  0  0  0  0
  -32.8220  -26.4360   19.9710 C   0  0  0  0  0  2  0  0  0  0  0  0
  -31.8570  -27.3850   19.2500 C   0  0  0  0  0  2  0  0  0  0  0  0
  -33.6320  -29.2010   19.6160 C   0  0  0  0  0  0  0  0  0  0  0  0
  -34.2240  -30.4180   19.2050 C   0  0  0  0  0  3  0  0  0  0  0  0
  -33.6820  -31.1360   18.1210 C   0  0  0  0  0  3  0  0  0  0  0  0
  -32.5480  -30.6620   17.4370 C   0  0  0  0  0  3  0  0  0  0  0  0
  -31.9600  -29.4480   17.8290 C   0  0  0  0  0  3  0  0  0  0  0  0
  -40.1770  -27.5310   24.1720 C   0  0  0  0  0  3  0  0  0  0  0  0
  -41.1070  -28.6580   24.3300 N   0  0  0  0  0  0  0  0  0  0  0  0
  -42.3340  -28.7110   23.7980 C   0  0  0  0  0  0  0  0  0  0  0  0
  -42.8340  -27.7720   23.1730 O   0  0  0  0  0  0  0  0  0  0  0  0
  -40.7450  -29.4870   24.7840 H   0  0  0  0  0  0  0  0  0  0  0  0
  -43.2900  -30.7180   22.6330 C   0  0  0  0  0  1  0  0  0  0  0  0
  -43.1320  -30.0150   23.9910 C   0  0  0  0  0  3  0  0  0  0  0  0
  -44.3980  -29.4460   26.0180 C   0  0  0  0  0  1  0  0  0  0  0  0
  -44.4630  -29.8040   24.6040 N   0  0  0  0  0  0  0  0  0  0  0  0
  -45.0360  -30.6400   24.5130 H   0  0  0  0  0  0  0  0  0  0  0  0
  -39.4280  -27.2390   25.5320 C   0  0  1  0  0  0  0  0  0  0  0  0
  -39.0990  -28.5100   26.3530 C   0  0  0  0  0  1  0  0  0  0  0  0
  -38.1000  -26.5000   25.2660 C   0  0  0  0  0  1  0  0  0  0  0  0
  -40.2790  -26.3050   26.4200 C   0  0  0  0  0  1  0  0  0  0  0  0
  1  3  1  0
  2  6  1  0
  2  5  2  0
  3  8  1  0
  4  3  2  0
  5  4  1  0
  6  1  2  0
  7  6  1  0
  8 11  1  0
  8  9  1  0
  9 10  1  0
 11 17  1  0
 12 13  1  0
 13 14  1  0
 15 16  1  0
 15 22  1  0
 15 14  1  0
 17 16  1  0
 17 12  1  0
 18 11  2  0
 19 20  2  0
 19 44  1  0
 20 39  1  0
 21 20  1  0
 22 19  1  0
 23 21  2  0
 23 22  1  0
 24 21  1  0
 24 29  1  0
 25 24  2  0
 26 25  1  0
 26 27  2  0
 27 28  1  0
 28 29  2  0
 30 27  1  0
 31 32  1  0
 31 30  1  0
 33 32  2  0
 34 33  1  0
 35 34  2  0
 35 36  1  0
 36 31  2  0
 37 36  1  0
 38 34  1  0
 39 41  2  0
 40 43  1  0
 40 39  1  0
 42 40  1  0
 44 46  1  0
 44 45  1  0
 47 49  1  0
 47  4  1  0
 48 49  1  0
 50  5  1  0
 50 51  1  0
 51 52  1  0
 52 53  1  0
 53 54  1  0
 54 55  1  0
 57 62  1  0
 57 55  1  0
 58 68  1  0
 58 66  1  0
 59 61  1  0
 60 66  1  0
 61 60  1  0
 61 62  2  0
 63 57  2  0
 64 59  2  0
 64 63  1  0
 65 59  1  0
 65 58  1  0
 66 56  1  0
 67 56  2  0
 68 70  2  0
 69 68  1  0
 71 69  1  0
 72 76  1  0
 72 77  1  0
 73 69  1  0
 73 74  1  0
 75 74  1  0
 76 75  1  0
 77 73  1  0
 78 77  2  0
 79 78  1  0
 80 81  1  0
 80 79  2  0
 81 72  2  0
 82 56  1  0
 82 83  1  0
 82 92  1  0
 83 86  1  0
 84 88  1  0
 84 83  1  0
 85 84  2  0
 88 87  1  0
 88 90  1  0
 90 89  1  0
 91 90  1  0
 92 93  1  1
 92 95  1  0
 94 92  1  0
M  ISO  4   8 100  11 100  54 101  55 101
M  END
>  <TORSDO>  (44) 
F 24

>  <SCORE>  (44) 
-5.543

>  <name>  (44) 
43

>  <ligand_id>  (44) 
43

>  <original_smiles>  (44) 
[H]N=C(C(=O)N1C([H])([H])C([H])([H])C([H])([H])C([H])(n2nc(-c3c([H])c([H])c(Oc4c([H])c([H])c(F)c([H])c4F)c([H])c3[H])c(C(=O)N([H])[H])c2N([H])[H])C1([H])[H])c1c([H])c(F)c([H])c(OC([H])([H])C([H])([H])C([H])([H])C([H])([H])Oc2c([H])c([H])c3c(c2[H])C([H])([H])N(C(=O)C([H])(N([H])C(=O)C([H])(N([H])C([H])([H])[H])C([H])([H])[H])C(C([H])([H])[H])(C([H])([H])[H])C([H])([H])[H])C([H])(C(=O)N([H])C2([H])c4c([H])c([H])c([H])c([H])c4C([H])([H])C([H])([H])C2([H])[H])C3([H])[H])c1C([H])([H])C([H])([H])C([H])([H])[H]

>  <smiles>  (44) 
[H]N=C(C(=O)N1C([H])([H])C([H])([H])C([H])([H])C([H])(n2nc(-c3c([H])c([H])c(Oc4c([H])c([H])c(F)c([H])c4F)c([H])c3[H])c(C(=O)N([H])[H])c2N([H])[H])C1([H])[H])c1c([H])c(F)c([H])c(OC([H])([H])C([H])([H])C([H])([H])C([H])([H])Oc2c([H])c([H])c3c(c2[H])C([H])([H])N(C(=O)C([H])(N([H])C(=O)C([H])(N([H])C([H])([H])[H])C([H])([H])[H])C(C([H])([H])[H])(C([H])([H])[H])C([H])([H])[H])C([H])(C(=O)N([H])C2([H])c4c([H])c([H])c([H])c([H])c4C([H])([H])C([H])([H])C2([H])[H])C3([H])[H])c1C([H])([H])C([H])([H])C([H])([H])[H]

$$$$
44:0:0
     RDKit          3D

 91 99  0  0  1  0  0  0  0  0999 V2000
  -29.9510  -21.9150   21.1200 O   0  0  0  0  0  0  0  0  0  0  0  0
  -29.5060  -19.6060   20.1360 C   0  0  0  0  0  3  0  0  0  0  0  0
  -29.9920  -18.3160   20.5700 C   0  0  0  0  0  0  0  0  0  0  0  0
  -30.6990  -18.5930   21.7160 C   0  0  0  0  0  0  0  0  0  0  0  0
  -29.9810  -20.5460   21.0200 C   0  0  0  0  0  0  0  0  0  0  0  0
  -31.4780  -17.7360   22.6580 C   0  0  0  0  0  1  0  0  0  0  0  0
  -30.7040  -19.9370   21.9940 O   0  0  0  0  0  0  0  0  0  0  0  0
  -29.8140  -16.9630   19.8470 C   0  0  0  0  0  2  0  0  0  0  0  0
  -30.6170  -14.6170   20.3070 C   0  0  0  0  0  0  0  0  0  0  0  0
  -30.3680  -12.4140   19.2210 C   0  0  0  0  0  2  0  0  0  0  0  0
  -29.4200  -12.6000   18.0160 C   0  0  0  0  0  2  0  0  0  0  0  0
  -27.9500  -12.4470   18.4500 C   0  0  0  0  0  2  0  0  0  0  0  0
  -27.6060  -13.2770   19.7130 C   0  0  0  0  0  3  0  0  0  0  0  0
  -28.6710  -13.0850   20.8200 C   0  0  0  0  0  2  0  0  0  0  0  0
  -29.9880  -13.4060   20.2440 N   0  0  0  0  0  0  0  0  0  0  0  0
  -31.7600  -14.7830   19.8730 O   0  0  0  0  0  0  0  0  0  0  0  0
  -29.8270  -15.6800   20.6040 N   0  0  0  0  0  0  0  0  0  0  0  0
  -28.9480  -15.4360   21.0320 H   0  0  0  0  0  0  0  0  0  0  0  0
  -25.2050  -13.8620   20.4260 C   0  0  0  0  0  0  0  0  0  0  0  0
  -24.1460  -13.0820   20.8050 C   0  0  0  0  0  0  0  0  0  0  0  0
  -24.6200  -11.7340   20.7820 C   0  0  0  0  0  0  0  0  0  0  0  0
  -26.2570  -12.9880   20.1980 N   0  0  0  0  0  0  0  0  0  0  0  0
  -25.9100  -11.7040   20.4700 N   0  0  0  0  0  0  0  0  0  0  0  0
  -23.9060  -10.4680   20.9850 C   0  0  0  0  0  0  0  0  0  0  0  0
  -24.3460   -9.5140   21.9290 C   0  0  0  0  0  3  0  0  0  0  0  0
  -23.6340   -8.3100   22.1190 C   0  0  0  0  0  3  0  0  0  0  0  0
  -22.4640   -8.0530   21.3660 C   0  0  0  0  0  0  0  0  0  0  0  0
  -22.0420   -8.9950   20.4110 C   0  0  0  0  0  3  0  0  0  0  0  0
  -22.7560  -10.1900   20.2190 C   0  0  0  0  0  3  0  0  0  0  0  0
  -21.7210   -6.9020   21.4650 O   0  0  0  0  0  0  0  0  0  0  0  0
  -21.6770   -6.1710   22.6240 C   0  0  0  0  0  0  0  0  0  0  0  0
  -21.2420   -6.7330   23.8440 C   0  0  0  0  0  3  0  0  0  0  0  0
  -21.1480   -5.9270   24.9960 C   0  0  0  0  0  3  0  0  0  0  0  0
  -21.4770   -4.5600   24.9290 C   0  0  0  0  0  0  0  0  0  0  0  0
  -21.9040   -3.9970   23.7150 C   0  0  0  0  0  3  0  0  0  0  0  0
  -21.9990   -4.8000   22.5640 C   0  0  0  0  0  0  0  0  0  0  0  0
  -22.3910   -4.2470   21.3920 F   0  0  0  0  0  0  0  0  0  0  0  0
  -21.3800   -3.7850   26.0350 F   0  0  0  0  0  0  0  0  0  0  0  0
  -22.7450  -13.5470   21.0810 C   0  0  0  0  0  0  0  0  0  0  0  0
  -22.0290  -12.8470   21.9530 N   0  0  0  0  0  0  0  0  0  0  0  0
  -22.2950  -14.5660   20.5590 O   0  0  0  0  0  0  0  0  0  0  0  0
  -22.4010  -12.0180   22.3950 H   0  0  0  0  0  0  0  0  0  0  0  0
  -21.0910  -13.1400   22.1850 H   0  0  0  0  0  0  0  0  0  0  0  0
  -25.3600  -15.2320   20.2380 N   0  0  0  0  0  0  0  0  0  0  0  0
  -24.5950  -15.8880   20.3540 H   0  0  0  0  0  0  0  0  0  0  0  0
  -26.2070  -15.6730   19.9030 H   0  0  0  0  0  0  0  0  0  0  0  0
  -28.9810  -22.6670   20.3550 C   0  0  0  0  0  2  0  0  0  0  0  0
  -29.2100  -24.2130   20.4700 C   0  0  0  0  0  0  0  0  0  0  0  0
  -30.2810  -24.6690   20.8880 O   0  0  0  0  0  0  0  0  0  0  0  0
  -28.0590  -25.1620   20.0220 C   0  0  0  0  0  2  0  0  0  0  0  0
  -28.3030  -26.5940   20.2230 O   0  0  0  0  0  0  0  0  0  0  0  0
  -24.5910  -31.9410   23.2480 C   0  0  0  0  0  0  0  0  0  0  0  0
  -27.1750  -27.4150   20.1730 C   0  0  0  0  0  0  0  0  0  0  0  0
  -23.3750  -30.5500   21.6100 C   0  0  0  0  0  3  0  0  0  0  0  0
  -24.8130  -29.0050   20.1770 C   0  0  0  0  0  0  0  0  0  0  0  0
  -25.9120  -30.8710   21.4140 C   0  0  0  0  0  2  0  0  0  0  0  0
  -25.9840  -29.4980   20.7670 C   0  0  0  0  0  0  0  0  0  0  0  0
  -27.1690  -28.7120   20.7570 C   0  0  0  0  0  3  0  0  0  0  0  0
  -25.9790  -26.9660   19.5620 C   0  0  0  0  0  3  0  0  0  0  0  0
  -24.8090  -27.7440   19.5670 C   0  0  0  0  0  3  0  0  0  0  0  0
  -23.5780  -29.8780   20.2260 C   0  0  0  0  0  2  0  0  0  0  0  0
  -24.6450  -31.1370   22.1480 N   0  0  0  0  0  0  0  0  0  0  0  0
  -23.5110  -32.2230   23.7860 O   0  0  0  0  0  0  0  0  0  0  0  0
  -22.7160  -29.5300   22.5700 C   0  0  0  0  0  0  0  0  0  0  0  0
  -21.3900  -29.3570   22.4460 N   0  0  0  0  0  0  0  0  0  0  0  0
  -23.3960  -28.9010   23.3840 O   0  0  0  0  0  0  0  0  0  0  0  0
  -20.9030  -29.9190   21.7610 H   0  0  0  0  0  0  0  0  0  0  0  0
  -18.0050  -28.1930   22.9560 C   0  0  0  0  0  0  0  0  0  0  0  0
  -20.5670  -28.4260   23.2190 C   0  0  0  0  0  3  0  0  0  0  0  0
  -20.6520  -26.9960   22.6370 C   0  0  0  0  0  2  0  0  0  0  0  0
  -19.5420  -26.6870   21.6270 C   0  0  0  0  0  2  0  0  0  0  0  0
  -18.1650  -26.8440   22.2780 C   0  0  0  0  0  2  0  0  0  0  0  0
  -19.1330  -28.9430   23.3830 C   0  0  0  0  0  0  0  0  0  0  0  0
  -18.9280  -30.2090   23.9760 C   0  0  0  0  0  3  0  0  0  0  0  0
  -17.6270  -30.7210   24.1480 C   0  0  0  0  0  3  0  0  0  0  0  0
  -16.5150  -29.9660   23.7380 C   0  0  0  0  0  3  0  0  0  0  0  0
  -16.7050  -28.7040   23.1470 C   0  0  0  0  0  3  0  0  0  0  0  0
  -25.8800  -32.5660   23.8660 C   0  0  0  0  0  3  0  0  0  0  0  0
  -25.5770  -33.9640   24.2000 N   0  0  0  0  0  0  0  0  0  0  0  0
  -25.9040  -35.0170   23.4380 C   0  0  0  0  0  0  0  0  0  0  0  0
  -26.5640  -34.9120   22.4000 O   0  0  0  0  0  0  0  0  0  0  0  0
  -24.9890  -34.1180   25.0050 H   0  0  0  0  0  0  0  0  0  0  0  0
  -24.1750  -36.8130   23.1050 C   0  0  0  0  0  1  0  0  0  0  0  0
  -25.4250  -36.4060   23.9010 C   0  0  0  0  0  3  0  0  0  0  0  0
  -27.5700  -37.2900   24.7030 C   0  0  0  0  0  1  0  0  0  0  0  0
  -26.4570  -37.4580   23.7740 N   0  0  0  0  0  0  0  0  0  0  0  0
  -26.0520  -38.3780   23.9250 H   0  0  0  0  0  0  0  0  0  0  0  0
  -26.3970  -31.7860   25.1390 C   0  0  1  0  0  0  0  0  0  0  0  0
  -25.3080  -31.5470   26.2100 C   0  0  0  0  0  1  0  0  0  0  0  0
  -26.9730  -30.4080   24.7380 C   0  0  0  0  0  1  0  0  0  0  0  0
  -27.5530  -32.5730   25.8000 C   0  0  0  0  0  1  0  0  0  0  0  0
  2  3  1  0
  2  5  2  0
  3  4  2  0
  4  7  1  0
  4  6  1  0
  5  1  1  0
  5  7  1  0
  8  3  1  0
  8 17  1  0
  9 17  1  0
 10 15  1  0
 11 12  1  0
 11 10  1  0
 13 12  1  0
 13 22  1  0
 13 14  1  0
 15  9  1  0
 15 14  1  0
 16  9  2  0
 17 18  1  0
 19 20  2  0
 20 39  1  0
 21 20  1  0
 21 24  1  0
 22 19  1  0
 22 23  1  0
 23 21  2  0
 24 25  1  0
 25 26  2  0
 27 30  1  0
 27 26  1  0
 28 27  2  0
 29 28  1  0
 29 24  2  0
 30 31  1  0
 31 32  1  0
 32 33  2  0
 34 33  1  0
 34 38  1  0
 35 34  2  0
 36 31  2  0
 36 35  1  0
 37 36  1  0
 39 40  1  0
 40 43  1  0
 40 42  1  0
 41 39  2  0
 44 45  1  0
 44 19  1  0
 46 44  1  0
 47 48  1  0
 47  1  1  0
 48 49  2  0
 50 51  1  0
 50 48  1  0
 52 63  2  0
 53 51  1  0
 53 58  1  0
 54 62  1  0
 54 64  1  0
 55 61  1  0
 55 57  1  0
 56 62  1  0
 57 56  1  0
 58 57  2  0
 59 60  1  0
 59 53  2  0
 60 55  2  0
 61 54  1  0
 62 52  1  0
 64 66  2  0
 65 64  1  0
 67 65  1  0
 68 77  2  0
 68 73  1  0
 69 65  1  0
 69 73  1  0
 70 69  1  0
 71 72  1  0
 71 70  1  0
 72 68  1  0
 73 74  2  0
 74 75  1  0
 76 75  2  0
 77 76  1  0
 78 52  1  0
 78 79  1  0
 78 88  1  0
 79 82  1  0
 80 84  1  0
 80 79  1  0
 81 80  2  0
 84 83  1  0
 86 84  1  0
 86 87  1  0
 86 85  1  0
 88 91  1  1
 88 89  1  0
 90 88  1  0
M  ISO  4   9 100  17 100  50 101  51 101
M  END
>  <TORSDO>  (45) 
F 21

>  <SCORE>  (45) 
-13.070

>  <name>  (45) 
44

>  <ligand_id>  (45) 
44

>  <original_smiles>  (45) 
[H]c1c([H])c([H])c2c(c1[H])C([H])([H])C([H])([H])C([H])([H])C2([H])N([H])C(=O)C1([H])N(C(=O)C([H])(N([H])C(=O)C([H])(N([H])C([H])([H])[H])C([H])([H])[H])C(C([H])([H])[H])(C([H])([H])[H])C([H])([H])[H])C([H])([H])c2c([H])c(OC([H])([H])C(=O)C([H])([H])Oc3oc(C([H])([H])[H])c(C([H])([H])N([H])C(=O)N4C([H])([H])C([H])([H])C([H])([H])C([H])(n5nc(-c6c([H])c([H])c(Oc7c([H])c([H])c(F)c([H])c7F)c([H])c6[H])c(C(=O)N([H])[H])c5N([H])[H])C4([H])[H])c3[H])c([H])c([H])c2C1([H])[H]

>  <smiles>  (45) 
[H]c1c([H])c([H])c2c(c1[H])C([H])([H])C([H])([H])C([H])([H])C2([H])N([H])C(=O)C1([H])N(C(=O)C([H])(N([H])C(=O)C([H])(N([H])C([H])([H])[H])C([H])([H])[H])C(C([H])([H])[H])(C([H])([H])[H])C([H])([H])[H])C([H])([H])c2c([H])c(OC([H])([H])C(=O)C([H])([H])Oc3oc(C([H])([H])[H])c(C([H])([H])N([H])C(=O)N4C([H])([H])C([H])([H])C([H])([H])C([H])(n5nc(-c6c([H])c([H])c(Oc7c([H])c([H])c(F)c([H])c7F)c([H])c6[H])c(C(=O)N([H])[H])c5N([H])[H])C4([H])[H])c3[H])c([H])c([H])c2C1([H])[H]

$$$$
45:0:0
     RDKit          3D

 91 99  0  0  1  0  0  0  0  0999 V2000
  -30.1670  -21.2490   18.8530 C   0  0  0  0  0  3  0  0  0  0  0  0
  -29.3530  -19.5560   20.9070 C   0  0  0  0  0  3  0  0  0  0  0  0
  -29.4140  -21.8590   19.8910 C   0  0  0  0  0  0  0  0  0  0  0  0
  -30.1570  -18.9660   19.8910 C   0  0  0  0  0  0  0  0  0  0  0  0
  -30.5060  -19.8610   18.8310 C   0  0  0  0  0  0  0  0  0  0  0  0
  -28.9790  -20.9440   20.9020 C   0  0  0  0  0  0  0  0  0  0  0  0
  -31.2580  -19.3520   17.6070 C   0  0  0  0  0  1  0  0  0  0  0  0
  -29.0690  -23.3650   19.8920 C   0  0  0  0  0  3  0  0  0  0  0  0
  -29.2940  -24.2690   18.8830 C   0  0  0  0  0  3  0  0  0  0  0  0
  -29.0100  -25.8000   18.6040 C   0  0  0  0  0  2  0  0  0  0  0  0
  -28.7660  -26.8200   19.6360 O   0  0  0  0  0  0  0  0  0  0  0  0
  -24.6510  -31.7200   22.9870 C   0  0  0  0  0  0  0  0  0  0  0  0
  -27.5870  -27.5860   19.6170 C   0  0  0  0  0  0  0  0  0  0  0  0
  -23.5430  -30.3340   21.2680 C   0  0  0  0  0  3  0  0  0  0  0  0
  -25.0970  -28.9980   19.7340 C   0  0  0  0  0  0  0  0  0  0  0  0
  -26.0490  -30.8620   21.0910 C   0  0  0  0  0  2  0  0  0  0  0  0
  -26.2280  -29.5380   20.3570 C   0  0  0  0  0  0  0  0  0  0  0  0
  -27.4720  -28.8400   20.2980 C   0  0  0  0  0  3  0  0  0  0  0  0
  -26.4210  -27.0880   18.9950 C   0  0  0  0  0  3  0  0  0  0  0  0
  -25.1930  -27.7750   19.0510 C   0  0  0  0  0  3  0  0  0  0  0  0
  -23.7950  -29.7640   19.8470 C   0  0  0  0  0  2  0  0  0  0  0  0
  -24.7650  -30.9880   21.8390 N   0  0  0  0  0  0  0  0  0  0  0  0
  -23.5540  -31.8770   23.5420 O   0  0  0  0  0  0  0  0  0  0  0  0
  -22.9720  -29.2120   22.1650 C   0  0  0  0  0  0  0  0  0  0  0  0
  -21.6610  -28.9420   22.0360 N   0  0  0  0  0  0  0  0  0  0  0  0
  -23.7040  -28.5910   22.9380 O   0  0  0  0  0  0  0  0  0  0  0  0
  -21.1240  -29.5020   21.3890 H   0  0  0  0  0  0  0  0  0  0  0  0
  -18.3900  -27.4630   22.4810 C   0  0  0  0  0  0  0  0  0  0  0  0
  -20.9240  -27.8970   22.7490 C   0  0  0  0  0  3  0  0  0  0  0  0
  -21.1270  -26.5180   22.0800 C   0  0  0  0  0  2  0  0  0  0  0  0
  -20.0400  -26.1790   21.0550 C   0  0  0  0  0  2  0  0  0  0  0  0
  -18.6580  -26.1780   21.7160 C   0  0  0  0  0  2  0  0  0  0  0  0
  -19.4540  -28.2770   22.9510 C   0  0  0  0  0  0  0  0  0  0  0  0
  -19.1480  -29.4790   23.6260 C   0  0  0  0  0  3  0  0  0  0  0  0
  -17.8110  -29.8690   23.8330 C   0  0  0  0  0  3  0  0  0  0  0  0
  -16.7620  -29.0520   23.3780 C   0  0  0  0  0  3  0  0  0  0  0  0
  -17.0520  -27.8510   22.7060 C   0  0  0  0  0  3  0  0  0  0  0  0
  -25.8850  -32.4110   23.6420 C   0  0  0  0  0  3  0  0  0  0  0  0
  -26.4680  -31.6050   24.8680 C   0  0  1  0  0  0  0  0  0  0  0  0
  -25.4070  -31.2260   25.9250 C   0  0  0  0  0  1  0  0  0  0  0  0
  -27.1450  -30.2970   24.3940 C   0  0  0  0  0  1  0  0  0  0  0  0
  -27.5610  -32.4410   25.5720 C   0  0  0  0  0  1  0  0  0  0  0  0
  -25.4700  -33.7570   24.0590 N   0  0  0  0  0  0  0  0  0  0  0  0
  -25.7220  -34.8800   23.3710 C   0  0  0  0  0  0  0  0  0  0  0  0
  -26.3990  -34.8930   22.3400 O   0  0  0  0  0  0  0  0  0  0  0  0
  -24.8600  -33.8150   24.8600 H   0  0  0  0  0  0  0  0  0  0  0  0
  -23.8580  -36.5540   23.1300 C   0  0  0  0  0  1  0  0  0  0  0  0
  -25.1300  -36.1940   23.9140 C   0  0  0  0  0  3  0  0  0  0  0  0
  -27.1950  -37.1860   24.8000 C   0  0  0  0  0  1  0  0  0  0  0  0
  -26.0770  -37.3310   23.8710 N   0  0  0  0  0  0  0  0  0  0  0  0
  -25.6020  -38.2040   24.0810 H   0  0  0  0  0  0  0  0  0  0  0  0
  -30.6340  -17.5010   19.8700 C   0  0  0  0  0  3  0  0  0  0  0  0
  -30.2380  -16.3260   20.4790 C   0  0  0  0  0  3  0  0  0  0  0  0
  -31.0030  -15.0480   20.2590 C   0  0  0  0  0  0  0  0  0  0  0  0
  -30.7370  -12.7620   19.3290 C   0  0  0  0  0  2  0  0  0  0  0  0
  -29.8290  -12.8650   18.0860 C   0  0  0  0  0  2  0  0  0  0  0  0
  -28.3470  -12.7420   18.4870 C   0  0  0  0  0  2  0  0  0  0  0  0
  -27.9760  -13.6470   19.6940 C   0  0  0  0  0  3  0  0  0  0  0  0
  -29.0170  -13.5510   20.8280 C   0  0  0  0  0  2  0  0  0  0  0  0
  -30.3370  -13.8440   20.2580 N   0  0  0  0  0  0  0  0  0  0  0  0
  -32.1900  -15.0680   19.9260 O   0  0  0  0  0  0  0  0  0  0  0  0
  -25.5950  -14.2880   20.3990 C   0  0  0  0  0  0  0  0  0  0  0  0
  -24.5120  -13.5360   20.7610 C   0  0  0  0  0  0  0  0  0  0  0  0
  -24.9460  -12.1750   20.7350 C   0  0  0  0  0  0  0  0  0  0  0  0
  -26.6240  -13.3870   20.1720 N   0  0  0  0  0  0  0  0  0  0  0  0
  -26.2400  -12.1120   20.4380 N   0  0  0  0  0  0  0  0  0  0  0  0
  -24.1940  -10.9290   20.9220 C   0  0  0  0  0  0  0  0  0  0  0  0
  -24.5970   -9.9550   21.8610 C   0  0  0  0  0  3  0  0  0  0  0  0
  -23.8450   -8.7730   22.0350 C   0  0  0  0  0  3  0  0  0  0  0  0
  -22.6730   -8.5570   21.2710 C   0  0  0  0  0  0  0  0  0  0  0  0
  -22.2880   -9.5200   20.3230 C   0  0  0  0  0  3  0  0  0  0  0  0
  -23.0410  -10.6930   20.1460 C   0  0  0  0  0  3  0  0  0  0  0  0
  -21.8950   -7.4270   21.3540 O   0  0  0  0  0  0  0  0  0  0  0  0
  -21.8330   -6.6790   22.5020 C   0  0  0  0  0  0  0  0  0  0  0  0
  -21.4130   -7.2330   23.7310 C   0  0  0  0  0  3  0  0  0  0  0  0
  -21.2970   -6.4110   24.8700 C   0  0  0  0  0  3  0  0  0  0  0  0
  -21.5910   -5.0370   24.7810 C   0  0  0  0  0  0  0  0  0  0  0  0
  -22.0050   -4.4850   23.5570 C   0  0  0  0  0  3  0  0  0  0  0  0
  -22.1230   -5.3030   22.4200 C   0  0  0  0  0  0  0  0  0  0  0  0
  -22.5000   -4.7610   21.2370 F   0  0  0  0  0  0  0  0  0  0  0  0
  -21.4740   -4.2450   25.8730 F   0  0  0  0  0  0  0  0  0  0  0  0
  -23.1230  -14.0430   21.0220 C   0  0  0  0  0  0  0  0  0  0  0  0
  -22.3720  -13.3590   21.8770 N   0  0  0  0  0  0  0  0  0  0  0  0
  -22.7150  -15.0810   20.5010 O   0  0  0  0  0  0  0  0  0  0  0  0
  -22.7140  -12.5190   22.3210 H   0  0  0  0  0  0  0  0  0  0  0  0
  -21.4400  -13.6820   22.0940 H   0  0  0  0  0  0  0  0  0  0  0  0
  -25.7910  -15.6550   20.2210 N   0  0  0  0  0  0  0  0  0  0  0  0
  -25.0400  -16.3290   20.3210 H   0  0  0  0  0  0  0  0  0  0  0  0
  -26.6640  -16.0740   19.9260 H   0  0  0  0  0  0  0  0  0  0  0  0
  -26.9400  -21.9360   21.4770 C   0  0  0  0  0  1  0  0  0  0  0  0
  -28.1720  -21.3760   21.9220 O   0  0  0  0  0  0  0  0  0  0  0  0
  1  3  1  0
  3  8  1  0
  3  6  2  0
  4  2  2  0
  5  1  2  0
  5  4  1  0
  6  2  1  0
  6 91  1  0
  7  5  1  0
  9  8  2  0
 10  9  1  0
 10 11  1  0
 12 23  2  0
 13 11  1  0
 13 18  1  0
 14 22  1  0
 14 24  1  0
 15 21  1  0
 15 17  1  0
 16 22  1  0
 17 16  1  0
 18 17  2  0
 19 20  1  0
 19 13  2  0
 20 15  2  0
 21 14  1  0
 22 12  1  0
 24 26  2  0
 25 24  1  0
 27 25  1  0
 28 37  2  0
 28 33  1  0
 29 25  1  0
 29 33  1  0
 30 29  1  0
 31 32  1  0
 31 30  1  0
 32 28  1  0
 33 34  2  0
 34 35  1  0
 36 35  2  0
 37 36  1  0
 38 12  1  0
 38 43  1  0
 38 39  1  0
 39 42  1  1
 39 40  1  0
 41 39  1  0
 43 46  1  0
 44 48  1  0
 44 43  1  0
 45 44  2  0
 48 47  1  0
 50 48  1  0
 50 51  1  0
 50 49  1  0
 52  4  1  0
 52 53  2  0
 54 53  1  0
 55 60  1  0
 56 57  1  0
 56 55  1  0
 58 57  1  0
 58 65  1  0
 58 59  1  0
 60 54  1  0
 60 59  1  0
 61 54  2  0
 62 63  2  0
 63 82  1  0
 64 63  1  0
 64 67  1  0
 65 62  1  0
 65 66  1  0
 66 64  2  0
 67 68  1  0
 68 69  2  0
 70 73  1  0
 70 69  1  0
 71 70  2  0
 72 71  1  0
 72 67  2  0
 73 74  1  0
 74 75  1  0
 75 76  2  0
 77 76  1  0
 77 81  1  0
 78 77  2  0
 79 74  2  0
 79 78  1  0
 80 79  1  0
 82 83  1  0
 83 86  1  0
 83 85  1  0
 84 82  2  0
 87 88  1  0
 87 62  1  0
 89 87  1  0
 90 91  1  0
M  ISO  4  10 101  11 101  53 100  54 100
M  END
>  <TORSDO>  (46) 
F 20

>  <SCORE>  (46) 
-11.658

>  <name>  (46) 
45

>  <ligand_id>  (46) 
45

>  <original_smiles>  (46) 
[H]C(C(=O)N1C([H])([H])C([H])([H])C([H])([H])C([H])(n2nc(-c3c([H])c([H])c(Oc4c([H])c([H])c(F)c([H])c4F)c([H])c3[H])c(C(=O)N([H])[H])c2N([H])[H])C1([H])[H])=C([H])c1c([H])c(OC([H])([H])[H])c(C([H])=C([H])C([H])([H])Oc2c([H])c([H])c3c(c2[H])C([H])([H])N(C(=O)C([H])(N([H])C(=O)C([H])(N([H])C([H])([H])[H])C([H])([H])[H])C(C([H])([H])[H])(C([H])([H])[H])C([H])([H])[H])C([H])(C(=O)N([H])C2([H])c4c([H])c([H])c([H])c([H])c4C([H])([H])C([H])([H])C2([H])[H])C3([H])[H])c([H])c1C([H])([H])[H]

>  <smiles>  (46) 
[H]C(C(=O)N1C([H])([H])C([H])([H])C([H])([H])C([H])(n2nc(-c3c([H])c([H])c(Oc4c([H])c([H])c(F)c([H])c4F)c([H])c3[H])c(C(=O)N([H])[H])c2N([H])[H])C1([H])[H])=C([H])c1c([H])c(OC([H])([H])[H])c(C([H])=C([H])C([H])([H])Oc2c([H])c([H])c3c(c2[H])C([H])([H])N(C(=O)C([H])(N([H])C(=O)C([H])(N([H])C([H])([H])[H])C([H])([H])[H])C(C([H])([H])[H])(C([H])([H])[H])C([H])([H])[H])C([H])(C(=O)N([H])C2([H])c4c([H])c([H])c([H])c([H])c4C([H])([H])C([H])([H])C2([H])[H])C3([H])[H])c([H])c1C([H])([H])[H]

$$$$
46:0:0
     RDKit          3D

 91 99  0  0  1  0  0  0  0  0999 V2000
  -29.8450  -19.4980   20.6080 C   0  0  0  0  0  3  0  0  0  0  0  0
  -31.1530  -19.9970   18.1990 C   0  0  0  0  0  3  0  0  0  0  0  0
  -30.4350  -18.3990   19.9140 C   0  0  0  0  0  0  0  0  0  0  0  0
  -29.8870  -20.8450   20.1180 C   0  0  0  0  0  0  0  0  0  0  0  0
  -31.0990  -18.6840   18.6950 C   0  0  0  0  0  0  0  0  0  0  0  0
  -30.5770  -21.0840   18.8870 C   0  0  0  0  0  0  0  0  0  0  0  0
  -31.8450  -17.5970   17.9270 C   0  0  0  0  0  1  0  0  0  0  0  0
  -30.7800  -22.4530   18.2380 C   0  0  0  0  0  1  0  0  0  0  0  0
  -30.6480  -17.0270   20.4700 C   0  0  0  0  0  2  0  0  0  0  0  0
  -30.0160  -15.8640   20.1360 C   0  0  0  0  0  2  0  0  0  0  0  0
  -30.7070  -14.5780   20.3480 C   0  0  0  0  0  0  0  0  0  0  0  0
  -30.3400  -12.3720   19.3310 C   0  0  0  0  0  2  0  0  0  0  0  0
  -29.4100  -12.5260   18.1110 C   0  0  0  0  0  2  0  0  0  0  0  0
  -27.9400  -12.3900   18.5460 C   0  0  0  0  0  2  0  0  0  0  0  0
  -27.5860  -13.2810   19.7660 C   0  0  0  0  0  3  0  0  0  0  0  0
  -28.6510  -13.1890   20.8780 C   0  0  0  0  0  2  0  0  0  0  0  0
  -29.9700  -13.4290   20.2850 N   0  0  0  0  0  0  0  0  0  0  0  0
  -31.9250  -14.5480   20.1790 O   0  0  0  0  0  0  0  0  0  0  0  0
  -25.2030  -13.8750   20.5070 C   0  0  0  0  0  0  0  0  0  0  0  0
  -24.1380  -13.1020   20.8810 C   0  0  0  0  0  0  0  0  0  0  0  0
  -24.6020  -11.7510   20.8560 C   0  0  0  0  0  0  0  0  0  0  0  0
  -26.2460  -12.9950   20.2680 N   0  0  0  0  0  0  0  0  0  0  0  0
  -25.8920  -11.7140   20.5440 N   0  0  0  0  0  0  0  0  0  0  0  0
  -23.8760  -10.4890   21.0520 C   0  0  0  0  0  0  0  0  0  0  0  0
  -24.3200   -9.5170   21.9750 C   0  0  0  0  0  3  0  0  0  0  0  0
  -23.5970   -8.3180   22.1560 C   0  0  0  0  0  3  0  0  0  0  0  0
  -22.4170   -8.0830   21.4160 C   0  0  0  0  0  0  0  0  0  0  0  0
  -21.9890   -9.0430   20.4840 C   0  0  0  0  0  3  0  0  0  0  0  0
  -22.7110  -10.2330   20.3000 C   0  0  0  0  0  3  0  0  0  0  0  0
  -21.6650   -6.9360   21.5070 O   0  0  0  0  0  0  0  0  0  0  0  0
  -21.6400   -6.1820   22.6520 C   0  0  0  0  0  0  0  0  0  0  0  0
  -21.2560   -6.7300   23.8950 C   0  0  0  0  0  3  0  0  0  0  0  0
  -21.1800   -5.9050   25.0350 C   0  0  0  0  0  3  0  0  0  0  0  0
  -21.4750   -4.5330   24.9290 C   0  0  0  0  0  0  0  0  0  0  0  0
  -21.8530   -3.9840   23.6920 C   0  0  0  0  0  3  0  0  0  0  0  0
  -21.9330   -4.8070   22.5550 C   0  0  0  0  0  0  0  0  0  0  0  0
  -22.2800   -4.2700   21.3590 F   0  0  0  0  0  0  0  0  0  0  0  0
  -21.3920   -3.7360   26.0220 F   0  0  0  0  0  0  0  0  0  0  0  0
  -22.7410  -13.5800   21.1510 C   0  0  0  0  0  0  0  0  0  0  0  0
  -22.0070  -12.8910   22.0190 N   0  0  0  0  0  0  0  0  0  0  0  0
  -22.3060  -14.6030   20.6250 O   0  0  0  0  0  0  0  0  0  0  0  0
  -22.3690  -12.0670   22.4730 H   0  0  0  0  0  0  0  0  0  0  0  0
  -21.0720  -13.2060   22.2400 H   0  0  0  0  0  0  0  0  0  0  0  0
  -25.3570  -15.2480   20.3330 N   0  0  0  0  0  0  0  0  0  0  0  0
  -24.5770  -15.8850   20.4600 H   0  0  0  0  0  0  0  0  0  0  0  0
  -26.2040  -15.7100   20.0260 H   0  0  0  0  0  0  0  0  0  0  0  0
  -29.2260  -21.9460   21.0030 C   0  0  0  0  0  3  0  0  0  0  0  0
  -28.9300  -23.3770   20.4340 C   0  0  0  0  0  3  0  0  0  0  0  0
  -28.1720  -24.3460   21.3860 C   0  0  0  0  0  2  0  0  0  0  0  0
  -28.6580  -25.8320   21.4070 C   0  0  0  0  0  2  0  0  0  0  0  0
  -28.4140  -26.6260   20.2300 O   0  0  0  0  0  0  0  0  0  0  0  0
  -24.6010  -31.8940   23.2480 C   0  0  0  0  0  0  0  0  0  0  0  0
  -27.2730  -27.4030   20.2470 C   0  0  0  0  0  0  0  0  0  0  0  0
  -23.4160  -30.4790   21.6000 C   0  0  0  0  0  3  0  0  0  0  0  0
  -24.8880  -28.9290   20.2030 C   0  0  0  0  0  0  0  0  0  0  0  0
  -25.9480  -30.8280   21.4400 C   0  0  0  0  0  2  0  0  0  0  0  0
  -26.0400  -29.4500   20.8110 C   0  0  0  0  0  0  0  0  0  0  0  0
  -27.2370  -28.6930   20.8340 C   0  0  0  0  0  3  0  0  0  0  0  0
  -26.1120  -26.9050   19.6260 C   0  0  0  0  0  3  0  0  0  0  0  0
  -24.9220  -27.6560   19.6060 C   0  0  0  0  0  3  0  0  0  0  0  0
  -23.6440  -29.7890   20.2280 C   0  0  0  0  0  2  0  0  0  0  0  0
  -24.6720  -31.0830   22.1530 N   0  0  0  0  0  0  0  0  0  0  0  0
  -23.5130  -32.1680   23.7730 O   0  0  0  0  0  0  0  0  0  0  0  0
  -22.7520  -29.4670   22.5600 C   0  0  0  0  0  0  0  0  0  0  0  0
  -21.4300  -29.2780   22.4160 N   0  0  0  0  0  0  0  0  0  0  0  0
  -23.4250  -28.8520   23.3910 O   0  0  0  0  0  0  0  0  0  0  0  0
  -20.9480  -29.8230   21.7160 H   0  0  0  0  0  0  0  0  0  0  0  0
  -18.0550  -28.0660   22.8780 C   0  0  0  0  0  0  0  0  0  0  0  0
  -20.6070  -28.3450   23.1850 C   0  0  0  0  0  3  0  0  0  0  0  0
  -20.7280  -26.9080   22.6260 C   0  0  0  0  0  2  0  0  0  0  0  0
  -19.6440  -26.5660   21.5990 C   0  0  0  0  0  2  0  0  0  0  0  0
  -18.2510  -26.7110   22.2190 C   0  0  0  0  0  2  0  0  0  0  0  0
  -19.1630  -28.8390   23.3180 C   0  0  0  0  0  0  0  0  0  0  0  0
  -18.9270  -30.1070   23.8940 C   0  0  0  0  0  3  0  0  0  0  0  0
  -17.6170  -30.6020   24.0330 C   0  0  0  0  0  3  0  0  0  0  0  0
  -16.5240  -29.8260   23.6100 C   0  0  0  0  0  3  0  0  0  0  0  0
  -16.7440  -28.5590   23.0400 C   0  0  0  0  0  3  0  0  0  0  0  0
  -25.8800  -32.5320   23.8750 C   0  0  0  0  0  3  0  0  0  0  0  0
  -25.5690  -33.9310   24.1970 N   0  0  0  0  0  0  0  0  0  0  0  0
  -25.9060  -34.9790   23.4330 C   0  0  0  0  0  0  0  0  0  0  0  0
  -26.5840  -34.8700   22.4070 O   0  0  0  0  0  0  0  0  0  0  0  0
  -24.9740  -34.0910   24.9970 H   0  0  0  0  0  0  0  0  0  0  0  0
  -24.1790  -36.7650   23.0500 C   0  0  0  0  0  1  0  0  0  0  0  0
  -25.4130  -36.3700   23.8780 C   0  0  0  0  0  3  0  0  0  0  0  0
  -27.5380  -37.2570   24.7260 C   0  0  0  0  0  1  0  0  0  0  0  0
  -26.4460  -37.4230   23.7710 N   0  0  0  0  0  0  0  0  0  0  0  0
  -26.0370  -38.3430   23.9130 H   0  0  0  0  0  0  0  0  0  0  0  0
  -26.3910  -31.7700   25.1600 C   0  0  1  0  0  0  0  0  0  0  0  0
  -25.2910  -31.5340   26.2210 C   0  0  0  0  0  1  0  0  0  0  0  0
  -26.9820  -30.3920   24.7810 C   0  0  0  0  0  1  0  0  0  0  0  0
  -27.5370  -32.5700   25.8220 C   0  0  0  0  0  1  0  0  0  0  0  0
  2  5  2  0
  2  6  1  0
  3  9  1  0
  3  1  2  0
  4  1  1  0
  4 47  1  0
  5  3  1  0
  6  4  2  0
  7  5  1  0
  8  6  1  0
 10 11  1  0
 10  9  1  0
 12 17  1  0
 13 14  1  0
 13 12  1  0
 15 14  1  0
 15 22  1  0
 15 16  1  0
 17 11  1  0
 17 16  1  0
 18 11  2  0
 19 20  2  0
 20 39  1  0
 21 20  1  0
 21 24  1  0
 22 19  1  0
 22 23  1  0
 23 21  2  0
 24 25  1  0
 25 26  2  0
 27 30  1  0
 27 26  1  0
 28 27  2  0
 29 28  1  0
 29 24  2  0
 30 31  1  0
 31 32  1  0
 32 33  2  0
 34 33  1  0
 34 38  1  0
 35 34  2  0
 36 31  2  0
 36 35  1  0
 37 36  1  0
 39 40  1  0
 40 43  1  0
 40 42  1  0
 41 39  2  0
 44 45  1  0
 44 19  1  0
 46 44  1  0
 48 47  2  0
 48 49  1  0
 49 50  1  0
 51 53  1  0
 51 50  1  0
 52 63  2  0
 53 58  1  0
 54 62  1  0
 54 64  1  0
 55 61  1  0
 55 57  1  0
 56 62  1  0
 57 58  2  0
 57 56  1  0
 59 53  2  0
 60 59  1  0
 60 55  2  0
 61 54  1  0
 62 52  1  0
 64 66  2  0
 65 64  1  0
 67 65  1  0
 68 77  2  0
 68 73  1  0
 69 65  1  0
 69 73  1  0
 70 69  1  0
 71 72  1  0
 71 70  1  0
 72 68  1  0
 73 74  2  0
 74 75  1  0
 76 75  2  0
 77 76  1  0
 78 52  1  0
 78 79  1  0
 78 88  1  0
 79 82  1  0
 80 84  1  0
 80 79  1  0
 81 80  2  0
 84 83  1  0
 86 84  1  0
 86 87  1  0
 86 85  1  0
 88 91  1  1
 88 89  1  0
 90 88  1  0
M  ISO  4  10 100  11 100  50 101  51 101
M  END
>  <TORSDO>  (47) 
F 21

>  <SCORE>  (47) 
-13.590

>  <name>  (47) 
46

>  <ligand_id>  (47) 
46

>  <original_smiles>  (47) 
[H]C(C(=O)N1C([H])([H])C([H])([H])C([H])([H])C([H])(n2nc(-c3c([H])c([H])c(Oc4c([H])c([H])c(F)c([H])c4F)c([H])c3[H])c(C(=O)N([H])[H])c2N([H])[H])C1([H])[H])=C([H])c1c([H])c(C([H])([H])C([H])([H])C([H])([H])C([H])([H])Oc2c([H])c([H])c3c(c2[H])C([H])([H])N(C(=O)C([H])(N([H])C(=O)C([H])(N([H])C([H])([H])[H])C([H])([H])[H])C(C([H])([H])[H])(C([H])([H])[H])C([H])([H])[H])C([H])(C(=O)N([H])C2([H])c4c([H])c([H])c([H])c([H])c4C([H])([H])C([H])([H])C2([H])[H])C3([H])[H])c(C([H])([H])[H])c([H])c1C([H])([H])[H]

>  <smiles>  (47) 
[H]C(C(=O)N1C([H])([H])C([H])([H])C([H])([H])C([H])(n2nc(-c3c([H])c([H])c(Oc4c([H])c([H])c(F)c([H])c4F)c([H])c3[H])c(C(=O)N([H])[H])c2N([H])[H])C1([H])[H])=C([H])c1c([H])c(C([H])([H])C([H])([H])C([H])([H])C([H])([H])Oc2c([H])c([H])c3c(c2[H])C([H])([H])N(C(=O)C([H])(N([H])C(=O)C([H])(N([H])C([H])([H])[H])C([H])([H])[H])C(C([H])([H])[H])(C([H])([H])[H])C([H])([H])[H])C([H])(C(=O)N([H])C2([H])c4c([H])c([H])c([H])c([H])c4C([H])([H])C([H])([H])C2([H])[H])C3([H])[H])c(C([H])([H])[H])c([H])c1C([H])([H])[H]

$$$$
47:0:0
     RDKit          3D

 93101  0  0  1  0  0  0  0  0999 V2000
  -29.2950  -18.7700   18.9080 C   0  0  0  0  0  3  0  0  0  0  0  0
  -29.9900  -18.7900   21.2260 C   0  0  0  0  0  3  0  0  0  0  0  0
  -29.7620  -18.0750   20.0360 C   0  0  0  0  0  0  0  0  0  0  0  0
  -29.5610  -20.9230   20.0600 C   0  0  0  0  0  0  0  0  0  0  0  0
  -29.1820  -20.1760   18.9060 C   0  0  0  0  0  0  0  0  0  0  0  0
  -29.9080  -20.2000   21.2360 C   0  0  0  0  0  0  0  0  0  0  0  0
  -30.2420  -20.8420   22.3800 F   0  0  0  0  0  0  0  0  0  0  0  0
  -30.1120  -16.6560   19.8780 C   0  0  0  0  0  3  0  0  0  0  0  0
  -30.1550  -15.6570   20.7870 C   0  0  0  0  0  3  0  0  0  0  0  0
  -30.8260  -14.4440   20.3410 C   0  0  0  0  0  0  0  0  0  0  0  0
  -30.4050  -12.3310   19.1810 C   0  0  0  0  0  2  0  0  0  0  0  0
  -29.4790  -12.6260   17.9840 C   0  0  0  0  0  2  0  0  0  0  0  0
  -28.0040  -12.5240   18.4140 C   0  0  0  0  0  2  0  0  0  0  0  0
  -27.6970  -13.3300   19.7060 C   0  0  0  0  0  3  0  0  0  0  0  0
  -28.7530  -13.0690   20.8030 C   0  0  0  0  0  2  0  0  0  0  0  0
  -30.0850  -13.3100   20.2330 N   0  0  0  0  0  0  0  0  0  0  0  0
  -31.9740  -14.5180   19.9000 O   0  0  0  0  0  0  0  0  0  0  0  0
  -25.3060  -13.9540   20.4200 C   0  0  0  0  0  0  0  0  0  0  0  0
  -24.2330  -13.1900   20.7920 C   0  0  0  0  0  0  0  0  0  0  0  0
  -24.6840  -11.8350   20.7660 C   0  0  0  0  0  0  0  0  0  0  0  0
  -26.3440  -13.0650   20.1900 N   0  0  0  0  0  0  0  0  0  0  0  0
  -25.9730  -11.7860   20.4560 N   0  0  0  0  0  0  0  0  0  0  0  0
  -23.9480  -10.5790   20.9630 C   0  0  0  0  0  0  0  0  0  0  0  0
  -24.3640   -9.6200   21.9120 C   0  0  0  0  0  3  0  0  0  0  0  0
  -23.6290   -8.4280   22.0960 C   0  0  0  0  0  3  0  0  0  0  0  0
  -22.4640   -8.1870   21.3290 C   0  0  0  0  0  0  0  0  0  0  0  0
  -22.0680   -9.1360   20.3690 C   0  0  0  0  0  3  0  0  0  0  0  0
  -22.8020  -10.3180   20.1840 C   0  0  0  0  0  3  0  0  0  0  0  0
  -21.7020   -7.0480   21.4200 O   0  0  0  0  0  0  0  0  0  0  0  0
  -21.6150   -6.3320   22.5870 C   0  0  0  0  0  0  0  0  0  0  0  0
  -21.1410   -6.9110   23.7840 C   0  0  0  0  0  3  0  0  0  0  0  0
  -21.0030   -6.1210   24.9420 C   0  0  0  0  0  3  0  0  0  0  0  0
  -21.3270   -4.7520   24.9040 C   0  0  0  0  0  0  0  0  0  0  0  0
  -21.7930   -4.1710   23.7110 C   0  0  0  0  0  3  0  0  0  0  0  0
  -21.9340   -4.9590   22.5550 C   0  0  0  0  0  0  0  0  0  0  0  0
  -22.3640   -4.3900   21.4040 F   0  0  0  0  0  0  0  0  0  0  0  0
  -21.1860   -3.9900   26.0140 F   0  0  0  0  0  0  0  0  0  0  0  0
  -22.8400  -13.6790   21.0640 C   0  0  0  0  0  0  0  0  0  0  0  0
  -22.1080  -12.9920   21.9340 N   0  0  0  0  0  0  0  0  0  0  0  0
  -22.4080  -14.7060   20.5400 O   0  0  0  0  0  0  0  0  0  0  0  0
  -22.4710  -12.1610   22.3770 H   0  0  0  0  0  0  0  0  0  0  0  0
  -21.1740  -13.3010   22.1610 H   0  0  0  0  0  0  0  0  0  0  0  0
  -25.4840  -15.3220   20.2400 N   0  0  0  0  0  0  0  0  0  0  0  0
  -24.7290  -15.9890   20.3540 H   0  0  0  0  0  0  0  0  0  0  0  0
  -26.3510  -15.7520   19.9380 H   0  0  0  0  0  0  0  0  0  0  0  0
  -29.6340  -22.4080   19.9790 C   0  0  0  0  0  3  0  0  0  0  0  0
  -29.7460  -23.3230   20.9600 C   0  0  0  0  0  3  0  0  0  0  0  0
  -29.8980  -24.8150   20.6890 C   0  0  0  0  0  2  0  0  0  0  0  0
  -28.5950  -25.5860   20.9000 C   0  0  0  0  0  0  0  0  0  0  0  0
  -27.7190  -25.1800   21.6710 O   0  0  0  0  0  0  0  0  0  0  0  0
  -28.5430  -26.7340   20.1660 O   0  0  0  0  0  0  0  0  0  0  0  0
  -24.5710  -31.8080   23.1650 C   0  0  0  0  0  0  0  0  0  0  0  0
  -27.3730  -27.4540   20.1360 C   0  0  0  0  0  0  0  0  0  0  0  0
  -23.4350  -30.4010   21.4760 C   0  0  0  0  0  3  0  0  0  0  0  0
  -24.9560  -28.9050   20.0780 C   0  0  0  0  0  0  0  0  0  0  0  0
  -25.9560  -30.8130   21.3500 C   0  0  0  0  0  2  0  0  0  0  0  0
  -26.0850  -29.4500   20.7050 C   0  0  0  0  0  0  0  0  0  0  0  0
  -27.2990  -28.7320   20.7310 C   0  0  0  0  0  3  0  0  0  0  0  0
  -26.2360  -26.9260   19.4870 C   0  0  0  0  0  3  0  0  0  0  0  0
  -25.0260  -27.6410   19.4660 C   0  0  0  0  0  3  0  0  0  0  0  0
  -23.6950  -29.7390   20.0960 C   0  0  0  0  0  2  0  0  0  0  0  0
  -24.6700  -31.0210   22.0570 N   0  0  0  0  0  0  0  0  0  0  0  0
  -23.4710  -32.0560   23.6770 O   0  0  0  0  0  0  0  0  0  0  0  0
  -22.7770  -29.3590   22.4090 C   0  0  0  0  0  0  0  0  0  0  0  0
  -21.4500  -29.2000   22.2830 N   0  0  0  0  0  0  0  0  0  0  0  0
  -23.4570  -28.6980   23.1980 O   0  0  0  0  0  0  0  0  0  0  0  0
  -20.9640  -29.7860   21.6180 H   0  0  0  0  0  0  0  0  0  0  0  0
  -18.0520  -28.0960   22.8170 C   0  0  0  0  0  0  0  0  0  0  0  0
  -20.6230  -28.2520   23.0290 C   0  0  0  0  0  3  0  0  0  0  0  0
  -20.6600  -26.8500   22.3780 C   0  0  0  0  0  2  0  0  0  0  0  0
  -19.5210  -26.6180   21.3810 C   0  0  0  0  0  2  0  0  0  0  0  0
  -18.1630  -26.7770   22.0700 C   0  0  0  0  0  2  0  0  0  0  0  0
  -19.2080  -28.7960   23.2540 C   0  0  0  0  0  0  0  0  0  0  0  0
  -19.0500  -30.0350   23.9120 C   0  0  0  0  0  3  0  0  0  0  0  0
  -17.7690  -30.5730   24.1380 C   0  0  0  0  0  3  0  0  0  0  0  0
  -16.6280  -29.8680   23.7180 C   0  0  0  0  0  3  0  0  0  0  0  0
  -16.7700  -28.6310   23.0640 C   0  0  0  0  0  3  0  0  0  0  0  0
  -25.8290  -32.4530   23.8260 C   0  0  0  0  0  3  0  0  0  0  0  0
  -25.4890  -33.8420   24.1600 N   0  0  0  0  0  0  0  0  0  0  0  0
  -25.8170  -34.9050   23.4140 C   0  0  0  0  0  0  0  0  0  0  0  0
  -26.5100  -34.8210   22.3960 O   0  0  0  0  0  0  0  0  0  0  0  0
  -24.8750  -33.9800   24.9490 H   0  0  0  0  0  0  0  0  0  0  0  0
  -24.0650  -36.6670   23.0310 C   0  0  0  0  0  1  0  0  0  0  0  0
  -25.2930  -36.2800   23.8690 C   0  0  0  0  0  3  0  0  0  0  0  0
  -27.3880  -37.2000   24.7610 C   0  0  0  0  0  1  0  0  0  0  0  0
  -26.3090  -37.3520   23.7890 N   0  0  0  0  0  0  0  0  0  0  0  0
  -25.8820  -38.2640   23.9320 H   0  0  0  0  0  0  0  0  0  0  0  0
  -26.3280  -31.6750   25.1050 C   0  0  1  0  0  0  0  0  0  0  0  0
  -25.2130  -31.4040   26.1420 C   0  0  0  0  0  1  0  0  0  0  0  0
  -26.9460  -30.3140   24.7100 C   0  0  0  0  0  1  0  0  0  0  0  0
  -27.4470  -32.4810   25.8060 C   0  0  0  0  0  1  0  0  0  0  0  0
  -27.2600  -21.3850   17.7510 C   0  0  0  0  0  1  0  0  0  0  0  0
  -28.6870  -20.8340   17.6190 C   0  0  0  0  0  2  0  0  0  0  0  0
  1  3  1  0
  2  6  1  0
  3  2  2  0
  4  6  2  0
  5  1  2  0
  5  4  1  0
  6  7  1  0
  8  3  1  0
  8  9  2  0
 10  9  1  0
 11 16  1  0
 12 13  1  0
 12 11  1  0
 14 13  1  0
 14 21  1  0
 14 15  1  0
 16 10  1  0
 16 15  1  0
 17 10  2  0
 18 19  2  0
 19 38  1  0
 20 19  1  0
 20 23  1  0
 21 18  1  0
 21 22  1  0
 22 20  2  0
 23 24  1  0
 24 25  2  0
 26 29  1  0
 26 25  1  0
 27 26  2  0
 28 27  1  0
 28 23  2  0
 29 30  1  0
 30 31  1  0
 31 32  2  0
 33 32  1  0
 33 37  1  0
 34 33  2  0
 35 30  2  0
 35 34  1  0
 36 35  1  0
 38 39  1  0
 39 42  1  0
 39 41  1  0
 40 38  2  0
 43 44  1  0
 43 18  1  0
 45 43  1  0
 46  4  1  0
 46 47  2  0
 48 49  1  0
 48 47  1  0
 49 50  2  0
 51 49  1  0
 52 63  2  0
 53 51  1  0
 53 58  1  0
 54 62  1  0
 54 64  1  0
 55 61  1  0
 55 57  1  0
 56 62  1  0
 57 58  2  0
 57 56  1  0
 59 53  2  0
 60 59  1  0
 60 55  2  0
 61 54  1  0
 62 52  1  0
 64 66  2  0
 65 64  1  0
 67 65  1  0
 68 77  2  0
 68 73  1  0
 69 65  1  0
 69 73  1  0
 70 69  1  0
 71 72  1  0
 71 70  1  0
 72 68  1  0
 73 74  2  0
 74 75  1  0
 76 75  2  0
 77 76  1  0
 78 52  1  0
 78 79  1  0
 78 88  1  0
 79 82  1  0
 80 84  1  0
 80 79  1  0
 81 80  2  0
 84 83  1  0
 86 84  1  0
 86 87  1  0
 86 85  1  0
 88 91  1  1
 88 89  1  0
 90 88  1  0
 93 92  1  0
 93  5  1  0
M  ISO  4   9 100  10 100  49 101  51 101
M  END
>  <TORSDO>  (48) 
F 21

>  <SCORE>  (48) 
-13.673

>  <name>  (48) 
47

>  <ligand_id>  (48) 
47

>  <original_smiles>  (48) 
[H]C(C(=O)N1C([H])([H])C([H])([H])C([H])([H])C([H])(n2nc(-c3c([H])c([H])c(Oc4c([H])c([H])c(F)c([H])c4F)c([H])c3[H])c(C(=O)N([H])[H])c2N([H])[H])C1([H])[H])=C([H])c1c([H])c(F)c(C([H])=C([H])C([H])([H])C(=O)Oc2c([H])c([H])c3c(c2[H])C([H])([H])N(C(=O)C([H])(N([H])C(=O)C([H])(N([H])C([H])([H])[H])C([H])([H])[H])C(C([H])([H])[H])(C([H])([H])[H])C([H])([H])[H])C([H])(C(=O)N([H])C2([H])c4c([H])c([H])c([H])c([H])c4C([H])([H])C([H])([H])C2([H])[H])C3([H])[H])c(C([H])([H])C([H])([H])[H])c1[H]

>  <smiles>  (48) 
[H]C(C(=O)N1C([H])([H])C([H])([H])C([H])([H])C([H])(n2nc(-c3c([H])c([H])c(Oc4c([H])c([H])c(F)c([H])c4F)c([H])c3[H])c(C(=O)N([H])[H])c2N([H])[H])C1([H])[H])=C([H])c1c([H])c(F)c(C([H])=C([H])C([H])([H])C(=O)Oc2c([H])c([H])c3c(c2[H])C([H])([H])N(C(=O)C([H])(N([H])C(=O)C([H])(N([H])C([H])([H])[H])C([H])([H])[H])C(C([H])([H])[H])(C([H])([H])[H])C([H])([H])[H])C([H])(C(=O)N([H])C2([H])c4c([H])c([H])c([H])c([H])c4C([H])([H])C([H])([H])C2([H])[H])C3([H])[H])c(C([H])([H])C([H])([H])[H])c1[H]

$$$$
48:0:0
     RDKit          3D

 89 97  0  0  1  0  0  0  0  0999 V2000
  -29.6530  -21.7760   20.4870 C   0  0  0  0  0  3  0  0  0  0  0  0
  -28.9250  -22.9180   20.4100 C   0  0  0  0  0  3  0  0  0  0  0  0
  -28.0480  -18.4670   20.2830 C   0  0  0  0  0  3  0  0  0  0  0  0
  -27.9090  -19.8880   20.2700 C   0  0  0  0  0  3  0  0  0  0  0  0
  -29.3860  -18.2020   20.4060 C   0  0  0  0  0  0  0  0  0  0  0  0
  -29.1620  -20.4170   20.4170 C   0  0  0  0  0  0  0  0  0  0  0  0
  -30.0700  -19.3900   20.5030 O   0  0  0  0  0  0  0  0  0  0  0  0
  -30.1520  -16.9800   20.4370 C   0  0  0  0  0  3  0  0  0  0  0  0
  -29.7210  -15.7080   20.6070 C   0  0  0  0  0  3  0  0  0  0  0  0
  -30.6040  -14.5420   20.4110 C   0  0  0  0  0  0  0  0  0  0  0  0
  -30.3640  -12.3260   19.3630 C   0  0  0  0  0  2  0  0  0  0  0  0
  -29.4420  -12.5110   18.1350 C   0  0  0  0  0  2  0  0  0  0  0  0
  -27.9560  -12.3810   18.5330 C   0  0  0  0  0  2  0  0  0  0  0  0
  -27.6010  -13.2300   19.7820 C   0  0  0  0  0  3  0  0  0  0  0  0
  -28.6430  -13.0330   20.9090 C   0  0  0  0  0  2  0  0  0  0  0  0
  -29.9710  -13.3350   20.3610 N   0  0  0  0  0  0  0  0  0  0  0  0
  -31.7850  -14.6630   20.0690 O   0  0  0  0  0  0  0  0  0  0  0  0
  -25.2090  -13.8680   20.4760 C   0  0  0  0  0  0  0  0  0  0  0  0
  -24.1310  -13.1090   20.8440 C   0  0  0  0  0  0  0  0  0  0  0  0
  -24.5820  -11.7540   20.8270 C   0  0  0  0  0  0  0  0  0  0  0  0
  -26.2460  -12.9740   20.2560 N   0  0  0  0  0  0  0  0  0  0  0  0
  -25.8720  -11.6980   20.5260 N   0  0  0  0  0  0  0  0  0  0  0  0
  -23.8430  -10.5000   21.0170 C   0  0  0  0  0  0  0  0  0  0  0  0
  -24.2660   -9.5330   21.9560 C   0  0  0  0  0  3  0  0  0  0  0  0
  -23.5340   -8.3410   22.1330 C   0  0  0  0  0  3  0  0  0  0  0  0
  -22.3630   -8.1080   21.3710 C   0  0  0  0  0  0  0  0  0  0  0  0
  -21.9610   -9.0620   20.4190 C   0  0  0  0  0  3  0  0  0  0  0  0
  -22.6950  -10.2470   20.2400 C   0  0  0  0  0  3  0  0  0  0  0  0
  -21.6000   -6.9700   21.4610 O   0  0  0  0  0  0  0  0  0  0  0  0
  -21.5360   -6.2320   22.6170 C   0  0  0  0  0  0  0  0  0  0  0  0
  -21.0950   -6.7900   23.8360 C   0  0  0  0  0  3  0  0  0  0  0  0
  -20.9810   -5.9770   24.9810 C   0  0  0  0  0  3  0  0  0  0  0  0
  -21.2970   -4.6080   24.9090 C   0  0  0  0  0  0  0  0  0  0  0  0
  -21.7340   -4.0500   23.6950 C   0  0  0  0  0  3  0  0  0  0  0  0
  -21.8510   -4.8590   22.5520 C   0  0  0  0  0  0  0  0  0  0  0  0
  -22.2500   -4.3110   21.3780 F   0  0  0  0  0  0  0  0  0  0  0  0
  -21.1820   -3.8270   26.0070 F   0  0  0  0  0  0  0  0  0  0  0  0
  -22.7350  -13.6010   21.0970 C   0  0  0  0  0  0  0  0  0  0  0  0
  -21.9890  -12.9150   21.9570 N   0  0  0  0  0  0  0  0  0  0  0  0
  -22.3120  -14.6270   20.5640 O   0  0  0  0  0  0  0  0  0  0  0  0
  -22.3430  -12.0890   22.4150 H   0  0  0  0  0  0  0  0  0  0  0  0
  -21.0490  -13.2240   22.1600 H   0  0  0  0  0  0  0  0  0  0  0  0
  -25.3850  -15.2350   20.2910 N   0  0  0  0  0  0  0  0  0  0  0  0
  -24.6210  -15.8940   20.3950 H   0  0  0  0  0  0  0  0  0  0  0  0
  -26.2330  -15.6610   19.9420 H   0  0  0  0  0  0  0  0  0  0  0  0
  -30.8850  -24.5880   20.1840 C   0  0  0  0  0  1  0  0  0  0  0  0
  -29.3930  -24.3840   20.5080 C   0  0  0  0  0  3  0  0  0  0  0  0
  -28.4770  -25.3330   19.6830 C   0  0  0  0  0  2  0  0  0  0  0  0
  -28.4700  -26.6990   20.1630 O   0  0  0  0  0  0  0  0  0  0  0  0
  -24.6220  -31.8840   23.2360 C   0  0  0  0  0  0  0  0  0  0  0  0
  -27.2850  -27.4290   20.1350 C   0  0  0  0  0  0  0  0  0  0  0  0
  -23.4240  -30.4830   21.5930 C   0  0  0  0  0  3  0  0  0  0  0  0
  -24.8830  -28.9530   20.1630 C   0  0  0  0  0  0  0  0  0  0  0  0
  -25.9550  -30.8320   21.4060 C   0  0  0  0  0  2  0  0  0  0  0  0
  -26.0410  -29.4610   20.7620 C   0  0  0  0  0  0  0  0  0  0  0  0
  -27.2400  -28.7060   20.7500 C   0  0  0  0  0  3  0  0  0  0  0  0
  -26.1040  -26.9570   19.5080 C   0  0  0  0  0  3  0  0  0  0  0  0
  -24.9120  -27.7000   19.5330 C   0  0  0  0  0  3  0  0  0  0  0  0
  -23.6370  -29.8100   20.2120 C   0  0  0  0  0  2  0  0  0  0  0  0
  -24.6870  -31.0800   22.1370 N   0  0  0  0  0  0  0  0  0  0  0  0
  -23.5380  -32.1560   23.7700 O   0  0  0  0  0  0  0  0  0  0  0  0
  -22.7720  -29.4580   22.5500 C   0  0  0  0  0  0  0  0  0  0  0  0
  -21.4460  -29.2770   22.4230 N   0  0  0  0  0  0  0  0  0  0  0  0
  -23.4540  -28.8290   23.3630 O   0  0  0  0  0  0  0  0  0  0  0  0
  -20.9580  -29.8360   21.7370 H   0  0  0  0  0  0  0  0  0  0  0  0
  -18.0690  -28.1010   22.9340 C   0  0  0  0  0  0  0  0  0  0  0  0
  -20.6290  -28.3380   23.1910 C   0  0  0  0  0  3  0  0  0  0  0  0
  -20.7180  -26.9120   22.6000 C   0  0  0  0  0  2  0  0  0  0  0  0
  -19.6040  -26.6060   21.5930 C   0  0  0  0  0  2  0  0  0  0  0  0
  -18.2300  -26.7550   22.2500 C   0  0  0  0  0  2  0  0  0  0  0  0
  -19.1950  -28.8520   23.3630 C   0  0  0  0  0  0  0  0  0  0  0  0
  -18.9890  -30.1130   23.9650 C   0  0  0  0  0  3  0  0  0  0  0  0
  -17.6890  -30.6220   24.1410 C   0  0  0  0  0  3  0  0  0  0  0  0
  -16.5760  -29.8700   23.7260 C   0  0  0  0  0  3  0  0  0  0  0  0
  -16.7680  -28.6110   23.1290 C   0  0  0  0  0  3  0  0  0  0  0  0
  -25.9040  -32.5190   23.8590 C   0  0  0  0  0  3  0  0  0  0  0  0
  -26.4180  -31.7510   25.1380 C   0  0  1  0  0  0  0  0  0  0  0  0
  -25.3220  -31.5090   26.2030 C   0  0  0  0  0  1  0  0  0  0  0  0
  -27.0030  -30.3730   24.7470 C   0  0  0  0  0  1  0  0  0  0  0  0
  -27.5640  -32.5500   25.8000 C   0  0  0  0  0  1  0  0  0  0  0  0
  -25.5870  -33.9160   24.1820 N   0  0  0  0  0  0  0  0  0  0  0  0
  -25.9140  -34.9680   23.4200 C   0  0  0  0  0  0  0  0  0  0  0  0
  -26.5850  -34.8650   22.3890 O   0  0  0  0  0  0  0  0  0  0  0  0
  -24.9820  -34.0670   24.9770 H   0  0  0  0  0  0  0  0  0  0  0  0
  -24.1760  -36.7540   23.0610 C   0  0  0  0  0  1  0  0  0  0  0  0
  -25.4210  -36.3580   23.8720 C   0  0  0  0  0  3  0  0  0  0  0  0
  -27.5540  -37.2560   24.6960 C   0  0  0  0  0  1  0  0  0  0  0  0
  -26.4500  -37.4140   23.7540 N   0  0  0  0  0  0  0  0  0  0  0  0
  -26.0410  -38.3350   23.8930 H   0  0  0  0  0  0  0  0  0  0  0  0
  2  1  2  0
  2 47  1  0
  3  5  2  0
  4  3  1  0
  4  6  2  0
  5  8  1  0
  5  7  1  0
  6  1  1  0
  6  7  1  0
  8  9  2  0
 10  9  1  0
 11 16  1  0
 12 13  1  0
 12 11  1  0
 14 13  1  0
 14 21  1  0
 14 15  1  0
 16 10  1  0
 16 15  1  0
 17 10  2  0
 18 19  2  0
 19 38  1  0
 20 19  1  0
 20 23  1  0
 21 18  1  0
 21 22  1  0
 22 20  2  0
 23 24  1  0
 24 25  2  0
 26 29  1  0
 26 25  1  0
 27 26  2  0
 28 27  1  0
 28 23  2  0
 29 30  1  0
 30 31  1  0
 31 32  2  0
 33 32  1  0
 33 37  1  0
 34 33  2  0
 35 30  2  0
 35 34  1  0
 36 35  1  0
 38 39  1  0
 39 42  1  0
 39 41  1  0
 40 38  2  0
 43 44  1  0
 43 18  1  0
 45 43  1  0
 47 46  1  0
 48 49  1  0
 48 47  1  0
 50 61  2  0
 51 49  1  0
 51 56  1  0
 52 60  1  0
 52 62  1  0
 53 59  1  0
 53 55  1  0
 54 60  1  0
 55 54  1  0
 56 55  2  0
 57 58  1  0
 57 51  2  0
 58 53  2  0
 59 52  1  0
 60 50  1  0
 62 64  2  0
 63 62  1  0
 65 63  1  0
 66 75  2  0
 66 71  1  0
 67 63  1  0
 67 71  1  0
 68 67  1  0
 69 70  1  0
 69 68  1  0
 70 66  1  0
 71 72  2  0
 72 73  1  0
 74 73  2  0
 75 74  1  0
 76 50  1  0
 76 81  1  0
 76 77  1  0
 77 80  1  1
 77 78  1  0
 79 77  1  0
 81 84  1  0
 82 86  1  0
 82 81  1  0
 83 82  2  0
 86 85  1  0
 88 86  1  0
 88 89  1  0
 88 87  1  0
M  ISO  4   9 100  10 100  48 101  49 101
M  END
>  <TORSDO>  (49) 
F 20

>  <SCORE>  (49) 
-13.855

>  <name>  (49) 
48

>  <ligand_id>  (49) 
48

>  <original_smiles>  (49) 
[H]C(C(=O)N1C([H])([H])C([H])([H])C([H])([H])C([H])(n2nc(-c3c([H])c([H])c(Oc4c([H])c([H])c(F)c([H])c4F)c([H])c3[H])c(C(=O)N([H])[H])c2N([H])[H])C1([H])[H])=C([H])c1oc(C([H])=C([H])C([H])(C([H])([H])[H])C([H])([H])Oc2c([H])c([H])c3c(c2[H])C([H])([H])N(C(=O)C([H])(N([H])C(=O)C([H])(N([H])C([H])([H])[H])C([H])([H])[H])C(C([H])([H])[H])(C([H])([H])[H])C([H])([H])[H])C([H])(C(=O)N([H])C2([H])c4c([H])c([H])c([H])c([H])c4C([H])([H])C([H])([H])C2([H])[H])C3([H])[H])c([H])c1[H]

>  <smiles>  (49) 
[H]C(C(=O)N1C([H])([H])C([H])([H])C([H])([H])C([H])(n2nc(-c3c([H])c([H])c(Oc4c([H])c([H])c(F)c([H])c4F)c([H])c3[H])c(C(=O)N([H])[H])c2N([H])[H])C1([H])[H])=C([H])c1oc(C([H])=C([H])C([H])(C([H])([H])[H])C([H])([H])Oc2c([H])c([H])c3c(c2[H])C([H])([H])N(C(=O)C([H])(N([H])C(=O)C([H])(N([H])C([H])([H])[H])C([H])([H])[H])C(C([H])([H])[H])(C([H])([H])[H])C([H])([H])[H])C([H])(C(=O)N([H])C2([H])c4c([H])c([H])c([H])c([H])c4C([H])([H])C([H])([H])C2([H])[H])C3([H])[H])c([H])c1[H]

$$$$
49:0:0
     RDKit          3D

 89 98  0  0  1  0  0  0  0  0999 V2000
  -30.3990  -15.4620   20.3540 C   0  0  0  0  0  0  0  0  0  0  0  0
  -30.4210  -12.9520   19.5400 C   0  0  0  0  0  2  0  0  0  0  0  0
  -29.5380  -12.6160   18.3090 C   0  0  0  0  0  2  0  0  0  0  0  0
  -28.1010  -12.2990   18.7460 C   0  0  0  0  0  2  0  0  0  0  0  0
  -27.6000  -13.2970   19.8180 C   0  0  0  0  0  3  0  0  0  0  0  0
  -28.6220  -13.5720   20.9450 C   0  0  0  0  0  2  0  0  0  0  0  0
  -29.8230  -14.1350   20.2960 N   0  0  0  0  0  0  0  0  0  0  0  0
  -31.6180  -15.3770   20.1140 O   0  0  0  0  0  0  0  0  0  0  0  0
  -27.9110  -21.6600   21.4930 C   0  0  0  0  0  3  0  0  0  0  0  0
  -29.2600  -21.1450   19.6480 C   0  0  0  0  0  3  0  0  0  0  0  0
  -27.9710  -20.2370   21.8880 C   0  0  0  0  0  0  0  0  0  0  0  0
  -29.3650  -19.6520   20.0500 C   0  0  0  0  0  0  0  0  0  0  0  0
  -28.6920  -19.2120   21.1580 C   0  0  0  0  0  0  0  0  0  0  0  0
  -28.5150  -22.3010   20.3450 C   0  0  0  0  0  0  0  0  0  0  0  0
  -30.0660  -18.2190   19.5470 C   0  0  0  0  0  3  0  0  0  0  0  0
  -28.8620  -17.5990   21.3710 C   0  0  0  0  0  3  0  0  0  0  0  0
  -29.7230  -16.8420   20.3250 N   0  0  0  0  0  0  0  0  0  0  0  0
  -25.2340  -13.8280   20.5790 C   0  0  0  0  0  0  0  0  0  0  0  0
  -24.1720  -13.0440   20.9270 C   0  0  0  0  0  0  0  0  0  0  0  0
  -24.6400  -11.6950   20.8770 C   0  0  0  0  0  0  0  0  0  0  0  0
  -26.2770  -12.9590   20.3240 N   0  0  0  0  0  0  0  0  0  0  0  0
  -25.9340  -11.6670   20.5720 N   0  0  0  0  0  0  0  0  0  0  0  0
  -23.9100  -10.4300   21.0400 C   0  0  0  0  0  0  0  0  0  0  0  0
  -24.3640   -9.4210   21.9180 C   0  0  0  0  0  3  0  0  0  0  0  0
  -23.6310   -8.2250   22.0750 C   0  0  0  0  0  3  0  0  0  0  0  0
  -22.4290   -8.0280   21.3540 C   0  0  0  0  0  0  0  0  0  0  0  0
  -21.9930   -9.0260   20.4650 C   0  0  0  0  0  3  0  0  0  0  0  0
  -22.7270  -10.2130   20.3050 C   0  0  0  0  0  3  0  0  0  0  0  0
  -21.6650   -6.8890   21.4240 O   0  0  0  0  0  0  0  0  0  0  0  0
  -21.6860   -6.0740   22.5280 C   0  0  0  0  0  0  0  0  0  0  0  0
  -21.4020   -6.5640   23.8210 C   0  0  0  0  0  3  0  0  0  0  0  0
  -21.3660   -5.6800   24.9170 C   0  0  0  0  0  3  0  0  0  0  0  0
  -21.6040   -4.3060   24.7220 C   0  0  0  0  0  0  0  0  0  0  0  0
  -21.8820   -3.8150   23.4340 C   0  0  0  0  0  3  0  0  0  0  0  0
  -21.9190   -4.6970   22.3400 C   0  0  0  0  0  0  0  0  0  0  0  0
  -22.1660   -4.2150   21.0980 F   0  0  0  0  0  0  0  0  0  0  0  0
  -21.5630   -3.4540   25.7730 F   0  0  0  0  0  0  0  0  0  0  0  0
  -22.7730  -13.5180   21.1910 C   0  0  0  0  0  0  0  0  0  0  0  0
  -22.0400  -12.8160   22.0470 N   0  0  0  0  0  0  0  0  0  0  0  0
  -22.3400  -14.5470   20.6740 O   0  0  0  0  0  0  0  0  0  0  0  0
  -22.4040  -11.9830   22.4860 H   0  0  0  0  0  0  0  0  0  0  0  0
  -21.1000  -13.1150   22.2670 H   0  0  0  0  0  0  0  0  0  0  0  0
  -25.3980  -15.2020   20.4250 N   0  0  0  0  0  0  0  0  0  0  0  0
  -24.6290  -15.8530   20.5410 H   0  0  0  0  0  0  0  0  0  0  0  0
  -26.2440  -15.6440   20.0910 H   0  0  0  0  0  0  0  0  0  0  0  0
  -26.5050  -20.5210   23.9300 C   0  0  0  0  0  2  0  0  0  0  0  0
  -27.2430  -19.7760   23.0870 C   0  0  0  0  0  3  0  0  0  0  0  0
  -28.0510  -23.9850   19.8250 C   0  0  0  0  0  2  0  0  0  0  0  0
  -28.1710  -25.6100   20.3360 O   0  0  0  0  0  0  0  0  0  0  0  0
  -24.6750  -31.8100   23.1590 C   0  0  0  0  0  0  0  0  0  0  0  0
  -27.2190  -26.7990   20.1960 C   0  0  0  0  0  0  0  0  0  0  0  0
  -23.4960  -30.4160   21.5100 C   0  0  0  0  0  3  0  0  0  0  0  0
  -24.9530  -28.7810   20.1070 C   0  0  0  0  0  0  0  0  0  0  0  0
  -26.0710  -30.5720   21.4120 C   0  0  0  0  0  2  0  0  0  0  0  0
  -26.1370  -29.1490   20.7580 C   0  0  0  0  0  0  0  0  0  0  0  0
  -27.2550  -28.1790   20.7810 C   0  0  0  0  0  3  0  0  0  0  0  0
  -26.0130  -26.6240   19.4750 C   0  0  0  0  0  3  0  0  0  0  0  0
  -24.9250  -27.5420   19.4440 C   0  0  0  0  0  3  0  0  0  0  0  0
  -23.7440  -29.7230   20.1400 C   0  0  0  0  0  2  0  0  0  0  0  0
  -24.7700  -30.9640   22.0800 N   0  0  0  0  0  0  0  0  0  0  0  0
  -23.5790  -32.1130   23.6610 O   0  0  0  0  0  0  0  0  0  0  0  0
  -22.7730  -29.4360   22.4730 C   0  0  0  0  0  0  0  0  0  0  0  0
  -21.4380  -29.3030   22.3490 N   0  0  0  0  0  0  0  0  0  0  0  0
  -23.4210  -28.7950   23.3030 O   0  0  0  0  0  0  0  0  0  0  0  0
  -20.9660  -29.8710   21.6590 H   0  0  0  0  0  0  0  0  0  0  0  0
  -18.0330  -28.1420   22.8460 C   0  0  0  0  0  0  0  0  0  0  0  0
  -20.5960  -28.3770   23.1160 C   0  0  0  0  0  3  0  0  0  0  0  0
  -20.6800  -26.9440   22.5410 C   0  0  0  0  0  2  0  0  0  0  0  0
  -19.5780  -26.6370   21.5220 C   0  0  0  0  0  2  0  0  0  0  0  0
  -18.1960  -26.7950   22.1620 C   0  0  0  0  0  2  0  0  0  0  0  0
  -19.1600  -28.8920   23.2790 C   0  0  0  0  0  0  0  0  0  0  0  0
  -18.9510  -30.1510   23.8830 C   0  0  0  0  0  3  0  0  0  0  0  0
  -17.6500  -30.6610   24.0560 C   0  0  0  0  0  3  0  0  0  0  0  0
  -16.5390  -29.9090   23.6350 C   0  0  0  0  0  3  0  0  0  0  0  0
  -16.7310  -28.6510   23.0370 C   0  0  0  0  0  3  0  0  0  0  0  0
  -25.9380  -32.4520   23.8100 C   0  0  0  0  0  3  0  0  0  0  0  0
  -25.6000  -33.8340   24.2000 N   0  0  0  0  0  0  0  0  0  0  0  0
  -25.9110  -34.9310   23.4970 C   0  0  0  0  0  0  0  0  0  0  0  0
  -26.5740  -34.8880   22.4580 O   0  0  0  0  0  0  0  0  0  0  0  0
  -25.0090  -33.9390   25.0120 H   0  0  0  0  0  0  0  0  0  0  0  0
  -24.1490  -36.7170   23.2650 C   0  0  0  0  0  1  0  0  0  0  0  0
  -25.4140  -36.2920   24.0290 C   0  0  0  0  0  3  0  0  0  0  0  0
  -27.5560  -37.1740   24.8470 C   0  0  0  0  0  1  0  0  0  0  0  0
  -26.4270  -37.3670   23.9410 N   0  0  0  0  0  0  0  0  0  0  0  0
  -26.0100  -38.2720   24.1430 H   0  0  0  0  0  0  0  0  0  0  0  0
  -26.4590  -31.6510   25.0690 C   0  0  1  0  0  0  0  0  0  0  0  0
  -25.3670  -31.3820   26.1320 C   0  0  0  0  0  1  0  0  0  0  0  0
  -27.0510  -30.2860   24.6520 C   0  0  0  0  0  1  0  0  0  0  0  0
  -27.6050  -32.4360   25.7500 C   0  0  0  0  0  1  0  0  0  0  0  0
  2  7  1  0
  3  4  1  0
  3  2  1  0
  5  4  1  0
  5 21  1  0
  5  6  1  0
  7  1  1  0
  7  6  1  0
  8  1  2  0
  9 11  2  0
 10 12  1  0
 10 14  2  0
 11 47  1  0
 12 13  1  0
 13 16  2  0
 13 11  1  0
 14  9  1  0
 15 12  2  0
 15 17  1  0
 17  1  1  0
 17 16  1  0
 18 19  2  0
 19 38  1  0
 20 19  1  0
 20 23  1  0
 21 22  1  0
 21 18  1  0
 22 20  2  0
 23 24  1  0
 24 25  2  0
 26 29  1  0
 26 25  1  0
 27 26  2  0
 28 27  1  0
 28 23  2  0
 29 30  1  0
 30 31  1  0
 31 32  2  0
 33 32  1  0
 33 37  1  0
 34 33  2  0
 35 30  2  0
 35 34  1  0
 36 35  1  0
 38 39  1  0
 39 42  1  0
 39 41  1  0
 40 38  2  0
 43 44  1  0
 43 18  1  0
 45 43  1  0
 47 46  2  0
 48 49  1  0
 48 14  1  0
 50 61  2  0
 51 49  1  0
 51 56  1  0
 52 60  1  0
 52 62  1  0
 53 59  1  0
 53 55  1  0
 54 60  1  0
 55 56  2  0
 55 54  1  0
 57 51  2  0
 58 57  1  0
 58 53  2  0
 59 52  1  0
 60 50  1  0
 62 64  2  0
 63 62  1  0
 65 63  1  0
 66 75  2  0
 66 71  1  0
 67 63  1  0
 67 71  1  0
 68 67  1  0
 69 70  1  0
 69 68  1  0
 70 66  1  0
 71 72  2  0
 72 73  1  0
 74 73  2  0
 75 74  1  0
 76 50  1  0
 76 77  1  0
 76 86  1  0
 77 80  1  0
 78 82  1  0
 78 77  1  0
 79 78  2  0
 82 81  1  0
 84 82  1  0
 84 85  1  0
 84 83  1  0
 86 89  1  1
 86 87  1  0
 88 86  1  0
M  ISO  4   1 100  17 100  48 101  49 101
M  END
>  <TORSDO>  (50) 
F 17

>  <SCORE>  (50) 
13.177

>  <name>  (50) 
49

>  <ligand_id>  (50) 
49

>  <original_smiles>  (50) 
[H]C([H])=C([H])c1c([H])c(C([H])([H])Oc2c([H])c([H])c3c(c2[H])C([H])([H])N(C(=O)C([H])(N([H])C(=O)C([H])(N([H])C([H])([H])[H])C([H])([H])[H])C(C([H])([H])[H])(C([H])([H])[H])C([H])([H])[H])C([H])(C(=O)N([H])C2([H])c4c([H])c([H])c([H])c([H])c4C([H])([H])C([H])([H])C2([H])[H])C3([H])[H])c([H])c2c1C([H])([H])N(C(=O)N1C([H])([H])C([H])([H])C([H])([H])C([H])(n3nc(-c4c([H])c([H])c(Oc5c([H])c([H])c(F)c([H])c5F)c([H])c4[H])c(C(=O)N([H])[H])c3N([H])[H])C1([H])[H])C2([H])[H]

>  <smiles>  (50) 
[H]C([H])=C([H])c1c([H])c(C([H])([H])Oc2c([H])c([H])c3c(c2[H])C([H])([H])N(C(=O)C([H])(N([H])C(=O)C([H])(N([H])C([H])([H])[H])C([H])([H])[H])C(C([H])([H])[H])(C([H])([H])[H])C([H])([H])[H])C([H])(C(=O)N([H])C2([H])c4c([H])c([H])c([H])c([H])c4C([H])([H])C([H])([H])C2([H])[H])C3([H])[H])c([H])c2c1C([H])([H])N(C(=O)N1C([H])([H])C([H])([H])C([H])([H])C([H])(n3nc(-c4c([H])c([H])c(Oc5c([H])c([H])c(F)c([H])c5F)c([H])c4[H])c(C(=O)N([H])[H])c3N([H])[H])C1([H])[H])C2([H])[H]

$$$$
50:0:0
     RDKit          3D

 92100  0  0  1  0  0  0  0  0999 V2000
  -30.9260  -20.0330   21.1530 C   0  0  0  0  0  3  0  0  0  0  0  0
  -31.3390  -17.6310   21.4060 C   0  0  0  0  0  3  0  0  0  0  0  0
  -29.7110  -19.8140   20.4680 C   0  0  0  0  0  0  0  0  0  0  0  0
  -29.3190  -18.4180   20.2770 C   0  0  0  0  0  0  0  0  0  0  0  0
  -30.1440  -17.3040   20.7300 C   0  0  0  0  0  0  0  0  0  0  0  0
  -31.7190  -18.9690   21.6210 C   0  0  0  0  0  0  0  0  0  0  0  0
  -32.8700  -19.2370   22.2840 F   0  0  0  0  0  0  0  0  0  0  0  0
  -30.5680  -14.7550   20.4010 C   0  0  0  0  0  0  0  0  0  0  0  0
  -30.3450  -12.5030   19.3570 C   0  0  0  0  0  2  0  0  0  0  0  0
  -29.4000  -12.5980   18.1420 C   0  0  0  0  0  2  0  0  0  0  0  0
  -27.9310  -12.4330   18.5780 C   0  0  0  0  0  2  0  0  0  0  0  0
  -27.5680  -13.3130   19.8050 C   0  0  0  0  0  3  0  0  0  0  0  0
  -28.6320  -13.2020   20.9180 C   0  0  0  0  0  2  0  0  0  0  0  0
  -29.9280  -13.5440   20.3190 N   0  0  0  0  0  0  0  0  0  0  0  0
  -31.7580  -14.8520   20.0870 O   0  0  0  0  0  0  0  0  0  0  0  0
  -29.7810  -15.8760   20.5870 N   0  0  0  0  0  0  0  0  0  0  0  0
  -28.7960  -15.6780   20.6200 H   0  0  0  0  0  0  0  0  0  0  0  0
  -25.1800  -13.9050   20.5390 C   0  0  0  0  0  0  0  0  0  0  0  0
  -24.1160  -13.1320   20.9140 C   0  0  0  0  0  0  0  0  0  0  0  0
  -24.5800  -11.7810   20.8820 C   0  0  0  0  0  0  0  0  0  0  0  0
  -26.2240  -13.0270   20.3000 N   0  0  0  0  0  0  0  0  0  0  0  0
  -25.8700  -11.7440   20.5680 N   0  0  0  0  0  0  0  0  0  0  0  0
  -23.8550  -10.5170   21.0700 C   0  0  0  0  0  0  0  0  0  0  0  0
  -24.2920   -9.5440   21.9940 C   0  0  0  0  0  3  0  0  0  0  0  0
  -23.5660   -8.3460   22.1710 C   0  0  0  0  0  3  0  0  0  0  0  0
  -22.3860   -8.1160   21.4240 C   0  0  0  0  0  0  0  0  0  0  0  0
  -21.9680   -9.0780   20.4880 C   0  0  0  0  0  3  0  0  0  0  0  0
  -22.6950  -10.2670   20.3090 C   0  0  0  0  0  3  0  0  0  0  0  0
  -21.6300   -6.9720   21.5110 O   0  0  0  0  0  0  0  0  0  0  0  0
  -21.5970   -6.2170   22.6550 C   0  0  0  0  0  0  0  0  0  0  0  0
  -21.2010   -6.7620   23.8970 C   0  0  0  0  0  3  0  0  0  0  0  0
  -21.1150   -5.9330   25.0340 C   0  0  0  0  0  3  0  0  0  0  0  0
  -21.4140   -4.5620   24.9310 C   0  0  0  0  0  0  0  0  0  0  0  0
  -21.8050   -4.0170   23.6950 C   0  0  0  0  0  3  0  0  0  0  0  0
  -21.8930   -4.8420   22.5610 C   0  0  0  0  0  0  0  0  0  0  0  0
  -22.2480   -4.3070   21.3670 F   0  0  0  0  0  0  0  0  0  0  0  0
  -21.3250   -3.7640   26.0210 F   0  0  0  0  0  0  0  0  0  0  0  0
  -22.7190  -13.6090   21.1860 C   0  0  0  0  0  0  0  0  0  0  0  0
  -21.9910  -12.9100   22.0500 N   0  0  0  0  0  0  0  0  0  0  0  0
  -22.2820  -14.6350   20.6680 O   0  0  0  0  0  0  0  0  0  0  0  0
  -22.3570  -12.0800   22.4900 H   0  0  0  0  0  0  0  0  0  0  0  0
  -21.0520  -13.2110   22.2730 H   0  0  0  0  0  0  0  0  0  0  0  0
  -25.3370  -15.2750   20.3560 N   0  0  0  0  0  0  0  0  0  0  0  0
  -24.5550  -15.9140   20.4480 H   0  0  0  0  0  0  0  0  0  0  0  0
  -26.1510  -15.7050   19.9380 H   0  0  0  0  0  0  0  0  0  0  0  0
  -28.2420  -17.8300   18.0500 C   0  0  0  0  0  1  0  0  0  0  0  0
  -28.0240  -18.0790   19.5500 C   0  0  0  0  0  2  0  0  0  0  0  0
  -28.9860  -21.1030   19.8730 C   0  0  0  0  0  3  0  0  0  0  0  0
  -28.9170  -22.4900   20.6930 C   0  0  0  0  0  3  0  0  0  0  0  0
  -28.5680  -23.8730   19.9380 C   0  0  0  0  0  3  0  0  0  0  0  0
  -28.2930  -25.1870   20.8180 C   0  0  0  0  0  3  0  0  0  0  0  0
  -28.3780  -26.5550   20.2450 O   0  0  0  0  0  0  0  0  0  0  0  0
  -24.6110  -31.9570   23.2610 C   0  0  0  0  0  0  0  0  0  0  0  0
  -27.2430  -27.3800   20.2560 C   0  0  0  0  0  0  0  0  0  0  0  0
  -23.4130  -30.5380   21.6300 C   0  0  0  0  0  3  0  0  0  0  0  0
  -24.8710  -28.9730   20.2230 C   0  0  0  0  0  0  0  0  0  0  0  0
  -25.9480  -30.8670   21.4430 C   0  0  0  0  0  2  0  0  0  0  0  0
  -26.0360  -29.4800   20.8130 C   0  0  0  0  0  0  0  0  0  0  0  0
  -27.2280  -28.6960   20.8150 C   0  0  0  0  0  3  0  0  0  0  0  0
  -26.0560  -26.9150   19.6560 C   0  0  0  0  0  3  0  0  0  0  0  0
  -24.8820  -27.6950   19.6360 C   0  0  0  0  0  3  0  0  0  0  0  0
  -23.6300  -29.8440   20.2580 C   0  0  0  0  0  2  0  0  0  0  0  0
  -24.6760  -31.1380   22.1690 N   0  0  0  0  0  0  0  0  0  0  0  0
  -23.5270  -32.2360   23.7940 O   0  0  0  0  0  0  0  0  0  0  0  0
  -22.7510  -29.5300   22.6000 C   0  0  0  0  0  0  0  0  0  0  0  0
  -21.4260  -29.3450   22.4710 N   0  0  0  0  0  0  0  0  0  0  0  0
  -23.4290  -28.9180   23.4280 O   0  0  0  0  0  0  0  0  0  0  0  0
  -20.9380  -29.8900   21.7760 H   0  0  0  0  0  0  0  0  0  0  0  0
  -18.0560  -28.1300   22.9610 C   0  0  0  0  0  0  0  0  0  0  0  0
  -20.6100  -28.4110   23.2500 C   0  0  0  0  0  3  0  0  0  0  0  0
  -20.7280  -26.9720   22.6930 C   0  0  0  0  0  2  0  0  0  0  0  0
  -19.6370  -26.6290   21.6740 C   0  0  0  0  0  2  0  0  0  0  0  0
  -18.2480  -26.7730   22.3050 C   0  0  0  0  0  2  0  0  0  0  0  0
  -19.1650  -28.9060   23.3900 C   0  0  0  0  0  0  0  0  0  0  0  0
  -18.9340  -30.1750   23.9640 C   0  0  0  0  0  3  0  0  0  0  0  0
  -17.6240  -30.6680   24.1130 C   0  0  0  0  0  3  0  0  0  0  0  0
  -16.5280  -29.8900   23.7030 C   0  0  0  0  0  3  0  0  0  0  0  0
  -16.7450  -28.6240   23.1310 C   0  0  0  0  0  3  0  0  0  0  0  0
  -25.8930  -32.5970   23.8770 C   0  0  0  0  0  3  0  0  0  0  0  0
  -25.5790  -33.9970   24.2000 N   0  0  0  0  0  0  0  0  0  0  0  0
  -25.9150  -35.0460   23.4370 C   0  0  0  0  0  0  0  0  0  0  0  0
  -26.5890  -34.9380   22.4080 O   0  0  0  0  0  0  0  0  0  0  0  0
  -24.9810  -34.1550   24.9960 H   0  0  0  0  0  0  0  0  0  0  0  0
  -24.1900  -36.8380   23.0630 C   0  0  0  0  0  1  0  0  0  0  0  0
  -25.4250  -36.4370   23.8860 C   0  0  0  0  0  3  0  0  0  0  0  0
  -27.5530  -37.3260   24.7270 C   0  0  0  0  0  1  0  0  0  0  0  0
  -26.4570  -37.4900   23.7750 N   0  0  0  0  0  0  0  0  0  0  0  0
  -26.0510  -38.4100   23.9170 H   0  0  0  0  0  0  0  0  0  0  0  0
  -26.4120  -31.8360   25.1590 C   0  0  1  0  0  0  0  0  0  0  0  0
  -25.3190  -31.6060   26.2290 C   0  0  0  0  0  1  0  0  0  0  0  0
  -26.9990  -30.4580   24.7770 C   0  0  0  0  0  1  0  0  0  0  0  0
  -27.5610  -32.6390   25.8150 C   0  0  0  0  0  1  0  0  0  0  0  0
  1  6  1  0
  2  6  2  0
  3  1  2  0
  4  3  1  0
  4  5  2  0
  5  2  1  0
  6  7  1  0
  8 16  1  0
  9 14  1  0
 10 11  1  0
 10  9  1  0
 12 11  1  0
 12 21  1  0
 12 13  1  0
 14  8  1  0
 14 13  1  0
 15  8  2  0
 16 17  1  0
 16  5  1  0
 18 19  2  0
 19 38  1  0
 20 19  1  0
 20 23  1  0
 21 18  1  0
 21 22  1  0
 22 20  2  0
 23 24  1  0
 24 25  2  0
 26 29  1  0
 26 25  1  0
 27 26  2  0
 28 27  1  0
 28 23  2  0
 29 30  1  0
 30 31  1  0
 31 32  2  0
 33 32  1  0
 33 37  1  0
 34 33  2  0
 35 30  2  0
 35 34  1  0
 36 35  1  0
 38 39  1  0
 39 42  1  0
 39 41  1  0
 40 38  2  0
 43 44  1  0
 43 18  1  0
 45 43  1  0
 46 47  1  0
 47  4  1  0
 48  3  1  0
 48 49  2  0
 50 49  1  0
 50 51  2  0
 52 54  1  0
 52 51  1  0
 53 64  2  0
 54 59  1  0
 55 63  1  0
 55 65  1  0
 56 62  1  0
 56 58  1  0
 57 63  1  0
 58 59  2  0
 58 57  1  0
 60 54  2  0
 61 60  1  0
 61 56  2  0
 62 55  1  0
 63 53  1  0
 65 67  2  0
 66 65  1  0
 68 66  1  0
 69 78  2  0
 69 74  1  0
 70 66  1  0
 70 74  1  0
 71 70  1  0
 72 73  1  0
 72 71  1  0
 73 69  1  0
 74 75  2  0
 75 76  1  0
 77 76  2  0
 78 77  1  0
 79 53  1  0
 79 80  1  0
 79 89  1  0
 80 83  1  0
 81 85  1  0
 81 80  1  0
 82 81  2  0
 85 84  1  0
 87 85  1  0
 87 88  1  0
 87 86  1  0
 89 92  1  1
 89 90  1  0
 91 89  1  0
M  ISO  4   8 100  16 100  51 101  52 101
M  END
>  <TORSDO>  (51) 
F 21

>  <SCORE>  (51) 
-13.870

>  <name>  (51) 
50

>  <ligand_id>  (51) 
50

>  <original_smiles>  (51) 
[H]c1c([H])c([H])c2c(c1[H])C([H])([H])C([H])([H])C([H])([H])C2([H])N([H])C(=O)C1([H])N(C(=O)C([H])(N([H])C(=O)C([H])(N([H])C([H])([H])[H])C([H])([H])[H])C(C([H])([H])[H])(C([H])([H])[H])C([H])([H])[H])C([H])([H])c2c([H])c(OC([H])([H])C([H])([H])C([H])([H])C([H])([H])c3c([H])c(F)c([H])c(N([H])C(=O)N4C([H])([H])C([H])([H])C([H])([H])C([H])(n5nc(-c6c([H])c([H])c(Oc7c([H])c([H])c(F)c([H])c7F)c([H])c6[H])c(C(=O)N([H])[H])c5N([H])[H])C4([H])[H])c3C([H])([H])C([H])([H])[H])c([H])c([H])c2C1([H])[H]

>  <smiles>  (51) 
[H]c1c([H])c([H])c2c(c1[H])C([H])([H])C([H])([H])C([H])([H])C2([H])N([H])C(=O)C1([H])N(C(=O)C([H])(N([H])C(=O)C([H])(N([H])C([H])([H])[H])C([H])([H])[H])C(C([H])([H])[H])(C([H])([H])[H])C([H])([H])[H])C([H])([H])c2c([H])c(OC([H])([H])C([H])([H])C([H])([H])C([H])([H])c3c([H])c(F)c([H])c(N([H])C(=O)N4C([H])([H])C([H])([H])C([H])([H])C([H])(n5nc(-c6c([H])c([H])c(Oc7c([H])c([H])c(F)c([H])c7F)c([H])c6[H])c(C(=O)N([H])[H])c5N([H])[H])C4([H])[H])c3C([H])([H])C([H])([H])[H])c([H])c([H])c2C1([H])[H]

$$$$
51:0:0
     RDKit          3D

 90 98  0  0  1  0  0  0  0  0999 V2000
  -28.2290  -19.4470   21.2430 C   0  0  0  0  0  3  0  0  0  0  0  0
  -30.0930  -19.7270   20.0740 C   0  0  0  0  0  0  0  0  0  0  0  0
  -29.0180  -20.4360   20.7190 C   0  0  0  0  0  0  0  0  0  0  0  0
  -29.8790  -18.3730   20.2910 C   0  0  0  0  0  0  0  0  0  0  0  0
  -31.2700  -20.3270   19.3470 C   0  0  0  0  0  1  0  0  0  0  0  0
  -28.7290  -18.1990   20.9950 O   0  0  0  0  0  0  0  0  0  0  0  0
  -30.7050  -17.1280   19.9600 C   0  0  0  0  0  2  0  0  0  0  0  0
  -30.8850  -14.6430   19.9870 C   0  0  0  0  0  0  0  0  0  0  0  0
  -30.5500  -12.4260   18.9600 C   0  0  0  0  0  2  0  0  0  0  0  0
  -29.5580  -12.5680   17.7870 C   0  0  0  0  0  2  0  0  0  0  0  0
  -28.1100  -12.4190   18.2890 C   0  0  0  0  0  2  0  0  0  0  0  0
  -27.8130  -13.2970   19.5350 C   0  0  0  0  0  3  0  0  0  0  0  0
  -28.9240  -13.1680   20.6030 C   0  0  0  0  0  2  0  0  0  0  0  0
  -30.2070  -13.4610   19.9530 N   0  0  0  0  0  0  0  0  0  0  0  0
  -32.0300  -14.7410   19.5420 O   0  0  0  0  0  0  0  0  0  0  0  0
  -30.1890  -15.7700   20.2960 N   0  0  0  0  0  0  0  0  0  0  0  0
  -29.2420  -15.6900   20.6330 H   0  0  0  0  0  0  0  0  0  0  0  0
  -25.4770  -13.8980   20.4110 C   0  0  0  0  0  0  0  0  0  0  0  0
  -24.4220  -13.1250   20.8120 C   0  0  0  0  0  0  0  0  0  0  0  0
  -24.8620  -11.7700   20.7100 C   0  0  0  0  0  0  0  0  0  0  0  0
  -26.4930  -13.0150   20.0870 N   0  0  0  0  0  0  0  0  0  0  0  0
  -26.1340  -11.7280   20.3280 N   0  0  0  0  0  0  0  0  0  0  0  0
  -24.1300  -10.5120   20.8980 C   0  0  0  0  0  0  0  0  0  0  0  0
  -24.5540   -9.5440   21.8360 C   0  0  0  0  0  3  0  0  0  0  0  0
  -23.8220   -8.3490   22.0120 C   0  0  0  0  0  3  0  0  0  0  0  0
  -22.6520   -8.1140   21.2490 C   0  0  0  0  0  0  0  0  0  0  0  0
  -22.2470   -9.0720   20.3030 C   0  0  0  0  0  3  0  0  0  0  0  0
  -22.9800  -10.2580   20.1260 C   0  0  0  0  0  3  0  0  0  0  0  0
  -21.8940   -6.9720   21.3320 O   0  0  0  0  0  0  0  0  0  0  0  0
  -21.7820   -6.2670   22.5030 C   0  0  0  0  0  0  0  0  0  0  0  0
  -21.2410   -6.8460   23.6730 C   0  0  0  0  0  3  0  0  0  0  0  0
  -21.0810   -6.0650   24.8350 C   0  0  0  0  0  3  0  0  0  0  0  0
  -21.4490   -4.7060   24.8270 C   0  0  0  0  0  0  0  0  0  0  0  0
  -21.9830   -4.1280   23.6620 C   0  0  0  0  0  3  0  0  0  0  0  0
  -22.1470   -4.9060   22.5030 C   0  0  0  0  0  0  0  0  0  0  0  0
  -22.6400   -4.3370   21.3770 F   0  0  0  0  0  0  0  0  0  0  0  0
  -21.2880   -3.9530   25.9410 F   0  0  0  0  0  0  0  0  0  0  0  0
  -23.0490  -13.6100   21.1780 C   0  0  0  0  0  0  0  0  0  0  0  0
  -22.3600  -12.8950   22.0580 N   0  0  0  0  0  0  0  0  0  0  0  0
  -22.6000  -14.6600   20.7200 O   0  0  0  0  0  0  0  0  0  0  0  0
  -22.7380  -12.0450   22.4510 H   0  0  0  0  0  0  0  0  0  0  0  0
  -21.4430  -13.2040   22.3460 H   0  0  0  0  0  0  0  0  0  0  0  0
  -25.6500  -15.2710   20.2720 N   0  0  0  0  0  0  0  0  0  0  0  0
  -24.9020  -15.9290   20.4600 H   0  0  0  0  0  0  0  0  0  0  0  0
  -26.4930  -15.7170   19.9320 H   0  0  0  0  0  0  0  0  0  0  0  0
  -28.7900  -21.8010   20.9210 O   0  0  0  0  0  0  0  0  0  0  0  0
  -29.0960  -22.8050   19.9280 C   0  0  0  0  0  2  0  0  0  0  0  0
  -28.5910  -24.2200   20.4030 C   0  0  0  0  0  3  0  0  0  0  0  0
  -28.8240  -25.4260   19.4310 C   0  0  0  0  0  3  0  0  0  0  0  0
  -28.6680  -26.7570   20.0060 O   0  0  0  0  0  0  0  0  0  0  0  0
  -24.7180  -31.7710   23.2300 C   0  0  0  0  0  0  0  0  0  0  0  0
  -27.4640  -27.4530   19.9970 C   0  0  0  0  0  0  0  0  0  0  0  0
  -23.5470  -30.4030   21.5340 C   0  0  0  0  0  3  0  0  0  0  0  0
  -25.0350  -28.9400   20.0600 C   0  0  0  0  0  0  0  0  0  0  0  0
  -26.0690  -30.8100   21.3610 C   0  0  0  0  0  2  0  0  0  0  0  0
  -26.1850  -29.4620   20.6680 C   0  0  0  0  0  0  0  0  0  0  0  0
  -27.3950  -28.7250   20.6310 C   0  0  0  0  0  3  0  0  0  0  0  0
  -26.2870  -26.9550   19.3930 C   0  0  0  0  0  3  0  0  0  0  0  0
  -25.0830  -27.6900   19.4250 C   0  0  0  0  0  3  0  0  0  0  0  0
  -23.7740  -29.7730   20.1330 C   0  0  0  0  0  2  0  0  0  0  0  0
  -24.7960  -31.0080   22.1000 N   0  0  0  0  0  0  0  0  0  0  0  0
  -23.6290  -32.0020   23.7730 O   0  0  0  0  0  0  0  0  0  0  0  0
  -22.9120  -29.3380   22.4580 C   0  0  0  0  0  0  0  0  0  0  0  0
  -21.5930  -29.1270   22.3120 N   0  0  0  0  0  0  0  0  0  0  0  0
  -23.6030  -28.7050   23.2580 O   0  0  0  0  0  0  0  0  0  0  0  0
  -21.0940  -29.6970   21.6440 H   0  0  0  0  0  0  0  0  0  0  0  0
  -18.2540  -27.8160   22.7300 C   0  0  0  0  0  0  0  0  0  0  0  0
  -20.7990  -28.1380   23.0390 C   0  0  0  0  0  3  0  0  0  0  0  0
  -20.9500  -26.7340   22.4090 C   0  0  0  0  0  2  0  0  0  0  0  0
  -19.8680  -26.4200   21.3730 C   0  0  0  0  0  2  0  0  0  0  0  0
  -18.4770  -26.4970   22.0060 C   0  0  0  0  0  2  0  0  0  0  0  0
  -19.3450  -28.5950   23.1990 C   0  0  0  0  0  0  0  0  0  0  0  0
  -19.0840  -29.8300   23.8280 C   0  0  0  0  0  3  0  0  0  0  0  0
  -17.7640  -30.2890   23.9930 C   0  0  0  0  0  3  0  0  0  0  0  0
  -16.6870  -29.5060   23.5430 C   0  0  0  0  0  3  0  0  0  0  0  0
  -16.9330  -28.2710   22.9170 C   0  0  0  0  0  3  0  0  0  0  0  0
  -25.9890  -32.4080   23.8770 C   0  0  0  0  0  3  0  0  0  0  0  0
  -25.6590  -33.7950   24.2340 N   0  0  0  0  0  0  0  0  0  0  0  0
  -25.9770  -34.8660   23.4960 C   0  0  0  0  0  0  0  0  0  0  0  0
  -26.6520  -34.7930   22.4660 O   0  0  0  0  0  0  0  0  0  0  0  0
  -25.0620  -33.9280   25.0380 H   0  0  0  0  0  0  0  0  0  0  0  0
  -24.2250  -36.6400   23.1680 C   0  0  0  0  0  1  0  0  0  0  0  0
  -25.4670  -36.2370   23.9800 C   0  0  0  0  0  3  0  0  0  0  0  0
  -27.5770  -37.1410   24.8520 C   0  0  0  0  0  1  0  0  0  0  0  0
  -26.4850  -37.3070   23.8960 N   0  0  0  0  0  0  0  0  0  0  0  0
  -26.0600  -38.2180   24.0540 H   0  0  0  0  0  0  0  0  0  0  0  0
  -26.5060  -31.6170   25.1400 C   0  0  1  0  0  0  0  0  0  0  0  0
  -25.4080  -31.3380   26.1910 C   0  0  0  0  0  1  0  0  0  0  0  0
  -27.1180  -30.2590   24.7240 C   0  0  0  0  0  1  0  0  0  0  0  0
  -27.6380  -32.4140   25.8330 C   0  0  0  0  0  1  0  0  0  0  0  0
  2  4  2  0
  2  3  1  0
  3 46  1  0
  3  1  2  0
  4  6  1  0
  5  2  1  0
  6  1  1  0
  7  4  1  0
  7 16  1  0
  8 16  1  0
  9 14  1  0
 10 11  1  0
 10  9  1  0
 12 11  1  0
 12 21  1  0
 12 13  1  0
 14  8  1  0
 14 13  1  0
 15  8  2  0
 16 17  1  0
 18 19  2  0
 19 38  1  0
 20 19  1  0
 20 23  1  0
 21 22  1  0
 21 18  1  0
 22 20  2  0
 23 24  1  0
 24 25  2  0
 26 29  1  0
 26 25  1  0
 27 26  2  0
 28 27  1  0
 28 23  2  0
 29 30  1  0
 30 35  2  0
 30 31  1  0
 31 32  2  0
 33 32  1  0
 33 37  1  0
 34 33  2  0
 35 34  1  0
 36 35  1  0
 38 39  1  0
 39 42  1  0
 39 41  1  0
 40 38  2  0
 43 18  1  0
 43 44  1  0
 45 43  1  0
 47 48  1  0
 47 46  1  0
 49 50  1  0
 49 48  2  0
 51 62  2  0
 52 50  1  0
 52 57  1  0
 53 61  1  0
 53 63  1  0
 54 60  1  0
 54 56  1  0
 55 61  1  0
 56 55  1  0
 57 56  2  0
 58 59  1  0
 58 52  2  0
 59 54  2  0
 60 53  1  0
 61 51  1  0
 63 65  2  0
 64 63  1  0
 66 64  1  0
 67 76  2  0
 67 72  1  0
 68 64  1  0
 68 72  1  0
 69 68  1  0
 70 71  1  0
 70 69  1  0
 71 67  1  0
 72 73  2  0
 73 74  1  0
 75 74  2  0
 76 75  1  0
 77 51  1  0
 77 78  1  0
 77 87  1  0
 78 81  1  0
 79 83  1  0
 79 78  1  0
 80 79  2  0
 83 82  1  0
 85 83  1  0
 85 86  1  0
 85 84  1  0
 87 90  1  1
 87 88  1  0
 89 87  1  0
M  ISO  4   8 100  16 100  49 101  50 101
M  END
>  <TORSDO>  (52) 
F 21

>  <SCORE>  (52) 
-12.183

>  <name>  (52) 
51

>  <ligand_id>  (52) 
51

>  <original_smiles>  (52) 
[H]c1oc(C([H])([H])N([H])C(=O)N2C([H])([H])C([H])([H])C([H])([H])C([H])(n3nc(-c4c([H])c([H])c(Oc5c([H])c([H])c(F)c([H])c5F)c([H])c4[H])c(C(=O)N([H])[H])c3N([H])[H])C2([H])[H])c(C([H])([H])[H])c1OC([H])([H])C([H])([H])C([H])([H])Oc1c([H])c([H])c2c(c1[H])C([H])([H])N(C(=O)C([H])(N([H])C(=O)C([H])(N([H])C([H])([H])[H])C([H])([H])[H])C(C([H])([H])[H])(C([H])([H])[H])C([H])([H])[H])C([H])(C(=O)N([H])C1([H])c3c([H])c([H])c([H])c([H])c3C([H])([H])C([H])([H])C1([H])[H])C2([H])[H]

>  <smiles>  (52) 
[H]c1oc(C([H])([H])N([H])C(=O)N2C([H])([H])C([H])([H])C([H])([H])C([H])(n3nc(-c4c([H])c([H])c(Oc5c([H])c([H])c(F)c([H])c5F)c([H])c4[H])c(C(=O)N([H])[H])c3N([H])[H])C2([H])[H])c(C([H])([H])[H])c1OC([H])([H])C([H])([H])C([H])([H])Oc1c([H])c([H])c2c(c1[H])C([H])([H])N(C(=O)C([H])(N([H])C(=O)C([H])(N([H])C([H])([H])[H])C([H])([H])[H])C(C([H])([H])[H])(C([H])([H])[H])C([H])([H])[H])C([H])(C(=O)N([H])C1([H])c3c([H])c([H])c([H])c([H])c3C([H])([H])C([H])([H])C1([H])[H])C2([H])[H]

$$$$
52:0:0
     RDKit          3D

 92100  0  0  1  0  0  0  0  0999 V2000
  -28.4650  -22.0010   20.0220 C   0  0  0  0  0  3  0  0  0  0  0  0
  -29.4300  -22.8710   20.3690 C   0  0  0  0  0  3  0  0  0  0  0  0
  -29.4350  -20.0010   21.1820 C   0  0  0  0  0  3  0  0  0  0  0  0
  -29.7190  -18.6260   21.1670 C   0  0  0  0  0  3  0  0  0  0  0  0
  -27.9100  -19.7030   19.3080 C   0  0  0  0  0  3  0  0  0  0  0  0
  -28.5650  -20.5540   20.2190 C   0  0  0  0  0  0  0  0  0  0  0  0
  -29.1760  -17.8010   20.1610 C   0  0  0  0  0  0  0  0  0  0  0  0
  -28.2100  -18.3280   19.2690 C   0  0  0  0  0  0  0  0  0  0  0  0
  -27.5500  -17.4600   18.2080 C   0  0  0  0  0  1  0  0  0  0  0  0
  -29.7210  -16.4570   19.9630 C   0  0  0  0  0  3  0  0  0  0  0  0
  -30.2710  -15.6510   20.8910 C   0  0  0  0  0  3  0  0  0  0  0  0
  -30.9870  -14.5060   20.3800 C   0  0  0  0  0  0  0  0  0  0  0  0
  -30.5920  -12.4280   19.1510 C   0  0  0  0  0  2  0  0  0  0  0  0
  -29.6530  -12.7360   17.9680 C   0  0  0  0  0  2  0  0  0  0  0  0
  -28.1800  -12.6170   18.4020 C   0  0  0  0  0  2  0  0  0  0  0  0
  -27.8720  -13.3980   19.7080 C   0  0  0  0  0  3  0  0  0  0  0  0
  -28.9320  -13.1080   20.7950 C   0  0  0  0  0  2  0  0  0  0  0  0
  -30.2630  -13.3690   20.2280 N   0  0  0  0  0  0  0  0  0  0  0  0
  -32.1200  -14.6510   19.9150 O   0  0  0  0  0  0  0  0  0  0  0  0
  -25.4720  -14.0050   20.4150 C   0  0  0  0  0  0  0  0  0  0  0  0
  -24.4050  -13.2290   20.7840 C   0  0  0  0  0  0  0  0  0  0  0  0
  -24.8690  -11.8790   20.7560 C   0  0  0  0  0  0  0  0  0  0  0  0
  -26.5200  -13.1240   20.1870 N   0  0  0  0  0  0  0  0  0  0  0  0
  -26.1590  -11.8420   20.4490 N   0  0  0  0  0  0  0  0  0  0  0  0
  -24.1470  -10.6160   20.9510 C   0  0  0  0  0  0  0  0  0  0  0  0
  -24.5600   -9.6690   21.9140 C   0  0  0  0  0  3  0  0  0  0  0  0
  -23.8390   -8.4690   22.0930 C   0  0  0  0  0  3  0  0  0  0  0  0
  -22.6900   -8.2080   21.3090 C   0  0  0  0  0  0  0  0  0  0  0  0
  -22.2960   -9.1430   20.3360 C   0  0  0  0  0  3  0  0  0  0  0  0
  -23.0180  -10.3340   20.1550 C   0  0  0  0  0  3  0  0  0  0  0  0
  -21.9410   -7.0590   21.3970 O   0  0  0  0  0  0  0  0  0  0  0  0
  -21.8300   -6.3600   22.5720 C   0  0  0  0  0  0  0  0  0  0  0  0
  -21.3030   -6.9490   23.7430 C   0  0  0  0  0  3  0  0  0  0  0  0
  -21.1430   -6.1750   24.9090 C   0  0  0  0  0  3  0  0  0  0  0  0
  -21.4990   -4.8120   24.9040 C   0  0  0  0  0  0  0  0  0  0  0  0
  -22.0190   -4.2230   23.7380 C   0  0  0  0  0  3  0  0  0  0  0  0
  -22.1810   -4.9950   22.5750 C   0  0  0  0  0  0  0  0  0  0  0  0
  -22.6630   -4.4170   21.4480 F   0  0  0  0  0  0  0  0  0  0  0  0
  -21.3370   -4.0650   26.0220 F   0  0  0  0  0  0  0  0  0  0  0  0
  -23.0070  -13.7050   21.0590 C   0  0  0  0  0  0  0  0  0  0  0  0
  -22.2830  -13.0060   21.9260 N   0  0  0  0  0  0  0  0  0  0  0  0
  -22.5650  -14.7290   20.5400 O   0  0  0  0  0  0  0  0  0  0  0  0
  -22.6520  -12.1760   22.3660 H   0  0  0  0  0  0  0  0  0  0  0  0
  -21.3450  -13.3050   22.1550 H   0  0  0  0  0  0  0  0  0  0  0  0
  -25.6340  -15.3750   20.2400 N   0  0  0  0  0  0  0  0  0  0  0  0
  -24.8720  -16.0310   20.3710 H   0  0  0  0  0  0  0  0  0  0  0  0
  -26.5090  -15.8240   19.9950 H   0  0  0  0  0  0  0  0  0  0  0  0
  -29.3550  -24.3550   20.1000 C   0  0  0  0  0  2  0  0  0  0  0  0
  -29.3900  -25.2000   21.3780 C   0  0  0  0  0  0  0  0  0  0  0  0
  -29.7110  -24.7230   22.4720 O   0  0  0  0  0  0  0  0  0  0  0  0
  -29.0240  -26.6760   21.2310 C   0  0  0  0  0  2  0  0  0  0  0  0
  -28.3820  -26.8710   19.9730 O   0  0  0  0  0  0  0  0  0  0  0  0
  -24.5180  -31.9110   23.1570 C   0  0  0  0  0  0  0  0  0  0  0  0
  -27.2120  -27.5740   20.0310 C   0  0  0  0  0  0  0  0  0  0  0  0
  -23.3170  -30.5040   21.5090 C   0  0  0  0  0  3  0  0  0  0  0  0
  -24.7840  -28.9970   20.0680 C   0  0  0  0  0  0  0  0  0  0  0  0
  -25.8280  -30.9140   21.2940 C   0  0  0  0  0  2  0  0  0  0  0  0
  -25.9300  -29.5480   20.6560 C   0  0  0  0  0  0  0  0  0  0  0  0
  -27.1470  -28.8410   20.6470 C   0  0  0  0  0  3  0  0  0  0  0  0
  -26.0600  -27.0270   19.4320 C   0  0  0  0  0  3  0  0  0  0  0  0
  -24.8400  -27.7310   19.4580 C   0  0  0  0  0  3  0  0  0  0  0  0
  -23.5260  -29.8320   20.1250 C   0  0  0  0  0  2  0  0  0  0  0  0
  -24.5720  -31.1240   22.0460 N   0  0  0  0  0  0  0  0  0  0  0  0
  -23.4390  -32.1640   23.7090 O   0  0  0  0  0  0  0  0  0  0  0  0
  -22.6890  -29.4680   22.4670 C   0  0  0  0  0  0  0  0  0  0  0  0
  -21.3640  -29.2830   22.3600 N   0  0  0  0  0  0  0  0  0  0  0  0
  -23.3890  -28.8330   23.2610 O   0  0  0  0  0  0  0  0  0  0  0  0
  -20.8610  -29.8490   21.6920 H   0  0  0  0  0  0  0  0  0  0  0  0
  -17.9980  -28.0960   22.9090 C   0  0  0  0  0  0  0  0  0  0  0  0
  -20.5610  -28.3350   23.1300 C   0  0  0  0  0  3  0  0  0  0  0  0
  -20.6450  -26.9150   22.5220 C   0  0  0  0  0  2  0  0  0  0  0  0
  -19.5190  -26.6180   21.5270 C   0  0  0  0  0  2  0  0  0  0  0  0
  -18.1520  -26.7580   22.2040 C   0  0  0  0  0  2  0  0  0  0  0  0
  -19.1300  -28.8430   23.3290 C   0  0  0  0  0  0  0  0  0  0  0  0
  -18.9320  -30.0970   23.9460 C   0  0  0  0  0  3  0  0  0  0  0  0
  -17.6350  -30.6030   24.1490 C   0  0  0  0  0  3  0  0  0  0  0  0
  -16.5170  -29.8520   23.7450 C   0  0  0  0  0  3  0  0  0  0  0  0
  -16.7000  -28.6010   23.1300 C   0  0  0  0  0  3  0  0  0  0  0  0
  -25.8040  -32.5500   23.7710 C   0  0  0  0  0  3  0  0  0  0  0  0
  -25.4820  -33.9390   24.1230 N   0  0  0  0  0  0  0  0  0  0  0  0
  -25.8030  -35.0050   23.3780 C   0  0  0  0  0  0  0  0  0  0  0  0
  -26.4750  -34.9240   22.3450 O   0  0  0  0  0  0  0  0  0  0  0  0
  -24.8870  -34.0760   24.9260 H   0  0  0  0  0  0  0  0  0  0  0  0
  -24.0670  -36.7910   23.0290 C   0  0  0  0  0  1  0  0  0  0  0  0
  -25.2980  -36.3810   23.8540 C   0  0  0  0  0  3  0  0  0  0  0  0
  -27.4090  -37.2640   24.7400 C   0  0  0  0  0  1  0  0  0  0  0  0
  -26.3240  -37.4430   23.7800 N   0  0  0  0  0  0  0  0  0  0  0  0
  -25.9080  -38.3570   23.9370 H   0  0  0  0  0  0  0  0  0  0  0  0
  -26.3520  -31.7660   25.0260 C   0  0  1  0  0  0  0  0  0  0  0  0
  -25.2780  -31.4930   26.1050 C   0  0  0  0  0  1  0  0  0  0  0  0
  -26.9500  -30.4050   24.5990 C   0  0  0  0  0  1  0  0  0  0  0  0
  -27.4990  -32.5670   25.6860 C   0  0  0  0  0  1  0  0  0  0  0  0
  1  6  1  0
  1  2  2  0
  4  3  1  0
  5  6  1  0
  6  3  2  0
  7  4  2  0
  8  5  2  0
  8  7  1  0
  9  8  1  0
 10  7  1  0
 10 11  2  0
 12 11  1  0
 13 18  1  0
 14 15  1  0
 14 13  1  0
 16 15  1  0
 16 23  1  0
 16 17  1  0
 18 12  1  0
 18 17  1  0
 19 12  2  0
 20 21  2  0
 21 40  1  0
 22 21  1  0
 22 25  1  0
 23 20  1  0
 23 24  1  0
 24 22  2  0
 25 26  1  0
 26 27  2  0
 28 31  1  0
 28 27  1  0
 29 28  2  0
 30 29  1  0
 30 25  2  0
 31 32  1  0
 32 37  2  0
 32 33  1  0
 33 34  2  0
 35 34  1  0
 35 39  1  0
 36 35  2  0
 37 36  1  0
 38 37  1  0
 40 41  1  0
 41 44  1  0
 41 43  1  0
 42 40  2  0
 45 46  1  0
 45 20  1  0
 47 45  1  0
 48  2  1  0
 48 49  1  0
 49 50  2  0
 51 49  1  0
 52 54  1  0
 52 51  1  0
 53 64  2  0
 54 59  1  0
 55 63  1  0
 55 65  1  0
 56 62  1  0
 56 58  1  0
 57 63  1  0
 58 57  1  0
 59 58  2  0
 60 61  1  0
 60 54  2  0
 61 56  2  0
 62 55  1  0
 63 53  1  0
 65 67  2  0
 66 65  1  0
 68 66  1  0
 69 78  2  0
 69 74  1  0
 70 66  1  0
 70 74  1  0
 71 70  1  0
 72 73  1  0
 72 71  1  0
 73 69  1  0
 74 75  2  0
 75 76  1  0
 77 76  2  0
 78 77  1  0
 79 53  1  0
 79 80  1  0
 79 89  1  0
 80 83  1  0
 81 85  1  0
 81 80  1  0
 82 81  2  0
 85 84  1  0
 87 85  1  0
 87 88  1  0
 87 86  1  0
 89 92  1  1
 89 90  1  0
 91 89  1  0
M  ISO  4  11 100  12 100  51 101  52 101
M  END
>  <TORSDO>  (53) 
F 21

>  <SCORE>  (53) 
-13.236

>  <name>  (53) 
52

>  <ligand_id>  (53) 
52

>  <original_smiles>  (53) 
[H]C(C(=O)N1C([H])([H])C([H])([H])C([H])([H])C([H])(n2nc(-c3c([H])c([H])c(Oc4c([H])c([H])c(F)c([H])c4F)c([H])c3[H])c(C(=O)N([H])[H])c2N([H])[H])C1([H])[H])=C([H])c1c([H])c([H])c(C([H])=C([H])C([H])([H])C(=O)C([H])([H])Oc2c([H])c([H])c3c(c2[H])C([H])([H])N(C(=O)C([H])(N([H])C(=O)C([H])(N([H])C([H])([H])[H])C([H])([H])[H])C(C([H])([H])[H])(C([H])([H])[H])C([H])([H])[H])C([H])(C(=O)N([H])C2([H])c4c([H])c([H])c([H])c([H])c4C([H])([H])C([H])([H])C2([H])[H])C3([H])[H])c([H])c1C([H])([H])[H]

>  <smiles>  (53) 
[H]C(C(=O)N1C([H])([H])C([H])([H])C([H])([H])C([H])(n2nc(-c3c([H])c([H])c(Oc4c([H])c([H])c(F)c([H])c4F)c([H])c3[H])c(C(=O)N([H])[H])c2N([H])[H])C1([H])[H])=C([H])c1c([H])c([H])c(C([H])=C([H])C([H])([H])C(=O)C([H])([H])Oc2c([H])c([H])c3c(c2[H])C([H])([H])N(C(=O)C([H])(N([H])C(=O)C([H])(N([H])C([H])([H])[H])C([H])([H])[H])C(C([H])([H])[H])(C([H])([H])[H])C([H])([H])[H])C([H])(C(=O)N([H])C2([H])c4c([H])c([H])c([H])c([H])c4C([H])([H])C([H])([H])C2([H])[H])C3([H])[H])c([H])c1C([H])([H])[H]

$$$$
53:0:0
     RDKit          3D

 92100  0  0  1  0  0  0  0  0999 V2000
  -29.5950  -18.9120   21.8900 C   0  0  0  0  0  3  0  0  0  0  0  0
  -30.0700  -17.5830   21.9840 C   0  0  0  0  0  3  0  0  0  0  0  0
  -29.4050  -19.5420   20.6390 C   0  0  0  0  0  0  0  0  0  0  0  0
  -29.7630  -18.8110   19.4740 C   0  0  0  0  0  0  0  0  0  0  0  0
  -30.3650  -16.8290   20.8270 C   0  0  0  0  0  0  0  0  0  0  0  0
  -30.2320  -17.4690   19.5650 C   0  0  0  0  0  0  0  0  0  0  0  0
  -29.5470  -19.4320   18.1040 C   0  0  0  0  0  1  0  0  0  0  0  0
  -30.4460  -16.7670   18.4240 F   0  0  0  0  0  0  0  0  0  0  0  0
  -31.1300  -14.5320   20.1190 C   0  0  0  0  0  0  0  0  0  0  0  0
  -30.7590  -12.3840   18.9370 C   0  0  0  0  0  2  0  0  0  0  0  0
  -29.7710  -12.6240   17.7770 C   0  0  0  0  0  2  0  0  0  0  0  0
  -28.3130  -12.5190   18.2640 C   0  0  0  0  0  2  0  0  0  0  0  0
  -28.0550  -13.3440   19.5510 C   0  0  0  0  0  3  0  0  0  0  0  0
  -29.1440  -13.0590   20.6100 C   0  0  0  0  0  2  0  0  0  0  0  0
  -30.4580  -13.3510   20.0080 N   0  0  0  0  0  0  0  0  0  0  0  0
  -32.1730  -14.7690   19.5000 O   0  0  0  0  0  0  0  0  0  0  0  0
  -30.5960  -15.4180   20.9870 N   0  0  0  0  0  0  0  0  0  0  0  0
  -30.0070  -14.9870   21.6840 H   0  0  0  0  0  0  0  0  0  0  0  0
  -25.7090  -14.0190   20.3650 C   0  0  0  0  0  0  0  0  0  0  0  0
  -24.6310  -13.2780   20.7700 C   0  0  0  0  0  0  0  0  0  0  0  0
  -25.0420  -11.9120   20.6980 C   0  0  0  0  0  0  0  0  0  0  0  0
  -26.7130  -13.1060   20.0780 N   0  0  0  0  0  0  0  0  0  0  0  0
  -26.3150  -11.8330   20.3290 N   0  0  0  0  0  0  0  0  0  0  0  0
  -24.2810  -10.6720   20.9010 C   0  0  0  0  0  0  0  0  0  0  0  0
  -24.6820   -9.7060   21.8500 C   0  0  0  0  0  3  0  0  0  0  0  0
  -23.9240   -8.5310   22.0400 C   0  0  0  0  0  3  0  0  0  0  0  0
  -22.7490   -8.3120   21.2800 C   0  0  0  0  0  0  0  0  0  0  0  0
  -22.3670   -9.2670   20.3200 C   0  0  0  0  0  3  0  0  0  0  0  0
  -23.1270  -10.4340   20.1290 C   0  0  0  0  0  3  0  0  0  0  0  0
  -21.9650   -7.1880   21.3770 O   0  0  0  0  0  0  0  0  0  0  0  0
  -21.8330   -6.5050   22.5590 C   0  0  0  0  0  0  0  0  0  0  0  0
  -21.3260   -7.1200   23.7240 C   0  0  0  0  0  3  0  0  0  0  0  0
  -21.1400   -6.3610   24.8980 C   0  0  0  0  0  3  0  0  0  0  0  0
  -21.4550   -4.9880   24.9060 C   0  0  0  0  0  0  0  0  0  0  0  0
  -21.9560   -4.3730   23.7450 C   0  0  0  0  0  3  0  0  0  0  0  0
  -22.1420   -5.1300   22.5750 C   0  0  0  0  0  0  0  0  0  0  0  0
  -22.6050   -4.5270   21.4540 F   0  0  0  0  0  0  0  0  0  0  0  0
  -21.2700   -4.2570   26.0300 F   0  0  0  0  0  0  0  0  0  0  0  0
  -23.2660  -13.7980   21.1190 C   0  0  0  0  0  0  0  0  0  0  0  0
  -22.5630  -13.1200   22.0180 N   0  0  0  0  0  0  0  0  0  0  0  0
  -22.8340  -14.8400   20.6250 O   0  0  0  0  0  0  0  0  0  0  0  0
  -22.9250  -12.2760   22.4360 H   0  0  0  0  0  0  0  0  0  0  0  0
  -21.6490  -13.4510   22.2950 H   0  0  0  0  0  0  0  0  0  0  0  0
  -25.9180  -15.3850   20.1990 N   0  0  0  0  0  0  0  0  0  0  0  0
  -25.1840  -16.0720   20.3330 H   0  0  0  0  0  0  0  0  0  0  0  0
  -26.7740  -15.7870   19.8360 H   0  0  0  0  0  0  0  0  0  0  0  0
  -28.4950  -20.7280   20.5760 C   0  0  0  0  0  3  0  0  0  0  0  0
  -28.6640  -22.0760   20.5760 C   0  0  0  0  0  3  0  0  0  0  0  0
  -29.9250  -22.9370   20.6380 C   0  0  0  0  0  2  0  0  0  0  0  0
  -29.7870  -24.3700   20.0080 C   0  0  0  0  0  2  0  0  0  0  0  0
  -28.9720  -25.4300   20.8130 C   0  0  0  0  0  2  0  0  0  0  0  0
  -29.0280  -26.7660   20.2470 O   0  0  0  0  0  0  0  0  0  0  0  0
  -24.8320  -31.6880   23.3100 C   0  0  0  0  0  0  0  0  0  0  0  0
  -27.8390  -27.4730   20.2180 C   0  0  0  0  0  0  0  0  0  0  0  0
  -23.7880  -30.3110   21.5430 C   0  0  0  0  0  3  0  0  0  0  0  0
  -25.3870  -28.8960   20.1430 C   0  0  0  0  0  0  0  0  0  0  0  0
  -26.3040  -30.7800   21.5060 C   0  0  0  0  0  2  0  0  0  0  0  0
  -26.4880  -29.4400   20.8150 C   0  0  0  0  0  0  0  0  0  0  0  0
  -27.7200  -28.7410   20.8400 C   0  0  0  0  0  3  0  0  0  0  0  0
  -26.7230  -26.9500   19.5340 C   0  0  0  0  0  3  0  0  0  0  0  0
  -25.5010  -27.6530   19.4960 C   0  0  0  0  0  3  0  0  0  0  0  0
  -24.1040  -29.7010   20.1520 C   0  0  0  0  0  2  0  0  0  0  0  0
  -24.9890  -30.9410   22.1780 N   0  0  0  0  0  0  0  0  0  0  0  0
  -23.7100  -31.8900   23.7970 O   0  0  0  0  0  0  0  0  0  0  0  0
  -23.1270  -29.2230   22.4200 C   0  0  0  0  0  0  0  0  0  0  0  0
  -21.8130  -29.0170   22.2310 N   0  0  0  0  0  0  0  0  0  0  0  0
  -23.7940  -28.5700   23.2260 O   0  0  0  0  0  0  0  0  0  0  0  0
  -21.3380  -29.5900   21.5450 H   0  0  0  0  0  0  0  0  0  0  0  0
  -18.4440  -27.7560   22.5790 C   0  0  0  0  0  0  0  0  0  0  0  0
  -20.9930  -28.0190   22.9170 C   0  0  0  0  0  3  0  0  0  0  0  0
  -21.1240  -26.6370   22.2360 C   0  0  0  0  0  2  0  0  0  0  0  0
  -20.0430  -26.3790   21.1820 C   0  0  0  0  0  2  0  0  0  0  0  0
  -18.6490  -26.4610   21.8100 C   0  0  0  0  0  2  0  0  0  0  0  0
  -19.5460  -28.4950   23.0840 C   0  0  0  0  0  0  0  0  0  0  0  0
  -19.3040  -29.7090   23.7630 C   0  0  0  0  0  3  0  0  0  0  0  0
  -17.9910  -30.1840   23.9430 C   0  0  0  0  0  3  0  0  0  0  0  0
  -16.9020  -29.4400   23.4540 C   0  0  0  0  0  3  0  0  0  0  0  0
  -17.1300  -28.2280   22.7790 C   0  0  0  0  0  3  0  0  0  0  0  0
  -26.0510  -32.3460   24.0280 C   0  0  0  0  0  3  0  0  0  0  0  0
  -26.4980  -31.5680   25.3260 C   0  0  1  0  0  0  0  0  0  0  0  0
  -25.3380  -31.2740   26.3070 C   0  0  0  0  0  1  0  0  0  0  0  0
  -27.1530  -30.2170   24.9570 C   0  0  0  0  0  1  0  0  0  0  0  0
  -27.5690  -32.3870   26.0820 C   0  0  0  0  0  1  0  0  0  0  0  0
  -25.6790  -33.7300   24.3550 N   0  0  0  0  0  0  0  0  0  0  0  0
  -26.0310  -34.8010   23.6300 C   0  0  0  0  0  0  0  0  0  0  0  0
  -26.7710  -34.7300   22.6450 O   0  0  0  0  0  0  0  0  0  0  0  0
  -25.0270  -33.8550   25.1160 H   0  0  0  0  0  0  0  0  0  0  0  0
  -24.2660  -36.5380   23.1880 C   0  0  0  0  0  1  0  0  0  0  0  0
  -25.4720  -36.1690   24.0680 C   0  0  0  0  0  3  0  0  0  0  0  0
  -27.5230  -37.1170   25.0310 C   0  0  0  0  0  1  0  0  0  0  0  0
  -26.4750  -37.2550   24.0230 N   0  0  0  0  0  0  0  0  0  0  0  0
  -26.0320  -38.1620   24.1490 H   0  0  0  0  0  0  0  0  0  0  0  0
  1  2  1  0
  3  1  2  0
  4  6  2  0
  4  3  1  0
  5 17  1  0
  5  2  2  0
  6  5  1  0
  7  4  1  0
  8  6  1  0
  9 17  1  0
 10 15  1  0
 11 12  1  0
 11 10  1  0
 13 12  1  0
 13 22  1  0
 13 14  1  0
 15  9  1  0
 15 14  1  0
 16  9  2  0
 17 18  1  0
 19 20  2  0
 20 39  1  0
 21 20  1  0
 21 24  1  0
 22 23  1  0
 22 19  1  0
 23 21  2  0
 24 25  1  0
 25 26  2  0
 27 30  1  0
 27 26  1  0
 28 27  2  0
 29 28  1  0
 29 24  2  0
 30 31  1  0
 31 36  2  0
 31 32  1  0
 32 33  2  0
 33 34  1  0
 34 38  1  0
 35 34  2  0
 36 35  1  0
 37 36  1  0
 39 40  1  0
 40 43  1  0
 40 42  1  0
 41 39  2  0
 44 45  1  0
 44 19  1  0
 46 44  1  0
 47  3  1  0
 48 47  2  0
 48 49  1  0
 50 49  1  0
 50 51  1  0
 52 51  1  0
 53 64  2  0
 54 52  1  0
 54 59  1  0
 55 63  1  0
 55 65  1  0
 56 62  1  0
 56 58  1  0
 57 63  1  0
 58 59  2  0
 58 57  1  0
 60 54  2  0
 61 60  1  0
 61 56  2  0
 62 55  1  0
 63 53  1  0
 65 67  2  0
 66 65  1  0
 68 66  1  0
 69 78  2  0
 69 74  1  0
 70 66  1  0
 70 74  1  0
 71 70  1  0
 72 73  1  0
 72 71  1  0
 73 69  1  0
 74 75  2  0
 75 76  1  0
 77 76  2  0
 78 77  1  0
 79 53  1  0
 79 84  1  0
 79 80  1  0
 80 83  1  1
 80 81  1  0
 82 80  1  0
 84 87  1  0
 85 89  1  0
 85 84  1  0
 86 85  2  0
 89 88  1  0
 91 89  1  0
 91 92  1  0
 91 90  1  0
M  ISO  4   9 100  17 100  51 101  52 101
M  END
>  <TORSDO>  (54) 
F 20

>  <SCORE>  (54) 
-12.342

>  <name>  (54) 
53

>  <ligand_id>  (54) 
53

>  <original_smiles>  (54) 
[H]C(=C([H])C([H])([H])C([H])([H])C([H])([H])Oc1c([H])c([H])c2c(c1[H])C([H])([H])N(C(=O)C([H])(N([H])C(=O)C([H])(N([H])C([H])([H])[H])C([H])([H])[H])C(C([H])([H])[H])(C([H])([H])[H])C([H])([H])[H])C([H])(C(=O)N([H])C1([H])c3c([H])c([H])c([H])c([H])c3C([H])([H])C([H])([H])C1([H])[H])C2([H])[H])c1c([H])c([H])c(N([H])C(=O)N2C([H])([H])C([H])([H])C([H])([H])C([H])(n3nc(-c4c([H])c([H])c(Oc5c([H])c([H])c(F)c([H])c5F)c([H])c4[H])c(C(=O)N([H])[H])c3N([H])[H])C2([H])[H])c(F)c1C([H])([H])[H]

>  <smiles>  (54) 
[H]C(=C([H])C([H])([H])C([H])([H])C([H])([H])Oc1c([H])c([H])c2c(c1[H])C([H])([H])N(C(=O)C([H])(N([H])C(=O)C([H])(N([H])C([H])([H])[H])C([H])([H])[H])C(C([H])([H])[H])(C([H])([H])[H])C([H])([H])[H])C([H])(C(=O)N([H])C1([H])c3c([H])c([H])c([H])c([H])c3C([H])([H])C([H])([H])C1([H])[H])C2([H])[H])c1c([H])c([H])c(N([H])C(=O)N2C([H])([H])C([H])([H])C([H])([H])C([H])(n3nc(-c4c([H])c([H])c(Oc5c([H])c([H])c(F)c([H])c5F)c([H])c4[H])c(C(=O)N([H])[H])c3N([H])[H])C2([H])[H])c(F)c1C([H])([H])[H]

$$$$
54:0:0
     RDKit          3D

 94102  0  0  1  0  0  0  0  0999 V2000
  -31.1920  -22.2450   22.2730 C   0  0  0  0  0  2  0  0  0  0  0  0
  -29.8660  -22.6340   21.6100 C   0  0  0  0  0  0  0  0  0  0  0  0
  -28.8540  -21.9740   21.8580 O   0  0  0  0  0  0  0  0  0  0  0  0
  -29.8580  -23.8200   20.7320 C   0  0  0  0  0  3  0  0  0  0  0  0
  -28.7150  -24.4310   20.3540 C   0  0  0  0  0  3  0  0  0  0  0  0
  -28.6580  -25.6570   19.4580 C   0  0  0  0  0  2  0  0  0  0  0  0
  -28.4130  -26.8450   20.2110 O   0  0  0  0  0  0  0  0  0  0  0  0
  -24.5540  -31.9370   23.2750 C   0  0  0  0  0  0  0  0  0  0  0  0
  -27.1910  -27.4890   20.1950 C   0  0  0  0  0  0  0  0  0  0  0  0
  -23.3350  -30.5300   21.6440 C   0  0  0  0  0  3  0  0  0  0  0  0
  -24.7800  -28.9780   20.2230 C   0  0  0  0  0  0  0  0  0  0  0  0
  -25.8580  -30.8850   21.4330 C   0  0  0  0  0  2  0  0  0  0  0  0
  -25.9370  -29.5110   20.8010 C   0  0  0  0  0  0  0  0  0  0  0  0
  -27.1380  -28.7710   20.7870 C   0  0  0  0  0  3  0  0  0  0  0  0
  -26.0080  -26.9550   19.6320 C   0  0  0  0  0  3  0  0  0  0  0  0
  -24.8080  -27.6960   19.6410 C   0  0  0  0  0  3  0  0  0  0  0  0
  -23.5350  -29.8350   20.2690 C   0  0  0  0  0  2  0  0  0  0  0  0
  -24.6000  -31.1330   22.1750 N   0  0  0  0  0  0  0  0  0  0  0  0
  -23.4770  -32.2160   23.8190 O   0  0  0  0  0  0  0  0  0  0  0  0
  -22.6870  -29.5170   22.6140 C   0  0  0  0  0  0  0  0  0  0  0  0
  -21.3630  -29.3310   22.4850 N   0  0  0  0  0  0  0  0  0  0  0  0
  -23.3700  -28.9020   23.4370 O   0  0  0  0  0  0  0  0  0  0  0  0
  -20.8750  -29.8790   21.7890 H   0  0  0  0  0  0  0  0  0  0  0  0
  -17.9930  -28.1290   22.9690 C   0  0  0  0  0  0  0  0  0  0  0  0
  -20.5460  -28.4010   23.2600 C   0  0  0  0  0  3  0  0  0  0  0  0
  -20.6610  -26.9640   22.7010 C   0  0  0  0  0  2  0  0  0  0  0  0
  -19.5680  -26.6240   21.6820 C   0  0  0  0  0  2  0  0  0  0  0  0
  -18.1810  -26.7710   22.3120 C   0  0  0  0  0  2  0  0  0  0  0  0
  -19.1040  -28.9000   23.3990 C   0  0  0  0  0  0  0  0  0  0  0  0
  -18.8750  -30.1710   23.9710 C   0  0  0  0  0  3  0  0  0  0  0  0
  -17.5670  -30.6690   24.1200 C   0  0  0  0  0  3  0  0  0  0  0  0
  -16.4690  -29.8930   23.7070 C   0  0  0  0  0  3  0  0  0  0  0  0
  -16.6840  -28.6250   23.1380 C   0  0  0  0  0  3  0  0  0  0  0  0
  -25.8470  -32.5650   23.8860 C   0  0  0  0  0  3  0  0  0  0  0  0
  -25.5480  -33.9660   24.2080 N   0  0  0  0  0  0  0  0  0  0  0  0
  -25.8850  -35.0120   23.4410 C   0  0  0  0  0  0  0  0  0  0  0  0
  -26.5520  -34.8980   22.4090 O   0  0  0  0  0  0  0  0  0  0  0  0
  -24.9580  -34.1300   25.0110 H   0  0  0  0  0  0  0  0  0  0  0  0
  -24.1640  -36.8080   23.0760 C   0  0  0  0  0  1  0  0  0  0  0  0
  -25.4050  -36.4040   23.8890 C   0  0  0  0  0  3  0  0  0  0  0  0
  -27.5440  -37.2830   24.7110 C   0  0  0  0  0  1  0  0  0  0  0  0
  -26.4420  -37.4510   23.7680 N   0  0  0  0  0  0  0  0  0  0  0  0
  -26.0390  -38.3740   23.9130 H   0  0  0  0  0  0  0  0  0  0  0  0
  -26.3680  -31.7990   25.1630 C   0  0  1  0  0  0  0  0  0  0  0  0
  -25.2800  -31.5700   26.2380 C   0  0  0  0  0  1  0  0  0  0  0  0
  -26.9430  -30.4160   24.7740 C   0  0  0  0  0  1  0  0  0  0  0  0
  -27.5280  -32.5900   25.8140 C   0  0  0  0  0  1  0  0  0  0  0  0
  -32.0550  -21.2070   21.5220 C   0  0  0  0  0  2  0  0  0  0  0  0
  -31.7310  -19.8550   21.8640 O   0  0  0  0  0  0  0  0  0  0  0  0
  -29.2860  -18.8390   19.2340 C   0  0  0  0  0  3  0  0  0  0  0  0
  -30.1360  -19.6570   19.9930 C   0  0  0  0  0  3  0  0  0  0  0  0
  -30.7570  -17.7370   21.3540 C   0  0  0  0  0  3  0  0  0  0  0  0
  -29.1710  -17.4660   19.5170 C   0  0  0  0  0  0  0  0  0  0  0  0
  -29.9100  -16.9020   20.5880 C   0  0  0  0  0  0  0  0  0  0  0  0
  -30.8820  -19.1160   21.0640 C   0  0  0  0  0  0  0  0  0  0  0  0
  -28.2490  -16.6440   18.6380 C   0  0  0  0  0  1  0  0  0  0  0  0
  -30.5350  -14.5310   20.5160 C   0  0  0  0  0  0  0  0  0  0  0  0
  -30.2960  -12.3650   19.3710 C   0  0  0  0  0  2  0  0  0  0  0  0
  -29.3630  -12.5740   18.1610 C   0  0  0  0  0  2  0  0  0  0  0  0
  -27.8780  -12.4370   18.5690 C   0  0  0  0  0  2  0  0  0  0  0  0
  -27.5250  -13.2220   19.8620 C   0  0  0  0  0  3  0  0  0  0  0  0
  -28.5830  -12.9980   20.9670 C   0  0  0  0  0  2  0  0  0  0  0  0
  -29.9030  -13.3320   20.4050 N   0  0  0  0  0  0  0  0  0  0  0  0
  -31.6800  -14.7360   20.1010 O   0  0  0  0  0  0  0  0  0  0  0  0
  -29.7500  -15.5330   20.9460 N   0  0  0  0  0  0  0  0  0  0  0  0
  -28.8220  -15.2470   21.2140 H   0  0  0  0  0  0  0  0  0  0  0  0
  -25.1060  -13.7830   20.5440 C   0  0  0  0  0  0  0  0  0  0  0  0
  -24.0530  -12.9900   20.9060 C   0  0  0  0  0  0  0  0  0  0  0  0
  -24.5470  -11.6500   20.8860 C   0  0  0  0  0  0  0  0  0  0  0  0
  -26.1730  -12.9240   20.3290 N   0  0  0  0  0  0  0  0  0  0  0  0
  -25.8390  -11.6360   20.5910 N   0  0  0  0  0  0  0  0  0  0  0  0
  -23.8520  -10.3720   21.0750 C   0  0  0  0  0  0  0  0  0  0  0  0
  -24.3070   -9.4150   22.0100 C   0  0  0  0  0  3  0  0  0  0  0  0
  -23.6120   -8.2010   22.1880 C   0  0  0  0  0  3  0  0  0  0  0  0
  -22.4480   -7.9330   21.4300 C   0  0  0  0  0  0  0  0  0  0  0  0
  -22.0100   -8.8790   20.4860 C   0  0  0  0  0  3  0  0  0  0  0  0
  -22.7060  -10.0860   20.3060 C   0  0  0  0  0  3  0  0  0  0  0  0
  -21.7200   -6.7720   21.5170 O   0  0  0  0  0  0  0  0  0  0  0  0
  -21.6960   -6.0220   22.6650 C   0  0  0  0  0  0  0  0  0  0  0  0
  -21.2690   -6.5600   23.8970 C   0  0  0  0  0  3  0  0  0  0  0  0
  -21.1960   -5.7360   25.0390 C   0  0  0  0  0  3  0  0  0  0  0  0
  -21.5390   -4.3730   24.9460 C   0  0  0  0  0  0  0  0  0  0  0  0
  -21.9600   -3.8360   23.7170 C   0  0  0  0  0  3  0  0  0  0  0  0
  -22.0350   -4.6580   22.5800 C   0  0  0  0  0  0  0  0  0  0  0  0
  -22.4210   -4.1290   21.3940 F   0  0  0  0  0  0  0  0  0  0  0  0
  -21.4620   -3.5790   26.0380 F   0  0  0  0  0  0  0  0  0  0  0  0
  -22.6440  -13.4340   21.1660 C   0  0  0  0  0  0  0  0  0  0  0  0
  -21.9260  -12.7270   22.0320 N   0  0  0  0  0  0  0  0  0  0  0  0
  -22.1860  -14.4450   20.6350 O   0  0  0  0  0  0  0  0  0  0  0  0
  -22.3110  -11.9110   22.4840 H   0  0  0  0  0  0  0  0  0  0  0  0
  -20.9790  -13.0060   22.2440 H   0  0  0  0  0  0  0  0  0  0  0  0
  -25.2370  -15.1570   20.3660 N   0  0  0  0  0  0  0  0  0  0  0  0
  -24.4480  -15.7850   20.4690 H   0  0  0  0  0  0  0  0  0  0  0  0
  -26.0810  -15.6260   20.0680 H   0  0  0  0  0  0  0  0  0  0  0  0
  2  3  2  0
  2  1  1  0
  4  2  1  0
  5  4  2  0
  6  7  1  0
  6  5  1  0
  8 19  2  0
  9  7  1  0
  9 14  1  0
 10 18  1  0
 10 20  1  0
 11 17  1  0
 11 13  1  0
 12 18  1  0
 13 12  1  0
 14 13  2  0
 15 16  1  0
 15  9  2  0
 16 11  2  0
 17 10  1  0
 18  8  1  0
 20 22  2  0
 21 20  1  0
 23 21  1  0
 24 33  2  0
 24 29  1  0
 25 21  1  0
 25 29  1  0
 26 25  1  0
 27 28  1  0
 27 26  1  0
 28 24  1  0
 29 30  2  0
 30 31  1  0
 32 31  2  0
 33 32  1  0
 34  8  1  0
 34 35  1  0
 34 44  1  0
 35 38  1  0
 36 40  1  0
 36 35  1  0
 37 36  2  0
 40 39  1  0
 42 40  1  0
 42 43  1  0
 42 41  1  0
 44 47  1  1
 44 45  1  0
 46 44  1  0
 48 49  1  0
 48  1  1  0
 50 53  2  0
 50 51  1  0
 51 55  2  0
 53 54  1  0
 54 65  1  0
 54 52  2  0
 55 52  1  0
 55 49  1  0
 56 53  1  0
 57 65  1  0
 58 63  1  0
 59 60  1  0
 59 58  1  0
 61 60  1  0
 61 70  1  0
 61 62  1  0
 63 57  1  0
 63 62  1  0
 64 57  2  0
 65 66  1  0
 67 68  2  0
 68 87  1  0
 69 68  1  0
 69 72  1  0
 70 67  1  0
 70 71  1  0
 71 69  2  0
 72 73  1  0
 73 74  2  0
 75 78  1  0
 75 74  1  0
 76 75  2  0
 77 76  1  0
 77 72  2  0
 78 79  1  0
 79 80  1  0
 80 81  2  0
 82 81  1  0
 82 86  1  0
 83 82  2  0
 84 79  2  0
 84 83  1  0
 85 84  1  0
 87 88  1  0
 88 91  1  0
 88 90  1  0
 89 87  2  0
 92 93  1  0
 92 67  1  0
 94 92  1  0
M  ISO  4   6 101   7 101  57 100  65 100
M  END
>  <TORSDO>  (55) 
F 22

>  <SCORE>  (55) 
-13.374

>  <name>  (55) 
54

>  <ligand_id>  (55) 
54

>  <original_smiles>  (55) 
[H]C(C(=O)C([H])([H])C([H])([H])Oc1c([H])c([H])c(C([H])([H])[H])c(N([H])C(=O)N2C([H])([H])C([H])([H])C([H])([H])C([H])(n3nc(-c4c([H])c([H])c(Oc5c([H])c([H])c(F)c([H])c5F)c([H])c4[H])c(C(=O)N([H])[H])c3N([H])[H])C2([H])[H])c1[H])=C([H])C([H])([H])Oc1c([H])c([H])c2c(c1[H])C([H])([H])N(C(=O)C([H])(N([H])C(=O)C([H])(N([H])C([H])([H])[H])C([H])([H])[H])C(C([H])([H])[H])(C([H])([H])[H])C([H])([H])[H])C([H])(C(=O)N([H])C1([H])c3c([H])c([H])c([H])c([H])c3C([H])([H])C([H])([H])C1([H])[H])C2([H])[H]

>  <smiles>  (55) 
[H]C(C(=O)C([H])([H])C([H])([H])Oc1c([H])c([H])c(C([H])([H])[H])c(N([H])C(=O)N2C([H])([H])C([H])([H])C([H])([H])C([H])(n3nc(-c4c([H])c([H])c(Oc5c([H])c([H])c(F)c([H])c5F)c([H])c4[H])c(C(=O)N([H])[H])c3N([H])[H])C2([H])[H])c1[H])=C([H])C([H])([H])Oc1c([H])c([H])c2c(c1[H])C([H])([H])N(C(=O)C([H])(N([H])C(=O)C([H])(N([H])C([H])([H])[H])C([H])([H])[H])C(C([H])([H])[H])(C([H])([H])[H])C([H])([H])[H])C([H])(C(=O)N([H])C1([H])c3c([H])c([H])c([H])c([H])c3C([H])([H])C([H])([H])C1([H])[H])C2([H])[H]

$$$$
55:0:0
     RDKit          3D

 92100  0  0  1  0  0  0  0  0999 V2000
  -28.2560  -20.9220   21.0910 C   0  0  0  0  0  3  0  0  0  0  0  0
  -28.1640  -22.2570   21.2640 C   0  0  0  0  0  3  0  0  0  0  0  0
  -29.5320  -18.7370   21.1350 C   0  0  0  0  0  3  0  0  0  0  0  0
  -31.8590  -18.6950   21.9000 C   0  0  0  0  0  3  0  0  0  0  0  0
  -30.6350  -20.7820   21.8810 C   0  0  0  0  0  3  0  0  0  0  0  0
  -30.7460  -18.0340   21.3510 C   0  0  0  0  0  0  0  0  0  0  0  0
  -29.4800  -20.1370   21.3740 C   0  0  0  0  0  0  0  0  0  0  0  0
  -31.8020  -20.0660   22.1770 C   0  0  0  0  0  0  0  0  0  0  0  0
  -32.9710  -20.7690   22.8240 C   0  0  0  0  0  1  0  0  0  0  0  0
  -31.0010  -16.6460   20.9720 C   0  0  0  0  0  3  0  0  0  0  0  0
  -30.1650  -15.6350   20.6710 C   0  0  0  0  0  3  0  0  0  0  0  0
  -30.7970  -14.4570   20.0850 C   0  0  0  0  0  0  0  0  0  0  0  0
  -30.3400  -12.3400   18.9450 C   0  0  0  0  0  2  0  0  0  0  0  0
  -29.3810  -12.6510   17.7820 C   0  0  0  0  0  2  0  0  0  0  0  0
  -27.9240  -12.5350   18.2650 C   0  0  0  0  0  2  0  0  0  0  0  0
  -27.6630  -13.3360   19.5710 C   0  0  0  0  0  3  0  0  0  0  0  0
  -28.7600  -13.0660   20.6290 C   0  0  0  0  0  2  0  0  0  0  0  0
  -30.0590  -13.3220   20.0000 N   0  0  0  0  0  0  0  0  0  0  0  0
  -31.8960  -14.5460   19.5280 O   0  0  0  0  0  0  0  0  0  0  0  0
  -25.3110  -13.9590   20.4050 C   0  0  0  0  0  0  0  0  0  0  0  0
  -24.2580  -13.1860   20.8200 C   0  0  0  0  0  0  0  0  0  0  0  0
  -24.7050  -11.8330   20.7470 C   0  0  0  0  0  0  0  0  0  0  0  0
  -26.3330  -13.0700   20.1070 N   0  0  0  0  0  0  0  0  0  0  0  0
  -25.9770  -11.7870   20.3690 N   0  0  0  0  0  0  0  0  0  0  0  0
  -23.9800  -10.5700   20.9560 C   0  0  0  0  0  0  0  0  0  0  0  0
  -24.4400   -9.6000   21.8720 C   0  0  0  0  0  3  0  0  0  0  0  0
  -23.7180   -8.4010   22.0690 C   0  0  0  0  0  3  0  0  0  0  0  0
  -22.5240   -8.1690   21.3480 C   0  0  0  0  0  0  0  0  0  0  0  0
  -22.0830   -9.1290   20.4200 C   0  0  0  0  0  3  0  0  0  0  0  0
  -22.8030  -10.3190   20.2220 C   0  0  0  0  0  3  0  0  0  0  0  0
  -21.7720   -7.0230   21.4530 O   0  0  0  0  0  0  0  0  0  0  0  0
  -21.7330   -6.2920   22.6120 C   0  0  0  0  0  0  0  0  0  0  0  0
  -21.3250   -6.8570   23.8390 C   0  0  0  0  0  3  0  0  0  0  0  0
  -21.2370   -6.0530   24.9940 C   0  0  0  0  0  3  0  0  0  0  0  0
  -21.5430   -4.6810   24.9180 C   0  0  0  0  0  0  0  0  0  0  0  0
  -21.9450   -4.1130   23.6960 C   0  0  0  0  0  3  0  0  0  0  0  0
  -22.0380   -4.9170   22.5450 C   0  0  0  0  0  0  0  0  0  0  0  0
  -22.4040   -4.3610   21.3660 F   0  0  0  0  0  0  0  0  0  0  0  0
  -21.4480   -3.9050   26.0230 F   0  0  0  0  0  0  0  0  0  0  0  0
  -22.8810  -13.6730   21.1710 C   0  0  0  0  0  0  0  0  0  0  0  0
  -22.1970  -12.9630   22.0630 N   0  0  0  0  0  0  0  0  0  0  0  0
  -22.4270  -14.7100   20.6940 O   0  0  0  0  0  0  0  0  0  0  0  0
  -22.5810  -12.1220   22.4660 H   0  0  0  0  0  0  0  0  0  0  0  0
  -21.2740  -13.2600   22.3440 H   0  0  0  0  0  0  0  0  0  0  0  0
  -25.4840  -15.3270   20.2380 N   0  0  0  0  0  0  0  0  0  0  0  0
  -24.7410  -15.9950   20.4080 H   0  0  0  0  0  0  0  0  0  0  0  0
  -26.3240  -15.7510   19.8640 H   0  0  0  0  0  0  0  0  0  0  0  0
  -26.9340  -23.1170   21.0570 C   0  0  0  0  0  2  0  0  0  0  0  0
  -27.3230  -24.6020   21.1490 C   0  0  0  0  0  0  0  0  0  0  0  0
  -27.0810  -25.2370   22.1830 O   0  0  0  0  0  0  0  0  0  0  0  0
  -28.0310  -25.2550   19.9290 C   0  0  0  0  0  2  0  0  0  0  0  0
  -28.2390  -26.6820   20.0970 O   0  0  0  0  0  0  0  0  0  0  0  0
  -24.5740  -31.9370   23.2210 C   0  0  0  0  0  0  0  0  0  0  0  0
  -27.1130  -27.4810   20.0480 C   0  0  0  0  0  0  0  0  0  0  0  0
  -23.3340  -30.5500   21.5930 C   0  0  0  0  0  3  0  0  0  0  0  0
  -24.7490  -29.0330   20.1170 C   0  0  0  0  0  0  0  0  0  0  0  0
  -25.8670  -30.8780   21.3750 C   0  0  0  0  0  2  0  0  0  0  0  0
  -25.9240  -29.5240   20.7030 C   0  0  0  0  0  0  0  0  0  0  0  0
  -27.1110  -28.7520   20.6720 C   0  0  0  0  0  3  0  0  0  0  0  0
  -25.9230  -27.0360   19.4210 C   0  0  0  0  0  3  0  0  0  0  0  0
  -24.7480  -27.7920   19.4700 C   0  0  0  0  0  3  0  0  0  0  0  0
  -23.5140  -29.8950   20.2000 C   0  0  0  0  0  2  0  0  0  0  0  0
  -24.6080  -31.1380   22.1150 N   0  0  0  0  0  0  0  0  0  0  0  0
  -23.5010  -32.2150   23.7770 O   0  0  0  0  0  0  0  0  0  0  0  0
  -22.6960  -29.5200   22.5530 C   0  0  0  0  0  0  0  0  0  0  0  0
  -21.3720  -29.3320   22.4370 N   0  0  0  0  0  0  0  0  0  0  0  0
  -23.3890  -28.8990   23.3660 O   0  0  0  0  0  0  0  0  0  0  0  0
  -20.8730  -29.8840   21.7510 H   0  0  0  0  0  0  0  0  0  0  0  0
  -18.0090  -28.1150   22.9780 C   0  0  0  0  0  0  0  0  0  0  0  0
  -20.5680  -28.3970   23.2250 C   0  0  0  0  0  3  0  0  0  0  0  0
  -20.6750  -26.9620   22.6590 C   0  0  0  0  0  2  0  0  0  0  0  0
  -19.5660  -26.6210   21.6560 C   0  0  0  0  0  2  0  0  0  0  0  0
  -18.1890  -26.7630   22.3090 C   0  0  0  0  0  2  0  0  0  0  0  0
  -19.1270  -28.8900   23.3900 C   0  0  0  0  0  0  0  0  0  0  0  0
  -18.9020  -30.1550   23.9720 C   0  0  0  0  0  3  0  0  0  0  0  0
  -17.5970  -30.6490   24.1450 C   0  0  0  0  0  3  0  0  0  0  0  0
  -16.4940  -29.8740   23.7460 C   0  0  0  0  0  3  0  0  0  0  0  0
  -16.7020  -28.6070   23.1720 C   0  0  0  0  0  3  0  0  0  0  0  0
  -25.8780  -32.5570   23.8130 C   0  0  0  0  0  3  0  0  0  0  0  0
  -25.5830  -33.9550   24.1520 N   0  0  0  0  0  0  0  0  0  0  0  0
  -25.9000  -35.0060   23.3860 C   0  0  0  0  0  0  0  0  0  0  0  0
  -26.5450  -34.9030   22.3390 O   0  0  0  0  0  0  0  0  0  0  0  0
  -25.0080  -34.1080   24.9670 H   0  0  0  0  0  0  0  0  0  0  0  0
  -24.1640  -36.7990   23.0600 C   0  0  0  0  0  1  0  0  0  0  0  0
  -25.4170  -36.3940   23.8520 C   0  0  0  0  0  3  0  0  0  0  0  0
  -27.5720  -37.2640   24.6450 C   0  0  0  0  0  1  0  0  0  0  0  0
  -26.4480  -37.4500   23.7300 N   0  0  0  0  0  0  0  0  0  0  0  0
  -26.0450  -38.3670   23.9070 H   0  0  0  0  0  0  0  0  0  0  0  0
  -26.4240  -31.7780   25.0720 C   0  0  1  0  0  0  0  0  0  0  0  0
  -25.3550  -31.5240   26.1610 C   0  0  0  0  0  1  0  0  0  0  0  0
  -27.0130  -30.4060   24.6700 C   0  0  0  0  0  1  0  0  0  0  0  0
  -27.5870  -32.5750   25.7080 C   0  0  0  0  0  1  0  0  0  0  0  0
  1  2  2  0
  1  7  1  0
  3  6  2  0
  3  7  1  0
  4  8  2  0
  5  8  1  0
  6  4  1  0
  7  5  2  0
  8  9  1  0
 10  6  1  0
 11 10  2  0
 12 11  1  0
 13 18  1  0
 14 15  1  0
 14 13  1  0
 16 15  1  0
 16 23  1  0
 16 17  1  0
 18 12  1  0
 18 17  1  0
 19 12  2  0
 20 21  2  0
 21 40  1  0
 22 21  1  0
 22 25  1  0
 23 24  1  0
 23 20  1  0
 24 22  2  0
 25 26  1  0
 26 27  2  0
 28 31  1  0
 28 27  1  0
 29 28  2  0
 30 29  1  0
 30 25  2  0
 31 32  1  0
 32 33  1  0
 33 34  2  0
 35 34  1  0
 35 39  1  0
 36 35  2  0
 37 32  2  0
 37 36  1  0
 38 37  1  0
 40 41  1  0
 41 44  1  0
 41 43  1  0
 42 40  2  0
 45 20  1  0
 45 46  1  0
 47 45  1  0
 48 49  1  0
 48  2  1  0
 49 50  2  0
 51 52  1  0
 51 49  1  0
 53 64  2  0
 54 52  1  0
 54 59  1  0
 55 63  1  0
 55 65  1  0
 56 62  1  0
 56 58  1  0
 57 63  1  0
 58 57  1  0
 59 58  2  0
 60 61  1  0
 60 54  2  0
 61 56  2  0
 62 55  1  0
 63 53  1  0
 65 67  2  0
 66 65  1  0
 68 66  1  0
 69 78  2  0
 69 74  1  0
 70 66  1  0
 70 74  1  0
 71 70  1  0
 72 73  1  0
 72 71  1  0
 73 69  1  0
 74 75  2  0
 75 76  1  0
 77 76  2  0
 78 77  1  0
 79 53  1  0
 79 80  1  0
 79 89  1  0
 80 83  1  0
 81 85  1  0
 81 80  1  0
 82 81  2  0
 85 84  1  0
 87 85  1  0
 87 88  1  0
 87 86  1  0
 89 92  1  1
 89 90  1  0
 91 89  1  0
M  ISO  4  11 100  12 100  51 101  52 101
M  END
>  <TORSDO>  (56) 
F 21

>  <SCORE>  (56) 
-13.533

>  <name>  (56) 
55

>  <ligand_id>  (56) 
55

>  <original_smiles>  (56) 
[H]C(C(=O)N1C([H])([H])C([H])([H])C([H])([H])C([H])(n2nc(-c3c([H])c([H])c(Oc4c([H])c([H])c(F)c([H])c4F)c([H])c3[H])c(C(=O)N([H])[H])c2N([H])[H])C1([H])[H])=C([H])c1c([H])c(C([H])=C([H])C([H])([H])C(=O)C([H])([H])Oc2c([H])c([H])c3c(c2[H])C([H])([H])N(C(=O)C([H])(N([H])C(=O)C([H])(N([H])C([H])([H])[H])C([H])([H])[H])C(C([H])([H])[H])(C([H])([H])[H])C([H])([H])[H])C([H])(C(=O)N([H])C2([H])c4c([H])c([H])c([H])c([H])c4C([H])([H])C([H])([H])C2([H])[H])C3([H])[H])c([H])c(C([H])([H])[H])c1[H]

>  <smiles>  (56) 
[H]C(C(=O)N1C([H])([H])C([H])([H])C([H])([H])C([H])(n2nc(-c3c([H])c([H])c(Oc4c([H])c([H])c(F)c([H])c4F)c([H])c3[H])c(C(=O)N([H])[H])c2N([H])[H])C1([H])[H])=C([H])c1c([H])c(C([H])=C([H])C([H])([H])C(=O)C([H])([H])Oc2c([H])c([H])c3c(c2[H])C([H])([H])N(C(=O)C([H])(N([H])C(=O)C([H])(N([H])C([H])([H])[H])C([H])([H])[H])C(C([H])([H])[H])(C([H])([H])[H])C([H])([H])[H])C([H])(C(=O)N([H])C2([H])c4c([H])c([H])c([H])c([H])c4C([H])([H])C([H])([H])C2([H])[H])C3([H])[H])c([H])c(C([H])([H])[H])c1[H]

$$$$
56:0:0
     RDKit          3D

 94102  0  0  1  0  0  0  0  0999 V2000
  -31.6130  -20.2270   19.7800 C   0  0  0  0  0  3  0  0  0  0  0  0
  -30.5440  -18.3310   21.5270 C   0  0  0  0  0  3  0  0  0  0  0  0
  -31.8030  -18.8290   19.5150 C   0  0  0  0  0  0  0  0  0  0  0  0
  -30.8750  -20.7110   20.8910 C   0  0  0  0  0  0  0  0  0  0  0  0
  -31.2010  -17.8430   20.3670 C   0  0  0  0  0  0  0  0  0  0  0  0
  -30.3890  -19.7210   21.7820 C   0  0  0  0  0  0  0  0  0  0  0  0
  -29.6900  -20.1040   22.8780 F   0  0  0  0  0  0  0  0  0  0  0  0
  -31.4960  -15.2820   20.0480 C   0  0  0  0  0  0  0  0  0  0  0  0
  -31.1900  -12.9580   19.1670 C   0  0  0  0  0  2  0  0  0  0  0  0
  -30.2280  -12.9160   17.9590 C   0  0  0  0  0  2  0  0  0  0  0  0
  -28.7710  -12.7360   18.4340 C   0  0  0  0  0  2  0  0  0  0  0  0
  -28.3920  -13.7060   19.5750 C   0  0  0  0  0  3  0  0  0  0  0  0
  -29.4920  -13.8060   20.6690 C   0  0  0  0  0  2  0  0  0  0  0  0
  -30.7810  -14.0950   20.0180 N   0  0  0  0  0  0  0  0  0  0  0  0
  -32.7210  -15.2480   19.9080 O   0  0  0  0  0  0  0  0  0  0  0  0
  -30.8250  -16.5050   19.8910 N   0  0  0  0  0  0  0  0  0  0  0  0
  -26.0950  -14.4370   20.4390 C   0  0  0  0  0  0  0  0  0  0  0  0
  -24.9930  -13.7150   20.7960 C   0  0  0  0  0  0  0  0  0  0  0  0
  -25.3710  -12.3430   20.6820 C   0  0  0  0  0  0  0  0  0  0  0  0
  -27.0680  -13.4970   20.1210 N   0  0  0  0  0  0  0  0  0  0  0  0
  -26.6460  -12.2330   20.3360 N   0  0  0  0  0  0  0  0  0  0  0  0
  -24.5810  -11.1200   20.8160 C   0  0  0  0  0  0  0  0  0  0  0  0
  -24.9220  -10.1270   21.7590 C   0  0  0  0  0  3  0  0  0  0  0  0
  -24.1360   -8.9620   21.8790 C   0  0  0  0  0  3  0  0  0  0  0  0
  -22.9960   -8.7880   21.0600 C   0  0  0  0  0  0  0  0  0  0  0  0
  -22.6780   -9.7710   20.1060 C   0  0  0  0  0  3  0  0  0  0  0  0
  -23.4650  -10.9270   19.9810 C   0  0  0  0  0  3  0  0  0  0  0  0
  -22.1860   -7.6810   21.0980 O   0  0  0  0  0  0  0  0  0  0  0  0
  -21.9460   -7.0070   22.2690 C   0  0  0  0  0  0  0  0  0  0  0  0
  -21.2900   -7.6160   23.3620 C   0  0  0  0  0  3  0  0  0  0  0  0
  -20.9980   -6.8620   24.5160 C   0  0  0  0  0  3  0  0  0  0  0  0
  -21.3600   -5.5030   24.5800 C   0  0  0  0  0  0  0  0  0  0  0  0
  -22.0140   -4.8960   23.4930 C   0  0  0  0  0  3  0  0  0  0  0  0
  -22.3010   -5.6450   22.3400 C   0  0  0  0  0  0  0  0  0  0  0  0
  -22.9120   -5.0500   21.2860 F   0  0  0  0  0  0  0  0  0  0  0  0
  -21.0740   -4.7750   25.6850 F   0  0  0  0  0  0  0  0  0  0  0  0
  -23.6320  -14.2600   21.1260 C   0  0  0  0  0  0  0  0  0  0  0  0
  -22.8910  -13.5670   21.9810 N   0  0  0  0  0  0  0  0  0  0  0  0
  -23.2390  -15.3300   20.6640 O   0  0  0  0  0  0  0  0  0  0  0  0
  -23.2240  -12.7000   22.3750 H   0  0  0  0  0  0  0  0  0  0  0  0
  -21.9810  -13.9140   22.2520 H   0  0  0  0  0  0  0  0  0  0  0  0
  -26.3300  -15.8050   20.3300 N   0  0  0  0  0  0  0  0  0  0  0  0
  -25.6010  -16.4910   20.5020 H   0  0  0  0  0  0  0  0  0  0  0  0
  -27.1830  -16.2190   19.9820 H   0  0  0  0  0  0  0  0  0  0  0  0
  -29.6400  -16.5730   19.0110 C   0  0  0  0  0  2  0  0  0  0  0  0
  -27.6790  -17.8660   18.0070 C   0  0  0  0  0  1  0  0  0  0  0  0
  -29.1270  -17.9430   18.4980 C   0  0  0  0  0  2  0  0  0  0  0  0
  -32.6930  -19.1940   17.1860 C   0  0  0  0  0  2  0  0  0  0  0  0
  -32.4730  -18.4170   18.2610 C   0  0  0  0  0  3  0  0  0  0  0  0
  -30.5560  -22.1780   21.1400 C   0  0  0  0  0  3  0  0  0  0  0  0
  -30.4290  -23.2350   20.2790 C   0  0  0  0  0  3  0  0  0  0  0  0
  -30.1890  -24.7320   20.6790 C   0  0  0  0  0  3  0  0  0  0  0  0
  -29.0630  -25.5690   19.9490 C   0  0  0  0  0  3  0  0  0  0  0  0
  -28.9800  -26.9850   20.3470 O   0  0  0  0  0  0  0  0  0  0  0  0
  -24.7550  -31.9480   23.3410 C   0  0  0  0  0  0  0  0  0  0  0  0
  -27.7770  -27.6940   20.2560 C   0  0  0  0  0  0  0  0  0  0  0  0
  -23.6990  -30.5200   21.6240 C   0  0  0  0  0  3  0  0  0  0  0  0
  -25.2960  -29.1150   20.2020 C   0  0  0  0  0  0  0  0  0  0  0  0
  -26.2100  -31.0220   21.5290 C   0  0  0  0  0  2  0  0  0  0  0  0
  -26.4030  -29.6730   20.8510 C   0  0  0  0  0  0  0  0  0  0  0  0
  -27.6420  -28.9740   20.8680 C   0  0  0  0  0  3  0  0  0  0  0  0
  -26.6460  -27.1800   19.5780 C   0  0  0  0  0  3  0  0  0  0  0  0
  -25.4180  -27.8720   19.5570 C   0  0  0  0  0  3  0  0  0  0  0  0
  -23.9990  -29.8980   20.2340 C   0  0  0  0  0  2  0  0  0  0  0  0
  -24.9040  -31.1800   22.2230 N   0  0  0  0  0  0  0  0  0  0  0  0
  -23.6400  -32.1380   23.8490 O   0  0  0  0  0  0  0  0  0  0  0  0
  -23.0780  -29.4340   22.5340 C   0  0  0  0  0  0  0  0  0  0  0  0
  -21.7760  -29.1620   22.3460 N   0  0  0  0  0  0  0  0  0  0  0  0
  -23.7690  -28.8410   23.3670 O   0  0  0  0  0  0  0  0  0  0  0  0
  -21.2770  -29.6980   21.6500 H   0  0  0  0  0  0  0  0  0  0  0  0
  -18.4720  -27.7310   22.6890 C   0  0  0  0  0  0  0  0  0  0  0  0
  -20.9970  -28.1490   23.0590 C   0  0  0  0  0  3  0  0  0  0  0  0
  -21.2150  -26.7460   22.4460 C   0  0  0  0  0  2  0  0  0  0  0  0
  -20.1730  -26.3830   21.3840 C   0  0  0  0  0  2  0  0  0  0  0  0
  -18.7630  -26.4170   21.9810 C   0  0  0  0  0  2  0  0  0  0  0  0
  -19.5220  -28.5510   23.1800 C   0  0  0  0  0  0  0  0  0  0  0  0
  -19.1980  -29.7790   23.7990 C   0  0  0  0  0  3  0  0  0  0  0  0
  -17.8580  -30.1860   23.9320 C   0  0  0  0  0  3  0  0  0  0  0  0
  -16.8220  -29.3630   23.4560 C   0  0  0  0  0  3  0  0  0  0  0  0
  -17.1300  -28.1370   22.8410 C   0  0  0  0  0  3  0  0  0  0  0  0
  -25.9730  -32.6430   24.0250 C   0  0  0  0  0  3  0  0  0  0  0  0
  -25.5850  -34.0280   24.3220 N   0  0  0  0  0  0  0  0  0  0  0  0
  -25.8580  -35.0800   23.5380 C   0  0  0  0  0  0  0  0  0  0  0  0
  -26.5300  -34.9900   22.5080 O   0  0  0  0  0  0  0  0  0  0  0  0
  -24.9840  -34.1690   25.1200 H   0  0  0  0  0  0  0  0  0  0  0  0
  -24.0090  -36.7460   23.1760 C   0  0  0  0  0  1  0  0  0  0  0  0
  -25.2940  -36.4500   23.9650 C   0  0  0  0  0  3  0  0  0  0  0  0
  -27.3750  -37.5100   24.7240 C   0  0  0  0  0  1  0  0  0  0  0  0
  -26.2540  -37.5620   23.7890 N   0  0  0  0  0  0  0  0  0  0  0  0
  -25.7900  -38.4580   23.9020 H   0  0  0  0  0  0  0  0  0  0  0  0
  -26.4520  -31.9080   25.3360 C   0  0  1  0  0  0  0  0  0  0  0  0
  -25.3080  -31.5890   26.3250 C   0  0  0  0  0  1  0  0  0  0  0  0
  -27.1610  -30.5790   24.9880 C   0  0  0  0  0  1  0  0  0  0  0  0
  -27.4910  -32.7820   26.0770 C   0  0  0  0  0  1  0  0  0  0  0  0
  1  4  1  0
  2  6  1  0
  3  1  2  0
  3  5  1  0
  4 50  1  0
  4  6  2  0
  5  2  2  0
  6  7  1  0
  9 14  1  0
 10 11  1  0
 10  9  1  0
 12 11  1  0
 12 20  1  0
 12 13  1  0
 14  8  1  0
 14 13  1  0
 15  8  2  0
 16  8  1  0
 16  5  1  0
 17 18  2  0
 18 37  1  0
 19 18  1  0
 19 22  1  0
 20 21  1  0
 20 17  1  0
 21 19  2  0
 22 23  1  0
 23 24  2  0
 25 28  1  0
 25 24  1  0
 26 25  2  0
 27 26  1  0
 27 22  2  0
 28 29  1  0
 29 34  2  0
 29 30  1  0
 30 31  2  0
 31 32  1  0
 32 36  1  0
 33 32  2  0
 34 33  1  0
 35 34  1  0
 37 38  1  0
 38 41  1  0
 38 40  1  0
 39 37  2  0
 42 17  1  0
 42 43  1  0
 44 42  1  0
 45 16  1  0
 46 47  1  0
 47 45  1  0
 48 49  2  0
 49  3  1  0
 51 52  1  0
 51 50  2  0
 53 54  1  0
 53 52  2  0
 55 66  2  0
 56 54  1  0
 56 61  1  0
 57 65  1  0
 57 67  1  0
 58 64  1  0
 58 60  1  0
 59 65  1  0
 60 61  2  0
 60 59  1  0
 62 56  2  0
 63 62  1  0
 63 58  2  0
 64 57  1  0
 65 55  1  0
 67 69  2  0
 68 67  1  0
 70 68  1  0
 71 80  2  0
 71 76  1  0
 72 68  1  0
 72 76  1  0
 73 72  1  0
 74 75  1  0
 74 73  1  0
 75 71  1  0
 76 77  2  0
 77 78  1  0
 79 78  2  0
 80 79  1  0
 81 55  1  0
 81 82  1  0
 81 91  1  0
 82 85  1  0
 83 87  1  0
 83 82  1  0
 84 83  2  0
 87 86  1  0
 89 90  1  0
 89 87  1  0
 89 88  1  0
 91 94  1  1
 91 92  1  0
 93 91  1  0
M  ISO  4   8 100  16 100  53 101  54 101
M  END
>  <TORSDO>  (57) 
F 22

>  <SCORE>  (57) 
-11.175

>  <name>  (57) 
56

>  <ligand_id>  (57) 
56

>  <original_smiles>  (57) 
[H]C([H])=C([H])c1c([H])c(C([H])=C([H])C([H])([H])C([H])([H])Oc2c([H])c([H])c3c(c2[H])C([H])([H])N(C(=O)C([H])(N([H])C(=O)C([H])(N([H])C([H])([H])[H])C([H])([H])[H])C(C([H])([H])[H])(C([H])([H])[H])C([H])([H])[H])C([H])(C(=O)N([H])C2([H])c4c([H])c([H])c([H])c([H])c4C([H])([H])C([H])([H])C2([H])[H])C3([H])[H])c(F)c([H])c1N(C(=O)N1C([H])([H])C([H])([H])C([H])([H])C([H])(n2nc(-c3c([H])c([H])c(Oc4c([H])c([H])c(F)c([H])c4F)c([H])c3[H])c(C(=O)N([H])[H])c2N([H])[H])C1([H])[H])C([H])([H])C([H])([H])C([H])([H])[H]

>  <smiles>  (57) 
[H]C([H])=C([H])c1c([H])c(C([H])=C([H])C([H])([H])C([H])([H])Oc2c([H])c([H])c3c(c2[H])C([H])([H])N(C(=O)C([H])(N([H])C(=O)C([H])(N([H])C([H])([H])[H])C([H])([H])[H])C(C([H])([H])[H])(C([H])([H])[H])C([H])([H])[H])C([H])(C(=O)N([H])C2([H])c4c([H])c([H])c([H])c([H])c4C([H])([H])C([H])([H])C2([H])[H])C3([H])[H])c(F)c([H])c1N(C(=O)N1C([H])([H])C([H])([H])C([H])([H])C([H])(n2nc(-c3c([H])c([H])c(Oc4c([H])c([H])c(F)c([H])c4F)c([H])c3[H])c(C(=O)N([H])[H])c2N([H])[H])C1([H])[H])C([H])([H])C([H])([H])C([H])([H])[H]

$$$$
57:0:0
     RDKit          3D

 92101  0  0  1  0  0  0  0  0999 V2000
  -31.2010  -14.6410   20.1540 C   0  0  0  0  0  0  0  0  0  0  0  0
  -30.7650  -12.4840   19.0090 C   0  0  0  0  0  2  0  0  0  0  0  0
  -29.8140  -12.7230   17.8180 C   0  0  0  0  0  2  0  0  0  0  0  0
  -28.3440  -12.6480   18.2750 C   0  0  0  0  0  2  0  0  0  0  0  0
  -28.0700  -13.4960   19.5460 C   0  0  0  0  0  3  0  0  0  0  0  0
  -29.1360  -13.2450   20.6330 C   0  0  0  0  0  2  0  0  0  0  0  0
  -30.4550  -13.4980   20.0350 N   0  0  0  0  0  0  0  0  0  0  0  0
  -32.3430  -14.7000   19.6850 O   0  0  0  0  0  0  0  0  0  0  0  0
  -30.3700  -19.8940   22.9410 C   0  0  0  0  0  3  0  0  0  0  0  0
  -30.5510  -18.5150   23.1950 C   0  0  0  0  0  3  0  0  0  0  0  0
  -30.1710  -19.4890   20.5400 C   0  0  0  0  0  3  0  0  0  0  0  0
  -30.3490  -18.0940   20.8180 C   0  0  0  0  0  0  0  0  0  0  0  0
  -30.1740  -20.4230   21.6330 C   0  0  0  0  0  0  0  0  0  0  0  0
  -30.5340  -17.6350   22.1020 C   0  0  0  0  0  0  0  0  0  0  0  0
  -30.4130  -16.9050   19.8960 C   0  0  0  0  0  0  0  0  0  0  0  0
  -30.7070  -16.1310   22.0740 C   0  0  0  0  0  2  0  0  0  0  0  0
  -30.5900  -15.7640   20.6400 N   0  0  0  0  0  0  0  0  0  0  0  0
  -30.3200  -16.9980   18.6670 O   0  0  0  0  0  0  0  0  0  0  0  0
  -25.7260  -14.2120   20.3170 C   0  0  0  0  0  0  0  0  0  0  0  0
  -24.6270  -13.4930   20.6990 C   0  0  0  0  0  0  0  0  0  0  0  0
  -25.0160  -12.1180   20.6450 C   0  0  0  0  0  0  0  0  0  0  0  0
  -26.7170  -13.2810   20.0530 N   0  0  0  0  0  0  0  0  0  0  0  0
  -26.2950  -12.0150   20.3100 N   0  0  0  0  0  0  0  0  0  0  0  0
  -24.2260  -10.8950   20.8360 C   0  0  0  0  0  0  0  0  0  0  0  0
  -24.6220   -9.8970   21.7540 C   0  0  0  0  0  3  0  0  0  0  0  0
  -23.8350   -8.7380   21.9340 C   0  0  0  0  0  3  0  0  0  0  0  0
  -22.6410   -8.5700   21.1960 C   0  0  0  0  0  0  0  0  0  0  0  0
  -22.2640   -9.5550   20.2670 C   0  0  0  0  0  3  0  0  0  0  0  0
  -23.0500  -10.7050   20.0850 C   0  0  0  0  0  3  0  0  0  0  0  0
  -21.8270   -7.4660   21.2850 O   0  0  0  0  0  0  0  0  0  0  0  0
  -21.7690   -6.7050   22.4260 C   0  0  0  0  0  0  0  0  0  0  0  0
  -21.3940   -7.2580   23.6710 C   0  0  0  0  0  3  0  0  0  0  0  0
  -21.2800   -6.4270   24.8040 C   0  0  0  0  0  3  0  0  0  0  0  0
  -21.5290   -5.0460   24.6930 C   0  0  0  0  0  0  0  0  0  0  0  0
  -21.8970   -4.4930   23.4530 C   0  0  0  0  0  3  0  0  0  0  0  0
  -22.0130   -5.3210   22.3220 C   0  0  0  0  0  0  0  0  0  0  0  0
  -22.3470   -4.7810   21.1260 F   0  0  0  0  0  0  0  0  0  0  0  0
  -21.4120   -4.2470   25.7790 F   0  0  0  0  0  0  0  0  0  0  0  0
  -23.2630  -14.0410   21.0040 C   0  0  0  0  0  0  0  0  0  0  0  0
  -22.5290  -13.3940   21.9020 N   0  0  0  0  0  0  0  0  0  0  0  0
  -22.8590  -15.0770   20.4790 O   0  0  0  0  0  0  0  0  0  0  0  0
  -22.8690  -12.5540   22.3480 H   0  0  0  0  0  0  0  0  0  0  0  0
  -21.6160  -13.7440   22.1520 H   0  0  0  0  0  0  0  0  0  0  0  0
  -25.9600  -15.5740   20.1510 N   0  0  0  0  0  0  0  0  0  0  0  0
  -25.2320  -16.2680   20.2870 H   0  0  0  0  0  0  0  0  0  0  0  0
  -26.8260  -15.9710   19.8070 H   0  0  0  0  0  0  0  0  0  0  0  0
  -30.0030  -21.9260   21.5830 C   0  0  0  0  0  3  0  0  0  0  0  0
  -29.8280  -22.8380   20.5810 C   0  0  0  0  0  3  0  0  0  0  0  0
  -29.6920  -24.3210   20.8810 C   0  0  0  0  0  0  0  0  0  0  0  0
  -29.7790  -24.7530   22.0370 O   0  0  0  0  0  0  0  0  0  0  0  0
  -29.4520  -25.3630   19.7390 C   0  0  0  0  0  2  0  0  0  0  0  0
  -29.2780  -26.7490   20.2100 O   0  0  0  0  0  0  0  0  0  0  0  0
  -24.9730  -31.6190   23.2330 C   0  0  0  0  0  0  0  0  0  0  0  0
  -28.0590  -27.4250   20.1330 C   0  0  0  0  0  0  0  0  0  0  0  0
  -23.9510  -30.2150   21.4730 C   0  0  0  0  0  3  0  0  0  0  0  0
  -25.5760  -28.8330   20.0670 C   0  0  0  0  0  0  0  0  0  0  0  0
  -26.4610  -30.7270   21.4310 C   0  0  0  0  0  2  0  0  0  0  0  0
  -26.6700  -29.3870   20.7390 C   0  0  0  0  0  0  0  0  0  0  0  0
  -27.9100  -28.6930   20.7660 C   0  0  0  0  0  3  0  0  0  0  0  0
  -26.9350  -26.9050   19.4480 C   0  0  0  0  0  3  0  0  0  0  0  0
  -25.7090  -27.5960   19.4160 C   0  0  0  0  0  3  0  0  0  0  0  0
  -24.2780  -29.6140   20.0800 C   0  0  0  0  0  2  0  0  0  0  0  0
  -25.1440  -30.8690   22.1050 N   0  0  0  0  0  0  0  0  0  0  0  0
  -23.8490  -31.7980   23.7210 O   0  0  0  0  0  0  0  0  0  0  0  0
  -23.3170  -29.1130   22.3550 C   0  0  0  0  0  0  0  0  0  0  0  0
  -22.0070  -28.8780   22.1750 N   0  0  0  0  0  0  0  0  0  0  0  0
  -24.0050  -28.4770   23.1580 O   0  0  0  0  0  0  0  0  0  0  0  0
  -21.5110  -29.4500   21.5050 H   0  0  0  0  0  0  0  0  0  0  0  0
  -18.6820  -27.4940   22.4940 C   0  0  0  0  0  0  0  0  0  0  0  0
  -21.2140  -27.8600   22.8660 C   0  0  0  0  0  3  0  0  0  0  0  0
  -21.4060  -26.4690   22.2170 C   0  0  0  0  0  2  0  0  0  0  0  0
  -20.3540  -26.1510   21.1500 C   0  0  0  0  0  2  0  0  0  0  0  0
  -18.9470  -26.1940   21.7530 C   0  0  0  0  0  2  0  0  0  0  0  0
  -19.7470  -28.2840   23.0020 C   0  0  0  0  0  0  0  0  0  0  0  0
  -19.4480  -29.5020   23.6510 C   0  0  0  0  0  3  0  0  0  0  0  0
  -18.1160  -29.9300   23.8000 C   0  0  0  0  0  3  0  0  0  0  0  0
  -17.0640  -29.1360   23.3080 C   0  0  0  0  0  3  0  0  0  0  0  0
  -17.3480  -27.9200   22.6620 C   0  0  0  0  0  3  0  0  0  0  0  0
  -26.1780  -32.3050   23.9470 C   0  0  0  0  0  3  0  0  0  0  0  0
  -25.7820  -33.6870   24.2570 N   0  0  0  0  0  0  0  0  0  0  0  0
  -26.1150  -34.7560   23.5220 C   0  0  0  0  0  0  0  0  0  0  0  0
  -26.8590  -34.6900   22.5390 O   0  0  0  0  0  0  0  0  0  0  0  0
  -25.1300  -33.8110   25.0170 H   0  0  0  0  0  0  0  0  0  0  0  0
  -24.3210  -36.4580   23.0620 C   0  0  0  0  0  1  0  0  0  0  0  0
  -25.5320  -36.1190   23.9460 C   0  0  0  0  0  3  0  0  0  0  0  0
  -27.5640  -37.1140   24.8960 C   0  0  0  0  0  1  0  0  0  0  0  0
  -26.5130  -37.2230   23.8890 N   0  0  0  0  0  0  0  0  0  0  0  0
  -26.0510  -38.1210   24.0070 H   0  0  0  0  0  0  0  0  0  0  0  0
  -26.6380  -31.5510   25.2550 C   0  0  1  0  0  0  0  0  0  0  0  0
  -25.4870  -31.2670   26.2480 C   0  0  0  0  0  1  0  0  0  0  0  0
  -27.2960  -30.1980   24.9000 C   0  0  0  0  0  1  0  0  0  0  0  0
  -27.7130  -32.3840   25.9900 C   0  0  0  0  0  1  0  0  0  0  0  0
  1 17  1  0
  2  7  1  0
  3  4  1  0
  3  2  1  0
  5  4  1  0
  5 22  1  0
  5  6  1  0
  7  1  1  0
  7  6  1  0
  8  1  2  0
  9 10  1  0
 11 12  2  0
 11 13  1  0
 12 14  1  0
 13  9  2  0
 14 10  2  0
 15 17  1  0
 15 12  1  0
 16 14  1  0
 17 16  1  0
 18 15  2  0
 19 20  2  0
 20 39  1  0
 21 20  1  0
 21 24  1  0
 22 23  1  0
 22 19  1  0
 23 21  2  0
 24 25  1  0
 25 26  2  0
 27 30  1  0
 27 26  1  0
 28 27  2  0
 29 28  1  0
 29 24  2  0
 30 31  1  0
 31 32  1  0
 32 33  2  0
 34 33  1  0
 34 38  1  0
 35 34  2  0
 36 31  2  0
 36 35  1  0
 37 36  1  0
 39 40  1  0
 40 43  1  0
 40 42  1  0
 41 39  2  0
 44 45  1  0
 44 19  1  0
 46 44  1  0
 47 13  1  0
 48 49  1  0
 48 47  2  0
 49 50  2  0
 51 52  1  0
 51 49  1  0
 53 64  2  0
 54 52  1  0
 54 59  1  0
 55 63  1  0
 55 65  1  0
 56 62  1  0
 56 58  1  0
 57 63  1  0
 58 59  2  0
 58 57  1  0
 60 54  2  0
 61 60  1  0
 61 56  2  0
 62 55  1  0
 63 53  1  0
 65 67  2  0
 66 65  1  0
 68 66  1  0
 69 78  2  0
 69 74  1  0
 70 66  1  0
 70 74  1  0
 71 70  1  0
 72 73  1  0
 72 71  1  0
 73 69  1  0
 74 75  2  0
 75 76  1  0
 77 76  2  0
 78 77  1  0
 79 53  1  0
 79 80  1  0
 79 89  1  0
 80 83  1  0
 81 85  1  0
 81 80  1  0
 82 81  2  0
 85 84  1  0
 87 85  1  0
 87 88  1  0
 87 86  1  0
 89 92  1  1
 89 90  1  0
 91 89  1  0
M  ISO  4   1 100  17 100  51 101  52 101
M  END
>  <TORSDO>  (58) 
F 18

>  <SCORE>  (58) 
-12.388

>  <name>  (58) 
57

>  <ligand_id>  (58) 
57

>  <original_smiles>  (58) 
[H]C(C(=O)C([H])([H])Oc1c([H])c([H])c2c(c1[H])C([H])([H])N(C(=O)C([H])(N([H])C(=O)C([H])(N([H])C([H])([H])[H])C([H])([H])[H])C(C([H])([H])[H])(C([H])([H])[H])C([H])([H])[H])C([H])(C(=O)N([H])C1([H])c3c([H])c([H])c([H])c([H])c3C([H])([H])C([H])([H])C1([H])[H])C2([H])[H])=C([H])c1c([H])c([H])c2c(c1[H])C(=O)N(C(=O)N1C([H])([H])C([H])([H])C([H])([H])C([H])(n3nc(-c4c([H])c([H])c(Oc5c([H])c([H])c(F)c([H])c5F)c([H])c4[H])c(C(=O)N([H])[H])c3N([H])[H])C1([H])[H])C2([H])[H]

>  <smiles>  (58) 
[H]C(C(=O)C([H])([H])Oc1c([H])c([H])c2c(c1[H])C([H])([H])N(C(=O)C([H])(N([H])C(=O)C([H])(N([H])C([H])([H])[H])C([H])([H])[H])C(C([H])([H])[H])(C([H])([H])[H])C([H])([H])[H])C([H])(C(=O)N([H])C1([H])c3c([H])c([H])c([H])c([H])c3C([H])([H])C([H])([H])C1([H])[H])C2([H])[H])=C([H])c1c([H])c([H])c2c(c1[H])C(=O)N(C(=O)N1C([H])([H])C([H])([H])C([H])([H])C([H])(n3nc(-c4c([H])c([H])c(Oc5c([H])c([H])c(F)c([H])c5F)c([H])c4[H])c(C(=O)N([H])[H])c3N([H])[H])C1([H])[H])C2([H])[H]

$$$$
58:0:0
     RDKit          3D

 93101  0  0  1  0  0  0  0  0999 V2000
  -27.9010  -19.1870   19.1210 C   0  0  0  0  0  3  0  0  0  0  0  0
  -28.2150  -20.4970   19.2980 C   0  0  0  0  0  3  0  0  0  0  0  0
  -27.8550  -16.1130   21.2850 C   0  0  0  0  0  3  0  0  0  0  0  0
  -27.5640  -17.3630   20.7220 C   0  0  0  0  0  3  0  0  0  0  0  0
  -28.9670  -15.3770   20.8460 C   0  0  0  0  0  3  0  0  0  0  0  0
  -28.4000  -17.9310   19.7380 C   0  0  0  0  0  0  0  0  0  0  0  0
  -29.5130  -17.1690   19.2690 C   0  0  0  0  0  0  0  0  0  0  0  0
  -29.7750  -15.8600   19.7970 C   0  0  0  0  0  0  0  0  0  0  0  0
  -31.4250  -13.9090   19.2250 C   0  0  0  0  0  0  0  0  0  0  0  0
  -31.1200  -11.4860   18.8570 C   0  0  0  0  0  2  0  0  0  0  0  0
  -30.0950  -11.2250   17.7420 C   0  0  0  0  0  2  0  0  0  0  0  0
  -28.6730  -11.1700   18.3290 C   0  0  0  0  0  2  0  0  0  0  0  0
  -28.3680  -12.3540   19.2870 C   0  0  0  0  0  3  0  0  0  0  0  0
  -29.5130  -12.5660   20.2930 C   0  0  0  0  0  2  0  0  0  0  0  0
  -30.7520  -12.7560   19.5270 N   0  0  0  0  0  0  0  0  0  0  0  0
  -32.4770  -13.8650   18.5850 O   0  0  0  0  0  0  0  0  0  0  0  0
  -30.9970  -15.1730   19.4900 N   0  0  0  0  0  0  0  0  0  0  0  0
  -31.6690  -15.7990   19.0760 H   0  0  0  0  0  0  0  0  0  0  0  0
  -26.2410  -13.1510   20.4800 C   0  0  0  0  0  0  0  0  0  0  0  0
  -25.1440  -12.4770   20.9420 C   0  0  0  0  0  0  0  0  0  0  0  0
  -25.3830  -11.0950   20.6700 C   0  0  0  0  0  0  0  0  0  0  0  0
  -27.0860  -12.1850   19.9620 N   0  0  0  0  0  0  0  0  0  0  0  0
  -26.5830  -10.9330   20.1320 N   0  0  0  0  0  0  0  0  0  0  0  0
  -24.5140   -9.9240   20.8450 C   0  0  0  0  0  0  0  0  0  0  0  0
  -24.7290   -9.0000   21.8910 C   0  0  0  0  0  3  0  0  0  0  0  0
  -23.8700   -7.8910   22.0550 C   0  0  0  0  0  3  0  0  0  0  0  0
  -22.7820   -7.7000   21.1710 C   0  0  0  0  0  0  0  0  0  0  0  0
  -22.5850   -8.6120   20.1190 C   0  0  0  0  0  3  0  0  0  0  0  0
  -23.4420   -9.7130   19.9550 C   0  0  0  0  0  3  0  0  0  0  0  0
  -21.9180   -6.6340   21.2310 O   0  0  0  0  0  0  0  0  0  0  0  0
  -21.4370   -6.1620   22.4250 C   0  0  0  0  0  0  0  0  0  0  0  0
  -20.6630   -6.9690   23.2880 C   0  0  0  0  0  3  0  0  0  0  0  0
  -20.1310   -6.4230   24.4740 C   0  0  0  0  0  3  0  0  0  0  0  0
  -20.3640   -5.0700   24.7930 C   0  0  0  0  0  0  0  0  0  0  0  0
  -21.1320   -4.2650   23.9330 C   0  0  0  0  0  3  0  0  0  0  0  0
  -21.6620   -4.8100   22.7510 C   0  0  0  0  0  0  0  0  0  0  0  0
  -22.3840   -4.0250   21.9130 F   0  0  0  0  0  0  0  0  0  0  0  0
  -19.8480   -4.5430   25.9270 F   0  0  0  0  0  0  0  0  0  0  0  0
  -23.9030  -13.0890   21.5250 C   0  0  0  0  0  0  0  0  0  0  0  0
  -23.2700  -12.4030   22.4730 N   0  0  0  0  0  0  0  0  0  0  0  0
  -23.5150  -14.2020   21.1770 O   0  0  0  0  0  0  0  0  0  0  0  0
  -23.6010  -11.4960   22.7660 H   0  0  0  0  0  0  0  0  0  0  0  0
  -22.4450  -12.7890   22.9070 H   0  0  0  0  0  0  0  0  0  0  0  0
  -26.5840  -14.4960   20.4350 N   0  0  0  0  0  0  0  0  0  0  0  0
  -25.9810  -15.2240   20.8020 H   0  0  0  0  0  0  0  0  0  0  0  0
  -27.4870  -14.8410   20.1260 H   0  0  0  0  0  0  0  0  0  0  0  0
  -31.6120  -18.5550   18.8270 C   0  0  0  0  0  1  0  0  0  0  0  0
  -30.4400  -17.7690   18.2120 C   0  0  0  0  0  2  0  0  0  0  0  0
  -29.2540  -21.2050   20.1700 C   0  0  0  0  0  2  0  0  0  0  0  0
  -29.8130  -22.4820   19.4640 C   0  0  0  0  0  2  0  0  0  0  0  0
  -29.8390  -23.8410   20.2420 C   0  0  0  0  0  2  0  0  0  0  0  0
  -29.1290  -24.9770   19.4530 C   0  0  0  0  0  2  0  0  0  0  0  0
  -29.1860  -26.3190   20.0120 O   0  0  0  0  0  0  0  0  0  0  0  0
  -25.1930  -31.1770   23.3740 C   0  0  0  0  0  0  0  0  0  0  0  0
  -28.0480  -27.1150   19.9440 C   0  0  0  0  0  0  0  0  0  0  0  0
  -24.1120  -29.9810   21.5020 C   0  0  0  0  0  3  0  0  0  0  0  0
  -25.6650  -28.6630   19.9740 C   0  0  0  0  0  0  0  0  0  0  0  0
  -26.6470  -30.3690   21.5070 C   0  0  0  0  0  2  0  0  0  0  0  0
  -26.7860  -29.0920   20.7000 C   0  0  0  0  0  0  0  0  0  0  0  0
  -27.9810  -28.3260   20.6810 C   0  0  0  0  0  3  0  0  0  0  0  0
  -26.9160  -26.7510   19.1680 C   0  0  0  0  0  3  0  0  0  0  0  0
  -25.7290  -27.4990   19.2020 C   0  0  0  0  0  3  0  0  0  0  0  0
  -24.4070  -29.4920   20.0630 C   0  0  0  0  0  2  0  0  0  0  0  0
  -25.3330  -30.5170   22.1880 N   0  0  0  0  0  0  0  0  0  0  0  0
  -24.0750  -31.3720   23.8710 O   0  0  0  0  0  0  0  0  0  0  0  0
  -23.4230  -28.8400   22.2810 C   0  0  0  0  0  0  0  0  0  0  0  0
  -22.1010  -28.6960   22.0870 N   0  0  0  0  0  0  0  0  0  0  0  0
  -24.0760  -28.0940   23.0180 O   0  0  0  0  0  0  0  0  0  0  0  0
  -21.6440  -29.3230   21.4450 H   0  0  0  0  0  0  0  0  0  0  0  0
  -18.6860  -27.5680   22.3990 C   0  0  0  0  0  0  0  0  0  0  0  0
  -21.2470  -27.6750   22.6900 C   0  0  0  0  0  3  0  0  0  0  0  0
  -21.2950  -26.3650   21.8630 C   0  0  0  0  0  2  0  0  0  0  0  0
  -20.1790  -26.2670   20.8200 C   0  0  0  0  0  2  0  0  0  0  0  0
  -18.8110  -26.3500   21.4970 C   0  0  0  0  0  2  0  0  0  0  0  0
  -19.8320  -28.2010   22.9440 C   0  0  0  0  0  0  0  0  0  0  0  0
  -19.6630  -29.3460   23.7540 C   0  0  0  0  0  3  0  0  0  0  0  0
  -18.3800  -29.8670   24.0140 C   0  0  0  0  0  3  0  0  0  0  0  0
  -17.2490  -29.2320   23.4760 C   0  0  0  0  0  3  0  0  0  0  0  0
  -17.4000  -28.0840   22.6750 C   0  0  0  0  0  3  0  0  0  0  0  0
  -26.4240  -31.7370   24.1460 C   0  0  0  0  0  3  0  0  0  0  0  0
  -26.0800  -33.0910   24.6000 N   0  0  0  0  0  0  0  0  0  0  0  0
  -26.4800  -34.2200   24.0000 C   0  0  0  0  0  0  0  0  0  0  0  0
  -27.2490  -34.2300   23.0330 O   0  0  0  0  0  0  0  0  0  0  0  0
  -25.4000  -33.1530   25.3440 H   0  0  0  0  0  0  0  0  0  0  0  0
  -24.7960  -36.0570   23.6760 C   0  0  0  0  0  1  0  0  0  0  0  0
  -25.9470  -35.5520   24.5610 C   0  0  0  0  0  3  0  0  0  0  0  0
  -27.9710  -36.3160   25.7210 C   0  0  0  0  0  1  0  0  0  0  0  0
  -26.9860  -36.5970   24.6800 N   0  0  0  0  0  0  0  0  0  0  0  0
  -26.5690  -37.5020   24.8780 H   0  0  0  0  0  0  0  0  0  0  0  0
  -26.8600  -30.8270   25.3600 C   0  0  1  0  0  0  0  0  0  0  0  0
  -25.7030  -30.4840   26.3290 C   0  0  0  0  0  1  0  0  0  0  0  0
  -27.4590  -29.4940   24.8530 C   0  0  0  0  0  1  0  0  0  0  0  0
  -27.9750  -31.5340   26.1660 C   0  0  0  0  0  1  0  0  0  0  0  0
  1  2  2  0
  1  6  1  0
  2 49  1  0
  4  3  2  0
  5  3  1  0
  6  4  1  0
  7  6  2  0
  7  8  1  0
  8  5  2  0
  9 17  1  0
  9 15  1  0
 10 15  1  0
 11 12  1  0
 11 10  1  0
 13 12  1  0
 13 22  1  0
 13 14  1  0
 15 14  1  0
 16  9  2  0
 17  8  1  0
 18 17  1  0
 19 20  2  0
 20 39  1  0
 21 24  1  0
 21 20  1  0
 22 23  1  0
 22 19  1  0
 23 21  2  0
 24 25  1  0
 25 26  2  0
 27 30  1  0
 27 26  1  0
 28 27  2  0
 29 28  1  0
 29 24  2  0
 30 31  1  0
 31 36  2  0
 31 32  1  0
 32 33  2  0
 33 34  1  0
 34 38  1  0
 35 34  2  0
 36 35  1  0
 37 36  1  0
 39 40  1  0
 40 42  1  0
 40 43  1  0
 41 39  2  0
 44 19  1  0
 44 45  1  0
 46 44  1  0
 48 47  1  0
 48  7  1  0
 50 49  1  0
 50 51  1  0
 52 53  1  0
 52 51  1  0
 54 65  2  0
 55 53  1  0
 55 60  1  0
 56 64  1  0
 56 66  1  0
 57 63  1  0
 57 59  1  0
 58 64  1  0
 59 58  1  0
 60 59  2  0
 61 62  1  0
 61 55  2  0
 62 57  2  0
 63 56  1  0
 64 54  1  0
 66 68  2  0
 67 66  1  0
 69 67  1  0
 70 79  2  0
 70 75  1  0
 71 67  1  0
 71 75  1  0
 72 71  1  0
 73 74  1  0
 73 72  1  0
 74 70  1  0
 75 76  2  0
 76 77  1  0
 78 77  2  0
 79 78  1  0
 80 54  1  0
 80 81  1  0
 80 90  1  0
 81 84  1  0
 82 86  1  0
 82 81  1  0
 83 82  2  0
 86 85  1  0
 86 88  1  0
 88 89  1  0
 88 87  1  0
 90 93  1  1
 90 91  1  0
 92 90  1  0
M  ISO  4   9 100  17 100  52 101  53 101
M  END
>  <TORSDO>  (59) 
F 22

>  <SCORE>  (59) 
-7.657

>  <name>  (59) 
58

>  <ligand_id>  (59) 
58

>  <original_smiles>  (59) 
[H]C(=C([H])C([H])([H])C([H])([H])C([H])([H])C([H])([H])Oc1c([H])c([H])c2c(c1[H])C([H])([H])N(C(=O)C([H])(N([H])C(=O)C([H])(N([H])C([H])([H])[H])C([H])([H])[H])C(C([H])([H])[H])(C([H])([H])[H])C([H])([H])[H])C([H])(C(=O)N([H])C1([H])c3c([H])c([H])c([H])c([H])c3C([H])([H])C([H])([H])C1([H])[H])C2([H])[H])c1c([H])c([H])c([H])c(N([H])C(=O)N2C([H])([H])C([H])([H])C([H])([H])C([H])(n3nc(-c4c([H])c([H])c(Oc5c([H])c([H])c(F)c([H])c5F)c([H])c4[H])c(C(=O)N([H])[H])c3N([H])[H])C2([H])[H])c1C([H])([H])C([H])([H])[H]

>  <smiles>  (59) 
[H]C(=C([H])C([H])([H])C([H])([H])C([H])([H])C([H])([H])Oc1c([H])c([H])c2c(c1[H])C([H])([H])N(C(=O)C([H])(N([H])C(=O)C([H])(N([H])C([H])([H])[H])C([H])([H])[H])C(C([H])([H])[H])(C([H])([H])[H])C([H])([H])[H])C([H])(C(=O)N([H])C1([H])c3c([H])c([H])c([H])c([H])c3C([H])([H])C([H])([H])C1([H])[H])C2([H])[H])c1c([H])c([H])c([H])c(N([H])C(=O)N2C([H])([H])C([H])([H])C([H])([H])C([H])(n3nc(-c4c([H])c([H])c(Oc5c([H])c([H])c(F)c([H])c5F)c([H])c4[H])c(C(=O)N([H])[H])c3N([H])[H])C2([H])[H])c1C([H])([H])C([H])([H])[H]

$$$$
59:0:0
     RDKit          3D

 92100  0  0  1  0  0  0  0  0999 V2000
  -28.0780  -17.8510   19.3160 C   0  0  0  0  0  3  0  0  0  0  0  0
  -27.1610  -18.7810   18.8150 C   0  0  0  0  0  3  0  0  0  0  0  0
  -29.4450  -19.6680   20.1450 C   0  0  0  0  0  3  0  0  0  0  0  0
  -29.2420  -18.2710   19.9820 C   0  0  0  0  0  0  0  0  0  0  0  0
  -27.3650  -20.1700   18.9500 C   0  0  0  0  0  0  0  0  0  0  0  0
  -28.5350  -20.6450   19.6360 C   0  0  0  0  0  0  0  0  0  0  0  0
  -30.1940  -17.2180   20.4320 C   0  0  0  0  0  3  0  0  0  0  0  0
  -29.8120  -15.9740   20.8260 C   0  0  0  0  0  3  0  0  0  0  0  0
  -30.7440  -14.8460   20.9720 C   0  0  0  0  0  0  0  0  0  0  0  0
  -30.6720  -12.5110   20.1970 C   0  0  0  0  0  2  0  0  0  0  0  0
  -29.8840  -12.5050   18.8670 C   0  0  0  0  0  2  0  0  0  0  0  0
  -28.3690  -12.3610   19.1210 C   0  0  0  0  0  2  0  0  0  0  0  0
  -27.8520  -13.3530   20.1950 C   0  0  0  0  0  3  0  0  0  0  0  0
  -28.7670  -13.3360   21.4440 C   0  0  0  0  0  2  0  0  0  0  0  0
  -30.1460  -13.6180   21.0130 N   0  0  0  0  0  0  0  0  0  0  0  0
  -31.9590  -14.9690   20.7870 O   0  0  0  0  0  0  0  0  0  0  0  0
  -25.4010  -14.0040   20.6410 C   0  0  0  0  0  0  0  0  0  0  0  0
  -24.2930  -13.2510   20.9150 C   0  0  0  0  0  0  0  0  0  0  0  0
  -24.7420  -11.8970   20.9720 C   0  0  0  0  0  0  0  0  0  0  0  0
  -26.4560  -13.1070   20.5420 N   0  0  0  0  0  0  0  0  0  0  0  0
  -26.0570  -11.8370   20.8030 N   0  0  0  0  0  0  0  0  0  0  0  0
  -23.9900  -10.6460   21.1200 C   0  0  0  0  0  0  0  0  0  0  0  0
  -24.3520   -9.6750   22.0800 C   0  0  0  0  0  3  0  0  0  0  0  0
  -23.6020   -8.4880   22.2150 C   0  0  0  0  0  3  0  0  0  0  0  0
  -22.4750   -8.2630   21.3880 C   0  0  0  0  0  0  0  0  0  0  0  0
  -22.1330   -9.2220   20.4190 C   0  0  0  0  0  3  0  0  0  0  0  0
  -22.8830  -10.4020   20.2820 C   0  0  0  0  0  3  0  0  0  0  0  0
  -21.7010   -7.1280   21.4310 O   0  0  0  0  0  0  0  0  0  0  0  0
  -21.6310   -6.3480   22.5570 C   0  0  0  0  0  0  0  0  0  0  0  0
  -21.1960   -6.8650   23.7970 C   0  0  0  0  0  3  0  0  0  0  0  0
  -21.0710   -6.0110   24.9110 C   0  0  0  0  0  3  0  0  0  0  0  0
  -21.3720   -4.6420   24.7870 C   0  0  0  0  0  0  0  0  0  0  0  0
  -21.8000   -4.1240   23.5520 C   0  0  0  0  0  3  0  0  0  0  0  0
  -21.9260   -4.9740   22.4390 C   0  0  0  0  0  0  0  0  0  0  0  0
  -22.3180   -4.4660   21.2460 F   0  0  0  0  0  0  0  0  0  0  0  0
  -21.2450   -3.8200   25.8530 F   0  0  0  0  0  0  0  0  0  0  0  0
  -22.8800  -13.7450   21.0270 C   0  0  0  0  0  0  0  0  0  0  0  0
  -22.0630  -13.0900   21.8460 N   0  0  0  0  0  0  0  0  0  0  0  0
  -22.5020  -14.7470   20.4200 O   0  0  0  0  0  0  0  0  0  0  0  0
  -22.3780  -12.2800   22.3590 H   0  0  0  0  0  0  0  0  0  0  0  0
  -21.1110  -13.4060   21.9630 H   0  0  0  0  0  0  0  0  0  0  0  0
  -25.5960  -15.3680   20.4490 N   0  0  0  0  0  0  0  0  0  0  0  0
  -24.8290  -16.0310   20.4820 H   0  0  0  0  0  0  0  0  0  0  0  0
  -26.4880  -15.8060   20.2660 H   0  0  0  0  0  0  0  0  0  0  0  0
  -25.3430  -21.6390   19.4360 C   0  0  0  0  0  1  0  0  0  0  0  0
  -26.2480  -21.0260   18.3590 C   0  0  0  0  0  2  0  0  0  0  0  0
  -28.8730  -21.9750   19.8980 O   0  0  0  0  0  0  0  0  0  0  0  0
  -28.2650  -23.0600   19.1690 C   0  0  0  0  0  2  0  0  0  0  0  0
  -28.7430  -24.4530   19.6280 C   0  0  0  0  0  0  0  0  0  0  0  0
  -29.3910  -24.6060   20.6700 O   0  0  0  0  0  0  0  0  0  0  0  0
  -28.3690  -25.6510   18.7230 C   0  0  0  0  0  2  0  0  0  0  0  0
  -28.2790  -26.8990   19.4490 O   0  0  0  0  0  0  0  0  0  0  0  0
  -24.5400  -31.7470   23.1060 C   0  0  0  0  0  0  0  0  0  0  0  0
  -27.0770  -27.5890   19.5370 C   0  0  0  0  0  0  0  0  0  0  0  0
  -23.2750  -30.4900   21.3930 C   0  0  0  0  0  3  0  0  0  0  0  0
  -24.6760  -29.0890   19.7850 C   0  0  0  0  0  0  0  0  0  0  0  0
  -25.7930  -30.8710   21.1340 C   0  0  0  0  0  2  0  0  0  0  0  0
  -25.8550  -29.5590   20.3720 C   0  0  0  0  0  0  0  0  0  0  0  0
  -27.0530  -28.8160   20.2500 C   0  0  0  0  0  3  0  0  0  0  0  0
  -25.8660  -27.1300   18.9670 C   0  0  0  0  0  3  0  0  0  0  0  0
  -24.6760  -27.8720   19.0850 C   0  0  0  0  0  3  0  0  0  0  0  0
  -23.4340  -29.9350   19.9520 C   0  0  0  0  0  2  0  0  0  0  0  0
  -24.5570  -31.0470   21.9360 N   0  0  0  0  0  0  0  0  0  0  0  0
  -23.4790  -31.9650   23.7080 O   0  0  0  0  0  0  0  0  0  0  0  0
  -22.6610  -29.3850   22.2830 C   0  0  0  0  0  0  0  0  0  0  0  0
  -21.3310  -29.2170   22.1990 N   0  0  0  0  0  0  0  0  0  0  0  0
  -23.3770  -28.6850   23.0040 O   0  0  0  0  0  0  0  0  0  0  0  0
  -20.8140  -29.8360   21.5890 H   0  0  0  0  0  0  0  0  0  0  0  0
  -17.9780  -27.9810   22.7230 C   0  0  0  0  0  0  0  0  0  0  0  0
  -20.5450  -28.2130   22.9140 C   0  0  0  0  0  3  0  0  0  0  0  0
  -20.6190  -26.8410   22.2050 C   0  0  0  0  0  2  0  0  0  0  0  0
  -19.4760  -26.6120   21.2120 C   0  0  0  0  0  2  0  0  0  0  0  0
  -18.1210  -26.6990   21.9200 C   0  0  0  0  0  2  0  0  0  0  0  0
  -19.1150  -28.7000   23.1760 C   0  0  0  0  0  0  0  0  0  0  0  0
  -18.9260  -29.9060   23.8870 C   0  0  0  0  0  3  0  0  0  0  0  0
  -17.6310  -30.3900   24.1490 C   0  0  0  0  0  3  0  0  0  0  0  0
  -16.5080  -29.6670   23.7130 C   0  0  0  0  0  3  0  0  0  0  0  0
  -16.6820  -28.4640   23.0060 C   0  0  0  0  0  3  0  0  0  0  0  0
  -25.8470  -32.3260   23.7310 C   0  0  0  0  0  3  0  0  0  0  0  0
  -25.5530  -33.6890   24.1880 N   0  0  0  0  0  0  0  0  0  0  0  0
  -25.9020  -34.8050   23.5310 C   0  0  0  0  0  0  0  0  0  0  0  0
  -26.5790  -34.7890   22.4990 O   0  0  0  0  0  0  0  0  0  0  0  0
  -24.9510  -33.7760   24.9950 H   0  0  0  0  0  0  0  0  0  0  0  0
  -24.2050  -36.6480   23.3240 C   0  0  0  0  0  1  0  0  0  0  0  0
  -25.4260  -36.1500   24.1120 C   0  0  0  0  0  3  0  0  0  0  0  0
  -27.5560  -36.9190   25.0610 C   0  0  0  0  0  1  0  0  0  0  0  0
  -26.4750  -37.1930   24.1170 N   0  0  0  0  0  0  0  0  0  0  0  0
  -26.0800  -38.1010   24.3440 H   0  0  0  0  0  0  0  0  0  0  0  0
  -26.4110  -31.4500   24.9150 C   0  0  1  0  0  0  0  0  0  0  0  0
  -25.3620  -31.1310   26.0060 C   0  0  0  0  0  1  0  0  0  0  0  0
  -26.9660  -30.1070   24.3860 C   0  0  0  0  0  1  0  0  0  0  0  0
  -27.5940  -32.1810   25.5920 C   0  0  0  0  0  1  0  0  0  0  0  0
  1  4  1  0
  2  5  1  0
  2  1  2  0
  4  3  2  0
  4  7  1  0
  5  6  2  0
  6 47  1  0
  6  3  1  0
  7  8  2  0
  8  9  1  0
  9 15  1  0
 10 15  1  0
 11 12  1  0
 11 10  1  0
 13 12  1  0
 13 20  1  0
 13 14  1  0
 15 14  1  0
 16  9  2  0
 17 18  2  0
 18 19  1  0
 18 37  1  0
 19 22  1  0
 20 17  1  0
 20 21  1  0
 21 19  2  0
 22 23  1  0
 23 24  2  0
 25 28  1  0
 25 24  1  0
 26 25  2  0
 27 26  1  0
 27 22  2  0
 28 29  1  0
 29 30  1  0
 30 31  2  0
 32 31  1  0
 32 36  1  0
 33 32  2  0
 34 29  2  0
 34 33  1  0
 35 34  1  0
 37 38  1  0
 38 41  1  0
 38 40  1  0
 39 37  2  0
 42 43  1  0
 42 17  1  0
 44 42  1  0
 46  5  1  0
 46 45  1  0
 48 49  1  0
 48 47  1  0
 49 50  2  0
 51 52  1  0
 51 49  1  0
 52 54  1  0
 53 64  2  0
 54 59  1  0
 55 63  1  0
 55 65  1  0
 56 62  1  0
 56 58  1  0
 57 63  1  0
 58 57  1  0
 59 58  2  0
 60 61  1  0
 60 54  2  0
 61 56  2  0
 62 55  1  0
 63 53  1  0
 65 67  2  0
 66 65  1  0
 68 66  1  0
 69 78  2  0
 69 74  1  0
 70 66  1  0
 70 74  1  0
 71 70  1  0
 72 73  1  0
 72 71  1  0
 73 69  1  0
 74 75  2  0
 75 76  1  0
 77 76  2  0
 78 77  1  0
 79 53  1  0
 79 80  1  0
 79 89  1  0
 80 83  1  0
 81 85  1  0
 81 80  1  0
 82 81  2  0
 85 84  1  0
 85 87  1  0
 87 88  1  0
 87 86  1  0
 89 92  1  1
 89 90  1  0
 91 89  1  0
M  ISO  4   8 100   9 100  51 101  52 101
M  END
>  <TORSDO>  (60) 
F 22

>  <SCORE>  (60) 
-12.127

>  <name>  (60) 
59

>  <ligand_id>  (60) 
59

>  <original_smiles>  (60) 
[H]C(C(=O)N1C([H])([H])C([H])([H])C([H])([H])C([H])(n2nc(-c3c([H])c([H])c(Oc4c([H])c([H])c(F)c([H])c4F)c([H])c3[H])c(C(=O)N([H])[H])c2N([H])[H])C1([H])[H])=C([H])c1c([H])c([H])c(C([H])([H])C([H])([H])[H])c(OC([H])([H])C(=O)C([H])([H])Oc2c([H])c([H])c3c(c2[H])C([H])([H])N(C(=O)C([H])(N([H])C(=O)C([H])(N([H])C([H])([H])[H])C([H])([H])[H])C(C([H])([H])[H])(C([H])([H])[H])C([H])([H])[H])C([H])(C(=O)N([H])C2([H])c4c([H])c([H])c([H])c([H])c4C([H])([H])C([H])([H])C2([H])[H])C3([H])[H])c1[H]

>  <smiles>  (60) 
[H]C(C(=O)N1C([H])([H])C([H])([H])C([H])([H])C([H])(n2nc(-c3c([H])c([H])c(Oc4c([H])c([H])c(F)c([H])c4F)c([H])c3[H])c(C(=O)N([H])[H])c2N([H])[H])C1([H])[H])=C([H])c1c([H])c([H])c(C([H])([H])C([H])([H])[H])c(OC([H])([H])C(=O)C([H])([H])Oc2c([H])c([H])c3c(c2[H])C([H])([H])N(C(=O)C([H])(N([H])C(=O)C([H])(N([H])C([H])([H])[H])C([H])([H])[H])C(C([H])([H])[H])(C([H])([H])[H])C([H])([H])[H])C([H])(C(=O)N([H])C2([H])c4c([H])c([H])c([H])c([H])c4C([H])([H])C([H])([H])C2([H])[H])C3([H])[H])c1[H]

$$$$
60:0:0
     RDKit          3D

 89 97  0  0  1  0  0  0  0  0999 V2000
  -28.4610  -22.7210   19.3150 C   0  0  0  0  0  3  0  0  0  0  0  0
  -28.9970  -24.1580   19.5930 C   0  0  0  0  0  0  0  0  0  0  0  0
  -30.1030  -24.5150   19.1750 O   0  0  0  0  0  0  0  0  0  0  0  0
  -28.0800  -25.1380   20.3810 C   0  0  0  0  0  2  0  0  0  0  0  0
  -28.3350  -26.5610   20.1350 O   0  0  0  0  0  0  0  0  0  0  0  0
  -24.6010  -31.8700   23.2340 C   0  0  0  0  0  0  0  0  0  0  0  0
  -27.2070  -27.3730   20.1300 C   0  0  0  0  0  0  0  0  0  0  0  0
  -23.3910  -30.4750   21.5940 C   0  0  0  0  0  3  0  0  0  0  0  0
  -24.8340  -28.9360   20.1680 C   0  0  0  0  0  0  0  0  0  0  0  0
  -25.9270  -30.8040   21.4070 C   0  0  0  0  0  2  0  0  0  0  0  0
  -26.0030  -29.4340   20.7560 C   0  0  0  0  0  0  0  0  0  0  0  0
  -27.1960  -28.6620   20.7340 C   0  0  0  0  0  3  0  0  0  0  0  0
  -26.0220  -26.9270   19.5060 C   0  0  0  0  0  3  0  0  0  0  0  0
  -24.8380  -27.6800   19.5440 C   0  0  0  0  0  3  0  0  0  0  0  0
  -23.5970  -29.8050   20.2140 C   0  0  0  0  0  2  0  0  0  0  0  0
  -24.6570  -31.0690   22.1320 N   0  0  0  0  0  0  0  0  0  0  0  0
  -23.5200  -32.1440   23.7750 O   0  0  0  0  0  0  0  0  0  0  0  0
  -22.7380  -29.4510   22.5510 C   0  0  0  0  0  0  0  0  0  0  0  0
  -21.4140  -29.2720   22.4280 N   0  0  0  0  0  0  0  0  0  0  0  0
  -23.4230  -28.8220   23.3640 O   0  0  0  0  0  0  0  0  0  0  0  0
  -20.9230  -29.8340   21.7440 H   0  0  0  0  0  0  0  0  0  0  0  0
  -18.0350  -28.0940   22.9390 C   0  0  0  0  0  0  0  0  0  0  0  0
  -20.5960  -28.3360   23.1990 C   0  0  0  0  0  3  0  0  0  0  0  0
  -20.6850  -26.9070   22.6210 C   0  0  0  0  0  2  0  0  0  0  0  0
  -19.5770  -26.5910   21.6090 C   0  0  0  0  0  2  0  0  0  0  0  0
  -18.1980  -26.7460   22.2580 C   0  0  0  0  0  2  0  0  0  0  0  0
  -19.1600  -28.8470   23.3660 C   0  0  0  0  0  0  0  0  0  0  0  0
  -18.9510  -30.1080   23.9640 C   0  0  0  0  0  3  0  0  0  0  0  0
  -17.6500  -30.6180   24.1390 C   0  0  0  0  0  3  0  0  0  0  0  0
  -16.5390  -29.8610   23.7300 C   0  0  0  0  0  3  0  0  0  0  0  0
  -16.7310  -28.6020   23.1340 C   0  0  0  0  0  3  0  0  0  0  0  0
  -25.8870  -32.4980   23.8540 C   0  0  0  0  0  3  0  0  0  0  0  0
  -25.5790  -33.8970   24.1800 N   0  0  0  0  0  0  0  0  0  0  0  0
  -25.9120  -34.9480   23.4170 C   0  0  0  0  0  0  0  0  0  0  0  0
  -26.5850  -34.8410   22.3880 O   0  0  0  0  0  0  0  0  0  0  0  0
  -24.9810  -34.0530   24.9770 H   0  0  0  0  0  0  0  0  0  0  0  0
  -24.1880  -36.7410   23.0560 C   0  0  0  0  0  1  0  0  0  0  0  0
  -25.4240  -36.3350   23.8730 C   0  0  0  0  0  3  0  0  0  0  0  0
  -27.5560  -37.2160   24.7140 C   0  0  0  0  0  1  0  0  0  0  0  0
  -26.4590  -37.3870   23.7660 N   0  0  0  0  0  0  0  0  0  0  0  0
  -26.0520  -38.3070   23.9160 H   0  0  0  0  0  0  0  0  0  0  0  0
  -26.4010  -31.7310   25.1310 C   0  0  1  0  0  0  0  0  0  0  0  0
  -25.3080  -31.5080   26.2030 C   0  0  0  0  0  1  0  0  0  0  0  0
  -26.9790  -30.3490   24.7500 C   0  0  0  0  0  1  0  0  0  0  0  0
  -27.5530  -32.5240   25.7920 C   0  0  0  0  0  1  0  0  0  0  0  0
  -29.4310  -21.5320   19.6330 C   0  0  0  0  0  3  0  0  0  0  0  0
  -27.7760  -18.1510   19.9940 C   0  0  0  0  0  3  0  0  0  0  0  0
  -27.6000  -19.5690   19.8880 C   0  0  0  0  0  3  0  0  0  0  0  0
  -29.1070  -17.9110   19.7550 C   0  0  0  0  0  0  0  0  0  0  0  0
  -28.8410  -20.1200   19.6560 C   0  0  0  0  0  0  0  0  0  0  0  0
  -29.7530  -19.1030   19.5370 O   0  0  0  0  0  0  0  0  0  0  0  0
  -29.9180  -16.7320   19.8090 C   0  0  0  0  0  3  0  0  0  0  0  0
  -29.8090  -15.6600   20.6320 C   0  0  0  0  0  3  0  0  0  0  0  0
  -30.6920  -14.5090   20.4460 C   0  0  0  0  0  0  0  0  0  0  0  0
  -30.4310  -12.3160   19.3770 C   0  0  0  0  0  2  0  0  0  0  0  0
  -29.5360  -12.5690   18.1450 C   0  0  0  0  0  2  0  0  0  0  0  0
  -28.0390  -12.4760   18.5170 C   0  0  0  0  0  2  0  0  0  0  0  0
  -27.6820  -13.2580   19.8120 C   0  0  0  0  0  3  0  0  0  0  0  0
  -28.7180  -13.0170   20.9320 C   0  0  0  0  0  2  0  0  0  0  0  0
  -30.0550  -13.3030   20.3970 N   0  0  0  0  0  0  0  0  0  0  0  0
  -31.8770  -14.6400   20.1240 O   0  0  0  0  0  0  0  0  0  0  0  0
  -25.2650  -13.8380   20.4720 C   0  0  0  0  0  0  0  0  0  0  0  0
  -24.1950  -13.0640   20.8190 C   0  0  0  0  0  0  0  0  0  0  0  0
  -24.6660  -11.7170   20.8070 C   0  0  0  0  0  0  0  0  0  0  0  0
  -26.3220  -12.9670   20.2640 N   0  0  0  0  0  0  0  0  0  0  0  0
  -25.9630  -11.6840   20.5200 N   0  0  0  0  0  0  0  0  0  0  0  0
  -23.9450  -10.4520   20.9970 C   0  0  0  0  0  0  0  0  0  0  0  0
  -24.3620   -9.5000   21.9540 C   0  0  0  0  0  3  0  0  0  0  0  0
  -23.6390   -8.2990   22.1290 C   0  0  0  0  0  3  0  0  0  0  0  0
  -22.4830   -8.0450   21.3530 C   0  0  0  0  0  0  0  0  0  0  0  0
  -22.0860   -8.9880   20.3910 C   0  0  0  0  0  3  0  0  0  0  0  0
  -22.8090  -10.1790   20.2090 C   0  0  0  0  0  3  0  0  0  0  0  0
  -21.7350   -6.8960   21.4330 O   0  0  0  0  0  0  0  0  0  0  0  0
  -21.6600   -6.1700   22.5940 C   0  0  0  0  0  0  0  0  0  0  0  0
  -21.1930   -6.7380   23.7990 C   0  0  0  0  0  3  0  0  0  0  0  0
  -21.0630   -5.9370   24.9510 C   0  0  0  0  0  3  0  0  0  0  0  0
  -21.3880   -4.5680   24.8980 C   0  0  0  0  0  0  0  0  0  0  0  0
  -21.8560   -4.0020   23.6990 C   0  0  0  0  0  3  0  0  0  0  0  0
  -21.9850   -4.8020   22.5500 C   0  0  0  0  0  0  0  0  0  0  0  0
  -22.4120   -4.2470   21.3890 F   0  0  0  0  0  0  0  0  0  0  0  0
  -21.2590   -3.7950   26.0020 F   0  0  0  0  0  0  0  0  0  0  0  0
  -22.7910  -13.5380   21.0590 C   0  0  0  0  0  0  0  0  0  0  0  0
  -22.0490  -12.8520   21.9200 N   0  0  0  0  0  0  0  0  0  0  0  0
  -22.3630  -14.5550   20.5200 O   0  0  0  0  0  0  0  0  0  0  0  0
  -22.4150  -12.0400   22.3940 H   0  0  0  0  0  0  0  0  0  0  0  0
  -21.1050  -13.1490   22.1180 H   0  0  0  0  0  0  0  0  0  0  0  0
  -25.4250  -15.2050   20.2980 N   0  0  0  0  0  0  0  0  0  0  0  0
  -24.6550  -15.8610   20.3890 H   0  0  0  0  0  0  0  0  0  0  0  0
  -26.3040  -15.6500   20.0700 H   0  0  0  0  0  0  0  0  0  0  0  0
  1  2  1  0
  1 46  2  0
  2  4  1  0
  3  2  2  0
  5  4  1  0
  6 17  2  0
  7  5  1  0
  7 12  1  0
  8 16  1  0
  8 18  1  0
  9 15  1  0
  9 11  1  0
 10 16  1  0
 11 10  1  0
 12 11  2  0
 13 14  1  0
 13  7  2  0
 14  9  2  0
 15  8  1  0
 16  6  1  0
 18 20  2  0
 19 18  1  0
 21 19  1  0
 22 31  2  0
 22 27  1  0
 23 19  1  0
 23 27  1  0
 24 23  1  0
 25 26  1  0
 25 24  1  0
 26 22  1  0
 27 28  2  0
 28 29  1  0
 30 29  2  0
 31 30  1  0
 32  6  1  0
 32 33  1  0
 32 42  1  0
 33 36  1  0
 34 38  1  0
 34 33  1  0
 35 34  2  0
 38 37  1  0
 40 38  1  0
 40 41  1  0
 40 39  1  0
 42 45  1  1
 42 43  1  0
 44 42  1  0
 46 50  1  0
 48 47  1  0
 49 52  1  0
 49 47  2  0
 50 48  2  0
 51 50  1  0
 51 49  1  0
 52 53  2  0
 54 53  1  0
 55 60  1  0
 56 57  1  0
 56 55  1  0
 58 57  1  0
 58 65  1  0
 58 59  1  0
 60 54  1  0
 60 59  1  0
 61 54  2  0
 62 63  2  0
 63 82  1  0
 64 63  1  0
 64 67  1  0
 65 62  1  0
 65 66  1  0
 66 64  2  0
 67 68  1  0
 68 69  2  0
 70 73  1  0
 70 69  1  0
 71 70  2  0
 72 71  1  0
 72 67  2  0
 73 74  1  0
 74 75  1  0
 75 76  2  0
 77 76  1  0
 77 81  1  0
 78 77  2  0
 79 74  2  0
 79 78  1  0
 80 79  1  0
 82 83  1  0
 83 86  1  0
 83 85  1  0
 84 82  2  0
 87 88  1  0
 87 62  1  0
 89 87  1  0
M  ISO  4   4 101   5 101  53 100  54 100
M  END
>  <TORSDO>  (61) 
F 21

>  <SCORE>  (61) 
-13.391

>  <name>  (61) 
60

>  <ligand_id>  (61) 
60

>  <original_smiles>  (61) 
[H]C(C(=O)N1C([H])([H])C([H])([H])C([H])([H])C([H])(n2nc(-c3c([H])c([H])c(Oc4c([H])c([H])c(F)c([H])c4F)c([H])c3[H])c(C(=O)N([H])[H])c2N([H])[H])C1([H])[H])=C([H])c1oc(C([H])([H])C([H])([H])C(=O)C([H])([H])Oc2c([H])c([H])c3c(c2[H])C([H])([H])N(C(=O)C([H])(N([H])C(=O)C([H])(N([H])C([H])([H])[H])C([H])([H])[H])C(C([H])([H])[H])(C([H])([H])[H])C([H])([H])[H])C([H])(C(=O)N([H])C2([H])c4c([H])c([H])c([H])c([H])c4C([H])([H])C([H])([H])C2([H])[H])C3([H])[H])c([H])c1[H]

>  <smiles>  (61) 
[H]C(C(=O)N1C([H])([H])C([H])([H])C([H])([H])C([H])(n2nc(-c3c([H])c([H])c(Oc4c([H])c([H])c(F)c([H])c4F)c([H])c3[H])c(C(=O)N([H])[H])c2N([H])[H])C1([H])[H])=C([H])c1oc(C([H])([H])C([H])([H])C(=O)C([H])([H])Oc2c([H])c([H])c3c(c2[H])C([H])([H])N(C(=O)C([H])(N([H])C(=O)C([H])(N([H])C([H])([H])[H])C([H])([H])[H])C(C([H])([H])[H])(C([H])([H])[H])C([H])([H])[H])C([H])(C(=O)N([H])C2([H])c4c([H])c([H])c([H])c([H])c4C([H])([H])C([H])([H])C2([H])[H])C3([H])[H])c([H])c1[H]

$$$$
61:0:0
     RDKit          3D

 91 99  0  0  1  0  0  0  0  0999 V2000
  -29.1950  -23.1040   19.3630 C   0  0  0  0  0  3  0  0  0  0  0  0
  -29.5870  -21.9260   19.8950 C   0  0  0  0  0  3  0  0  0  0  0  0
  -29.1340  -24.3750   20.1160 C   0  0  0  0  0  0  0  0  0  0  0  0
  -29.4250  -24.4640   21.3150 O   0  0  0  0  0  0  0  0  0  0  0  0
  -28.6770  -25.6190   19.3290 C   0  0  0  0  0  2  0  0  0  0  0  0
  -28.4390  -26.7440   20.1950 O   0  0  0  0  0  0  0  0  0  0  0  0
  -24.6070  -31.8890   23.2540 C   0  0  0  0  0  0  0  0  0  0  0  0
  -27.2330  -27.4220   20.1750 C   0  0  0  0  0  0  0  0  0  0  0  0
  -23.3880  -30.4790   21.6290 C   0  0  0  0  0  3  0  0  0  0  0  0
  -24.8300  -28.9310   20.2070 C   0  0  0  0  0  0  0  0  0  0  0  0
  -25.9120  -30.8330   21.4100 C   0  0  0  0  0  2  0  0  0  0  0  0
  -25.9910  -29.4560   20.7820 C   0  0  0  0  0  0  0  0  0  0  0  0
  -27.1900  -28.7070   20.7680 C   0  0  0  0  0  3  0  0  0  0  0  0
  -26.0390  -26.9020   19.6150 C   0  0  0  0  0  3  0  0  0  0  0  0
  -24.8470  -27.6520   19.6290 C   0  0  0  0  0  3  0  0  0  0  0  0
  -23.5880  -29.7940   20.2520 C   0  0  0  0  0  2  0  0  0  0  0  0
  -24.6550  -31.0840   22.1570 N   0  0  0  0  0  0  0  0  0  0  0  0
  -23.5300  -32.1640   23.8010 O   0  0  0  0  0  0  0  0  0  0  0  0
  -22.7440  -29.4620   22.6010 C   0  0  0  0  0  0  0  0  0  0  0  0
  -21.4210  -29.2690   22.4750 N   0  0  0  0  0  0  0  0  0  0  0  0
  -23.4300  -28.8490   23.4210 O   0  0  0  0  0  0  0  0  0  0  0  0
  -20.9270  -29.8210   21.7860 H   0  0  0  0  0  0  0  0  0  0  0  0
  -18.0570  -28.0410   22.9550 C   0  0  0  0  0  0  0  0  0  0  0  0
  -20.6090  -28.3360   23.2530 C   0  0  0  0  0  3  0  0  0  0  0  0
  -20.7370  -26.8950   22.7060 C   0  0  0  0  0  2  0  0  0  0  0  0
  -19.6510  -26.5380   21.6850 C   0  0  0  0  0  2  0  0  0  0  0  0
  -18.2590  -26.6800   22.3090 C   0  0  0  0  0  2  0  0  0  0  0  0
  -19.1620  -28.8230   23.3840 C   0  0  0  0  0  0  0  0  0  0  0  0
  -18.9210  -30.0950   23.9470 C   0  0  0  0  0  3  0  0  0  0  0  0
  -17.6080  -30.5850   24.0870 C   0  0  0  0  0  3  0  0  0  0  0  0
  -16.5190  -29.7990   23.6760 C   0  0  0  0  0  3  0  0  0  0  0  0
  -16.7430  -28.5290   23.1150 C   0  0  0  0  0  3  0  0  0  0  0  0
  -25.8960  -32.5230   23.8610 C   0  0  0  0  0  3  0  0  0  0  0  0
  -25.5960  -33.9230   24.1800 N   0  0  0  0  0  0  0  0  0  0  0  0
  -25.9190  -34.9660   23.4020 C   0  0  0  0  0  0  0  0  0  0  0  0
  -26.5770  -34.8500   22.3640 O   0  0  0  0  0  0  0  0  0  0  0  0
  -25.0170  -34.0880   24.9890 H   0  0  0  0  0  0  0  0  0  0  0  0
  -24.1870  -36.7530   23.0480 C   0  0  0  0  0  1  0  0  0  0  0  0
  -25.4390  -36.3600   23.8470 C   0  0  0  0  0  3  0  0  0  0  0  0
  -27.5870  -37.2550   24.6350 C   0  0  0  0  0  1  0  0  0  0  0  0
  -26.4700  -37.4120   23.7060 N   0  0  0  0  0  0  0  0  0  0  0  0
  -26.0690  -38.3350   23.8520 H   0  0  0  0  0  0  0  0  0  0  0  0
  -26.4220  -31.7620   25.1390 C   0  0  1  0  0  0  0  0  0  0  0  0
  -25.3400  -31.5370   26.2210 C   0  0  0  0  0  1  0  0  0  0  0  0
  -26.9990  -30.3810   24.7480 C   0  0  0  0  0  1  0  0  0  0  0  0
  -27.5800  -32.5610   25.7860 C   0  0  0  0  0  1  0  0  0  0  0  0
  -29.5770  -20.6200   19.1120 C   0  0  0  0  0  2  0  0  0  0  0  0
  -31.8280  -19.2790   19.4460 C   0  0  0  0  0  3  0  0  0  0  0  0
  -32.1070  -18.0450   20.1060 C   0  0  0  0  0  0  0  0  0  0  0  0
  -30.9110  -17.6340   20.6390 C   0  0  0  0  0  0  0  0  0  0  0  0
  -30.4980  -19.5430   19.6150 C   0  0  0  0  0  0  0  0  0  0  0  0
  -33.4560  -17.3750   20.2170 C   0  0  0  0  0  1  0  0  0  0  0  0
  -29.9340  -18.5490   20.3560 O   0  0  0  0  0  0  0  0  0  0  0  0
  -30.5200  -16.5640   21.5120 C   0  0  0  0  0  3  0  0  0  0  0  0
  -30.5020  -15.2130   21.4220 C   0  0  0  0  0  3  0  0  0  0  0  0
  -30.8860  -14.4270   20.2520 C   0  0  0  0  0  0  0  0  0  0  0  0
  -30.4240  -12.3900   18.9180 C   0  0  0  0  0  2  0  0  0  0  0  0
  -29.4140  -12.6540   17.7840 C   0  0  0  0  0  2  0  0  0  0  0  0
  -27.9660  -12.5070   18.2890 C   0  0  0  0  0  2  0  0  0  0  0  0
  -27.7190  -13.3040   19.5950 C   0  0  0  0  0  3  0  0  0  0  0  0
  -28.8220  -12.9970   20.6310 C   0  0  0  0  0  2  0  0  0  0  0  0
  -30.1350  -13.3110   20.0300 N   0  0  0  0  0  0  0  0  0  0  0  0
  -31.8600  -14.7060   19.5460 O   0  0  0  0  0  0  0  0  0  0  0  0
  -25.3660  -13.9390   20.4320 C   0  0  0  0  0  0  0  0  0  0  0  0
  -24.3050  -13.1760   20.8460 C   0  0  0  0  0  0  0  0  0  0  0  0
  -24.7430  -11.8190   20.7690 C   0  0  0  0  0  0  0  0  0  0  0  0
  -26.3840  -13.0450   20.1360 N   0  0  0  0  0  0  0  0  0  0  0  0
  -26.0140  -11.7630   20.3940 N   0  0  0  0  0  0  0  0  0  0  0  0
  -24.0070  -10.5640   20.9770 C   0  0  0  0  0  0  0  0  0  0  0  0
  -24.4610   -9.5850   21.8860 C   0  0  0  0  0  3  0  0  0  0  0  0
  -23.7300   -8.3940   22.0820 C   0  0  0  0  0  3  0  0  0  0  0  0
  -22.5290   -8.1740   21.3670 C   0  0  0  0  0  0  0  0  0  0  0  0
  -22.0940   -9.1410   20.4450 C   0  0  0  0  0  3  0  0  0  0  0  0
  -22.8270  -10.3240   20.2470 C   0  0  0  0  0  3  0  0  0  0  0  0
  -21.7650   -7.0360   21.4720 O   0  0  0  0  0  0  0  0  0  0  0  0
  -21.7290   -6.2980   22.6280 C   0  0  0  0  0  0  0  0  0  0  0  0
  -21.3490   -6.8660   23.8640 C   0  0  0  0  0  3  0  0  0  0  0  0
  -21.2600   -6.0550   25.0130 C   0  0  0  0  0  3  0  0  0  0  0  0
  -21.5390   -4.6780   24.9280 C   0  0  0  0  0  0  0  0  0  0  0  0
  -21.9160   -4.1110   23.6970 C   0  0  0  0  0  3  0  0  0  0  0  0
  -22.0070   -4.9180   22.5510 C   0  0  0  0  0  0  0  0  0  0  0  0
  -22.3470   -4.3630   21.3620 F   0  0  0  0  0  0  0  0  0  0  0  0
  -21.4460   -3.8970   26.0290 F   0  0  0  0  0  0  0  0  0  0  0  0
  -22.9300  -13.6680   21.1970 C   0  0  0  0  0  0  0  0  0  0  0  0
  -22.2370  -12.9720   22.0930 N   0  0  0  0  0  0  0  0  0  0  0  0
  -22.4790  -14.7040   20.7100 O   0  0  0  0  0  0  0  0  0  0  0  0
  -22.6150  -12.1340   22.5100 H   0  0  0  0  0  0  0  0  0  0  0  0
  -21.3170  -13.2830   22.3670 H   0  0  0  0  0  0  0  0  0  0  0  0
  -25.5460  -15.3080   20.2660 N   0  0  0  0  0  0  0  0  0  0  0  0
  -24.8020  -15.9800   20.4190 H   0  0  0  0  0  0  0  0  0  0  0  0
  -26.3980  -15.7310   19.9180 H   0  0  0  0  0  0  0  0  0  0  0  0
  1  2  2  0
  1  3  1  0
  3  4  2  0
  5  3  1  0
  5  6  1  0
  7 18  2  0
  8  6  1  0
  8 13  1  0
  9 17  1  0
  9 19  1  0
 10 16  1  0
 10 12  1  0
 11 17  1  0
 12 11  1  0
 13 12  2  0
 14 15  1  0
 14  8  2  0
 15 10  2  0
 16  9  1  0
 17  7  1  0
 19 21  2  0
 20 19  1  0
 22 20  1  0
 23 32  2  0
 23 28  1  0
 24 20  1  0
 24 28  1  0
 25 24  1  0
 26 27  1  0
 26 25  1  0
 27 23  1  0
 28 29  2  0
 29 30  1  0
 31 30  2  0
 32 31  1  0
 33  7  1  0
 33 34  1  0
 33 43  1  0
 34 37  1  0
 35 39  1  0
 35 34  1  0
 36 35  2  0
 39 38  1  0
 41 39  1  0
 41 42  1  0
 41 40  1  0
 43 46  1  1
 43 44  1  0
 45 43  1  0
 47 51  1  0
 47  2  1  0
 48 51  2  0
 48 49  1  0
 49 52  1  0
 49 50  2  0
 50 54  1  0
 51 53  1  0
 53 50  1  0
 55 54  2  0
 56 55  1  0
 57 62  1  0
 58 59  1  0
 58 57  1  0
 60 59  1  0
 60 67  1  0
 60 61  1  0
 62 56  1  0
 62 61  1  0
 63 56  2  0
 64 65  2  0
 65 84  1  0
 66 65  1  0
 66 69  1  0
 67 68  1  0
 67 64  1  0
 68 66  2  0
 69 70  1  0
 70 71  2  0
 72 75  1  0
 72 71  1  0
 73 72  2  0
 74 73  1  0
 74 69  2  0
 75 76  1  0
 76 77  1  0
 77 78  2  0
 79 78  1  0
 79 83  1  0
 80 79  2  0
 81 76  2  0
 81 80  1  0
 82 81  1  0
 84 85  1  0
 85 88  1  0
 85 87  1  0
 86 84  2  0
 89 90  1  0
 89 64  1  0
 91 89  1  0
M  ISO  4   5 101   6 101  55 100  56 100
M  END
>  <TORSDO>  (62) 
F 21

>  <SCORE>  (62) 
-13.154

>  <name>  (62) 
61

>  <ligand_id>  (62) 
61

>  <original_smiles>  (62) 
[H]C(C(=O)N1C([H])([H])C([H])([H])C([H])([H])C([H])(n2nc(-c3c([H])c([H])c(Oc4c([H])c([H])c(F)c([H])c4F)c([H])c3[H])c(C(=O)N([H])[H])c2N([H])[H])C1([H])[H])=C([H])c1oc(C([H])([H])C([H])=C([H])C(=O)C([H])([H])Oc2c([H])c([H])c3c(c2[H])C([H])([H])N(C(=O)C([H])(N([H])C(=O)C([H])(N([H])C([H])([H])[H])C([H])([H])[H])C(C([H])([H])[H])(C([H])([H])[H])C([H])([H])[H])C([H])(C(=O)N([H])C2([H])c4c([H])c([H])c([H])c([H])c4C([H])([H])C([H])([H])C2([H])[H])C3([H])[H])c([H])c1C([H])([H])[H]

>  <smiles>  (62) 
[H]C(C(=O)N1C([H])([H])C([H])([H])C([H])([H])C([H])(n2nc(-c3c([H])c([H])c(Oc4c([H])c([H])c(F)c([H])c4F)c([H])c3[H])c(C(=O)N([H])[H])c2N([H])[H])C1([H])[H])=C([H])c1oc(C([H])([H])C([H])=C([H])C(=O)C([H])([H])Oc2c([H])c([H])c3c(c2[H])C([H])([H])N(C(=O)C([H])(N([H])C(=O)C([H])(N([H])C([H])([H])[H])C([H])([H])[H])C(C([H])([H])[H])(C([H])([H])[H])C([H])([H])[H])C([H])(C(=O)N([H])C2([H])c4c([H])c([H])c([H])c([H])c4C([H])([H])C([H])([H])C2([H])[H])C3([H])[H])c([H])c1C([H])([H])[H]

$$$$
62:0:0
     RDKit          3D

 94102  0  0  1  0  0  0  0  0999 V2000
  -32.5730  -22.1350   21.2330 C   0  0  0  0  0  3  0  0  0  0  0  0
  -31.0770  -20.5900   22.3560 C   0  0  0  0  0  3  0  0  0  0  0  0
  -31.3050  -21.8640   21.7910 C   0  0  0  0  0  0  0  0  0  0  0  0
  -33.6170  -21.1870   21.3000 C   0  0  0  0  0  0  0  0  0  0  0  0
  -33.3910  -19.9320   21.9200 C   0  0  0  0  0  0  0  0  0  0  0  0
  -32.1040  -19.6190   22.4150 C   0  0  0  0  0  0  0  0  0  0  0  0
  -34.9730  -21.5490   20.7140 C   0  0  0  0  0  1  0  0  0  0  0  0
  -34.5010  -18.8970   22.0740 C   0  0  0  0  0  1  0  0  0  0  0  0
  -30.2250  -22.8710   21.8170 C   0  0  0  0  0  3  0  0  0  0  0  0
  -30.1320  -23.9830   21.0550 C   0  0  0  0  0  3  0  0  0  0  0  0
  -28.8270  -25.4710   22.4500 C   0  0  0  0  0  2  0  0  0  0  0  0
  -29.0910  -24.9880   21.2250 C   0  0  0  0  0  0  0  0  0  0  0  0
  -28.2890  -25.5060   20.0410 C   0  0  0  0  0  2  0  0  0  0  0  0
  -28.2980  -26.9410   20.0280 O   0  0  0  0  0  0  0  0  0  0  0  0
  -24.4640  -32.0040   23.2520 C   0  0  0  0  0  0  0  0  0  0  0  0
  -27.0960  -27.6160   20.0730 C   0  0  0  0  0  0  0  0  0  0  0  0
  -23.2420  -30.5980   21.6260 C   0  0  0  0  0  3  0  0  0  0  0  0
  -24.6800  -29.0870   20.1620 C   0  0  0  0  0  0  0  0  0  0  0  0
  -25.7590  -30.9830   21.3820 C   0  0  0  0  0  2  0  0  0  0  0  0
  -25.8450  -29.6180   20.7300 C   0  0  0  0  0  0  0  0  0  0  0  0
  -27.0530  -28.8880   20.6870 C   0  0  0  0  0  3  0  0  0  0  0  0
  -25.9140  -27.1030   19.4890 C   0  0  0  0  0  3  0  0  0  0  0  0
  -24.7090  -27.8260   19.5410 C   0  0  0  0  0  3  0  0  0  0  0  0
  -23.4290  -29.9310   20.2400 C   0  0  0  0  0  2  0  0  0  0  0  0
  -24.5070  -31.2100   22.1450 N   0  0  0  0  0  0  0  0  0  0  0  0
  -23.3900  -32.2630   23.8130 O   0  0  0  0  0  0  0  0  0  0  0  0
  -22.6230  -29.5620   22.5930 C   0  0  0  0  0  0  0  0  0  0  0  0
  -21.3030  -29.3510   22.4750 N   0  0  0  0  0  0  0  0  0  0  0  0
  -23.3270  -28.9500   23.4010 O   0  0  0  0  0  0  0  0  0  0  0  0
  -20.7950  -29.9000   21.7950 H   0  0  0  0  0  0  0  0  0  0  0  0
  -17.9630  -28.0620   22.9720 C   0  0  0  0  0  0  0  0  0  0  0  0
  -20.5110  -28.3950   23.2490 C   0  0  0  0  0  3  0  0  0  0  0  0
  -20.6580  -26.9640   22.6860 C   0  0  0  0  0  2  0  0  0  0  0  0
  -19.5690  -26.6010   21.6710 C   0  0  0  0  0  2  0  0  0  0  0  0
  -18.1810  -26.7120   22.3090 C   0  0  0  0  0  2  0  0  0  0  0  0
  -19.0580  -28.8600   23.3980 C   0  0  0  0  0  0  0  0  0  0  0  0
  -18.8020  -30.1220   23.9760 C   0  0  0  0  0  3  0  0  0  0  0  0
  -17.4840  -30.5870   24.1360 C   0  0  0  0  0  3  0  0  0  0  0  0
  -16.4030  -29.7860   23.7260 C   0  0  0  0  0  3  0  0  0  0  0  0
  -16.6430  -28.5270   23.1470 C   0  0  0  0  0  3  0  0  0  0  0  0
  -25.7560  -32.6450   23.8490 C   0  0  0  0  0  3  0  0  0  0  0  0
  -25.4430  -34.0410   24.1790 N   0  0  0  0  0  0  0  0  0  0  0  0
  -25.7540  -35.0930   23.4090 C   0  0  0  0  0  0  0  0  0  0  0  0
  -26.4070  -34.9900   22.3670 O   0  0  0  0  0  0  0  0  0  0  0  0
  -24.8580  -34.1950   24.9870 H   0  0  0  0  0  0  0  0  0  0  0  0
  -24.0010  -36.8670   23.0840 C   0  0  0  0  0  1  0  0  0  0  0  0
  -25.2640  -36.4790   23.8690 C   0  0  0  0  0  3  0  0  0  0  0  0
  -27.4100  -37.3890   24.6420 C   0  0  0  0  0  1  0  0  0  0  0  0
  -26.2830  -37.5420   23.7250 N   0  0  0  0  0  0  0  0  0  0  0  0
  -25.8720  -38.4590   23.8800 H   0  0  0  0  0  0  0  0  0  0  0  0
  -26.3010  -31.8780   25.1170 C   0  0  1  0  0  0  0  0  0  0  0  0
  -25.2280  -31.6310   26.2040 C   0  0  0  0  0  1  0  0  0  0  0  0
  -26.8900  -30.5060   24.7140 C   0  0  0  0  0  1  0  0  0  0  0  0
  -27.4540  -32.6840   25.7610 C   0  0  0  0  0  1  0  0  0  0  0  0
  -31.9140  -18.3960   23.0170 O   0  0  0  0  0  0  0  0  0  0  0  0
  -30.7530  -17.6440   22.6560 C   0  0  0  0  0  2  0  0  0  0  0  0
  -31.1140  -16.6710   21.5220 C   0  0  0  0  0  2  0  0  0  0  0  0
  -30.0640  -15.5560   21.2840 C   0  0  0  0  0  2  0  0  0  0  0  0
  -30.4810  -14.5570   20.1870 C   0  0  0  0  0  0  0  0  0  0  0  0
  -30.1150  -12.4550   18.9350 C   0  0  0  0  0  2  0  0  0  0  0  0
  -29.1070  -12.6460   17.7880 C   0  0  0  0  0  2  0  0  0  0  0  0
  -27.6690  -12.4420   18.2950 C   0  0  0  0  0  2  0  0  0  0  0  0
  -27.3710  -13.2760   19.5700 C   0  0  0  0  0  3  0  0  0  0  0  0
  -28.4830  -13.0930   20.6290 C   0  0  0  0  0  2  0  0  0  0  0  0
  -29.7790  -13.4080   20.0050 N   0  0  0  0  0  0  0  0  0  0  0  0
  -31.4650  -14.8330   19.4910 O   0  0  0  0  0  0  0  0  0  0  0  0
  -24.9820  -13.8110   20.3700 C   0  0  0  0  0  0  0  0  0  0  0  0
  -23.9600  -13.0080   20.7990 C   0  0  0  0  0  0  0  0  0  0  0  0
  -24.4690  -11.6740   20.7720 C   0  0  0  0  0  0  0  0  0  0  0  0
  -26.0490  -12.9650   20.1110 N   0  0  0  0  0  0  0  0  0  0  0  0
  -25.7450  -11.6750   20.4090 N   0  0  0  0  0  0  0  0  0  0  0  0
  -23.7990  -10.3900   21.0170 C   0  0  0  0  0  0  0  0  0  0  0  0
  -24.2860   -9.4730   21.9750 C   0  0  0  0  0  3  0  0  0  0  0  0
  -23.6120   -8.2540   22.2070 C   0  0  0  0  0  3  0  0  0  0  0  0
  -22.4390   -7.9430   21.4800 C   0  0  0  0  0  0  0  0  0  0  0  0
  -21.9720   -8.8480   20.5110 C   0  0  0  0  0  3  0  0  0  0  0  0
  -22.6450  -10.0590   20.2780 C   0  0  0  0  0  3  0  0  0  0  0  0
  -21.7350   -6.7720   21.6190 O   0  0  0  0  0  0  0  0  0  0  0  0
  -21.7150   -6.0800   22.8040 C   0  0  0  0  0  0  0  0  0  0  0  0
  -21.2690   -6.6730   24.0050 C   0  0  0  0  0  3  0  0  0  0  0  0
  -21.1980   -5.9060   25.1850 C   0  0  0  0  0  3  0  0  0  0  0  0
  -21.5630   -4.5470   25.1640 C   0  0  0  0  0  0  0  0  0  0  0  0
  -22.0010   -3.9530   23.9680 C   0  0  0  0  0  3  0  0  0  0  0  0
  -22.0730   -4.7170   22.7900 C   0  0  0  0  0  0  0  0  0  0  0  0
  -22.4760   -4.1350   21.6350 F   0  0  0  0  0  0  0  0  0  0  0  0
  -21.4870   -3.8070   26.2950 F   0  0  0  0  0  0  0  0  0  0  0  0
  -22.5590  -13.4400   21.1260 C   0  0  0  0  0  0  0  0  0  0  0  0
  -21.9010  -12.7380   22.0430 N   0  0  0  0  0  0  0  0  0  0  0  0
  -22.0560  -14.4340   20.6030 O   0  0  0  0  0  0  0  0  0  0  0  0
  -22.3210  -11.9360   22.4890 H   0  0  0  0  0  0  0  0  0  0  0  0
  -20.9630  -13.0070   22.3050 H   0  0  0  0  0  0  0  0  0  0  0  0
  -25.0840  -15.1840   20.1610 N   0  0  0  0  0  0  0  0  0  0  0  0
  -24.2940  -15.8080   20.2880 H   0  0  0  0  0  0  0  0  0  0  0  0
  -25.9110  -15.6560   19.8160 H   0  0  0  0  0  0  0  0  0  0  0  0
  1  4  2  0
  1  3  1  0
  2  6  1  0
  3  9  1  0
  3  2  2  0
  4  5  1  0
  5  8  1  0
  5  6  2  0
  6 55  1  0
  7  4  1  0
 10 12  1  0
 10  9  2  0
 12 11  2  0
 13 12  1  0
 14 13  1  0
 14 16  1  0
 15 26  2  0
 16 21  1  0
 17 25  1  0
 17 27  1  0
 18 24  1  0
 18 20  1  0
 19 25  1  0
 20 19  1  0
 21 20  2  0
 22 23  1  0
 22 16  2  0
 23 18  2  0
 24 17  1  0
 25 15  1  0
 27 29  2  0
 28 27  1  0
 30 28  1  0
 31 40  2  0
 31 36  1  0
 32 28  1  0
 32 36  1  0
 33 32  1  0
 34 35  1  0
 34 33  1  0
 35 31  1  0
 36 37  2  0
 37 38  1  0
 39 38  2  0
 40 39  1  0
 41 15  1  0
 41 42  1  0
 41 51  1  0
 42 45  1  0
 43 47  1  0
 43 42  1  0
 44 43  2  0
 47 46  1  0
 49 47  1  0
 49 50  1  0
 49 48  1  0
 51 54  1  1
 51 52  1  0
 53 51  1  0
 56 55  1  0
 57 56  1  0
 58 57  1  0
 59 58  1  0
 60 65  1  0
 61 62  1  0
 61 60  1  0
 63 62  1  0
 63 70  1  0
 63 64  1  0
 65 59  1  0
 65 64  1  0
 66 59  2  0
 67 68  2  0
 68 87  1  0
 69 68  1  0
 69 72  1  0
 70 67  1  0
 70 71  1  0
 71 69  2  0
 72 73  1  0
 73 74  2  0
 75 78  1  0
 75 74  1  0
 76 75  2  0
 77 76  1  0
 77 72  2  0
 78 79  1  0
 79 80  1  0
 80 81  2  0
 82 81  1  0
 82 86  1  0
 83 82  2  0
 84 79  2  0
 84 83  1  0
 85 84  1  0
 87 88  1  0
 88 91  1  0
 88 90  1  0
 89 87  2  0
 92 93  1  0
 92 67  1  0
 94 92  1  0
M  ISO  4  13 101  14 101  58 100  59 100
M  END
>  <TORSDO>  (63) 
F 23

>  <SCORE>  (63) 
-11.020

>  <name>  (63) 
62

>  <ligand_id>  (63) 
62

>  <original_smiles>  (63) 
[H]C([H])=C(C([H])=C([H])c1c([H])c(OC([H])([H])C([H])([H])C([H])([H])C(=O)N2C([H])([H])C([H])([H])C([H])([H])C([H])(n3nc(-c4c([H])c([H])c(Oc5c([H])c([H])c(F)c([H])c5F)c([H])c4[H])c(C(=O)N([H])[H])c3N([H])[H])C2([H])[H])c(C([H])([H])[H])c(C([H])([H])[H])c1[H])C([H])([H])Oc1c([H])c([H])c2c(c1[H])C([H])([H])N(C(=O)C([H])(N([H])C(=O)C([H])(N([H])C([H])([H])[H])C([H])([H])[H])C(C([H])([H])[H])(C([H])([H])[H])C([H])([H])[H])C([H])(C(=O)N([H])C1([H])c3c([H])c([H])c([H])c([H])c3C([H])([H])C([H])([H])C1([H])[H])C2([H])[H]

>  <smiles>  (63) 
[H]C([H])=C(C([H])=C([H])c1c([H])c(OC([H])([H])C([H])([H])C([H])([H])C(=O)N2C([H])([H])C([H])([H])C([H])([H])C([H])(n3nc(-c4c([H])c([H])c(Oc5c([H])c([H])c(F)c([H])c5F)c([H])c4[H])c(C(=O)N([H])[H])c3N([H])[H])C2([H])[H])c(C([H])([H])[H])c(C([H])([H])[H])c1[H])C([H])([H])Oc1c([H])c([H])c2c(c1[H])C([H])([H])N(C(=O)C([H])(N([H])C(=O)C([H])(N([H])C([H])([H])[H])C([H])([H])[H])C(C([H])([H])[H])(C([H])([H])[H])C([H])([H])[H])C([H])(C(=O)N([H])C1([H])c3c([H])c([H])c([H])c([H])c3C([H])([H])C([H])([H])C1([H])[H])C2([H])[H]

$$$$
63:0:0
     RDKit          3D

 94102  0  0  1  0  0  0  0  0999 V2000
  -28.6870  -21.2500   21.3190 C   0  0  0  0  0  3  0  0  0  0  0  0
  -29.0870  -20.0620   19.2380 C   0  0  0  0  0  3  0  0  0  0  0  0
  -30.7730  -20.0190   21.0160 C   0  0  0  0  0  0  0  0  0  0  0  0
  -29.9390  -20.8340   21.8280 C   0  0  0  0  0  0  0  0  0  0  0  0
  -28.2520  -20.8810   20.0220 C   0  0  0  0  0  0  0  0  0  0  0  0
  -30.3400  -19.6410   19.7250 C   0  0  0  0  0  0  0  0  0  0  0  0
  -33.1890  -20.2160   21.6030 C   0  0  0  0  0  2  0  0  0  0  0  0
  -32.0640  -19.4950   21.4860 C   0  0  0  0  0  3  0  0  0  0  0  0
  -29.7800  -22.5340   23.8050 C   0  0  0  0  0  1  0  0  0  0  0  0
  -30.3780  -21.2340   23.2410 C   0  0  0  0  0  2  0  0  0  0  0  0
  -27.0550  -21.2990   19.4770 O   0  0  0  0  0  0  0  0  0  0  0  0
  -26.5200  -22.5090   20.0060 C   0  0  0  0  0  2  0  0  0  0  0  0
  -26.3060  -23.5690   18.9180 C   0  0  0  0  0  2  0  0  0  0  0  0
  -26.6750  -24.9630   19.4520 C   0  0  0  0  0  2  0  0  0  0  0  0
  -26.4180  -25.9990   18.5050 O   0  0  0  0  0  0  0  0  0  0  0  0
  -25.2640  -30.4930   23.8870 C   0  0  0  0  0  0  0  0  0  0  0  0
  -25.6290  -26.9990   19.0180 C   0  0  0  0  0  0  0  0  0  0  0  0
  -23.4130  -30.2560   22.2610 C   0  0  0  0  0  3  0  0  0  0  0  0
  -23.9830  -29.0060   20.1110 C   0  0  0  0  0  0  0  0  0  0  0  0
  -25.8380  -29.8840   21.5430 C   0  0  0  0  0  2  0  0  0  0  0  0
  -25.3210  -28.9030   20.5120 C   0  0  0  0  0  0  0  0  0  0  0  0
  -26.1520  -27.9030   19.9650 C   0  0  0  0  0  3  0  0  0  0  0  0
  -24.2820  -27.1080   18.6190 C   0  0  0  0  0  3  0  0  0  0  0  0
  -23.4550  -28.1100   19.1630 C   0  0  0  0  0  3  0  0  0  0  0  0
  -23.1660  -30.1130   20.7340 C   0  0  0  0  0  2  0  0  0  0  0  0
  -24.8690  -30.1940   22.6180 N   0  0  0  0  0  0  0  0  0  0  0  0
  -24.4460  -30.8590   24.7430 O   0  0  0  0  0  0  0  0  0  0  0  0
  -22.5580  -29.2010   22.9970 C   0  0  0  0  0  0  0  0  0  0  0  0
  -21.2280  -29.2940   22.8350 N   0  0  0  0  0  0  0  0  0  0  0  0
  -23.0890  -28.3120   23.6690 O   0  0  0  0  0  0  0  0  0  0  0  0
  -20.8730  -30.0600   22.2780 H   0  0  0  0  0  0  0  0  0  0  0  0
  -17.7280  -28.4020   22.7290 C   0  0  0  0  0  0  0  0  0  0  0  0
  -20.2270  -28.3860   23.3940 C   0  0  0  0  0  3  0  0  0  0  0  0
  -20.2960  -26.9980   22.7170 C   0  0  0  0  0  2  0  0  0  0  0  0
  -19.3360  -26.8570   21.5290 C   0  0  0  0  0  2  0  0  0  0  0  0
  -17.8900  -27.0930   21.9740 C   0  0  0  0  0  2  0  0  0  0  0  0
  -18.8300  -29.0170   23.3790 C   0  0  0  0  0  0  0  0  0  0  0  0
  -18.6370  -30.2530   24.0330 C   0  0  0  0  0  3  0  0  0  0  0  0
  -17.3730  -30.8700   24.0500 C   0  0  0  0  0  3  0  0  0  0  0  0
  -16.2810  -30.2500   23.4170 C   0  0  0  0  0  3  0  0  0  0  0  0
  -16.4580  -29.0170   22.7650 C   0  0  0  0  0  3  0  0  0  0  0  0
  -26.7630  -30.4140   24.3170 C   0  0  0  0  0  3  0  0  0  0  0  0
  -27.1350  -29.0500   25.0180 C   0  0  1  0  0  0  0  0  0  0  0  0
  -26.1860  -28.6670   26.1760 C   0  0  0  0  0  1  0  0  0  0  0  0
  -27.1270  -27.8920   23.9930 C   0  0  0  0  0  1  0  0  0  0  0  0
  -28.5720  -29.1300   25.5870 C   0  0  0  0  0  1  0  0  0  0  0  0
  -27.0220  -31.5460   25.2140 N   0  0  0  0  0  0  0  0  0  0  0  0
  -27.6980  -32.6500   24.8680 C   0  0  0  0  0  0  0  0  0  0  0  0
  -28.2370  -32.7870   23.7670 O   0  0  0  0  0  0  0  0  0  0  0  0
  -26.5700  -31.5230   26.1150 H   0  0  0  0  0  0  0  0  0  0  0  0
  -26.7920  -34.8920   25.5570 C   0  0  0  0  0  1  0  0  0  0  0  0
  -27.7940  -33.7810   25.9100 C   0  0  0  0  0  3  0  0  0  0  0  0
  -30.1160  -33.4340   26.6320 C   0  0  0  0  0  1  0  0  0  0  0  0
  -29.1520  -34.3550   26.0340 N   0  0  0  0  0  0  0  0  0  0  0  0
  -29.1350  -35.2020   26.5960 H   0  0  0  0  0  0  0  0  0  0  0  0
  -31.1880  -18.9300   18.9160 O   0  0  0  0  0  0  0  0  0  0  0  0
  -30.9350  -17.5340   18.8480 C   0  0  0  0  0  2  0  0  0  0  0  0
  -32.0070  -16.8440   19.7070 C   0  0  0  0  0  2  0  0  0  0  0  0
  -32.4210  -15.4890   19.1260 C   0  0  0  0  0  0  0  0  0  0  0  0
  -32.2060  -13.0440   18.9010 C   0  0  0  0  0  2  0  0  0  0  0  0
  -31.2080  -12.6680   17.7890 C   0  0  0  0  0  2  0  0  0  0  0  0
  -29.7740  -12.6120   18.3490 C   0  0  0  0  0  2  0  0  0  0  0  0
  -29.4050  -13.8780   19.1680 C   0  0  0  0  0  3  0  0  0  0  0  0
  -30.5130  -14.2100   20.1920 C   0  0  0  0  0  2  0  0  0  0  0  0
  -31.7940  -14.3320   19.4730 N   0  0  0  0  0  0  0  0  0  0  0  0
  -33.3770  -15.5040   18.3440 O   0  0  0  0  0  0  0  0  0  0  0  0
  -27.2460  -14.7120   20.2990 C   0  0  0  0  0  0  0  0  0  0  0  0
  -26.1310  -14.0530   20.7450 C   0  0  0  0  0  0  0  0  0  0  0  0
  -26.3680  -12.6660   20.4960 C   0  0  0  0  0  0  0  0  0  0  0  0
  -28.0990  -13.7330   19.8150 N   0  0  0  0  0  0  0  0  0  0  0  0
  -27.5800  -12.4900   19.9880 N   0  0  0  0  0  0  0  0  0  0  0  0
  -25.4880  -11.5010   20.6610 C   0  0  0  0  0  0  0  0  0  0  0  0
  -25.7790  -10.4810   21.5950 C   0  0  0  0  0  3  0  0  0  0  0  0
  -24.9090   -9.3820   21.7480 C   0  0  0  0  0  3  0  0  0  0  0  0
  -23.7330   -9.2930   20.9670 C   0  0  0  0  0  0  0  0  0  0  0  0
  -23.4600  -10.2980   20.0220 C   0  0  0  0  0  3  0  0  0  0  0  0
  -24.3310  -11.3890   19.8670 C   0  0  0  0  0  3  0  0  0  0  0  0
  -22.8440   -8.2460   21.0280 O   0  0  0  0  0  0  0  0  0  0  0  0
  -22.4580   -7.6980   22.2240 C   0  0  0  0  0  0  0  0  0  0  0  0
  -21.8420   -8.4680   23.2340 C   0  0  0  0  0  3  0  0  0  0  0  0
  -21.3970   -7.8510   24.4200 C   0  0  0  0  0  3  0  0  0  0  0  0
  -21.5620   -6.4650   24.5980 C   0  0  0  0  0  0  0  0  0  0  0  0
  -22.1720   -5.6940   23.5920 C   0  0  0  0  0  3  0  0  0  0  0  0
  -22.6170   -6.3100   22.4080 C   0  0  0  0  0  0  0  0  0  0  0  0
  -23.1850   -5.5590   21.4340 F   0  0  0  0  0  0  0  0  0  0  0  0
  -21.1300   -5.8690   25.7330 F   0  0  0  0  0  0  0  0  0  0  0  0
  -24.8750  -14.6790   21.2810 C   0  0  0  0  0  0  0  0  0  0  0  0
  -24.1810  -13.9890   22.1800 N   0  0  0  0  0  0  0  0  0  0  0  0
  -24.5280  -15.8090   20.9400 O   0  0  0  0  0  0  0  0  0  0  0  0
  -24.4770  -13.0710   22.4760 H   0  0  0  0  0  0  0  0  0  0  0  0
  -23.3430  -14.3860   22.5780 H   0  0  0  0  0  0  0  0  0  0  0  0
  -27.6000  -16.0570   20.2490 N   0  0  0  0  0  0  0  0  0  0  0  0
  -26.9750  -16.7980   20.5490 H   0  0  0  0  0  0  0  0  0  0  0  0
  -28.4660  -16.4020   19.8550 H   0  0  0  0  0  0  0  0  0  0  0  0
  1  4  1  0
  2  6  2  0
  2  5  1  0
  3  8  1  0
  3  4  2  0
  4 10  1  0
  5  1  2  0
  6  3  1  0
  8  7  2  0
 10  9  1  0
 11 12  1  0
 11  5  1  0
 13 14  1  0
 13 12  1  0
 15 17  1  0
 15 14  1  0
 16 27  2  0
 17 22  1  0
 18 26  1  0
 18 28  1  0
 19 21  1  0
 19 25  1  0
 20 26  1  0
 21 20  1  0
 22 21  2  0
 23 17  2  0
 23 24  1  0
 24 19  2  0
 25 18  1  0
 26 16  1  0
 28 30  2  0
 29 28  1  0
 31 29  1  0
 32 41  2  0
 32 37  1  0
 33 29  1  0
 34 33  1  0
 35 36  1  0
 35 34  1  0
 36 32  1  0
 37 33  1  0
 37 38  2  0
 38 39  1  0
 40 39  2  0
 41 40  1  0
 42 16  1  0
 42 43  1  0
 42 47  1  0
 43 46  1  1
 43 44  1  0
 45 43  1  0
 47 50  1  0
 48 47  1  0
 48 52  1  0
 49 48  2  0
 52 51  1  0
 52 54  1  0
 54 55  1  0
 54 53  1  0
 56  6  1  0
 57 56  1  0
 57 58  1  0
 59 65  1  0
 59 58  1  0
 60 65  1  0
 61 62  1  0
 61 60  1  0
 63 62  1  0
 63 70  1  0
 63 64  1  0
 65 64  1  0
 66 59  2  0
 67 68  2  0
 68 87  1  0
 69 72  1  0
 69 68  1  0
 70 71  1  0
 70 67  1  0
 71 69  2  0
 72 73  1  0
 73 74  2  0
 75 78  1  0
 75 74  1  0
 76 75  2  0
 77 76  1  0
 77 72  2  0
 78 79  1  0
 79 84  2  0
 79 80  1  0
 80 81  2  0
 81 82  1  0
 82 86  1  0
 83 82  2  0
 84 83  1  0
 85 84  1  0
 87 88  1  0
 88 90  1  0
 88 91  1  0
 89 87  2  0
 92 67  1  0
 92 93  1  0
 94 92  1  0
M  ISO  4  14 101  15 101  58 100  59 100
M  END
>  <TORSDO>  (64) 
F 25

>  <SCORE>  (64) 
-8.449

>  <name>  (64) 
63

>  <ligand_id>  (64) 
63

>  <original_smiles>  (64) 
[H]C([H])=C([H])c1c(OC([H])([H])C([H])([H])C(=O)N2C([H])([H])C([H])([H])C([H])([H])C([H])(n3nc(-c4c([H])c([H])c(Oc5c([H])c([H])c(F)c([H])c5F)c([H])c4[H])c(C(=O)N([H])[H])c3N([H])[H])C2([H])[H])c([H])c(OC([H])([H])C([H])([H])C([H])([H])Oc2c([H])c([H])c3c(c2[H])C([H])([H])N(C(=O)C([H])(N([H])C(=O)C([H])(N([H])C([H])([H])[H])C([H])([H])[H])C(C([H])([H])[H])(C([H])([H])[H])C([H])([H])[H])C([H])(C(=O)N([H])C2([H])c4c([H])c([H])c([H])c([H])c4C([H])([H])C([H])([H])C2([H])[H])C3([H])[H])c([H])c1C([H])([H])C([H])([H])[H]

>  <smiles>  (64) 
[H]C([H])=C([H])c1c(OC([H])([H])C([H])([H])C(=O)N2C([H])([H])C([H])([H])C([H])([H])C([H])(n3nc(-c4c([H])c([H])c(Oc5c([H])c([H])c(F)c([H])c5F)c([H])c4[H])c(C(=O)N([H])[H])c3N([H])[H])C2([H])[H])c([H])c(OC([H])([H])C([H])([H])C([H])([H])Oc2c([H])c([H])c3c(c2[H])C([H])([H])N(C(=O)C([H])(N([H])C(=O)C([H])(N([H])C([H])([H])[H])C([H])([H])[H])C(C([H])([H])[H])(C([H])([H])[H])C([H])([H])[H])C([H])(C(=O)N([H])C2([H])c4c([H])c([H])c([H])c([H])c4C([H])([H])C([H])([H])C2([H])[H])C3([H])[H])c([H])c1C([H])([H])C([H])([H])[H]

$$$$
64:0:0
     RDKit          3D

 91 99  0  0  1  0  0  0  0  0999 V2000
  -30.3500  -21.2210   21.1040 C   0  0  0  0  0  3  0  0  0  0  0  0
  -29.3910  -22.1650   20.9530 C   0  0  0  0  0  3  0  0  0  0  0  0
  -29.0010  -19.0910   20.7040 C   0  0  0  0  0  3  0  0  0  0  0  0
  -31.3770  -18.9420   21.1480 C   0  0  0  0  0  3  0  0  0  0  0  0
  -28.9310  -17.6810   20.6470 C   0  0  0  0  0  3  0  0  0  0  0  0
  -31.3140  -17.5320   21.0790 C   0  0  0  0  0  3  0  0  0  0  0  0
  -30.2260  -19.7450   20.9730 C   0  0  0  0  0  0  0  0  0  0  0  0
  -30.0830  -16.8820   20.8290 C   0  0  0  0  0  0  0  0  0  0  0  0
  -30.6380  -14.5200   20.1520 C   0  0  0  0  0  0  0  0  0  0  0  0
  -30.3180  -12.3920   18.9370 C   0  0  0  0  0  2  0  0  0  0  0  0
  -29.2970  -12.6190   17.8020 C   0  0  0  0  0  2  0  0  0  0  0  0
  -27.8520  -12.4520   18.3150 C   0  0  0  0  0  2  0  0  0  0  0  0
  -27.5860  -13.2440   19.6240 C   0  0  0  0  0  3  0  0  0  0  0  0
  -28.7070  -12.9790   20.6550 C   0  0  0  0  0  2  0  0  0  0  0  0
  -29.9930  -13.3270   20.0250 N   0  0  0  0  0  0  0  0  0  0  0  0
  -31.7240  -14.7530   19.6100 O   0  0  0  0  0  0  0  0  0  0  0  0
  -29.9290  -15.4610   20.8100 N   0  0  0  0  0  0  0  0  0  0  0  0
  -29.0470  -15.1180   21.1570 H   0  0  0  0  0  0  0  0  0  0  0  0
  -25.2320  -13.8190   20.4940 C   0  0  0  0  0  0  0  0  0  0  0  0
  -24.1910  -13.0290   20.9030 C   0  0  0  0  0  0  0  0  0  0  0  0
  -24.6530  -11.6810   20.7960 C   0  0  0  0  0  0  0  0  0  0  0  0
  -26.2640  -12.9500   20.1710 N   0  0  0  0  0  0  0  0  0  0  0  0
  -25.9210  -11.6580   20.4070 N   0  0  0  0  0  0  0  0  0  0  0  0
  -23.9430  -10.4090   20.9850 C   0  0  0  0  0  0  0  0  0  0  0  0
  -24.4070   -9.4340   21.8950 C   0  0  0  0  0  3  0  0  0  0  0  0
  -23.6980   -8.2260   22.0710 C   0  0  0  0  0  3  0  0  0  0  0  0
  -22.5110   -7.9860   21.3390 C   0  0  0  0  0  0  0  0  0  0  0  0
  -22.0680   -8.9500   20.4180 C   0  0  0  0  0  3  0  0  0  0  0  0
  -22.7770  -10.1490   20.2390 C   0  0  0  0  0  3  0  0  0  0  0  0
  -21.7710   -6.8320   21.4270 O   0  0  0  0  0  0  0  0  0  0  0  0
  -21.7120   -6.1020   22.5870 C   0  0  0  0  0  0  0  0  0  0  0  0
  -21.2010   -6.6470   23.7860 C   0  0  0  0  0  3  0  0  0  0  0  0
  -21.0940   -5.8400   24.9360 C   0  0  0  0  0  3  0  0  0  0  0  0
  -21.4860   -4.4900   24.8890 C   0  0  0  0  0  0  0  0  0  0  0  0
  -21.9890   -3.9430   23.6950 C   0  0  0  0  0  3  0  0  0  0  0  0
  -22.0980   -4.7480   22.5470 C   0  0  0  0  0  0  0  0  0  0  0  0
  -22.5640   -4.2100   21.3930 F   0  0  0  0  0  0  0  0  0  0  0  0
  -21.3760   -3.7120   25.9910 F   0  0  0  0  0  0  0  0  0  0  0  0
  -22.8120  -13.4890   21.2790 C   0  0  0  0  0  0  0  0  0  0  0  0
  -22.1410  -12.7590   22.1620 N   0  0  0  0  0  0  0  0  0  0  0  0
  -22.3390  -14.5310   20.8250 O   0  0  0  0  0  0  0  0  0  0  0  0
  -22.5360  -11.9150   22.5510 H   0  0  0  0  0  0  0  0  0  0  0  0
  -21.2180  -13.0460   22.4550 H   0  0  0  0  0  0  0  0  0  0  0  0
  -25.3820  -15.1950   20.3490 N   0  0  0  0  0  0  0  0  0  0  0  0
  -24.6130  -15.8370   20.5020 H   0  0  0  0  0  0  0  0  0  0  0  0
  -26.1890  -15.6370   19.9290 H   0  0  0  0  0  0  0  0  0  0  0  0
  -28.5960  -24.4730   20.8630 C   0  0  0  0  0  3  0  0  0  0  0  0
  -29.5860  -23.6040   21.1900 C   0  0  0  0  0  0  0  0  0  0  0  0
  -30.8710  -24.1060   21.8380 C   0  0  0  0  0  1  0  0  0  0  0  0
  -28.5760  -25.9950   21.0630 C   0  0  0  0  0  2  0  0  0  0  0  0
  -28.2140  -26.6970   19.8700 O   0  0  0  0  0  0  0  0  0  0  0  0
  -24.5230  -31.8720   23.1450 C   0  0  0  0  0  0  0  0  0  0  0  0
  -27.0710  -27.4580   19.9540 C   0  0  0  0  0  0  0  0  0  0  0  0
  -23.2760  -30.5110   21.4960 C   0  0  0  0  0  3  0  0  0  0  0  0
  -24.6940  -28.9800   20.0260 C   0  0  0  0  0  0  0  0  0  0  0  0
  -25.8010  -30.8470   21.2680 C   0  0  0  0  0  2  0  0  0  0  0  0
  -25.8640  -29.4830   20.6110 C   0  0  0  0  0  0  0  0  0  0  0  0
  -27.0570  -28.7260   20.5800 C   0  0  0  0  0  3  0  0  0  0  0  0
  -25.8920  -26.9690   19.3610 C   0  0  0  0  0  3  0  0  0  0  0  0
  -24.7010  -27.7200   19.4000 C   0  0  0  0  0  3  0  0  0  0  0  0
  -23.4590  -29.8510   20.1030 C   0  0  0  0  0  2  0  0  0  0  0  0
  -24.5520  -31.0910   22.0280 N   0  0  0  0  0  0  0  0  0  0  0  0
  -23.4540  -32.1470   23.7070 O   0  0  0  0  0  0  0  0  0  0  0  0
  -22.6290  -29.4820   22.4500 C   0  0  0  0  0  0  0  0  0  0  0  0
  -21.3000  -29.3200   22.3430 N   0  0  0  0  0  0  0  0  0  0  0  0
  -23.3190  -28.8310   23.2400 O   0  0  0  0  0  0  0  0  0  0  0  0
  -20.8060  -29.8960   21.6770 H   0  0  0  0  0  0  0  0  0  0  0  0
  -17.9160  -28.1800   22.8920 C   0  0  0  0  0  0  0  0  0  0  0  0
  -20.4840  -28.3790   23.1090 C   0  0  0  0  0  3  0  0  0  0  0  0
  -20.5430  -26.9620   22.4950 C   0  0  0  0  0  2  0  0  0  0  0  0
  -19.4110  -26.6880   21.4990 C   0  0  0  0  0  2  0  0  0  0  0  0
  -18.0490  -26.8450   22.1800 C   0  0  0  0  0  2  0  0  0  0  0  0
  -19.0600  -28.9070   23.3140 C   0  0  0  0  0  0  0  0  0  0  0  0
  -18.8820  -30.1600   23.9420 C   0  0  0  0  0  3  0  0  0  0  0  0
  -17.5930  -30.6840   24.1490 C   0  0  0  0  0  3  0  0  0  0  0  0
  -16.4630  -29.9530   23.7450 C   0  0  0  0  0  3  0  0  0  0  0  0
  -16.6250  -28.7030   23.1220 C   0  0  0  0  0  3  0  0  0  0  0  0
  -25.8270  -32.4760   23.7550 C   0  0  0  0  0  3  0  0  0  0  0  0
  -26.3540  -31.6790   25.0110 C   0  0  1  0  0  0  0  0  0  0  0  0
  -25.2730  -31.4350   26.0910 C   0  0  0  0  0  1  0  0  0  0  0  0
  -26.9160  -30.3030   24.5860 C   0  0  0  0  0  1  0  0  0  0  0  0
  -27.5200  -32.4500   25.6700 C   0  0  0  0  0  1  0  0  0  0  0  0
  -25.5440  -33.8740   24.1080 N   0  0  0  0  0  0  0  0  0  0  0  0
  -25.8920  -34.9300   23.3610 C   0  0  0  0  0  0  0  0  0  0  0  0
  -26.5540  -34.8300   22.3250 O   0  0  0  0  0  0  0  0  0  0  0  0
  -24.9560  -34.0280   24.9140 H   0  0  0  0  0  0  0  0  0  0  0  0
  -24.2060  -36.7650   23.0200 C   0  0  0  0  0  1  0  0  0  0  0  0
  -25.4280  -36.3200   23.8400 C   0  0  0  0  0  3  0  0  0  0  0  0
  -27.5650  -37.1460   24.7200 C   0  0  0  0  0  1  0  0  0  0  0  0
  -26.4840  -37.3520   23.7600 N   0  0  0  0  0  0  0  0  0  0  0  0
  -26.0950  -38.2780   23.9130 H   0  0  0  0  0  0  0  0  0  0  0  0
  2  1  2  0
  2 48  1  0
  3  7  1  0
  5  3  2  0
  5  8  1  0
  6  4  1  0
  7  1  1  0
  7  4  2  0
  8  6  2  0
  9 17  1  0
 10 15  1  0
 11 12  1  0
 11 10  1  0
 13 12  1  0
 13 22  1  0
 13 14  1  0
 15  9  1  0
 15 14  1  0
 16  9  2  0
 17  8  1  0
 17 18  1  0
 19 20  2  0
 20 39  1  0
 21 20  1  0
 21 24  1  0
 22 23  1  0
 22 19  1  0
 23 21  2  0
 24 25  1  0
 25 26  2  0
 27 30  1  0
 27 26  1  0
 28 27  2  0
 29 28  1  0
 29 24  2  0
 30 31  1  0
 31 32  1  0
 32 33  2  0
 34 33  1  0
 34 38  1  0
 35 34  2  0
 36 31  2  0
 36 35  1  0
 37 36  1  0
 39 40  1  0
 40 43  1  0
 40 42  1  0
 41 39  2  0
 44 19  1  0
 44 45  1  0
 46 44  1  0
 47 50  1  0
 47 48  2  0
 48 49  1  0
 51 53  1  0
 51 50  1  0
 52 63  2  0
 53 58  1  0
 54 62  1  0
 54 64  1  0
 55 61  1  0
 55 57  1  0
 56 62  1  0
 57 56  1  0
 58 57  2  0
 59 60  1  0
 59 53  2  0
 60 55  2  0
 61 54  1  0
 62 52  1  0
 64 66  2  0
 65 64  1  0
 67 65  1  0
 68 77  2  0
 68 73  1  0
 69 65  1  0
 69 73  1  0
 70 69  1  0
 71 72  1  0
 71 70  1  0
 72 68  1  0
 73 74  2  0
 74 75  1  0
 76 75  2  0
 77 76  1  0
 78 52  1  0
 78 83  1  0
 78 79  1  0
 79 82  1  1
 79 80  1  0
 81 79  1  0
 83 86  1  0
 84 88  1  0
 84 83  1  0
 85 84  2  0
 88 87  1  0
 90 88  1  0
 90 91  1  0
 90 89  1  0
M  ISO  4   9 100  17 100  50 101  51 101
M  END
>  <TORSDO>  (65) 
F 19

>  <SCORE>  (65) 
-13.912

>  <name>  (65) 
64

>  <ligand_id>  (65) 
64

>  <original_smiles>  (65) 
[H]C(=C([H])c1c([H])c([H])c(N([H])C(=O)N2C([H])([H])C([H])([H])C([H])([H])C([H])(n3nc(-c4c([H])c([H])c(Oc5c([H])c([H])c(F)c([H])c5F)c([H])c4[H])c(C(=O)N([H])[H])c3N([H])[H])C2([H])[H])c([H])c1[H])C(=C([H])C([H])([H])Oc1c([H])c([H])c2c(c1[H])C([H])([H])N(C(=O)C([H])(N([H])C(=O)C([H])(N([H])C([H])([H])[H])C([H])([H])[H])C(C([H])([H])[H])(C([H])([H])[H])C([H])([H])[H])C([H])(C(=O)N([H])C1([H])c3c([H])c([H])c([H])c([H])c3C([H])([H])C([H])([H])C1([H])[H])C2([H])[H])C([H])([H])[H]

>  <smiles>  (65) 
[H]C(=C([H])c1c([H])c([H])c(N([H])C(=O)N2C([H])([H])C([H])([H])C([H])([H])C([H])(n3nc(-c4c([H])c([H])c(Oc5c([H])c([H])c(F)c([H])c5F)c([H])c4[H])c(C(=O)N([H])[H])c3N([H])[H])C2([H])[H])c([H])c1[H])C(=C([H])C([H])([H])Oc1c([H])c([H])c2c(c1[H])C([H])([H])N(C(=O)C([H])(N([H])C(=O)C([H])(N([H])C([H])([H])[H])C([H])([H])[H])C(C([H])([H])[H])(C([H])([H])[H])C([H])([H])[H])C([H])(C(=O)N([H])C1([H])c3c([H])c([H])c([H])c([H])c3C([H])([H])C([H])([H])C1([H])[H])C2([H])[H])C([H])([H])[H]

$$$$
65:0:0
     RDKit          3D

 91 99  0  0  1  0  0  0  0  0999 V2000
  -28.6730  -19.7410   19.5590 C   0  0  0  0  0  3  0  0  0  0  0  0
  -30.5670  -18.7980   21.3130 C   0  0  0  0  0  3  0  0  0  0  0  0
  -29.2980  -20.7870   20.3160 C   0  0  0  0  0  0  0  0  0  0  0  0
  -28.9230  -18.3170   19.6650 C   0  0  0  0  0  0  0  0  0  0  0  0
  -30.3050  -20.2350   21.1870 C   0  0  0  0  0  0  0  0  0  0  0  0
  -29.8790  -17.7630   20.5850 C   0  0  0  0  0  0  0  0  0  0  0  0
  -31.1340  -21.1930   22.0270 C   0  0  0  0  0  1  0  0  0  0  0  0
  -30.7580  -15.1650   20.6930 C   0  0  0  0  0  0  0  0  0  0  0  0
  -30.7230  -12.8090   19.7800 C   0  0  0  0  0  2  0  0  0  0  0  0
  -29.8380  -12.7750   18.5120 C   0  0  0  0  0  2  0  0  0  0  0  0
  -28.3570  -12.5500   18.8770 C   0  0  0  0  0  2  0  0  0  0  0  0
  -27.8930  -13.4590   20.0430 C   0  0  0  0  0  3  0  0  0  0  0  0
  -28.9040  -13.4730   21.2110 C   0  0  0  0  0  2  0  0  0  0  0  0
  -30.2060  -13.8870   20.6640 N   0  0  0  0  0  0  0  0  0  0  0  0
  -31.9530  -15.2910   20.4060 O   0  0  0  0  0  0  0  0  0  0  0  0
  -29.9020  -16.2660   20.8960 N   0  0  0  0  0  0  0  0  0  0  0  0
  -28.9810  -15.9240   21.1190 H   0  0  0  0  0  0  0  0  0  0  0  0
  -25.4790  -14.0190   20.6860 C   0  0  0  0  0  0  0  0  0  0  0  0
  -24.4030  -13.2350   21.0050 C   0  0  0  0  0  0  0  0  0  0  0  0
  -24.8770  -11.8870   20.9820 C   0  0  0  0  0  0  0  0  0  0  0  0
  -26.5360  -13.1490   20.4810 N   0  0  0  0  0  0  0  0  0  0  0  0
  -26.1790  -11.8600   20.7210 N   0  0  0  0  0  0  0  0  0  0  0  0
  -24.1490  -10.6200   21.1330 C   0  0  0  0  0  0  0  0  0  0  0  0
  -24.5400   -9.6510   22.0840 C   0  0  0  0  0  3  0  0  0  0  0  0
  -23.8140   -8.4500   22.2230 C   0  0  0  0  0  3  0  0  0  0  0  0
  -22.6810   -8.2050   21.4100 C   0  0  0  0  0  0  0  0  0  0  0  0
  -22.3080   -9.1630   20.4500 C   0  0  0  0  0  3  0  0  0  0  0  0
  -23.0340  -10.3570   20.3100 C   0  0  0  0  0  3  0  0  0  0  0  0
  -21.9280   -7.0580   21.4590 O   0  0  0  0  0  0  0  0  0  0  0  0
  -21.8110   -6.3230   22.6120 C   0  0  0  0  0  0  0  0  0  0  0  0
  -21.2500   -6.8670   23.7870 C   0  0  0  0  0  3  0  0  0  0  0  0
  -21.0870   -6.0570   24.9300 C   0  0  0  0  0  3  0  0  0  0  0  0
  -21.4710   -4.7030   24.8930 C   0  0  0  0  0  0  0  0  0  0  0  0
  -22.0230   -4.1580   23.7210 C   0  0  0  0  0  3  0  0  0  0  0  0
  -22.1900   -4.9670   22.5830 C   0  0  0  0  0  0  0  0  0  0  0  0
  -22.7030   -4.4330   21.4490 F   0  0  0  0  0  0  0  0  0  0  0  0
  -21.3070   -3.9210   25.9870 F   0  0  0  0  0  0  0  0  0  0  0  0
  -22.9940  -13.7060   21.2210 C   0  0  0  0  0  0  0  0  0  0  0  0
  -22.2350  -13.0050   22.0580 N   0  0  0  0  0  0  0  0  0  0  0  0
  -22.5710  -14.7280   20.6840 O   0  0  0  0  0  0  0  0  0  0  0  0
  -22.5850  -12.1780   22.5180 H   0  0  0  0  0  0  0  0  0  0  0  0
  -21.2850  -13.3010   22.2370 H   0  0  0  0  0  0  0  0  0  0  0  0
  -25.6380  -15.3910   20.5280 N   0  0  0  0  0  0  0  0  0  0  0  0
  -24.8530  -16.0280   20.6050 H   0  0  0  0  0  0  0  0  0  0  0  0
  -26.4710  -15.8400   20.1680 H   0  0  0  0  0  0  0  0  0  0  0  0
  -26.9590  -17.6390   18.2230 C   0  0  0  0  0  2  0  0  0  0  0  0
  -28.1220  -17.3790   18.8460 C   0  0  0  0  0  3  0  0  0  0  0  0
  -28.7700  -22.2850   20.0980 C   0  0  0  0  0  3  0  0  0  0  0  0
  -28.8770  -23.5960   20.6130 C   0  0  0  0  0  3  0  0  0  0  0  0
  -28.0140  -24.9060   20.1410 C   0  0  0  0  0  2  0  0  0  0  0  0
  -28.3470  -26.3970   20.3920 O   0  0  0  0  0  0  0  0  0  0  0  0
  -24.6460  -32.0200   23.3470 C   0  0  0  0  0  0  0  0  0  0  0  0
  -27.2960  -27.3780   20.3010 C   0  0  0  0  0  0  0  0  0  0  0  0
  -23.4690  -30.6160   21.6960 C   0  0  0  0  0  3  0  0  0  0  0  0
  -24.9480  -29.0890   20.2560 C   0  0  0  0  0  0  0  0  0  0  0  0
  -26.0200  -30.9230   21.5500 C   0  0  0  0  0  2  0  0  0  0  0  0
  -26.1140  -29.5410   20.8860 C   0  0  0  0  0  0  0  0  0  0  0  0
  -27.2870  -28.6990   20.9010 C   0  0  0  0  0  3  0  0  0  0  0  0
  -26.1050  -27.0340   19.6180 C   0  0  0  0  0  3  0  0  0  0  0  0
  -24.9580  -27.8500   19.6040 C   0  0  0  0  0  3  0  0  0  0  0  0
  -23.7050  -29.9620   20.3090 C   0  0  0  0  0  2  0  0  0  0  0  0
  -24.7290  -31.2090   22.2500 N   0  0  0  0  0  0  0  0  0  0  0  0
  -23.5550  -32.2860   23.8750 O   0  0  0  0  0  0  0  0  0  0  0  0
  -22.8070  -29.5880   22.6460 C   0  0  0  0  0  0  0  0  0  0  0  0
  -21.4870  -29.3790   22.4970 N   0  0  0  0  0  0  0  0  0  0  0  0
  -23.4840  -28.9830   23.4810 O   0  0  0  0  0  0  0  0  0  0  0  0
  -20.9990  -29.9150   21.7940 H   0  0  0  0  0  0  0  0  0  0  0  0
  -18.1280  -28.1010   22.9540 C   0  0  0  0  0  0  0  0  0  0  0  0
  -20.6770  -28.4220   23.2570 C   0  0  0  0  0  3  0  0  0  0  0  0
  -20.8210  -26.9940   22.6820 C   0  0  0  0  0  2  0  0  0  0  0  0
  -19.7410  -26.6440   21.6550 C   0  0  0  0  0  2  0  0  0  0  0  0
  -18.3460  -26.7580   22.2770 C   0  0  0  0  0  2  0  0  0  0  0  0
  -19.2230  -28.8890   23.3980 C   0  0  0  0  0  0  0  0  0  0  0  0
  -18.9680  -30.1460   23.9890 C   0  0  0  0  0  3  0  0  0  0  0  0
  -17.6500  -30.6150   24.1410 C   0  0  0  0  0  3  0  0  0  0  0  0
  -16.5680  -29.8230   23.7190 C   0  0  0  0  0  3  0  0  0  0  0  0
  -16.8080  -28.5680   23.1300 C   0  0  0  0  0  3  0  0  0  0  0  0
  -25.9160  -32.6680   23.9800 C   0  0  0  0  0  3  0  0  0  0  0  0
  -26.4090  -31.9260   25.2820 C   0  0  1  0  0  0  0  0  0  0  0  0
  -25.2920  -31.6940   26.3270 C   0  0  0  0  0  1  0  0  0  0  0  0
  -27.0220  -30.5510   24.9390 C   0  0  0  0  0  1  0  0  0  0  0  0
  -27.5370  -32.7460   25.9550 C   0  0  0  0  0  1  0  0  0  0  0  0
  -25.6020  -34.0730   24.2780 N   0  0  0  0  0  0  0  0  0  0  0  0
  -25.9220  -35.1090   23.4930 C   0  0  0  0  0  0  0  0  0  0  0  0
  -26.5880  -34.9860   22.4610 O   0  0  0  0  0  0  0  0  0  0  0  0
  -25.0210  -34.2460   25.0860 H   0  0  0  0  0  0  0  0  0  0  0  0
  -24.1780  -36.8780   23.1100 C   0  0  0  0  0  1  0  0  0  0  0  0
  -25.4270  -36.5050   23.9230 C   0  0  0  0  0  3  0  0  0  0  0  0
  -27.5530  -37.4230   24.7350 C   0  0  0  0  0  1  0  0  0  0  0  0
  -26.4520  -37.5630   23.7830 N   0  0  0  0  0  0  0  0  0  0  0  0
  -26.0390  -38.4820   23.9100 H   0  0  0  0  0  0  0  0  0  0  0  0
  1  4  2  0
  1  3  1  0
  3  5  2  0
  4  6  1  0
  5  2  1  0
  5  7  1  0
  6 16  1  0
  6  2  2  0
  8 16  1  0
  9 14  1  0
 10 11  1  0
 10  9  1  0
 12 11  1  0
 12 21  1  0
 12 13  1  0
 14  8  1  0
 14 13  1  0
 15  8  2  0
 16 17  1  0
 18 19  2  0
 19 38  1  0
 20 19  1  0
 20 23  1  0
 21 18  1  0
 21 22  1  0
 22 20  2  0
 23 24  1  0
 24 25  2  0
 26 29  1  0
 26 25  1  0
 27 26  2  0
 28 27  1  0
 28 23  2  0
 29 30  1  0
 30 31  1  0
 31 32  2  0
 33 32  1  0
 33 37  1  0
 34 33  2  0
 35 30  2  0
 35 34  1  0
 36 35  1  0
 38 39  1  0
 39 42  1  0
 39 41  1  0
 40 38  2  0
 43 44  1  0
 43 18  1  0
 45 43  1  0
 46 47  2  0
 47  4  1  0
 48  3  1  0
 48 49  2  0
 50 51  1  0
 50 49  1  0
 52 63  2  0
 53 51  1  0
 53 58  1  0
 54 62  1  0
 54 64  1  0
 55 61  1  0
 55 57  1  0
 56 62  1  0
 57 58  2  0
 57 56  1  0
 59 53  2  0
 60 59  1  0
 60 55  2  0
 61 54  1  0
 62 52  1  0
 64 66  2  0
 65 64  1  0
 67 65  1  0
 68 77  2  0
 68 73  1  0
 69 65  1  0
 69 73  1  0
 70 69  1  0
 71 72  1  0
 71 70  1  0
 72 68  1  0
 73 74  2  0
 74 75  1  0
 76 75  2  0
 77 76  1  0
 78 52  1  0
 78 83  1  0
 78 79  1  0
 79 82  1  1
 79 80  1  0
 81 79  1  0
 83 86  1  0
 84 88  1  0
 84 83  1  0
 85 84  2  0
 88 87  1  0
 90 91  1  0
 90 88  1  0
 90 89  1  0
M  ISO  4   8 100  16 100  50 101  51 101
M  END
>  <TORSDO>  (66) 
F 19

>  <SCORE>  (66) 
-13.597

>  <name>  (66) 
65

>  <ligand_id>  (66) 
65

>  <original_smiles>  (66) 
[H]C([H])=C([H])c1c([H])c(C([H])=C([H])C([H])([H])Oc2c([H])c([H])c3c(c2[H])C([H])([H])N(C(=O)C([H])(N([H])C(=O)C([H])(N([H])C([H])([H])[H])C([H])([H])[H])C(C([H])([H])[H])(C([H])([H])[H])C([H])([H])[H])C([H])(C(=O)N([H])C2([H])c4c([H])c([H])c([H])c([H])c4C([H])([H])C([H])([H])C2([H])[H])C3([H])[H])c(C([H])([H])[H])c([H])c1N([H])C(=O)N1C([H])([H])C([H])([H])C([H])([H])C([H])(n2nc(-c3c([H])c([H])c(Oc4c([H])c([H])c(F)c([H])c4F)c([H])c3[H])c(C(=O)N([H])[H])c2N([H])[H])C1([H])[H]

>  <smiles>  (66) 
[H]C([H])=C([H])c1c([H])c(C([H])=C([H])C([H])([H])Oc2c([H])c([H])c3c(c2[H])C([H])([H])N(C(=O)C([H])(N([H])C(=O)C([H])(N([H])C([H])([H])[H])C([H])([H])[H])C(C([H])([H])[H])(C([H])([H])[H])C([H])([H])[H])C([H])(C(=O)N([H])C2([H])c4c([H])c([H])c([H])c([H])c4C([H])([H])C([H])([H])C2([H])[H])C3([H])[H])c(C([H])([H])[H])c([H])c1N([H])C(=O)N1C([H])([H])C([H])([H])C([H])([H])C([H])(n2nc(-c3c([H])c([H])c(Oc4c([H])c([H])c(F)c([H])c4F)c([H])c3[H])c(C(=O)N([H])[H])c2N([H])[H])C1([H])[H]

$$$$
66:0:0
     RDKit          3D

 91 99  0  0  1  0  0  0  0  0999 V2000
  -29.4230  -19.5860   18.2350 C   0  0  0  0  0  3  0  0  0  0  0  0
  -29.6220  -17.1740   18.5950 C   0  0  0  0  0  3  0  0  0  0  0  0
  -30.1180  -18.7200   20.4030 C   0  0  0  0  0  3  0  0  0  0  0  0
  -29.3240  -18.2550   17.7500 C   0  0  0  0  0  0  0  0  0  0  0  0
  -29.7990  -19.8870   19.5730 C   0  0  0  0  0  0  0  0  0  0  0  0
  -30.0350  -17.3320   19.9260 C   0  0  0  0  0  0  0  0  0  0  0  0
  -30.8310  -14.8930   20.1630 C   0  0  0  0  0  0  0  0  0  0  0  0
  -30.4770  -12.6740   19.0600 C   0  0  0  0  0  2  0  0  0  0  0  0
  -29.5290  -12.8960   17.8590 C   0  0  0  0  0  2  0  0  0  0  0  0
  -28.0520  -12.7800   18.3010 C   0  0  0  0  0  2  0  0  0  0  0  0
  -27.7530  -13.5320   19.6270 C   0  0  0  0  0  3  0  0  0  0  0  0
  -28.8570  -13.3570   20.6960 C   0  0  0  0  0  2  0  0  0  0  0  0
  -30.1460  -13.6960   20.0870 N   0  0  0  0  0  0  0  0  0  0  0  0
  -31.9540  -14.9810   19.6610 O   0  0  0  0  0  0  0  0  0  0  0  0
  -30.2150  -16.0390   20.6590 N   0  0  0  0  0  0  0  0  0  0  0  0
  -29.4540  -15.8140   21.2900 H   0  0  0  0  0  0  0  0  0  0  0  0
  -25.3850  -14.0580   20.4570 C   0  0  0  0  0  0  0  0  0  0  0  0
  -24.3420  -13.2550   20.8540 C   0  0  0  0  0  0  0  0  0  0  0  0
  -24.8170  -11.9150   20.7700 C   0  0  0  0  0  0  0  0  0  0  0  0
  -26.4290  -13.1990   20.1610 N   0  0  0  0  0  0  0  0  0  0  0  0
  -26.0950  -11.9030   20.4000 N   0  0  0  0  0  0  0  0  0  0  0  0
  -24.1050  -10.6410   20.9590 C   0  0  0  0  0  0  0  0  0  0  0  0
  -24.5430   -9.6840   21.9000 C   0  0  0  0  0  3  0  0  0  0  0  0
  -23.8330   -8.4770   22.0790 C   0  0  0  0  0  3  0  0  0  0  0  0
  -22.6710   -8.2160   21.3160 C   0  0  0  0  0  0  0  0  0  0  0  0
  -22.2460   -9.1630   20.3670 C   0  0  0  0  0  3  0  0  0  0  0  0
  -22.9580  -10.3610   20.1860 C   0  0  0  0  0  3  0  0  0  0  0  0
  -21.9300   -7.0590   21.4100 O   0  0  0  0  0  0  0  0  0  0  0  0
  -21.8460   -6.3490   22.5850 C   0  0  0  0  0  0  0  0  0  0  0  0
  -21.3310   -6.9120   23.7740 C   0  0  0  0  0  3  0  0  0  0  0  0
  -21.1890   -6.1210   24.9310 C   0  0  0  0  0  3  0  0  0  0  0  0
  -21.5610   -4.7650   24.9030 C   0  0  0  0  0  0  0  0  0  0  0  0
  -22.0680   -4.1950   23.7230 C   0  0  0  0  0  3  0  0  0  0  0  0
  -22.2060   -4.9850   22.5670 C   0  0  0  0  0  0  0  0  0  0  0  0
  -22.6740   -4.4230   21.4300 F   0  0  0  0  0  0  0  0  0  0  0  0
  -21.4230   -4.0060   26.0130 F   0  0  0  0  0  0  0  0  0  0  0  0
  -22.9560  -13.7130   21.1960 C   0  0  0  0  0  0  0  0  0  0  0  0
  -22.2760  -12.9950   22.0870 N   0  0  0  0  0  0  0  0  0  0  0  0
  -22.4810  -14.7330   20.7060 O   0  0  0  0  0  0  0  0  0  0  0  0
  -22.6710  -12.1740   22.5180 H   0  0  0  0  0  0  0  0  0  0  0  0
  -21.3470  -13.2870   22.3540 H   0  0  0  0  0  0  0  0  0  0  0  0
  -25.5110  -15.4320   20.3040 N   0  0  0  0  0  0  0  0  0  0  0  0
  -24.6920  -16.0220   20.3590 H   0  0  0  0  0  0  0  0  0  0  0  0
  -26.2830  -15.8760   19.8200 H   0  0  0  0  0  0  0  0  0  0  0  0
  -28.6910  -18.7750   15.3490 C   0  0  0  0  0  2  0  0  0  0  0  0
  -28.9350  -17.9240   16.3630 C   0  0  0  0  0  3  0  0  0  0  0  0
  -30.0210  -21.4060   19.8510 C   0  0  0  0  0  3  0  0  0  0  0  0
  -29.1970  -22.4180   20.3500 C   0  0  0  0  0  3  0  0  0  0  0  0
  -29.5160  -23.9810   20.5190 C   0  0  0  0  0  3  0  0  0  0  0  0
  -28.2880  -25.0460   20.7200 C   0  0  0  0  0  3  0  0  0  0  0  0
  -28.4740  -26.5470   20.6130 O   0  0  0  0  0  0  0  0  0  0  0  0
  -24.5920  -32.0510   23.4550 C   0  0  0  0  0  0  0  0  0  0  0  0
  -27.3520  -27.4190   20.5580 C   0  0  0  0  0  0  0  0  0  0  0  0
  -23.4610  -30.6280   21.7890 C   0  0  0  0  0  3  0  0  0  0  0  0
  -24.9760  -29.0550   20.4490 C   0  0  0  0  0  0  0  0  0  0  0  0
  -26.0070  -30.9350   21.7110 C   0  0  0  0  0  2  0  0  0  0  0  0
  -26.1210  -29.5440   21.0900 C   0  0  0  0  0  0  0  0  0  0  0  0
  -27.3070  -28.7380   21.1340 C   0  0  0  0  0  3  0  0  0  0  0  0
  -26.1880  -27.0180   19.8670 C   0  0  0  0  0  3  0  0  0  0  0  0
  -25.0230  -27.8030   19.8200 C   0  0  0  0  0  3  0  0  0  0  0  0
  -23.7320  -29.9240   20.4310 C   0  0  0  0  0  2  0  0  0  0  0  0
  -24.7050  -31.2230   22.3770 N   0  0  0  0  0  0  0  0  0  0  0  0
  -23.4850  -32.3310   23.9370 O   0  0  0  0  0  0  0  0  0  0  0  0
  -22.7620  -29.6280   22.7340 C   0  0  0  0  0  0  0  0  0  0  0  0
  -21.4460  -29.4290   22.5340 N   0  0  0  0  0  0  0  0  0  0  0  0
  -23.4060  -29.0310   23.6020 O   0  0  0  0  0  0  0  0  0  0  0  0
  -20.9840  -29.9950   21.8380 H   0  0  0  0  0  0  0  0  0  0  0  0
  -18.0690  -28.1340   22.8420 C   0  0  0  0  0  0  0  0  0  0  0  0
  -20.5990  -28.4690   23.2450 C   0  0  0  0  0  3  0  0  0  0  0  0
  -20.7860  -27.0460   22.6590 C   0  0  0  0  0  2  0  0  0  0  0  0
  -19.7200  -26.6590   21.6310 C   0  0  0  0  0  2  0  0  0  0  0  0
  -18.3250  -26.7560   22.2480 C   0  0  0  0  0  2  0  0  0  0  0  0
  -19.1410  -28.9390   23.3120 C   0  0  0  0  0  0  0  0  0  0  0  0
  -18.8540  -30.2100   23.8510 C   0  0  0  0  0  3  0  0  0  0  0  0
  -17.5320  -30.6830   23.9160 C   0  0  0  0  0  3  0  0  0  0  0  0
  -16.4710  -29.8820   23.4620 C   0  0  0  0  0  3  0  0  0  0  0  0
  -16.7420  -28.6050   22.9340 C   0  0  0  0  0  3  0  0  0  0  0  0
  -25.8480  -32.6920   24.1290 C   0  0  0  0  0  3  0  0  0  0  0  0
  -26.2770  -31.9630   25.4590 C   0  0  1  0  0  0  0  0  0  0  0  0
  -25.1090  -31.7410   26.4500 C   0  0  0  0  0  1  0  0  0  0  0  0
  -26.8980  -30.5810   25.1510 C   0  0  0  0  0  1  0  0  0  0  0  0
  -27.3660  -32.7880   26.1790 C   0  0  0  0  0  1  0  0  0  0  0  0
  -25.5330  -34.1030   24.3960 N   0  0  0  0  0  0  0  0  0  0  0  0
  -25.9000  -35.1260   23.6100 C   0  0  0  0  0  0  0  0  0  0  0  0
  -26.6060  -34.9820   22.6090 O   0  0  0  0  0  0  0  0  0  0  0  0
  -24.9020  -34.2870   25.1600 H   0  0  0  0  0  0  0  0  0  0  0  0
  -24.1830  -36.9050   23.1370 C   0  0  0  0  0  1  0  0  0  0  0  0
  -25.4010  -36.5340   23.9970 C   0  0  0  0  0  3  0  0  0  0  0  0
  -27.5130  -37.4510   24.8510 C   0  0  0  0  0  1  0  0  0  0  0  0
  -26.4410  -37.5810   23.8690 N   0  0  0  0  0  0  0  0  0  0  0  0
  -26.0330  -38.5070   23.9660 H   0  0  0  0  0  0  0  0  0  0  0  0
  1  5  1  0
  2  6  2  0
  4  1  2  0
  4  2  1  0
  5 47  1  0
  5  3  2  0
  6  3  1  0
  6 15  1  0
  7 15  1  0
  8 13  1  0
  9 10  1  0
  9  8  1  0
 11 10  1  0
 11 20  1  0
 11 12  1  0
 13  7  1  0
 13 12  1  0
 14  7  2  0
 15 16  1  0
 17 18  2  0
 18 37  1  0
 19 18  1  0
 19 22  1  0
 20 21  1  0
 20 17  1  0
 21 19  2  0
 22 23  1  0
 23 24  2  0
 25 28  1  0
 25 24  1  0
 26 25  2  0
 27 26  1  0
 27 22  2  0
 28 29  1  0
 29 30  1  0
 30 31  2  0
 32 31  1  0
 32 36  1  0
 33 32  2  0
 34 29  2  0
 34 33  1  0
 35 34  1  0
 37 38  1  0
 38 41  1  0
 38 40  1  0
 39 37  2  0
 42 43  1  0
 42 17  1  0
 44 42  1  0
 45 46  2  0
 46  4  1  0
 47 48  2  0
 48 49  1  0
 49 50  2  0
 51 50  1  0
 52 63  2  0
 53 51  1  0
 53 58  1  0
 54 62  1  0
 54 64  1  0
 55 57  1  0
 56 62  1  0
 57 58  2  0
 57 56  1  0
 59 53  2  0
 60 59  1  0
 60 55  2  0
 61 55  1  0
 61 54  1  0
 62 52  1  0
 64 66  2  0
 65 64  1  0
 67 65  1  0
 68 77  2  0
 68 73  1  0
 69 65  1  0
 69 73  1  0
 70 69  1  0
 71 72  1  0
 71 70  1  0
 72 68  1  0
 73 74  2  0
 74 75  1  0
 76 75  2  0
 77 76  1  0
 78 52  1  0
 78 83  1  0
 78 79  1  0
 79 82  1  1
 79 80  1  0
 81 79  1  0
 83 86  1  0
 84 88  1  0
 84 83  1  0
 85 84  2  0
 88 87  1  0
 90 91  1  0
 90 88  1  0
 90 89  1  0
M  ISO  4   7 100  15 100  50 101  51 101
M  END
>  <TORSDO>  (67) 
F 20

>  <SCORE>  (67) 
-12.662

>  <name>  (67) 
66

>  <ligand_id>  (67) 
66

>  <original_smiles>  (67) 
[H]C([H])=C([H])c1c([H])c(C([H])=C([H])C([H])([H])C([H])([H])Oc2c([H])c([H])c3c(c2[H])C([H])([H])N(C(=O)C([H])(N([H])C(=O)C([H])(N([H])C([H])([H])[H])C([H])([H])[H])C(C([H])([H])[H])(C([H])([H])[H])C([H])([H])[H])C([H])(C(=O)N([H])C2([H])c4c([H])c([H])c([H])c([H])c4C([H])([H])C([H])([H])C2([H])[H])C3([H])[H])c([H])c(N([H])C(=O)N2C([H])([H])C([H])([H])C([H])([H])C([H])(n3nc(-c4c([H])c([H])c(Oc5c([H])c([H])c(F)c([H])c5F)c([H])c4[H])c(C(=O)N([H])[H])c3N([H])[H])C2([H])[H])c1[H]

>  <smiles>  (67) 
[H]C([H])=C([H])c1c([H])c(C([H])=C([H])C([H])([H])C([H])([H])Oc2c([H])c([H])c3c(c2[H])C([H])([H])N(C(=O)C([H])(N([H])C(=O)C([H])(N([H])C([H])([H])[H])C([H])([H])[H])C(C([H])([H])[H])(C([H])([H])[H])C([H])([H])[H])C([H])(C(=O)N([H])C2([H])c4c([H])c([H])c([H])c([H])c4C([H])([H])C([H])([H])C2([H])[H])C3([H])[H])c([H])c(N([H])C(=O)N2C([H])([H])C([H])([H])C([H])([H])C([H])(n3nc(-c4c([H])c([H])c(Oc5c([H])c([H])c(F)c([H])c5F)c([H])c4[H])c(C(=O)N([H])[H])c3N([H])[H])C2([H])[H])c1[H]

$$$$
67:0:0
     RDKit          3D

 93101  0  0  1  0  0  0  0  0999 V2000
  -28.6950  -20.5000   20.2200 C   0  0  0  0  0  0  0  0  0  0  0  0
  -27.5290  -20.5300   20.7130 N   0  0  0  0  0  0  0  0  0  0  0  0
  -27.2740  -19.6180   21.0720 H   0  0  0  0  0  0  0  0  0  0  0  0
  -30.7720  -19.2140   20.8760 C   0  0  0  0  0  3  0  0  0  0  0  0
  -31.5380  -18.0330   21.0160 C   0  0  0  0  0  3  0  0  0  0  0  0
  -29.8500  -16.8000   19.7980 C   0  0  0  0  0  3  0  0  0  0  0  0
  -29.5080  -19.2180   20.2330 C   0  0  0  0  0  0  0  0  0  0  0  0
  -29.0720  -17.9750   19.6560 C   0  0  0  0  0  0  0  0  0  0  0  0
  -31.0780  -16.8090   20.4850 C   0  0  0  0  0  0  0  0  0  0  0  0
  -27.7730  -17.8170   18.8710 C   0  0  0  0  0  1  0  0  0  0  0  0
  -32.0140  -14.6390   19.8530 C   0  0  0  0  0  0  0  0  0  0  0  0
  -31.5240  -12.3970   18.9340 C   0  0  0  0  0  2  0  0  0  0  0  0
  -30.5310  -12.4740   17.7620 C   0  0  0  0  0  2  0  0  0  0  0  0
  -29.0850  -12.4170   18.2840 C   0  0  0  0  0  2  0  0  0  0  0  0
  -28.8310  -13.4310   19.4300 C   0  0  0  0  0  3  0  0  0  0  0  0
  -29.9340  -13.3500   20.5080 C   0  0  0  0  0  2  0  0  0  0  0  0
  -31.2420  -13.5160   19.8500 N   0  0  0  0  0  0  0  0  0  0  0  0
  -33.0190  -14.7590   19.1480 O   0  0  0  0  0  0  0  0  0  0  0  0
  -31.7420  -15.5800   20.7710 N   0  0  0  0  0  0  0  0  0  0  0  0
  -32.6290  -15.7920   21.2060 H   0  0  0  0  0  0  0  0  0  0  0  0
  -26.5690  -14.2200   20.3690 C   0  0  0  0  0  0  0  0  0  0  0  0
  -25.4570  -13.5350   20.7800 C   0  0  0  0  0  0  0  0  0  0  0  0
  -25.7720  -12.1480   20.6320 C   0  0  0  0  0  0  0  0  0  0  0  0
  -27.4970  -13.2580   20.0030 N   0  0  0  0  0  0  0  0  0  0  0  0
  -27.0240  -12.0020   20.2160 N   0  0  0  0  0  0  0  0  0  0  0  0
  -24.9360  -10.9550   20.8070 C   0  0  0  0  0  0  0  0  0  0  0  0
  -25.2390   -9.9760   21.7800 C   0  0  0  0  0  3  0  0  0  0  0  0
  -24.4090   -8.8460   21.9410 C   0  0  0  0  0  3  0  0  0  0  0  0
  -23.2610   -8.6860   21.1290 C   0  0  0  0  0  0  0  0  0  0  0  0
  -22.9770   -9.6510   20.1470 C   0  0  0  0  0  3  0  0  0  0  0  0
  -23.8070  -10.7730   19.9830 C   0  0  0  0  0  3  0  0  0  0  0  0
  -22.4130   -7.6060   21.1970 O   0  0  0  0  0  0  0  0  0  0  0  0
  -22.1030   -7.0080   22.3930 C   0  0  0  0  0  0  0  0  0  0  0  0
  -21.4930   -7.7220   23.4460 C   0  0  0  0  0  3  0  0  0  0  0  0
  -21.1290   -7.0530   24.6310 C   0  0  0  0  0  3  0  0  0  0  0  0
  -21.3650   -5.6710   24.7620 C   0  0  0  0  0  0  0  0  0  0  0  0
  -21.9660   -4.9570   23.7110 C   0  0  0  0  0  3  0  0  0  0  0  0
  -22.3330   -5.6240   22.5280 C   0  0  0  0  0  0  0  0  0  0  0  0
  -22.8930   -4.9280   21.5100 F   0  0  0  0  0  0  0  0  0  0  0  0
  -21.0090   -5.0260   25.8970 F   0  0  0  0  0  0  0  0  0  0  0  0
  -24.1430  -14.1290   21.1970 C   0  0  0  0  0  0  0  0  0  0  0  0
  -23.4280  -13.4610   22.0960 N   0  0  0  0  0  0  0  0  0  0  0  0
  -23.7640  -15.2150   20.7640 O   0  0  0  0  0  0  0  0  0  0  0  0
  -23.7520  -12.5800   22.4690 H   0  0  0  0  0  0  0  0  0  0  0  0
  -22.5510  -13.8410   22.4240 H   0  0  0  0  0  0  0  0  0  0  0  0
  -26.8650  -15.5760   20.2570 N   0  0  0  0  0  0  0  0  0  0  0  0
  -26.1930  -16.3040   20.4700 H   0  0  0  0  0  0  0  0  0  0  0  0
  -27.7490  -15.9370   19.9240 H   0  0  0  0  0  0  0  0  0  0  0  0
  -29.1800  -21.7990   19.6610 C   0  0  0  0  0  3  0  0  0  0  0  0
  -29.0200  -22.9880   20.2950 C   0  0  0  0  0  3  0  0  0  0  0  0
  -29.3620  -24.3860   19.7640 C   0  0  0  0  0  2  0  0  0  0  0  0
  -28.5640  -25.4950   20.5060 C   0  0  0  0  0  2  0  0  0  0  0  0
  -28.7540  -26.8420   20.0160 O   0  0  0  0  0  0  0  0  0  0  0  0
  -24.7640  -31.7260   23.3560 C   0  0  0  0  0  0  0  0  0  0  0  0
  -27.6020  -27.6030   20.0150 C   0  0  0  0  0  0  0  0  0  0  0  0
  -23.6420  -30.4380   21.5680 C   0  0  0  0  0  3  0  0  0  0  0  0
  -25.1770  -29.0590   20.0640 C   0  0  0  0  0  0  0  0  0  0  0  0
  -26.1630  -30.8690   21.4790 C   0  0  0  0  0  2  0  0  0  0  0  0
  -26.3040  -29.5580   20.7300 C   0  0  0  0  0  0  0  0  0  0  0  0
  -27.5250  -28.8390   20.7010 C   0  0  0  0  0  3  0  0  0  0  0  0
  -26.4620  -27.1260   19.3380 C   0  0  0  0  0  3  0  0  0  0  0  0
  -25.2530  -27.8440   19.3610 C   0  0  0  0  0  3  0  0  0  0  0  0
  -23.9090  -29.8790   20.1440 C   0  0  0  0  0  2  0  0  0  0  0  0
  -24.8720  -31.0220   22.1950 N   0  0  0  0  0  0  0  0  0  0  0  0
  -23.6620  -31.9300   23.8830 O   0  0  0  0  0  0  0  0  0  0  0  0
  -22.9890  -29.3260   22.4230 C   0  0  0  0  0  0  0  0  0  0  0  0
  -21.6740  -29.1280   22.2440 N   0  0  0  0  0  0  0  0  0  0  0  0
  -23.6660  -28.6480   23.2000 O   0  0  0  0  0  0  0  0  0  0  0  0
  -21.1870  -29.7340   21.5980 H   0  0  0  0  0  0  0  0  0  0  0  0
  -18.3080  -27.8560   22.5810 C   0  0  0  0  0  0  0  0  0  0  0  0
  -20.8590  -28.1120   22.9090 C   0  0  0  0  0  3  0  0  0  0  0  0
  -20.9840  -26.7430   22.1990 C   0  0  0  0  0  2  0  0  0  0  0  0
  -19.8990  -26.5120   21.1430 C   0  0  0  0  0  2  0  0  0  0  0  0
  -18.5080  -26.5800   21.7800 C   0  0  0  0  0  2  0  0  0  0  0  0
  -19.4120  -28.5830   23.0990 C   0  0  0  0  0  0  0  0  0  0  0  0
  -19.1740  -29.7800   23.8060 C   0  0  0  0  0  3  0  0  0  0  0  0
  -17.8630  -30.2520   24.0020 C   0  0  0  0  0  3  0  0  0  0  0  0
  -16.7710  -29.5200   23.5010 C   0  0  0  0  0  3  0  0  0  0  0  0
  -16.9950  -28.3220   22.8000 C   0  0  0  0  0  3  0  0  0  0  0  0
  -26.0170  -32.3330   24.0640 C   0  0  0  0  0  3  0  0  0  0  0  0
  -26.4770  -31.5080   25.3290 C   0  0  1  0  0  0  0  0  0  0  0  0
  -25.3250  -31.1850   26.3090 C   0  0  0  0  0  1  0  0  0  0  0  0
  -27.1270  -30.1700   24.9050 C   0  0  0  0  0  1  0  0  0  0  0  0
  -27.5570  -32.2970   26.1050 C   0  0  0  0  0  1  0  0  0  0  0  0
  -25.6880  -33.7150   24.4380 N   0  0  0  0  0  0  0  0  0  0  0  0
  -26.0530  -34.7980   23.7400 C   0  0  0  0  0  0  0  0  0  0  0  0
  -26.7730  -34.7380   22.7390 O   0  0  0  0  0  0  0  0  0  0  0  0
  -25.0570  -33.8350   25.2160 H   0  0  0  0  0  0  0  0  0  0  0  0
  -24.3380  -36.6000   23.3720 C   0  0  0  0  0  1  0  0  0  0  0  0
  -25.5370  -36.1650   24.2290 C   0  0  0  0  0  3  0  0  0  0  0  0
  -27.6240  -37.0180   25.2030 C   0  0  0  0  0  1  0  0  0  0  0  0
  -26.5710  -37.2240   24.2110 N   0  0  0  0  0  0  0  0  0  0  0  0
  -26.1560  -38.1360   24.3750 H   0  0  0  0  0  0  0  0  0  0  0  0
  1  7  1  0
  1  2  2  0
  2  3  1  0
  4  5  1  0
  6  9  1  0
  7  4  2  0
  8  6  2  0
  8  7  1  0
  9 19  1  0
  9  5  2  0
 10  8  1  0
 11 19  1  0
 12 17  1  0
 13 14  1  0
 13 12  1  0
 15 14  1  0
 15 24  1  0
 15 16  1  0
 17 11  1  0
 17 16  1  0
 18 11  2  0
 19 20  1  0
 21 22  2  0
 22 41  1  0
 23 22  1  0
 23 26  1  0
 24 25  1  0
 24 21  1  0
 25 23  2  0
 26 27  1  0
 27 28  2  0
 29 32  1  0
 29 28  1  0
 30 29  2  0
 31 30  1  0
 31 26  2  0
 32 33  1  0
 33 38  2  0
 33 34  1  0
 34 35  2  0
 35 36  1  0
 36 40  1  0
 37 36  2  0
 38 37  1  0
 39 38  1  0
 41 42  1  0
 42 45  1  0
 42 44  1  0
 43 41  2  0
 46 21  1  0
 46 47  1  0
 48 46  1  0
 49  1  1  0
 49 50  2  0
 51 50  1  0
 51 52  1  0
 53 52  1  0
 54 65  2  0
 55 53  1  0
 55 60  1  0
 56 64  1  0
 56 66  1  0
 57 63  1  0
 57 59  1  0
 58 64  1  0
 59 58  1  0
 60 59  2  0
 61 62  1  0
 61 55  2  0
 62 57  2  0
 63 56  1  0
 64 54  1  0
 66 68  2  0
 67 66  1  0
 69 67  1  0
 70 79  2  0
 70 75  1  0
 71 67  1  0
 71 75  1  0
 72 71  1  0
 73 74  1  0
 73 72  1  0
 74 70  1  0
 75 76  2  0
 76 77  1  0
 78 77  2  0
 79 78  1  0
 80 54  1  0
 80 85  1  0
 80 81  1  0
 81 84  1  1
 81 82  1  0
 83 81  1  0
 85 88  1  0
 86 90  1  0
 86 85  1  0
 87 86  2  0
 90 89  1  0
 92 90  1  0
 92 93  1  0
 92 91  1  0
M  ISO  4  11 100  19 100  52 101  53 101
M  END
>  <TORSDO>  (68) 
F 20

>  <SCORE>  (68) 
-12.198

>  <name>  (68) 
67

>  <ligand_id>  (68) 
67

>  <original_smiles>  (68) 
[H]N=C(C([H])=C([H])C([H])([H])C([H])([H])Oc1c([H])c([H])c2c(c1[H])C([H])([H])N(C(=O)C([H])(N([H])C(=O)C([H])(N([H])C([H])([H])[H])C([H])([H])[H])C(C([H])([H])[H])(C([H])([H])[H])C([H])([H])[H])C([H])(C(=O)N([H])C1([H])c3c([H])c([H])c([H])c([H])c3C([H])([H])C([H])([H])C1([H])[H])C2([H])[H])c1c([H])c([H])c(N([H])C(=O)N2C([H])([H])C([H])([H])C([H])([H])C([H])(n3nc(-c4c([H])c([H])c(Oc5c([H])c([H])c(F)c([H])c5F)c([H])c4[H])c(C(=O)N([H])[H])c3N([H])[H])C2([H])[H])c([H])c1C([H])([H])[H]

>  <smiles>  (68) 
[H]N=C(C([H])=C([H])C([H])([H])C([H])([H])Oc1c([H])c([H])c2c(c1[H])C([H])([H])N(C(=O)C([H])(N([H])C(=O)C([H])(N([H])C([H])([H])[H])C([H])([H])[H])C(C([H])([H])[H])(C([H])([H])[H])C([H])([H])[H])C([H])(C(=O)N([H])C1([H])c3c([H])c([H])c([H])c([H])c3C([H])([H])C([H])([H])C1([H])[H])C2([H])[H])c1c([H])c([H])c(N([H])C(=O)N2C([H])([H])C([H])([H])C([H])([H])C([H])(n3nc(-c4c([H])c([H])c(Oc5c([H])c([H])c(F)c([H])c5F)c([H])c4[H])c(C(=O)N([H])[H])c3N([H])[H])C2([H])[H])c([H])c1C([H])([H])[H]

$$$$
68:0:0
     RDKit          3D

 89 97  0  0  1  0  0  0  0  0999 V2000
  -29.4570  -20.8290   18.6260 C   0  0  0  0  0  3  0  0  0  0  0  0
  -28.7180  -21.7160   19.3260 C   0  0  0  0  0  3  0  0  0  0  0  0
  -30.6150  -17.3630   18.7440 C   0  0  0  0  0  3  0  0  0  0  0  0
  -30.5020  -18.5910   18.0380 C   0  0  0  0  0  3  0  0  0  0  0  0
  -30.0390  -17.5560   19.9700 C   0  0  0  0  0  0  0  0  0  0  0  0
  -29.8510  -19.4670   18.8590 C   0  0  0  0  0  0  0  0  0  0  0  0
  -29.5520  -18.8430   20.0420 O   0  0  0  0  0  0  0  0  0  0  0  0
  -29.8420  -16.7260   21.1290 C   0  0  0  0  0  3  0  0  0  0  0  0
  -30.1190  -15.4310   21.4270 C   0  0  0  0  0  3  0  0  0  0  0  0
  -30.7720  -14.4690   20.5410 C   0  0  0  0  0  0  0  0  0  0  0  0
  -30.4630  -12.3650   19.2780 C   0  0  0  0  0  2  0  0  0  0  0  0
  -29.5190  -12.6110   18.0830 C   0  0  0  0  0  2  0  0  0  0  0  0
  -28.0410  -12.4720   18.5030 C   0  0  0  0  0  2  0  0  0  0  0  0
  -27.7160  -13.2730   19.7900 C   0  0  0  0  0  3  0  0  0  0  0  0
  -28.7590  -12.9780   20.8880 C   0  0  0  0  0  2  0  0  0  0  0  0
  -30.0920  -13.3040   20.3480 N   0  0  0  0  0  0  0  0  0  0  0  0
  -31.8580  -14.6890   19.9940 O   0  0  0  0  0  0  0  0  0  0  0  0
  -25.3150  -13.9060   20.4660 C   0  0  0  0  0  0  0  0  0  0  0  0
  -24.2380  -13.1430   20.8330 C   0  0  0  0  0  0  0  0  0  0  0  0
  -24.6900  -11.7890   20.8200 C   0  0  0  0  0  0  0  0  0  0  0  0
  -26.3560  -13.0150   20.2560 N   0  0  0  0  0  0  0  0  0  0  0  0
  -25.9820  -11.7370   20.5230 N   0  0  0  0  0  0  0  0  0  0  0  0
  -23.9560  -10.5330   21.0180 C   0  0  0  0  0  0  0  0  0  0  0  0
  -24.3850   -9.5660   21.9520 C   0  0  0  0  0  3  0  0  0  0  0  0
  -23.6520   -8.3740   22.1390 C   0  0  0  0  0  3  0  0  0  0  0  0
  -22.4760   -8.1410   21.3870 C   0  0  0  0  0  0  0  0  0  0  0  0
  -22.0650   -9.0960   20.4410 C   0  0  0  0  0  3  0  0  0  0  0  0
  -22.7980  -10.2800   20.2530 C   0  0  0  0  0  3  0  0  0  0  0  0
  -21.7140   -7.0010   21.4800 O   0  0  0  0  0  0  0  0  0  0  0  0
  -21.6690   -6.2570   22.6320 C   0  0  0  0  0  0  0  0  0  0  0  0
  -21.2710   -6.8190   23.8660 C   0  0  0  0  0  3  0  0  0  0  0  0
  -21.1720   -6.0030   25.0100 C   0  0  0  0  0  3  0  0  0  0  0  0
  -21.4600   -4.6280   24.9230 C   0  0  0  0  0  0  0  0  0  0  0  0
  -21.8520   -4.0670   23.6940 C   0  0  0  0  0  3  0  0  0  0  0  0
  -21.9530   -4.8790   22.5520 C   0  0  0  0  0  0  0  0  0  0  0  0
  -22.3090   -4.3300   21.3660 F   0  0  0  0  0  0  0  0  0  0  0  0
  -21.3570   -3.8420   26.0200 F   0  0  0  0  0  0  0  0  0  0  0  0
  -22.8410  -13.6320   21.0930 C   0  0  0  0  0  0  0  0  0  0  0  0
  -22.1060  -12.9470   21.9620 N   0  0  0  0  0  0  0  0  0  0  0  0
  -22.4120  -14.6540   20.5610 O   0  0  0  0  0  0  0  0  0  0  0  0
  -22.4700  -12.1200   22.4130 H   0  0  0  0  0  0  0  0  0  0  0  0
  -21.1680  -13.2540   22.1800 H   0  0  0  0  0  0  0  0  0  0  0  0
  -25.4920  -15.2730   20.2790 N   0  0  0  0  0  0  0  0  0  0  0  0
  -24.7360  -15.9400   20.3830 H   0  0  0  0  0  0  0  0  0  0  0  0
  -26.3610  -15.6990   19.9820 H   0  0  0  0  0  0  0  0  0  0  0  0
  -28.4260  -23.1230   18.8010 C   0  0  0  0  0  2  0  0  0  0  0  0
  -28.4040  -24.2560   19.8540 C   0  0  0  0  0  2  0  0  0  0  0  0
  -28.5890  -25.6500   19.2070 C   0  0  0  0  0  2  0  0  0  0  0  0
  -28.4090  -26.7380   20.1270 O   0  0  0  0  0  0  0  0  0  0  0  0
  -24.5910  -31.8890   23.2300 C   0  0  0  0  0  0  0  0  0  0  0  0
  -27.2140  -27.4300   20.1400 C   0  0  0  0  0  0  0  0  0  0  0  0
  -23.3760  -30.4860   21.5950 C   0  0  0  0  0  3  0  0  0  0  0  0
  -24.8170  -28.9410   20.1730 C   0  0  0  0  0  0  0  0  0  0  0  0
  -25.9020  -30.8360   21.3890 C   0  0  0  0  0  2  0  0  0  0  0  0
  -25.9800  -29.4620   20.7540 C   0  0  0  0  0  0  0  0  0  0  0  0
  -27.1770  -28.7100   20.7400 C   0  0  0  0  0  3  0  0  0  0  0  0
  -26.0200  -26.9130   19.5790 C   0  0  0  0  0  3  0  0  0  0  0  0
  -24.8300  -27.6630   19.5890 C   0  0  0  0  0  3  0  0  0  0  0  0
  -23.5780  -29.8050   20.2160 C   0  0  0  0  0  2  0  0  0  0  0  0
  -24.6420  -31.0850   22.1290 N   0  0  0  0  0  0  0  0  0  0  0  0
  -23.5120  -32.1670   23.7720 O   0  0  0  0  0  0  0  0  0  0  0  0
  -22.7260  -29.4690   22.5600 C   0  0  0  0  0  0  0  0  0  0  0  0
  -21.4000  -29.2910   22.4390 N   0  0  0  0  0  0  0  0  0  0  0  0
  -23.4100  -28.8430   23.3740 O   0  0  0  0  0  0  0  0  0  0  0  0
  -20.9100  -29.8480   21.7550 H   0  0  0  0  0  0  0  0  0  0  0  0
  -18.0240  -28.1100   22.9460 C   0  0  0  0  0  0  0  0  0  0  0  0
  -20.5830  -28.3580   23.2140 C   0  0  0  0  0  3  0  0  0  0  0  0
  -20.6800  -26.9250   22.6420 C   0  0  0  0  0  2  0  0  0  0  0  0
  -19.5750  -26.6040   21.6300 C   0  0  0  0  0  2  0  0  0  0  0  0
  -18.1950  -26.7560   22.2750 C   0  0  0  0  0  2  0  0  0  0  0  0
  -19.1460  -28.8680   23.3720 C   0  0  0  0  0  0  0  0  0  0  0  0
  -18.9340  -30.1340   23.9590 C   0  0  0  0  0  3  0  0  0  0  0  0
  -17.6320  -30.6430   24.1230 C   0  0  0  0  0  3  0  0  0  0  0  0
  -16.5240  -29.8810   23.7130 C   0  0  0  0  0  3  0  0  0  0  0  0
  -16.7210  -28.6160   23.1310 C   0  0  0  0  0  3  0  0  0  0  0  0
  -25.8800  -32.5180   23.8430 C   0  0  0  0  0  3  0  0  0  0  0  0
  -25.5740  -33.9150   24.1780 N   0  0  0  0  0  0  0  0  0  0  0  0
  -25.9060  -34.9680   23.4190 C   0  0  0  0  0  0  0  0  0  0  0  0
  -26.5730  -34.8670   22.3860 O   0  0  0  0  0  0  0  0  0  0  0  0
  -24.9810  -34.0680   24.9800 H   0  0  0  0  0  0  0  0  0  0  0  0
  -24.1780  -36.7620   23.0720 C   0  0  0  0  0  1  0  0  0  0  0  0
  -25.4190  -36.3560   23.8810 C   0  0  0  0  0  3  0  0  0  0  0  0
  -27.5570  -37.2340   24.7110 C   0  0  0  0  0  1  0  0  0  0  0  0
  -26.4530  -37.4080   23.7700 N   0  0  0  0  0  0  0  0  0  0  0  0
  -26.0490  -38.3270   23.9250 H   0  0  0  0  0  0  0  0  0  0  0  0
  -26.4070  -31.7420   25.1120 C   0  0  1  0  0  0  0  0  0  0  0  0
  -25.3250  -31.5010   26.1890 C   0  0  0  0  0  1  0  0  0  0  0  0
  -26.9860  -30.3650   24.7090 C   0  0  0  0  0  1  0  0  0  0  0  0
  -27.5650  -32.5340   25.7660 C   0  0  0  0  0  1  0  0  0  0  0  0
  1  6  1  0
  1  2  2  0
  3  5  2  0
  4  3  1  0
  4  6  2  0
  5  7  1  0
  5  8  1  0
  6  7  1  0
  8  9  2  0
 10  9  1  0
 11 16  1  0
 12 13  1  0
 12 11  1  0
 14 13  1  0
 14 21  1  0
 14 15  1  0
 16 10  1  0
 16 15  1  0
 17 10  2  0
 18 19  2  0
 19 38  1  0
 20 19  1  0
 20 23  1  0
 21 18  1  0
 21 22  1  0
 22 20  2  0
 23 24  1  0
 24 25  2  0
 26 29  1  0
 26 25  1  0
 27 26  2  0
 28 27  1  0
 28 23  2  0
 29 30  1  0
 30 31  1  0
 31 32  2  0
 33 32  1  0
 33 37  1  0
 34 33  2  0
 35 30  2  0
 35 34  1  0
 36 35  1  0
 38 39  1  0
 39 42  1  0
 39 41  1  0
 40 38  2  0
 43 44  1  0
 43 18  1  0
 45 43  1  0
 46  2  1  0
 46 47  1  0
 48 47  1  0
 48 49  1  0
 49 51  1  0
 50 61  2  0
 51 56  1  0
 52 60  1  0
 52 62  1  0
 53 59  1  0
 53 55  1  0
 54 60  1  0
 55 54  1  0
 56 55  2  0
 57 58  1  0
 57 51  2  0
 58 53  2  0
 59 52  1  0
 60 50  1  0
 62 64  2  0
 63 62  1  0
 65 63  1  0
 66 75  2  0
 66 71  1  0
 67 63  1  0
 67 71  1  0
 68 67  1  0
 69 70  1  0
 69 68  1  0
 70 66  1  0
 71 72  2  0
 72 73  1  0
 74 73  2  0
 75 74  1  0
 76 50  1  0
 76 77  1  0
 76 86  1  0
 77 80  1  0
 78 82  1  0
 78 77  1  0
 79 78  2  0
 82 81  1  0
 84 82  1  0
 84 85  1  0
 84 83  1  0
 86 89  1  1
 86 87  1  0
 88 86  1  0
M  ISO  4   9 100  10 100  48 101  49 101
M  END
>  <TORSDO>  (69) 
F 21

>  <SCORE>  (69) 
-13.527

>  <name>  (69) 
68

>  <ligand_id>  (69) 
68

>  <original_smiles>  (69) 
[H]C(C(=O)N1C([H])([H])C([H])([H])C([H])([H])C([H])(n2nc(-c3c([H])c([H])c(Oc4c([H])c([H])c(F)c([H])c4F)c([H])c3[H])c(C(=O)N([H])[H])c2N([H])[H])C1([H])[H])=C([H])c1oc(C([H])=C([H])C([H])([H])C([H])([H])C([H])([H])Oc2c([H])c([H])c3c(c2[H])C([H])([H])N(C(=O)C([H])(N([H])C(=O)C([H])(N([H])C([H])([H])[H])C([H])([H])[H])C(C([H])([H])[H])(C([H])([H])[H])C([H])([H])[H])C([H])(C(=O)N([H])C2([H])c4c([H])c([H])c([H])c([H])c4C([H])([H])C([H])([H])C2([H])[H])C3([H])[H])c([H])c1[H]

>  <smiles>  (69) 
[H]C(C(=O)N1C([H])([H])C([H])([H])C([H])([H])C([H])(n2nc(-c3c([H])c([H])c(Oc4c([H])c([H])c(F)c([H])c4F)c([H])c3[H])c(C(=O)N([H])[H])c2N([H])[H])C1([H])[H])=C([H])c1oc(C([H])=C([H])C([H])([H])C([H])([H])C([H])([H])Oc2c([H])c([H])c3c(c2[H])C([H])([H])N(C(=O)C([H])(N([H])C(=O)C([H])(N([H])C([H])([H])[H])C([H])([H])[H])C(C([H])([H])[H])(C([H])([H])[H])C([H])([H])[H])C([H])(C(=O)N([H])C2([H])c4c([H])c([H])c([H])c([H])c4C([H])([H])C([H])([H])C2([H])[H])C3([H])[H])c([H])c1[H]

$$$$
69:0:0
     RDKit          3D

 93102  0  0  1  0  0  0  0  0999 V2000
  -29.6470  -25.4550   21.3170 C   0  0  0  0  0  0  0  0  0  0  0  0
  -28.9710  -26.5850   21.0460 C   0  0  0  0  0  3  0  0  0  0  0  0
  -30.5500  -25.2670   22.5090 C   0  0  0  0  0  2  0  0  0  0  0  0
  -29.6290  -24.1780   20.5050 C   0  0  0  0  0  2  0  0  0  0  0  0
  -30.9280  -23.7840   22.4970 C   0  0  0  0  0  2  0  0  0  0  0  0
  -30.5440  -23.2630   21.1860 N   0  0  0  0  0  0  0  0  0  0  0  0
  -31.3220  -21.0000   21.7400 C   0  0  0  0  0  3  0  0  0  0  0  0
  -31.2800  -19.6050   21.5570 C   0  0  0  0  0  3  0  0  0  0  0  0
  -29.6810  -21.2880   19.9810 C   0  0  0  0  0  3  0  0  0  0  0  0
  -29.6270  -19.8860   19.8000 C   0  0  0  0  0  0  0  0  0  0  0  0
  -30.5120  -21.8650   20.9690 C   0  0  0  0  0  0  0  0  0  0  0  0
  -30.4150  -19.0270   20.5980 C   0  0  0  0  0  0  0  0  0  0  0  0
  -28.6990  -19.2990   18.7520 C   0  0  0  0  0  1  0  0  0  0  0  0
  -30.2930  -17.6660   20.3950 O   0  0  0  0  0  0  0  0  0  0  0  0
  -30.8590  -16.7810   21.3640 C   0  0  0  0  0  2  0  0  0  0  0  0
  -30.1670  -15.4040   21.3010 C   0  0  0  0  0  2  0  0  0  0  0  0
  -30.6780  -14.4240   20.2280 C   0  0  0  0  0  0  0  0  0  0  0  0
  -30.3180  -12.3400   18.9360 C   0  0  0  0  0  2  0  0  0  0  0  0
  -29.3100  -12.5660   17.7930 C   0  0  0  0  0  2  0  0  0  0  0  0
  -27.8600  -12.4080   18.2940 C   0  0  0  0  0  2  0  0  0  0  0  0
  -27.5870  -13.2150   19.5900 C   0  0  0  0  0  3  0  0  0  0  0  0
  -28.6900  -12.9410   20.6360 C   0  0  0  0  0  2  0  0  0  0  0  0
  -29.9880  -13.2710   20.0240 N   0  0  0  0  0  0  0  0  0  0  0  0
  -31.6940  -14.7050   19.5820 O   0  0  0  0  0  0  0  0  0  0  0  0
  -25.2080  -13.8090   20.3860 C   0  0  0  0  0  0  0  0  0  0  0  0
  -24.1610  -13.0290   20.7990 C   0  0  0  0  0  0  0  0  0  0  0  0
  -24.6320  -11.6810   20.7530 C   0  0  0  0  0  0  0  0  0  0  0  0
  -26.2520  -12.9360   20.1200 N   0  0  0  0  0  0  0  0  0  0  0  0
  -25.9100  -11.6510   20.3930 N   0  0  0  0  0  0  0  0  0  0  0  0
  -23.9260  -10.4130   20.9760 C   0  0  0  0  0  0  0  0  0  0  0  0
  -24.3680   -9.4820   21.9410 C   0  0  0  0  0  3  0  0  0  0  0  0
  -23.6630   -8.2770   22.1500 C   0  0  0  0  0  3  0  0  0  0  0  0
  -22.5020   -7.9950   21.3910 C   0  0  0  0  0  0  0  0  0  0  0  0
  -22.0810   -8.9140   20.4150 C   0  0  0  0  0  3  0  0  0  0  0  0
  -22.7870  -10.1100   20.2050 C   0  0  0  0  0  3  0  0  0  0  0  0
  -21.7680   -6.8390   21.5050 O   0  0  0  0  0  0  0  0  0  0  0  0
  -21.6850   -6.1530   22.6910 C   0  0  0  0  0  0  0  0  0  0  0  0
  -21.1780   -6.7540   23.8640 C   0  0  0  0  0  3  0  0  0  0  0  0
  -21.0460   -5.9930   25.0430 C   0  0  0  0  0  3  0  0  0  0  0  0
  -21.4100   -4.6330   25.0490 C   0  0  0  0  0  0  0  0  0  0  0  0
  -21.9100   -4.0330   23.8800 C   0  0  0  0  0  3  0  0  0  0  0  0
  -22.0440   -4.7910   22.7040 C   0  0  0  0  0  0  0  0  0  0  0  0
  -22.5060   -4.2020   21.5750 F   0  0  0  0  0  0  0  0  0  0  0  0
  -21.2760   -3.9000   26.1790 F   0  0  0  0  0  0  0  0  0  0  0  0
  -22.7720  -13.4940   21.1280 C   0  0  0  0  0  0  0  0  0  0  0  0
  -22.0850  -12.7880   22.0200 N   0  0  0  0  0  0  0  0  0  0  0  0
  -22.3050  -14.5170   20.6300 O   0  0  0  0  0  0  0  0  0  0  0  0
  -22.4760  -11.9610   22.4450 H   0  0  0  0  0  0  0  0  0  0  0  0
  -21.1540  -13.0810   22.2830 H   0  0  0  0  0  0  0  0  0  0  0  0
  -25.3550  -15.1790   20.1980 N   0  0  0  0  0  0  0  0  0  0  0  0
  -24.5920  -15.8320   20.3400 H   0  0  0  0  0  0  0  0  0  0  0  0
  -26.1960  -15.6240   19.8510 H   0  0  0  0  0  0  0  0  0  0  0  0
  -28.1990  -26.7370   19.9250 O   0  0  0  0  0  0  0  0  0  0  0  0
  -24.3580  -31.8570   23.1160 C   0  0  0  0  0  0  0  0  0  0  0  0
  -27.0510  -27.4910   19.9990 C   0  0  0  0  0  0  0  0  0  0  0  0
  -23.1630  -30.4660   21.4520 C   0  0  0  0  0  3  0  0  0  0  0  0
  -24.6320  -28.9510   20.0200 C   0  0  0  0  0  0  0  0  0  0  0  0
  -25.6810  -30.8540   21.2590 C   0  0  0  0  0  2  0  0  0  0  0  0
  -25.7800  -29.4890   20.6130 C   0  0  0  0  0  0  0  0  0  0  0  0
  -26.9930  -28.7700   20.6000 C   0  0  0  0  0  3  0  0  0  0  0  0
  -25.8870  -26.9620   19.4040 C   0  0  0  0  0  3  0  0  0  0  0  0
  -24.6780  -27.6830   19.4130 C   0  0  0  0  0  3  0  0  0  0  0  0
  -23.3790  -29.7960   20.0680 C   0  0  0  0  0  2  0  0  0  0  0  0
  -24.4180  -31.0720   22.0020 N   0  0  0  0  0  0  0  0  0  0  0  0
  -23.2760  -32.1150   23.6580 O   0  0  0  0  0  0  0  0  0  0  0  0
  -22.5160  -29.4320   22.4010 C   0  0  0  0  0  0  0  0  0  0  0  0
  -21.1910  -29.2520   22.2760 N   0  0  0  0  0  0  0  0  0  0  0  0
  -23.2020  -28.7930   23.2030 O   0  0  0  0  0  0  0  0  0  0  0  0
  -20.6990  -29.8210   21.6000 H   0  0  0  0  0  0  0  0  0  0  0  0
  -17.8150  -28.0660   22.7680 C   0  0  0  0  0  0  0  0  0  0  0  0
  -20.3760  -28.3040   23.0320 C   0  0  0  0  0  3  0  0  0  0  0  0
  -20.4680  -26.8840   22.4290 C   0  0  0  0  0  2  0  0  0  0  0  0
  -19.3600  -26.5870   21.4140 C   0  0  0  0  0  2  0  0  0  0  0  0
  -17.9810  -26.7290   22.0670 C   0  0  0  0  0  2  0  0  0  0  0  0
  -18.9400  -28.8140   23.2070 C   0  0  0  0  0  0  0  0  0  0  0  0
  -18.7320  -30.0680   23.8200 C   0  0  0  0  0  3  0  0  0  0  0  0
  -17.4310  -30.5740   24.0000 C   0  0  0  0  0  3  0  0  0  0  0  0
  -16.3200  -29.8220   23.5790 C   0  0  0  0  0  3  0  0  0  0  0  0
  -16.5140  -28.5710   22.9680 C   0  0  0  0  0  3  0  0  0  0  0  0
  -25.6420  -32.4840   23.7460 C   0  0  0  0  0  3  0  0  0  0  0  0
  -26.1700  -31.6910   25.0030 C   0  0  1  0  0  0  0  0  0  0  0  0
  -25.0820  -31.4220   26.0700 C   0  0  0  0  0  1  0  0  0  0  0  0
  -26.7610  -30.3270   24.5770 C   0  0  0  0  0  1  0  0  0  0  0  0
  -27.3160  -32.4800   25.6770 C   0  0  0  0  0  1  0  0  0  0  0  0
  -25.3250  -33.8730   24.1010 N   0  0  0  0  0  0  0  0  0  0  0  0
  -25.6610  -34.9410   23.3630 C   0  0  0  0  0  0  0  0  0  0  0  0
  -26.3380  -34.8580   22.3340 O   0  0  0  0  0  0  0  0  0  0  0  0
  -24.7260  -34.0110   24.9010 H   0  0  0  0  0  0  0  0  0  0  0  0
  -23.9320  -36.7340   23.0170 C   0  0  0  0  0  1  0  0  0  0  0  0
  -25.1620  -36.3170   23.8400 C   0  0  0  0  0  3  0  0  0  0  0  0
  -27.2800  -37.1910   24.7220 C   0  0  0  0  0  1  0  0  0  0  0  0
  -26.1930  -37.3750   23.7650 N   0  0  0  0  0  0  0  0  0  0  0  0
  -25.7810  -38.2910   23.9250 H   0  0  0  0  0  0  0  0  0  0  0  0
  1  3  1  0
  2  1  2  0
  4  6  1  0
  4  1  1  0
  5  3  1  0
  6  5  1  0
  8  7  1  0
  9 11  1  0
 10  9  2  0
 10 12  1  0
 11  6  1  0
 11  7  2  0
 12  8  2  0
 13 10  1  0
 14 12  1  0
 14 15  1  0
 16 15  1  0
 17 16  1  0
 18 23  1  0
 19 20  1  0
 19 18  1  0
 21 20  1  0
 21 28  1  0
 21 22  1  0
 23 17  1  0
 23 22  1  0
 24 17  2  0
 25 26  2  0
 26 45  1  0
 27 26  1  0
 27 30  1  0
 28 25  1  0
 28 29  1  0
 29 27  2  0
 30 31  1  0
 31 32  2  0
 33 36  1  0
 33 32  1  0
 34 33  2  0
 35 34  1  0
 35 30  2  0
 36 37  1  0
 37 42  2  0
 37 38  1  0
 38 39  2  0
 39 40  1  0
 40 44  1  0
 41 40  2  0
 42 41  1  0
 43 42  1  0
 45 46  1  0
 46 49  1  0
 46 48  1  0
 47 45  2  0
 50 51  1  0
 50 25  1  0
 52 50  1  0
 53 55  1  0
 53  2  1  0
 54 65  2  0
 55 60  1  0
 56 64  1  0
 56 66  1  0
 57 63  1  0
 57 59  1  0
 58 64  1  0
 59 58  1  0
 60 59  2  0
 61 62  1  0
 61 55  2  0
 62 57  2  0
 63 56  1  0
 64 54  1  0
 66 68  2  0
 67 66  1  0
 69 67  1  0
 70 79  2  0
 70 75  1  0
 71 67  1  0
 71 75  1  0
 72 71  1  0
 73 74  1  0
 73 72  1  0
 74 70  1  0
 75 76  2  0
 76 77  1  0
 78 77  2  0
 79 78  1  0
 80 54  1  0
 80 85  1  0
 80 81  1  0
 81 84  1  1
 81 82  1  0
 83 81  1  0
 85 88  1  0
 86 90  1  0
 86 85  1  0
 87 86  2  0
 90 89  1  0
 92 90  1  0
 92 93  1  0
 92 91  1  0
M  ISO  4   2 101  16 100  17 100  53 101
M  END
>  <TORSDO>  (70) 
F 20

>  <SCORE>  (70) 
-12.578

>  <name>  (70) 
69

>  <ligand_id>  (70) 
69

>  <original_smiles>  (70) 
[H]C(Oc1c([H])c([H])c2c(c1[H])C([H])([H])N(C(=O)C([H])(N([H])C(=O)C([H])(N([H])C([H])([H])[H])C([H])([H])[H])C(C([H])([H])[H])(C([H])([H])[H])C([H])([H])[H])C([H])(C(=O)N([H])C1([H])c3c([H])c([H])c([H])c([H])c3C([H])([H])C([H])([H])C1([H])[H])C2([H])[H])=C1C([H])([H])N(c2c([H])c([H])c(OC([H])([H])C([H])([H])C(=O)N3C([H])([H])C([H])([H])C([H])([H])C([H])(n4nc(-c5c([H])c([H])c(Oc6c([H])c([H])c(F)c([H])c6F)c([H])c5[H])c(C(=O)N([H])[H])c4N([H])[H])C3([H])[H])c(C([H])([H])[H])c2[H])C([H])([H])C1([H])[H]

>  <smiles>  (70) 
[H]C(Oc1c([H])c([H])c2c(c1[H])C([H])([H])N(C(=O)C([H])(N([H])C(=O)C([H])(N([H])C([H])([H])[H])C([H])([H])[H])C(C([H])([H])[H])(C([H])([H])[H])C([H])([H])[H])C([H])(C(=O)N([H])C1([H])c3c([H])c([H])c([H])c([H])c3C([H])([H])C([H])([H])C1([H])[H])C2([H])[H])=C1C([H])([H])N(c2c([H])c([H])c(OC([H])([H])C([H])([H])C(=O)N3C([H])([H])C([H])([H])C([H])([H])C([H])(n4nc(-c5c([H])c([H])c(Oc6c([H])c([H])c(F)c([H])c6F)c([H])c5[H])c(C(=O)N([H])[H])c4N([H])[H])C3([H])[H])c(C([H])([H])[H])c2[H])C([H])([H])C1([H])[H]

$$$$
70:0:0
     RDKit          3D

 92100  0  0  1  0  0  0  0  0999 V2000
  -31.0000  -19.2660   19.4210 C   0  0  0  0  0  3  0  0  0  0  0  0
  -31.0400  -17.8540   19.5790 C   0  0  0  0  0  3  0  0  0  0  0  0
  -28.9360  -17.9620   20.7430 C   0  0  0  0  0  3  0  0  0  0  0  0
  -29.9410  -20.0760   19.9160 C   0  0  0  0  0  0  0  0  0  0  0  0
  -30.0030  -17.1620   20.2510 C   0  0  0  0  0  0  0  0  0  0  0  0
  -28.8960  -19.3810   20.5930 C   0  0  0  0  0  0  0  0  0  0  0  0
  -30.6690  -14.6950   19.8910 C   0  0  0  0  0  0  0  0  0  0  0  0
  -30.3580  -12.4900   18.8040 C   0  0  0  0  0  2  0  0  0  0  0  0
  -29.3250  -12.6580   17.6680 C   0  0  0  0  0  2  0  0  0  0  0  0
  -27.8870  -12.5020   18.2050 C   0  0  0  0  0  2  0  0  0  0  0  0
  -27.6330  -13.3400   19.4850 C   0  0  0  0  0  3  0  0  0  0  0  0
  -28.7700  -13.1440   20.5130 C   0  0  0  0  0  2  0  0  0  0  0  0
  -30.0400  -13.4810   19.8490 N   0  0  0  0  0  0  0  0  0  0  0  0
  -31.7770  -14.8690   19.3750 O   0  0  0  0  0  0  0  0  0  0  0  0
  -29.9380  -15.7170   20.4240 N   0  0  0  0  0  0  0  0  0  0  0  0
  -29.1230  -15.3890   20.9210 H   0  0  0  0  0  0  0  0  0  0  0  0
  -25.3070  -13.9380   20.4060 C   0  0  0  0  0  0  0  0  0  0  0  0
  -24.2630  -13.1620   20.8350 C   0  0  0  0  0  0  0  0  0  0  0  0
  -24.7070  -11.8090   20.7240 C   0  0  0  0  0  0  0  0  0  0  0  0
  -26.3210  -13.0570   20.0630 N   0  0  0  0  0  0  0  0  0  0  0  0
  -25.9680  -11.7700   20.3120 N   0  0  0  0  0  0  0  0  0  0  0  0
  -23.9860  -10.5460   20.9310 C   0  0  0  0  0  0  0  0  0  0  0  0
  -24.4550   -9.5670   21.8330 C   0  0  0  0  0  3  0  0  0  0  0  0
  -23.7340   -8.3690   22.0290 C   0  0  0  0  0  3  0  0  0  0  0  0
  -22.5280   -8.1430   21.3230 C   0  0  0  0  0  0  0  0  0  0  0  0
  -22.0770   -9.1120   20.4100 C   0  0  0  0  0  3  0  0  0  0  0  0
  -22.7990  -10.3010   20.2120 C   0  0  0  0  0  3  0  0  0  0  0  0
  -21.7750   -7.0000   21.4310 O   0  0  0  0  0  0  0  0  0  0  0  0
  -21.7380   -6.2670   22.5900 C   0  0  0  0  0  0  0  0  0  0  0  0
  -21.2910   -6.8240   23.8080 C   0  0  0  0  0  3  0  0  0  0  0  0
  -21.2040   -6.0170   24.9600 C   0  0  0  0  0  3  0  0  0  0  0  0
  -21.5530   -4.6550   24.8960 C   0  0  0  0  0  0  0  0  0  0  0  0
  -21.9940   -4.0980   23.6810 C   0  0  0  0  0  3  0  0  0  0  0  0
  -22.0830   -4.9020   22.5320 C   0  0  0  0  0  0  0  0  0  0  0  0
  -22.4870   -4.3560   21.3600 F   0  0  0  0  0  0  0  0  0  0  0  0
  -21.4620   -3.8780   26.0000 F   0  0  0  0  0  0  0  0  0  0  0  0
  -22.8980  -13.6410   21.2340 C   0  0  0  0  0  0  0  0  0  0  0  0
  -22.2370  -12.9260   22.1370 N   0  0  0  0  0  0  0  0  0  0  0  0
  -22.4280  -14.6830   20.7800 O   0  0  0  0  0  0  0  0  0  0  0  0
  -22.6310  -12.0820   22.5260 H   0  0  0  0  0  0  0  0  0  0  0  0
  -21.3230  -13.2270   22.4450 H   0  0  0  0  0  0  0  0  0  0  0  0
  -25.4710  -15.3120   20.2590 N   0  0  0  0  0  0  0  0  0  0  0  0
  -24.7210  -15.9680   20.4470 H   0  0  0  0  0  0  0  0  0  0  0  0
  -26.2930  -15.7540   19.8670 H   0  0  0  0  0  0  0  0  0  0  0  0
  -27.8090  -20.0610   21.1340 N   0  0  0  0  0  0  0  0  0  0  0  0
  -27.8820  -21.0630   21.2630 H   0  0  0  0  0  0  0  0  0  0  0  0
  -27.2400  -19.6060   21.8400 H   0  0  0  0  0  0  0  0  0  0  0  0
  -30.0720  -21.6290   19.7040 C   0  0  0  0  0  3  0  0  0  0  0  0
  -28.9470  -22.6720   20.0800 C   0  0  0  0  0  3  0  0  0  0  0  0
  -29.2300  -24.1790   19.6790 C   0  0  0  0  0  3  0  0  0  0  0  0
  -28.1580  -25.2350   20.1350 C   0  0  0  0  0  3  0  0  0  0  0  0
  -28.3250  -26.6250   19.6830 O   0  0  0  0  0  0  0  0  0  0  0  0
  -24.6320  -31.7900   23.0660 C   0  0  0  0  0  0  0  0  0  0  0  0
  -27.1900  -27.4360   19.7270 C   0  0  0  0  0  0  0  0  0  0  0  0
  -23.3890  -30.4610   21.3940 C   0  0  0  0  0  3  0  0  0  0  0  0
  -24.8080  -28.9960   19.8570 C   0  0  0  0  0  0  0  0  0  0  0  0
  -25.9170  -30.8190   21.1530 C   0  0  0  0  0  2  0  0  0  0  0  0
  -25.9880  -29.4750   20.4440 C   0  0  0  0  0  0  0  0  0  0  0  0
  -27.1830  -28.7060   20.3700 C   0  0  0  0  0  3  0  0  0  0  0  0
  -25.9930  -27.0090   19.1080 C   0  0  0  0  0  3  0  0  0  0  0  0
  -24.8110  -27.7670   19.1810 C   0  0  0  0  0  3  0  0  0  0  0  0
  -23.5660  -29.8530   19.9780 C   0  0  0  0  0  2  0  0  0  0  0  0
  -24.6660  -31.0370   21.9280 N   0  0  0  0  0  0  0  0  0  0  0  0
  -23.5640  -32.0320   23.6440 O   0  0  0  0  0  0  0  0  0  0  0  0
  -22.7620  -29.3940   22.3220 C   0  0  0  0  0  0  0  0  0  0  0  0
  -21.4340  -29.2180   22.2260 N   0  0  0  0  0  0  0  0  0  0  0  0
  -23.4680  -28.7300   23.0860 O   0  0  0  0  0  0  0  0  0  0  0  0
  -20.9240  -29.8070   21.5830 H   0  0  0  0  0  0  0  0  0  0  0  0
  -18.0720  -28.0170   22.7940 C   0  0  0  0  0  0  0  0  0  0  0  0
  -20.6400  -28.2420   22.9750 C   0  0  0  0  0  3  0  0  0  0  0  0
  -20.7070  -26.8460   22.3140 C   0  0  0  0  0  2  0  0  0  0  0  0
  -19.5620  -26.5900   21.3300 C   0  0  0  0  0  2  0  0  0  0  0  0
  -18.2090  -26.7060   22.0360 C   0  0  0  0  0  2  0  0  0  0  0  0
  -19.2130  -28.7450   23.2210 C   0  0  0  0  0  0  0  0  0  0  0  0
  -19.0290  -29.9740   23.8910 C   0  0  0  0  0  3  0  0  0  0  0  0
  -17.7360  -30.4730   24.1380 C   0  0  0  0  0  3  0  0  0  0  0  0
  -16.6090  -29.7400   23.7260 C   0  0  0  0  0  3  0  0  0  0  0  0
  -16.7780  -28.5140   23.0600 C   0  0  0  0  0  3  0  0  0  0  0  0
  -25.9300  -32.3980   23.6800 C   0  0  0  0  0  3  0  0  0  0  0  0
  -25.6200  -33.7730   24.0960 N   0  0  0  0  0  0  0  0  0  0  0  0
  -25.8950  -34.8660   23.3720 C   0  0  0  0  0  0  0  0  0  0  0  0
  -26.5090  -34.8230   22.3020 O   0  0  0  0  0  0  0  0  0  0  0  0
  -25.0690  -33.8790   24.9350 H   0  0  0  0  0  0  0  0  0  0  0  0
  -24.1160  -36.6360   23.2150 C   0  0  0  0  0  1  0  0  0  0  0  0
  -25.4160  -36.2230   23.9240 C   0  0  0  0  0  3  0  0  0  0  0  0
  -27.5810  -37.1200   24.6560 C   0  0  0  0  0  1  0  0  0  0  0  0
  -26.4190  -37.3000   23.7890 N   0  0  0  0  0  0  0  0  0  0  0  0
  -26.0060  -38.2050   23.9980 H   0  0  0  0  0  0  0  0  0  0  0  0
  -26.4920  -31.5630   24.8960 C   0  0  1  0  0  0  0  0  0  0  0  0
  -25.4360  -31.2600   25.9840 C   0  0  0  0  0  1  0  0  0  0  0  0
  -27.0700  -30.2130   24.4110 C   0  0  0  0  0  1  0  0  0  0  0  0
  -27.6600  -32.3280   25.5610 C   0  0  0  0  0  1  0  0  0  0  0  0
  1  2  2  0
  1  4  1  0
  2  5  1  0
  4  6  2  0
  5 15  1  0
  5  3  2  0
  6  3  1  0
  6 45  1  0
  7 15  1  0
  8 13  1  0
  9 10  1  0
  9  8  1  0
 11 10  1  0
 11 20  1  0
 11 12  1  0
 13  7  1  0
 13 12  1  0
 14  7  2  0
 15 16  1  0
 17 18  2  0
 18 37  1  0
 19 18  1  0
 19 22  1  0
 20 21  1  0
 20 17  1  0
 21 19  2  0
 22 23  1  0
 23 24  2  0
 25 28  1  0
 25 24  1  0
 26 25  2  0
 27 26  1  0
 27 22  2  0
 28 29  1  0
 29 30  1  0
 30 31  2  0
 32 31  1  0
 32 36  1  0
 33 32  2  0
 34 29  2  0
 34 33  1  0
 35 34  1  0
 37 38  1  0
 38 41  1  0
 38 40  1  0
 39 37  2  0
 42 17  1  0
 42 43  1  0
 44 42  1  0
 45 46  1  0
 45 47  1  0
 48  4  1  0
 48 49  2  0
 50 49  1  0
 50 51  2  0
 52 54  1  0
 52 51  1  0
 53 64  2  0
 54 59  1  0
 55 63  1  0
 55 65  1  0
 56 62  1  0
 56 58  1  0
 57 63  1  0
 58 57  1  0
 59 58  2  0
 60 61  1  0
 60 54  2  0
 61 56  2  0
 62 55  1  0
 63 53  1  0
 65 67  2  0
 66 65  1  0
 68 66  1  0
 69 78  2  0
 69 74  1  0
 70 66  1  0
 70 74  1  0
 71 70  1  0
 72 73  1  0
 72 71  1  0
 73 69  1  0
 74 75  2  0
 75 76  1  0
 77 76  2  0
 78 77  1  0
 79 53  1  0
 79 80  1  0
 79 89  1  0
 80 83  1  0
 81 85  1  0
 81 80  1  0
 82 81  2  0
 85 84  1  0
 87 85  1  0
 87 88  1  0
 87 86  1  0
 89 92  1  1
 89 90  1  0
 91 89  1  0
M  ISO  4   7 100  15 100  51 101  52 101
M  END
>  <TORSDO>  (71) 
F 21

>  <SCORE>  (71) 
-12.996

>  <name>  (71) 
70

>  <ligand_id>  (71) 
70

>  <original_smiles>  (71) 
[H]c1c([H])c([H])c2c(c1[H])C([H])([H])C([H])([H])C([H])([H])C2([H])N([H])C(=O)C1([H])N(C(=O)C([H])(N([H])C(=O)C([H])(N([H])C([H])([H])[H])C([H])([H])[H])C(C([H])([H])[H])(C([H])([H])[H])C([H])([H])[H])C([H])([H])c2c([H])c(OC([H])([H])C([H])([H])C([H])([H])C([H])([H])c3c([H])c([H])c(N([H])C(=O)N4C([H])([H])C([H])([H])C([H])([H])C([H])(n5nc(-c6c([H])c([H])c(Oc7c([H])c([H])c(F)c([H])c7F)c([H])c6[H])c(C(=O)N([H])[H])c5N([H])[H])C4([H])[H])c([H])c3N([H])[H])c([H])c([H])c2C1([H])[H]

>  <smiles>  (71) 
[H]c1c([H])c([H])c2c(c1[H])C([H])([H])C([H])([H])C([H])([H])C2([H])N([H])C(=O)C1([H])N(C(=O)C([H])(N([H])C(=O)C([H])(N([H])C([H])([H])[H])C([H])([H])[H])C(C([H])([H])[H])(C([H])([H])[H])C([H])([H])[H])C([H])([H])c2c([H])c(OC([H])([H])C([H])([H])C([H])([H])C([H])([H])c3c([H])c([H])c(N([H])C(=O)N4C([H])([H])C([H])([H])C([H])([H])C([H])(n5nc(-c6c([H])c([H])c(Oc7c([H])c([H])c(F)c([H])c7F)c([H])c6[H])c(C(=O)N([H])[H])c5N([H])[H])C4([H])[H])c([H])c3N([H])[H])c([H])c([H])c2C1([H])[H]

$$$$
71:0:0
     RDKit          3D

 90 98  0  0  1  0  0  0  0  0999 V2000
  -30.4340  -17.6160   19.0950 C   0  0  0  0  0  3  0  0  0  0  0  0
  -30.5760  -18.6740   18.1810 C   0  0  0  0  0  3  0  0  0  0  0  0
  -29.9450  -19.2410   20.8260 C   0  0  0  0  0  3  0  0  0  0  0  0
  -30.1290  -17.8750   20.4430 C   0  0  0  0  0  0  0  0  0  0  0  0
  -30.0780  -20.3390   19.9210 C   0  0  0  0  0  0  0  0  0  0  0  0
  -30.4190  -20.0220   18.5750 C   0  0  0  0  0  0  0  0  0  0  0  0
  -30.6970  -21.0800   17.5180 C   0  0  0  0  0  1  0  0  0  0  0  0
  -29.9860  -16.7950   21.4710 C   0  0  0  0  0  3  0  0  0  0  0  0
  -30.2190  -15.4470   21.5300 C   0  0  0  0  0  3  0  0  0  0  0  0
  -30.7970  -14.5330   20.5330 C   0  0  0  0  0  0  0  0  0  0  0  0
  -30.4990  -12.4010   19.2860 C   0  0  0  0  0  2  0  0  0  0  0  0
  -29.5500  -12.6030   18.0870 C   0  0  0  0  0  2  0  0  0  0  0  0
  -28.0780  -12.4470   18.5160 C   0  0  0  0  0  2  0  0  0  0  0  0
  -27.7430  -13.2690   19.7870 C   0  0  0  0  0  3  0  0  0  0  0  0
  -28.7920  -13.0160   20.8890 C   0  0  0  0  0  2  0  0  0  0  0  0
  -30.1200  -13.3570   20.3430 N   0  0  0  0  0  0  0  0  0  0  0  0
  -31.8530  -14.7690   19.9390 O   0  0  0  0  0  0  0  0  0  0  0  0
  -25.3420  -13.8820   20.4860 C   0  0  0  0  0  0  0  0  0  0  0  0
  -24.2710  -13.1120   20.8530 C   0  0  0  0  0  0  0  0  0  0  0  0
  -24.7300  -11.7600   20.8280 C   0  0  0  0  0  0  0  0  0  0  0  0
  -26.3870  -12.9980   20.2610 N   0  0  0  0  0  0  0  0  0  0  0  0
  -26.0210  -11.7170   20.5230 N   0  0  0  0  0  0  0  0  0  0  0  0
  -24.0000  -10.5000   21.0220 C   0  0  0  0  0  0  0  0  0  0  0  0
  -24.4300   -9.5340   21.9600 C   0  0  0  0  0  3  0  0  0  0  0  0
  -23.7020   -8.3380   22.1400 C   0  0  0  0  0  3  0  0  0  0  0  0
  -22.5310   -8.0990   21.3820 C   0  0  0  0  0  0  0  0  0  0  0  0
  -22.1190   -9.0530   20.4360 C   0  0  0  0  0  3  0  0  0  0  0  0
  -22.8480  -10.2400   20.2530 C   0  0  0  0  0  3  0  0  0  0  0  0
  -21.7760   -6.9540   21.4700 O   0  0  0  0  0  0  0  0  0  0  0  0
  -21.7200   -6.2160   22.6250 C   0  0  0  0  0  0  0  0  0  0  0  0
  -21.2860   -6.7750   23.8460 C   0  0  0  0  0  3  0  0  0  0  0  0
  -21.1770   -5.9640   24.9940 C   0  0  0  0  0  3  0  0  0  0  0  0
  -21.4950   -4.5940   24.9200 C   0  0  0  0  0  0  0  0  0  0  0  0
  -21.9230   -4.0340   23.7030 C   0  0  0  0  0  3  0  0  0  0  0  0
  -22.0330   -4.8430   22.5590 C   0  0  0  0  0  0  0  0  0  0  0  0
  -22.4260   -4.2950   21.3830 F   0  0  0  0  0  0  0  0  0  0  0  0
  -21.3830   -3.8120   26.0180 F   0  0  0  0  0  0  0  0  0  0  0  0
  -22.8740  -13.5940   21.1220 C   0  0  0  0  0  0  0  0  0  0  0  0
  -22.1440  -12.8990   21.9880 N   0  0  0  0  0  0  0  0  0  0  0  0
  -22.4390  -14.6200   20.6010 O   0  0  0  0  0  0  0  0  0  0  0  0
  -22.5080  -12.0690   22.4310 H   0  0  0  0  0  0  0  0  0  0  0  0
  -21.2070  -13.2030   22.2120 H   0  0  0  0  0  0  0  0  0  0  0  0
  -25.5110  -15.2510   20.3070 N   0  0  0  0  0  0  0  0  0  0  0  0
  -24.7510  -15.9130   20.4230 H   0  0  0  0  0  0  0  0  0  0  0  0
  -26.3770  -15.6880   20.0130 H   0  0  0  0  0  0  0  0  0  0  0  0
  -29.8730  -21.7440   20.4380 C   0  0  0  0  0  3  0  0  0  0  0  0
  -29.4860  -22.8700   19.7760 C   0  0  0  0  0  3  0  0  0  0  0  0
  -29.4360  -24.3080   20.3420 C   0  0  0  0  0  2  0  0  0  0  0  0
  -28.2430  -25.1850   19.8470 C   0  0  0  0  0  2  0  0  0  0  0  0
  -28.3550  -26.6040   20.1580 O   0  0  0  0  0  0  0  0  0  0  0  0
  -24.5990  -31.9060   23.1720 C   0  0  0  0  0  0  0  0  0  0  0  0
  -27.2020  -27.3850   20.1110 C   0  0  0  0  0  0  0  0  0  0  0  0
  -23.3840  -30.5060   21.5390 C   0  0  0  0  0  3  0  0  0  0  0  0
  -24.8230  -28.9520   20.1160 C   0  0  0  0  0  0  0  0  0  0  0  0
  -25.9170  -30.8320   21.3420 C   0  0  0  0  0  2  0  0  0  0  0  0
  -25.9910  -29.4560   20.7020 C   0  0  0  0  0  0  0  0  0  0  0  0
  -27.1820  -28.6810   20.6940 C   0  0  0  0  0  3  0  0  0  0  0  0
  -26.0100  -26.9180   19.5060 C   0  0  0  0  0  3  0  0  0  0  0  0
  -24.8320  -27.6840   19.5150 C   0  0  0  0  0  3  0  0  0  0  0  0
  -23.5880  -29.8230   20.1610 C   0  0  0  0  0  2  0  0  0  0  0  0
  -24.6520  -31.0970   22.0750 N   0  0  0  0  0  0  0  0  0  0  0  0
  -23.5190  -32.1880   23.7100 O   0  0  0  0  0  0  0  0  0  0  0  0
  -22.7240  -29.4920   22.5040 C   0  0  0  0  0  0  0  0  0  0  0  0
  -21.3970  -29.3200   22.3790 N   0  0  0  0  0  0  0  0  0  0  0  0
  -23.4030  -28.8650   23.3200 O   0  0  0  0  0  0  0  0  0  0  0  0
  -20.9100  -29.8780   21.6920 H   0  0  0  0  0  0  0  0  0  0  0  0
  -18.0130  -28.1590   22.8950 C   0  0  0  0  0  0  0  0  0  0  0  0
  -20.5740  -28.3910   23.1540 C   0  0  0  0  0  3  0  0  0  0  0  0
  -20.6600  -26.9590   22.5790 C   0  0  0  0  0  2  0  0  0  0  0  0
  -19.5510  -26.6460   21.5700 C   0  0  0  0  0  2  0  0  0  0  0  0
  -18.1740  -26.8070   22.2200 C   0  0  0  0  0  2  0  0  0  0  0  0
  -19.1410  -28.9090   23.3190 C   0  0  0  0  0  0  0  0  0  0  0  0
  -18.9380  -30.1760   23.9090 C   0  0  0  0  0  3  0  0  0  0  0  0
  -17.6400  -30.6910   24.0810 C   0  0  0  0  0  3  0  0  0  0  0  0
  -16.5260  -29.9370   23.6720 C   0  0  0  0  0  3  0  0  0  0  0  0
  -16.7140  -28.6730   23.0840 C   0  0  0  0  0  3  0  0  0  0  0  0
  -25.8880  -32.5330   23.7880 C   0  0  0  0  0  3  0  0  0  0  0  0
  -26.4240  -31.7430   25.0440 C   0  0  1  0  0  0  0  0  0  0  0  0
  -25.3440  -31.4830   26.1220 C   0  0  0  0  0  1  0  0  0  0  0  0
  -27.0080  -30.3750   24.6220 C   0  0  0  0  0  1  0  0  0  0  0  0
  -27.5760  -32.5330   25.7080 C   0  0  0  0  0  1  0  0  0  0  0  0
  -25.5760  -33.9240   24.1440 N   0  0  0  0  0  0  0  0  0  0  0  0
  -25.8900  -34.9890   23.3960 C   0  0  0  0  0  0  0  0  0  0  0  0
  -26.5420  -34.9060   22.3510 O   0  0  0  0  0  0  0  0  0  0  0  0
  -24.9950  -34.0630   24.9580 H   0  0  0  0  0  0  0  0  0  0  0  0
  -24.1490  -36.7790   23.0960 C   0  0  0  0  0  1  0  0  0  0  0  0
  -25.4030  -36.3670   23.8830 C   0  0  0  0  0  3  0  0  0  0  0  0
  -27.5420  -37.2510   24.7030 C   0  0  0  0  0  1  0  0  0  0  0  0
  -26.4280  -37.4270   23.7730 N   0  0  0  0  0  0  0  0  0  0  0  0
  -26.0200  -38.3420   23.9390 H   0  0  0  0  0  0  0  0  0  0  0  0
  1  4  1  0
  2  6  1  0
  2  1  2  0
  4  3  2  0
  4  8  1  0
  5 46  1  0
  5  3  1  0
  6  5  2  0
  7  6  1  0
  8  9  2  0
 10  9  1  0
 11 16  1  0
 12 13  1  0
 12 11  1  0
 14 13  1  0
 14 21  1  0
 14 15  1  0
 16 10  1  0
 16 15  1  0
 17 10  2  0
 18 19  2  0
 19 38  1  0
 20 19  1  0
 20 23  1  0
 21 18  1  0
 21 22  1  0
 22 20  2  0
 23 24  1  0
 24 25  2  0
 26 29  1  0
 26 25  1  0
 27 26  2  0
 28 27  1  0
 28 23  2  0
 29 30  1  0
 30 31  1  0
 31 32  2  0
 33 32  1  0
 33 37  1  0
 34 33  2  0
 35 30  2  0
 35 34  1  0
 36 35  1  0
 38 39  1  0
 39 42  1  0
 39 41  1  0
 40 38  2  0
 43 44  1  0
 43 18  1  0
 45 43  1  0
 47 48  1  0
 47 46  2  0
 49 50  1  0
 49 48  1  0
 51 62  2  0
 52 50  1  0
 52 57  1  0
 53 61  1  0
 53 63  1  0
 54 60  1  0
 54 56  1  0
 55 61  1  0
 56 55  1  0
 57 56  2  0
 58 59  1  0
 58 52  2  0
 59 54  2  0
 60 53  1  0
 61 51  1  0
 63 65  2  0
 64 63  1  0
 66 64  1  0
 67 76  2  0
 67 72  1  0
 68 64  1  0
 68 72  1  0
 69 68  1  0
 70 71  1  0
 70 69  1  0
 71 67  1  0
 72 73  2  0
 73 74  1  0
 75 74  2  0
 76 75  1  0
 77 51  1  0
 77 82  1  0
 77 78  1  0
 78 81  1  1
 78 79  1  0
 80 78  1  0
 82 85  1  0
 83 87  1  0
 83 82  1  0
 84 83  2  0
 87 86  1  0
 89 87  1  0
 89 90  1  0
 89 88  1  0
M  ISO  4   9 100  10 100  49 101  50 101
M  END
>  <TORSDO>  (72) 
F 20

>  <SCORE>  (72) 
-13.967

>  <name>  (72) 
71

>  <ligand_id>  (72) 
71

>  <original_smiles>  (72) 
[H]C(C(=O)N1C([H])([H])C([H])([H])C([H])([H])C([H])(n2nc(-c3c([H])c([H])c(Oc4c([H])c([H])c(F)c([H])c4F)c([H])c3[H])c(C(=O)N([H])[H])c2N([H])[H])C1([H])[H])=C([H])c1c([H])c([H])c(C([H])([H])[H])c(C([H])=C([H])C([H])([H])C([H])([H])Oc2c([H])c([H])c3c(c2[H])C([H])([H])N(C(=O)C([H])(N([H])C(=O)C([H])(N([H])C([H])([H])[H])C([H])([H])[H])C(C([H])([H])[H])(C([H])([H])[H])C([H])([H])[H])C([H])(C(=O)N([H])C2([H])c4c([H])c([H])c([H])c([H])c4C([H])([H])C([H])([H])C2([H])[H])C3([H])[H])c1[H]

>  <smiles>  (72) 
[H]C(C(=O)N1C([H])([H])C([H])([H])C([H])([H])C([H])(n2nc(-c3c([H])c([H])c(Oc4c([H])c([H])c(F)c([H])c4F)c([H])c3[H])c(C(=O)N([H])[H])c2N([H])[H])C1([H])[H])=C([H])c1c([H])c([H])c(C([H])([H])[H])c(C([H])=C([H])C([H])([H])C([H])([H])Oc2c([H])c([H])c3c(c2[H])C([H])([H])N(C(=O)C([H])(N([H])C(=O)C([H])(N([H])C([H])([H])[H])C([H])([H])[H])C(C([H])([H])[H])(C([H])([H])[H])C([H])([H])[H])C([H])(C(=O)N([H])C2([H])c4c([H])c([H])c([H])c([H])c4C([H])([H])C([H])([H])C2([H])[H])C3([H])[H])c1[H]

$$$$
72:0:0
     RDKit          3D

 93101  0  0  1  0  0  0  0  0999 V2000
  -29.9000  -21.7730   20.3940 C   0  0  0  0  0  3  0  0  0  0  0  0
  -30.2530  -22.6660   21.3380 C   0  0  0  0  0  3  0  0  0  0  0  0
  -29.9750  -19.6770   21.8110 C   0  0  0  0  0  3  0  0  0  0  0  0
  -29.8270  -18.2830   21.9310 C   0  0  0  0  0  3  0  0  0  0  0  0
  -29.4070  -19.5230   19.4570 C   0  0  0  0  0  3  0  0  0  0  0  0
  -29.7570  -20.3150   20.5710 C   0  0  0  0  0  0  0  0  0  0  0  0
  -29.4720  -17.4900   20.8200 C   0  0  0  0  0  0  0  0  0  0  0  0
  -29.2660  -18.1210   19.5660 C   0  0  0  0  0  0  0  0  0  0  0  0
  -28.8780  -17.3360   18.3230 C   0  0  0  0  0  1  0  0  0  0  0  0
  -29.2670  -15.9870   21.0290 C   0  0  0  0  0  2  0  0  0  0  0  0
  -30.6910  -14.3650   19.8110 C   0  0  0  0  0  0  0  0  0  0  0  0
  -30.1690  -12.2900   18.5720 C   0  0  0  0  0  2  0  0  0  0  0  0
  -29.1020  -12.5380   17.4890 C   0  0  0  0  0  2  0  0  0  0  0  0
  -27.6860  -12.3810   18.0740 C   0  0  0  0  0  2  0  0  0  0  0  0
  -27.5000  -13.1960   19.3780 C   0  0  0  0  0  3  0  0  0  0  0  0
  -28.6660  -12.9290   20.3620 C   0  0  0  0  0  2  0  0  0  0  0  0
  -29.9340  -13.2370   19.6760 N   0  0  0  0  0  0  0  0  0  0  0  0
  -31.6670  -14.5850   19.0840 O   0  0  0  0  0  0  0  0  0  0  0  0
  -31.6250  -15.6230   21.6580 C   0  0  0  0  0  1  0  0  0  0  0  0
  -30.4680  -15.1400   20.8970 N   0  0  0  0  0  0  0  0  0  0  0  0
  -25.2030  -13.8330   20.3510 C   0  0  0  0  0  0  0  0  0  0  0  0
  -24.1680  -13.0690   20.8200 C   0  0  0  0  0  0  0  0  0  0  0  0
  -24.6010  -11.7120   20.7150 C   0  0  0  0  0  0  0  0  0  0  0  0
  -26.2020  -12.9400   19.9940 N   0  0  0  0  0  0  0  0  0  0  0  0
  -25.8490  -11.6580   20.2690 N   0  0  0  0  0  0  0  0  0  0  0  0
  -23.8800  -10.4570   20.9570 C   0  0  0  0  0  0  0  0  0  0  0  0
  -24.3700   -9.4880   21.8600 C   0  0  0  0  0  3  0  0  0  0  0  0
  -23.6500   -8.2960   22.0880 C   0  0  0  0  0  3  0  0  0  0  0  0
  -22.4270   -8.0650   21.4150 C   0  0  0  0  0  0  0  0  0  0  0  0
  -21.9560   -9.0230   20.4990 C   0  0  0  0  0  3  0  0  0  0  0  0
  -22.6760  -10.2080   20.2700 C   0  0  0  0  0  3  0  0  0  0  0  0
  -21.6720   -6.9270   21.5560 O   0  0  0  0  0  0  0  0  0  0  0  0
  -21.6680   -6.2060   22.7230 C   0  0  0  0  0  0  0  0  0  0  0  0
  -21.3050   -6.7890   23.9580 C   0  0  0  0  0  3  0  0  0  0  0  0
  -21.2480   -5.9960   25.1210 C   0  0  0  0  0  3  0  0  0  0  0  0
  -21.5430   -4.6200   25.0510 C   0  0  0  0  0  0  0  0  0  0  0  0
  -21.8980   -4.0390   23.8220 C   0  0  0  0  0  3  0  0  0  0  0  0
  -21.9570   -4.8290   22.6600 C   0  0  0  0  0  0  0  0  0  0  0  0
  -22.2810   -4.2570   21.4750 F   0  0  0  0  0  0  0  0  0  0  0  0
  -21.4800   -3.8560   26.1660 F   0  0  0  0  0  0  0  0  0  0  0  0
  -22.8160  -13.5620   21.2510 C   0  0  0  0  0  0  0  0  0  0  0  0
  -22.1810  -12.8660   22.1880 N   0  0  0  0  0  0  0  0  0  0  0  0
  -22.3340  -14.5950   20.7890 O   0  0  0  0  0  0  0  0  0  0  0  0
  -22.5850  -12.0290   22.5800 H   0  0  0  0  0  0  0  0  0  0  0  0
  -21.2800  -13.1760   22.5180 H   0  0  0  0  0  0  0  0  0  0  0  0
  -25.3700  -15.2050   20.1820 N   0  0  0  0  0  0  0  0  0  0  0  0
  -24.6260  -15.8630   20.3840 H   0  0  0  0  0  0  0  0  0  0  0  0
  -26.1820  -15.6440   19.7690 H   0  0  0  0  0  0  0  0  0  0  0  0
  -30.3820  -24.1630   21.1000 C   0  0  0  0  0  2  0  0  0  0  0  0
  -29.2190  -24.9600   21.7060 C   0  0  0  0  0  0  0  0  0  0  0  0
  -28.3460  -24.4280   22.4000 O   0  0  0  0  0  0  0  0  0  0  0  0
  -29.1830  -26.4610   21.4110 C   0  0  0  0  0  2  0  0  0  0  0  0
  -28.5400  -26.6700   20.1560 O   0  0  0  0  0  0  0  0  0  0  0  0
  -24.5480  -31.7410   23.2060 C   0  0  0  0  0  0  0  0  0  0  0  0
  -27.3730  -27.3900   20.1890 C   0  0  0  0  0  0  0  0  0  0  0  0
  -23.4130  -30.3040   21.5410 C   0  0  0  0  0  3  0  0  0  0  0  0
  -24.9350  -28.8060   20.1460 C   0  0  0  0  0  0  0  0  0  0  0  0
  -25.9250  -30.7380   21.3890 C   0  0  0  0  0  2  0  0  0  0  0  0
  -26.0590  -29.3670   20.7630 C   0  0  0  0  0  0  0  0  0  0  0  0
  -27.2820  -28.6640   20.7900 C   0  0  0  0  0  3  0  0  0  0  0  0
  -26.2400  -26.8400   19.5590 C   0  0  0  0  0  3  0  0  0  0  0  0
  -25.0180  -27.5370   19.5430 C   0  0  0  0  0  3  0  0  0  0  0  0
  -23.6670  -29.6310   20.1640 C   0  0  0  0  0  2  0  0  0  0  0  0
  -24.6470  -30.9430   22.1050 N   0  0  0  0  0  0  0  0  0  0  0  0
  -23.4510  -31.9850   23.7250 O   0  0  0  0  0  0  0  0  0  0  0  0
  -22.7680  -29.2690   22.4890 C   0  0  0  0  0  0  0  0  0  0  0  0
  -21.4530  -29.0520   22.3300 N   0  0  0  0  0  0  0  0  0  0  0  0
  -23.4490  -28.6630   23.3190 O   0  0  0  0  0  0  0  0  0  0  0  0
  -20.9630  -29.5970   21.6340 H   0  0  0  0  0  0  0  0  0  0  0  0
  -18.0970  -27.7830   22.7620 C   0  0  0  0  0  0  0  0  0  0  0  0
  -20.6430  -28.0960   23.0830 C   0  0  0  0  0  3  0  0  0  0  0  0
  -20.7880  -26.6680   22.5080 C   0  0  0  0  0  2  0  0  0  0  0  0
  -19.7130  -26.3240   21.4710 C   0  0  0  0  0  2  0  0  0  0  0  0
  -18.3170  -26.4380   22.0880 C   0  0  0  0  0  2  0  0  0  0  0  0
  -19.1910  -28.5680   23.2140 C   0  0  0  0  0  0  0  0  0  0  0  0
  -18.9330  -29.8270   23.8000 C   0  0  0  0  0  3  0  0  0  0  0  0
  -17.6160  -30.3000   23.9410 C   0  0  0  0  0  3  0  0  0  0  0  0
  -16.5370  -29.5120   23.5070 C   0  0  0  0  0  3  0  0  0  0  0  0
  -16.7780  -28.2560   22.9220 C   0  0  0  0  0  3  0  0  0  0  0  0
  -25.8080  -32.4030   23.8500 C   0  0  0  0  0  3  0  0  0  0  0  0
  -25.4580  -33.7900   24.1840 N   0  0  0  0  0  0  0  0  0  0  0  0
  -25.7730  -34.8550   23.4330 C   0  0  0  0  0  0  0  0  0  0  0  0
  -26.4610  -34.7740   22.4110 O   0  0  0  0  0  0  0  0  0  0  0  0
  -24.8510  -33.9250   24.9800 H   0  0  0  0  0  0  0  0  0  0  0  0
  -24.0020  -36.5970   23.0530 C   0  0  0  0  0  1  0  0  0  0  0  0
  -25.2380  -36.2250   23.8870 C   0  0  0  0  0  3  0  0  0  0  0  0
  -27.3330  -37.1610   24.7620 C   0  0  0  0  0  1  0  0  0  0  0  0
  -26.2420  -37.3080   23.8010 N   0  0  0  0  0  0  0  0  0  0  0  0
  -25.8090  -38.2160   23.9510 H   0  0  0  0  0  0  0  0  0  0  0  0
  -26.3300  -31.6320   25.1240 C   0  0  1  0  0  0  0  0  0  0  0  0
  -25.2320  -31.3450   26.1740 C   0  0  0  0  0  1  0  0  0  0  0  0
  -26.9610  -30.2800   24.7220 C   0  0  0  0  0  1  0  0  0  0  0  0
  -27.4480  -32.4520   25.8110 C   0  0  0  0  0  1  0  0  0  0  0  0
  1  6  1  0
  1  2  2  0
  3  4  1  0
  5  8  2  0
  5  6  1  0
  6  3  2  0
  7 10  1  0
  7  4  2  0
  8  7  1  0
  9  8  1  0
 11 20  1  0
 12 17  1  0
 13 14  1  0
 13 12  1  0
 15 14  1  0
 15 24  1  0
 15 16  1  0
 17 11  1  0
 17 16  1  0
 18 11  2  0
 20 10  1  0
 20 19  1  0
 21 22  2  0
 22 41  1  0
 23 22  1  0
 23 26  1  0
 24 25  1  0
 24 21  1  0
 25 23  2  0
 26 27  1  0
 27 28  2  0
 29 32  1  0
 29 28  1  0
 30 29  2  0
 31 30  1  0
 31 26  2  0
 32 33  1  0
 33 34  1  0
 34 35  2  0
 36 35  1  0
 36 40  1  0
 37 36  2  0
 38 33  2  0
 38 37  1  0
 39 38  1  0
 41 42  1  0
 42 45  1  0
 42 44  1  0
 43 41  2  0
 46 21  1  0
 46 47  1  0
 48 46  1  0
 49  2  1  0
 49 50  1  0
 50 51  2  0
 52 50  1  0
 53 55  1  0
 53 52  1  0
 54 65  2  0
 55 60  1  0
 56 64  1  0
 56 66  1  0
 57 63  1  0
 57 59  1  0
 58 64  1  0
 59 60  2  0
 59 58  1  0
 61 55  2  0
 62 61  1  0
 62 57  2  0
 63 56  1  0
 64 54  1  0
 66 68  2  0
 67 66  1  0
 69 67  1  0
 70 79  2  0
 70 75  1  0
 71 67  1  0
 71 75  1  0
 72 71  1  0
 73 74  1  0
 73 72  1  0
 74 70  1  0
 75 76  2  0
 76 77  1  0
 78 77  2  0
 79 78  1  0
 80 54  1  0
 80 81  1  0
 80 90  1  0
 81 84  1  0
 82 86  1  0
 82 81  1  0
 83 82  2  0
 86 85  1  0
 88 86  1  0
 88 89  1  0
 88 87  1  0
 90 93  1  1
 90 91  1  0
 92 90  1  0
M  ISO  4  11 100  20 100  52 101  53 101
M  END
>  <TORSDO>  (73) 
F 21

>  <SCORE>  (73) 
-12.029

>  <name>  (73) 
72

>  <ligand_id>  (73) 
72

>  <original_smiles>  (73) 
[H]C(=C([H])C([H])([H])C(=O)C([H])([H])Oc1c([H])c([H])c2c(c1[H])C([H])([H])N(C(=O)C([H])(N([H])C(=O)C([H])(N([H])C([H])([H])[H])C([H])([H])[H])C(C([H])([H])[H])(C([H])([H])[H])C([H])([H])[H])C([H])(C(=O)N([H])C1([H])c3c([H])c([H])c([H])c([H])c3C([H])([H])C([H])([H])C1([H])[H])C2([H])[H])c1c([H])c([H])c(C([H])([H])N(C(=O)N2C([H])([H])C([H])([H])C([H])([H])C([H])(n3nc(-c4c([H])c([H])c(Oc5c([H])c([H])c(F)c([H])c5F)c([H])c4[H])c(C(=O)N([H])[H])c3N([H])[H])C2([H])[H])C([H])([H])[H])c(C([H])([H])[H])c1[H]

>  <smiles>  (73) 
[H]C(=C([H])C([H])([H])C(=O)C([H])([H])Oc1c([H])c([H])c2c(c1[H])C([H])([H])N(C(=O)C([H])(N([H])C(=O)C([H])(N([H])C([H])([H])[H])C([H])([H])[H])C(C([H])([H])[H])(C([H])([H])[H])C([H])([H])[H])C([H])(C(=O)N([H])C1([H])c3c([H])c([H])c([H])c([H])c3C([H])([H])C([H])([H])C1([H])[H])C2([H])[H])c1c([H])c([H])c(C([H])([H])N(C(=O)N2C([H])([H])C([H])([H])C([H])([H])C([H])(n3nc(-c4c([H])c([H])c(Oc5c([H])c([H])c(F)c([H])c5F)c([H])c4[H])c(C(=O)N([H])[H])c3N([H])[H])C2([H])[H])C([H])([H])[H])c(C([H])([H])[H])c1[H]

$$$$
73:0:0
     RDKit          3D

 93101  0  0  1  0  0  0  0  0999 V2000
  -30.3210  -19.0580   19.4170 C   0  0  0  0  0  3  0  0  0  0  0  0
  -30.1550  -20.4310   19.6320 C   0  0  0  0  0  3  0  0  0  0  0  0
  -30.8860  -18.7450   21.7590 C   0  0  0  0  0  3  0  0  0  0  0  0
  -30.7200  -18.2090   20.4650 C   0  0  0  0  0  0  0  0  0  0  0  0
  -30.7330  -20.1350   21.9810 C   0  0  0  0  0  0  0  0  0  0  0  0
  -30.3890  -20.9960   20.9080 C   0  0  0  0  0  0  0  0  0  0  0  0
  -31.0030  -16.8170   20.1090 C   0  0  0  0  0  3  0  0  0  0  0  0
  -30.8650  -15.6810   20.8270 C   0  0  0  0  0  3  0  0  0  0  0  0
  -31.4120  -14.4850   20.2020 C   0  0  0  0  0  0  0  0  0  0  0  0
  -30.8370  -12.4370   18.9910 C   0  0  0  0  0  2  0  0  0  0  0  0
  -29.8790  -12.8020   17.8390 C   0  0  0  0  0  2  0  0  0  0  0  0
  -28.4190  -12.7500   18.3280 C   0  0  0  0  0  2  0  0  0  0  0  0
  -28.1980  -13.5380   19.6470 C   0  0  0  0  0  3  0  0  0  0  0  0
  -29.2820  -13.2000   20.6940 C   0  0  0  0  0  2  0  0  0  0  0  0
  -30.6030  -13.4000   20.0810 N   0  0  0  0  0  0  0  0  0  0  0  0
  -32.5260  -14.5240   19.6750 O   0  0  0  0  0  0  0  0  0  0  0  0
  -25.8760  -14.2490   20.5020 C   0  0  0  0  0  0  0  0  0  0  0  0
  -24.7780  -13.5250   20.8820 C   0  0  0  0  0  0  0  0  0  0  0  0
  -25.1520  -12.1510   20.7620 C   0  0  0  0  0  0  0  0  0  0  0  0
  -26.8520  -13.3200   20.1770 N   0  0  0  0  0  0  0  0  0  0  0  0
  -26.4220  -12.0500   20.3920 N   0  0  0  0  0  0  0  0  0  0  0  0
  -24.3580  -10.9270   20.9250 C   0  0  0  0  0  0  0  0  0  0  0  0
  -24.7740   -9.8830   21.7820 C   0  0  0  0  0  3  0  0  0  0  0  0
  -23.9810   -8.7250   21.9370 C   0  0  0  0  0  3  0  0  0  0  0  0
  -22.7580   -8.6020   21.2350 C   0  0  0  0  0  0  0  0  0  0  0  0
  -22.3600   -9.6340   20.3660 C   0  0  0  0  0  3  0  0  0  0  0  0
  -23.1530  -10.7830   20.2090 C   0  0  0  0  0  3  0  0  0  0  0  0
  -21.9390   -7.5010   21.3030 O   0  0  0  0  0  0  0  0  0  0  0  0
  -21.8750   -6.7180   22.4270 C   0  0  0  0  0  0  0  0  0  0  0  0
  -21.5670   -7.2580   23.6960 C   0  0  0  0  0  3  0  0  0  0  0  0
  -21.4430   -6.4060   24.8120 C   0  0  0  0  0  3  0  0  0  0  0  0
  -21.6190   -5.0170   24.6620 C   0  0  0  0  0  0  0  0  0  0  0  0
  -21.9200   -4.4780   23.3990 C   0  0  0  0  0  3  0  0  0  0  0  0
  -22.0450   -5.3260   22.2840 C   0  0  0  0  0  0  0  0  0  0  0  0
  -22.3150   -4.7980   21.0660 F   0  0  0  0  0  0  0  0  0  0  0  0
  -21.4940   -4.1980   25.7320 F   0  0  0  0  0  0  0  0  0  0  0  0
  -23.4280  -14.0710   21.2470 C   0  0  0  0  0  0  0  0  0  0  0  0
  -22.7100  -13.3910   22.1340 N   0  0  0  0  0  0  0  0  0  0  0  0
  -23.0220  -15.1350   20.7820 O   0  0  0  0  0  0  0  0  0  0  0  0
  -23.0510  -12.5290   22.5330 H   0  0  0  0  0  0  0  0  0  0  0  0
  -21.8060  -13.7400   22.4220 H   0  0  0  0  0  0  0  0  0  0  0  0
  -26.1210  -15.6140   20.3870 N   0  0  0  0  0  0  0  0  0  0  0  0
  -25.4120  -16.3120   20.5840 H   0  0  0  0  0  0  0  0  0  0  0  0
  -26.9960  -16.0130   20.0700 H   0  0  0  0  0  0  0  0  0  0  0  0
  -30.9780  -20.7040   23.3700 C   0  0  0  0  0  2  0  0  0  0  0  0
  -29.9720  -22.8140   24.3390 C   0  0  0  0  0  2  0  0  0  0  0  0
  -29.8340  -21.5590   23.8840 C   0  0  0  0  0  3  0  0  0  0  0  0
  -30.3190  -22.3530   21.1420 O   0  0  0  0  0  0  0  0  0  0  0  0
  -29.9170  -23.1700   20.0440 C   0  0  0  0  0  2  0  0  0  0  0  0
  -29.7340  -24.6180   20.4850 C   0  0  0  0  0  0  0  0  0  0  0  0
  -30.5150  -25.1740   21.2680 O   0  0  0  0  0  0  0  0  0  0  0  0
  -28.5170  -25.3240   19.8930 C   0  0  0  0  0  2  0  0  0  0  0  0
  -28.5360  -26.7180   20.1980 O   0  0  0  0  0  0  0  0  0  0  0  0
  -24.6030  -31.7300   23.2930 C   0  0  0  0  0  0  0  0  0  0  0  0
  -27.3340  -27.3880   20.1680 C   0  0  0  0  0  0  0  0  0  0  0  0
  -23.4250  -30.3280   21.6300 C   0  0  0  0  0  3  0  0  0  0  0  0
  -24.9080  -28.8370   20.1930 C   0  0  0  0  0  0  0  0  0  0  0  0
  -25.9430  -30.7360   21.4450 C   0  0  0  0  0  2  0  0  0  0  0  0
  -26.0520  -29.3760   20.7930 C   0  0  0  0  0  0  0  0  0  0  0  0
  -27.2650  -28.6560   20.7830 C   0  0  0  0  0  3  0  0  0  0  0  0
  -26.1710  -26.8660   19.5480 C   0  0  0  0  0  3  0  0  0  0  0  0
  -24.9610  -27.5800   19.5710 C   0  0  0  0  0  3  0  0  0  0  0  0
  -23.6490  -29.6700   20.2430 C   0  0  0  0  0  2  0  0  0  0  0  0
  -24.6750  -30.9460   22.1820 N   0  0  0  0  0  0  0  0  0  0  0  0
  -23.5150  -31.9780   23.8320 O   0  0  0  0  0  0  0  0  0  0  0  0
  -22.7900  -29.2830   22.5750 C   0  0  0  0  0  0  0  0  0  0  0  0
  -21.4760  -29.0560   22.4170 N   0  0  0  0  0  0  0  0  0  0  0  0
  -23.4770  -28.6790   23.4030 O   0  0  0  0  0  0  0  0  0  0  0  0
  -20.9830  -29.5990   21.7230 H   0  0  0  0  0  0  0  0  0  0  0  0
  -18.1520  -27.6910   22.7750 C   0  0  0  0  0  0  0  0  0  0  0  0
  -20.6750  -28.0920   23.1700 C   0  0  0  0  0  3  0  0  0  0  0  0
  -20.8830  -26.6550   22.6350 C   0  0  0  0  0  2  0  0  0  0  0  0
  -19.8530  -26.2530   21.5740 C   0  0  0  0  0  2  0  0  0  0  0  0
  -18.4340  -26.3380   22.1420 C   0  0  0  0  0  2  0  0  0  0  0  0
  -19.2050  -28.5210   23.2420 C   0  0  0  0  0  0  0  0  0  0  0  0
  -18.8910  -29.7840   23.7890 C   0  0  0  0  0  3  0  0  0  0  0  0
  -17.5560  -30.2190   23.8750 C   0  0  0  0  0  3  0  0  0  0  0  0
  -16.5160  -29.3870   23.4260 C   0  0  0  0  0  3  0  0  0  0  0  0
  -16.8140  -28.1260   22.8820 C   0  0  0  0  0  3  0  0  0  0  0  0
  -25.8770  -32.3750   23.9230 C   0  0  0  0  0  3  0  0  0  0  0  0
  -25.5620  -33.7790   24.2170 N   0  0  0  0  0  0  0  0  0  0  0  0
  -25.9200  -34.8150   23.4460 C   0  0  0  0  0  0  0  0  0  0  0  0
  -26.6220  -34.6900   22.4390 O   0  0  0  0  0  0  0  0  0  0  0  0
  -24.9420  -33.9500   24.9960 H   0  0  0  0  0  0  0  0  0  0  0  0
  -24.2010  -36.5970   23.0050 C   0  0  0  0  0  1  0  0  0  0  0  0
  -25.4190  -36.2110   23.8600 C   0  0  0  0  0  3  0  0  0  0  0  0
  -27.5290  -37.1140   24.7320 C   0  0  0  0  0  1  0  0  0  0  0  0
  -26.4530  -37.2630   23.7560 N   0  0  0  0  0  0  0  0  0  0  0  0
  -26.0430  -38.1850   23.8750 H   0  0  0  0  0  0  0  0  0  0  0  0
  -26.3740  -31.6290   25.2210 C   0  0  1  0  0  0  0  0  0  0  0  0
  -25.2660  -31.4250   26.2830 C   0  0  0  0  0  1  0  0  0  0  0  0
  -26.9480  -30.2380   24.8660 C   0  0  0  0  0  1  0  0  0  0  0  0
  -27.5230  -32.4290   25.8780 C   0  0  0  0  0  1  0  0  0  0  0  0
  1  2  2  0
  1  4  1  0
  2  6  1  0
  3  5  1  0
  4  3  2  0
  5 45  1  0
  6 48  1  0
  6  5  2  0
  7  4  1  0
  7  8  2  0
  9  8  1  0
 10 15  1  0
 11 12  1  0
 11 10  1  0
 13 12  1  0
 13 20  1  0
 13 14  1  0
 15  9  1  0
 15 14  1  0
 16  9  2  0
 17 18  2  0
 18 37  1  0
 19 18  1  0
 19 22  1  0
 20 21  1  0
 20 17  1  0
 21 19  2  0
 22 23  1  0
 23 24  2  0
 25 28  1  0
 25 24  1  0
 26 25  2  0
 27 26  1  0
 27 22  2  0
 28 29  1  0
 29 30  1  0
 30 31  2  0
 32 31  1  0
 32 36  1  0
 33 32  2  0
 34 29  2  0
 34 33  1  0
 35 34  1  0
 37 38  1  0
 38 41  1  0
 38 40  1  0
 39 37  2  0
 42 17  1  0
 42 43  1  0
 44 42  1  0
 45 47  1  0
 47 46  2  0
 49 50  1  0
 49 48  1  0
 50 51  2  0
 52 53  1  0
 52 50  1  0
 54 65  2  0
 55 53  1  0
 55 60  1  0
 56 64  1  0
 56 66  1  0
 57 63  1  0
 57 59  1  0
 58 64  1  0
 59 58  1  0
 60 59  2  0
 61 62  1  0
 61 55  2  0
 62 57  2  0
 63 56  1  0
 64 54  1  0
 66 68  2  0
 67 66  1  0
 69 67  1  0
 70 79  2  0
 70 75  1  0
 71 67  1  0
 71 75  1  0
 72 71  1  0
 73 74  1  0
 73 72  1  0
 74 70  1  0
 75 76  2  0
 76 77  1  0
 78 77  2  0
 79 78  1  0
 80 54  1  0
 80 81  1  0
 80 90  1  0
 81 84  1  0
 82 86  1  0
 82 81  1  0
 83 82  2  0
 86 85  1  0
 88 86  1  0
 88 89  1  0
 88 87  1  0
 90 93  1  1
 90 91  1  0
 92 90  1  0
M  ISO  4   8 100   9 100  52 101  53 101
M  END
>  <TORSDO>  (74) 
F 23

>  <SCORE>  (74) 
-12.281

>  <name>  (74) 
73

>  <ligand_id>  (74) 
73

>  <original_smiles>  (74) 
[H]C([H])=C([H])C([H])([H])c1c([H])c(C([H])=C([H])C(=O)N2C([H])([H])C([H])([H])C([H])([H])C([H])(n3nc(-c4c([H])c([H])c(Oc5c([H])c([H])c(F)c([H])c5F)c([H])c4[H])c(C(=O)N([H])[H])c3N([H])[H])C2([H])[H])c([H])c([H])c1OC([H])([H])C(=O)C([H])([H])Oc1c([H])c([H])c2c(c1[H])C([H])([H])N(C(=O)C([H])(N([H])C(=O)C([H])(N([H])C([H])([H])[H])C([H])([H])[H])C(C([H])([H])[H])(C([H])([H])[H])C([H])([H])[H])C([H])(C(=O)N([H])C1([H])c3c([H])c([H])c([H])c([H])c3C([H])([H])C([H])([H])C1([H])[H])C2([H])[H]

>  <smiles>  (74) 
[H]C([H])=C([H])C([H])([H])c1c([H])c(C([H])=C([H])C(=O)N2C([H])([H])C([H])([H])C([H])([H])C([H])(n3nc(-c4c([H])c([H])c(Oc5c([H])c([H])c(F)c([H])c5F)c([H])c4[H])c(C(=O)N([H])[H])c3N([H])[H])C2([H])[H])c([H])c([H])c1OC([H])([H])C(=O)C([H])([H])Oc1c([H])c([H])c2c(c1[H])C([H])([H])N(C(=O)C([H])(N([H])C(=O)C([H])(N([H])C([H])([H])[H])C([H])([H])[H])C(C([H])([H])[H])(C([H])([H])[H])C([H])([H])[H])C([H])(C(=O)N([H])C1([H])c3c([H])c([H])c([H])c([H])c3C([H])([H])C([H])([H])C1([H])[H])C2([H])[H]

$$$$
74:0:0
     RDKit          3D

 91 93  0  0  1  0  0  0  0  0999 V2000
  -26.1220  -22.3550   19.6500 C   0  0  0  0  0  2  0  0  0  0  0  0
  -24.4570  -21.3710   17.9350 C   0  0  0  0  0  3  0  0  0  0  0  0
  -26.5310  -20.6880   19.3200 C   0  0  0  0  0  2  0  0  0  0  0  0
  -24.8900  -23.5030   19.2370 C   0  0  0  0  0  2  0  0  0  0  0  0
  -25.3130  -20.4230   18.5880 C   0  0  0  0  0  3  0  0  0  0  0  0
  -24.2910  -22.7730   18.1700 C   0  0  0  0  0  0  0  0  0  0  0  0
  -24.7040  -19.0250   18.6370 C   0  0  0  0  0  1  0  0  0  0  0  0
  -23.3470  -23.4580   17.1940 C   0  0  0  0  0  1  0  0  0  0  0  0
  -27.6520  -18.9770   19.3740 C   0  0  0  0  0  1  0  0  0  0  0  0
  -28.9560  -17.9400   19.3370 C   0  0  0  0  0  2  0  0  0  0  0  0
  -29.8400  -16.2650   19.3730 C   0  0  0  0  0  0  0  0  0  0  0  0
  -30.3690  -13.5900   18.7430 C   0  0  0  0  0  2  0  0  0  0  0  0
  -29.5240  -12.8700   17.6380 C   0  0  0  0  0  2  0  0  0  0  0  0
  -28.1640  -12.4410   18.1950 C   0  0  0  0  0  2  0  0  0  0  0  0
  -27.6430  -13.4960   19.1860 C   0  0  0  0  0  3  0  0  0  0  0  0
  -28.6510  -13.9960   20.2260 C   0  0  0  0  0  2  0  0  0  0  0  0
  -29.5940  -14.7680   19.4370 N   0  0  0  0  0  0  0  0  0  0  0  0
  -31.0850  -16.1630   19.1400 O   0  0  0  0  0  0  0  0  0  0  0  0
  -25.4720  -14.1010   20.2290 C   0  0  0  0  0  0  0  0  0  0  0  0
  -24.4260  -13.3620   20.6890 C   0  0  0  0  0  0  0  0  0  0  0  0
  -24.8160  -11.9920   20.5720 C   0  0  0  0  0  0  0  0  0  0  0  0
  -26.4090  -13.1820   19.8220 N   0  0  0  0  0  0  0  0  0  0  0  0
  -26.0540  -11.9050   20.1030 N   0  0  0  0  0  0  0  0  0  0  0  0
  -24.0570  -10.7570   20.8010 C   0  0  0  0  0  0  0  0  0  0  0  0
  -24.5130   -9.7660   21.7000 C   0  0  0  0  0  3  0  0  0  0  0  0
  -23.7420   -8.6080   21.9220 C   0  0  0  0  0  3  0  0  0  0  0  0
  -22.5150   -8.4310   21.2430 C   0  0  0  0  0  0  0  0  0  0  0  0
  -22.0800   -9.4130   20.3390 C   0  0  0  0  0  3  0  0  0  0  0  0
  -22.8450  -10.5640   20.1110 C   0  0  0  0  0  3  0  0  0  0  0  0
  -21.7160   -7.3250   21.3740 O   0  0  0  0  0  0  0  0  0  0  0  0
  -21.6740   -6.6050   22.5400 C   0  0  0  0  0  0  0  0  0  0  0  0
  -21.3260   -7.1970   23.7740 C   0  0  0  0  0  3  0  0  0  0  0  0
  -21.2270   -6.4040   24.9350 C   0  0  0  0  0  3  0  0  0  0  0  0
  -21.4660   -5.0170   24.8630 C   0  0  0  0  0  0  0  0  0  0  0  0
  -21.8010   -4.4230   23.6340 C   0  0  0  0  0  3  0  0  0  0  0  0
  -21.9000   -5.2140   22.4750 C   0  0  0  0  0  0  0  0  0  0  0  0
  -22.2070   -4.6320   21.2920 F   0  0  0  0  0  0  0  0  0  0  0  0
  -21.3610   -4.2550   25.9760 F   0  0  0  0  0  0  0  0  0  0  0  0
  -23.0960  -13.9040   21.1140 C   0  0  0  0  0  0  0  0  0  0  0  0
  -22.4260  -13.2390   22.0490 N   0  0  0  0  0  0  0  0  0  0  0  0
  -22.6670  -14.9570   20.6470 O   0  0  0  0  0  0  0  0  0  0  0  0
  -22.7860  -12.3870   22.4550 H   0  0  0  0  0  0  0  0  0  0  0  0
  -21.5390  -13.6030   22.3760 H   0  0  0  0  0  0  0  0  0  0  0  0
  -25.6750  -15.4730   20.0900 N   0  0  0  0  0  0  0  0  0  0  0  0
  -24.9370  -16.1360   20.3050 H   0  0  0  0  0  0  0  0  0  0  0  0
  -26.4950  -15.9070   19.6950 H   0  0  0  0  0  0  0  0  0  0  0  0
  -24.0090  -25.3110   19.2070 C   0  0  0  0  0  1  0  0  0  0  0  0
  -23.2380  -26.7860   19.3420 C   0  0  0  0  0  1  0  0  0  0  0  0
  -22.2910  -28.4450   20.3520 C   0  0  0  0  0 15  0  0  0  0  0  0
  -23.0070  -29.2670   22.6010 C   0  0  0  0  0 15  0  0  0  0  0  0
  -25.2480  -28.7750   22.7580 O   0  0  0  0  0  1  0  0  0  0  0  0
  -24.4410  -31.5240   22.7630 C   0  0  0  0  0  0  0  0  0  0  0  0
  -26.3920  -28.0240   21.9000 C   0  0  0  0  0  3  0  0  0  0  0  0
  -24.2490  -29.0940   20.8250 C   0  0  0  0  0  2  0  0  0  0  0  0
  -25.8390  -28.8640   19.5410 C   0  0  0  0  0  3  0  0  0  0  0  0
  -26.0460  -30.9400   21.0090 C   0  0  0  0  0  2  0  0  0  0  0  0
  -26.6240  -29.6480   20.4620 C   0  0  0  0  0  3  0  0  0  0  0  0
  -27.3310  -28.9260   21.4250 C   0  0  0  0  0  2  0  0  0  0  0  0
  -26.3110  -27.0070   20.8450 C   0  0  0  0  0  2  0  0  0  0  0  0
  -25.9310  -27.4630   19.5710 C   0  0  0  0  0  2  0  0  0  0  0  0
  -24.4530  -29.2540   19.3560 C   0  0  0  0  0  2  0  0  0  0  0  0
  -24.7170  -30.6870   21.5310 N   0  0  0  0  0  0  0  0  0  0  0  0
  -23.2820  -31.8640   23.1270 O   0  0  0  0  0  0  0  0  0  0  0  0
  -23.7230  -27.1140   22.1470 C   0  0  0  0  0  2  0  0  0  0  0  0
  -22.3750  -27.0240   22.8760 N   0  0  0  0  0  0  0  0  0  0  0  0
  -24.2520  -26.7690   23.1870 O   0  0  0  0  0  1  0  0  0  0  0  0
  -22.6400  -26.5330   23.7450 H   0  0  0  0  0  0  0  0  0  0  0  0
  -18.2640  -28.0000   22.3370 C   0  0  0  0  0  0  0  0  0  0  0  0
  -20.7750  -27.2880   22.9900 C   0  0  0  0  0  3  0  0  0  0  0  0
  -20.3310  -26.0680   22.2190 C   0  0  0  0  0  2  0  0  0  0  0  0
  -19.5460  -26.3230   20.9480 C   0  0  0  0  0  2  0  0  0  0  0  0
  -18.1850  -26.8780   21.3080 C   0  0  0  0  0  2  0  0  0  0  0  0
  -19.5230  -28.4160   22.9460 C   0  0  0  0  0  0  0  0  0  0  0  0
  -19.3350  -29.6020   23.7590 C   0  0  0  0  0  3  0  0  0  0  0  0
  -18.0570  -30.2500   23.9620 C   0  0  0  0  0  3  0  0  0  0  0  0
  -16.8670  -29.7090   23.4140 C   0  0  0  0  0  3  0  0  0  0  0  0
  -16.9950  -28.5550   22.6250 C   0  0  0  0  0  3  0  0  0  0  0  0
  -25.4570  -32.2180   23.8140 C   0  0  0  0  0  3  0  0  0  0  0  0
  -25.6480  -31.5680   25.2810 C   0  0  1  0  0  0  0  0  0  0  0  0
  -24.3320  -31.3760   26.0670 C   0  0  0  0  0  1  0  0  0  0  0  0
  -26.3030  -30.1850   25.2090 C   0  0  0  0  0  1  0  0  0  0  0  0
  -26.6210  -32.4080   26.1490 C   0  0  0  0  0  1  0  0  0  0  0  0
  -25.0300  -33.6300   24.0510 N   0  0  0  0  0  0  0  0  0  0  0  0
  -25.5180  -34.7160   23.4250 C   0  0  0  0  0  0  0  0  0  0  0  0
  -26.4030  -34.6290   22.5720 O   0  0  0  0  0  0  0  0  0  0  0  0
  -24.2000  -33.7530   24.6140 H   0  0  0  0  0  0  0  0  0  0  0  0
  -23.8260  -36.4930   22.8150 C   0  0  0  0  0  1  0  0  0  0  0  0
  -24.9430  -36.1100   23.8010 C   0  0  0  0  0  3  0  0  0  0  0  0
  -26.9290  -37.0640   24.9030 C   0  0  0  0  0  1  0  0  0  0  0  0
  -25.9640  -37.1890   23.8110 N   0  0  0  0  0  0  0  0  0  0  0  0
  -25.5130  -38.0990   23.8820 H   0  0  0  0  0  0  0  0  0  0  0  0
  2  6  2  0
  2  5  1  0
  3  1  1  0
  4  1  1  0
  5  7  1  0
  5  3  1  0
  6  4  1  0
  8  6  1  0
 10 11  1  0
 10  9  1  0
 11 17  1  0
 12 17  1  0
 13 14  1  0
 13 12  1  0
 15 14  1  0
 15 22  1  0
 15 16  1  0
 17 16  1  0
 18 11  2  0
 19 20  2  0
 20 39  1  0
 21 20  1  0
 21 24  1  0
 22 23  1  0
 22 19  1  0
 23 21  2  0
 24 25  1  0
 25 26  2  0
 27 30  1  0
 27 26  1  0
 28 27  2  0
 29 28  1  0
 29 24  2  0
 30 31  1  0
 31 32  1  0
 32 33  2  0
 34 33  1  0
 34 38  1  0
 35 34  2  0
 36 31  2  0
 36 35  1  0
 37 36  1  0
 39 40  1  0
 40 43  1  0
 40 42  1  0
 41 39  2  0
 44 19  1  0
 44 45  1  0
 46 44  1  0
 47 48  1  0
 52 63  2  0
 53 51  1  0
 54 62  1  0
 55 61  1  0
 55 60  1  0
 55 57  1  0
 56 62  1  0
 57 56  1  0
 57 58  1  0
 58 53  1  0
 59 53  1  0
 60 59  1  0
 61 54  1  0
 62 52  1  0
 64 65  1  0
 64 66  1  0
 65 67  1  0
 68 77  2  0
 68 73  1  0
 69 65  1  0
 70 69  1  0
 71 72  1  0
 71 70  1  0
 72 68  1  0
 73 69  1  0
 73 74  2  0
 74 75  1  0
 76 75  2  0
 77 76  1  0
 78 52  1  0
 78 83  1  0
 78 79  1  0
 79 80  1  1
 79 82  1  0
 81 79  1  0
 83 86  1  0
 84 88  1  0
 84 83  1  0
 85 84  2  0
 88 87  1  0
 88 90  1  0
 90 91  1  0
 90 89  1  0
M  ISO  4  10 100  11 100  50 101  51 101
M  END
>  <TORSDO>  (75) 
F 20

>  <SCORE>  (75) 
-12.986

>  <name>  (75) 
74

>  <ligand_id>  (75) 
74

>  <original_smiles>  (75) 
[H]C(C(=O)N1C([H])([H])C([H])([H])C([H])([H])C([H])(n2nc(-c3c([H])c([H])c(Oc4c([H])c([H])c(F)c([H])c4F)c([H])c3[H])c(C(=O)N([H])[H])c2N([H])[H])C1([H])[H])=C([H])c1c([H])c(C([H])=C([H])C([H])([H])C([H])([H])Oc2c([H])c([H])c3c(c2[H])C([H])([H])N(C(=O)C([H])(N([H])C(=O)C([H])(N([H])C([H])([H])[H])C([H])([H])[H])C(C([H])([H])[H])(C([H])([H])[H])C([H])([H])[H])C([H])(C(=O)N([H])C2([H])c4c([H])c([H])c([H])c([H])c4C([H])([H])C([H])([H])C2([H])[H])C3([H])[H])c(C([H])([H])[H])c([H])c1C([H])([H])[H]

>  <smiles>  (75) 
[H]C(C(=O)N1C([H])([H])C([H])([H])C([H])([H])C([H])(n2nc(-c3c([H])c([H])c(Oc4c([H])c([H])c(F)c([H])c4F)c([H])c3[H])c(C(=O)N([H])[H])c2N([H])[H])C1([H])[H])=C([H])c1c([H])c(C([H])=C([H])C([H])([H])C([H])([H])Oc2c([H])c([H])c3c(c2[H])C([H])([H])N(C(=O)C([H])(N([H])C(=O)C([H])(N([H])C([H])([H])[H])C([H])([H])[H])C(C([H])([H])[H])(C([H])([H])[H])C([H])([H])[H])C([H])(C(=O)N([H])C2([H])c4c([H])c([H])c([H])c([H])c4C([H])([H])C([H])([H])C2([H])[H])C3([H])[H])c(C([H])([H])[H])c([H])c1C([H])([H])[H]

$$$$
75:0:0
     RDKit          3D

 93101  0  0  1  0  0  0  0  0999 V2000
  -29.7070  -21.9300   20.4100 C   0  0  0  0  0  3  0  0  0  0  0  0
  -29.3580  -23.0440   19.7110 C   0  0  0  0  0  3  0  0  0  0  0  0
  -28.9250  -20.1660   18.7570 C   0  0  0  0  0  3  0  0  0  0  0  0
  -30.0620  -19.4480   20.7780 C   0  0  0  0  0  3  0  0  0  0  0  0
  -29.2700  -17.7830   19.1880 C   0  0  0  0  0  3  0  0  0  0  0  0
  -29.5570  -20.5080   19.9750 C   0  0  0  0  0  0  0  0  0  0  0  0
  -28.7840  -18.8190   18.3630 C   0  0  0  0  0  0  0  0  0  0  0  0
  -29.9210  -18.0820   20.4050 C   0  0  0  0  0  0  0  0  0  0  0  0
  -28.1120  -18.4910   17.0450 C   0  0  0  0  0  1  0  0  0  0  0  0
  -30.4930  -16.9680   21.3030 C   0  0  0  0  0  2  0  0  0  0  0  0
  -30.6730  -14.6040   20.4240 C   0  0  0  0  0  0  0  0  0  0  0  0
  -30.3680  -12.4580   19.2390 C   0  0  0  0  0  2  0  0  0  0  0  0
  -29.4060  -12.6590   18.0510 C   0  0  0  0  0  2  0  0  0  0  0  0
  -27.9390  -12.5030   18.4990 C   0  0  0  0  0  2  0  0  0  0  0  0
  -27.6130  -13.3240   19.7760 C   0  0  0  0  0  3  0  0  0  0  0  0
  -28.6850  -13.1030   20.8670 C   0  0  0  0  0  2  0  0  0  0  0  0
  -29.9980  -13.4290   20.2820 N   0  0  0  0  0  0  0  0  0  0  0  0
  -31.7760  -14.8050   19.9110 O   0  0  0  0  0  0  0  0  0  0  0  0
  -30.0130  -15.5910   21.0650 N   0  0  0  0  0  0  0  0  0  0  0  0
  -29.1120  -15.3510   21.4480 H   0  0  0  0  0  0  0  0  0  0  0  0
  -25.2140  -13.9080   20.5010 C   0  0  0  0  0  0  0  0  0  0  0  0
  -24.1560  -13.1260   20.8790 C   0  0  0  0  0  0  0  0  0  0  0  0
  -24.6280  -11.7790   20.8440 C   0  0  0  0  0  0  0  0  0  0  0  0
  -26.2660  -13.0370   20.2650 N   0  0  0  0  0  0  0  0  0  0  0  0
  -25.9160  -11.7520   20.5250 N   0  0  0  0  0  0  0  0  0  0  0  0
  -23.9150  -10.5100   21.0420 C   0  0  0  0  0  0  0  0  0  0  0  0
  -24.3660   -9.5490   21.9740 C   0  0  0  0  0  3  0  0  0  0  0  0
  -23.6540   -8.3450   22.1610 C   0  0  0  0  0  3  0  0  0  0  0  0
  -22.4790   -8.0920   21.4140 C   0  0  0  0  0  0  0  0  0  0  0  0
  -22.0470   -9.0420   20.4720 C   0  0  0  0  0  3  0  0  0  0  0  0
  -22.7580  -10.2380   20.2840 C   0  0  0  0  0  3  0  0  0  0  0  0
  -21.7390   -6.9380   21.5070 O   0  0  0  0  0  0  0  0  0  0  0  0
  -21.6960   -6.2020   22.6630 C   0  0  0  0  0  0  0  0  0  0  0  0
  -21.2420   -6.7530   23.8810 C   0  0  0  0  0  3  0  0  0  0  0  0
  -21.1450   -5.9430   25.0300 C   0  0  0  0  0  3  0  0  0  0  0  0
  -21.4970   -4.5800   24.9620 C   0  0  0  0  0  0  0  0  0  0  0  0
  -21.9460   -4.0280   23.7500 C   0  0  0  0  0  3  0  0  0  0  0  0
  -22.0420   -4.8360   22.6020 C   0  0  0  0  0  0  0  0  0  0  0  0
  -22.4530   -4.2930   21.4300 F   0  0  0  0  0  0  0  0  0  0  0  0
  -21.4020   -3.7990   26.0630 F   0  0  0  0  0  0  0  0  0  0  0  0
  -22.7570  -13.5890   21.1680 C   0  0  0  0  0  0  0  0  0  0  0  0
  -22.0500  -12.8830   22.0430 N   0  0  0  0  0  0  0  0  0  0  0  0
  -22.3010  -14.6120   20.6580 O   0  0  0  0  0  0  0  0  0  0  0  0
  -22.4370  -12.0590   22.4790 H   0  0  0  0  0  0  0  0  0  0  0  0
  -21.1110  -13.1690   22.2800 H   0  0  0  0  0  0  0  0  0  0  0  0
  -25.3650  -15.2810   20.3220 N   0  0  0  0  0  0  0  0  0  0  0  0
  -24.5970  -15.9320   20.4430 H   0  0  0  0  0  0  0  0  0  0  0  0
  -26.2130  -15.7260   19.9990 H   0  0  0  0  0  0  0  0  0  0  0  0
  -29.4810  -24.5270   20.1310 C   0  0  0  0  0  3  0  0  0  0  0  0
  -30.9890  -25.2910   22.0220 C   0  0  0  0  0  2  0  0  0  0  0  0
  -29.8820  -24.6650   21.5920 C   0  0  0  0  0  3  0  0  0  0  0  0
  -28.1900  -25.3390   19.8140 C   0  0  0  0  0  2  0  0  0  0  0  0
  -28.2880  -26.7620   20.0650 O   0  0  0  0  0  0  0  0  0  0  0  0
  -24.5000  -31.9420   23.2080 C   0  0  0  0  0  0  0  0  0  0  0  0
  -27.1120  -27.5040   20.0620 C   0  0  0  0  0  0  0  0  0  0  0  0
  -23.2760  -30.5520   21.5710 C   0  0  0  0  0  3  0  0  0  0  0  0
  -24.7130  -29.0290   20.1150 C   0  0  0  0  0  0  0  0  0  0  0  0
  -25.8020  -30.9090   21.3480 C   0  0  0  0  0  2  0  0  0  0  0  0
  -25.8820  -29.5430   20.6920 C   0  0  0  0  0  0  0  0  0  0  0  0
  -27.0820  -28.7900   20.6600 C   0  0  0  0  0  3  0  0  0  0  0  0
  -25.9170  -27.0140   19.4780 C   0  0  0  0  0  3  0  0  0  0  0  0
  -24.7280  -27.7660   19.5040 C   0  0  0  0  0  3  0  0  0  0  0  0
  -23.4680  -29.8850   20.1840 C   0  0  0  0  0  2  0  0  0  0  0  0
  -24.5450  -31.1470   22.1010 N   0  0  0  0  0  0  0  0  0  0  0  0
  -23.4250  -32.2070   23.7630 O   0  0  0  0  0  0  0  0  0  0  0  0
  -22.6380  -29.5220   22.5320 C   0  0  0  0  0  0  0  0  0  0  0  0
  -21.3110  -29.3400   22.4210 N   0  0  0  0  0  0  0  0  0  0  0  0
  -23.3320  -28.8910   23.3330 O   0  0  0  0  0  0  0  0  0  0  0  0
  -20.8110  -29.9010   21.7470 H   0  0  0  0  0  0  0  0  0  0  0  0
  -17.9470  -28.1300   22.9480 C   0  0  0  0  0  0  0  0  0  0  0  0
  -20.5060  -28.3960   23.1970 C   0  0  0  0  0  3  0  0  0  0  0  0
  -20.6090  -26.9670   22.6140 C   0  0  0  0  0  2  0  0  0  0  0  0
  -19.5000  -26.6440   21.6090 C   0  0  0  0  0  2  0  0  0  0  0  0
  -18.1240  -26.7830   22.2660 C   0  0  0  0  0  2  0  0  0  0  0  0
  -19.0670  -28.8930   23.3710 C   0  0  0  0  0  0  0  0  0  0  0  0
  -18.8500  -30.1540   23.9690 C   0  0  0  0  0  3  0  0  0  0  0  0
  -17.5460  -30.6510   24.1480 C   0  0  0  0  0  3  0  0  0  0  0  0
  -16.4400  -29.8840   23.7410 C   0  0  0  0  0  3  0  0  0  0  0  0
  -16.6420  -28.6250   23.1480 C   0  0  0  0  0  3  0  0  0  0  0  0
  -25.7930  -32.5700   23.8140 C   0  0  0  0  0  3  0  0  0  0  0  0
  -25.4900  -33.9680   24.1480 N   0  0  0  0  0  0  0  0  0  0  0  0
  -25.8360  -35.0210   23.3950 C   0  0  0  0  0  0  0  0  0  0  0  0
  -26.5140  -34.9170   22.3700 O   0  0  0  0  0  0  0  0  0  0  0  0
  -24.8900  -34.1220   24.9440 H   0  0  0  0  0  0  0  0  0  0  0  0
  -24.1360  -36.8350   23.0130 C   0  0  0  0  0  1  0  0  0  0  0  0
  -25.3510  -36.4100   23.8530 C   0  0  0  0  0  3  0  0  0  0  0  0
  -27.4720  -37.2630   24.7500 C   0  0  0  0  0  1  0  0  0  0  0  0
  -26.3970  -37.4540   23.7790 N   0  0  0  0  0  0  0  0  0  0  0  0
  -25.9980  -38.3760   23.9280 H   0  0  0  0  0  0  0  0  0  0  0  0
  -26.3260  -31.7970   25.0830 C   0  0  1  0  0  0  0  0  0  0  0  0
  -25.2440  -31.5560   26.1620 C   0  0  0  0  0  1  0  0  0  0  0  0
  -26.9050  -30.4210   24.6820 C   0  0  0  0  0  1  0  0  0  0  0  0
  -27.4840  -32.5890   25.7330 C   0  0  0  0  0  1  0  0  0  0  0  0
  2  1  2  0
  3  6  1  0
  5  8  2  0
  6  1  1  0
  6  4  2  0
  7  3  2  0
  7  5  1  0
  8  4  1  0
  8 10  1  0
  9  7  1  0
 11 19  1  0
 12 17  1  0
 13 14  1  0
 13 12  1  0
 15 14  1  0
 15 24  1  0
 15 16  1  0
 17 11  1  0
 17 16  1  0
 18 11  2  0
 19 10  1  0
 19 20  1  0
 21 22  2  0
 22 41  1  0
 23 22  1  0
 23 26  1  0
 24 21  1  0
 24 25  1  0
 25 23  2  0
 26 27  1  0
 27 28  2  0
 29 32  1  0
 29 28  1  0
 30 29  2  0
 31 30  1  0
 31 26  2  0
 32 33  1  0
 33 34  1  0
 34 35  2  0
 36 35  1  0
 36 40  1  0
 37 36  2  0
 38 33  2  0
 38 37  1  0
 39 38  1  0
 41 42  1  0
 42 45  1  0
 42 44  1  0
 43 41  2  0
 46 47  1  0
 46 21  1  0
 48 46  1  0
 49  2  1  0
 49 51  1  0
 51 50  2  0
 52 53  1  0
 52 49  1  0
 54 65  2  0
 55 53  1  0
 55 60  1  0
 56 64  1  0
 56 66  1  0
 57 63  1  0
 57 59  1  0
 58 64  1  0
 59 58  1  0
 60 59  2  0
 61 62  1  0
 61 55  2  0
 62 57  2  0
 63 56  1  0
 64 54  1  0
 66 68  2  0
 67 66  1  0
 69 67  1  0
 70 79  2  0
 70 75  1  0
 71 67  1  0
 71 75  1  0
 72 71  1  0
 73 74  1  0
 73 72  1  0
 74 70  1  0
 75 76  2  0
 76 77  1  0
 78 77  2  0
 79 78  1  0
 80 54  1  0
 80 81  1  0
 80 90  1  0
 81 84  1  0
 82 86  1  0
 82 81  1  0
 83 82  2  0
 86 85  1  0
 88 86  1  0
 88 89  1  0
 88 87  1  0
 90 93  1  1
 90 91  1  0
 92 90  1  0
M  ISO  4  11 100  19 100  52 101  53 101
M  END
>  <TORSDO>  (76) 
F 21

>  <SCORE>  (76) 
-13.351

>  <name>  (76) 
75

>  <ligand_id>  (76) 
75

>  <original_smiles>  (76) 
[H]C([H])=C([H])C([H])(C([H])=C([H])c1c([H])c(C([H])([H])[H])c([H])c(C([H])([H])N([H])C(=O)N2C([H])([H])C([H])([H])C([H])([H])C([H])(n3nc(-c4c([H])c([H])c(Oc5c([H])c([H])c(F)c([H])c5F)c([H])c4[H])c(C(=O)N([H])[H])c3N([H])[H])C2([H])[H])c1[H])C([H])([H])Oc1c([H])c([H])c2c(c1[H])C([H])([H])N(C(=O)C([H])(N([H])C(=O)C([H])(N([H])C([H])([H])[H])C([H])([H])[H])C(C([H])([H])[H])(C([H])([H])[H])C([H])([H])[H])C([H])(C(=O)N([H])C1([H])c3c([H])c([H])c([H])c([H])c3C([H])([H])C([H])([H])C1([H])[H])C2([H])[H]

>  <smiles>  (76) 
[H]C([H])=C([H])C([H])(C([H])=C([H])c1c([H])c(C([H])([H])[H])c([H])c(C([H])([H])N([H])C(=O)N2C([H])([H])C([H])([H])C([H])([H])C([H])(n3nc(-c4c([H])c([H])c(Oc5c([H])c([H])c(F)c([H])c5F)c([H])c4[H])c(C(=O)N([H])[H])c3N([H])[H])C2([H])[H])c1[H])C([H])([H])Oc1c([H])c([H])c2c(c1[H])C([H])([H])N(C(=O)C([H])(N([H])C(=O)C([H])(N([H])C([H])([H])[H])C([H])([H])[H])C(C([H])([H])[H])(C([H])([H])[H])C([H])([H])[H])C([H])(C(=O)N([H])C1([H])c3c([H])c([H])c([H])c([H])c3C([H])([H])C([H])([H])C1([H])[H])C2([H])[H]

$$$$
76:0:0
     RDKit          3D

 92100  0  0  1  0  0  0  0  0999 V2000
  -29.7240  -21.0680   20.2720 C   0  0  0  0  0  2  0  0  0  0  0  0
  -28.5370  -21.8720   19.7050 C   0  0  0  0  0  2  0  0  0  0  0  0
  -28.9010  -23.3030   19.3170 C   0  0  0  0  0  3  0  0  0  0  0  0
  -28.1240  -24.3920   19.4940 C   0  0  0  0  0  3  0  0  0  0  0  0
  -28.4870  -25.7950   19.0140 C   0  0  0  0  0  2  0  0  0  0  0  0
  -28.2930  -26.8210   19.9970 O   0  0  0  0  0  0  0  0  0  0  0  0
  -24.5370  -31.9420   23.2210 C   0  0  0  0  0  0  0  0  0  0  0  0
  -27.1010  -27.5230   20.0220 C   0  0  0  0  0  0  0  0  0  0  0  0
  -23.2900  -30.5640   21.5890 C   0  0  0  0  0  3  0  0  0  0  0  0
  -24.7060  -29.0350   20.1180 C   0  0  0  0  0  0  0  0  0  0  0  0
  -25.8140  -30.9100   21.3460 C   0  0  0  0  0  2  0  0  0  0  0  0
  -25.8770  -29.5440   20.6900 C   0  0  0  0  0  0  0  0  0  0  0  0
  -27.0730  -28.7910   20.6470 C   0  0  0  0  0  3  0  0  0  0  0  0
  -25.9050  -27.0220   19.4590 C   0  0  0  0  0  3  0  0  0  0  0  0
  -24.7130  -27.7690   19.5060 C   0  0  0  0  0  3  0  0  0  0  0  0
  -23.4670  -29.8970   20.1980 C   0  0  0  0  0  2  0  0  0  0  0  0
  -24.5660  -31.1530   22.1090 N   0  0  0  0  0  0  0  0  0  0  0  0
  -23.4690  -32.2140   23.7860 O   0  0  0  0  0  0  0  0  0  0  0  0
  -22.6550  -29.5350   22.5500 C   0  0  0  0  0  0  0  0  0  0  0  0
  -21.3370  -29.3190   22.4090 N   0  0  0  0  0  0  0  0  0  0  0  0
  -23.3450  -28.9340   23.3780 O   0  0  0  0  0  0  0  0  0  0  0  0
  -20.8420  -29.8570   21.7130 H   0  0  0  0  0  0  0  0  0  0  0  0
  -17.9980  -28.0070   22.8360 C   0  0  0  0  0  0  0  0  0  0  0  0
  -20.5330  -28.3700   23.1800 C   0  0  0  0  0  3  0  0  0  0  0  0
  -20.7080  -26.9310   22.6430 C   0  0  0  0  0  2  0  0  0  0  0  0
  -19.6530  -26.5400   21.6040 C   0  0  0  0  0  2  0  0  0  0  0  0
  -18.2460  -26.6490   22.2020 C   0  0  0  0  0  2  0  0  0  0  0  0
  -19.0720  -28.8210   23.2810 C   0  0  0  0  0  0  0  0  0  0  0  0
  -18.7890  -30.0900   23.8320 C   0  0  0  0  0  3  0  0  0  0  0  0
  -17.4620  -30.5450   23.9440 C   0  0  0  0  0  3  0  0  0  0  0  0
  -16.4010  -29.7280   23.5170 C   0  0  0  0  0  3  0  0  0  0  0  0
  -16.6700  -28.4610   22.9690 C   0  0  0  0  0  3  0  0  0  0  0  0
  -25.8390  -32.5600   23.8190 C   0  0  0  0  0  3  0  0  0  0  0  0
  -25.5460  -33.9570   24.1680 N   0  0  0  0  0  0  0  0  0  0  0  0
  -25.8740  -35.0130   23.4130 C   0  0  0  0  0  0  0  0  0  0  0  0
  -26.5260  -34.9150   22.3700 O   0  0  0  0  0  0  0  0  0  0  0  0
  -24.9680  -34.1080   24.9810 H   0  0  0  0  0  0  0  0  0  0  0  0
  -24.1460  -36.8150   23.1080 C   0  0  0  0  0  1  0  0  0  0  0  0
  -25.4020  -36.3990   23.8910 C   0  0  0  0  0  3  0  0  0  0  0  0
  -27.5570  -37.2660   24.6860 C   0  0  0  0  0  1  0  0  0  0  0  0
  -26.4390  -37.4480   23.7640 N   0  0  0  0  0  0  0  0  0  0  0  0
  -26.0410  -38.3690   23.9270 H   0  0  0  0  0  0  0  0  0  0  0  0
  -26.3820  -31.7740   25.0750 C   0  0  1  0  0  0  0  0  0  0  0  0
  -25.3110  -31.5180   26.1610 C   0  0  0  0  0  1  0  0  0  0  0  0
  -26.9620  -30.4040   24.6540 C   0  0  0  0  0  1  0  0  0  0  0  0
  -27.5430  -32.5630   25.7250 C   0  0  0  0  0  1  0  0  0  0  0  0
  -29.3840  -19.6820   20.4330 O   0  0  0  0  0  0  0  0  0  0  0  0
  -32.4450  -16.7720   20.5710 C   0  0  0  0  0  3  0  0  0  0  0  0
  -31.7800  -19.1090   20.3540 C   0  0  0  0  0  3  0  0  0  0  0  0
  -30.0830  -17.3870   20.6620 C   0  0  0  0  0  3  0  0  0  0  0  0
  -32.7870  -18.1240   20.3750 C   0  0  0  0  0  0  0  0  0  0  0  0
  -31.0900  -16.3880   20.7010 C   0  0  0  0  0  0  0  0  0  0  0  0
  -30.4140  -18.7550   20.4870 C   0  0  0  0  0  0  0  0  0  0  0  0
  -34.2340  -18.5210   20.1450 C   0  0  0  0  0  1  0  0  0  0  0  0
  -30.7980  -14.2630   19.6600 C   0  0  0  0  0  0  0  0  0  0  0  0
  -30.1510  -12.1940   18.4830 C   0  0  0  0  0  2  0  0  0  0  0  0
  -29.1070  -12.4490   17.3840 C   0  0  0  0  0  2  0  0  0  0  0  0
  -27.6950  -12.3350   17.9780 C   0  0  0  0  0  2  0  0  0  0  0  0
  -27.5170  -13.2040   19.2500 C   0  0  0  0  0  3  0  0  0  0  0  0
  -28.6790  -12.9990   20.2500 C   0  0  0  0  0  2  0  0  0  0  0  0
  -29.9660  -13.1880   19.5540 N   0  0  0  0  0  0  0  0  0  0  0  0
  -31.6480  -14.5160   18.8000 O   0  0  0  0  0  0  0  0  0  0  0  0
  -31.0710  -14.3170   22.0610 C   0  0  0  0  0  1  0  0  0  0  0  0
  -30.7490  -15.0000   20.7980 N   0  0  0  0  0  0  0  0  0  0  0  0
  -25.2300  -13.8760   20.2210 C   0  0  0  0  0  0  0  0  0  0  0  0
  -24.1890  -13.1340   20.7130 C   0  0  0  0  0  0  0  0  0  0  0  0
  -24.6050  -11.7700   20.6350 C   0  0  0  0  0  0  0  0  0  0  0  0
  -26.2180  -12.9670   19.8790 N   0  0  0  0  0  0  0  0  0  0  0  0
  -25.8520  -11.6940   20.1830 N   0  0  0  0  0  0  0  0  0  0  0  0
  -23.8690  -10.5290   20.9120 C   0  0  0  0  0  0  0  0  0  0  0  0
  -24.3440   -9.5820   21.8460 C   0  0  0  0  0  3  0  0  0  0  0  0
  -23.6110   -8.4030   22.1050 C   0  0  0  0  0  3  0  0  0  0  0  0
  -22.3880   -8.1650   21.4350 C   0  0  0  0  0  0  0  0  0  0  0  0
  -21.9310   -9.1000   20.4890 C   0  0  0  0  0  3  0  0  0  0  0  0
  -22.6650  -10.2700   20.2280 C   0  0  0  0  0  3  0  0  0  0  0  0
  -21.6220   -7.0360   21.6060 O   0  0  0  0  0  0  0  0  0  0  0  0
  -21.6080   -6.3470   22.7930 C   0  0  0  0  0  0  0  0  0  0  0  0
  -21.2550   -6.9680   24.0120 C   0  0  0  0  0  3  0  0  0  0  0  0
  -21.1890   -6.2060   25.1960 C   0  0  0  0  0  3  0  0  0  0  0  0
  -21.4620   -4.8250   25.1620 C   0  0  0  0  0  0  0  0  0  0  0  0
  -21.8030   -4.2050   23.9480 C   0  0  0  0  0  3  0  0  0  0  0  0
  -21.8740   -4.9640   22.7660 C   0  0  0  0  0  0  0  0  0  0  0  0
  -22.1860   -4.3560   21.5960 F   0  0  0  0  0  0  0  0  0  0  0  0
  -21.3890   -4.0920   26.2980 F   0  0  0  0  0  0  0  0  0  0  0  0
  -22.8450  -13.6520   21.1390 C   0  0  0  0  0  0  0  0  0  0  0  0
  -22.2070  -12.9900   22.0990 N   0  0  0  0  0  0  0  0  0  0  0  0
  -22.3710  -14.6770   20.6510 O   0  0  0  0  0  0  0  0  0  0  0  0
  -22.6060  -12.1660   22.5230 H   0  0  0  0  0  0  0  0  0  0  0  0
  -21.3050  -13.3150   22.4180 H   0  0  0  0  0  0  0  0  0  0  0  0
  -25.4090  -15.2420   20.0190 N   0  0  0  0  0  0  0  0  0  0  0  0
  -24.6740  -15.9150   20.2010 H   0  0  0  0  0  0  0  0  0  0  0  0
  -26.2330  -15.6560   19.5990 H   0  0  0  0  0  0  0  0  0  0  0  0
  1 47  1  0
  2  1  1  0
  3  4  2  0
  3  2  1  0
  5  4  1  0
  5  6  1  0
  6  8  1  0
  7 18  2  0
  8 13  1  0
  9 17  1  0
  9 19  1  0
 10 16  1  0
 10 12  1  0
 11 17  1  0
 12 11  1  0
 13 12  2  0
 14 15  1  0
 14  8  2  0
 15 10  2  0
 16  9  1  0
 17  7  1  0
 19 21  2  0
 20 19  1  0
 22 20  1  0
 23 32  2  0
 23 28  1  0
 24 20  1  0
 24 28  1  0
 25 24  1  0
 26 27  1  0
 26 25  1  0
 27 23  1  0
 28 29  2  0
 29 30  1  0
 31 30  2  0
 32 31  1  0
 33  7  1  0
 33 34  1  0
 33 43  1  0
 34 37  1  0
 35 39  1  0
 35 34  1  0
 36 35  2  0
 39 38  1  0
 41 39  1  0
 41 42  1  0
 41 40  1  0
 43 46  1  1
 43 44  1  0
 45 43  1  0
 47 53  1  0
 48 52  1  0
 49 51  1  0
 49 53  2  0
 50 52  2  0
 51 48  2  0
 52 64  1  0
 53 50  1  0
 54 51  1  0
 55 64  1  0
 56 61  1  0
 57 58  1  0
 57 56  1  0
 59 58  1  0
 59 68  1  0
 59 60  1  0
 61 55  1  0
 61 60  1  0
 62 55  2  0
 64 63  1  0
 65 66  2  0
 66 85  1  0
 67 66  1  0
 67 70  1  0
 68 69  1  0
 68 65  1  0
 69 67  2  0
 70 71  1  0
 71 72  2  0
 73 76  1  0
 73 72  1  0
 74 73  2  0
 75 74  1  0
 75 70  2  0
 76 77  1  0
 77 78  1  0
 78 79  2  0
 80 79  1  0
 80 84  1  0
 81 80  2  0
 82 77  2  0
 82 81  1  0
 83 82  1  0
 85 86  1  0
 86 89  1  0
 86 88  1  0
 87 85  2  0
 90 91  1  0
 90 65  1  0
 92 90  1  0
M  ISO  4   5 101   6 101  55 100  64 100
M  END
>  <TORSDO>  (77) 
F 21

>  <SCORE>  (77) 
-12.042

>  <name>  (77) 
76

>  <ligand_id>  (77) 
76

>  <original_smiles>  (77) 
[H]C(=C([H])C([H])([H])C([H])([H])Oc1c([H])c(N(C(=O)N2C([H])([H])C([H])([H])C([H])([H])C([H])(n3nc(-c4c([H])c([H])c(Oc5c([H])c([H])c(F)c([H])c5F)c([H])c4[H])c(C(=O)N([H])[H])c3N([H])[H])C2([H])[H])C([H])([H])[H])c([H])c(C([H])([H])[H])c1[H])C([H])([H])Oc1c([H])c([H])c2c(c1[H])C([H])([H])N(C(=O)C([H])(N([H])C(=O)C([H])(N([H])C([H])([H])[H])C([H])([H])[H])C(C([H])([H])[H])(C([H])([H])[H])C([H])([H])[H])C([H])(C(=O)N([H])C1([H])c3c([H])c([H])c([H])c([H])c3C([H])([H])C([H])([H])C1([H])[H])C2([H])[H]

>  <smiles>  (77) 
[H]C(=C([H])C([H])([H])C([H])([H])Oc1c([H])c(N(C(=O)N2C([H])([H])C([H])([H])C([H])([H])C([H])(n3nc(-c4c([H])c([H])c(Oc5c([H])c([H])c(F)c([H])c5F)c([H])c4[H])c(C(=O)N([H])[H])c3N([H])[H])C2([H])[H])C([H])([H])[H])c([H])c(C([H])([H])[H])c1[H])C([H])([H])Oc1c([H])c([H])c2c(c1[H])C([H])([H])N(C(=O)C([H])(N([H])C(=O)C([H])(N([H])C([H])([H])[H])C([H])([H])[H])C(C([H])([H])[H])(C([H])([H])[H])C([H])([H])[H])C([H])(C(=O)N([H])C1([H])c3c([H])c([H])c([H])c([H])c3C([H])([H])C([H])([H])C1([H])[H])C2([H])[H]

$$$$
77:0:0
     RDKit          3D

 94102  0  0  1  0  0  0  0  0999 V2000
  -30.5460  -17.7370   22.1310 C   0  0  0  0  0  3  0  0  0  0  0  0
  -29.7900  -17.7410   19.8190 C   0  0  0  0  0  0  0  0  0  0  0  0
  -30.1880  -17.0120   20.9760 C   0  0  0  0  0  0  0  0  0  0  0  0
  -30.0980  -19.8910   21.0190 C   0  0  0  0  0  0  0  0  0  0  0  0
  -30.5150  -19.1480   22.1470 C   0  0  0  0  0  0  0  0  0  0  0  0
  -29.7420  -19.1620   19.8490 C   0  0  0  0  0  0  0  0  0  0  0  0
  -30.8710  -19.7990   23.2820 F   0  0  0  0  0  0  0  0  0  0  0  0
  -29.3340  -19.8040   18.7260 F   0  0  0  0  0  0  0  0  0  0  0  0
  -30.8570  -14.6150   20.5790 C   0  0  0  0  0  0  0  0  0  0  0  0
  -30.6210  -12.4720   19.3790 C   0  0  0  0  0  2  0  0  0  0  0  0
  -29.7020  -12.7180   18.1640 C   0  0  0  0  0  2  0  0  0  0  0  0
  -28.2170  -12.5730   18.5590 C   0  0  0  0  0  2  0  0  0  0  0  0
  -27.8610  -13.3650   19.8440 C   0  0  0  0  0  3  0  0  0  0  0  0
  -28.8900  -13.0910   20.9630 C   0  0  0  0  0  2  0  0  0  0  0  0
  -30.2260  -13.4180   20.4320 N   0  0  0  0  0  0  0  0  0  0  0  0
  -32.0050  -14.8270   20.1740 O   0  0  0  0  0  0  0  0  0  0  0  0
  -30.0650  -15.5890   21.0790 N   0  0  0  0  0  0  0  0  0  0  0  0
  -29.1780  -15.2540   21.4280 H   0  0  0  0  0  0  0  0  0  0  0  0
  -25.4460  -14.0110   20.4440 C   0  0  0  0  0  0  0  0  0  0  0  0
  -24.3620  -13.2520   20.7910 C   0  0  0  0  0  0  0  0  0  0  0  0
  -24.8170  -11.8990   20.8110 C   0  0  0  0  0  0  0  0  0  0  0  0
  -26.4930  -13.1150   20.2760 N   0  0  0  0  0  0  0  0  0  0  0  0
  -26.1160  -11.8430   20.5500 N   0  0  0  0  0  0  0  0  0  0  0  0
  -24.0830  -10.6440   21.0050 C   0  0  0  0  0  0  0  0  0  0  0  0
  -24.4750   -9.7060   21.9860 C   0  0  0  0  0  3  0  0  0  0  0  0
  -23.7460   -8.5130   22.1660 C   0  0  0  0  0  3  0  0  0  0  0  0
  -22.6080   -8.2510   21.3660 C   0  0  0  0  0  0  0  0  0  0  0  0
  -22.2370   -9.1780   20.3750 C   0  0  0  0  0  3  0  0  0  0  0  0
  -22.9690  -10.3620   20.1930 C   0  0  0  0  0  3  0  0  0  0  0  0
  -21.8530   -7.1080   21.4520 O   0  0  0  0  0  0  0  0  0  0  0  0
  -21.7460   -6.4040   22.6240 C   0  0  0  0  0  0  0  0  0  0  0  0
  -21.2300   -6.9910   23.8010 C   0  0  0  0  0  3  0  0  0  0  0  0
  -21.0730   -6.2110   24.9660 C   0  0  0  0  0  3  0  0  0  0  0  0
  -21.4200   -4.8470   24.9530 C   0  0  0  0  0  0  0  0  0  0  0  0
  -21.9290   -4.2610   23.7810 C   0  0  0  0  0  3  0  0  0  0  0  0
  -22.0880   -5.0360   22.6180 C   0  0  0  0  0  0  0  0  0  0  0  0
  -22.5580   -4.4620   21.4840 F   0  0  0  0  0  0  0  0  0  0  0  0
  -21.2610   -4.0960   26.0670 F   0  0  0  0  0  0  0  0  0  0  0  0
  -22.9590  -13.7400   21.0090 C   0  0  0  0  0  0  0  0  0  0  0  0
  -22.2060  -13.0670   21.8710 N   0  0  0  0  0  0  0  0  0  0  0  0
  -22.5410  -14.7540   20.4510 O   0  0  0  0  0  0  0  0  0  0  0  0
  -22.5600  -12.2450   22.3370 H   0  0  0  0  0  0  0  0  0  0  0  0
  -21.2650  -13.3780   22.0660 H   0  0  0  0  0  0  0  0  0  0  0  0
  -25.6270  -15.3760   20.2400 N   0  0  0  0  0  0  0  0  0  0  0  0
  -24.8660  -16.0410   20.3050 H   0  0  0  0  0  0  0  0  0  0  0  0
  -26.4970  -15.8000   19.9430 H   0  0  0  0  0  0  0  0  0  0  0  0
  -30.5850  -16.7740   17.6020 C   0  0  0  0  0  1  0  0  0  0  0  0
  -29.3900  -17.0380   18.5260 C   0  0  0  0  0  2  0  0  0  0  0  0
  -30.0740  -21.2800   21.1600 O   0  0  0  0  0  0  0  0  0  0  0  0
  -29.5460  -22.1070   20.1170 C   0  0  0  0  0  2  0  0  0  0  0  0
  -29.5590  -23.6170   20.4810 C   0  0  0  0  0  2  0  0  0  0  0  0
  -28.7550  -24.4770   19.4710 C   0  0  0  0  0  2  0  0  0  0  0  0
  -29.1810  -25.9620   19.3060 C   0  0  0  0  0  2  0  0  0  0  0  0
  -28.7840  -26.8730   20.3390 O   0  0  0  0  0  0  0  0  0  0  0  0
  -24.6530  -31.8960   23.2240 C   0  0  0  0  0  0  0  0  0  0  0  0
  -27.5770  -27.5420   20.2490 C   0  0  0  0  0  0  0  0  0  0  0  0
  -23.5630  -30.4610   21.5290 C   0  0  0  0  0  3  0  0  0  0  0  0
  -25.1260  -28.9690   20.1680 C   0  0  0  0  0  0  0  0  0  0  0  0
  -26.0820  -30.8940   21.4440 C   0  0  0  0  0  2  0  0  0  0  0  0
  -26.2370  -29.5240   20.8130 C   0  0  0  0  0  0  0  0  0  0  0  0
  -27.4570  -28.8120   20.8640 C   0  0  0  0  0  3  0  0  0  0  0  0
  -26.4460  -27.0030   19.5920 C   0  0  0  0  0  3  0  0  0  0  0  0
  -25.2260  -27.7060   19.5570 C   0  0  0  0  0  3  0  0  0  0  0  0
  -23.8550  -29.7890   20.1600 C   0  0  0  0  0  2  0  0  0  0  0  0
  -24.7820  -31.0980   22.1260 N   0  0  0  0  0  0  0  0  0  0  0  0
  -23.5410  -32.1360   23.7160 O   0  0  0  0  0  0  0  0  0  0  0  0
  -22.8990  -29.4210   22.4600 C   0  0  0  0  0  0  0  0  0  0  0  0
  -21.5830  -29.2120   22.2840 N   0  0  0  0  0  0  0  0  0  0  0  0
  -23.5650  -28.8050   23.2950 O   0  0  0  0  0  0  0  0  0  0  0  0
  -21.1060  -29.7650   21.5840 H   0  0  0  0  0  0  0  0  0  0  0  0
  -18.2090  -27.9880   22.6930 C   0  0  0  0  0  0  0  0  0  0  0  0
  -20.7580  -28.2510   23.0150 C   0  0  0  0  0  3  0  0  0  0  0  0
  -20.8790  -26.8360   22.4040 C   0  0  0  0  0  2  0  0  0  0  0  0
  -19.7970  -26.5340   21.3630 C   0  0  0  0  0  2  0  0  0  0  0  0
  -18.4030  -26.6580   21.9840 C   0  0  0  0  0  2  0  0  0  0  0  0
  -19.3160  -28.7460   23.1610 C   0  0  0  0  0  0  0  0  0  0  0  0
  -19.0810  -29.9940   23.7750 C   0  0  0  0  0  3  0  0  0  0  0  0
  -17.7710  -30.4870   23.9260 C   0  0  0  0  0  3  0  0  0  0  0  0
  -16.6780  -29.7280   23.4750 C   0  0  0  0  0  3  0  0  0  0  0  0
  -16.8970  -28.4790   22.8670 C   0  0  0  0  0  3  0  0  0  0  0  0
  -25.8910  -32.5620   23.9010 C   0  0  0  0  0  3  0  0  0  0  0  0
  -25.5280  -33.9500   24.2210 N   0  0  0  0  0  0  0  0  0  0  0  0
  -25.8760  -35.0150   23.4860 C   0  0  0  0  0  0  0  0  0  0  0  0
  -26.6030  -34.9340   22.4920 O   0  0  0  0  0  0  0  0  0  0  0  0
  -24.8830  -34.0850   24.9850 H   0  0  0  0  0  0  0  0  0  0  0  0
  -24.1280  -36.7680   23.0360 C   0  0  0  0  0  1  0  0  0  0  0  0
  -25.3270  -36.3860   23.9200 C   0  0  0  0  0  3  0  0  0  0  0  0
  -27.3820  -37.3160   24.8900 C   0  0  0  0  0  1  0  0  0  0  0  0
  -26.3370  -37.4650   23.8810 N   0  0  0  0  0  0  0  0  0  0  0  0
  -25.8990  -38.3730   24.0110 H   0  0  0  0  0  0  0  0  0  0  0  0
  -26.3790  -31.7980   25.1940 C   0  0  1  0  0  0  0  0  0  0  0  0
  -25.2470  -31.4930   26.2020 C   0  0  0  0  0  1  0  0  0  0  0  0
  -27.0440  -30.4540   24.8140 C   0  0  0  0  0  1  0  0  0  0  0  0
  -27.4570  -32.6340   25.9230 C   0  0  0  0  0  1  0  0  0  0  0  0
  1  5  1  0
  2  6  2  0
  2  3  1  0
  3 17  1  0
  3  1  2  0
  4 49  1  0
  4  5  2  0
  5  7  1  0
  6  4  1  0
  8  6  1  0
  9 17  1  0
 10 15  1  0
 11 12  1  0
 11 10  1  0
 13 12  1  0
 13 22  1  0
 13 14  1  0
 15  9  1  0
 15 14  1  0
 16  9  2  0
 17 18  1  0
 19 20  2  0
 20 21  1  0
 20 39  1  0
 21 24  1  0
 22 19  1  0
 22 23  1  0
 23 21  2  0
 24 25  1  0
 25 26  2  0
 27 30  1  0
 27 26  1  0
 28 27  2  0
 29 28  1  0
 29 24  2  0
 30 31  1  0
 31 32  1  0
 32 33  2  0
 34 33  1  0
 34 38  1  0
 35 34  2  0
 36 31  2  0
 36 35  1  0
 37 36  1  0
 39 40  1  0
 40 43  1  0
 40 42  1  0
 41 39  2  0
 44 45  1  0
 44 19  1  0
 46 44  1  0
 47 48  1  0
 48  2  1  0
 50 51  1  0
 50 49  1  0
 52 51  1  0
 53 52  1  0
 53 54  1  0
 55 66  2  0
 56 54  1  0
 56 61  1  0
 57 65  1  0
 57 67  1  0
 58 60  1  0
 59 65  1  0
 60 61  2  0
 60 59  1  0
 62 56  2  0
 63 62  1  0
 63 58  2  0
 64 58  1  0
 64 57  1  0
 65 55  1  0
 67 69  2  0
 68 67  1  0
 70 68  1  0
 71 80  2  0
 71 76  1  0
 72 68  1  0
 72 76  1  0
 73 72  1  0
 74 75  1  0
 74 73  1  0
 75 71  1  0
 76 77  2  0
 77 78  1  0
 79 78  2  0
 80 79  1  0
 81 55  1  0
 81 82  1  0
 81 91  1  0
 82 85  1  0
 83 87  1  0
 83 82  1  0
 84 83  2  0
 87 86  1  0
 89 87  1  0
 89 90  1  0
 89 88  1  0
 91 94  1  1
 91 92  1  0
 93 91  1  0
M  ISO  4   9 100  17 100  53 101  54 101
M  END
>  <TORSDO>  (78) 
F 22

>  <SCORE>  (78) 
-12.433

>  <name>  (78) 
77

>  <ligand_id>  (78) 
77

>  <original_smiles>  (78) 
[H]c1c([H])c([H])c2c(c1[H])C([H])([H])C([H])([H])C([H])([H])C2([H])N([H])C(=O)C1([H])N(C(=O)C([H])(N([H])C(=O)C([H])(N([H])C([H])([H])[H])C([H])([H])[H])C(C([H])([H])[H])(C([H])([H])[H])C([H])([H])[H])C([H])([H])c2c([H])c(OC([H])([H])C([H])([H])C([H])([H])C([H])([H])Oc3c(F)c([H])c(N([H])C(=O)N4C([H])([H])C([H])([H])C([H])([H])C([H])(n5nc(-c6c([H])c([H])c(Oc7c([H])c([H])c(F)c([H])c7F)c([H])c6[H])c(C(=O)N([H])[H])c5N([H])[H])C4([H])[H])c(C([H])([H])C([H])([H])[H])c3F)c([H])c([H])c2C1([H])[H]

>  <smiles>  (78) 
[H]c1c([H])c([H])c2c(c1[H])C([H])([H])C([H])([H])C([H])([H])C2([H])N([H])C(=O)C1([H])N(C(=O)C([H])(N([H])C(=O)C([H])(N([H])C([H])([H])[H])C([H])([H])[H])C(C([H])([H])[H])(C([H])([H])[H])C([H])([H])[H])C([H])([H])c2c([H])c(OC([H])([H])C([H])([H])C([H])([H])C([H])([H])Oc3c(F)c([H])c(N([H])C(=O)N4C([H])([H])C([H])([H])C([H])([H])C([H])(n5nc(-c6c([H])c([H])c(Oc7c([H])c([H])c(F)c([H])c7F)c([H])c6[H])c(C(=O)N([H])[H])c5N([H])[H])C4([H])[H])c(C([H])([H])C([H])([H])[H])c3F)c([H])c([H])c2C1([H])[H]

$$$$
78:0:0
     RDKit          3D

 92100  0  0  1  0  0  0  0  0999 V2000
  -30.0740  -20.5310   20.4350 C   0  0  0  0  0  3  0  0  0  0  0  0
  -30.2760  -21.6250   19.6880 C   0  0  0  0  0  3  0  0  0  0  0  0
  -30.0630  -18.0780   20.7520 C   0  0  0  0  0  3  0  0  0  0  0  0
  -29.7650  -18.9690   18.4980 C   0  0  0  0  0  3  0  0  0  0  0  0
  -29.6600  -16.5820   18.8670 C   0  0  0  0  0  3  0  0  0  0  0  0
  -29.9670  -19.1830   19.8830 C   0  0  0  0  0  0  0  0  0  0  0  0
  -29.9280  -16.7760   20.2440 C   0  0  0  0  0  0  0  0  0  0  0  0
  -29.6050  -17.6750   17.9930 C   0  0  0  0  0  0  0  0  0  0  0  0
  -29.3890  -17.4820   16.6690 F   0  0  0  0  0  0  0  0  0  0  0  0
  -30.8720  -14.6640   20.8110 C   0  0  0  0  0  0  0  0  0  0  0  0
  -30.6740  -12.5100   19.6650 C   0  0  0  0  0  2  0  0  0  0  0  0
  -29.7950  -12.7120   18.4130 C   0  0  0  0  0  2  0  0  0  0  0  0
  -28.2930  -12.6120   18.7580 C   0  0  0  0  0  2  0  0  0  0  0  0
  -27.8880  -13.4210   20.0240 C   0  0  0  0  0  3  0  0  0  0  0  0
  -28.8860  -13.1750   21.1800 C   0  0  0  0  0  2  0  0  0  0  0  0
  -30.2400  -13.4720   20.6840 N   0  0  0  0  0  0  0  0  0  0  0  0
  -32.0330  -14.8790   20.4520 O   0  0  0  0  0  0  0  0  0  0  0  0
  -30.0500  -15.6720   21.1160 N   0  0  0  0  0  0  0  0  0  0  0  0
  -29.1890  -15.3740   21.5470 H   0  0  0  0  0  0  0  0  0  0  0  0
  -25.4400  -14.0040   20.5810 C   0  0  0  0  0  0  0  0  0  0  0  0
  -24.3660  -13.2170   20.8980 C   0  0  0  0  0  0  0  0  0  0  0  0
  -24.8520  -11.8740   20.9080 C   0  0  0  0  0  0  0  0  0  0  0  0
  -26.5120  -13.1380   20.4240 N   0  0  0  0  0  0  0  0  0  0  0  0
  -26.1570  -11.8540   20.6760 N   0  0  0  0  0  0  0  0  0  0  0  0
  -24.1430  -10.6010   21.0710 C   0  0  0  0  0  0  0  0  0  0  0  0
  -24.5260   -9.6660   22.0560 C   0  0  0  0  0  3  0  0  0  0  0  0
  -23.8190   -8.4540   22.2070 C   0  0  0  0  0  3  0  0  0  0  0  0
  -22.7140   -8.1680   21.3700 C   0  0  0  0  0  0  0  0  0  0  0  0
  -22.3510   -9.0920   20.3750 C   0  0  0  0  0  3  0  0  0  0  0  0
  -23.0580  -10.2970   20.2240 C   0  0  0  0  0  3  0  0  0  0  0  0
  -21.9830   -7.0070   21.4270 O   0  0  0  0  0  0  0  0  0  0  0  0
  -21.8460   -6.3000   22.5950 C   0  0  0  0  0  0  0  0  0  0  0  0
  -21.2500   -6.8650   23.7430 C   0  0  0  0  0  3  0  0  0  0  0  0
  -21.0680   -6.0800   24.8990 C   0  0  0  0  0  3  0  0  0  0  0  0
  -21.4680   -4.7300   24.9050 C   0  0  0  0  0  0  0  0  0  0  0  0
  -22.0520   -4.1650   23.7580 C   0  0  0  0  0  3  0  0  0  0  0  0
  -22.2390   -4.9470   22.6050 C   0  0  0  0  0  0  0  0  0  0  0  0
  -22.7840   -4.3910   21.4970 F   0  0  0  0  0  0  0  0  0  0  0  0
  -21.2850   -3.9720   26.0110 F   0  0  0  0  0  0  0  0  0  0  0  0
  -22.9470  -13.6680   21.0880 C   0  0  0  0  0  0  0  0  0  0  0  0
  -22.1890  -12.9630   21.9190 N   0  0  0  0  0  0  0  0  0  0  0  0
  -22.5170  -14.6810   20.5370 O   0  0  0  0  0  0  0  0  0  0  0  0
  -22.5520  -12.1440   22.3860 H   0  0  0  0  0  0  0  0  0  0  0  0
  -21.2330  -13.2420   22.0910 H   0  0  0  0  0  0  0  0  0  0  0  0
  -25.5920  -15.3770   20.3950 N   0  0  0  0  0  0  0  0  0  0  0  0
  -24.8090  -16.0160   20.4600 H   0  0  0  0  0  0  0  0  0  0  0  0
  -26.4500  -15.8280   20.1060 H   0  0  0  0  0  0  0  0  0  0  0  0
  -30.2580  -22.9550   20.2210 C   0  0  0  0  0  3  0  0  0  0  0  0
  -30.3300  -24.0030   19.3950 C   0  0  0  0  0  3  0  0  0  0  0  0
  -30.2020  -25.4270   19.8400 C   0  0  0  0  0  2  0  0  0  0  0  0
  -28.7680  -25.8850   19.6030 C   0  0  0  0  0  2  0  0  0  0  0  0
  -28.6420  -27.1260   20.2530 O   0  0  0  0  0  0  0  0  0  0  0  0
  -24.6450  -32.0200   23.3960 C   0  0  0  0  0  0  0  0  0  0  0  0
  -27.4150  -27.7340   20.2510 C   0  0  0  0  0  0  0  0  0  0  0  0
  -23.4870  -30.6390   21.7000 C   0  0  0  0  0  3  0  0  0  0  0  0
  -24.9840  -29.1570   20.2710 C   0  0  0  0  0  0  0  0  0  0  0  0
  -26.0040  -31.0470   21.5540 C   0  0  0  0  0  2  0  0  0  0  0  0
  -26.1170  -29.6930   20.8930 C   0  0  0  0  0  0  0  0  0  0  0  0
  -27.3300  -28.9820   20.8930 C   0  0  0  0  0  3  0  0  0  0  0  0
  -26.2630  -27.1920   19.6320 C   0  0  0  0  0  3  0  0  0  0  0  0
  -25.0470  -27.9000   19.6450 C   0  0  0  0  0  3  0  0  0  0  0  0
  -23.7300  -29.9970   20.3070 C   0  0  0  0  0  2  0  0  0  0  0  0
  -24.7280  -31.2500   22.2760 N   0  0  0  0  0  0  0  0  0  0  0  0
  -23.5510  -32.2620   23.9250 O   0  0  0  0  0  0  0  0  0  0  0  0
  -22.8380  -29.5840   22.6240 C   0  0  0  0  0  0  0  0  0  0  0  0
  -21.5330  -29.3420   22.4290 N   0  0  0  0  0  0  0  0  0  0  0  0
  -23.5090  -28.9870   23.4710 O   0  0  0  0  0  0  0  0  0  0  0  0
  -21.0520  -29.8820   21.7240 H   0  0  0  0  0  0  0  0  0  0  0  0
  -18.2000  -27.9930   22.7420 C   0  0  0  0  0  0  0  0  0  0  0  0
  -20.7230  -28.3660   23.1560 C   0  0  0  0  0  3  0  0  0  0  0  0
  -20.9230  -26.9420   22.5890 C   0  0  0  0  0  2  0  0  0  0  0  0
  -19.8950  -26.5700   21.5160 C   0  0  0  0  0  2  0  0  0  0  0  0
  -18.4760  -26.6520   22.0830 C   0  0  0  0  0  2  0  0  0  0  0  0
  -19.2570  -28.8040   23.2330 C   0  0  0  0  0  0  0  0  0  0  0  0
  -18.9490  -30.0570   23.8070 C   0  0  0  0  0  3  0  0  0  0  0  0
  -17.6150  -30.5000   23.8950 C   0  0  0  0  0  3  0  0  0  0  0  0
  -16.5720  -29.6870   23.4210 C   0  0  0  0  0  3  0  0  0  0  0  0
  -16.8630  -28.4350   22.8500 C   0  0  0  0  0  3  0  0  0  0  0  0
  -25.9130  -32.6550   24.0500 C   0  0  0  0  0  3  0  0  0  0  0  0
  -26.3860  -31.9010   25.3520 C   0  0  1  0  0  0  0  0  0  0  0  0
  -25.2510  -31.6390   26.3690 C   0  0  0  0  0  1  0  0  0  0  0  0
  -27.0160  -30.5350   24.9930 C   0  0  0  0  0  1  0  0  0  0  0  0
  -27.4850  -32.7220   26.0650 C   0  0  0  0  0  1  0  0  0  0  0  0
  -25.6030  -34.0600   24.3410 N   0  0  0  0  0  0  0  0  0  0  0  0
  -25.9640  -35.0930   23.5680 C   0  0  0  0  0  0  0  0  0  0  0  0
  -26.6690  -34.9640   22.5620 O   0  0  0  0  0  0  0  0  0  0  0  0
  -24.9790  -34.2350   25.1140 H   0  0  0  0  0  0  0  0  0  0  0  0
  -24.2560  -36.8810   23.1160 C   0  0  0  0  0  1  0  0  0  0  0  0
  -25.4680  -36.4920   23.9780 C   0  0  0  0  0  3  0  0  0  0  0  0
  -27.5730  -37.3920   24.8660 C   0  0  0  0  0  1  0  0  0  0  0  0
  -26.5060  -37.5400   23.8780 N   0  0  0  0  0  0  0  0  0  0  0  0
  -26.0970  -38.4630   23.9920 H   0  0  0  0  0  0  0  0  0  0  0  0
  2 48  1  0
  2  1  2  0
  4  6  1  0
  5  7  2  0
  6  1  1  0
  6  3  2  0
  7  3  1  0
  7 18  1  0
  8  4  2  0
  8  5  1  0
  9  8  1  0
 10 18  1  0
 11 16  1  0
 12 13  1  0
 12 11  1  0
 14 13  1  0
 14 23  1  0
 14 15  1  0
 16 10  1  0
 16 15  1  0
 17 10  2  0
 18 19  1  0
 20 21  2  0
 21 22  1  0
 21 40  1  0
 22 25  1  0
 23 20  1  0
 23 24  1  0
 24 22  2  0
 25 26  1  0
 26 27  2  0
 28 31  1  0
 28 27  1  0
 29 28  2  0
 30 29  1  0
 30 25  2  0
 31 32  1  0
 32 37  2  0
 32 33  1  0
 33 34  2  0
 34 35  1  0
 35 39  1  0
 36 35  2  0
 37 36  1  0
 38 37  1  0
 40 41  1  0
 41 44  1  0
 41 43  1  0
 42 40  2  0
 45 46  1  0
 45 20  1  0
 47 45  1  0
 49 50  1  0
 49 48  2  0
 51 50  1  0
 51 52  1  0
 53 64  2  0
 54 52  1  0
 54 59  1  0
 55 63  1  0
 55 65  1  0
 56 62  1  0
 56 58  1  0
 57 63  1  0
 58 57  1  0
 59 58  2  0
 60 61  1  0
 60 54  2  0
 61 56  2  0
 62 55  1  0
 63 53  1  0
 65 67  2  0
 66 65  1  0
 68 66  1  0
 69 78  2  0
 69 74  1  0
 70 66  1  0
 70 74  1  0
 71 70  1  0
 72 73  1  0
 72 71  1  0
 73 69  1  0
 74 75  2  0
 75 76  1  0
 77 76  2  0
 78 77  1  0
 79 53  1  0
 79 84  1  0
 79 80  1  0
 80 83  1  1
 80 81  1  0
 82 80  1  0
 84 87  1  0
 85 89  1  0
 85 84  1  0
 86 85  2  0
 89 88  1  0
 91 89  1  0
 91 92  1  0
 91 90  1  0
M  ISO  4  10 100  18 100  51 101  52 101
M  END
>  <TORSDO>  (79) 
F 20

>  <SCORE>  (79) 
-12.948

>  <name>  (79) 
78

>  <ligand_id>  (79) 
78

>  <original_smiles>  (79) 
[H]C(C([H])=C([H])C([H])([H])C([H])([H])Oc1c([H])c([H])c2c(c1[H])C([H])([H])N(C(=O)C([H])(N([H])C(=O)C([H])(N([H])C([H])([H])[H])C([H])([H])[H])C(C([H])([H])[H])(C([H])([H])[H])C([H])([H])[H])C([H])(C(=O)N([H])C1([H])c3c([H])c([H])c([H])c([H])c3C([H])([H])C([H])([H])C1([H])[H])C2([H])[H])=C([H])c1c([H])c(F)c([H])c(N([H])C(=O)N2C([H])([H])C([H])([H])C([H])([H])C([H])(n3nc(-c4c([H])c([H])c(Oc5c([H])c([H])c(F)c([H])c5F)c([H])c4[H])c(C(=O)N([H])[H])c3N([H])[H])C2([H])[H])c1[H]

>  <smiles>  (79) 
[H]C(C([H])=C([H])C([H])([H])C([H])([H])Oc1c([H])c([H])c2c(c1[H])C([H])([H])N(C(=O)C([H])(N([H])C(=O)C([H])(N([H])C([H])([H])[H])C([H])([H])[H])C(C([H])([H])[H])(C([H])([H])[H])C([H])([H])[H])C([H])(C(=O)N([H])C1([H])c3c([H])c([H])c([H])c([H])c3C([H])([H])C([H])([H])C1([H])[H])C2([H])[H])=C([H])c1c([H])c(F)c([H])c(N([H])C(=O)N2C([H])([H])C([H])([H])C([H])([H])C([H])(n3nc(-c4c([H])c([H])c(Oc5c([H])c([H])c(F)c([H])c5F)c([H])c4[H])c(C(=O)N([H])[H])c3N([H])[H])C2([H])[H])c1[H]

$$$$
79:0:0
     RDKit          3D

 93101  0  0  1  0  0  0  0  0999 V2000
  -29.8120  -18.0410   17.5080 C   0  0  0  0  0  3  0  0  0  0  0  0
  -30.0650  -16.9770   18.3830 C   0  0  0  0  0  3  0  0  0  0  0  0
  -29.2290  -19.2220   17.9800 C   0  0  0  0  0  3  0  0  0  0  0  0
  -28.9870  -18.1960   20.1900 C   0  0  0  0  0  0  0  0  0  0  0  0
  -29.7270  -17.0280   19.7660 C   0  0  0  0  0  0  0  0  0  0  0  0
  -28.8160  -19.3260   19.3260 C   0  0  0  0  0  0  0  0  0  0  0  0
  -28.2880  -18.2720   21.5390 C   0  0  0  0  0  1  0  0  0  0  0  0
  -30.8180  -14.8380   20.1440 C   0  0  0  0  0  0  0  0  0  0  0  0
  -30.5300  -12.5950   19.1570 C   0  0  0  0  0  2  0  0  0  0  0  0
  -29.5600  -12.6660   17.9630 C   0  0  0  0  0  2  0  0  0  0  0  0
  -28.1060  -12.5070   18.4420 C   0  0  0  0  0  2  0  0  0  0  0  0
  -27.7630  -13.4330   19.6410 C   0  0  0  0  0  3  0  0  0  0  0  0
  -28.8490  -13.3680   20.7350 C   0  0  0  0  0  2  0  0  0  0  0  0
  -30.1410  -13.6570   20.1000 N   0  0  0  0  0  0  0  0  0  0  0  0
  -31.9430  -14.9630   19.6470 O   0  0  0  0  0  0  0  0  0  0  0  0
  -30.1750  -15.9340   20.6500 N   0  0  0  0  0  0  0  0  0  0  0  0
  -25.4040  -14.0140   20.4790 C   0  0  0  0  0  0  0  0  0  0  0  0
  -24.3530  -13.2290   20.8740 C   0  0  0  0  0  0  0  0  0  0  0  0
  -24.8120  -11.8790   20.7860 C   0  0  0  0  0  0  0  0  0  0  0  0
  -26.4360  -13.1400   20.1770 N   0  0  0  0  0  0  0  0  0  0  0  0
  -26.0880  -11.8490   20.4210 N   0  0  0  0  0  0  0  0  0  0  0  0
  -24.0930  -10.6120   20.9740 C   0  0  0  0  0  0  0  0  0  0  0  0
  -24.5420   -9.6370   21.8930 C   0  0  0  0  0  3  0  0  0  0  0  0
  -23.8240   -8.4360   22.0690 C   0  0  0  0  0  3  0  0  0  0  0  0
  -22.6420   -8.1990   21.3270 C   0  0  0  0  0  0  0  0  0  0  0  0
  -22.2130   -9.1620   20.3980 C   0  0  0  0  0  3  0  0  0  0  0  0
  -22.9310  -10.3550   20.2180 C   0  0  0  0  0  3  0  0  0  0  0  0
  -21.8940   -7.0500   21.4140 O   0  0  0  0  0  0  0  0  0  0  0  0
  -21.8330   -6.3150   22.5710 C   0  0  0  0  0  0  0  0  0  0  0  0
  -21.3560   -6.8660   23.7810 C   0  0  0  0  0  3  0  0  0  0  0  0
  -21.2470   -6.0570   24.9290 C   0  0  0  0  0  3  0  0  0  0  0  0
  -21.6050   -4.6960   24.8680 C   0  0  0  0  0  0  0  0  0  0  0  0
  -22.0760   -4.1450   23.6630 C   0  0  0  0  0  3  0  0  0  0  0  0
  -22.1860   -4.9520   22.5170 C   0  0  0  0  0  0  0  0  0  0  0  0
  -22.6200   -4.4110   21.3530 F   0  0  0  0  0  0  0  0  0  0  0  0
  -21.4940   -3.9150   25.9680 F   0  0  0  0  0  0  0  0  0  0  0  0
  -22.9690  -13.6980   21.2210 C   0  0  0  0  0  0  0  0  0  0  0  0
  -22.2880  -12.9880   22.1130 N   0  0  0  0  0  0  0  0  0  0  0  0
  -22.5020  -14.7280   20.7360 O   0  0  0  0  0  0  0  0  0  0  0  0
  -22.6780  -12.1540   22.5280 H   0  0  0  0  0  0  0  0  0  0  0  0
  -21.3620  -13.2830   22.3880 H   0  0  0  0  0  0  0  0  0  0  0  0
  -25.5620  -15.3880   20.3330 N   0  0  0  0  0  0  0  0  0  0  0  0
  -24.8080  -16.0430   20.5020 H   0  0  0  0  0  0  0  0  0  0  0  0
  -26.4100  -15.8360   20.0060 H   0  0  0  0  0  0  0  0  0  0  0  0
  -30.5990  -16.2060   22.0440 C   0  0  0  0  0  2  0  0  0  0  0  0
  -30.8550  -18.4930   23.1140 C   0  0  0  0  0  2  0  0  0  0  0  0
  -31.2360  -17.5780   22.2090 C   0  0  0  0  0  3  0  0  0  0  0  0
  -28.2430  -20.4930   19.8260 O   0  0  0  0  0  0  0  0  0  0  0  0
  -28.3570  -21.7140   19.0670 C   0  0  0  0  0  2  0  0  0  0  0  0
  -28.0020  -22.9670   19.9090 C   0  0  0  0  0  2  0  0  0  0  0  0
  -28.1370  -24.3220   19.1530 C   0  0  0  0  0  2  0  0  0  0  0  0
  -27.9260  -25.5640   20.0580 C   0  0  0  0  0  2  0  0  0  0  0  0
  -27.9710  -26.8280   19.3620 O   0  0  0  0  0  0  0  0  0  0  0  0
  -24.5190  -31.7570   23.1890 C   0  0  0  0  0  0  0  0  0  0  0  0
  -26.8430  -27.6080   19.5010 C   0  0  0  0  0  0  0  0  0  0  0  0
  -23.1750  -30.5520   21.4990 C   0  0  0  0  0  3  0  0  0  0  0  0
  -24.4940  -29.1480   19.8250 C   0  0  0  0  0  0  0  0  0  0  0  0
  -25.6890  -30.8910   21.1640 C   0  0  0  0  0  2  0  0  0  0  0  0
  -25.7020  -29.5920   20.3800 C   0  0  0  0  0  0  0  0  0  0  0  0
  -26.8830  -28.8320   20.2080 C   0  0  0  0  0  3  0  0  0  0  0  0
  -25.6220  -27.1830   18.9390 C   0  0  0  0  0  3  0  0  0  0  0  0
  -24.4490  -27.9440   19.1010 C   0  0  0  0  0  3  0  0  0  0  0  0
  -23.2750  -30.0160   20.0450 C   0  0  0  0  0  2  0  0  0  0  0  0
  -24.4840  -31.0750   22.0080 N   0  0  0  0  0  0  0  0  0  0  0  0
  -23.4830  -31.9870   23.8270 O   0  0  0  0  0  0  0  0  0  0  0  0
  -22.5660  -29.4470   22.3930 C   0  0  0  0  0  0  0  0  0  0  0  0
  -21.2380  -29.2670   22.3010 N   0  0  0  0  0  0  0  0  0  0  0  0
  -23.2840  -28.7580   23.1230 O   0  0  0  0  0  0  0  0  0  0  0  0
  -20.7190  -29.8770   21.6850 H   0  0  0  0  0  0  0  0  0  0  0  0
  -17.8990  -27.9720   22.7800 C   0  0  0  0  0  0  0  0  0  0  0  0
  -20.4570  -28.2600   23.0180 C   0  0  0  0  0  3  0  0  0  0  0  0
  -20.5730  -26.8760   22.3380 C   0  0  0  0  0  2  0  0  0  0  0  0
  -19.4550  -26.6060   21.3250 C   0  0  0  0  0  2  0  0  0  0  0  0
  -18.0850  -26.6780   22.0050 C   0  0  0  0  0  2  0  0  0  0  0  0
  -19.0120  -28.7220   23.2430 C   0  0  0  0  0  0  0  0  0  0  0  0
  -18.7840  -29.9360   23.9260 C   0  0  0  0  0  3  0  0  0  0  0  0
  -17.4740  -30.4000   24.1530 C   0  0  0  0  0  3  0  0  0  0  0  0
  -16.3750  -29.6450   23.7080 C   0  0  0  0  0  3  0  0  0  0  0  0
  -16.5890  -28.4330   23.0270 C   0  0  0  0  0  3  0  0  0  0  0  0
  -25.8580  -32.3010   23.7800 C   0  0  0  0  0  3  0  0  0  0  0  0
  -25.6140  -33.6760   24.2360 N   0  0  0  0  0  0  0  0  0  0  0  0
  -25.9760  -34.7750   23.5610 C   0  0  0  0  0  0  0  0  0  0  0  0
  -26.6210  -34.7340   22.5110 O   0  0  0  0  0  0  0  0  0  0  0  0
  -25.0420  -33.7830   25.0600 H   0  0  0  0  0  0  0  0  0  0  0  0
  -24.3370  -36.6740   23.3740 C   0  0  0  0  0  1  0  0  0  0  0  0
  -25.5540  -36.1370   24.1460 C   0  0  0  0  0  3  0  0  0  0  0  0
  -27.7220  -36.8370   25.0610 C   0  0  0  0  0  1  0  0  0  0  0  0
  -26.6370  -37.1450   24.1330 N   0  0  0  0  0  0  0  0  0  0  0  0
  -26.2740  -38.0650   24.3630 H   0  0  0  0  0  0  0  0  0  0  0  0
  -26.4230  -31.4140   24.9570 C   0  0  1  0  0  0  0  0  0  0  0  0
  -25.3890  -31.1250   26.0690 C   0  0  0  0  0  1  0  0  0  0  0  0
  -26.9330  -30.0560   24.4220 C   0  0  0  0  0  1  0  0  0  0  0  0
  -27.6380  -32.1180   25.6070 C   0  0  0  0  0  1  0  0  0  0  0  0
  1  3  2  0
  1  2  1  0
  2  5  2  0
  3  6  1  0
  4  7  1  0
  5  4  1  0
  5 16  1  0
  6 48  1  0
  6  4  2  0
  8 16  1  0
  9 14  1  0
 10 11  1  0
 10  9  1  0
 12 11  1  0
 12 20  1  0
 12 13  1  0
 14  8  1  0
 14 13  1  0
 15  8  2  0
 16 45  1  0
 17 18  2  0
 18 37  1  0
 19 18  1  0
 19 22  1  0
 20 21  1  0
 20 17  1  0
 21 19  2  0
 22 23  1  0
 23 24  2  0
 25 28  1  0
 25 24  1  0
 26 25  2  0
 27 26  1  0
 27 22  2  0
 28 29  1  0
 29 30  1  0
 30 31  2  0
 32 31  1  0
 32 36  1  0
 33 32  2  0
 34 29  2  0
 34 33  1  0
 35 34  1  0
 37 38  1  0
 38 41  1  0
 38 40  1  0
 39 37  2  0
 42 17  1  0
 42 43  1  0
 44 42  1  0
 45 47  1  0
 47 46  2  0
 49 48  1  0
 49 50  1  0
 51 50  1  0
 51 52  1  0
 53 55  1  0
 53 52  1  0
 54 65  2  0
 55 60  1  0
 56 64  1  0
 56 66  1  0
 57 63  1  0
 57 59  1  0
 58 64  1  0
 59 58  1  0
 60 59  2  0
 61 62  1  0
 61 55  2  0
 62 57  2  0
 63 56  1  0
 64 54  1  0
 66 68  2  0
 67 66  1  0
 69 67  1  0
 70 79  2  0
 70 75  1  0
 71 67  1  0
 71 75  1  0
 72 71  1  0
 73 74  1  0
 73 72  1  0
 74 70  1  0
 75 76  2  0
 76 77  1  0
 78 77  2  0
 79 78  1  0
 80 54  1  0
 80 81  1  0
 80 90  1  0
 81 84  1  0
 82 86  1  0
 82 81  1  0
 83 82  2  0
 86 85  1  0
 88 86  1  0
 88 89  1  0
 88 87  1  0
 90 93  1  1
 90 91  1  0
 92 90  1  0
M  ISO  4   8 100  16 100  52 101  53 101
M  END
>  <TORSDO>  (80) 
F 23

>  <SCORE>  (80) 
-10.280

>  <name>  (80) 
79

>  <ligand_id>  (80) 
79

>  <original_smiles>  (80) 
[H]C([H])=C([H])C([H])([H])N(C(=O)N1C([H])([H])C([H])([H])C([H])([H])C([H])(n2nc(-c3c([H])c([H])c(Oc4c([H])c([H])c(F)c([H])c4F)c([H])c3[H])c(C(=O)N([H])[H])c2N([H])[H])C1([H])[H])c1c([H])c([H])c([H])c(OC([H])([H])C([H])([H])C([H])([H])C([H])([H])Oc2c([H])c([H])c3c(c2[H])C([H])([H])N(C(=O)C([H])(N([H])C(=O)C([H])(N([H])C([H])([H])[H])C([H])([H])[H])C(C([H])([H])[H])(C([H])([H])[H])C([H])([H])[H])C([H])(C(=O)N([H])C2([H])c4c([H])c([H])c([H])c([H])c4C([H])([H])C([H])([H])C2([H])[H])C3([H])[H])c1C([H])([H])[H]

>  <smiles>  (80) 
[H]C([H])=C([H])C([H])([H])N(C(=O)N1C([H])([H])C([H])([H])C([H])([H])C([H])(n2nc(-c3c([H])c([H])c(Oc4c([H])c([H])c(F)c([H])c4F)c([H])c3[H])c(C(=O)N([H])[H])c2N([H])[H])C1([H])[H])c1c([H])c([H])c([H])c(OC([H])([H])C([H])([H])C([H])([H])C([H])([H])Oc2c([H])c([H])c3c(c2[H])C([H])([H])N(C(=O)C([H])(N([H])C(=O)C([H])(N([H])C([H])([H])[H])C([H])([H])[H])C(C([H])([H])[H])(C([H])([H])[H])C([H])([H])[H])C([H])(C(=O)N([H])C2([H])c4c([H])c([H])c([H])c([H])c4C([H])([H])C([H])([H])C2([H])[H])C3([H])[H])c1C([H])([H])[H]

$$$$
80:0:0
     RDKit          3D

 88 96  0  0  1  0  0  0  0  0999 V2000
  -30.5020  -18.9090   19.3730 C   0  0  0  0  0  3  0  0  0  0  0  0
  -30.4030  -20.3190   19.0170 C   0  0  0  0  0  0  0  0  0  0  0  0
  -29.7700  -18.5220   20.4680 C   0  0  0  0  0  0  0  0  0  0  0  0
  -29.5650  -21.0960   19.8130 C   0  0  0  0  0  0  0  0  0  0  0  0
  -31.1600  -20.8700   17.8420 C   0  0  0  0  0  1  0  0  0  0  0  0
  -28.9390  -20.0060   21.0790 S   0  0  0  0  0  0  0  0  0  0  0  0
  -29.5850  -17.2020   21.1440 C   0  0  0  0  0  3  0  0  0  0  0  0
  -29.8210  -15.8230   21.1810 C   0  0  0  0  0  3  0  0  0  0  0  0
  -30.5630  -14.7770   20.3870 C   0  0  0  0  0  0  0  0  0  0  0  0
  -30.4010  -12.5240   19.2680 C   0  0  0  0  0  2  0  0  0  0  0  0
  -29.4520  -12.6130   18.0480 C   0  0  0  0  0  2  0  0  0  0  0  0
  -27.9790  -12.4340   18.4670 C   0  0  0  0  0  2  0  0  0  0  0  0
  -27.6130  -13.2880   19.7090 C   0  0  0  0  0  3  0  0  0  0  0  0
  -28.6650  -13.1120   20.8230 C   0  0  0  0  0  2  0  0  0  0  0  0
  -29.9690  -13.5300   20.2720 N   0  0  0  0  0  0  0  0  0  0  0  0
  -31.6720  -14.9610   19.8740 O   0  0  0  0  0  0  0  0  0  0  0  0
  -25.2150  -13.8920   20.4010 C   0  0  0  0  0  0  0  0  0  0  0  0
  -24.1460  -13.1230   20.7740 C   0  0  0  0  0  0  0  0  0  0  0  0
  -24.6110  -11.7730   20.7690 C   0  0  0  0  0  0  0  0  0  0  0  0
  -26.2620  -13.0090   20.1870 N   0  0  0  0  0  0  0  0  0  0  0  0
  -25.9040  -11.7300   20.4690 N   0  0  0  0  0  0  0  0  0  0  0  0
  -23.8850  -10.5120   20.9760 C   0  0  0  0  0  0  0  0  0  0  0  0
  -24.3200   -9.5560   21.9200 C   0  0  0  0  0  3  0  0  0  0  0  0
  -23.5950   -8.3600   22.1150 C   0  0  0  0  0  3  0  0  0  0  0  0
  -22.4210   -8.1120   21.3650 C   0  0  0  0  0  0  0  0  0  0  0  0
  -22.0040   -9.0580   20.4110 C   0  0  0  0  0  3  0  0  0  0  0  0
  -22.7300  -10.2450   20.2150 C   0  0  0  0  0  3  0  0  0  0  0  0
  -21.6690   -6.9670   21.4660 O   0  0  0  0  0  0  0  0  0  0  0  0
  -21.6310   -6.2310   22.6220 C   0  0  0  0  0  0  0  0  0  0  0  0
  -21.2260   -6.7950   23.8520 C   0  0  0  0  0  3  0  0  0  0  0  0
  -21.1350   -5.9840   25.0020 C   0  0  0  0  0  3  0  0  0  0  0  0
  -21.4410   -4.6120   24.9230 C   0  0  0  0  0  0  0  0  0  0  0  0
  -21.8390   -4.0480   23.6980 C   0  0  0  0  0  3  0  0  0  0  0  0
  -21.9320   -4.8560   22.5510 C   0  0  0  0  0  0  0  0  0  0  0  0
  -22.2950   -4.3030   21.3690 F   0  0  0  0  0  0  0  0  0  0  0  0
  -21.3450   -3.8320   26.0250 F   0  0  0  0  0  0  0  0  0  0  0  0
  -22.7460  -13.6020   21.0280 C   0  0  0  0  0  0  0  0  0  0  0  0
  -22.0140  -12.9200   21.9010 N   0  0  0  0  0  0  0  0  0  0  0  0
  -22.3100  -14.6180   20.4880 O   0  0  0  0  0  0  0  0  0  0  0  0
  -22.3790  -12.0990   22.3610 H   0  0  0  0  0  0  0  0  0  0  0  0
  -21.0750  -13.2250   22.1150 H   0  0  0  0  0  0  0  0  0  0  0  0
  -25.3810  -15.2600   20.2050 N   0  0  0  0  0  0  0  0  0  0  0  0
  -24.6190  -15.9220   20.3100 H   0  0  0  0  0  0  0  0  0  0  0  0
  -26.2460  -15.6940   19.9050 H   0  0  0  0  0  0  0  0  0  0  0  0
  -29.2600  -22.5590   19.5890 C   0  0  0  0  0  3  0  0  0  0  0  0
  -28.6810  -23.6750   20.1840 C   0  0  0  0  0  3  0  0  0  0  0  0
  -28.4830  -25.0960   19.4720 C   0  0  0  0  0  2  0  0  0  0  0  0
  -28.3680  -26.4000   20.2220 O   0  0  0  0  0  0  0  0  0  0  0  0
  -24.6400  -31.8750   23.2270 C   0  0  0  0  0  0  0  0  0  0  0  0
  -27.2490  -27.2740   20.1440 C   0  0  0  0  0  0  0  0  0  0  0  0
  -23.4370  -30.4810   21.5850 C   0  0  0  0  0  3  0  0  0  0  0  0
  -24.8860  -28.9330   20.1480 C   0  0  0  0  0  0  0  0  0  0  0  0
  -25.9820  -30.7840   21.4050 C   0  0  0  0  0  2  0  0  0  0  0  0
  -26.0600  -29.4040   20.7480 C   0  0  0  0  0  0  0  0  0  0  0  0
  -27.2370  -28.5860   20.7380 C   0  0  0  0  0  3  0  0  0  0  0  0
  -26.0380  -26.8680   19.5320 C   0  0  0  0  0  3  0  0  0  0  0  0
  -24.8810  -27.6730   19.5330 C   0  0  0  0  0  3  0  0  0  0  0  0
  -23.6520  -29.8120   20.2010 C   0  0  0  0  0  2  0  0  0  0  0  0
  -24.7060  -31.0650   22.1280 N   0  0  0  0  0  0  0  0  0  0  0  0
  -23.5560  -32.1520   23.7610 O   0  0  0  0  0  0  0  0  0  0  0  0
  -22.7730  -29.4620   22.5430 C   0  0  0  0  0  0  0  0  0  0  0  0
  -21.4450  -29.2930   22.4230 N   0  0  0  0  0  0  0  0  0  0  0  0
  -23.4520  -28.8290   23.3540 O   0  0  0  0  0  0  0  0  0  0  0  0
  -20.9550  -29.8560   21.7430 H   0  0  0  0  0  0  0  0  0  0  0  0
  -18.0640  -28.1040   22.9380 C   0  0  0  0  0  0  0  0  0  0  0  0
  -20.6260  -28.3530   23.1930 C   0  0  0  0  0  3  0  0  0  0  0  0
  -20.7190  -26.9240   22.6090 C   0  0  0  0  0  2  0  0  0  0  0  0
  -19.6100  -26.6110   21.6000 C   0  0  0  0  0  2  0  0  0  0  0  0
  -18.2330  -26.7580   22.2530 C   0  0  0  0  0  2  0  0  0  0  0  0
  -19.1890  -28.8600   23.3660 C   0  0  0  0  0  0  0  0  0  0  0  0
  -18.9770  -30.1190   23.9670 C   0  0  0  0  0  3  0  0  0  0  0  0
  -17.6750  -30.6230   24.1440 C   0  0  0  0  0  3  0  0  0  0  0  0
  -16.5660  -29.8640   23.7320 C   0  0  0  0  0  3  0  0  0  0  0  0
  -16.7610  -28.6060   23.1350 C   0  0  0  0  0  3  0  0  0  0  0  0
  -25.9210  -32.5080   23.8500 C   0  0  0  0  0  3  0  0  0  0  0  0
  -26.4360  -31.7360   25.1270 C   0  0  1  0  0  0  0  0  0  0  0  0
  -25.3440  -31.4980   26.1960 C   0  0  0  0  0  1  0  0  0  0  0  0
  -27.0180  -30.3570   24.7360 C   0  0  0  0  0  1  0  0  0  0  0  0
  -27.5880  -32.5290   25.7880 C   0  0  0  0  0  1  0  0  0  0  0  0
  -25.6080  -33.9060   24.1860 N   0  0  0  0  0  0  0  0  0  0  0  0
  -25.9350  -34.9630   23.4320 C   0  0  0  0  0  0  0  0  0  0  0  0
  -26.6010  -34.8650   22.3970 O   0  0  0  0  0  0  0  0  0  0  0  0
  -25.0150  -34.0550   24.9900 H   0  0  0  0  0  0  0  0  0  0  0  0
  -24.2010  -36.7560   23.0960 C   0  0  0  0  0  1  0  0  0  0  0  0
  -25.4480  -36.3490   23.8980 C   0  0  0  0  0  3  0  0  0  0  0  0
  -27.5870  -37.2360   24.7180 C   0  0  0  0  0  1  0  0  0  0  0  0
  -26.4780  -37.4050   23.7820 N   0  0  0  0  0  0  0  0  0  0  0  0
  -26.0720  -38.3240   23.9340 H   0  0  0  0  0  0  0  0  0  0  0  0
  1  3  2  0
  2  1  1  0
  2  4  2  0
  3  6  1  0
  3  7  1  0
  4  6  1  0
  5  2  1  0
  7  8  2  0
  9  8  1  0
 10 15  1  0
 11 12  1  0
 11 10  1  0
 13 12  1  0
 13 20  1  0
 13 14  1  0
 15  9  1  0
 15 14  1  0
 16  9  2  0
 17 18  2  0
 18 37  1  0
 19 18  1  0
 19 22  1  0
 20 17  1  0
 20 21  1  0
 21 19  2  0
 22 23  1  0
 23 24  2  0
 25 28  1  0
 25 24  1  0
 26 25  2  0
 27 26  1  0
 27 22  2  0
 28 29  1  0
 29 30  1  0
 30 31  2  0
 32 31  1  0
 32 36  1  0
 33 32  2  0
 34 29  2  0
 34 33  1  0
 35 34  1  0
 37 38  1  0
 38 41  1  0
 38 40  1  0
 39 37  2  0
 42 43  1  0
 42 17  1  0
 44 42  1  0
 45  4  1  0
 45 46  2  0
 47 46  1  0
 47 48  1  0
 49 60  2  0
 50 48  1  0
 50 55  1  0
 51 59  1  0
 51 61  1  0
 52 58  1  0
 52 54  1  0
 53 59  1  0
 54 53  1  0
 55 54  2  0
 56 57  1  0
 56 50  2  0
 57 52  2  0
 58 51  1  0
 59 49  1  0
 61 63  2  0
 62 61  1  0
 64 62  1  0
 65 74  2  0
 65 70  1  0
 66 62  1  0
 66 70  1  0
 67 66  1  0
 68 69  1  0
 68 67  1  0
 69 65  1  0
 70 71  2  0
 71 72  1  0
 73 72  2  0
 74 73  1  0
 75 49  1  0
 75 80  1  0
 75 76  1  0
 76 79  1  1
 76 77  1  0
 78 76  1  0
 80 83  1  0
 81 85  1  0
 81 80  1  0
 82 81  2  0
 85 84  1  0
 87 85  1  0
 87 88  1  0
 87 86  1  0
M  ISO  4   8 100   9 100  47 101  48 101
M  END
>  <TORSDO>  (81) 
F 19

>  <SCORE>  (81) 
-13.923

>  <name>  (81) 
80

>  <ligand_id>  (81) 
80

>  <original_smiles>  (81) 
[H]C(C(=O)N1C([H])([H])C([H])([H])C([H])([H])C([H])(n2nc(-c3c([H])c([H])c(Oc4c([H])c([H])c(F)c([H])c4F)c([H])c3[H])c(C(=O)N([H])[H])c2N([H])[H])C1([H])[H])=C([H])c1sc(C([H])=C([H])C([H])([H])Oc2c([H])c([H])c3c(c2[H])C([H])([H])N(C(=O)C([H])(N([H])C(=O)C([H])(N([H])C([H])([H])[H])C([H])([H])[H])C(C([H])([H])[H])(C([H])([H])[H])C([H])([H])[H])C([H])(C(=O)N([H])C2([H])c4c([H])c([H])c([H])c([H])c4C([H])([H])C([H])([H])C2([H])[H])C3([H])[H])c(C([H])([H])[H])c1[H]

>  <smiles>  (81) 
[H]C(C(=O)N1C([H])([H])C([H])([H])C([H])([H])C([H])(n2nc(-c3c([H])c([H])c(Oc4c([H])c([H])c(F)c([H])c4F)c([H])c3[H])c(C(=O)N([H])[H])c2N([H])[H])C1([H])[H])=C([H])c1sc(C([H])=C([H])C([H])([H])Oc2c([H])c([H])c3c(c2[H])C([H])([H])N(C(=O)C([H])(N([H])C(=O)C([H])(N([H])C([H])([H])[H])C([H])([H])[H])C(C([H])([H])[H])(C([H])([H])[H])C([H])([H])[H])C([H])(C(=O)N([H])C2([H])c4c([H])c([H])c([H])c([H])c4C([H])([H])C([H])([H])C2([H])[H])C3([H])[H])c(C([H])([H])[H])c1[H]

$$$$
81:0:0
     RDKit          3D

 89 97  0  0  1  0  0  0  0  0999 V2000
  -28.9110  -21.5270   21.2810 O   0  0  0  0  0  0  0  0  0  0  0  0
  -31.5040  -20.4540   18.8690 C   0  0  0  0  0  3  0  0  0  0  0  0
  -31.4870  -19.0650   19.0580 C   0  0  0  0  0  3  0  0  0  0  0  0
  -30.6350  -21.2670   19.6050 C   0  0  0  0  0  3  0  0  0  0  0  0
  -29.7300  -19.2800   20.7220 C   0  0  0  0  0  3  0  0  0  0  0  0
  -30.6210  -18.4420   19.9890 C   0  0  0  0  0  0  0  0  0  0  0  0
  -29.7360  -20.7010   20.5350 C   0  0  0  0  0  0  0  0  0  0  0  0
  -30.7960  -16.9560   20.0650 C   0  0  0  0  0  3  0  0  0  0  0  0
  -30.1210  -15.8830   20.5830 C   0  0  0  0  0  3  0  0  0  0  0  0
  -30.7650  -14.5570   20.3910 C   0  0  0  0  0  0  0  0  0  0  0  0
  -30.3710  -12.3580   19.3720 C   0  0  0  0  0  2  0  0  0  0  0  0
  -29.4650  -12.5450   18.1390 C   0  0  0  0  0  2  0  0  0  0  0  0
  -27.9890  -12.4120   18.5570 C   0  0  0  0  0  2  0  0  0  0  0  0
  -27.6330  -13.2830   19.7940 C   0  0  0  0  0  3  0  0  0  0  0  0
  -28.6880  -13.1700   20.9170 C   0  0  0  0  0  2  0  0  0  0  0  0
  -30.0120  -13.4170   20.3370 N   0  0  0  0  0  0  0  0  0  0  0  0
  -31.9550  -14.5000   20.0790 O   0  0  0  0  0  0  0  0  0  0  0  0
  -25.2370  -13.8610   20.5170 C   0  0  0  0  0  0  0  0  0  0  0  0
  -24.1740  -13.0830   20.8860 C   0  0  0  0  0  0  0  0  0  0  0  0
  -24.6430  -11.7340   20.8620 C   0  0  0  0  0  0  0  0  0  0  0  0
  -26.2860  -12.9880   20.2830 N   0  0  0  0  0  0  0  0  0  0  0  0
  -25.9360  -11.7040   20.5540 N   0  0  0  0  0  0  0  0  0  0  0  0
  -23.9230  -10.4680   21.0560 C   0  0  0  0  0  0  0  0  0  0  0  0
  -24.3630   -9.5000   21.9850 C   0  0  0  0  0  3  0  0  0  0  0  0
  -23.6400   -8.3010   22.1670 C   0  0  0  0  0  3  0  0  0  0  0  0
  -22.4630   -8.0610   21.4190 C   0  0  0  0  0  0  0  0  0  0  0  0
  -22.0420   -9.0170   20.4770 C   0  0  0  0  0  3  0  0  0  0  0  0
  -22.7660  -10.2070   20.2930 C   0  0  0  0  0  3  0  0  0  0  0  0
  -21.7110   -6.9140   21.5080 O   0  0  0  0  0  0  0  0  0  0  0  0
  -21.6770   -6.1640   22.6570 C   0  0  0  0  0  0  0  0  0  0  0  0
  -21.2670   -6.7120   23.8930 C   0  0  0  0  0  3  0  0  0  0  0  0
  -21.1810   -5.8880   25.0330 C   0  0  0  0  0  3  0  0  0  0  0  0
  -21.4930   -4.5190   24.9390 C   0  0  0  0  0  0  0  0  0  0  0  0
  -21.8970   -3.9720   23.7080 C   0  0  0  0  0  3  0  0  0  0  0  0
  -21.9850   -4.7920   22.5700 C   0  0  0  0  0  0  0  0  0  0  0  0
  -22.3530   -4.2560   21.3820 F   0  0  0  0  0  0  0  0  0  0  0  0
  -21.4020   -3.7260   26.0320 F   0  0  0  0  0  0  0  0  0  0  0  0
  -22.7730  -13.5530   21.1520 C   0  0  0  0  0  0  0  0  0  0  0  0
  -22.0440  -12.8580   22.0190 N   0  0  0  0  0  0  0  0  0  0  0  0
  -22.3310  -14.5750   20.6270 O   0  0  0  0  0  0  0  0  0  0  0  0
  -22.4120  -12.0350   22.4720 H   0  0  0  0  0  0  0  0  0  0  0  0
  -21.1040  -13.1560   22.2350 H   0  0  0  0  0  0  0  0  0  0  0  0
  -25.3920  -15.2330   20.3370 N   0  0  0  0  0  0  0  0  0  0  0  0
  -24.6250  -15.8840   20.4510 H   0  0  0  0  0  0  0  0  0  0  0  0
  -26.2470  -15.6800   20.0300 H   0  0  0  0  0  0  0  0  0  0  0  0
  -28.2970  -22.6550   20.6120 C   0  0  0  0  0  2  0  0  0  0  0  0
  -28.8910  -24.0910   20.8320 C   0  0  0  0  0  2  0  0  0  0  0  0
  -28.0180  -25.1550   20.1050 C   0  0  0  0  0  2  0  0  0  0  0  0
  -28.2970  -26.5760   20.2730 O   0  0  0  0  0  0  0  0  0  0  0  0
  -24.5830  -31.9000   23.2680 C   0  0  0  0  0  0  0  0  0  0  0  0
  -27.1840  -27.4110   20.1810 C   0  0  0  0  0  0  0  0  0  0  0  0
  -23.3720  -30.5110   21.6230 C   0  0  0  0  0  3  0  0  0  0  0  0
  -24.8180  -28.9870   20.1820 C   0  0  0  0  0  0  0  0  0  0  0  0
  -25.9080  -30.8430   21.4380 C   0  0  0  0  0  2  0  0  0  0  0  0
  -25.9830  -29.4760   20.7850 C   0  0  0  0  0  0  0  0  0  0  0  0
  -27.1700  -28.6950   20.7860 C   0  0  0  0  0  3  0  0  0  0  0  0
  -26.0060  -26.9820   19.5220 C   0  0  0  0  0  3  0  0  0  0  0  0
  -24.8270  -27.7400   19.5440 C   0  0  0  0  0  3  0  0  0  0  0  0
  -23.5790  -29.8540   20.2370 C   0  0  0  0  0  2  0  0  0  0  0  0
  -24.6390  -31.1000   22.1660 N   0  0  0  0  0  0  0  0  0  0  0  0
  -23.5010  -32.1760   23.8070 O   0  0  0  0  0  0  0  0  0  0  0  0
  -22.7180  -29.4820   22.5740 C   0  0  0  0  0  0  0  0  0  0  0  0
  -21.3920  -29.3040   22.4480 N   0  0  0  0  0  0  0  0  0  0  0  0
  -23.4000  -28.8510   23.3870 O   0  0  0  0  0  0  0  0  0  0  0  0
  -20.9030  -29.8660   21.7650 H   0  0  0  0  0  0  0  0  0  0  0  0
  -18.0150  -28.1170   22.9420 C   0  0  0  0  0  0  0  0  0  0  0  0
  -20.5730  -28.3660   23.2150 C   0  0  0  0  0  3  0  0  0  0  0  0
  -20.6710  -26.9360   22.6370 C   0  0  0  0  0  2  0  0  0  0  0  0
  -19.5690  -26.6180   21.6220 C   0  0  0  0  0  2  0  0  0  0  0  0
  -18.1870  -26.7670   22.2650 C   0  0  0  0  0  2  0  0  0  0  0  0
  -19.1360  -28.8740   23.3750 C   0  0  0  0  0  0  0  0  0  0  0  0
  -18.9200  -30.1380   23.9670 C   0  0  0  0  0  3  0  0  0  0  0  0
  -17.6170  -30.6430   24.1320 C   0  0  0  0  0  3  0  0  0  0  0  0
  -16.5100  -29.8820   23.7170 C   0  0  0  0  0  3  0  0  0  0  0  0
  -16.7100  -28.6210   23.1270 C   0  0  0  0  0  3  0  0  0  0  0  0
  -25.8710  -32.5250   23.8870 C   0  0  0  0  0  3  0  0  0  0  0  0
  -25.5670  -33.9230   24.2210 N   0  0  0  0  0  0  0  0  0  0  0  0
  -25.8990  -34.9750   23.4620 C   0  0  0  0  0  0  0  0  0  0  0  0
  -26.5670  -34.8720   22.4290 O   0  0  0  0  0  0  0  0  0  0  0  0
  -24.9750  -34.0780   25.0230 H   0  0  0  0  0  0  0  0  0  0  0  0
  -24.1760  -36.7720   23.1090 C   0  0  0  0  0  1  0  0  0  0  0  0
  -25.4140  -36.3630   23.9220 C   0  0  0  0  0  3  0  0  0  0  0  0
  -27.5500  -37.2380   24.7560 C   0  0  0  0  0  1  0  0  0  0  0  0
  -26.4490  -37.4130   23.8130 N   0  0  0  0  0  0  0  0  0  0  0  0
  -26.0460  -38.3340   23.9650 H   0  0  0  0  0  0  0  0  0  0  0  0
  -26.3890  -31.7470   25.1590 C   0  0  1  0  0  0  0  0  0  0  0  0
  -25.2980  -31.5080   26.2290 C   0  0  0  0  0  1  0  0  0  0  0  0
  -26.9690  -30.3700   24.7620 C   0  0  0  0  0  1  0  0  0  0  0  0
  -27.5420  -32.5380   25.8210 C   0  0  0  0  0  1  0  0  0  0  0  0
  2  3  2  0
  2  4  1  0
  3  6  1  0
  4  7  2  0
  6  8  1  0
  6  5  2  0
  7  5  1  0
  7  1  1  0
  8  9  2  0
 10  9  1  0
 11 16  1  0
 12 13  1  0
 12 11  1  0
 14 13  1  0
 14 21  1  0
 14 15  1  0
 16 10  1  0
 16 15  1  0
 17 10  2  0
 18 19  2  0
 19 38  1  0
 20 19  1  0
 20 23  1  0
 21 18  1  0
 21 22  1  0
 22 20  2  0
 23 24  1  0
 24 25  2  0
 26 29  1  0
 26 25  1  0
 27 26  2  0
 28 27  1  0
 28 23  2  0
 29 30  1  0
 30 31  1  0
 31 32  2  0
 33 32  1  0
 33 37  1  0
 34 33  2  0
 35 30  2  0
 35 34  1  0
 36 35  1  0
 38 39  1  0
 39 42  1  0
 39 41  1  0
 40 38  2  0
 43 44  1  0
 43 18  1  0
 45 43  1  0
 46 47  1  0
 46  1  1  0
 48 49  1  0
 48 47  1  0
 50 61  2  0
 51 49  1  0
 51 56  1  0
 52 60  1  0
 52 62  1  0
 53 59  1  0
 53 55  1  0
 54 60  1  0
 55 56  2  0
 55 54  1  0
 57 58  1  0
 57 51  2  0
 58 53  2  0
 59 52  1  0
 60 50  1  0
 62 64  2  0
 63 62  1  0
 65 63  1  0
 66 75  2  0
 66 71  1  0
 67 63  1  0
 67 71  1  0
 68 67  1  0
 69 70  1  0
 69 68  1  0
 70 66  1  0
 71 72  2  0
 72 73  1  0
 74 73  2  0
 75 74  1  0
 76 50  1  0
 76 77  1  0
 76 86  1  0
 77 80  1  0
 78 82  1  0
 78 77  1  0
 79 78  2  0
 82 81  1  0
 84 82  1  0
 84 85  1  0
 84 83  1  0
 86 89  1  1
 86 87  1  0
 88 86  1  0
M  ISO  4   9 100  10 100  48 101  49 101
M  END
>  <TORSDO>  (82) 
F 21

>  <SCORE>  (82) 
-13.507

>  <name>  (82) 
81

>  <ligand_id>  (82) 
81

>  <original_smiles>  (82) 
[H]C(C(=O)N1C([H])([H])C([H])([H])C([H])([H])C([H])(n2nc(-c3c([H])c([H])c(Oc4c([H])c([H])c(F)c([H])c4F)c([H])c3[H])c(C(=O)N([H])[H])c2N([H])[H])C1([H])[H])=C([H])c1c([H])c([H])c([H])c(OC([H])([H])C([H])([H])C([H])([H])Oc2c([H])c([H])c3c(c2[H])C([H])([H])N(C(=O)C([H])(N([H])C(=O)C([H])(N([H])C([H])([H])[H])C([H])([H])[H])C(C([H])([H])[H])(C([H])([H])[H])C([H])([H])[H])C([H])(C(=O)N([H])C2([H])c4c([H])c([H])c([H])c([H])c4C([H])([H])C([H])([H])C2([H])[H])C3([H])[H])c1[H]

>  <smiles>  (82) 
[H]C(C(=O)N1C([H])([H])C([H])([H])C([H])([H])C([H])(n2nc(-c3c([H])c([H])c(Oc4c([H])c([H])c(F)c([H])c4F)c([H])c3[H])c(C(=O)N([H])[H])c2N([H])[H])C1([H])[H])=C([H])c1c([H])c([H])c([H])c(OC([H])([H])C([H])([H])C([H])([H])Oc2c([H])c([H])c3c(c2[H])C([H])([H])N(C(=O)C([H])(N([H])C(=O)C([H])(N([H])C([H])([H])[H])C([H])([H])[H])C(C([H])([H])[H])(C([H])([H])[H])C([H])([H])[H])C([H])(C(=O)N([H])C2([H])c4c([H])c([H])c([H])c([H])c4C([H])([H])C([H])([H])C2([H])[H])C3([H])[H])c1[H]

$$$$
82:0:0
     RDKit          3D

 96105  0  0  1  0  0  0  0  0999 V2000
  -29.9760  -21.7900   20.1020 C   0  0  0  0  0  2  0  0  0  0  0  0
  -29.2530  -25.0960   18.6750 C   0  0  0  0  0  0  0  0  0  0  0  0
  -28.6890  -26.3000   18.7840 C   0  0  0  0  0  3  0  0  0  0  0  0
  -29.3810  -24.3150   17.3970 C   0  0  0  0  0  2  0  0  0  0  0  0
  -29.6890  -24.2440   19.8420 C   0  0  0  0  0  2  0  0  0  0  0  0
  -29.3710  -22.8820   17.9150 C   0  0  0  0  0  2  0  0  0  0  0  0
  -30.0820  -22.9680   19.2140 N   0  0  2  0  0  4  0  0  0  0  0  0
  -31.0620  -23.0670   19.0000 H   0  0  0  0  0  0  0  0  0  0  0  0
  -28.4120  -26.8420   20.0050 O   0  0  0  0  0  0  0  0  0  0  0  0
  -24.6080  -31.9140   23.2080 C   0  0  0  0  0  0  0  0  0  0  0  0
  -27.2220  -27.5150   20.0890 C   0  0  0  0  0  0  0  0  0  0  0  0
  -23.3810  -30.5120   21.5800 C   0  0  0  0  0  3  0  0  0  0  0  0
  -24.8170  -28.9750   20.1480 C   0  0  0  0  0  0  0  0  0  0  0  0
  -25.9010  -30.8810   21.3520 C   0  0  0  0  0  2  0  0  0  0  0  0
  -25.9790  -29.5100   20.7210 C   0  0  0  0  0  0  0  0  0  0  0  0
  -27.1850  -28.7830   20.6980 C   0  0  0  0  0  3  0  0  0  0  0  0
  -26.0370  -26.9650   19.5500 C   0  0  0  0  0  3  0  0  0  0  0  0
  -24.8360  -27.6960   19.5690 C   0  0  0  0  0  3  0  0  0  0  0  0
  -23.5730  -29.8300   20.2000 C   0  0  0  0  0  2  0  0  0  0  0  0
  -24.6500  -31.1170   22.1050 N   0  0  0  0  0  0  0  0  0  0  0  0
  -23.5340  -32.1870   23.7600 O   0  0  0  0  0  0  0  0  0  0  0  0
  -22.7450  -29.4900   22.5460 C   0  0  0  0  0  0  0  0  0  0  0  0
  -21.4280  -29.2700   22.3990 N   0  0  0  0  0  0  0  0  0  0  0  0
  -23.4310  -28.8960   23.3820 O   0  0  0  0  0  0  0  0  0  0  0  0
  -20.9360  -29.8020   21.6940 H   0  0  0  0  0  0  0  0  0  0  0  0
  -18.0860  -27.9680   22.8140 C   0  0  0  0  0  0  0  0  0  0  0  0
  -20.6200  -28.3260   23.1690 C   0  0  0  0  0  3  0  0  0  0  0  0
  -20.7950  -26.8830   22.6440 C   0  0  0  0  0  2  0  0  0  0  0  0
  -19.7430  -26.4890   21.6020 C   0  0  0  0  0  2  0  0  0  0  0  0
  -18.3350  -26.6040   22.1920 C   0  0  0  0  0  2  0  0  0  0  0  0
  -19.1600  -28.7830   23.2590 C   0  0  0  0  0  0  0  0  0  0  0  0
  -18.8760  -30.0570   23.7970 C   0  0  0  0  0  3  0  0  0  0  0  0
  -17.5500  -30.5170   23.8970 C   0  0  0  0  0  3  0  0  0  0  0  0
  -16.4880  -29.6990   23.4720 C   0  0  0  0  0  3  0  0  0  0  0  0
  -16.7570  -28.4270   22.9360 C   0  0  0  0  0  3  0  0  0  0  0  0
  -25.9050  -32.5410   23.8120 C   0  0  0  0  0  3  0  0  0  0  0  0
  -26.4460  -31.7600   25.0720 C   0  0  1  0  0  0  0  0  0  0  0  0
  -25.3610  -31.4640   26.1330 C   0  0  0  0  0  1  0  0  0  0  0  0
  -27.0720  -30.4100   24.6500 C   0  0  0  0  0  1  0  0  0  0  0  0
  -27.5710  -32.5760   25.7520 C   0  0  0  0  0  1  0  0  0  0  0  0
  -25.6010  -33.9360   24.1550 N   0  0  0  0  0  0  0  0  0  0  0  0
  -25.9210  -34.9930   23.3970 C   0  0  0  0  0  0  0  0  0  0  0  0
  -26.5790  -34.8960   22.3570 O   0  0  0  0  0  0  0  0  0  0  0  0
  -25.0140  -34.0850   24.9630 H   0  0  0  0  0  0  0  0  0  0  0  0
  -24.1910  -36.7860   23.0610 C   0  0  0  0  0  1  0  0  0  0  0  0
  -25.4350  -36.3750   23.8660 C   0  0  0  0  0  3  0  0  0  0  0  0
  -27.5680  -37.2540   24.7040 C   0  0  0  0  0  1  0  0  0  0  0  0
  -26.4650  -37.4310   23.7610 N   0  0  0  0  0  0  0  0  0  0  0  0
  -26.0580  -38.3480   23.9170 H   0  0  0  0  0  0  0  0  0  0  0  0
  -31.6720  -18.2090   18.3270 C   0  0  0  0  0  3  0  0  0  0  0  0
  -31.3280  -20.5930   18.2970 C   0  0  0  0  0  3  0  0  0  0  0  0
  -30.9980  -18.1170   19.5590 C   0  0  0  0  0  0  0  0  0  0  0  0
  -31.8480  -19.4410   17.6920 C   0  0  0  0  0  0  0  0  0  0  0  0
  -30.5850  -20.5190   19.5060 C   0  0  0  0  0  0  0  0  0  0  0  0
  -30.4460  -19.2670   20.1690 C   0  0  0  0  0  0  0  0  0  0  0  0
  -32.6180  -19.5270   16.3890 C   0  0  0  0  0  1  0  0  0  0  0  0
  -31.1460  -16.8080   20.1690 C   0  0  0  0  0  2  0  0  0  0  0  0
  -30.3360  -15.7540   19.9640 C   0  0  0  0  0  2  0  0  0  0  0  0
  -30.9790  -14.4600   20.0550 C   0  0  0  0  0  0  0  0  0  0  0  0
  -30.4610  -12.3910   18.8950 C   0  0  0  0  0  2  0  0  0  0  0  0
  -29.4690  -12.6910   17.7590 C   0  0  0  0  0  2  0  0  0  0  0  0
  -28.0250  -12.5530   18.2760 C   0  0  0  0  0  2  0  0  0  0  0  0
  -27.7720  -13.3470   19.5850 C   0  0  0  0  0  3  0  0  0  0  0  0
  -28.9000  -13.1460   20.6190 C   0  0  0  0  0  2  0  0  0  0  0  0
  -30.1910  -13.3650   19.9600 N   0  0  0  0  0  0  0  0  0  0  0  0
  -32.1750  -14.4220   19.7750 O   0  0  0  0  0  0  0  0  0  0  0  0
  -25.4290  -13.9000   20.4820 C   0  0  0  0  0  0  0  0  0  0  0  0
  -24.3910  -13.1040   20.8870 C   0  0  0  0  0  0  0  0  0  0  0  0
  -24.8600  -11.7590   20.7790 C   0  0  0  0  0  0  0  0  0  0  0  0
  -26.4610  -13.0380   20.1520 N   0  0  0  0  0  0  0  0  0  0  0  0
  -26.1300  -11.7440   20.3940 N   0  0  0  0  0  0  0  0  0  0  0  0
  -24.1560  -10.4840   20.9680 C   0  0  0  0  0  0  0  0  0  0  0  0
  -24.5960   -9.5270   21.9090 C   0  0  0  0  0  3  0  0  0  0  0  0
  -23.8910   -8.3170   22.0840 C   0  0  0  0  0  3  0  0  0  0  0  0
  -22.7310   -8.0550   21.3180 C   0  0  0  0  0  0  0  0  0  0  0  0
  -22.3090   -9.0000   20.3670 C   0  0  0  0  0  3  0  0  0  0  0  0
  -23.0150  -10.2010   20.1890 C   0  0  0  0  0  3  0  0  0  0  0  0
  -21.9970   -6.8970   21.4020 O   0  0  0  0  0  0  0  0  0  0  0  0
  -21.8760   -6.2040   22.5810 C   0  0  0  0  0  0  0  0  0  0  0  0
  -21.3020   -6.7880   23.7310 C   0  0  0  0  0  3  0  0  0  0  0  0
  -21.1330   -6.0200   24.9010 C   0  0  0  0  0  3  0  0  0  0  0  0
  -21.5280   -4.6690   24.9210 C   0  0  0  0  0  0  0  0  0  0  0  0
  -22.0940   -4.0840   23.7730 C   0  0  0  0  0  3  0  0  0  0  0  0
  -22.2640   -4.8500   22.6070 C   0  0  0  0  0  0  0  0  0  0  0  0
  -22.7910   -4.2760   21.4980 F   0  0  0  0  0  0  0  0  0  0  0  0
  -21.3590   -3.9280   26.0400 F   0  0  0  0  0  0  0  0  0  0  0  0
  -23.0100  -13.5590   21.2590 C   0  0  0  0  0  0  0  0  0  0  0  0
  -22.3450  -12.8290   22.1480 N   0  0  0  0  0  0  0  0  0  0  0  0
  -22.5310  -14.5930   20.7970 O   0  0  0  0  0  0  0  0  0  0  0  0
  -22.7440  -11.9900   22.5410 H   0  0  0  0  0  0  0  0  0  0  0  0
  -21.4210  -13.1140   22.4400 H   0  0  0  0  0  0  0  0  0  0  0  0
  -25.5740  -15.2770   20.3460 N   0  0  0  0  0  0  0  0  0  0  0  0
  -24.8150  -15.9250   20.5310 H   0  0  0  0  0  0  0  0  0  0  0  0
  -26.4110  -15.7370   20.0050 H   0  0  0  0  0  0  0  0  0  0  0  0
  -30.7190  -19.3560   22.6990 C   0  0  0  0  0  1  0  0  0  0  0  0
  -29.7570  -19.1310   21.5260 C   0  0  0  0  0  2  0  0  0  0  0  0
  2  3  2  0
  2  5  1  0
  3  9  1  0
  4  6  1  0
  4  2  1  0
  6  7  1  0
  7  5  1  0
  7  1  1  0
  7  8  1  6
  9 11  1  0
 10 21  2  0
 11 16  1  0
 12 20  1  0
 12 22  1  0
 13 19  1  0
 13 15  1  0
 14 20  1  0
 15 14  1  0
 16 15  2  0
 17 18  1  0
 17 11  2  0
 18 13  2  0
 19 12  1  0
 20 10  1  0
 22 24  2  0
 23 22  1  0
 25 23  1  0
 26 35  2  0
 26 31  1  0
 27 23  1  0
 27 31  1  0
 28 27  1  0
 29 30  1  0
 29 28  1  0
 30 26  1  0
 31 32  2  0
 32 33  1  0
 34 33  2  0
 35 34  1  0
 36 10  1  0
 36 41  1  0
 36 37  1  0
 37 40  1  1
 37 38  1  0
 39 37  1  0
 41 44  1  0
 42 46  1  0
 42 41  1  0
 43 42  2  0
 46 45  1  0
 48 46  1  0
 48 49  1  0
 48 47  1  0
 50 52  1  0
 51 54  2  0
 52 55  2  0
 52 57  1  0
 53 51  1  0
 53 50  2  0
 54  1  1  0
 54 55  1  0
 55 96  1  0
 56 53  1  0
 58 59  1  0
 58 57  1  0
 60 65  1  0
 61 62  1  0
 61 60  1  0
 63 62  1  0
 63 70  1  0
 63 64  1  0
 65 59  1  0
 65 64  1  0
 66 59  2  0
 67 68  2  0
 68 87  1  0
 69 68  1  0
 69 72  1  0
 70 71  1  0
 70 67  1  0
 71 69  2  0
 72 73  1  0
 73 74  2  0
 75 78  1  0
 75 74  1  0
 76 75  2  0
 77 76  1  0
 77 72  2  0
 78 79  1  0
 79 84  2  0
 79 80  1  0
 80 81  2  0
 81 82  1  0
 82 86  1  0
 83 82  2  0
 84 83  1  0
 85 84  1  0
 87 88  1  0
 88 91  1  0
 88 90  1  0
 89 87  2  0
 92 67  1  0
 92 93  1  0
 94 92  1  0
 96 95  1  0
M  ISO  4   3 101   9 101  58 100  59 100
M  END
>  <TORSDO>  (83) 
F 20

>  <SCORE>  (83) 
-13.073

>  <name>  (83) 
82

>  <ligand_id>  (83) 
82

>  <original_smiles>  (83) 
[H]C(Oc1c([H])c([H])c2c(c1[H])C([H])([H])N(C(=O)C([H])(N([H])C(=O)C([H])(N([H])C([H])([H])[H])C([H])([H])[H])C(C([H])([H])[H])(C([H])([H])[H])C([H])([H])[H])C([H])(C(=O)N([H])C1([H])c3c([H])c([H])c([H])c([H])c3C([H])([H])C([H])([H])C1([H])[H])C2([H])[H])=C1C([H])([H])C([H])([H])[N+]([H])(C([H])([H])c2c([H])c(C([H])([H])[H])c([H])c(C([H])=C([H])C(=O)N3C([H])([H])C([H])([H])C([H])([H])C([H])(n4nc(-c5c([H])c([H])c(Oc6c([H])c([H])c(F)c([H])c6F)c([H])c5[H])c(C(=O)N([H])[H])c4N([H])[H])C3([H])[H])c2C([H])([H])C([H])([H])[H])C1([H])[H]

>  <smiles>  (83) 
[H]C(Oc1c([H])c([H])c2c(c1[H])C([H])([H])N(C(=O)C([H])(N([H])C(=O)C([H])(N([H])C([H])([H])[H])C([H])([H])[H])C(C([H])([H])[H])(C([H])([H])[H])C([H])([H])[H])C([H])(C(=O)N([H])C1([H])c3c([H])c([H])c([H])c([H])c3C([H])([H])C([H])([H])C1([H])[H])C2([H])[H])=C1C([H])([H])C([H])([H])[N+]([H])(C([H])([H])c2c([H])c(C([H])([H])[H])c([H])c(C([H])=C([H])C(=O)N3C([H])([H])C([H])([H])C([H])([H])C([H])(n4nc(-c5c([H])c([H])c(Oc6c([H])c([H])c(F)c([H])c6F)c([H])c5[H])c(C(=O)N([H])[H])c4N([H])[H])C3([H])[H])c2C([H])([H])C([H])([H])[H])C1([H])[H]

$$$$
83:0:0
     RDKit          3D

 88 96  0  0  1  0  0  0  0  0999 V2000
  -29.0680  -23.3050   20.4960 C   0  0  0  0  0  3  0  0  0  0  0  0
  -29.0140  -20.4080   20.9730 C   0  0  0  0  0  2  0  0  0  0  0  0
  -29.5740  -21.0000   18.9970 C   0  0  0  0  0  3  0  0  0  0  0  0
  -29.1350  -21.6430   20.1450 C   0  0  0  0  0  0  0  0  0  0  0  0
  -29.3810  -19.1750   20.3480 C   0  0  0  0  0  0  0  0  0  0  0  0
  -29.7430  -19.5980   19.0960 O   0  0  0  0  0  0  0  0  0  0  0  0
  -29.3380  -17.6740   20.7910 C   0  0  0  0  0  0  0  0  0  0  0  0
  -29.6110  -16.2520   20.7940 C   0  0  0  0  0  3  0  0  0  0  0  0
  -30.4410  -15.0760   20.1750 C   0  0  0  0  0  0  0  0  0  0  0  0
  -30.3600  -12.7230   19.1650 C   0  0  0  0  0  2  0  0  0  0  0  0
  -29.3880  -12.6970   17.9580 C   0  0  0  0  0  2  0  0  0  0  0  0
  -27.9320  -12.4700   18.4160 C   0  0  0  0  0  2  0  0  0  0  0  0
  -27.5630  -13.3530   19.6360 C   0  0  0  0  0  3  0  0  0  0  0  0
  -28.6480  -13.2870   20.7300 C   0  0  0  0  0  2  0  0  0  0  0  0
  -29.9020  -13.7760   20.1260 N   0  0  0  0  0  0  0  0  0  0  0  0
  -31.5890  -15.1900   19.7270 O   0  0  0  0  0  0  0  0  0  0  0  0
  -25.2000  -13.9330   20.4270 C   0  0  0  0  0  0  0  0  0  0  0  0
  -24.1410  -13.1590   20.8130 C   0  0  0  0  0  0  0  0  0  0  0  0
  -24.6000  -11.8070   20.7610 C   0  0  0  0  0  0  0  0  0  0  0  0
  -26.2340  -13.0540   20.1560 N   0  0  0  0  0  0  0  0  0  0  0  0
  -25.8830  -11.7680   20.4210 N   0  0  0  0  0  0  0  0  0  0  0  0
  -23.8730  -10.5460   20.9590 C   0  0  0  0  0  0  0  0  0  0  0  0
  -24.3060   -9.5820   21.8960 C   0  0  0  0  0  3  0  0  0  0  0  0
  -23.5770   -8.3870   22.0810 C   0  0  0  0  0  3  0  0  0  0  0  0
  -22.4030   -8.1460   21.3290 C   0  0  0  0  0  0  0  0  0  0  0  0
  -21.9900   -9.1000   20.3810 C   0  0  0  0  0  3  0  0  0  0  0  0
  -22.7190  -10.2860   20.1940 C   0  0  0  0  0  3  0  0  0  0  0  0
  -21.6480   -7.0030   21.4220 O   0  0  0  0  0  0  0  0  0  0  0  0
  -21.5780   -6.2790   22.5860 C   0  0  0  0  0  0  0  0  0  0  0  0
  -21.1240   -6.8510   23.7930 C   0  0  0  0  0  3  0  0  0  0  0  0
  -21.0020   -6.0530   24.9480 C   0  0  0  0  0  3  0  0  0  0  0  0
  -21.3270   -4.6840   24.8980 C   0  0  0  0  0  0  0  0  0  0  0  0
  -21.7750   -4.1110   23.6950 C   0  0  0  0  0  3  0  0  0  0  0  0
  -21.8980   -4.9070   22.5410 C   0  0  0  0  0  0  0  0  0  0  0  0
  -22.3100   -4.3460   21.3790 F   0  0  0  0  0  0  0  0  0  0  0  0
  -21.2020   -3.9160   26.0050 F   0  0  0  0  0  0  0  0  0  0  0  0
  -22.7520  -13.6390   21.1190 C   0  0  0  0  0  0  0  0  0  0  0  0
  -22.0410  -12.9400   21.9970 N   0  0  0  0  0  0  0  0  0  0  0  0
  -22.3070  -14.6700   20.6150 O   0  0  0  0  0  0  0  0  0  0  0  0
  -22.4140  -12.1060   22.4250 H   0  0  0  0  0  0  0  0  0  0  0  0
  -21.1100  -13.2440   22.2440 H   0  0  0  0  0  0  0  0  0  0  0  0
  -25.3650  -15.3050   20.2600 N   0  0  0  0  0  0  0  0  0  0  0  0
  -24.6060  -15.9630   20.4000 H   0  0  0  0  0  0  0  0  0  0  0  0
  -26.2140  -15.7450   19.9270 H   0  0  0  0  0  0  0  0  0  0  0  0
  -31.3970  -23.9130   21.3060 C   0  0  0  0  0  2  0  0  0  0  0  0
  -30.4830  -23.8240   20.3250 C   0  0  0  0  0  3  0  0  0  0  0  0
  -28.0430  -24.5700   19.9530 C   0  0  0  0  0  2  0  0  0  0  0  0
  -28.2030  -26.1210   20.2410 O   0  0  0  0  0  0  0  0  0  0  0  0
  -24.5960  -31.8680   23.2250 C   0  0  0  0  0  0  0  0  0  0  0  0
  -27.1440  -27.1180   20.1670 C   0  0  0  0  0  0  0  0  0  0  0  0
  -23.3810  -30.4730   21.5960 C   0  0  0  0  0  3  0  0  0  0  0  0
  -24.8160  -28.8900   20.1550 C   0  0  0  0  0  0  0  0  0  0  0  0
  -25.9350  -30.7260   21.4090 C   0  0  0  0  0  2  0  0  0  0  0  0
  -26.0020  -29.3300   20.7540 C   0  0  0  0  0  0  0  0  0  0  0  0
  -27.1630  -28.4610   20.7420 C   0  0  0  0  0  3  0  0  0  0  0  0
  -25.9310  -26.7900   19.5240 C   0  0  0  0  0  3  0  0  0  0  0  0
  -24.7960  -27.6360   19.5220 C   0  0  0  0  0  3  0  0  0  0  0  0
  -23.5900  -29.7920   20.2160 C   0  0  0  0  0  2  0  0  0  0  0  0
  -24.6580  -31.0460   22.1300 N   0  0  0  0  0  0  0  0  0  0  0  0
  -23.5150  -32.1540   23.7610 O   0  0  0  0  0  0  0  0  0  0  0  0
  -22.7080  -29.4700   22.5660 C   0  0  0  0  0  0  0  0  0  0  0  0
  -21.3780  -29.2980   22.4490 N   0  0  0  0  0  0  0  0  0  0  0  0
  -23.3830  -28.8490   23.3900 O   0  0  0  0  0  0  0  0  0  0  0  0
  -20.8880  -29.8510   21.7590 H   0  0  0  0  0  0  0  0  0  0  0  0
  -18.0050  -28.0790   22.9670 C   0  0  0  0  0  0  0  0  0  0  0  0
  -20.5630  -28.3610   23.2270 C   0  0  0  0  0  3  0  0  0  0  0  0
  -20.6720  -26.9260   22.6610 C   0  0  0  0  0  2  0  0  0  0  0  0
  -19.5710  -26.5890   21.6520 C   0  0  0  0  0  2  0  0  0  0  0  0
  -18.1900  -26.7280   22.2970 C   0  0  0  0  0  2  0  0  0  0  0  0
  -19.1190  -28.8530   23.3890 C   0  0  0  0  0  0  0  0  0  0  0  0
  -18.8900  -30.1150   23.9780 C   0  0  0  0  0  3  0  0  0  0  0  0
  -17.5810  -30.6050   24.1470 C   0  0  0  0  0  3  0  0  0  0  0  0
  -16.4820  -29.8300   23.7390 C   0  0  0  0  0  3  0  0  0  0  0  0
  -16.6940  -28.5680   23.1550 C   0  0  0  0  0  3  0  0  0  0  0  0
  -25.8790  -32.5040   23.8410 C   0  0  0  0  0  3  0  0  0  0  0  0
  -26.4030  -31.7310   25.1140 C   0  0  1  0  0  0  0  0  0  0  0  0
  -25.3180  -31.4940   26.1910 C   0  0  0  0  0  1  0  0  0  0  0  0
  -26.9830  -30.3530   24.7230 C   0  0  0  0  0  1  0  0  0  0  0  0
  -27.5590  -32.5250   25.7700 C   0  0  0  0  0  1  0  0  0  0  0  0
  -25.5670  -33.9020   24.1850 N   0  0  0  0  0  0  0  0  0  0  0  0
  -25.8820  -34.9640   23.4310 C   0  0  0  0  0  0  0  0  0  0  0  0
  -26.5300  -34.8710   22.3860 O   0  0  0  0  0  0  0  0  0  0  0  0
  -24.9880  -34.0470   24.9990 H   0  0  0  0  0  0  0  0  0  0  0  0
  -24.1390  -36.7580   23.1410 C   0  0  0  0  0  1  0  0  0  0  0  0
  -25.4040  -36.3490   23.9130 C   0  0  0  0  0  3  0  0  0  0  0  0
  -27.5560  -37.2410   24.6910 C   0  0  0  0  0  1  0  0  0  0  0  0
  -26.4300  -37.4060   23.7770 N   0  0  0  0  0  0  0  0  0  0  0  0
  -26.0240  -38.3250   23.9350 H   0  0  0  0  0  0  0  0  0  0  0  0
  1 47  1  0
  3  6  1  0
  3  4  2  0
  4  1  1  0
  4  2  1  0
  5  7  2  0
  5  2  1  0
  6  5  1  0
  7  8  2  0
  9  8  1  0
 10 15  1  0
 11 12  1  0
 11 10  1  0
 13 12  1  0
 13 20  1  0
 13 14  1  0
 15  9  1  0
 15 14  1  0
 16  9  2  0
 17 18  2  0
 18 37  1  0
 19 18  1  0
 19 22  1  0
 20 21  1  0
 20 17  1  0
 21 19  2  0
 22 23  1  0
 23 24  2  0
 25 28  1  0
 25 24  1  0
 26 25  2  0
 27 26  1  0
 27 22  2  0
 28 29  1  0
 29 30  1  0
 30 31  2  0
 32 31  1  0
 32 36  1  0
 33 32  2  0
 34 29  2  0
 34 33  1  0
 35 34  1  0
 37 38  1  0
 38 41  1  0
 38 40  1  0
 39 37  2  0
 42 43  1  0
 42 17  1  0
 44 42  1  0
 46  1  1  0
 46 45  2  0
 47 48  1  0
 49 60  2  0
 50 48  1  0
 50 55  1  0
 51 59  1  0
 51 61  1  0
 52 58  1  0
 52 54  1  0
 53 59  1  0
 54 53  1  0
 55 54  2  0
 56 50  2  0
 57 56  1  0
 57 52  2  0
 58 51  1  0
 59 49  1  0
 61 63  2  0
 62 61  1  0
 64 62  1  0
 65 74  2  0
 65 70  1  0
 66 62  1  0
 66 70  1  0
 67 66  1  0
 68 69  1  0
 68 67  1  0
 69 65  1  0
 70 71  2  0
 71 72  1  0
 73 72  2  0
 74 73  1  0
 75 49  1  0
 75 80  1  0
 75 76  1  0
 76 79  1  1
 76 77  1  0
 78 76  1  0
 80 83  1  0
 81 85  1  0
 81 80  1  0
 82 81  2  0
 85 84  1  0
 87 85  1  0
 87 88  1  0
 87 86  1  0
M  ISO  4   8 100   9 100  47 101  48 101
M  END
>  <TORSDO>  (84) 
F 20

>  <SCORE>  (84) 
-14.684

>  <name>  (84) 
83

>  <ligand_id>  (84) 
83

>  <original_smiles>  (84) 
[H]C([H])=C([H])C([H])(c1c([H])oc(C([H])=C([H])C(=O)N2C([H])([H])C([H])([H])C([H])([H])C([H])(n3nc(-c4c([H])c([H])c(Oc5c([H])c([H])c(F)c([H])c5F)c([H])c4[H])c(C(=O)N([H])[H])c3N([H])[H])C2([H])[H])c1[H])C([H])([H])Oc1c([H])c([H])c2c(c1[H])C([H])([H])N(C(=O)C([H])(N([H])C(=O)C([H])(N([H])C([H])([H])[H])C([H])([H])[H])C(C([H])([H])[H])(C([H])([H])[H])C([H])([H])[H])C([H])(C(=O)N([H])C1([H])c3c([H])c([H])c([H])c([H])c3C([H])([H])C([H])([H])C1([H])[H])C2([H])[H]

>  <smiles>  (84) 
[H]C([H])=C([H])C([H])(c1c([H])oc(C([H])=C([H])C(=O)N2C([H])([H])C([H])([H])C([H])([H])C([H])(n3nc(-c4c([H])c([H])c(Oc5c([H])c([H])c(F)c([H])c5F)c([H])c4[H])c(C(=O)N([H])[H])c3N([H])[H])C2([H])[H])c1[H])C([H])([H])Oc1c([H])c([H])c2c(c1[H])C([H])([H])N(C(=O)C([H])(N([H])C(=O)C([H])(N([H])C([H])([H])[H])C([H])([H])[H])C(C([H])([H])[H])(C([H])([H])[H])C([H])([H])[H])C([H])(C(=O)N([H])C1([H])c3c([H])c([H])c([H])c([H])c3C([H])([H])C([H])([H])C1([H])[H])C2([H])[H]

$$$$
84:0:0
     RDKit          3D

 90 98  0  0  1  0  0  0  0  0999 V2000
  -29.5040  -19.8280   20.5230 C   0  0  0  0  0  3  0  0  0  0  0  0
  -32.1770  -20.5860   20.6890 C   0  0  0  0  0  3  0  0  0  0  0  0
  -30.5070  -18.7770   20.5980 C   0  0  0  0  0  0  0  0  0  0  0  0
  -29.8220  -21.2480   20.5290 C   0  0  0  0  0  0  0  0  0  0  0  0
  -31.8560  -19.2150   20.6750 C   0  0  0  0  0  3  0  0  0  0  0  0
  -31.1930  -21.5840   20.6220 C   0  0  0  0  0  0  0  0  0  0  0  0
  -33.0080  -18.2220   20.7650 C   0  0  0  0  0  1  0  0  0  0  0  0
  -31.6060  -22.8710   20.6480 F   0  0  0  0  0  0  0  0  0  0  0  0
  -30.3530  -17.2440   20.5770 C   0  0  0  0  0  0  0  0  0  0  0  0
  -29.8020  -15.9740   20.6540 C   0  0  0  0  0  3  0  0  0  0  0  0
  -30.5970  -14.7500   20.3020 C   0  0  0  0  0  0  0  0  0  0  0  0
  -30.3400  -12.5130   19.2380 C   0  0  0  0  0  2  0  0  0  0  0  0
  -29.3770  -12.6470   18.0360 C   0  0  0  0  0  2  0  0  0  0  0  0
  -27.9140  -12.4800   18.4890 C   0  0  0  0  0  2  0  0  0  0  0  0
  -27.5760  -13.3350   19.7390 C   0  0  0  0  0  3  0  0  0  0  0  0
  -28.6560  -13.1830   20.8330 C   0  0  0  0  0  2  0  0  0  0  0  0
  -29.9510  -13.5350   20.2350 N   0  0  0  0  0  0  0  0  0  0  0  0
  -31.7670  -14.8300   19.9150 O   0  0  0  0  0  0  0  0  0  0  0  0
  -25.2040  -13.9280   20.5240 C   0  0  0  0  0  0  0  0  0  0  0  0
  -24.1420  -13.1530   20.9040 C   0  0  0  0  0  0  0  0  0  0  0  0
  -24.5990  -11.8000   20.8400 C   0  0  0  0  0  0  0  0  0  0  0  0
  -26.2390  -13.0480   20.2510 N   0  0  0  0  0  0  0  0  0  0  0  0
  -25.8830  -11.7630   20.5030 N   0  0  0  0  0  0  0  0  0  0  0  0
  -23.8740  -10.5370   21.0240 C   0  0  0  0  0  0  0  0  0  0  0  0
  -24.3230   -9.5520   21.9310 C   0  0  0  0  0  3  0  0  0  0  0  0
  -23.5970   -8.3530   22.1040 C   0  0  0  0  0  3  0  0  0  0  0  0
  -22.4080   -8.1320   21.3690 C   0  0  0  0  0  0  0  0  0  0  0  0
  -21.9780   -9.1060   20.4510 C   0  0  0  0  0  3  0  0  0  0  0  0
  -22.7040  -10.2960   20.2760 C   0  0  0  0  0  3  0  0  0  0  0  0
  -21.6520   -6.9890   21.4530 O   0  0  0  0  0  0  0  0  0  0  0  0
  -21.6200   -6.2270   22.5950 C   0  0  0  0  0  0  0  0  0  0  0  0
  -21.2100   -6.7620   23.8350 C   0  0  0  0  0  3  0  0  0  0  0  0
  -21.1270   -5.9280   24.9680 C   0  0  0  0  0  3  0  0  0  0  0  0
  -21.4420   -4.5610   24.8610 C   0  0  0  0  0  0  0  0  0  0  0  0
  -21.8450   -4.0250   23.6250 C   0  0  0  0  0  3  0  0  0  0  0  0
  -21.9320   -4.8560   22.4950 C   0  0  0  0  0  0  0  0  0  0  0  0
  -22.3010   -4.3310   21.3010 F   0  0  0  0  0  0  0  0  0  0  0  0
  -21.3540   -3.7570   25.9470 F   0  0  0  0  0  0  0  0  0  0  0  0
  -22.7530  -13.6300   21.2120 C   0  0  0  0  0  0  0  0  0  0  0  0
  -22.0410  -12.9240   22.0830 N   0  0  0  0  0  0  0  0  0  0  0  0
  -22.3080  -14.6640   20.7160 O   0  0  0  0  0  0  0  0  0  0  0  0
  -22.4130  -12.0880   22.5090 H   0  0  0  0  0  0  0  0  0  0  0  0
  -21.1080  -13.2270   22.3300 H   0  0  0  0  0  0  0  0  0  0  0  0
  -25.3700  -15.3010   20.3660 N   0  0  0  0  0  0  0  0  0  0  0  0
  -24.6090  -15.9570   20.5050 H   0  0  0  0  0  0  0  0  0  0  0  0
  -26.2100  -15.7420   20.0130 H   0  0  0  0  0  0  0  0  0  0  0  0
  -28.7270  -22.3890   20.4280 C   0  0  0  0  0  2  0  0  0  0  0  0
  -29.1130  -23.9560   20.4420 C   0  0  0  0  0  3  0  0  0  0  0  0
  -27.9670  -25.0280   20.1550 C   0  0  0  0  0  3  0  0  0  0  0  0
  -28.2270  -26.4920   20.2430 O   0  0  0  0  0  0  0  0  0  0  0  0
  -24.5610  -31.9570   23.2350 C   0  0  0  0  0  0  0  0  0  0  0  0
  -27.1190  -27.3620   20.1840 C   0  0  0  0  0  0  0  0  0  0  0  0
  -23.3340  -30.5540   21.6160 C   0  0  0  0  0  3  0  0  0  0  0  0
  -24.7620  -28.9930   20.1840 C   0  0  0  0  0  0  0  0  0  0  0  0
  -25.8730  -30.8600   21.4050 C   0  0  0  0  0  2  0  0  0  0  0  0
  -25.9410  -29.4770   20.7640 C   0  0  0  0  0  0  0  0  0  0  0  0
  -27.1220  -28.6740   20.7530 C   0  0  0  0  0  3  0  0  0  0  0  0
  -25.9140  -26.9370   19.5750 C   0  0  0  0  0  3  0  0  0  0  0  0
  -24.7530  -27.7300   19.5770 C   0  0  0  0  0  3  0  0  0  0  0  0
  -23.5300  -29.8720   20.2380 C   0  0  0  0  0  2  0  0  0  0  0  0
  -24.6090  -31.1410   22.1410 N   0  0  0  0  0  0  0  0  0  0  0  0
  -23.4850  -32.2420   23.7810 O   0  0  0  0  0  0  0  0  0  0  0  0
  -22.6780  -29.5460   22.5900 C   0  0  0  0  0  0  0  0  0  0  0  0
  -21.3520  -29.3580   22.4660 N   0  0  0  0  0  0  0  0  0  0  0  0
  -23.3610  -28.9330   23.4160 O   0  0  0  0  0  0  0  0  0  0  0  0
  -20.8610  -29.9050   21.7730 H   0  0  0  0  0  0  0  0  0  0  0  0
  -17.9840  -28.1430   22.9780 C   0  0  0  0  0  0  0  0  0  0  0  0
  -20.5390  -28.4280   23.2510 C   0  0  0  0  0  3  0  0  0  0  0  0
  -20.6550  -26.9870   22.7020 C   0  0  0  0  0  2  0  0  0  0  0  0
  -19.5600  -26.6380   21.6890 C   0  0  0  0  0  2  0  0  0  0  0  0
  -18.1740  -26.7830   22.3260 C   0  0  0  0  0  2  0  0  0  0  0  0
  -19.0950  -28.9220   23.3980 C   0  0  0  0  0  0  0  0  0  0  0  0
  -18.8640  -30.1920   23.9680 C   0  0  0  0  0  3  0  0  0  0  0  0
  -17.5550  -30.6860   24.1210 C   0  0  0  0  0  3  0  0  0  0  0  0
  -16.4580  -29.9050   23.7170 C   0  0  0  0  0  3  0  0  0  0  0  0
  -16.6740  -28.6350   23.1510 C   0  0  0  0  0  3  0  0  0  0  0  0
  -25.8540  -32.5890   23.8390 C   0  0  0  0  0  3  0  0  0  0  0  0
  -26.3880  -31.8170   25.1090 C   0  0  1  0  0  0  0  0  0  0  0  0
  -25.3090  -31.5810   26.1920 C   0  0  0  0  0  1  0  0  0  0  0  0
  -26.9650  -30.4390   24.7120 C   0  0  0  0  0  1  0  0  0  0  0  0
  -27.5470  -32.6110   25.7550 C   0  0  0  0  0  1  0  0  0  0  0  0
  -25.5510  -33.9870   24.1730 N   0  0  0  0  0  0  0  0  0  0  0  0
  -25.8680  -35.0390   23.4070 C   0  0  0  0  0  0  0  0  0  0  0  0
  -26.5150  -34.9340   22.3620 O   0  0  0  0  0  0  0  0  0  0  0  0
  -24.9730  -34.1420   24.9860 H   0  0  0  0  0  0  0  0  0  0  0  0
  -24.1320  -36.8330   23.0870 C   0  0  0  0  0  1  0  0  0  0  0  0
  -25.3900  -36.4280   23.8730 C   0  0  0  0  0  3  0  0  0  0  0  0
  -27.5410  -37.3150   24.6570 C   0  0  0  0  0  1  0  0  0  0  0  0
  -26.4200  -37.4800   23.7360 N   0  0  0  0  0  0  0  0  0  0  0  0
  -26.0170  -38.4010   23.8890 H   0  0  0  0  0  0  0  0  0  0  0  0
  1  4  2  0
  1  3  1  0
  3  5  1  0
  4  6  1  0
  5  2  1  0
  5  7  1  0
  6  8  1  0
  6  2  2  0
  9  3  2  0
  9 10  2  0
 11 10  1  0
 12 17  1  0
 13 14  1  0
 13 12  1  0
 15 14  1  0
 15 22  1  0
 15 16  1  0
 17 11  1  0
 17 16  1  0
 18 11  2  0
 19 20  2  0
 20 39  1  0
 21 20  1  0
 21 24  1  0
 22 23  1  0
 22 19  1  0
 23 21  2  0
 24 25  1  0
 25 26  2  0
 27 30  1  0
 27 26  1  0
 28 27  2  0
 29 28  1  0
 29 24  2  0
 30 31  1  0
 31 32  1  0
 32 33  2  0
 34 33  1  0
 34 38  1  0
 35 34  2  0
 36 31  2  0
 36 35  1  0
 37 36  1  0
 39 40  1  0
 40 43  1  0
 40 42  1  0
 41 39  2  0
 44 45  1  0
 44 19  1  0
 46 44  1  0
 47 48  1  0
 47  4  1  0
 49 50  1  0
 49 48  2  0
 51 62  2  0
 52 50  1  0
 52 57  1  0
 53 61  1  0
 53 63  1  0
 54 60  1  0
 54 56  1  0
 55 61  1  0
 56 55  1  0
 57 56  2  0
 58 59  1  0
 58 52  2  0
 59 54  2  0
 60 53  1  0
 61 51  1  0
 63 65  2  0
 64 63  1  0
 66 64  1  0
 67 76  2  0
 67 72  1  0
 68 64  1  0
 68 72  1  0
 69 68  1  0
 70 71  1  0
 70 69  1  0
 71 67  1  0
 72 73  2  0
 73 74  1  0
 75 74  2  0
 76 75  1  0
 77 51  1  0
 77 82  1  0
 77 78  1  0
 78 81  1  1
 78 79  1  0
 80 78  1  0
 82 85  1  0
 83 87  1  0
 83 82  1  0
 84 83  2  0
 87 86  1  0
 89 87  1  0
 89 90  1  0
 89 88  1  0
M  ISO  4  10 100  11 100  49 101  50 101
M  END
>  <TORSDO>  (85) 
F 20

>  <SCORE>  (85) 
-13.895

>  <name>  (85) 
84

>  <ligand_id>  (85) 
84

>  <original_smiles>  (85) 
[H]C(C(=O)N1C([H])([H])C([H])([H])C([H])([H])C([H])(n2nc(-c3c([H])c([H])c(Oc4c([H])c([H])c(F)c([H])c4F)c([H])c3[H])c(C(=O)N([H])[H])c2N([H])[H])C1([H])[H])=C([H])c1c([H])c(C([H])([H])C([H])([H])C([H])([H])Oc2c([H])c([H])c3c(c2[H])C([H])([H])N(C(=O)C([H])(N([H])C(=O)C([H])(N([H])C([H])([H])[H])C([H])([H])[H])C(C([H])([H])[H])(C([H])([H])[H])C([H])([H])[H])C([H])(C(=O)N([H])C2([H])c4c([H])c([H])c([H])c([H])c4C([H])([H])C([H])([H])C2([H])[H])C3([H])[H])c(F)c([H])c1C([H])([H])[H]

>  <smiles>  (85) 
[H]C(C(=O)N1C([H])([H])C([H])([H])C([H])([H])C([H])(n2nc(-c3c([H])c([H])c(Oc4c([H])c([H])c(F)c([H])c4F)c([H])c3[H])c(C(=O)N([H])[H])c2N([H])[H])C1([H])[H])=C([H])c1c([H])c(C([H])([H])C([H])([H])C([H])([H])Oc2c([H])c([H])c3c(c2[H])C([H])([H])N(C(=O)C([H])(N([H])C(=O)C([H])(N([H])C([H])([H])[H])C([H])([H])[H])C(C([H])([H])[H])(C([H])([H])[H])C([H])([H])[H])C([H])(C(=O)N([H])C2([H])c4c([H])c([H])c([H])c([H])c4C([H])([H])C([H])([H])C2([H])[H])C3([H])[H])c(F)c([H])c1C([H])([H])[H]

$$$$
85:0:0
     RDKit          3D

 92100  0  0  1  0  0  0  0  0999 V2000
  -27.4920  -21.3320   20.7290 C   0  0  0  0  0  3  0  0  0  0  0  0
  -28.3790  -22.3400   20.8380 C   0  0  0  0  0  3  0  0  0  0  0  0
  -26.9510  -19.5570   19.1680 C   0  0  0  0  0  3  0  0  0  0  0  0
  -27.2610  -18.3880   18.4680 C   0  0  0  0  0  3  0  0  0  0  0  0
  -28.8520  -19.1640   20.6400 C   0  0  0  0  0  3  0  0  0  0  0  0
  -27.7800  -19.9890   20.2140 C   0  0  0  0  0  0  0  0  0  0  0  0
  -29.1310  -17.9230   20.0030 C   0  0  0  0  0  0  0  0  0  0  0  0
  -28.3750  -17.6050   18.8240 C   0  0  0  0  0  0  0  0  0  0  0  0
  -28.7180  -16.5000   17.8360 C   0  0  0  0  0  1  0  0  0  0  0  0
  -30.0980  -17.0070   20.6940 C   0  0  0  0  0  3  0  0  0  0  0  0
  -30.1770  -15.6810   20.4700 C   0  0  0  0  0  3  0  0  0  0  0  0
  -31.0060  -14.6760   21.1250 C   0  0  0  0  0  0  0  0  0  0  0  0
  -30.8510  -12.3940   20.2760 C   0  0  0  0  0  2  0  0  0  0  0  0
  -30.0690  -12.4950   18.9450 C   0  0  0  0  0  2  0  0  0  0  0  0
  -28.5480  -12.3740   19.1820 C   0  0  0  0  0  2  0  0  0  0  0  0
  -28.0330  -13.2900   20.3230 C   0  0  0  0  0  3  0  0  0  0  0  0
  -28.9670  -13.2510   21.5600 C   0  0  0  0  0  2  0  0  0  0  0  0
  -30.3720  -13.4690   21.1510 N   0  0  0  0  0  0  0  0  0  0  0  0
  -32.2270  -14.8080   21.1840 O   0  0  0  0  0  0  0  0  0  0  0  0
  -25.5940  -13.9700   20.7210 C   0  0  0  0  0  0  0  0  0  0  0  0
  -24.4760  -13.2250   20.9660 C   0  0  0  0  0  0  0  0  0  0  0  0
  -24.9170  -11.8670   21.0340 C   0  0  0  0  0  0  0  0  0  0  0  0
  -26.6410  -13.0580   20.6540 N   0  0  0  0  0  0  0  0  0  0  0  0
  -26.2320  -11.7940   20.9030 N   0  0  0  0  0  0  0  0  0  0  0  0
  -24.1590  -10.6230   21.1600 C   0  0  0  0  0  0  0  0  0  0  0  0
  -24.5000   -9.6510   22.1250 C   0  0  0  0  0  3  0  0  0  0  0  0
  -23.7470   -8.4640   22.2370 C   0  0  0  0  0  3  0  0  0  0  0  0
  -22.6410   -8.2440   21.3840 C   0  0  0  0  0  0  0  0  0  0  0  0
  -22.3230   -9.2040   20.4080 C   0  0  0  0  0  3  0  0  0  0  0  0
  -23.0760  -10.3830   20.2930 C   0  0  0  0  0  3  0  0  0  0  0  0
  -21.8650   -7.1110   21.4070 O   0  0  0  0  0  0  0  0  0  0  0  0
  -21.7330   -6.3570   22.5440 C   0  0  0  0  0  0  0  0  0  0  0  0
  -21.2390   -6.9030   23.7480 C   0  0  0  0  0  3  0  0  0  0  0  0
  -21.0520   -6.0760   24.8730 C   0  0  0  0  0  3  0  0  0  0  0  0
  -21.3520   -4.7020   24.7940 C   0  0  0  0  0  0  0  0  0  0  0  0
  -21.8420   -4.1570   23.5950 C   0  0  0  0  0  3  0  0  0  0  0  0
  -22.0300   -4.9830   22.4730 C   0  0  0  0  0  0  0  0  0  0  0  0
  -22.4820   -4.4480   21.3140 F   0  0  0  0  0  0  0  0  0  0  0  0
  -21.1650   -3.9040   25.8700 F   0  0  0  0  0  0  0  0  0  0  0  0
  -23.0630  -13.7280   21.0380 C   0  0  0  0  0  0  0  0  0  0  0  0
  -22.2220  -13.0790   21.8350 N   0  0  0  0  0  0  0  0  0  0  0  0
  -22.7090  -14.7320   20.4220 O   0  0  0  0  0  0  0  0  0  0  0  0
  -22.5140  -12.2670   22.3600 H   0  0  0  0  0  0  0  0  0  0  0  0
  -21.2670  -13.3990   21.9260 H   0  0  0  0  0  0  0  0  0  0  0  0
  -25.7980  -15.3340   20.5220 N   0  0  0  0  0  0  0  0  0  0  0  0
  -25.0230  -15.9870   20.5000 H   0  0  0  0  0  0  0  0  0  0  0  0
  -26.6900  -15.7700   20.3180 H   0  0  0  0  0  0  0  0  0  0  0  0
  -28.9360  -24.6730   21.0750 C   0  0  0  0  0  3  0  0  0  0  0  0
  -28.0100  -23.7010   21.2240 C   0  0  0  0  0  0  0  0  0  0  0  0
  -26.6020  -23.9810   21.7340 C   0  0  0  0  0  1  0  0  0  0  0  0
  -28.7910  -26.1630   21.3470 C   0  0  0  0  0  2  0  0  0  0  0  0
  -28.4650  -26.8560   20.1440 O   0  0  0  0  0  0  0  0  0  0  0  0
  -24.5470  -31.9340   23.2390 C   0  0  0  0  0  0  0  0  0  0  0  0
  -27.2830  -27.5520   20.1840 C   0  0  0  0  0  0  0  0  0  0  0  0
  -23.3710  -30.5130   21.5860 C   0  0  0  0  0  3  0  0  0  0  0  0
  -24.8590  -28.9910   20.1790 C   0  0  0  0  0  0  0  0  0  0  0  0
  -25.8890  -30.9130   21.4060 C   0  0  0  0  0  2  0  0  0  0  0  0
  -25.9990  -29.5410   20.7790 C   0  0  0  0  0  0  0  0  0  0  0  0
  -27.2140  -28.8260   20.7860 C   0  0  0  0  0  3  0  0  0  0  0  0
  -26.1330  -27.0050   19.5840 C   0  0  0  0  0  3  0  0  0  0  0  0
  -24.9170  -27.7180   19.5830 C   0  0  0  0  0  3  0  0  0  0  0  0
  -23.6010  -29.8300   20.2100 C   0  0  0  0  0  2  0  0  0  0  0  0
  -24.6190  -31.1350   22.1360 N   0  0  0  0  0  0  0  0  0  0  0  0
  -23.4580  -32.1920   23.7700 O   0  0  0  0  0  0  0  0  0  0  0  0
  -22.7260  -29.4850   22.5430 C   0  0  0  0  0  0  0  0  0  0  0  0
  -21.4120  -29.2630   22.3810 N   0  0  0  0  0  0  0  0  0  0  0  0
  -23.4050  -28.8920   23.3850 O   0  0  0  0  0  0  0  0  0  0  0  0
  -20.9240  -29.7960   21.6750 H   0  0  0  0  0  0  0  0  0  0  0  0
  -18.0660  -27.9620   22.7830 C   0  0  0  0  0  0  0  0  0  0  0  0
  -20.6020  -28.3120   23.1400 C   0  0  0  0  0  3  0  0  0  0  0  0
  -20.7730  -26.8750   22.5920 C   0  0  0  0  0  2  0  0  0  0  0  0
  -19.7200  -26.4980   21.5470 C   0  0  0  0  0  2  0  0  0  0  0  0
  -18.3120  -26.6070   22.1390 C   0  0  0  0  0  2  0  0  0  0  0  0
  -19.1430  -28.7690   23.2390 C   0  0  0  0  0  0  0  0  0  0  0  0
  -18.8610  -30.0350   23.7970 C   0  0  0  0  0  3  0  0  0  0  0  0
  -17.5350  -30.4950   23.9050 C   0  0  0  0  0  3  0  0  0  0  0  0
  -16.4730  -29.6870   23.4670 C   0  0  0  0  0  3  0  0  0  0  0  0
  -16.7390  -28.4220   22.9130 C   0  0  0  0  0  3  0  0  0  0  0  0
  -25.8210  -32.5790   23.8680 C   0  0  0  0  0  3  0  0  0  0  0  0
  -26.3290  -31.8230   25.1580 C   0  0  1  0  0  0  0  0  0  0  0  0
  -25.2230  -31.5810   26.2110 C   0  0  0  0  0  1  0  0  0  0  0  0
  -26.9340  -30.4500   24.7840 C   0  0  0  0  0  1  0  0  0  0  0  0
  -27.4590  -32.6360   25.8310 C   0  0  0  0  0  1  0  0  0  0  0  0
  -25.5030  -33.9790   24.1760 N   0  0  0  0  0  0  0  0  0  0  0  0
  -25.8610  -35.0230   23.4160 C   0  0  0  0  0  0  0  0  0  0  0  0
  -26.5650  -34.9090   22.4080 O   0  0  0  0  0  0  0  0  0  0  0  0
  -24.8840  -34.1410   24.9560 H   0  0  0  0  0  0  0  0  0  0  0  0
  -24.1460  -36.8090   22.9820 C   0  0  0  0  0  1  0  0  0  0  0  0
  -25.3570  -36.4160   23.8420 C   0  0  0  0  0  3  0  0  0  0  0  0
  -27.4630  -37.3060   24.7370 C   0  0  0  0  0  1  0  0  0  0  0  0
  -26.3940  -37.4670   23.7540 N   0  0  0  0  0  0  0  0  0  0  0  0
  -25.9830  -38.3880   23.8800 H   0  0  0  0  0  0  0  0  0  0  0  0
  1  2  2  0
  2 49  1  0
  3  6  1  0
  4  8  1  0
  4  3  2  0
  6  5  2  0
  6  1  1  0
  7  5  1  0
  7 10  1  0
  8  7  2  0
  9  8  1  0
 11 10  2  0
 11 12  1  0
 12 18  1  0
 12 19  2  0
 13 18  1  0
 14 15  1  0
 14 13  1  0
 16 15  1  0
 16 23  1  0
 16 17  1  0
 18 17  1  0
 20 21  2  0
 21 22  1  0
 21 40  1  0
 22 25  1  0
 23 20  1  0
 23 24  1  0
 24 22  2  0
 25 26  1  0
 26 27  2  0
 28 31  1  0
 28 27  1  0
 29 28  2  0
 30 29  1  0
 30 25  2  0
 31 32  1  0
 32 33  1  0
 33 34  2  0
 35 34  1  0
 35 39  1  0
 36 35  2  0
 37 32  2  0
 37 36  1  0
 38 37  1  0
 40 41  1  0
 41 44  1  0
 41 43  1  0
 42 40  2  0
 45 20  1  0
 46 45  1  0
 47 45  1  0
 48 49  2  0
 48 51  1  0
 49 50  1  0
 52 54  1  0
 52 51  1  0
 53 64  2  0
 54 59  1  0
 55 63  1  0
 55 65  1  0
 56 62  1  0
 56 58  1  0
 57 63  1  0
 58 59  2  0
 58 57  1  0
 60 54  2  0
 61 60  1  0
 61 56  2  0
 62 55  1  0
 63 53  1  0
 65 67  2  0
 66 65  1  0
 68 66  1  0
 69 78  2  0
 69 74  1  0
 70 66  1  0
 70 74  1  0
 71 70  1  0
 72 73  1  0
 72 71  1  0
 73 69  1  0
 74 75  2  0
 75 76  1  0
 77 76  2  0
 78 77  1  0
 79 53  1  0
 79 84  1  0
 79 80  1  0
 80 83  1  1
 80 81  1  0
 82 80  1  0
 84 87  1  0
 85 89  1  0
 85 84  1  0
 86 85  2  0
 89 88  1  0
 91 89  1  0
 91 92  1  0
 91 90  1  0
M  ISO  4  11 100  12 100  51 101  52 101
M  END
>  <TORSDO>  (86) 
F 20

>  <SCORE>  (86) 
-11.615

>  <name>  (86) 
85

>  <ligand_id>  (86) 
85

>  <original_smiles>  (86) 
[H]C(=C([H])c1c([H])c([H])c(C([H])([H])[H])c(C([H])=C([H])C(=O)N2C([H])([H])C([H])([H])C([H])([H])C([H])(n3nc(-c4c([H])c([H])c(Oc5c([H])c([H])c(F)c([H])c5F)c([H])c4[H])c(C(=O)N([H])[H])c3N([H])[H])C2([H])[H])c1[H])C(=C([H])C([H])([H])Oc1c([H])c([H])c2c(c1[H])C([H])([H])N(C(=O)C([H])(N([H])C(=O)C([H])(N([H])C([H])([H])[H])C([H])([H])[H])C(C([H])([H])[H])(C([H])([H])[H])C([H])([H])[H])C([H])(C(=O)N([H])C1([H])c3c([H])c([H])c([H])c([H])c3C([H])([H])C([H])([H])C1([H])[H])C2([H])[H])C([H])([H])[H]

>  <smiles>  (86) 
[H]C(=C([H])c1c([H])c([H])c(C([H])([H])[H])c(C([H])=C([H])C(=O)N2C([H])([H])C([H])([H])C([H])([H])C([H])(n3nc(-c4c([H])c([H])c(Oc5c([H])c([H])c(F)c([H])c5F)c([H])c4[H])c(C(=O)N([H])[H])c3N([H])[H])C2([H])[H])c1[H])C(=C([H])C([H])([H])Oc1c([H])c([H])c2c(c1[H])C([H])([H])N(C(=O)C([H])(N([H])C(=O)C([H])(N([H])C([H])([H])[H])C([H])([H])[H])C(C([H])([H])[H])(C([H])([H])[H])C([H])([H])[H])C([H])(C(=O)N([H])C1([H])c3c([H])c([H])c([H])c([H])c3C([H])([H])C([H])([H])C1([H])[H])C2([H])[H])C([H])([H])[H]

$$$$
86:0:0
     RDKit          3D

 92100  0  0  1  0  0  0  0  0999 V2000
  -28.6240  -20.5930   20.3170 C   0  0  0  0  0  3  0  0  0  0  0  0
  -28.9110  -21.9220   20.2490 C   0  0  0  0  0  3  0  0  0  0  0  0
  -29.3360  -18.1370   20.3990 C   0  0  0  0  0  3  0  0  0  0  0  0
  -30.6290  -19.7310   19.0800 C   0  0  0  0  0  3  0  0  0  0  0  0
  -31.2860  -17.3850   19.1620 C   0  0  0  0  0  3  0  0  0  0  0  0
  -29.5300  -19.4710   19.9290 C   0  0  0  0  0  0  0  0  0  0  0  0
  -30.2190  -17.0700   20.0470 C   0  0  0  0  0  0  0  0  0  0  0  0
  -31.4900  -18.6940   18.6930 C   0  0  0  0  0  0  0  0  0  0  0  0
  -32.5260  -18.9590   17.8600 F   0  0  0  0  0  0  0  0  0  0  0  0
  -30.6900  -14.5930   20.3320 C   0  0  0  0  0  0  0  0  0  0  0  0
  -30.3730  -12.3800   19.3230 C   0  0  0  0  0  2  0  0  0  0  0  0
  -29.4370  -12.5130   18.1030 C   0  0  0  0  0  2  0  0  0  0  0  0
  -27.9670  -12.3790   18.5410 C   0  0  0  0  0  2  0  0  0  0  0  0
  -27.6130  -13.2670   19.7640 C   0  0  0  0  0  3  0  0  0  0  0  0
  -28.6760  -13.1590   20.8850 C   0  0  0  0  0  2  0  0  0  0  0  0
  -29.9920  -13.4210   20.2910 N   0  0  0  0  0  0  0  0  0  0  0  0
  -31.8730  -14.6430   20.0070 O   0  0  0  0  0  0  0  0  0  0  0  0
  -29.9780  -15.7310   20.5630 N   0  0  0  0  0  0  0  0  0  0  0  0
  -29.1000  -15.5930   21.0370 H   0  0  0  0  0  0  0  0  0  0  0  0
  -25.2210  -13.8780   20.4850 C   0  0  0  0  0  0  0  0  0  0  0  0
  -24.1500  -13.1070   20.8560 C   0  0  0  0  0  0  0  0  0  0  0  0
  -24.6080  -11.7550   20.8310 C   0  0  0  0  0  0  0  0  0  0  0  0
  -26.2620  -12.9930   20.2530 N   0  0  0  0  0  0  0  0  0  0  0  0
  -25.9000  -11.7140   20.5270 N   0  0  0  0  0  0  0  0  0  0  0  0
  -23.8780  -10.4920   21.0170 C   0  0  0  0  0  0  0  0  0  0  0  0
  -24.3060   -9.5320   21.9580 C   0  0  0  0  0  3  0  0  0  0  0  0
  -23.5830   -8.3330   22.1390 C   0  0  0  0  0  3  0  0  0  0  0  0
  -22.4160   -8.0880   21.3790 C   0  0  0  0  0  0  0  0  0  0  0  0
  -22.0030   -9.0400   20.4310 C   0  0  0  0  0  3  0  0  0  0  0  0
  -22.7260  -10.2300   20.2480 C   0  0  0  0  0  3  0  0  0  0  0  0
  -21.6610   -6.9430   21.4680 O   0  0  0  0  0  0  0  0  0  0  0  0
  -21.6020   -6.2050   22.6240 C   0  0  0  0  0  0  0  0  0  0  0  0
  -21.1540   -6.7630   23.8410 C   0  0  0  0  0  3  0  0  0  0  0  0
  -21.0460   -5.9540   24.9890 C   0  0  0  0  0  3  0  0  0  0  0  0
  -21.3700   -4.5870   24.9190 C   0  0  0  0  0  0  0  0  0  0  0  0
  -21.8070   -4.0260   23.7060 C   0  0  0  0  0  3  0  0  0  0  0  0
  -21.9180   -4.8330   22.5600 C   0  0  0  0  0  0  0  0  0  0  0  0
  -22.3190   -4.2820   21.3870 F   0  0  0  0  0  0  0  0  0  0  0  0
  -21.2590   -3.8060   26.0190 F   0  0  0  0  0  0  0  0  0  0  0  0
  -22.7540  -13.5830   21.1300 C   0  0  0  0  0  0  0  0  0  0  0  0
  -22.0200  -12.8850   21.9910 N   0  0  0  0  0  0  0  0  0  0  0  0
  -22.3130  -14.6110   20.6130 O   0  0  0  0  0  0  0  0  0  0  0  0
  -22.3840  -12.0590   22.4390 H   0  0  0  0  0  0  0  0  0  0  0  0
  -21.0770  -13.1790   22.2020 H   0  0  0  0  0  0  0  0  0  0  0  0
  -25.4000  -15.2470   20.3040 N   0  0  0  0  0  0  0  0  0  0  0  0
  -24.6710  -15.9330   20.4610 H   0  0  0  0  0  0  0  0  0  0  0  0
  -26.2710  -15.6620   20.0030 H   0  0  0  0  0  0  0  0  0  0  0  0
  -27.8980  -22.9680   20.5430 C   0  0  0  0  0  0  0  0  0  0  0  0
  -26.6870  -22.7320   20.5090 O   0  0  0  0  0  0  0  0  0  0  0  0
  -28.3350  -24.3980   20.9250 C   0  0  0  0  0  2  0  0  0  0  0  0
  -28.5250  -25.3780   19.7450 C   0  0  0  0  0  2  0  0  0  0  0  0
  -28.4570  -26.7500   20.1910 O   0  0  0  0  0  0  0  0  0  0  0  0
  -24.5770  -31.9100   23.2380 C   0  0  0  0  0  0  0  0  0  0  0  0
  -27.2540  -27.4360   20.2000 C   0  0  0  0  0  0  0  0  0  0  0  0
  -23.3920  -30.4980   21.5920 C   0  0  0  0  0  3  0  0  0  0  0  0
  -24.8600  -28.9560   20.1920 C   0  0  0  0  0  0  0  0  0  0  0  0
  -25.9240  -30.8480   21.4310 C   0  0  0  0  0  2  0  0  0  0  0  0
  -26.0140  -29.4770   20.7890 C   0  0  0  0  0  0  0  0  0  0  0  0
  -27.2110  -28.7240   20.7890 C   0  0  0  0  0  3  0  0  0  0  0  0
  -26.0640  -26.9210   19.6310 C   0  0  0  0  0  3  0  0  0  0  0  0
  -24.8810  -27.6780   19.6120 C   0  0  0  0  0  3  0  0  0  0  0  0
  -23.6140  -29.8120   20.2170 C   0  0  0  0  0  2  0  0  0  0  0  0
  -24.6470  -31.1040   22.1420 N   0  0  0  0  0  0  0  0  0  0  0  0
  -23.4870  -32.1820   23.7620 O   0  0  0  0  0  0  0  0  0  0  0  0
  -22.7380  -29.4750   22.5470 C   0  0  0  0  0  0  0  0  0  0  0  0
  -21.4130  -29.2970   22.4120 N   0  0  0  0  0  0  0  0  0  0  0  0
  -23.4180  -28.8440   23.3610 O   0  0  0  0  0  0  0  0  0  0  0  0
  -20.9310  -29.8580   21.7220 H   0  0  0  0  0  0  0  0  0  0  0  0
  -18.0260  -28.1480   22.9160 C   0  0  0  0  0  0  0  0  0  0  0  0
  -20.5880  -28.3620   23.1760 C   0  0  0  0  0  3  0  0  0  0  0  0
  -20.6650  -26.9360   22.5850 C   0  0  0  0  0  2  0  0  0  0  0  0
  -19.5540  -26.6410   21.5720 C   0  0  0  0  0  2  0  0  0  0  0  0
  -18.1760  -26.8050   22.2210 C   0  0  0  0  0  2  0  0  0  0  0  0
  -19.1580  -28.8880   23.3480 C   0  0  0  0  0  0  0  0  0  0  0  0
  -18.9630  -30.1480   23.9510 C   0  0  0  0  0  3  0  0  0  0  0  0
  -17.6690  -30.6670   24.1330 C   0  0  0  0  0  3  0  0  0  0  0  0
  -16.5490  -29.9230   23.7220 C   0  0  0  0  0  3  0  0  0  0  0  0
  -16.7290  -28.6650   23.1180 C   0  0  0  0  0  3  0  0  0  0  0  0
  -25.8560  -32.5430   23.8720 C   0  0  0  0  0  3  0  0  0  0  0  0
  -26.3560  -31.7810   25.1600 C   0  0  1  0  0  0  0  0  0  0  0  0
  -25.2480  -31.5500   26.2160 C   0  0  0  0  0  1  0  0  0  0  0  0
  -26.9500  -30.4030   24.7860 C   0  0  0  0  0  1  0  0  0  0  0  0
  -27.4980  -32.5810   25.8310 C   0  0  0  0  0  1  0  0  0  0  0  0
  -25.5440  -33.9420   24.1880 N   0  0  0  0  0  0  0  0  0  0  0  0
  -25.8880  -34.9870   23.4250 C   0  0  0  0  0  0  0  0  0  0  0  0
  -26.5710  -34.8770   22.4040 O   0  0  0  0  0  0  0  0  0  0  0  0
  -24.9510  -34.1080   24.9870 H   0  0  0  0  0  0  0  0  0  0  0  0
  -24.1700  -36.7790   23.0220 C   0  0  0  0  0  1  0  0  0  0  0  0
  -25.3920  -36.3780   23.8650 C   0  0  0  0  0  3  0  0  0  0  0  0
  -27.5080  -37.2650   24.7430 C   0  0  0  0  0  1  0  0  0  0  0  0
  -26.4290  -37.4310   23.7710 N   0  0  0  0  0  0  0  0  0  0  0  0
  -26.0190  -38.3520   23.9030 H   0  0  0  0  0  0  0  0  0  0  0  0
  2  1  2  0
  2 48  1  0
  4  6  1  0
  5  7  2  0
  6  1  1  0
  6  3  2  0
  7  3  1  0
  7 18  1  0
  8  4  2  0
  8  5  1  0
  9  8  1  0
 10 18  1  0
 11 16  1  0
 12 13  1  0
 12 11  1  0
 14 13  1  0
 14 23  1  0
 14 15  1  0
 16 10  1  0
 16 15  1  0
 17 10  2  0
 18 19  1  0
 20 21  2  0
 21 40  1  0
 22 21  1  0
 22 25  1  0
 23 20  1  0
 23 24  1  0
 24 22  2  0
 25 26  1  0
 26 27  2  0
 28 31  1  0
 28 27  1  0
 29 28  2  0
 30 29  1  0
 30 25  2  0
 31 32  1  0
 32 33  1  0
 33 34  2  0
 35 34  1  0
 35 39  1  0
 36 35  2  0
 37 32  2  0
 37 36  1  0
 38 37  1  0
 40 41  1  0
 41 44  1  0
 41 43  1  0
 42 40  2  0
 45 46  1  0
 45 20  1  0
 47 45  1  0
 48 50  1  0
 49 48  2  0
 51 52  1  0
 51 50  1  0
 52 54  1  0
 53 64  2  0
 54 59  1  0
 55 63  1  0
 55 65  1  0
 56 62  1  0
 56 58  1  0
 57 63  1  0
 58 57  1  0
 59 58  2  0
 60 54  2  0
 61 60  1  0
 61 56  2  0
 62 55  1  0
 63 53  1  0
 65 67  2  0
 66 65  1  0
 68 66  1  0
 69 78  2  0
 69 74  1  0
 70 66  1  0
 70 74  1  0
 71 70  1  0
 72 73  1  0
 72 71  1  0
 73 69  1  0
 74 75  2  0
 75 76  1  0
 77 76  2  0
 78 77  1  0
 79 53  1  0
 79 84  1  0
 79 80  1  0
 80 83  1  1
 80 81  1  0
 82 80  1  0
 84 87  1  0
 85 89  1  0
 85 84  1  0
 86 85  2  0
 89 88  1  0
 91 89  1  0
 91 92  1  0
 91 90  1  0
M  ISO  4  10 100  18 100  51 101  52 101
M  END
>  <TORSDO>  (87) 
F 20

>  <SCORE>  (87) 
-13.996

>  <name>  (87) 
86

>  <ligand_id>  (87) 
86

>  <original_smiles>  (87) 
[H]C(C(=O)C([H])([H])C([H])([H])Oc1c([H])c([H])c2c(c1[H])C([H])([H])N(C(=O)C([H])(N([H])C(=O)C([H])(N([H])C([H])([H])[H])C([H])([H])[H])C(C([H])([H])[H])(C([H])([H])[H])C([H])([H])[H])C([H])(C(=O)N([H])C1([H])c3c([H])c([H])c([H])c([H])c3C([H])([H])C([H])([H])C1([H])[H])C2([H])[H])=C([H])c1c([H])c(F)c([H])c(N([H])C(=O)N2C([H])([H])C([H])([H])C([H])([H])C([H])(n3nc(-c4c([H])c([H])c(Oc5c([H])c([H])c(F)c([H])c5F)c([H])c4[H])c(C(=O)N([H])[H])c3N([H])[H])C2([H])[H])c1[H]

>  <smiles>  (87) 
[H]C(C(=O)C([H])([H])C([H])([H])Oc1c([H])c([H])c2c(c1[H])C([H])([H])N(C(=O)C([H])(N([H])C(=O)C([H])(N([H])C([H])([H])[H])C([H])([H])[H])C(C([H])([H])[H])(C([H])([H])[H])C([H])([H])[H])C([H])(C(=O)N([H])C1([H])c3c([H])c([H])c([H])c([H])c3C([H])([H])C([H])([H])C1([H])[H])C2([H])[H])=C([H])c1c([H])c(F)c([H])c(N([H])C(=O)N2C([H])([H])C([H])([H])C([H])([H])C([H])(n3nc(-c4c([H])c([H])c(Oc5c([H])c([H])c(F)c([H])c5F)c([H])c4[H])c(C(=O)N([H])[H])c3N([H])[H])C2([H])[H])c1[H]

$$$$
87:0:0
     RDKit          3D

 93101  0  0  1  0  0  0  0  0999 V2000
  -31.3690  -18.0690   20.7870 C   0  0  0  0  0  3  0  0  0  0  0  0
  -31.4040  -19.4900   20.6500 C   0  0  0  0  0  3  0  0  0  0  0  0
  -29.1450  -19.4860   19.8720 C   0  0  0  0  0  3  0  0  0  0  0  0
  -30.2070  -17.2990   20.5110 C   0  0  0  0  0  0  0  0  0  0  0  0
  -29.0840  -18.0630   20.0290 C   0  0  0  0  0  0  0  0  0  0  0  0
  -30.2870  -20.2460   20.2140 C   0  0  0  0  0  0  0  0  0  0  0  0
  -30.1200  -15.8070   20.9210 C   0  0  0  0  0  0  0  0  0  0  0  0
  -29.6550  -15.5660   22.0760 N   0  0  0  0  0  0  0  0  0  0  0  0
  -29.3900  -16.4280   22.5370 H   0  0  0  0  0  0  0  0  0  0  0  0
  -30.6510  -14.6420   19.9960 C   0  0  0  0  0  0  0  0  0  0  0  0
  -30.3150  -12.4240   18.8990 C   0  0  0  0  0  2  0  0  0  0  0  0
  -29.2920  -12.5540   17.7480 C   0  0  0  0  0  2  0  0  0  0  0  0
  -27.8500  -12.3850   18.2650 C   0  0  0  0  0  2  0  0  0  0  0  0
  -27.5770  -13.2290   19.5370 C   0  0  0  0  0  3  0  0  0  0  0  0
  -28.7070  -13.0490   20.5730 C   0  0  0  0  0  2  0  0  0  0  0  0
  -29.9840  -13.4300   19.9380 N   0  0  0  0  0  0  0  0  0  0  0  0
  -31.6820  -14.8220   19.3400 O   0  0  0  0  0  0  0  0  0  0  0  0
  -25.2350  -13.8100   20.4300 C   0  0  0  0  0  0  0  0  0  0  0  0
  -24.2010  -13.0370   20.8720 C   0  0  0  0  0  0  0  0  0  0  0  0
  -24.6510  -11.6860   20.7730 C   0  0  0  0  0  0  0  0  0  0  0  0
  -26.2630  -12.9370   20.1080 N   0  0  0  0  0  0  0  0  0  0  0  0
  -25.9160  -11.6490   20.3670 N   0  0  0  0  0  0  0  0  0  0  0  0
  -23.9310  -10.4270   20.9840 C   0  0  0  0  0  0  0  0  0  0  0  0
  -24.3930   -9.4550   21.8980 C   0  0  0  0  0  3  0  0  0  0  0  0
  -23.6700   -8.2600   22.0980 C   0  0  0  0  0  3  0  0  0  0  0  0
  -22.4710   -8.0280   21.3810 C   0  0  0  0  0  0  0  0  0  0  0  0
  -22.0290   -8.9890   20.4540 C   0  0  0  0  0  3  0  0  0  0  0  0
  -22.7520  -10.1750   20.2530 C   0  0  0  0  0  3  0  0  0  0  0  0
  -21.7160   -6.8860   21.4910 O   0  0  0  0  0  0  0  0  0  0  0  0
  -21.6620   -6.1700   22.6600 C   0  0  0  0  0  0  0  0  0  0  0  0
  -21.2270   -6.7510   23.8710 C   0  0  0  0  0  3  0  0  0  0  0  0
  -21.1200   -5.9620   25.0330 C   0  0  0  0  0  3  0  0  0  0  0  0
  -21.4390   -4.5910   24.9850 C   0  0  0  0  0  0  0  0  0  0  0  0
  -21.8700   -4.0090   23.7790 C   0  0  0  0  0  3  0  0  0  0  0  0
  -21.9780   -4.7970   22.6190 C   0  0  0  0  0  0  0  0  0  0  0  0
  -22.3720   -4.2270   21.4550 F   0  0  0  0  0  0  0  0  0  0  0  0
  -21.3290   -3.8300   26.0980 F   0  0  0  0  0  0  0  0  0  0  0  0
  -22.8330  -13.5200   21.2620 C   0  0  0  0  0  0  0  0  0  0  0  0
  -22.1730  -12.8160   22.1750 N   0  0  0  0  0  0  0  0  0  0  0  0
  -22.3630  -14.5580   20.7970 O   0  0  0  0  0  0  0  0  0  0  0  0
  -22.5690  -11.9780   22.5710 H   0  0  0  0  0  0  0  0  0  0  0  0
  -21.2600  -13.1220   22.4800 H   0  0  0  0  0  0  0  0  0  0  0  0
  -25.3690  -15.1760   20.2470 N   0  0  0  0  0  0  0  0  0  0  0  0
  -24.6060  -15.8190   20.4200 H   0  0  0  0  0  0  0  0  0  0  0  0
  -26.1630  -15.6090   19.7990 H   0  0  0  0  0  0  0  0  0  0  0  0
  -27.7640  -17.3920   19.6580 C   0  0  0  0  0  2  0  0  0  0  0  0
  -25.7920  -18.8360   18.8270 C   0  0  0  0  0  1  0  0  0  0  0  0
  -26.4950  -18.1900   20.0330 C   0  0  0  0  0  2  0  0  0  0  0  0
  -30.3780  -21.6520   20.1680 O   0  0  0  0  0  0  0  0  0  0  0  0
  -29.2330  -22.5170   19.8820 C   0  0  0  0  0  3  0  0  0  0  0  0
  -29.4870  -24.0770   20.0970 C   0  0  0  0  0  3  0  0  0  0  0  0
  -28.3060  -25.0710   19.7310 C   0  0  0  0  0  2  0  0  0  0  0  0
  -28.4490  -26.5150   20.0120 O   0  0  0  0  0  0  0  0  0  0  0  0
  -24.5250  -31.7220   23.0930 C   0  0  0  0  0  0  0  0  0  0  0  0
  -27.2970  -27.3170   19.9650 C   0  0  0  0  0  0  0  0  0  0  0  0
  -23.3810  -30.3460   21.3920 C   0  0  0  0  0  3  0  0  0  0  0  0
  -24.8900  -28.8650   19.9560 C   0  0  0  0  0  0  0  0  0  0  0  0
  -25.9150  -30.7240   21.2680 C   0  0  0  0  0  2  0  0  0  0  0  0
  -26.0360  -29.3660   20.5850 C   0  0  0  0  0  0  0  0  0  0  0  0
  -27.2410  -28.6060   20.5790 C   0  0  0  0  0  3  0  0  0  0  0  0
  -26.1220  -26.8650   19.3170 C   0  0  0  0  0  3  0  0  0  0  0  0
  -24.9340  -27.6180   19.3150 C   0  0  0  0  0  3  0  0  0  0  0  0
  -23.6350  -29.7120   19.9990 C   0  0  0  0  0  2  0  0  0  0  0  0
  -24.6250  -30.9460   21.9750 N   0  0  0  0  0  0  0  0  0  0  0  0
  -23.4260  -31.9650   23.6140 O   0  0  0  0  0  0  0  0  0  0  0  0
  -22.7200  -29.2920   22.3110 C   0  0  0  0  0  0  0  0  0  0  0  0
  -21.3920  -29.1270   22.1840 N   0  0  0  0  0  0  0  0  0  0  0  0
  -23.4000  -28.6270   23.0970 O   0  0  0  0  0  0  0  0  0  0  0  0
  -20.9040  -29.7170   21.5250 H   0  0  0  0  0  0  0  0  0  0  0  0
  -18.0060  -27.9480   22.6670 C   0  0  0  0  0  0  0  0  0  0  0  0
  -20.5710  -28.1620   22.9180 C   0  0  0  0  0  3  0  0  0  0  0  0
  -20.6480  -26.7600   22.2720 C   0  0  0  0  0  2  0  0  0  0  0  0
  -19.5290  -26.5000   21.2570 C   0  0  0  0  0  2  0  0  0  0  0  0
  -18.1570  -26.6310   21.9240 C   0  0  0  0  0  2  0  0  0  0  0  0
  -19.1400  -28.6740   23.1190 C   0  0  0  0  0  0  0  0  0  0  0  0
  -18.9430  -29.9100   23.7730 C   0  0  0  0  0  3  0  0  0  0  0  0
  -17.6470  -30.4180   23.9790 C   0  0  0  0  0  3  0  0  0  0  0  0
  -16.5280  -29.6870   23.5430 C   0  0  0  0  0  3  0  0  0  0  0  0
  -16.7090  -28.4540   22.8920 C   0  0  0  0  0  3  0  0  0  0  0  0
  -25.7840  -32.3600   23.7580 C   0  0  0  0  0  3  0  0  0  0  0  0
  -25.4430  -33.7440   24.1180 N   0  0  0  0  0  0  0  0  0  0  0  0
  -25.7680  -34.8220   23.3930 C   0  0  0  0  0  0  0  0  0  0  0  0
  -26.4590  -34.7580   22.3710 O   0  0  0  0  0  0  0  0  0  0  0  0
  -24.8310  -33.8670   24.9110 H   0  0  0  0  0  0  0  0  0  0  0  0
  -24.0110  -36.5900   23.0590 C   0  0  0  0  0  1  0  0  0  0  0  0
  -25.2480  -36.1890   23.8780 C   0  0  0  0  0  3  0  0  0  0  0  0
  -27.3540  -37.0940   24.7610 C   0  0  0  0  0  1  0  0  0  0  0  0
  -26.2620  -37.2640   23.8060 N   0  0  0  0  0  0  0  0  0  0  0  0
  -25.8360  -38.1710   23.9700 H   0  0  0  0  0  0  0  0  0  0  0  0
  -26.2890  -31.5650   25.0240 C   0  0  1  0  0  0  0  0  0  0  0  0
  -25.1830  -31.2920   26.0690 C   0  0  0  0  0  1  0  0  0  0  0  0
  -26.8930  -30.2030   24.6110 C   0  0  0  0  0  1  0  0  0  0  0  0
  -27.4200  -32.3550   25.7230 C   0  0  0  0  0  1  0  0  0  0  0  0
  2  1  1  0
  3  5  2  0
  3  6  1  0
  4  1  2  0
  4  7  1  0
  5  4  1  0
  6  2  2  0
  7  8  2  0
  8  9  1  0
 10  7  1  0
 11 16  1  0
 12 13  1  0
 12 11  1  0
 14 13  1  0
 14 21  1  0
 14 15  1  0
 16 10  1  0
 16 15  1  0
 17 10  2  0
 18 19  2  0
 19 38  1  0
 20 19  1  0
 20 23  1  0
 21 22  1  0
 21 18  1  0
 22 20  2  0
 23 24  1  0
 24 25  2  0
 26 29  1  0
 26 25  1  0
 27 26  2  0
 28 27  1  0
 28 23  2  0
 29 30  1  0
 30 31  1  0
 31 32  2  0
 33 32  1  0
 33 37  1  0
 34 33  2  0
 35 30  2  0
 35 34  1  0
 36 35  1  0
 38 39  1  0
 39 42  1  0
 39 41  1  0
 40 38  2  0
 43 44  1  0
 43 18  1  0
 45 43  1  0
 46  5  1  0
 46 48  1  0
 47 48  1  0
 49  6  1  0
 50 51  2  0
 50 49  1  0
 52 53  1  0
 52 51  1  0
 54 65  2  0
 55 53  1  0
 55 60  1  0
 56 64  1  0
 56 66  1  0
 57 63  1  0
 57 59  1  0
 58 64  1  0
 59 58  1  0
 60 59  2  0
 61 55  2  0
 62 61  1  0
 62 57  2  0
 63 56  1  0
 64 54  1  0
 66 68  2  0
 67 66  1  0
 69 67  1  0
 70 79  2  0
 70 75  1  0
 71 67  1  0
 71 75  1  0
 72 71  1  0
 73 74  1  0
 73 72  1  0
 74 70  1  0
 75 76  2  0
 76 77  1  0
 78 77  2  0
 79 78  1  0
 80 54  1  0
 80 81  1  0
 80 90  1  0
 81 84  1  0
 82 86  1  0
 82 81  1  0
 83 82  2  0
 86 85  1  0
 88 86  1  0
 88 89  1  0
 88 87  1  0
 90 93  1  1
 90 91  1  0
 92 90  1  0
M  ISO  4   7 100  10 100  52 101  53 101
M  END
>  <TORSDO>  (88) 
F 23

>  <SCORE>  (88) 
-11.968

>  <name>  (88) 
87

>  <ligand_id>  (88) 
87

>  <original_smiles>  (88) 
[H]N=C(C(=O)N1C([H])([H])C([H])([H])C([H])([H])C([H])(n2nc(-c3c([H])c([H])c(Oc4c([H])c([H])c(F)c([H])c4F)c([H])c3[H])c(C(=O)N([H])[H])c2N([H])[H])C1([H])[H])c1c([H])c([H])c(OC([H])([H])C([H])([H])C([H])([H])Oc2c([H])c([H])c3c(c2[H])C([H])([H])N(C(=O)C([H])(N([H])C(=O)C([H])(N([H])C([H])([H])[H])C([H])([H])[H])C(C([H])([H])[H])(C([H])([H])[H])C([H])([H])[H])C([H])(C(=O)N([H])C2([H])c4c([H])c([H])c([H])c([H])c4C([H])([H])C([H])([H])C2([H])[H])C3([H])[H])c([H])c1C([H])([H])C([H])([H])C([H])([H])[H]

>  <smiles>  (88) 
[H]N=C(C(=O)N1C([H])([H])C([H])([H])C([H])([H])C([H])(n2nc(-c3c([H])c([H])c(Oc4c([H])c([H])c(F)c([H])c4F)c([H])c3[H])c(C(=O)N([H])[H])c2N([H])[H])C1([H])[H])c1c([H])c([H])c(OC([H])([H])C([H])([H])C([H])([H])Oc2c([H])c([H])c3c(c2[H])C([H])([H])N(C(=O)C([H])(N([H])C(=O)C([H])(N([H])C([H])([H])[H])C([H])([H])[H])C(C([H])([H])[H])(C([H])([H])[H])C([H])([H])[H])C([H])(C(=O)N([H])C2([H])c4c([H])c([H])c([H])c([H])c4C([H])([H])C([H])([H])C2([H])[H])C3([H])[H])c([H])c1C([H])([H])C([H])([H])C([H])([H])[H]

$$$$
88:0:0
     RDKit          3D

 92100  0  0  1  0  0  0  0  0999 V2000
  -30.0780  -18.8600   21.4840 C   0  0  0  0  0  3  0  0  0  0  0  0
  -31.6900  -19.5540   19.8160 C   0  0  0  0  0  3  0  0  0  0  0  0
  -31.0590  -18.5200   20.5320 C   0  0  0  0  0  0  0  0  0  0  0  0
  -30.3060  -21.2490   20.9170 C   0  0  0  0  0  0  0  0  0  0  0  0
  -29.7160  -20.2110   21.6920 C   0  0  0  0  0  0  0  0  0  0  0  0
  -31.3380  -20.9050   20.0000 C   0  0  0  0  0  0  0  0  0  0  0  0
  -28.6760  -20.5260   22.7570 C   0  0  0  0  0  1  0  0  0  0  0  0
  -32.1330  -21.9400   19.2090 C   0  0  0  0  0  1  0  0  0  0  0  0
  -31.4370  -17.1410   20.1860 C   0  0  0  0  0  3  0  0  0  0  0  0
  -30.7570  -15.9850   20.3740 C   0  0  0  0  0  3  0  0  0  0  0  0
  -31.3570  -14.7510   19.8580 C   0  0  0  0  0  0  0  0  0  0  0  0
  -30.8620  -12.5820   18.8160 C   0  0  0  0  0  2  0  0  0  0  0  0
  -29.8890  -12.8120   17.6410 C   0  0  0  0  0  2  0  0  0  0  0  0
  -28.4320  -12.7400   18.1370 C   0  0  0  0  0  2  0  0  0  0  0  0
  -28.1820  -13.6160   19.3940 C   0  0  0  0  0  3  0  0  0  0  0  0
  -29.2840  -13.4020   20.4580 C   0  0  0  0  0  2  0  0  0  0  0  0
  -30.5900  -13.6240   19.8200 N   0  0  0  0  0  0  0  0  0  0  0  0
  -32.4730  -14.7680   19.3320 O   0  0  0  0  0  0  0  0  0  0  0  0
  -25.8570  -14.3030   20.2540 C   0  0  0  0  0  0  0  0  0  0  0  0
  -24.7770  -13.5670   20.6630 C   0  0  0  0  0  0  0  0  0  0  0  0
  -25.1740  -12.1980   20.5730 C   0  0  0  0  0  0  0  0  0  0  0  0
  -26.8470  -13.3840   19.9430 N   0  0  0  0  0  0  0  0  0  0  0  0
  -26.4430  -12.1120   20.1920 N   0  0  0  0  0  0  0  0  0  0  0  0
  -24.4040  -10.9630   20.7740 C   0  0  0  0  0  0  0  0  0  0  0  0
  -24.8220   -9.9670   21.6840 C   0  0  0  0  0  3  0  0  0  0  0  0
  -24.0510   -8.8000   21.8700 C   0  0  0  0  0  3  0  0  0  0  0  0
  -22.8470   -8.6200   21.1480 C   0  0  0  0  0  0  0  0  0  0  0  0
  -22.4480   -9.6040   20.2250 C   0  0  0  0  0  3  0  0  0  0  0  0
  -23.2200  -10.7630   20.0360 C   0  0  0  0  0  3  0  0  0  0  0  0
  -22.0480   -7.5090   21.2470 O   0  0  0  0  0  0  0  0  0  0  0  0
  -21.9930   -6.7600   22.3960 C   0  0  0  0  0  0  0  0  0  0  0  0
  -21.5790   -7.3160   23.6260 C   0  0  0  0  0  3  0  0  0  0  0  0
  -21.4690   -6.4950   24.7660 C   0  0  0  0  0  3  0  0  0  0  0  0
  -21.7660   -5.1210   24.6790 C   0  0  0  0  0  0  0  0  0  0  0  0
  -22.1720   -4.5660   23.4530 C   0  0  0  0  0  3  0  0  0  0  0  0
  -22.2830   -5.3830   22.3140 C   0  0  0  0  0  0  0  0  0  0  0  0
  -22.6550   -4.8380   21.1310 F   0  0  0  0  0  0  0  0  0  0  0  0
  -21.6540   -4.3330   25.7720 F   0  0  0  0  0  0  0  0  0  0  0  0
  -23.4200  -14.0970   21.0270 C   0  0  0  0  0  0  0  0  0  0  0  0
  -22.7110  -13.4110   21.9170 N   0  0  0  0  0  0  0  0  0  0  0  0
  -23.0010  -15.1550   20.5590 O   0  0  0  0  0  0  0  0  0  0  0  0
  -23.0630  -12.5520   22.3130 H   0  0  0  0  0  0  0  0  0  0  0  0
  -21.8050  -13.7520   22.2050 H   0  0  0  0  0  0  0  0  0  0  0  0
  -26.0730  -15.6690   20.1000 N   0  0  0  0  0  0  0  0  0  0  0  0
  -25.3490  -16.3560   20.2750 H   0  0  0  0  0  0  0  0  0  0  0  0
  -26.9300  -16.0800   19.7490 H   0  0  0  0  0  0  0  0  0  0  0  0
  -29.7690  -22.6270   21.0230 C   0  0  0  0  0  3  0  0  0  0  0  0
  -29.5070  -23.4260   19.9670 C   0  0  0  0  0  3  0  0  0  0  0  0
  -28.9920  -24.7980   20.1030 C   0  0  0  0  0  0  0  0  0  0  0  0
  -28.4610  -25.2180   21.1360 O   0  0  0  0  0  0  0  0  0  0  0  0
  -29.1490  -25.7060   18.8720 C   0  0  0  0  0  2  0  0  0  0  0  0
  -28.9590  -27.0860   19.2020 O   0  0  0  0  0  0  0  0  0  0  0  0
  -24.6510  -31.4050   22.8160 C   0  0  0  0  0  0  0  0  0  0  0  0
  -27.6870  -27.6160   19.2710 C   0  0  0  0  0  0  0  0  0  0  0  0
  -23.5650  -30.0540   21.0490 C   0  0  0  0  0  3  0  0  0  0  0  0
  -25.1420  -28.8330   19.4650 C   0  0  0  0  0  0  0  0  0  0  0  0
  -26.0320  -30.7050   20.8630 C   0  0  0  0  0  2  0  0  0  0  0  0
  -26.2460  -29.4210   20.0920 C   0  0  0  0  0  0  0  0  0  0  0  0
  -27.5170  -28.8160   19.9950 C   0  0  0  0  0  3  0  0  0  0  0  0
  -26.5580  -27.0300   18.6530 C   0  0  0  0  0  3  0  0  0  0  0  0
  -25.2910  -27.6340   18.7480 C   0  0  0  0  0  3  0  0  0  0  0  0
  -23.8170  -29.5420   19.6050 C   0  0  0  0  0  2  0  0  0  0  0  0
  -24.7670  -30.7320   21.6370 N   0  0  0  0  0  0  0  0  0  0  0  0
  -23.5580  -31.5040   23.3910 O   0  0  0  0  0  0  0  0  0  0  0  0
  -23.0480  -28.8760   21.9050 C   0  0  0  0  0  0  0  0  0  0  0  0
  -21.7470  -28.5740   21.7810 N   0  0  0  0  0  0  0  0  0  0  0  0
  -23.8130  -28.2430   22.6370 O   0  0  0  0  0  0  0  0  0  0  0  0
  -21.1880  -29.1470   21.1660 H   0  0  0  0  0  0  0  0  0  0  0  0
  -18.5110  -27.0310   22.2280 C   0  0  0  0  0  0  0  0  0  0  0  0
  -21.0460  -27.4830   22.4580 C   0  0  0  0  0  3  0  0  0  0  0  0
  -21.2500  -26.1450   21.7090 C   0  0  0  0  0  2  0  0  0  0  0  0
  -20.1390  -25.8430   20.6980 C   0  0  0  0  0  2  0  0  0  0  0  0
  -18.7760  -25.7880   21.3950 C   0  0  0  0  0  2  0  0  0  0  0  0
  -19.5770  -27.8350   22.7140 C   0  0  0  0  0  0  0  0  0  0  0  0
  -19.2750  -28.9970   23.4570 C   0  0  0  0  0  3  0  0  0  0  0  0
  -17.9400  -29.3610   23.7150 C   0  0  0  0  0  3  0  0  0  0  0  0
  -16.8900  -28.5530   23.2470 C   0  0  0  0  0  3  0  0  0  0  0  0
  -17.1760  -27.3880   22.5110 C   0  0  0  0  0  3  0  0  0  0  0  0
  -25.8760  -32.1030   23.4850 C   0  0  0  0  0  3  0  0  0  0  0  0
  -26.4780  -31.2840   24.6910 C   0  0  1  0  0  0  0  0  0  0  0  0
  -25.4240  -30.8590   25.7400 C   0  0  0  0  0  1  0  0  0  0  0  0
  -27.1800  -30.0020   24.1810 C   0  0  0  0  0  1  0  0  0  0  0  0
  -27.5600  -32.1250   25.4090 C   0  0  0  0  0  1  0  0  0  0  0  0
  -25.4370  -33.4350   23.9230 N   0  0  0  0  0  0  0  0  0  0  0  0
  -25.6750  -34.5710   23.2550 C   0  0  0  0  0  0  0  0  0  0  0  0
  -26.3550  -34.6150   22.2260 O   0  0  0  0  0  0  0  0  0  0  0  0
  -24.8260  -33.4670   24.7260 H   0  0  0  0  0  0  0  0  0  0  0  0
  -23.7800  -36.2110   23.0380 C   0  0  0  0  0  1  0  0  0  0  0  0
  -25.0580  -35.8640   23.8190 C   0  0  0  0  0  3  0  0  0  0  0  0
  -27.0960  -36.8870   24.7300 C   0  0  0  0  0  1  0  0  0  0  0  0
  -25.9830  -37.0180   23.7940 N   0  0  0  0  0  0  0  0  0  0  0  0
  -25.4910  -37.8810   24.0070 H   0  0  0  0  0  0  0  0  0  0  0  0
  1  5  1  0
  2  6  2  0
  2  3  1  0
  3  1  2  0
  4 47  1  0
  4  5  2  0
  5  7  1  0
  6  4  1  0
  8  6  1  0
  9 10  2  0
  9  3  1  0
 11 10  1  0
 12 17  1  0
 13 14  1  0
 13 12  1  0
 15 14  1  0
 15 22  1  0
 15 16  1  0
 17 11  1  0
 17 16  1  0
 18 11  2  0
 19 20  2  0
 20 39  1  0
 21 20  1  0
 21 24  1  0
 22 23  1  0
 22 19  1  0
 23 21  2  0
 24 25  1  0
 25 26  2  0
 27 30  1  0
 27 26  1  0
 28 27  2  0
 29 28  1  0
 29 24  2  0
 30 31  1  0
 31 32  1  0
 32 33  2  0
 34 33  1  0
 34 38  1  0
 35 34  2  0
 36 31  2  0
 36 35  1  0
 37 36  1  0
 39 40  1  0
 40 43  1  0
 40 42  1  0
 41 39  2  0
 44 19  1  0
 44 45  1  0
 46 44  1  0
 48 49  1  0
 48 47  2  0
 49 50  2  0
 51 52  1  0
 51 49  1  0
 52 54  1  0
 53 64  2  0
 54 59  1  0
 55 63  1  0
 55 65  1  0
 56 62  1  0
 56 58  1  0
 57 63  1  0
 58 57  1  0
 59 58  2  0
 60 61  1  0
 60 54  2  0
 61 56  2  0
 62 55  1  0
 63 53  1  0
 65 67  2  0
 66 65  1  0
 68 66  1  0
 69 78  2  0
 69 74  1  0
 70 66  1  0
 70 74  1  0
 71 70  1  0
 72 73  1  0
 72 71  1  0
 73 69  1  0
 74 75  2  0
 75 76  1  0
 77 76  2  0
 78 77  1  0
 79 53  1  0
 79 84  1  0
 79 80  1  0
 80 83  1  1
 80 81  1  0
 82 80  1  0
 84 87  1  0
 85 89  1  0
 85 84  1  0
 86 85  2  0
 89 88  1  0
 91 89  1  0
 91 92  1  0
 91 90  1  0
M  ISO  4  10 100  11 100  51 101  52 101
M  END
>  <TORSDO>  (89) 
F 20

>  <SCORE>  (89) 
-8.431

>  <name>  (89) 
88

>  <ligand_id>  (89) 
88

>  <original_smiles>  (89) 
[H]C(C(=O)N1C([H])([H])C([H])([H])C([H])([H])C([H])(n2nc(-c3c([H])c([H])c(Oc4c([H])c([H])c(F)c([H])c4F)c([H])c3[H])c(C(=O)N([H])[H])c2N([H])[H])C1([H])[H])=C([H])c1c([H])c(C([H])([H])[H])c(C([H])=C([H])C(=O)C([H])([H])Oc2c([H])c([H])c3c(c2[H])C([H])([H])N(C(=O)C([H])(N([H])C(=O)C([H])(N([H])C([H])([H])[H])C([H])([H])[H])C(C([H])([H])[H])(C([H])([H])[H])C([H])([H])[H])C([H])(C(=O)N([H])C2([H])c4c([H])c([H])c([H])c([H])c4C([H])([H])C([H])([H])C2([H])[H])C3([H])[H])c(C([H])([H])[H])c1[H]

>  <smiles>  (89) 
[H]C(C(=O)N1C([H])([H])C([H])([H])C([H])([H])C([H])(n2nc(-c3c([H])c([H])c(Oc4c([H])c([H])c(F)c([H])c4F)c([H])c3[H])c(C(=O)N([H])[H])c2N([H])[H])C1([H])[H])=C([H])c1c([H])c(C([H])([H])[H])c(C([H])=C([H])C(=O)C([H])([H])Oc2c([H])c([H])c3c(c2[H])C([H])([H])N(C(=O)C([H])(N([H])C(=O)C([H])(N([H])C([H])([H])[H])C([H])([H])[H])C(C([H])([H])[H])(C([H])([H])[H])C([H])([H])[H])C([H])(C(=O)N([H])C2([H])c4c([H])c([H])c([H])c([H])c4C([H])([H])C([H])([H])C2([H])[H])C3([H])[H])c(C([H])([H])[H])c1[H]

$$$$
89:0:0
     RDKit          3D

 89 97  0  0  1  0  0  0  0  0999 V2000
  -29.9130  -21.8740   21.6460 C   0  0  0  0  0  3  0  0  0  0  0  0
  -29.4960  -22.6290   20.5900 C   0  0  0  0  0  3  0  0  0  0  0  0
  -30.3440  -19.8480   23.1400 C   0  0  0  0  0  3  0  0  0  0  0  0
  -30.6540  -18.4660   22.9370 C   0  0  0  0  0  0  0  0  0  0  0  0
  -30.1840  -20.4550   21.9270 C   0  0  0  0  0  0  0  0  0  0  0  0
  -30.6970  -18.2790   21.5730 C   0  0  0  0  0  0  0  0  0  0  0  0
  -30.9300  -17.4670   24.0310 C   0  0  0  0  0  1  0  0  0  0  0  0
  -30.3590  -19.4870   20.9500 O   0  0  0  0  0  0  0  0  0  0  0  0
  -31.0530  -17.1140   20.7470 C   0  0  0  0  0  3  0  0  0  0  0  0
  -31.0360  -15.7720   21.0230 C   0  0  0  0  0  3  0  0  0  0  0  0
  -31.5670  -14.7250   20.1050 C   0  0  0  0  0  0  0  0  0  0  0  0
  -31.1180  -12.6470   18.8150 C   0  0  0  0  0  2  0  0  0  0  0  0
  -30.1140  -12.9220   17.6760 C   0  0  0  0  0  2  0  0  0  0  0  0
  -28.6560  -12.8400   18.1680 C   0  0  0  0  0  2  0  0  0  0  0  0
  -28.4360  -13.6190   19.4900 C   0  0  0  0  0  3  0  0  0  0  0  0
  -29.5230  -13.2710   20.5290 C   0  0  0  0  0  2  0  0  0  0  0  0
  -30.8310  -13.5800   19.9260 N   0  0  0  0  0  0  0  0  0  0  0  0
  -32.6340  -14.8750   19.4990 O   0  0  0  0  0  0  0  0  0  0  0  0
  -26.1400  -14.3460   20.3810 C   0  0  0  0  0  0  0  0  0  0  0  0
  -25.0410  -13.6300   20.7710 C   0  0  0  0  0  0  0  0  0  0  0  0
  -25.3970  -12.2550   20.6410 C   0  0  0  0  0  0  0  0  0  0  0  0
  -27.0990  -13.4100   20.0320 N   0  0  0  0  0  0  0  0  0  0  0  0
  -26.6590  -12.1440   20.2460 N   0  0  0  0  0  0  0  0  0  0  0  0
  -24.5920  -11.0390   20.8110 C   0  0  0  0  0  0  0  0  0  0  0  0
  -24.9470  -10.0440   21.7470 C   0  0  0  0  0  3  0  0  0  0  0  0
  -24.1530   -8.8890   21.9060 C   0  0  0  0  0  3  0  0  0  0  0  0
  -22.9820   -8.7240   21.1290 C   0  0  0  0  0  0  0  0  0  0  0  0
  -22.6460   -9.7040   20.1790 C   0  0  0  0  0  3  0  0  0  0  0  0
  -23.4410  -10.8510   20.0190 C   0  0  0  0  0  3  0  0  0  0  0  0
  -22.1580   -7.6250   21.1970 O   0  0  0  0  0  0  0  0  0  0  0  0
  -21.9490   -6.9530   22.3730 C   0  0  0  0  0  0  0  0  0  0  0  0
  -21.4700   -7.6000   23.5330 C   0  0  0  0  0  3  0  0  0  0  0  0
  -21.2060   -6.8530   24.7000 C   0  0  0  0  0  3  0  0  0  0  0  0
  -21.4130   -5.4610   24.7060 C   0  0  0  0  0  0  0  0  0  0  0  0
  -21.8850   -4.8150   23.5510 C   0  0  0  0  0  3  0  0  0  0  0  0
  -22.1510   -5.5590   22.3880 C   0  0  0  0  0  0  0  0  0  0  0  0
  -22.5870   -4.9260   21.2710 F   0  0  0  0  0  0  0  0  0  0  0  0
  -21.1510   -4.7400   25.8240 F   0  0  0  0  0  0  0  0  0  0  0  0
  -23.6980  -14.1910   21.1510 C   0  0  0  0  0  0  0  0  0  0  0  0
  -22.9950  -13.5330   22.0650 N   0  0  0  0  0  0  0  0  0  0  0  0
  -23.2900  -15.2510   20.6730 O   0  0  0  0  0  0  0  0  0  0  0  0
  -23.3470  -12.6900   22.4920 H   0  0  0  0  0  0  0  0  0  0  0  0
  -22.0880  -13.8800   22.3460 H   0  0  0  0  0  0  0  0  0  0  0  0
  -26.3980  -15.7070   20.2750 N   0  0  0  0  0  0  0  0  0  0  0  0
  -25.6940  -16.4090   20.4810 H   0  0  0  0  0  0  0  0  0  0  0  0
  -27.2700  -16.0990   19.9460 H   0  0  0  0  0  0  0  0  0  0  0  0
  -29.4040  -24.1900   20.5860 C   0  0  0  0  0  3  0  0  0  0  0  0
  -28.2220  -24.8500   19.7990 C   0  0  0  0  0  3  0  0  0  0  0  0
  -28.3780  -26.2810   19.5270 O   0  0  0  0  0  0  0  0  0  0  0  0
  -24.7260  -31.4470   22.8500 C   0  0  0  0  0  0  0  0  0  0  0  0
  -27.2320  -27.0720   19.5290 C   0  0  0  0  0  0  0  0  0  0  0  0
  -23.4450  -30.0740   21.2430 C   0  0  0  0  0  3  0  0  0  0  0  0
  -24.8370  -28.6020   19.6880 C   0  0  0  0  0  0  0  0  0  0  0  0
  -25.9540  -30.4670   20.9110 C   0  0  0  0  0  2  0  0  0  0  0  0
  -26.0250  -29.1130   20.2240 C   0  0  0  0  0  0  0  0  0  0  0  0
  -27.2270  -28.3580   20.1380 C   0  0  0  0  0  3  0  0  0  0  0  0
  -26.0270  -26.6110   18.9530 C   0  0  0  0  0  3  0  0  0  0  0  0
  -24.8370  -27.3550   19.0430 C   0  0  0  0  0  3  0  0  0  0  0  0
  -23.5860  -29.4430   19.8330 C   0  0  0  0  0  2  0  0  0  0  0  0
  -24.7300  -30.6760   21.7250 N   0  0  0  0  0  0  0  0  0  0  0  0
  -23.6750  -31.6800   23.4620 O   0  0  0  0  0  0  0  0  0  0  0  0
  -22.8670  -29.0120   22.2100 C   0  0  0  0  0  0  0  0  0  0  0  0
  -21.5500  -28.7580   22.1170 N   0  0  0  0  0  0  0  0  0  0  0  0
  -23.6030  -28.4190   23.0050 O   0  0  0  0  0  0  0  0  0  0  0  0
  -21.0040  -29.3050   21.4630 H   0  0  0  0  0  0  0  0  0  0  0  0
  -18.2840  -27.3010   22.6220 C   0  0  0  0  0  0  0  0  0  0  0  0
  -20.8090  -27.7730   22.9050 C   0  0  0  0  0  3  0  0  0  0  0  0
  -21.0290  -26.3380   22.3640 C   0  0  0  0  0  2  0  0  0  0  0  0
  -19.9690  -25.9050   21.3470 C   0  0  0  0  0  2  0  0  0  0  0  0
  -18.5760  -25.9550   21.9790 C   0  0  0  0  0  2  0  0  0  0  0  0
  -19.3330  -28.1590   23.0460 C   0  0  0  0  0  0  0  0  0  0  0  0
  -19.0090  -29.4130   23.6080 C   0  0  0  0  0  3  0  0  0  0  0  0
  -17.6670  -29.8130   23.7470 C   0  0  0  0  0  3  0  0  0  0  0  0
  -16.6320  -28.9530   23.3410 C   0  0  0  0  0  3  0  0  0  0  0  0
  -16.9400  -27.6990   22.7850 C   0  0  0  0  0  3  0  0  0  0  0  0
  -26.0340  -32.0860   23.4100 C   0  0  0  0  0  3  0  0  0  0  0  0
  -26.7140  -31.2280   24.5500 C   0  0  1  0  0  0  0  0  0  0  0  0
  -25.7450  -30.8160   25.6830 C   0  0  0  0  0  1  0  0  0  0  0  0
  -27.3330  -29.9360   23.9670 C   0  0  0  0  0  1  0  0  0  0  0  0
  -27.8730  -32.0280   25.1910 C   0  0  0  0  0  1  0  0  0  0  0  0
  -25.6920  -33.4260   23.9030 N   0  0  0  0  0  0  0  0  0  0  0  0
  -26.0240  -34.5720   23.2910 C   0  0  0  0  0  0  0  0  0  0  0  0
  -26.7180  -34.6090   22.2700 O   0  0  0  0  0  0  0  0  0  0  0  0
  -25.0790  -33.4650   24.7020 H   0  0  0  0  0  0  0  0  0  0  0  0
  -24.3130  -36.4060   23.0810 C   0  0  0  0  0  1  0  0  0  0  0  0
  -25.5000  -35.8830   23.9050 C   0  0  0  0  0  3  0  0  0  0  0  0
  -27.5830  -36.6350   24.9690 C   0  0  0  0  0  1  0  0  0  0  0  0
  -26.5280  -36.9400   24.0070 N   0  0  0  0  0  0  0  0  0  0  0  0
  -26.1070  -37.8280   24.2690 H   0  0  0  0  0  0  0  0  0  0  0  0
  1  5  1  0
  2  1  2  0
  4  3  1  0
  4  7  1  0
  5  3  2  0
  6  4  2  0
  8  6  1  0
  8  5  1  0
  9 10  2  0
  9  6  1  0
 11 10  1  0
 12 17  1  0
 13 14  1  0
 13 12  1  0
 15 14  1  0
 15 22  1  0
 15 16  1  0
 17 11  1  0
 17 16  1  0
 18 11  2  0
 19 20  2  0
 20 39  1  0
 21 20  1  0
 21 24  1  0
 22 23  1  0
 22 19  1  0
 23 21  2  0
 24 25  1  0
 25 26  2  0
 27 30  1  0
 27 26  1  0
 28 27  2  0
 29 28  1  0
 29 24  2  0
 30 31  1  0
 31 36  2  0
 31 32  1  0
 32 33  2  0
 33 34  1  0
 34 38  1  0
 35 34  2  0
 36 35  1  0
 37 36  1  0
 39 40  1  0
 40 43  1  0
 40 42  1  0
 41 39  2  0
 44 19  1  0
 44 45  1  0
 46 44  1  0
 47  2  1  0
 48 47  2  0
 49 51  1  0
 49 48  1  0
 50 61  2  0
 51 56  1  0
 52 60  1  0
 52 62  1  0
 53 59  1  0
 53 55  1  0
 54 60  1  0
 55 54  1  0
 56 55  2  0
 57 58  1  0
 57 51  2  0
 58 53  2  0
 59 52  1  0
 60 50  1  0
 62 64  2  0
 63 62  1  0
 65 63  1  0
 66 75  2  0
 66 71  1  0
 67 63  1  0
 67 71  1  0
 68 67  1  0
 69 70  1  0
 69 68  1  0
 70 66  1  0
 71 72  2  0
 72 73  1  0
 74 73  2  0
 75 74  1  0
 76 50  1  0
 76 81  1  0
 76 77  1  0
 77 80  1  1
 77 78  1  0
 79 77  1  0
 81 84  1  0
 82 81  1  0
 82 86  1  0
 83 82  2  0
 86 85  1  0
 86 88  1  0
 88 89  1  0
 88 87  1  0
M  ISO  4  10 100  11 100  48 101  49 101
M  END
>  <TORSDO>  (90) 
F 20

>  <SCORE>  (90) 
-9.571

>  <name>  (90) 
89

>  <ligand_id>  (90) 
89

>  <original_smiles>  (90) 
[H]C(C(=O)N1C([H])([H])C([H])([H])C([H])([H])C([H])(n2nc(-c3c([H])c([H])c(Oc4c([H])c([H])c(F)c([H])c4F)c([H])c3[H])c(C(=O)N([H])[H])c2N([H])[H])C1([H])[H])=C([H])c1oc(C([H])=C([H])C([H])([H])C([H])([H])Oc2c([H])c([H])c3c(c2[H])C([H])([H])N(C(=O)C([H])(N([H])C(=O)C([H])(N([H])C([H])([H])[H])C([H])([H])[H])C(C([H])([H])[H])(C([H])([H])[H])C([H])([H])[H])C([H])(C(=O)N([H])C2([H])c4c([H])c([H])c([H])c([H])c4C([H])([H])C([H])([H])C2([H])[H])C3([H])[H])c([H])c1C([H])([H])[H]

>  <smiles>  (90) 
[H]C(C(=O)N1C([H])([H])C([H])([H])C([H])([H])C([H])(n2nc(-c3c([H])c([H])c(Oc4c([H])c([H])c(F)c([H])c4F)c([H])c3[H])c(C(=O)N([H])[H])c2N([H])[H])C1([H])[H])=C([H])c1oc(C([H])=C([H])C([H])([H])C([H])([H])Oc2c([H])c([H])c3c(c2[H])C([H])([H])N(C(=O)C([H])(N([H])C(=O)C([H])(N([H])C([H])([H])[H])C([H])([H])[H])C(C([H])([H])[H])(C([H])([H])[H])C([H])([H])[H])C([H])(C(=O)N([H])C2([H])c4c([H])c([H])c([H])c([H])c4C([H])([H])C([H])([H])C2([H])[H])C3([H])[H])c([H])c1C([H])([H])[H]

$$$$
90:0:0
     RDKit          3D

 92100  0  0  1  0  0  0  0  0999 V2000
  -31.1980  -18.9630   16.8750 C   0  0  0  0  0  3  0  0  0  0  0  0
  -30.5730  -20.1480   17.2880 C   0  0  0  0  0  3  0  0  0  0  0  0
  -30.2280  -19.1550   19.4580 C   0  0  0  0  0  3  0  0  0  0  0  0
  -31.3590  -17.8210   17.7130 C   0  0  0  0  0  0  0  0  0  0  0  0
  -30.0800  -20.2450   18.5890 C   0  0  0  0  0  0  0  0  0  0  0  0
  -30.8460  -17.9300   19.0760 C   0  0  0  0  0  0  0  0  0  0  0  0
  -29.3840  -21.5140   19.0410 C   0  0  0  0  0  1  0  0  0  0  0  0
  -32.0810  -16.6470   17.0720 C   0  0  0  0  0  3  0  0  0  0  0  0
  -32.5330  -16.5770   15.7760 C   0  0  0  0  0  3  0  0  0  0  0  0
  -33.3180  -15.4430   15.0820 C   0  0  0  0  0  2  0  0  0  0  0  0
  -33.6520  -15.5690   13.5400 C   0  0  0  0  0  2  0  0  0  0  0  0
  -34.7610  -16.5610   13.0570 C   0  0  0  0  0  2  0  0  0  0  0  0
  -34.3620  -17.4220   11.9430 O   0  0  0  0  0  0  0  0  0  0  0  0
  -36.4410  -23.4870    8.7610 C   0  0  0  0  0  0  0  0  0  0  0  0
  -34.5740  -18.7910   12.0530 C   0  0  0  0  0  0  0  0  0  0  0  0
  -36.2240  -23.5710   11.2250 C   0  0  0  0  0  3  0  0  0  0  0  0
  -35.0310  -21.5860   12.2990 C   0  0  0  0  0  0  0  0  0  0  0  0
  -34.7790  -21.9700    9.8450 C   0  0  0  0  0  2  0  0  0  0  0  0
  -34.7700  -21.0310   11.0400 C   0  0  0  0  0  0  0  0  0  0  0  0
  -34.5260  -19.6380   10.9140 C   0  0  0  0  0  3  0  0  0  0  0  0
  -34.8210  -19.3810   13.3120 C   0  0  0  0  0  3  0  0  0  0  0  0
  -35.0490  -20.7650   13.4390 C   0  0  0  0  0  3  0  0  0  0  0  0
  -35.2920  -23.0780   12.3630 C   0  0  0  0  0  2  0  0  0  0  0  0
  -35.8470  -23.0010    9.8900 N   0  0  0  0  0  0  0  0  0  0  0  0
  -37.2550  -24.4190    8.8160 O   0  0  0  0  0  0  0  0  0  0  0  0
  -37.6890  -23.2810   11.6230 C   0  0  0  0  0  0  0  0  0  0  0  0
  -38.4470  -24.3450   11.9370 N   0  0  0  0  0  0  0  0  0  0  0  0
  -38.1150  -22.1240   11.6720 O   0  0  0  0  0  0  0  0  0  0  0  0
  -38.0300  -25.2610   11.8610 H   0  0  0  0  0  0  0  0  0  0  0  0
  -41.4700  -26.3070   12.2210 C   0  0  0  0  0  0  0  0  0  0  0  0
  -39.8400  -24.3060   12.3800 C   0  0  0  0  0  3  0  0  0  0  0  0
  -39.9420  -24.4770   13.9140 C   0  0  0  0  0  2  0  0  0  0  0  0
  -40.1490  -25.9330   14.3470 C   0  0  0  0  0  2  0  0  0  0  0  0
  -41.4290  -26.5020   13.7280 C   0  0  0  0  0  2  0  0  0  0  0  0
  -40.7120  -25.2870   11.5870 C   0  0  0  0  0  0  0  0  0  0  0  0
  -40.7590  -25.1710   10.1800 C   0  0  0  0  0  3  0  0  0  0  0  0
  -41.5450  -26.0510    9.4110 C   0  0  0  0  0  3  0  0  0  0  0  0
  -42.3050  -27.0490   10.0460 C   0  0  0  0  0  3  0  0  0  0  0  0
  -42.2710  -27.1720   11.4460 C   0  0  0  0  0  3  0  0  0  0  0  0
  -36.1090  -22.9150    7.3480 C   0  0  0  0  0  3  0  0  0  0  0  0
  -36.0110  -24.0490    6.4200 N   0  0  0  0  0  0  0  0  0  0  0  0
  -34.8610  -24.6180    6.0310 C   0  0  0  0  0  0  0  0  0  0  0  0
  -33.7540  -24.1870    6.3650 O   0  0  0  0  0  0  0  0  0  0  0  0
  -36.8770  -24.4780    6.1330 H   0  0  0  0  0  0  0  0  0  0  0  0
  -34.5080  -27.1040    5.9100 C   0  0  0  0  0  1  0  0  0  0  0  0
  -34.9560  -25.8600    5.1260 C   0  0  0  0  0  3  0  0  0  0  0  0
  -34.8470  -25.0010    2.8300 C   0  0  0  0  0  1  0  0  0  0  0  0
  -34.1630  -25.7460    3.8840 N   0  0  0  0  0  0  0  0  0  0  0  0
  -33.9320  -26.6650    3.5180 H   0  0  0  0  0  0  0  0  0  0  0  0
  -37.1710  -21.8650    6.8340 C   0  0  1  0  0  0  0  0  0  0  0  0
  -37.8380  -22.2610    5.4960 C   0  0  0  0  0  1  0  0  0  0  0  0
  -38.2900  -21.6620    7.8810 C   0  0  0  0  0  1  0  0  0  0  0  0
  -36.4950  -20.4850    6.6430 C   0  0  0  0  0  1  0  0  0  0  0  0
  -30.9080  -16.8330   20.1940 C   0  0  0  0  0  2  0  0  0  0  0  0
  -29.3560  -14.8280   19.4400 C   0  0  0  0  0  0  0  0  0  0  0  0
  -28.3080  -12.6290   19.9150 C   0  0  0  0  0  2  0  0  0  0  0  0
  -28.5560  -12.3430   21.4130 C   0  0  0  0  0  2  0  0  0  0  0  0
  -29.9150  -11.6370   21.6120 C   0  0  0  0  0  2  0  0  0  0  0  0
  -31.0710  -12.3650   20.8740 C   0  0  0  0  0  3  0  0  0  0  0  0
  -30.6760  -12.6800   19.4120 C   0  0  0  0  0  2  0  0  0  0  0  0
  -29.4290  -13.4620   19.4420 N   0  0  0  0  0  0  0  0  0  0  0  0
  -28.2820  -15.4310   19.3710 O   0  0  0  0  0  0  0  0  0  0  0  0
  -30.5320  -15.4500   19.7320 N   0  0  0  0  0  0  0  0  0  0  0  0
  -31.3070  -14.8090   19.7520 H   0  0  0  0  0  0  0  0  0  0  0  0
  -33.5950  -12.0070   20.5420 C   0  0  0  0  0  0  0  0  0  0  0  0
  -34.4270  -10.9820   20.8960 C   0  0  0  0  0  0  0  0  0  0  0  0
  -33.6020  -10.0060   21.5340 C   0  0  0  0  0  0  0  0  0  0  0  0
  -32.3250  -11.6230   20.9490 N   0  0  0  0  0  0  0  0  0  0  0  0
  -32.3300  -10.3860   21.5060 N   0  0  0  0  0  0  0  0  0  0  0  0
  -33.9570   -8.7620   22.2250 C   0  0  0  0  0  0  0  0  0  0  0  0
  -33.8770   -7.5090   21.5770 C   0  0  0  0  0  3  0  0  0  0  0  0
  -34.2390   -6.3270   22.2550 C   0  0  0  0  0  3  0  0  0  0  0  0
  -34.6890   -6.3890   23.5960 C   0  0  0  0  0  0  0  0  0  0  0  0
  -34.7430   -7.6350   24.2470 C   0  0  0  0  0  3  0  0  0  0  0  0
  -34.3770   -8.8090   23.5700 C   0  0  0  0  0  3  0  0  0  0  0  0
  -35.0360   -5.2910   24.3450 O   0  0  0  0  0  0  0  0  0  0  0  0
  -35.9050   -4.3440   23.8710 C   0  0  0  0  0  0  0  0  0  0  0  0
  -37.2940   -4.5820   23.7810 C   0  0  0  0  0  3  0  0  0  0  0  0
  -38.1580   -3.5530   23.3540 C   0  0  0  0  0  3  0  0  0  0  0  0
  -37.6360   -2.2890   23.0220 C   0  0  0  0  0  0  0  0  0  0  0  0
  -36.2540   -2.0480   23.1160 C   0  0  0  0  0  3  0  0  0  0  0  0
  -35.3920   -3.0730   23.5430 C   0  0  0  0  0  0  0  0  0  0  0  0
  -34.0630   -2.8310   23.6500 F   0  0  0  0  0  0  0  0  0  0  0  0
  -38.4670   -1.2980   22.6200 F   0  0  0  0  0  0  0  0  0  0  0  0
  -35.9210  -10.9480   20.7410 C   0  0  0  0  0  0  0  0  0  0  0  0
  -36.4070  -10.5670   19.5640 N   0  0  0  0  0  0  0  0  0  0  0  0
  -36.6650  -11.3150   21.6500 O   0  0  0  0  0  0  0  0  0  0  0  0
  -35.7940  -10.2890   18.8120 H   0  0  0  0  0  0  0  0  0  0  0  0
  -37.4060  -10.5550   19.4110 H   0  0  0  0  0  0  0  0  0  0  0  0
  -33.8110  -13.2370   19.9320 N   0  0  0  0  0  0  0  0  0  0  0  0
  -34.7400  -13.5580   19.6880 H   0  0  0  0  0  0  0  0  0  0  0  0
  -33.0960  -13.9110   19.6980 H   0  0  0  0  0  0  0  0  0  0  0  0
  1  2  2  0
  1  4  1  0
  2  5  1  0
  4  6  2  0
  5  7  1  0
  5  3  2  0
  6  3  1  0
  6 54  1  0
  8  4  1  0
  9  8  2  0
 10  9  1  0
 11 10  1  0
 12 11  1  0
 13 15  1  0
 13 12  1  0
 14 25  2  0
 14 24  1  0
 15 21  1  0
 16 26  1  0
 16 23  1  0
 17 23  1  0
 17 22  1  0
 18 24  1  0
 18 19  1  0
 19 17  2  0
 20 19  1  0
 20 15  2  0
 21 22  2  0
 24 16  1  0
 26 28  2  0
 26 27  1  0
 29 27  1  0
 30 34  1  0
 31 27  1  0
 31 32  1  0
 32 33  1  0
 34 33  1  0
 35 30  1  0
 35 31  1  0
 36 35  2  0
 37 38  2  0
 37 36  1  0
 38 39  1  0
 39 30  2  0
 40 14  1  0
 41 40  1  0
 42 43  2  0
 42 41  1  0
 44 41  1  0
 46 45  1  0
 46 42  1  0
 47 48  1  0
 48 46  1  0
 49 48  1  0
 50 40  1  0
 50 52  1  1
 51 50  1  0
 53 50  1  0
 55 61  1  0
 55 63  1  0
 56 57  1  0
 57 58  1  0
 59 60  1  0
 59 68  1  0
 59 58  1  0
 60 61  1  0
 61 56  1  0
 62 55  2  0
 63 64  1  0
 63 54  1  0
 65 66  2  0
 65 68  1  0
 66 67  1  0
 67 70  1  0
 68 69  1  0
 69 67  2  0
 70 75  1  0
 71 70  2  0
 71 72  1  0
 72 73  2  0
 73 74  1  0
 73 76  1  0
 75 74  2  0
 77 76  1  0
 78 77  1  0
 79 78  2  0
 80 81  2  0
 80 79  1  0
 81 82  1  0
 82 83  1  0
 82 77  2  0
 84 80  1  0
 85 66  1  0
 85 87  2  0
 86 85  1  0
 88 86  1  0
 89 86  1  0
 90 65  1  0
 91 90  1  0
 92 90  1  0
M  ISO  4  12 101  13 101  55 100  63 100
M  END
>  <TORSDO>  (91) 
F 21

>  <SCORE>  (91) 
-3.728

>  <name>  (91) 
90

>  <ligand_id>  (91) 
90

>  <original_smiles>  (91) 
[H]C(=C([H])C([H])([H])C([H])([H])C([H])([H])Oc1c([H])c([H])c2c(c1[H])C([H])([H])N(C(=O)C([H])(N([H])C(=O)C([H])(N([H])C([H])([H])[H])C([H])([H])[H])C(C([H])([H])[H])(C([H])([H])[H])C([H])([H])[H])C([H])(C(=O)N([H])C1([H])c3c([H])c([H])c([H])c([H])c3C([H])([H])C([H])([H])C1([H])[H])C2([H])[H])c1c([H])c([H])c(C([H])([H])[H])c([H])c1C([H])([H])N([H])C(=O)N1C([H])([H])C([H])([H])C([H])([H])C([H])(n2nc(-c3c([H])c([H])c(Oc4c([H])c([H])c(F)c([H])c4F)c([H])c3[H])c(C(=O)N([H])[H])c2N([H])[H])C1([H])[H]

>  <smiles>  (91) 
[H]C(=C([H])C([H])([H])C([H])([H])C([H])([H])Oc1c([H])c([H])c2c(c1[H])C([H])([H])N(C(=O)C([H])(N([H])C(=O)C([H])(N([H])C([H])([H])[H])C([H])([H])[H])C(C([H])([H])[H])(C([H])([H])[H])C([H])([H])[H])C([H])(C(=O)N([H])C1([H])c3c([H])c([H])c([H])c([H])c3C([H])([H])C([H])([H])C1([H])[H])C2([H])[H])c1c([H])c([H])c(C([H])([H])[H])c([H])c1C([H])([H])N([H])C(=O)N1C([H])([H])C([H])([H])C([H])([H])C([H])(n2nc(-c3c([H])c([H])c(Oc4c([H])c([H])c(F)c([H])c4F)c([H])c3[H])c(C(=O)N([H])[H])c2N([H])[H])C1([H])[H]

$$$$
91:0:0
     RDKit          3D

 92100  0  0  1  0  0  0  0  0999 V2000
  -29.7300  -18.7030   21.8230 C   0  0  0  0  0  3  0  0  0  0  0  0
  -30.5420  -17.6440   19.3640 C   0  0  0  0  0  3  0  0  0  0  0  0
  -29.9140  -19.5800   20.7330 C   0  0  0  0  0  0  0  0  0  0  0  0
  -29.9480  -17.3180   21.7090 C   0  0  0  0  0  0  0  0  0  0  0  0
  -30.3990  -16.7810   20.4780 C   0  0  0  0  0  0  0  0  0  0  0  0
  -30.2980  -19.0310   19.4860 C   0  0  0  0  0  0  0  0  0  0  0  0
  -29.6960  -16.4480   22.9330 C   0  0  0  0  0  1  0  0  0  0  0  0
  -30.4710  -19.8220   18.4020 F   0  0  0  0  0  0  0  0  0  0  0  0
  -31.0050  -14.6210   19.3810 C   0  0  0  0  0  0  0  0  0  0  0  0
  -30.4570  -12.5700   18.1280 C   0  0  0  0  0  2  0  0  0  0  0  0
  -29.3250  -12.8820   17.1240 C   0  0  0  0  0  2  0  0  0  0  0  0
  -27.9400  -12.7520   17.7910 C   0  0  0  0  0  2  0  0  0  0  0  0
  -27.8560  -13.5180   19.1380 C   0  0  0  0  0  3  0  0  0  0  0  0
  -29.0660  -13.1540   20.0270 C   0  0  0  0  0  2  0  0  0  0  0  0
  -30.3030  -13.4630   19.2830 N   0  0  0  0  0  0  0  0  0  0  0  0
  -31.9180  -14.9380   18.6120 O   0  0  0  0  0  0  0  0  0  0  0  0
  -30.6300  -15.3800   20.4190 N   0  0  0  0  0  0  0  0  0  0  0  0
  -30.1350  -14.8600   21.1270 H   0  0  0  0  0  0  0  0  0  0  0  0
  -25.6560  -14.1630   20.3130 C   0  0  0  0  0  0  0  0  0  0  0  0
  -24.6270  -13.4040   20.8040 C   0  0  0  0  0  0  0  0  0  0  0  0
  -24.9960  -12.0440   20.5740 C   0  0  0  0  0  0  0  0  0  0  0  0
  -26.5900  -13.2640   19.8210 N   0  0  0  0  0  0  0  0  0  0  0  0
  -26.2050  -11.9800   20.0310 N   0  0  0  0  0  0  0  0  0  0  0  0
  -24.2480  -10.7990   20.7870 C   0  0  0  0  0  0  0  0  0  0  0  0
  -24.6980   -9.8110   21.6880 C   0  0  0  0  0  3  0  0  0  0  0  0
  -23.9520   -8.6290   21.8880 C   0  0  0  0  0  3  0  0  0  0  0  0
  -22.7410   -8.4290   21.1840 C   0  0  0  0  0  0  0  0  0  0  0  0
  -22.3100   -9.4050   20.2690 C   0  0  0  0  0  3  0  0  0  0  0  0
  -23.0550  -10.5780   20.0690 C   0  0  0  0  0  3  0  0  0  0  0  0
  -21.9630   -7.3010   21.2940 O   0  0  0  0  0  0  0  0  0  0  0  0
  -21.7890   -6.6620   22.4940 C   0  0  0  0  0  0  0  0  0  0  0  0
  -21.2340   -7.3180   23.6150 C   0  0  0  0  0  3  0  0  0  0  0  0
  -21.0080   -6.6030   24.8090 C   0  0  0  0  0  3  0  0  0  0  0  0
  -21.3270   -5.2330   24.8810 C   0  0  0  0  0  0  0  0  0  0  0  0
  -21.8750   -4.5770   23.7640 C   0  0  0  0  0  3  0  0  0  0  0  0
  -22.1020   -5.2890   22.5740 C   0  0  0  0  0  0  0  0  0  0  0  0
  -22.6110   -4.6480   21.4940 F   0  0  0  0  0  0  0  0  0  0  0  0
  -21.1030   -4.5450   26.0250 F   0  0  0  0  0  0  0  0  0  0  0  0
  -23.3300  -13.9090   21.3690 C   0  0  0  0  0  0  0  0  0  0  0  0
  -22.7410  -13.1700   22.3050 N   0  0  0  0  0  0  0  0  0  0  0  0
  -22.8550  -14.9870   21.0180 O   0  0  0  0  0  0  0  0  0  0  0  0
  -23.1410  -12.2940   22.6070 H   0  0  0  0  0  0  0  0  0  0  0  0
  -21.8790  -13.4860   22.7240 H   0  0  0  0  0  0  0  0  0  0  0  0
  -25.8650  -15.5370   20.2300 N   0  0  0  0  0  0  0  0  0  0  0  0
  -25.1760  -16.2130   20.5420 H   0  0  0  0  0  0  0  0  0  0  0  0
  -26.6850  -15.9670   19.8210 H   0  0  0  0  0  0  0  0  0  0  0  0
  -29.7100  -21.0150   21.0080 C   0  0  0  0  0  3  0  0  0  0  0  0
  -29.6590  -22.0640   20.1640 C   0  0  0  0  0  3  0  0  0  0  0  0
  -29.5720  -23.4800   20.7100 C   0  0  0  0  0  2  0  0  0  0  0  0
  -29.0030  -24.5730   19.7870 C   0  0  0  0  0  2  0  0  0  0  0  0
  -29.0730  -25.9340   20.5140 C   0  0  0  0  0  2  0  0  0  0  0  0
  -28.8640  -27.0500   19.6550 O   0  0  0  0  0  0  0  0  0  0  0  0
  -24.5170  -31.5740   23.0560 C   0  0  0  0  0  0  0  0  0  0  0  0
  -27.6220  -27.6190   19.7570 C   0  0  0  0  0  0  0  0  0  0  0  0
  -23.4680  -30.1270   21.3450 C   0  0  0  0  0  3  0  0  0  0  0  0
  -25.0750  -28.8230   19.8590 C   0  0  0  0  0  0  0  0  0  0  0  0
  -25.9360  -30.7710   21.1710 C   0  0  0  0  0  2  0  0  0  0  0  0
  -26.1700  -29.4480   20.4710 C   0  0  0  0  0  0  0  0  0  0  0  0
  -27.4490  -28.8530   20.4180 C   0  0  0  0  0  3  0  0  0  0  0  0
  -26.5120  -26.9860   19.1630 C   0  0  0  0  0  3  0  0  0  0  0  0
  -25.2380  -27.5830   19.2130 C   0  0  0  0  0  3  0  0  0  0  0  0
  -23.7470  -29.5380   19.9390 C   0  0  0  0  0  2  0  0  0  0  0  0
  -24.6570  -30.8370   21.9160 N   0  0  0  0  0  0  0  0  0  0  0  0
  -23.4130  -31.7000   23.6040 O   0  0  0  0  0  0  0  0  0  0  0  0
  -22.9330  -28.9980   22.2530 C   0  0  0  0  0  0  0  0  0  0  0  0
  -21.6550  -28.6340   22.0640 N   0  0  0  0  0  0  0  0  0  0  0  0
  -23.6660  -28.4500   23.0810 O   0  0  0  0  0  0  0  0  0  0  0  0
  -21.1170  -29.1380   21.3740 H   0  0  0  0  0  0  0  0  0  0  0  0
  -18.4850  -26.9240   22.3400 C   0  0  0  0  0  0  0  0  0  0  0  0
  -20.9500  -27.5690   22.7760 C   0  0  0  0  0  3  0  0  0  0  0  0
  -21.3090  -26.1810   22.1970 C   0  0  0  0  0  2  0  0  0  0  0  0
  -20.3350  -25.7080   21.1140 C   0  0  0  0  0  2  0  0  0  0  0  0
  -18.9100  -25.6270   21.6700 C   0  0  0  0  0  2  0  0  0  0  0  0
  -19.4430  -27.8420   22.8450 C   0  0  0  0  0  0  0  0  0  0  0  0
  -18.9960  -29.0480   23.4280 C   0  0  0  0  0  3  0  0  0  0  0  0
  -17.6210  -29.3400   23.5110 C   0  0  0  0  0  3  0  0  0  0  0  0
  -16.6770  -28.4210   23.0230 C   0  0  0  0  0  3  0  0  0  0  0  0
  -17.1080  -27.2140   22.4450 C   0  0  0  0  0  3  0  0  0  0  0  0
  -25.7260  -32.3090   23.7100 C   0  0  0  0  0  3  0  0  0  0  0  0
  -26.2780  -31.5780   24.9960 C   0  0  1  0  0  0  0  0  0  0  0  0
  -25.1840  -31.2270   26.0300 C   0  0  0  0  0  1  0  0  0  0  0  0
  -27.0020  -30.2670   24.6080 C   0  0  0  0  0  1  0  0  0  0  0  0
  -27.3260  -32.4730   25.7000 C   0  0  0  0  0  1  0  0  0  0  0  0
  -25.2910  -33.6730   24.0360 N   0  0  0  0  0  0  0  0  0  0  0  0
  -25.5480  -34.7530   23.2840 C   0  0  0  0  0  0  0  0  0  0  0  0
  -26.2480  -34.7120   22.2690 O   0  0  0  0  0  0  0  0  0  0  0  0
  -24.6660  -33.7730   24.8210 H   0  0  0  0  0  0  0  0  0  0  0  0
  -23.6710  -36.3820   22.8990 C   0  0  0  0  0  1  0  0  0  0  0  0
  -24.9300  -36.0920   23.7320 C   0  0  0  0  0  3  0  0  0  0  0  0
  -26.9590  -37.1660   24.6000 C   0  0  0  0  0  1  0  0  0  0  0  0
  -25.8650  -37.2330   23.6340 N   0  0  0  0  0  0  0  0  0  0  0  0
  -25.3760  -38.1130   23.7700 H   0  0  0  0  0  0  0  0  0  0  0  0
  2  6  2  0
  2  5  1  0
  3 47  1  0
  3  1  2  0
  4  1  1  0
  4  7  1  0
  5  4  2  0
  6  3  1  0
  8  6  1  0
  9 17  1  0
 10 15  1  0
 11 12  1  0
 11 10  1  0
 13 12  1  0
 13 22  1  0
 13 14  1  0
 15  9  1  0
 15 14  1  0
 16  9  2  0
 17  5  1  0
 17 18  1  0
 19 20  2  0
 20 39  1  0
 21 24  1  0
 21 20  1  0
 22 23  1  0
 22 19  1  0
 23 21  2  0
 24 25  1  0
 25 26  2  0
 27 30  1  0
 27 26  1  0
 28 27  2  0
 29 28  1  0
 29 24  2  0
 30 31  1  0
 31 36  2  0
 31 32  1  0
 32 33  2  0
 33 34  1  0
 34 38  1  0
 35 34  2  0
 36 35  1  0
 37 36  1  0
 39 40  1  0
 40 42  1  0
 40 43  1  0
 41 39  2  0
 44 19  1  0
 44 45  1  0
 46 44  1  0
 48 49  1  0
 48 47  2  0
 50 51  1  0
 50 49  1  0
 52 54  1  0
 52 51  1  0
 53 64  2  0
 54 59  1  0
 55 63  1  0
 55 65  1  0
 56 62  1  0
 56 58  1  0
 57 63  1  0
 58 57  1  0
 59 58  2  0
 60 61  1  0
 60 54  2  0
 61 56  2  0
 62 55  1  0
 63 53  1  0
 65 67  2  0
 66 65  1  0
 68 66  1  0
 69 78  2  0
 69 74  1  0
 70 66  1  0
 70 74  1  0
 71 70  1  0
 72 73  1  0
 72 71  1  0
 73 69  1  0
 74 75  2  0
 75 76  1  0
 77 76  2  0
 78 77  1  0
 79 53  1  0
 79 84  1  0
 79 80  1  0
 80 83  1  1
 80 81  1  0
 82 80  1  0
 84 87  1  0
 85 89  1  0
 85 84  1  0
 86 85  2  0
 89 88  1  0
 91 89  1  0
 91 92  1  0
 91 90  1  0
M  ISO  4   9 100  17 100  51 101  52 101
M  END
>  <TORSDO>  (92) 
F 20

>  <SCORE>  (92) 
-8.352

>  <name>  (92) 
91

>  <ligand_id>  (92) 
91

>  <original_smiles>  (92) 
[H]C(=C([H])C([H])([H])C([H])([H])C([H])([H])Oc1c([H])c([H])c2c(c1[H])C([H])([H])N(C(=O)C([H])(N([H])C(=O)C([H])(N([H])C([H])([H])[H])C([H])([H])[H])C(C([H])([H])[H])(C([H])([H])[H])C([H])([H])[H])C([H])(C(=O)N([H])C1([H])c3c([H])c([H])c([H])c([H])c3C([H])([H])C([H])([H])C1([H])[H])C2([H])[H])c1c([H])c(C([H])([H])[H])c(N([H])C(=O)N2C([H])([H])C([H])([H])C([H])([H])C([H])(n3nc(-c4c([H])c([H])c(Oc5c([H])c([H])c(F)c([H])c5F)c([H])c4[H])c(C(=O)N([H])[H])c3N([H])[H])C2([H])[H])c([H])c1F

>  <smiles>  (92) 
[H]C(=C([H])C([H])([H])C([H])([H])C([H])([H])Oc1c([H])c([H])c2c(c1[H])C([H])([H])N(C(=O)C([H])(N([H])C(=O)C([H])(N([H])C([H])([H])[H])C([H])([H])[H])C(C([H])([H])[H])(C([H])([H])[H])C([H])([H])[H])C([H])(C(=O)N([H])C1([H])c3c([H])c([H])c([H])c([H])c3C([H])([H])C([H])([H])C1([H])[H])C2([H])[H])c1c([H])c(C([H])([H])[H])c(N([H])C(=O)N2C([H])([H])C([H])([H])C([H])([H])C([H])(n3nc(-c4c([H])c([H])c(Oc5c([H])c([H])c(F)c([H])c5F)c([H])c4[H])c(C(=O)N([H])[H])c3N([H])[H])C2([H])[H])c([H])c1F

$$$$
92:0:0
     RDKit          3D

 91 99  0  0  1  0  0  0  0  0999 V2000
  -29.2610  -21.8520   20.5660 C   0  0  0  0  0  3  0  0  0  0  0  0
  -28.6180  -22.9940   20.2230 C   0  0  0  0  0  3  0  0  0  0  0  0
  -27.6460  -20.2140   19.5180 C   0  0  0  0  0  3  0  0  0  0  0  0
  -27.3370  -18.9200   19.0710 C   0  0  0  0  0  3  0  0  0  0  0  0
  -29.6840  -19.3640   20.5340 C   0  0  0  0  0  3  0  0  0  0  0  0
  -28.8480  -20.4660   20.2140 C   0  0  0  0  0  0  0  0  0  0  0  0
  -29.3690  -18.0450   20.1140 C   0  0  0  0  0  0  0  0  0  0  0  0
  -28.2150  -17.8480   19.3070 C   0  0  0  0  0  0  0  0  0  0  0  0
  -27.9170  -16.5420   18.5820 C   0  0  0  0  0  1  0  0  0  0  0  0
  -30.2730  -16.9160   20.4340 C   0  0  0  0  0  3  0  0  0  0  0  0
  -29.8690  -15.7220   20.9330 C   0  0  0  0  0  3  0  0  0  0  0  0
  -30.7620  -14.5620   20.9320 C   0  0  0  0  0  0  0  0  0  0  0  0
  -30.5850  -12.3580   19.8800 C   0  0  0  0  0  2  0  0  0  0  0  0
  -29.7400  -12.5580   18.6000 C   0  0  0  0  0  2  0  0  0  0  0  0
  -28.2350  -12.4020   18.9040 C   0  0  0  0  0  2  0  0  0  0  0  0
  -27.7870  -13.2310   20.1350 C   0  0  0  0  0  3  0  0  0  0  0  0
  -28.7660  -13.0500   21.3200 C   0  0  0  0  0  2  0  0  0  0  0  0
  -30.1280  -13.3570   20.8570 N   0  0  0  0  0  0  0  0  0  0  0  0
  -31.9690  -14.6780   20.7080 O   0  0  0  0  0  0  0  0  0  0  0  0
  -25.3310  -13.8230   20.6440 C   0  0  0  0  0  0  0  0  0  0  0  0
  -24.2470  -13.0440   20.9350 C   0  0  0  0  0  0  0  0  0  0  0  0
  -24.7320  -11.7000   20.9750 C   0  0  0  0  0  0  0  0  0  0  0  0
  -26.4060  -12.9540   20.5130 N   0  0  0  0  0  0  0  0  0  0  0  0
  -26.0410  -11.6720   20.7710 N   0  0  0  0  0  0  0  0  0  0  0  0
  -24.0120  -10.4320   21.1390 C   0  0  0  0  0  0  0  0  0  0  0  0
  -24.4040   -9.4840   22.1060 C   0  0  0  0  0  3  0  0  0  0  0  0
  -23.6850   -8.2800   22.2610 C   0  0  0  0  0  3  0  0  0  0  0  0
  -22.5570   -8.0180   21.4460 C   0  0  0  0  0  0  0  0  0  0  0  0
  -22.1830   -8.9580   20.4690 C   0  0  0  0  0  3  0  0  0  0  0  0
  -22.9060  -10.1540   20.3140 C   0  0  0  0  0  3  0  0  0  0  0  0
  -21.8120   -6.8670   21.5100 O   0  0  0  0  0  0  0  0  0  0  0  0
  -21.7280   -6.1250   22.6600 C   0  0  0  0  0  0  0  0  0  0  0  0
  -21.2610   -6.6780   23.8720 C   0  0  0  0  0  3  0  0  0  0  0  0
  -21.1270   -5.8620   25.0130 C   0  0  0  0  0  3  0  0  0  0  0  0
  -21.4490   -4.4930   24.9400 C   0  0  0  0  0  0  0  0  0  0  0  0
  -21.9090   -3.9400   23.7320 C   0  0  0  0  0  3  0  0  0  0  0  0
  -22.0450   -4.7530   22.5960 C   0  0  0  0  0  0  0  0  0  0  0  0
  -22.4690   -4.2100   21.4280 F   0  0  0  0  0  0  0  0  0  0  0  0
  -21.3120   -3.7070   26.0330 F   0  0  0  0  0  0  0  0  0  0  0  0
  -22.8270  -13.5060   21.0770 C   0  0  0  0  0  0  0  0  0  0  0  0
  -22.0400  -12.8290   21.9070 N   0  0  0  0  0  0  0  0  0  0  0  0
  -22.4180  -14.5050   20.4880 O   0  0  0  0  0  0  0  0  0  0  0  0
  -22.3800  -12.0250   22.4140 H   0  0  0  0  0  0  0  0  0  0  0  0
  -21.0840  -13.1230   22.0410 H   0  0  0  0  0  0  0  0  0  0  0  0
  -25.4780  -15.1950   20.4740 N   0  0  0  0  0  0  0  0  0  0  0  0
  -24.6890  -15.8290   20.5470 H   0  0  0  0  0  0  0  0  0  0  0  0
  -26.3530  -15.6690   20.2970 H   0  0  0  0  0  0  0  0  0  0  0  0
  -29.1190  -24.3410   20.5860 C   0  0  0  0  0  0  0  0  0  0  0  0
  -30.3220  -24.5940   20.7100 O   0  0  0  0  0  0  0  0  0  0  0  0
  -28.0790  -25.4490   20.8450 C   0  0  0  0  0  2  0  0  0  0  0  0
  -28.3120  -26.6560   20.0860 O   0  0  0  0  0  0  0  0  0  0  0  0
  -24.5970  -31.8880   23.1860 C   0  0  0  0  0  0  0  0  0  0  0  0
  -27.1860  -27.4500   20.0500 C   0  0  0  0  0  0  0  0  0  0  0  0
  -23.3690  -30.4930   21.5570 C   0  0  0  0  0  3  0  0  0  0  0  0
  -24.8020  -28.9650   20.0970 C   0  0  0  0  0  0  0  0  0  0  0  0
  -25.8930  -30.8530   21.3210 C   0  0  0  0  0  2  0  0  0  0  0  0
  -25.9700  -29.4850   20.6710 C   0  0  0  0  0  0  0  0  0  0  0  0
  -27.1710  -28.7340   20.6420 C   0  0  0  0  0  3  0  0  0  0  0  0
  -26.0060  -26.9570   19.4510 C   0  0  0  0  0  3  0  0  0  0  0  0
  -24.8150  -27.7020   19.4840 C   0  0  0  0  0  3  0  0  0  0  0  0
  -23.5560  -29.8200   20.1700 C   0  0  0  0  0  2  0  0  0  0  0  0
  -24.6390  -31.0920   22.0790 N   0  0  0  0  0  0  0  0  0  0  0  0
  -23.5230  -32.1570   23.7420 O   0  0  0  0  0  0  0  0  0  0  0  0
  -22.7330  -29.4680   22.5220 C   0  0  0  0  0  0  0  0  0  0  0  0
  -21.4050  -29.2860   22.4150 N   0  0  0  0  0  0  0  0  0  0  0  0
  -23.4280  -28.8390   23.3230 O   0  0  0  0  0  0  0  0  0  0  0  0
  -20.9050  -29.8470   21.7380 H   0  0  0  0  0  0  0  0  0  0  0  0
  -18.0390  -28.0830   22.9490 C   0  0  0  0  0  0  0  0  0  0  0  0
  -20.5990  -28.3460   23.1950 C   0  0  0  0  0  3  0  0  0  0  0  0
  -20.6980  -26.9150   22.6190 C   0  0  0  0  0  2  0  0  0  0  0  0
  -19.5870  -26.5910   21.6140 C   0  0  0  0  0  2  0  0  0  0  0  0
  -18.2120  -26.7350   22.2710 C   0  0  0  0  0  2  0  0  0  0  0  0
  -19.1600  -28.8460   23.3690 C   0  0  0  0  0  0  0  0  0  0  0  0
  -18.9440  -30.1100   23.9630 C   0  0  0  0  0  3  0  0  0  0  0  0
  -17.6400  -30.6070   24.1430 C   0  0  0  0  0  3  0  0  0  0  0  0
  -16.5330  -29.8400   23.7390 C   0  0  0  0  0  3  0  0  0  0  0  0
  -16.7350  -28.5810   23.1470 C   0  0  0  0  0  3  0  0  0  0  0  0
  -25.8910  -32.5180   23.7890 C   0  0  0  0  0  3  0  0  0  0  0  0
  -26.4410  -31.7310   25.0410 C   0  0  1  0  0  0  0  0  0  0  0  0
  -25.3740  -31.4720   26.1310 C   0  0  0  0  0  1  0  0  0  0  0  0
  -27.0190  -30.3640   24.6100 C   0  0  0  0  0  1  0  0  0  0  0  0
  -27.6030  -32.5220   25.6860 C   0  0  0  0  0  1  0  0  0  0  0  0
  -25.5790  -33.9080   24.1470 N   0  0  0  0  0  0  0  0  0  0  0  0
  -25.8990  -34.9750   23.4020 C   0  0  0  0  0  0  0  0  0  0  0  0
  -26.5550  -34.8930   22.3610 O   0  0  0  0  0  0  0  0  0  0  0  0
  -24.9890  -34.0460   24.9540 H   0  0  0  0  0  0  0  0  0  0  0  0
  -24.1600  -36.7680   23.0990 C   0  0  0  0  0  1  0  0  0  0  0  0
  -25.4100  -36.3530   23.8900 C   0  0  0  0  0  3  0  0  0  0  0  0
  -27.5540  -37.2250   24.7130 C   0  0  0  0  0  1  0  0  0  0  0  0
  -26.4380  -37.4120   23.7880 N   0  0  0  0  0  0  0  0  0  0  0  0
  -26.0320  -38.3270   23.9620 H   0  0  0  0  0  0  0  0  0  0  0  0
  2  1  2  0
  2 48  1  0
  3  6  1  0
  4  8  1  0
  4  3  2  0
  6  5  2  0
  6  1  1  0
  7 10  1  0
  7  5  1  0
  8  7  2  0
  9  8  1  0
 10 11  2  0
 12 11  1  0
 13 18  1  0
 14 15  1  0
 14 13  1  0
 16 15  1  0
 16 23  1  0
 16 17  1  0
 18 12  1  0
 18 17  1  0
 19 12  2  0
 20 21  2  0
 21 22  1  0
 21 40  1  0
 22 25  1  0
 23 20  1  0
 23 24  1  0
 24 22  2  0
 25 26  1  0
 26 27  2  0
 28 31  1  0
 28 27  1  0
 29 28  2  0
 30 29  1  0
 30 25  2  0
 31 32  1  0
 32 33  1  0
 33 34  2  0
 35 34  1  0
 35 39  1  0
 36 35  2  0
 37 32  2  0
 37 36  1  0
 38 37  1  0
 40 41  1  0
 41 44  1  0
 41 43  1  0
 42 40  2  0
 45 46  1  0
 45 20  1  0
 47 45  1  0
 48 49  2  0
 48 50  1  0
 51 50  1  0
 52 63  2  0
 53 51  1  0
 53 58  1  0
 54 62  1  0
 54 64  1  0
 55 61  1  0
 55 57  1  0
 56 62  1  0
 57 56  1  0
 58 57  2  0
 59 60  1  0
 59 53  2  0
 60 55  2  0
 61 54  1  0
 62 52  1  0
 64 66  2  0
 65 64  1  0
 67 65  1  0
 68 77  2  0
 68 73  1  0
 69 65  1  0
 69 73  1  0
 70 69  1  0
 71 72  1  0
 71 70  1  0
 72 68  1  0
 73 74  2  0
 74 75  1  0
 76 75  2  0
 77 76  1  0
 78 52  1  0
 78 83  1  0
 78 79  1  0
 79 82  1  1
 79 80  1  0
 81 79  1  0
 83 86  1  0
 84 88  1  0
 84 83  1  0
 85 84  2  0
 88 87  1  0
 90 88  1  0
 90 91  1  0
 90 89  1  0
M  ISO  4  11 100  12 100  50 101  51 101
M  END
>  <TORSDO>  (93) 
F 20

>  <SCORE>  (93) 
-13.749

>  <name>  (93) 
92

>  <ligand_id>  (93) 
92

>  <original_smiles>  (93) 
[H]C(C(=O)C([H])([H])Oc1c([H])c([H])c2c(c1[H])C([H])([H])N(C(=O)C([H])(N([H])C(=O)C([H])(N([H])C([H])([H])[H])C([H])([H])[H])C(C([H])([H])[H])(C([H])([H])[H])C([H])([H])[H])C([H])(C(=O)N([H])C1([H])c3c([H])c([H])c([H])c([H])c3C([H])([H])C([H])([H])C1([H])[H])C2([H])[H])=C([H])c1c([H])c([H])c(C([H])([H])[H])c(C([H])=C([H])C(=O)N2C([H])([H])C([H])([H])C([H])([H])C([H])(n3nc(-c4c([H])c([H])c(Oc5c([H])c([H])c(F)c([H])c5F)c([H])c4[H])c(C(=O)N([H])[H])c3N([H])[H])C2([H])[H])c1[H]

>  <smiles>  (93) 
[H]C(C(=O)C([H])([H])Oc1c([H])c([H])c2c(c1[H])C([H])([H])N(C(=O)C([H])(N([H])C(=O)C([H])(N([H])C([H])([H])[H])C([H])([H])[H])C(C([H])([H])[H])(C([H])([H])[H])C([H])([H])[H])C([H])(C(=O)N([H])C1([H])c3c([H])c([H])c([H])c([H])c3C([H])([H])C([H])([H])C1([H])[H])C2([H])[H])=C([H])c1c([H])c([H])c(C([H])([H])[H])c(C([H])=C([H])C(=O)N2C([H])([H])C([H])([H])C([H])([H])C([H])(n3nc(-c4c([H])c([H])c(Oc5c([H])c([H])c(F)c([H])c5F)c([H])c4[H])c(C(=O)N([H])[H])c3N([H])[H])C2([H])[H])c1[H]

$$$$
93:0:0
     RDKit          3D

 89 97  0  0  1  0  0  0  0  0999 V2000
  -29.7600  -21.6530   19.6050 C   0  0  0  0  0  3  0  0  0  0  0  0
  -29.1500  -22.6380   20.3350 C   0  0  0  0  0  3  0  0  0  0  0  0
  -29.6320  -19.3400   20.9750 C   0  0  0  0  0  3  0  0  0  0  0  0
  -30.4510  -19.2960   18.9150 C   0  0  0  0  0  3  0  0  0  0  0  0
  -29.9350  -20.1660   19.8430 C   0  0  0  0  0  0  0  0  0  0  0  0
  -30.0020  -18.0370   20.6680 C   0  0  0  0  0  0  0  0  0  0  0  0
  -30.4970  -18.0080   19.3970 O   0  0  0  0  0  0  0  0  0  0  0  0
  -29.9290  -16.8070   21.4530 C   0  0  0  0  0  3  0  0  0  0  0  0
  -30.1620  -15.4550   21.3970 C   0  0  0  0  0  3  0  0  0  0  0  0
  -30.6970  -14.5770   20.3370 C   0  0  0  0  0  0  0  0  0  0  0  0
  -30.3790  -12.4380   19.0830 C   0  0  0  0  0  2  0  0  0  0  0  0
  -29.3940  -12.6380   17.9110 C   0  0  0  0  0  2  0  0  0  0  0  0
  -27.9330  -12.4800   18.3780 C   0  0  0  0  0  2  0  0  0  0  0  0
  -27.6350  -13.2900   19.6660 C   0  0  0  0  0  3  0  0  0  0  0  0
  -28.7170  -13.0310   20.7360 C   0  0  0  0  0  2  0  0  0  0  0  0
  -30.0270  -13.3910   20.1560 N   0  0  0  0  0  0  0  0  0  0  0  0
  -31.7270  -14.8280   19.7050 O   0  0  0  0  0  0  0  0  0  0  0  0
  -25.2620  -13.9120   20.4430 C   0  0  0  0  0  0  0  0  0  0  0  0
  -24.1980  -13.1470   20.8350 C   0  0  0  0  0  0  0  0  0  0  0  0
  -24.6460  -11.7910   20.7860 C   0  0  0  0  0  0  0  0  0  0  0  0
  -26.2940  -13.0230   20.1780 N   0  0  0  0  0  0  0  0  0  0  0  0
  -25.9270  -11.7420   20.4430 N   0  0  0  0  0  0  0  0  0  0  0  0
  -23.9150  -10.5350   20.9900 C   0  0  0  0  0  0  0  0  0  0  0  0
  -24.3590   -9.5630   21.9150 C   0  0  0  0  0  3  0  0  0  0  0  0
  -23.6290   -8.3700   22.1060 C   0  0  0  0  0  3  0  0  0  0  0  0
  -22.4410   -8.1390   21.3710 C   0  0  0  0  0  0  0  0  0  0  0  0
  -22.0150   -9.1000   20.4360 C   0  0  0  0  0  3  0  0  0  0  0  0
  -22.7450  -10.2850   20.2440 C   0  0  0  0  0  3  0  0  0  0  0  0
  -21.6810   -6.9990   21.4720 O   0  0  0  0  0  0  0  0  0  0  0  0
  -21.6430   -6.2580   22.6260 C   0  0  0  0  0  0  0  0  0  0  0  0
  -21.2350   -6.8190   23.8570 C   0  0  0  0  0  3  0  0  0  0  0  0
  -21.1440   -6.0050   25.0050 C   0  0  0  0  0  3  0  0  0  0  0  0
  -21.4500   -4.6340   24.9210 C   0  0  0  0  0  0  0  0  0  0  0  0
  -21.8500   -4.0730   23.6960 C   0  0  0  0  0  3  0  0  0  0  0  0
  -21.9430   -4.8840   22.5510 C   0  0  0  0  0  0  0  0  0  0  0  0
  -22.3090   -4.3350   21.3670 F   0  0  0  0  0  0  0  0  0  0  0  0
  -21.3540   -3.8500   26.0220 F   0  0  0  0  0  0  0  0  0  0  0  0
  -22.8110  -13.6350   21.1470 C   0  0  0  0  0  0  0  0  0  0  0  0
  -22.1010  -12.9410   22.0290 N   0  0  0  0  0  0  0  0  0  0  0  0
  -22.3690  -14.6660   20.6440 O   0  0  0  0  0  0  0  0  0  0  0  0
  -22.4710  -12.1060   22.4590 H   0  0  0  0  0  0  0  0  0  0  0  0
  -21.1720  -13.2510   22.2780 H   0  0  0  0  0  0  0  0  0  0  0  0
  -25.4370  -15.2820   20.2700 N   0  0  0  0  0  0  0  0  0  0  0  0
  -24.6870  -15.9500   20.4110 H   0  0  0  0  0  0  0  0  0  0  0  0
  -26.2970  -15.7120   19.9520 H   0  0  0  0  0  0  0  0  0  0  0  0
  -29.1160  -24.0940   19.8950 C   0  0  0  0  0  0  0  0  0  0  0  0
  -29.7770  -24.4860   18.9270 O   0  0  0  0  0  0  0  0  0  0  0  0
  -28.2340  -25.1500   20.6550 C   0  0  0  0  0  2  0  0  0  0  0  0
  -28.4110  -26.5520   20.2280 O   0  0  0  0  0  0  0  0  0  0  0  0
  -24.6100  -31.8820   23.2310 C   0  0  0  0  0  0  0  0  0  0  0  0
  -27.2720  -27.3560   20.2130 C   0  0  0  0  0  0  0  0  0  0  0  0
  -23.4190  -30.4690   21.5910 C   0  0  0  0  0  3  0  0  0  0  0  0
  -24.8860  -28.9170   20.1860 C   0  0  0  0  0  0  0  0  0  0  0  0
  -25.9540  -30.8130   21.4120 C   0  0  0  0  0  2  0  0  0  0  0  0
  -26.0460  -29.4310   20.7780 C   0  0  0  0  0  0  0  0  0  0  0  0
  -27.2440  -28.6630   20.7800 C   0  0  0  0  0  3  0  0  0  0  0  0
  -26.0920  -26.8830   19.5980 C   0  0  0  0  0  3  0  0  0  0  0  0
  -24.9090  -27.6460   19.5870 C   0  0  0  0  0  3  0  0  0  0  0  0
  -23.6420  -29.7810   20.2190 C   0  0  0  0  0  2  0  0  0  0  0  0
  -24.6800  -31.0720   22.1350 N   0  0  0  0  0  0  0  0  0  0  0  0
  -23.5250  -32.1570   23.7620 O   0  0  0  0  0  0  0  0  0  0  0  0
  -22.7600  -29.4550   22.5560 C   0  0  0  0  0  0  0  0  0  0  0  0
  -21.4340  -29.2800   22.4310 N   0  0  0  0  0  0  0  0  0  0  0  0
  -23.4390  -28.8280   23.3730 O   0  0  0  0  0  0  0  0  0  0  0  0
  -20.9450  -29.8380   21.7440 H   0  0  0  0  0  0  0  0  0  0  0  0
  -18.0530  -28.1060   22.9470 C   0  0  0  0  0  0  0  0  0  0  0  0
  -20.6130  -28.3470   23.2050 C   0  0  0  0  0  3  0  0  0  0  0  0
  -20.7030  -26.9160   22.6270 C   0  0  0  0  0  2  0  0  0  0  0  0
  -19.5940  -26.6020   21.6180 C   0  0  0  0  0  2  0  0  0  0  0  0
  -18.2160  -26.7560   22.2700 C   0  0  0  0  0  2  0  0  0  0  0  0
  -19.1790  -28.8600   23.3730 C   0  0  0  0  0  0  0  0  0  0  0  0
  -18.9710  -30.1230   23.9680 C   0  0  0  0  0  3  0  0  0  0  0  0
  -17.6710  -30.6320   24.1430 C   0  0  0  0  0  3  0  0  0  0  0  0
  -16.5590  -29.8760   23.7330 C   0  0  0  0  0  3  0  0  0  0  0  0
  -16.7510  -28.6140   23.1410 C   0  0  0  0  0  3  0  0  0  0  0  0
  -25.8890  -32.5230   23.8550 C   0  0  0  0  0  3  0  0  0  0  0  0
  -26.4070  -31.7560   25.1330 C   0  0  1  0  0  0  0  0  0  0  0  0
  -25.3140  -31.5140   26.2000 C   0  0  0  0  0  1  0  0  0  0  0  0
  -26.9990  -30.3810   24.7440 C   0  0  0  0  0  1  0  0  0  0  0  0
  -27.5520  -32.5580   25.7970 C   0  0  0  0  0  1  0  0  0  0  0  0
  -25.5700  -33.9200   24.1830 N   0  0  0  0  0  0  0  0  0  0  0  0
  -25.9010  -34.9740   23.4260 C   0  0  0  0  0  0  0  0  0  0  0  0
  -26.5750  -34.8740   22.3980 O   0  0  0  0  0  0  0  0  0  0  0  0
  -24.9710  -34.0700   24.9810 H   0  0  0  0  0  0  0  0  0  0  0  0
  -24.1670  -36.7600   23.0620 C   0  0  0  0  0  1  0  0  0  0  0  0
  -25.4050  -36.3610   23.8810 C   0  0  0  0  0  3  0  0  0  0  0  0
  -27.5300  -37.2540   24.7260 C   0  0  0  0  0  1  0  0  0  0  0  0
  -26.4330  -37.4180   23.7760 N   0  0  0  0  0  0  0  0  0  0  0  0
  -26.0220  -38.3360   23.9240 H   0  0  0  0  0  0  0  0  0  0  0  0
  1  5  1  0
  1  2  2  0
  4  7  1  0
  4  5  2  0
  5  3  1  0
  6  3  2  0
  6  8  1  0
  7  6  1  0
  9  8  2  0
 10  9  1  0
 11 16  1  0
 12 13  1  0
 12 11  1  0
 14 13  1  0
 14 21  1  0
 14 15  1  0
 16 10  1  0
 16 15  1  0
 17 10  2  0
 18 19  2  0
 19 38  1  0
 20 19  1  0
 20 23  1  0
 21 18  1  0
 21 22  1  0
 22 20  2  0
 23 24  1  0
 24 25  2  0
 26 29  1  0
 26 25  1  0
 27 26  2  0
 28 27  1  0
 28 23  2  0
 29 30  1  0
 30 31  1  0
 31 32  2  0
 33 32  1  0
 33 37  1  0
 34 33  2  0
 35 30  2  0
 35 34  1  0
 36 35  1  0
 38 39  1  0
 39 42  1  0
 39 41  1  0
 40 38  2  0
 43 44  1  0
 43 18  1  0
 45 43  1  0
 46  2  1  0
 46 48  1  0
 47 46  2  0
 49 48  1  0
 50 61  2  0
 51 49  1  0
 51 56  1  0
 52 60  1  0
 52 62  1  0
 53 59  1  0
 53 55  1  0
 54 60  1  0
 55 56  2  0
 55 54  1  0
 57 51  2  0
 58 57  1  0
 58 53  2  0
 59 52  1  0
 60 50  1  0
 62 64  2  0
 63 62  1  0
 65 63  1  0
 66 75  2  0
 66 71  1  0
 67 63  1  0
 67 71  1  0
 68 67  1  0
 69 70  1  0
 69 68  1  0
 70 66  1  0
 71 72  2  0
 72 73  1  0
 74 73  2  0
 75 74  1  0
 76 50  1  0
 76 81  1  0
 76 77  1  0
 77 80  1  1
 77 78  1  0
 79 77  1  0
 81 84  1  0
 82 86  1  0
 82 81  1  0
 83 82  2  0
 86 85  1  0
 88 86  1  0
 88 89  1  0
 88 87  1  0
M  ISO  4   9 100  10 100  48 101  49 101
M  END
>  <TORSDO>  (94) 
F 20

>  <SCORE>  (94) 
-13.840

>  <name>  (94) 
93

>  <ligand_id>  (94) 
93

>  <original_smiles>  (94) 
[H]C(C(=O)N1C([H])([H])C([H])([H])C([H])([H])C([H])(n2nc(-c3c([H])c([H])c(Oc4c([H])c([H])c(F)c([H])c4F)c([H])c3[H])c(C(=O)N([H])[H])c2N([H])[H])C1([H])[H])=C([H])c1oc([H])c(C([H])=C([H])C(=O)C([H])([H])Oc2c([H])c([H])c3c(c2[H])C([H])([H])N(C(=O)C([H])(N([H])C(=O)C([H])(N([H])C([H])([H])[H])C([H])([H])[H])C(C([H])([H])[H])(C([H])([H])[H])C([H])([H])[H])C([H])(C(=O)N([H])C2([H])c4c([H])c([H])c([H])c([H])c4C([H])([H])C([H])([H])C2([H])[H])C3([H])[H])c1[H]

>  <smiles>  (94) 
[H]C(C(=O)N1C([H])([H])C([H])([H])C([H])([H])C([H])(n2nc(-c3c([H])c([H])c(Oc4c([H])c([H])c(F)c([H])c4F)c([H])c3[H])c(C(=O)N([H])[H])c2N([H])[H])C1([H])[H])=C([H])c1oc([H])c(C([H])=C([H])C(=O)C([H])([H])Oc2c([H])c([H])c3c(c2[H])C([H])([H])N(C(=O)C([H])(N([H])C(=O)C([H])(N([H])C([H])([H])[H])C([H])([H])[H])C(C([H])([H])[H])(C([H])([H])[H])C([H])([H])[H])C([H])(C(=O)N([H])C2([H])c4c([H])c([H])c([H])c([H])c4C([H])([H])C([H])([H])C2([H])[H])C3([H])[H])c1[H]

$$$$
94:0:0
     RDKit          3D

 93101  0  0  1  0  0  0  0  0999 V2000
  -30.0460  -20.7620   21.3090 C   0  0  0  0  0  3  0  0  0  0  0  0
  -28.9320  -21.1280   20.6470 C   0  0  0  0  0  3  0  0  0  0  0  0
  -30.3080  -18.2400   20.9560 C   0  0  0  0  0  3  0  0  0  0  0  0
  -32.2550  -19.7030   21.0500 C   0  0  0  0  0  3  0  0  0  0  0  0
  -32.5540  -17.3180   20.6730 C   0  0  0  0  0  3  0  0  0  0  0  0
  -30.8550  -19.5400   21.1180 C   0  0  0  0  0  0  0  0  0  0  0  0
  -31.1540  -17.1220   20.7270 C   0  0  0  0  0  0  0  0  0  0  0  0
  -33.1010  -18.6040   20.8290 C   0  0  0  0  0  0  0  0  0  0  0  0
  -34.4420  -18.7840   20.7650 F   0  0  0  0  0  0  0  0  0  0  0  0
  -31.2270  -14.7350   20.0780 C   0  0  0  0  0  0  0  0  0  0  0  0
  -31.0730  -12.3300   19.5350 C   0  0  0  0  0  2  0  0  0  0  0  0
  -30.1890  -12.0890   18.2970 C   0  0  0  0  0  2  0  0  0  0  0  0
  -28.7090  -11.9720   18.7010 C   0  0  0  0  0  2  0  0  0  0  0  0
  -28.2520  -13.1280   19.6290 C   0  0  0  0  0  3  0  0  0  0  0  0
  -29.2490  -13.3310   20.7930 C   0  0  0  0  0  2  0  0  0  0  0  0
  -30.5900  -13.5430   20.2160 N   0  0  0  0  0  0  0  0  0  0  0  0
  -32.2990  -14.8480   19.4720 O   0  0  0  0  0  0  0  0  0  0  0  0
  -30.6040  -15.8100   20.6010 N   0  0  0  0  0  0  0  0  0  0  0  0
  -29.6680  -15.6630   20.9510 H   0  0  0  0  0  0  0  0  0  0  0  0
  -25.8830  -13.8400   20.3390 C   0  0  0  0  0  0  0  0  0  0  0  0
  -24.7860  -13.1160   20.7230 C   0  0  0  0  0  0  0  0  0  0  0  0
  -25.1930  -11.7460   20.7060 C   0  0  0  0  0  0  0  0  0  0  0  0
  -26.8910  -12.9150   20.1150 N   0  0  0  0  0  0  0  0  0  0  0  0
  -26.4790  -11.6520   20.3920 N   0  0  0  0  0  0  0  0  0  0  0  0
  -24.4190  -10.5160   20.9170 C   0  0  0  0  0  0  0  0  0  0  0  0
  -24.6490   -9.6800   22.0310 C   0  0  0  0  0  3  0  0  0  0  0  0
  -23.8780   -8.5130   22.2210 C   0  0  0  0  0  3  0  0  0  0  0  0
  -22.8650   -8.1720   21.2940 C   0  0  0  0  0  0  0  0  0  0  0  0
  -22.6560   -8.9970   20.1740 C   0  0  0  0  0  3  0  0  0  0  0  0
  -23.4270  -10.1560   19.9840 C   0  0  0  0  0  3  0  0  0  0  0  0
  -22.0850   -7.0450   21.3830 O   0  0  0  0  0  0  0  0  0  0  0  0
  -21.6110   -6.5900   22.5860 C   0  0  0  0  0  0  0  0  0  0  0  0
  -20.7580   -7.3720   23.3950 C   0  0  0  0  0  3  0  0  0  0  0  0
  -20.2400   -6.8400   24.5920 C   0  0  0  0  0  3  0  0  0  0  0  0
  -20.5650   -5.5260   24.9780 C   0  0  0  0  0  0  0  0  0  0  0  0
  -21.4100   -4.7440   24.1730 C   0  0  0  0  0  3  0  0  0  0  0  0
  -21.9310   -5.2740   22.9790 C   0  0  0  0  0  0  0  0  0  0  0  0
  -22.7280   -4.5080   22.1940 F   0  0  0  0  0  0  0  0  0  0  0  0
  -20.0610   -5.0100   26.1240 F   0  0  0  0  0  0  0  0  0  0  0  0
  -23.4120  -13.6520   20.9990 C   0  0  0  0  0  0  0  0  0  0  0  0
  -22.6680  -13.0020   21.8870 N   0  0  0  0  0  0  0  0  0  0  0  0
  -23.0070  -14.6820   20.4610 O   0  0  0  0  0  0  0  0  0  0  0  0
  -23.0080  -12.1690   22.3410 H   0  0  0  0  0  0  0  0  0  0  0  0
  -21.7460  -13.3450   22.1160 H   0  0  0  0  0  0  0  0  0  0  0  0
  -26.1030  -15.2000   20.1420 N   0  0  0  0  0  0  0  0  0  0  0  0
  -25.3660  -15.8900   20.2410 H   0  0  0  0  0  0  0  0  0  0  0  0
  -26.9730  -15.5950   19.8070 H   0  0  0  0  0  0  0  0  0  0  0  0
  -28.1590  -22.4080   20.9450 C   0  0  0  0  0  2  0  0  0  0  0  0
  -28.0780  -23.3820   19.7440 C   0  0  0  0  0  2  0  0  0  0  0  0
  -27.6310  -24.8110   20.1080 C   0  0  0  0  0  0  0  0  0  0  0  0
  -27.2020  -25.0820   21.2370 O   0  0  0  0  0  0  0  0  0  0  0  0
  -27.7340  -25.8810   19.0030 C   0  0  0  0  0  2  0  0  0  0  0  0
  -27.7430  -27.2170   19.5350 O   0  0  0  0  0  0  0  0  0  0  0  0
  -24.4570  -32.0600   23.5570 C   0  0  0  0  0  0  0  0  0  0  0  0
  -26.5640  -27.9110   19.7370 C   0  0  0  0  0  0  0  0  0  0  0  0
  -23.0110  -30.8470   21.9540 C   0  0  0  0  0  3  0  0  0  0  0  0
  -24.2260  -29.4410   20.2090 C   0  0  0  0  0  0  0  0  0  0  0  0
  -25.4960  -31.1920   21.4630 C   0  0  0  0  0  2  0  0  0  0  0  0
  -25.4620  -29.8880   20.6900 C   0  0  0  0  0  0  0  0  0  0  0  0
  -26.6290  -29.1310   20.4500 C   0  0  0  0  0  3  0  0  0  0  0  0
  -25.3040  -27.4740   19.2600 C   0  0  0  0  0  3  0  0  0  0  0  0
  -24.1410  -28.2340   19.4940 C   0  0  0  0  0  3  0  0  0  0  0  0
  -23.0230  -30.3070   20.5000 C   0  0  0  0  0  2  0  0  0  0  0  0
  -24.3470  -31.3750   22.3830 N   0  0  0  0  0  0  0  0  0  0  0  0
  -23.4610  -32.2910   24.2560 O   0  0  0  0  0  0  0  0  0  0  0  0
  -22.4640  -29.7430   22.8870 C   0  0  0  0  0  0  0  0  0  0  0  0
  -21.2300  -29.2880   22.6120 N   0  0  0  0  0  0  0  0  0  0  0  0
  -23.1500  -29.2980   23.8110 O   0  0  0  0  0  0  0  0  0  0  0  0
  -20.7310  -29.7130   21.8440 H   0  0  0  0  0  0  0  0  0  0  0  0
  -18.2900  -27.1910   22.5520 C   0  0  0  0  0  0  0  0  0  0  0  0
  -20.5260  -28.2250   23.3300 C   0  0  0  0  0  3  0  0  0  0  0  0
  -21.1520  -26.8430   23.0300 C   0  0  0  0  0  2  0  0  0  0  0  0
  -20.4750  -26.1120   21.8670 C   0  0  0  0  0  2  0  0  0  0  0  0
  -18.9880  -25.8980   22.1610 C   0  0  0  0  0  2  0  0  0  0  0  0
  -19.0160  -28.2880   23.0850 C   0  0  0  0  0  0  0  0  0  0  0  0
  -18.3250  -29.4790   23.3980 C   0  0  0  0  0  3  0  0  0  0  0  0
  -16.9370  -29.5820   23.1910 C   0  0  0  0  0  3  0  0  0  0  0  0
  -16.2200  -28.4870   22.6780 C   0  0  0  0  0  3  0  0  0  0  0  0
  -16.8950  -27.2940   22.3630 C   0  0  0  0  0  3  0  0  0  0  0  0
  -25.8280  -32.6060   24.0620 C   0  0  0  0  0  3  0  0  0  0  0  0
  -25.6430  -34.0230   24.3990 N   0  0  0  0  0  0  0  0  0  0  0  0
  -26.0050  -35.0440   23.6080 C   0  0  0  0  0  0  0  0  0  0  0  0
  -26.6020  -34.8860   22.5410 O   0  0  0  0  0  0  0  0  0  0  0  0
  -25.1100  -34.2250   25.2310 H   0  0  0  0  0  0  0  0  0  0  0  0
  -24.4100  -36.9650   23.3180 C   0  0  0  0  0  1  0  0  0  0  0  0
  -25.6480  -36.4660   24.0810 C   0  0  0  0  0  3  0  0  0  0  0  0
  -27.8750  -37.1800   24.8230 C   0  0  0  0  0  1  0  0  0  0  0  0
  -26.7540  -37.4340   23.9230 N   0  0  0  0  0  0  0  0  0  0  0  0
  -26.4270  -38.3830   24.0860 H   0  0  0  0  0  0  0  0  0  0  0  0
  -26.3980  -31.8070   25.2970 C   0  0  1  0  0  0  0  0  0  0  0  0
  -25.3540  -31.5540   26.4100 C   0  0  0  0  0  1  0  0  0  0  0  0
  -26.9520  -30.4350   24.8490 C   0  0  0  0  0  1  0  0  0  0  0  0
  -27.5850  -32.5800   25.9200 C   0  0  0  0  0  1  0  0  0  0  0  0
  2 48  1  0
  2  1  2  0
  3  6  1  0
  4  6  2  0
  5  7  1  0
  5  8  2  0
  6  1  1  0
  7  3  2  0
  8  4  1  0
  9  8  1  0
 10 16  1  0
 10 18  1  0
 11 16  1  0
 12 13  1  0
 12 11  1  0
 14 13  1  0
 14 23  1  0
 14 15  1  0
 16 15  1  0
 17 10  2  0
 18  7  1  0
 18 19  1  0
 20 21  2  0
 21 40  1  0
 22 21  1  0
 22 25  1  0
 23 20  1  0
 23 24  1  0
 24 22  2  0
 25 26  1  0
 26 27  2  0
 28 31  1  0
 28 27  1  0
 29 28  2  0
 30 29  1  0
 30 25  2  0
 31 32  1  0
 32 37  2  0
 32 33  1  0
 33 34  2  0
 34 35  1  0
 35 39  1  0
 36 35  2  0
 37 36  1  0
 38 37  1  0
 40 41  1  0
 41 44  1  0
 41 43  1  0
 42 40  2  0
 45 46  1  0
 45 20  1  0
 47 45  1  0
 49 50  1  0
 49 48  1  0
 50 51  2  0
 52 53  1  0
 52 50  1  0
 53 55  1  0
 54 65  2  0
 55 60  1  0
 56 64  1  0
 56 66  1  0
 57 63  1  0
 57 59  1  0
 58 64  1  0
 59 58  1  0
 60 59  2  0
 61 62  1  0
 61 55  2  0
 62 57  2  0
 63 56  1  0
 64 54  1  0
 66 68  2  0
 67 66  1  0
 69 67  1  0
 70 75  1  0
 71 67  1  0
 72 71  1  0
 73 74  1  0
 73 72  1  0
 74 70  1  0
 75 71  1  0
 75 76  2  0
 77 76  1  0
 78 77  2  0
 79 70  2  0
 79 78  1  0
 80 54  1  0
 80 81  1  0
 80 90  1  0
 81 84  1  0
 82 86  1  0
 82 81  1  0
 83 82  2  0
 86 85  1  0
 88 86  1  0
 88 89  1  0
 88 87  1  0
 90 93  1  1
 90 91  1  0
 92 90  1  0
M  ISO  4  10 100  18 100  52 101  53 101
M  END
>  <TORSDO>  (95) 
F 21

>  <SCORE>  (95) 
-10.928

>  <name>  (95) 
94

>  <ligand_id>  (95) 
94

>  <original_smiles>  (95) 
[H]C(=C([H])C([H])([H])C([H])([H])C(=O)C([H])([H])Oc1c([H])c([H])c2c(c1[H])C([H])([H])N(C(=O)C([H])(N([H])C(=O)C([H])(N([H])C([H])([H])[H])C([H])([H])[H])C(C([H])([H])[H])(C([H])([H])[H])C([H])([H])[H])C([H])(C(=O)N([H])C1([H])c3c([H])c([H])c([H])c([H])c3C([H])([H])C([H])([H])C1([H])[H])C2([H])[H])c1c([H])c(F)c([H])c(N([H])C(=O)N2C([H])([H])C([H])([H])C([H])([H])C([H])(n3nc(-c4c([H])c([H])c(Oc5c([H])c([H])c(F)c([H])c5F)c([H])c4[H])c(C(=O)N([H])[H])c3N([H])[H])C2([H])[H])c1[H]

>  <smiles>  (95) 
[H]C(=C([H])C([H])([H])C([H])([H])C(=O)C([H])([H])Oc1c([H])c([H])c2c(c1[H])C([H])([H])N(C(=O)C([H])(N([H])C(=O)C([H])(N([H])C([H])([H])[H])C([H])([H])[H])C(C([H])([H])[H])(C([H])([H])[H])C([H])([H])[H])C([H])(C(=O)N([H])C1([H])c3c([H])c([H])c([H])c([H])c3C([H])([H])C([H])([H])C1([H])[H])C2([H])[H])c1c([H])c(F)c([H])c(N([H])C(=O)N2C([H])([H])C([H])([H])C([H])([H])C([H])(n3nc(-c4c([H])c([H])c(Oc5c([H])c([H])c(F)c([H])c5F)c([H])c4[H])c(C(=O)N([H])[H])c3N([H])[H])C2([H])[H])c1[H]

$$$$
95:0:0
     RDKit          3D

 92100  0  0  1  0  0  0  0  0999 V2000
  -30.3110  -22.4120   20.0810 C   0  0  0  0  0  0  0  0  0  0  0  0
  -31.1720  -22.8530   19.3100 O   0  0  0  0  0  0  0  0  0  0  0  0
  -29.3230  -18.7560   20.6190 C   0  0  0  0  0  3  0  0  0  0  0  0
  -29.2260  -20.1480   20.3880 C   0  0  0  0  0  3  0  0  0  0  0  0
  -31.6460  -19.0490   21.2670 C   0  0  0  0  0  3  0  0  0  0  0  0
  -30.5590  -18.1930   21.0010 C   0  0  0  0  0  0  0  0  0  0  0  0
  -30.3580  -20.9900   20.5340 C   0  0  0  0  0  0  0  0  0  0  0  0
  -31.5650  -20.4350   21.0380 C   0  0  0  0  0  0  0  0  0  0  0  0
  -32.8050  -21.2810   21.3090 C   0  0  0  0  0  1  0  0  0  0  0  0
  -30.8560  -16.7530   20.9760 C   0  0  0  0  0  3  0  0  0  0  0  0
  -30.0600  -15.6850   20.7390 C   0  0  0  0  0  3  0  0  0  0  0  0
  -30.7380  -14.4230   20.4410 C   0  0  0  0  0  0  0  0  0  0  0  0
  -30.3410  -12.2640   19.3560 C   0  0  0  0  0  2  0  0  0  0  0  0
  -29.4300  -12.4850   18.1330 C   0  0  0  0  0  2  0  0  0  0  0  0
  -27.9520  -12.3690   18.5510 C   0  0  0  0  0  2  0  0  0  0  0  0
  -27.6090  -13.2260   19.8010 C   0  0  0  0  0  3  0  0  0  0  0  0
  -28.6600  -13.0540   20.9210 C   0  0  0  0  0  2  0  0  0  0  0  0
  -29.9900  -13.2920   20.3480 N   0  0  0  0  0  0  0  0  0  0  0  0
  -31.9070  -14.4420   20.0440 O   0  0  0  0  0  0  0  0  0  0  0  0
  -25.2130  -13.8270   20.5120 C   0  0  0  0  0  0  0  0  0  0  0  0
  -24.1450  -13.0520   20.8820 C   0  0  0  0  0  0  0  0  0  0  0  0
  -24.6100  -11.7020   20.8600 C   0  0  0  0  0  0  0  0  0  0  0  0
  -26.2590  -12.9460   20.2850 N   0  0  0  0  0  0  0  0  0  0  0  0
  -25.9010  -11.6640   20.5550 N   0  0  0  0  0  0  0  0  0  0  0  0
  -23.8850  -10.4390   21.0550 C   0  0  0  0  0  0  0  0  0  0  0  0
  -24.3230   -9.4710   21.9860 C   0  0  0  0  0  3  0  0  0  0  0  0
  -23.5990   -8.2740   22.1690 C   0  0  0  0  0  3  0  0  0  0  0  0
  -22.4230   -8.0340   21.4190 C   0  0  0  0  0  0  0  0  0  0  0  0
  -22.0040   -8.9900   20.4760 C   0  0  0  0  0  3  0  0  0  0  0  0
  -22.7290  -10.1790   20.2920 C   0  0  0  0  0  3  0  0  0  0  0  0
  -21.6690   -6.8890   21.5100 O   0  0  0  0  0  0  0  0  0  0  0  0
  -21.6350   -6.1380   22.6570 C   0  0  0  0  0  0  0  0  0  0  0  0
  -21.2290   -6.6870   23.8940 C   0  0  0  0  0  3  0  0  0  0  0  0
  -21.1440   -5.8630   25.0340 C   0  0  0  0  0  3  0  0  0  0  0  0
  -21.4530   -4.4930   24.9400 C   0  0  0  0  0  0  0  0  0  0  0  0
  -21.8510   -3.9440   23.7070 C   0  0  0  0  0  3  0  0  0  0  0  0
  -21.9390   -4.7650   22.5690 C   0  0  0  0  0  0  0  0  0  0  0  0
  -22.3030   -4.2270   21.3800 F   0  0  0  0  0  0  0  0  0  0  0  0
  -21.3630   -3.7000   26.0320 F   0  0  0  0  0  0  0  0  0  0  0  0
  -22.7460  -13.5290   21.1450 C   0  0  0  0  0  0  0  0  0  0  0  0
  -22.0140  -12.8340   22.0100 N   0  0  0  0  0  0  0  0  0  0  0  0
  -22.3080  -14.5500   20.6190 O   0  0  0  0  0  0  0  0  0  0  0  0
  -22.3780  -12.0090   22.4610 H   0  0  0  0  0  0  0  0  0  0  0  0
  -21.0750  -13.1360   22.2270 H   0  0  0  0  0  0  0  0  0  0  0  0
  -25.3770  -15.1970   20.3280 N   0  0  0  0  0  0  0  0  0  0  0  0
  -24.6120  -15.8550   20.4340 H   0  0  0  0  0  0  0  0  0  0  0  0
  -26.2310  -15.6300   20.0040 H   0  0  0  0  0  0  0  0  0  0  0  0
  -29.2350  -23.2770   20.5860 C   0  0  0  0  0  3  0  0  0  0  0  0
  -29.4170  -24.6120   20.6120 C   0  0  0  0  0  3  0  0  0  0  0  0
  -28.7460  -26.1120   22.4980 C   0  0  0  0  0  1  0  0  0  0  0  0
  -28.4060  -25.6300   21.0800 C   0  0  0  0  0  3  0  0  0  0  0  0
  -28.4230  -26.7410   20.1840 O   0  0  0  0  0  0  0  0  0  0  0  0
  -24.6030  -31.8790   23.2330 C   0  0  0  0  0  0  0  0  0  0  0  0
  -27.2620  -27.4680   20.1730 C   0  0  0  0  0  0  0  0  0  0  0  0
  -23.4020  -30.4730   21.5860 C   0  0  0  0  0  3  0  0  0  0  0  0
  -24.8630  -28.9390   20.1680 C   0  0  0  0  0  0  0  0  0  0  0  0
  -25.9240  -30.8490   21.3910 C   0  0  0  0  0  2  0  0  0  0  0  0
  -26.0140  -29.4800   20.7550 C   0  0  0  0  0  0  0  0  0  0  0  0
  -27.2220  -28.7520   20.7500 C   0  0  0  0  0  3  0  0  0  0  0  0
  -26.1010  -26.9300   19.5810 C   0  0  0  0  0  3  0  0  0  0  0  0
  -24.8990  -27.6620   19.5780 C   0  0  0  0  0  3  0  0  0  0  0  0
  -23.6130  -29.7890   20.2090 C   0  0  0  0  0  2  0  0  0  0  0  0
  -24.6610  -31.0820   22.1290 N   0  0  0  0  0  0  0  0  0  0  0  0
  -23.5210  -32.1490   23.7730 O   0  0  0  0  0  0  0  0  0  0  0  0
  -22.7530  -29.4520   22.5470 C   0  0  0  0  0  0  0  0  0  0  0  0
  -21.4300  -29.2690   22.4170 N   0  0  0  0  0  0  0  0  0  0  0  0
  -23.4380  -28.8260   23.3610 O   0  0  0  0  0  0  0  0  0  0  0  0
  -20.9410  -29.8260   21.7290 H   0  0  0  0  0  0  0  0  0  0  0  0
  -18.0530  -28.0830   22.9080 C   0  0  0  0  0  0  0  0  0  0  0  0
  -20.6110  -28.3310   23.1840 C   0  0  0  0  0  3  0  0  0  0  0  0
  -20.7100  -26.9010   22.6040 C   0  0  0  0  0  2  0  0  0  0  0  0
  -19.6070  -26.5860   21.5870 C   0  0  0  0  0  2  0  0  0  0  0  0
  -18.2260  -26.7340   22.2300 C   0  0  0  0  0  2  0  0  0  0  0  0
  -19.1740  -28.8400   23.3410 C   0  0  0  0  0  0  0  0  0  0  0  0
  -18.9600  -30.1030   23.9320 C   0  0  0  0  0  3  0  0  0  0  0  0
  -17.6580  -30.6100   24.0980 C   0  0  0  0  0  3  0  0  0  0  0  0
  -16.5510  -29.8510   23.6820 C   0  0  0  0  0  3  0  0  0  0  0  0
  -16.7490  -28.5890   23.0930 C   0  0  0  0  0  3  0  0  0  0  0  0
  -25.8880  -32.5100   23.8560 C   0  0  0  0  0  3  0  0  0  0  0  0
  -26.4040  -31.7390   25.1320 C   0  0  1  0  0  0  0  0  0  0  0  0
  -25.3110  -31.5020   26.2000 C   0  0  0  0  0  1  0  0  0  0  0  0
  -26.9890  -30.3620   24.7390 C   0  0  0  0  0  1  0  0  0  0  0  0
  -27.5550  -32.5350   25.7940 C   0  0  0  0  0  1  0  0  0  0  0  0
  -25.5780  -33.9080   24.1800 N   0  0  0  0  0  0  0  0  0  0  0  0
  -25.9190  -34.9590   23.4210 C   0  0  0  0  0  0  0  0  0  0  0  0
  -26.6000  -34.8540   22.3970 O   0  0  0  0  0  0  0  0  0  0  0  0
  -24.9720  -34.0640   24.9720 H   0  0  0  0  0  0  0  0  0  0  0  0
  -24.1980  -36.7530   23.0430 C   0  0  0  0  0  1  0  0  0  0  0  0
  -25.4280  -36.3480   23.8690 C   0  0  0  0  0  3  0  0  0  0  0  0
  -27.5550  -37.2290   24.7230 C   0  0  0  0  0  1  0  0  0  0  0  0
  -26.4650  -37.3990   23.7670 N   0  0  0  0  0  0  0  0  0  0  0  0
  -26.0590  -38.3210   23.9120 H   0  0  0  0  0  0  0  0  0  0  0  0
  1  7  1  0
  1 48  1  0
  2  1  2  0
  3  6  1  0
  4  7  1  0
  4  3  2  0
  6  5  2  0
  7  8  2  0
  8  5  1  0
  8  9  1  0
 10  6  1  0
 11 10  2  0
 12 11  1  0
 13 18  1  0
 14 15  1  0
 14 13  1  0
 16 15  1  0
 16 23  1  0
 16 17  1  0
 18 12  1  0
 18 17  1  0
 19 12  2  0
 20 21  2  0
 21 40  1  0
 22 21  1  0
 22 25  1  0
 23 20  1  0
 23 24  1  0
 24 22  2  0
 25 26  1  0
 26 27  2  0
 28 31  1  0
 28 27  1  0
 29 28  2  0
 30 29  1  0
 30 25  2  0
 31 32  1  0
 32 33  1  0
 33 34  2  0
 35 34  1  0
 35 39  1  0
 36 35  2  0
 37 32  2  0
 37 36  1  0
 38 37  1  0
 40 41  1  0
 41 44  1  0
 41 43  1  0
 42 40  2  0
 45 46  1  0
 45 20  1  0
 47 45  1  0
 48 49  2  0
 49 51  1  0
 51 50  1  0
 52 51  1  0
 53 64  2  0
 54 52  1  0
 54 59  1  0
 55 63  1  0
 55 65  1  0
 56 62  1  0
 56 58  1  0
 57 63  1  0
 58 57  1  0
 59 58  2  0
 60 54  2  0
 61 60  1  0
 61 56  2  0
 62 55  1  0
 63 53  1  0
 65 67  2  0
 66 65  1  0
 68 66  1  0
 69 78  2  0
 69 74  1  0
 70 66  1  0
 70 74  1  0
 71 70  1  0
 72 73  1  0
 72 71  1  0
 73 69  1  0
 74 75  2  0
 75 76  1  0
 77 76  2  0
 78 77  1  0
 79 53  1  0
 79 84  1  0
 79 80  1  0
 80 83  1  1
 80 81  1  0
 82 80  1  0
 84 87  1  0
 85 89  1  0
 85 84  1  0
 86 85  2  0
 89 88  1  0
 91 89  1  0
 91 92  1  0
 91 90  1  0
M  ISO  4  11 100  12 100  51 101  52 101
M  END
>  <TORSDO>  (96) 
F 20

>  <SCORE>  (96) 
-14.066

>  <name>  (96) 
95

>  <ligand_id>  (96) 
95

>  <original_smiles>  (96) 
[H]C(C(=O)N1C([H])([H])C([H])([H])C([H])([H])C([H])(n2nc(-c3c([H])c([H])c(Oc4c([H])c([H])c(F)c([H])c4F)c([H])c3[H])c(C(=O)N([H])[H])c2N([H])[H])C1([H])[H])=C([H])c1c([H])c([H])c(C(=O)C([H])=C([H])C([H])(Oc2c([H])c([H])c3c(c2[H])C([H])([H])N(C(=O)C([H])(N([H])C(=O)C([H])(N([H])C([H])([H])[H])C([H])([H])[H])C(C([H])([H])[H])(C([H])([H])[H])C([H])([H])[H])C([H])(C(=O)N([H])C2([H])c4c([H])c([H])c([H])c([H])c4C([H])([H])C([H])([H])C2([H])[H])C3([H])[H])C([H])([H])[H])c(C([H])([H])[H])c1[H]

>  <smiles>  (96) 
[H]C(C(=O)N1C([H])([H])C([H])([H])C([H])([H])C([H])(n2nc(-c3c([H])c([H])c(Oc4c([H])c([H])c(F)c([H])c4F)c([H])c3[H])c(C(=O)N([H])[H])c2N([H])[H])C1([H])[H])=C([H])c1c([H])c([H])c(C(=O)C([H])=C([H])C([H])(Oc2c([H])c([H])c3c(c2[H])C([H])([H])N(C(=O)C([H])(N([H])C(=O)C([H])(N([H])C([H])([H])[H])C([H])([H])[H])C(C([H])([H])[H])(C([H])([H])[H])C([H])([H])[H])C([H])(C(=O)N([H])C2([H])c4c([H])c([H])c([H])c([H])c4C([H])([H])C([H])([H])C2([H])[H])C3([H])[H])C([H])([H])[H])c(C([H])([H])[H])c1[H]

$$$$
96:0:0
     RDKit          3D

 94102  0  0  1  0  0  0  0  0999 V2000
  -30.1900  -18.9920   19.4500 C   0  0  0  0  0  3  0  0  0  0  0  0
  -30.5150  -19.1020   21.8510 C   0  0  0  0  0  3  0  0  0  0  0  0
  -30.4150  -19.7670   20.6090 C   0  0  0  0  0  0  0  0  0  0  0  0
  -30.0830  -17.5820   19.5100 C   0  0  0  0  0  0  0  0  0  0  0  0
  -30.2600  -16.9210   20.7590 C   0  0  0  0  0  0  0  0  0  0  0  0
  -30.4530  -17.6950   21.9230 C   0  0  0  0  0  0  0  0  0  0  0  0
  -30.5700  -17.0830   23.1270 F   0  0  0  0  0  0  0  0  0  0  0  0
  -30.9000  -14.5420   20.4310 C   0  0  0  0  0  0  0  0  0  0  0  0
  -30.6520  -12.4070   19.2350 C   0  0  0  0  0  2  0  0  0  0  0  0
  -29.7090  -12.6440   18.0350 C   0  0  0  0  0  2  0  0  0  0  0  0
  -28.2300  -12.5110   18.4510 C   0  0  0  0  0  2  0  0  0  0  0  0
  -27.8890  -13.3070   19.7400 C   0  0  0  0  0  3  0  0  0  0  0  0
  -28.9360  -13.0250   20.8400 C   0  0  0  0  0  2  0  0  0  0  0  0
  -30.2670  -13.3490   20.2940 N   0  0  0  0  0  0  0  0  0  0  0  0
  -32.0390  -14.7580   20.0070 O   0  0  0  0  0  0  0  0  0  0  0  0
  -30.1180  -15.5150   20.9260 N   0  0  0  0  0  0  0  0  0  0  0  0
  -29.2730  -15.2090   21.3840 H   0  0  0  0  0  0  0  0  0  0  0  0
  -25.4780  -13.9130   20.4160 C   0  0  0  0  0  0  0  0  0  0  0  0
  -24.4100  -13.1370   20.7800 C   0  0  0  0  0  0  0  0  0  0  0  0
  -24.8790  -11.7880   20.7650 C   0  0  0  0  0  0  0  0  0  0  0  0
  -26.5300  -13.0350   20.2030 N   0  0  0  0  0  0  0  0  0  0  0  0
  -26.1720  -11.7520   20.4690 N   0  0  0  0  0  0  0  0  0  0  0  0
  -24.1600  -10.5230   20.9600 C   0  0  0  0  0  0  0  0  0  0  0  0
  -24.5720   -9.5780   21.9260 C   0  0  0  0  0  3  0  0  0  0  0  0
  -23.8540   -8.3770   22.1050 C   0  0  0  0  0  3  0  0  0  0  0  0
  -22.7070   -8.1130   21.3180 C   0  0  0  0  0  0  0  0  0  0  0  0
  -22.3140   -9.0450   20.3430 C   0  0  0  0  0  3  0  0  0  0  0  0
  -23.0340  -10.2380   20.1610 C   0  0  0  0  0  3  0  0  0  0  0  0
  -21.9630   -6.9610   21.4040 O   0  0  0  0  0  0  0  0  0  0  0  0
  -21.8550   -6.2600   22.5790 C   0  0  0  0  0  0  0  0  0  0  0  0
  -21.3360   -6.8490   23.7540 C   0  0  0  0  0  3  0  0  0  0  0  0
  -21.1760   -6.0730   24.9190 C   0  0  0  0  0  3  0  0  0  0  0  0
  -21.5260   -4.7100   24.9120 C   0  0  0  0  0  0  0  0  0  0  0  0
  -22.0390   -4.1220   23.7410 C   0  0  0  0  0  3  0  0  0  0  0  0
  -22.2000   -4.8940   22.5790 C   0  0  0  0  0  0  0  0  0  0  0  0
  -22.6730   -4.3160   21.4480 F   0  0  0  0  0  0  0  0  0  0  0  0
  -21.3670   -3.9630   26.0290 F   0  0  0  0  0  0  0  0  0  0  0  0
  -23.0070  -13.6080   21.0360 C   0  0  0  0  0  0  0  0  0  0  0  0
  -22.2760  -12.9170   21.9050 N   0  0  0  0  0  0  0  0  0  0  0  0
  -22.5650  -14.6230   20.5000 O   0  0  0  0  0  0  0  0  0  0  0  0
  -22.6450  -12.0960   22.3620 H   0  0  0  0  0  0  0  0  0  0  0  0
  -21.3370  -13.2180   22.1190 H   0  0  0  0  0  0  0  0  0  0  0  0
  -25.6350  -15.2830   20.2310 N   0  0  0  0  0  0  0  0  0  0  0  0
  -24.8640  -15.9330   20.3320 H   0  0  0  0  0  0  0  0  0  0  0  0
  -26.4870  -15.7310   19.9180 H   0  0  0  0  0  0  0  0  0  0  0  0
  -30.5070  -21.2400   20.5000 C   0  0  0  0  0  3  0  0  0  0  0  0
  -30.1330  -22.1340   21.4400 C   0  0  0  0  0  3  0  0  0  0  0  0
  -30.3540  -23.6450   21.3610 C   0  0  0  0  0  2  0  0  0  0  0  0
  -29.2090  -24.4410   20.7120 C   0  0  0  0  0  0  0  0  0  0  0  0
  -28.5870  -23.9990   19.7400 O   0  0  0  0  0  0  0  0  0  0  0  0
  -28.8910  -25.8260   21.3070 C   0  0  0  0  0  2  0  0  0  0  0  0
  -28.7820  -26.8190   20.2810 O   0  0  0  0  0  0  0  0  0  0  0  0
  -24.7100  -31.8730   23.2480 C   0  0  0  0  0  0  0  0  0  0  0  0
  -27.5980  -27.5140   20.2870 C   0  0  0  0  0  0  0  0  0  0  0  0
  -23.6080  -30.4350   21.5630 C   0  0  0  0  0  3  0  0  0  0  0  0
  -25.1590  -28.9320   20.2040 C   0  0  0  0  0  0  0  0  0  0  0  0
  -26.1250  -30.8680   21.4600 C   0  0  0  0  0  2  0  0  0  0  0  0
  -26.2750  -29.4960   20.8340 C   0  0  0  0  0  0  0  0  0  0  0  0
  -27.5000  -28.7930   20.8760 C   0  0  0  0  0  3  0  0  0  0  0  0
  -26.4690  -26.9550   19.6560 C   0  0  0  0  0  3  0  0  0  0  0  0
  -25.2480  -27.6570   19.6150 C   0  0  0  0  0  3  0  0  0  0  0  0
  -23.8890  -29.7550   20.1970 C   0  0  0  0  0  2  0  0  0  0  0  0
  -24.8300  -31.0740   22.1490 N   0  0  0  0  0  0  0  0  0  0  0  0
  -23.6030  -32.1150   23.7460 O   0  0  0  0  0  0  0  0  0  0  0  0
  -22.9480  -29.4000   22.5020 C   0  0  0  0  0  0  0  0  0  0  0  0
  -21.6280  -29.2070   22.3450 N   0  0  0  0  0  0  0  0  0  0  0  0
  -23.6210  -28.7700   23.3230 O   0  0  0  0  0  0  0  0  0  0  0  0
  -21.1450  -29.7650   21.6540 H   0  0  0  0  0  0  0  0  0  0  0  0
  -18.2500  -28.0100   22.7930 C   0  0  0  0  0  0  0  0  0  0  0  0
  -20.8060  -28.2550   23.0910 C   0  0  0  0  0  3  0  0  0  0  0  0
  -20.9090  -26.8370   22.4840 C   0  0  0  0  0  2  0  0  0  0  0  0
  -19.8140  -26.5400   21.4530 C   0  0  0  0  0  2  0  0  0  0  0  0
  -18.4270  -26.6750   22.0900 C   0  0  0  0  0  2  0  0  0  0  0  0
  -19.3670  -28.7580   23.2490 C   0  0  0  0  0  0  0  0  0  0  0  0
  -19.1470  -30.0100   23.8640 C   0  0  0  0  0  3  0  0  0  0  0  0
  -17.8430  -30.5110   24.0330 C   0  0  0  0  0  3  0  0  0  0  0  0
  -16.7400  -29.7590   23.5940 C   0  0  0  0  0  3  0  0  0  0  0  0
  -16.9440  -28.5110   22.9790 C   0  0  0  0  0  3  0  0  0  0  0  0
  -25.9550  -32.5370   23.9150 C   0  0  0  0  0  3  0  0  0  0  0  0
  -25.6030  -33.9300   24.2190 N   0  0  0  0  0  0  0  0  0  0  0  0
  -25.9300  -34.9820   23.4560 C   0  0  0  0  0  0  0  0  0  0  0  0
  -26.6310  -34.8820   22.4450 O   0  0  0  0  0  0  0  0  0  0  0  0
  -24.9830  -34.0790   25.0020 H   0  0  0  0  0  0  0  0  0  0  0  0
  -24.1630  -36.7180   23.0320 C   0  0  0  0  0  1  0  0  0  0  0  0
  -25.3920  -36.3620   23.8810 C   0  0  0  0  0  3  0  0  0  0  0  0
  -27.4780  -37.3180   24.7540 C   0  0  0  0  0  1  0  0  0  0  0  0
  -26.3980  -37.4420   23.7790 N   0  0  0  0  0  0  0  0  0  0  0  0
  -25.9630  -38.3520   23.8990 H   0  0  0  0  0  0  0  0  0  0  0  0
  -26.4390  -31.7870   25.2160 C   0  0  1  0  0  0  0  0  0  0  0  0
  -25.3100  -31.5320   26.2430 C   0  0  0  0  0  1  0  0  0  0  0  0
  -27.0690  -30.4210   24.8540 C   0  0  0  0  0  1  0  0  0  0  0  0
  -27.5450  -32.6120   25.9150 C   0  0  0  0  0  1  0  0  0  0  0  0
  -30.8820  -16.6820   17.2520 C   0  0  0  0  0  1  0  0  0  0  0  0
  -29.7080  -16.8450   18.2270 C   0  0  0  0  0  2  0  0  0  0  0  0
  1  4  2  0
  1  3  1  0
  2  6  1  0
  3  2  2  0
  4  5  1  0
  5 16  1  0
  5  6  2  0
  6  7  1  0
  8 16  1  0
  9 14  1  0
 10 11  1  0
 10  9  1  0
 12 11  1  0
 12 21  1  0
 12 13  1  0
 14  8  1  0
 14 13  1  0
 15  8  2  0
 16 17  1  0
 18 19  2  0
 19 38  1  0
 20 19  1  0
 20 23  1  0
 21 18  1  0
 21 22  1  0
 22 20  2  0
 23 24  1  0
 24 25  2  0
 26 29  1  0
 26 25  1  0
 27 26  2  0
 28 27  1  0
 28 23  2  0
 29 30  1  0
 30 35  2  0
 30 31  1  0
 31 32  2  0
 33 32  1  0
 33 37  1  0
 34 33  2  0
 35 34  1  0
 36 35  1  0
 38 39  1  0
 39 42  1  0
 39 41  1  0
 40 38  2  0
 43 44  1  0
 43 18  1  0
 45 43  1  0
 46  3  1  0
 46 47  2  0
 48 47  1  0
 49 51  1  0
 49 48  1  0
 50 49  2  0
 52 54  1  0
 52 51  1  0
 53 64  2  0
 54 59  1  0
 55 63  1  0
 55 65  1  0
 56 58  1  0
 57 63  1  0
 58 59  2  0
 58 57  1  0
 60 54  2  0
 61 60  1  0
 61 56  2  0
 62 56  1  0
 62 55  1  0
 63 53  1  0
 65 67  2  0
 66 65  1  0
 68 66  1  0
 69 78  2  0
 69 74  1  0
 70 66  1  0
 70 74  1  0
 71 70  1  0
 72 73  1  0
 72 71  1  0
 73 69  1  0
 74 75  2  0
 75 76  1  0
 77 76  2  0
 78 77  1  0
 79 53  1  0
 79 80  1  0
 79 89  1  0
 80 83  1  0
 81 85  1  0
 81 80  1  0
 82 81  2  0
 85 84  1  0
 87 85  1  0
 87 88  1  0
 87 86  1  0
 89 92  1  1
 89 90  1  0
 91 89  1  0
 93 94  1  0
 94  4  1  0
M  ISO  4   8 100  16 100  51 101  52 101
M  END
>  <TORSDO>  (97) 
F 21

>  <SCORE>  (97) 
-12.694

>  <name>  (97) 
96

>  <ligand_id>  (97) 
96

>  <original_smiles>  (97) 
[H]C(=C([H])C([H])([H])C(=O)C([H])([H])Oc1c([H])c([H])c2c(c1[H])C([H])([H])N(C(=O)C([H])(N([H])C(=O)C([H])(N([H])C([H])([H])[H])C([H])([H])[H])C(C([H])([H])[H])(C([H])([H])[H])C([H])([H])[H])C([H])(C(=O)N([H])C1([H])c3c([H])c([H])c([H])c([H])c3C([H])([H])C([H])([H])C1([H])[H])C2([H])[H])c1c([H])c(F)c(N([H])C(=O)N2C([H])([H])C([H])([H])C([H])([H])C([H])(n3nc(-c4c([H])c([H])c(Oc5c([H])c([H])c(F)c([H])c5F)c([H])c4[H])c(C(=O)N([H])[H])c3N([H])[H])C2([H])[H])c(C([H])([H])C([H])([H])[H])c1[H]

>  <smiles>  (97) 
[H]C(=C([H])C([H])([H])C(=O)C([H])([H])Oc1c([H])c([H])c2c(c1[H])C([H])([H])N(C(=O)C([H])(N([H])C(=O)C([H])(N([H])C([H])([H])[H])C([H])([H])[H])C(C([H])([H])[H])(C([H])([H])[H])C([H])([H])[H])C([H])(C(=O)N([H])C1([H])c3c([H])c([H])c([H])c([H])c3C([H])([H])C([H])([H])C1([H])[H])C2([H])[H])c1c([H])c(F)c(N([H])C(=O)N2C([H])([H])C([H])([H])C([H])([H])C([H])(n3nc(-c4c([H])c([H])c(Oc5c([H])c([H])c(F)c([H])c5F)c([H])c4[H])c(C(=O)N([H])[H])c3N([H])[H])C2([H])[H])c(C([H])([H])C([H])([H])[H])c1[H]

$$$$
