0:0:0
     RDKit          3D

 92100  0  0  1  0  0  0  0  0999 V2000
  -30.6190  -20.1500   19.7770 C   0  0  0  0  0  3  0  0  0  0  0  0
  -31.2090  -18.9490   20.2310 C   0  0  0  0  0  3  0  0  0  0  0  0
  -29.0150  -18.0000   20.5970 C   0  0  0  0  0  3  0  0  0  0  0  0
  -29.2170  -20.2740   19.6590 C   0  0  0  0  0  0  0  0  0  0  0  0
  -30.4200  -17.8420   20.6180 C   0  0  0  0  0  0  0  0  0  0  0  0
  -28.4120  -19.2070   20.1560 C   0  0  0  0  0  0  0  0  0  0  0  0
  -26.8910  -19.2990   20.1910 C   0  0  0  0  0  1  0  0  0  0  0  0
  -28.7400  -22.6310   18.6150 C   0  0  0  0  0  3  0  0  0  0  0  0
  -28.7110  -21.2670   18.6610 C   0  0  0  0  0  0  0  0  0  0  0  0
  -28.1570  -20.5240   17.4490 C   0  0  0  0  0  1  0  0  0  0  0  0
  -29.1860  -23.7750   19.5520 C   0  0  0  0  0  2  0  0  0  0  0  0
  -28.3780  -25.0580   19.1490 C   0  0  0  0  0  2  0  0  0  0  0  0
  -28.6410  -26.4340   19.5710 O   0  0  0  0  0  0  0  0  0  0  0  0
  -24.6600  -31.4370   22.8470 C   0  0  0  0  0  0  0  0  0  0  0  0
  -27.5020  -27.2520   19.5260 C   0  0  0  0  0  0  0  0  0  0  0  0
  -23.5320  -30.0670   21.1370 C   0  0  0  0  0  3  0  0  0  0  0  0
  -25.0620  -28.7140   19.6160 C   0  0  0  0  0  0  0  0  0  0  0  0
  -26.0500  -30.5500   20.9720 C   0  0  0  0  0  2  0  0  0  0  0  0
  -26.2060  -29.2270   20.2430 C   0  0  0  0  0  0  0  0  0  0  0  0
  -27.4310  -28.5020   20.2020 C   0  0  0  0  0  3  0  0  0  0  0  0
  -26.3370  -26.8230   18.8350 C   0  0  0  0  0  3  0  0  0  0  0  0
  -25.1280  -27.5190   18.8970 C   0  0  0  0  0  3  0  0  0  0  0  0
  -23.7720  -29.4910   19.7200 C   0  0  0  0  0  2  0  0  0  0  0  0
  -24.7650  -30.7000   21.7050 N   0  0  0  0  0  0  0  0  0  0  0  0
  -23.5610  -31.6170   23.3930 O   0  0  0  0  0  0  0  0  0  0  0  0
  -22.9430  -28.9500   22.0370 C   0  0  0  0  0  0  0  0  0  0  0  0
  -21.6250  -28.7260   21.9250 N   0  0  0  0  0  0  0  0  0  0  0  0
  -23.6670  -28.2950   22.7880 O   0  0  0  0  0  0  0  0  0  0  0  0
  -21.0980  -29.3210   21.3040 H   0  0  0  0  0  0  0  0  0  0  0  0
  -18.3160  -27.3230   22.3750 C   0  0  0  0  0  0  0  0  0  0  0  0
  -20.8640  -27.6950   22.6310 C   0  0  0  0  0  3  0  0  0  0  0  0
  -21.0360  -26.3130   21.9600 C   0  0  0  0  0  2  0  0  0  0  0  0
  -19.9240  -25.9750   20.9560 C   0  0  0  0  0  2  0  0  0  0  0  0
  -18.5460  -26.0240   21.6190 C   0  0  0  0  0  2  0  0  0  0  0  0
  -19.4020  -28.1130   22.8360 C   0  0  0  0  0  0  0  0  0  0  0  0
  -19.1310  -29.3220   23.5160 C   0  0  0  0  0  3  0  0  0  0  0  0
  -17.8060  -29.7390   23.7410 C   0  0  0  0  0  3  0  0  0  0  0  0
  -16.7340  -28.9470   23.2900 C   0  0  0  0  0  3  0  0  0  0  0  0
  -16.9890  -27.7430   22.6100 C   0  0  0  0  0  3  0  0  0  0  0  0
  -25.9020  -32.1110   23.4970 C   0  0  0  0  0  3  0  0  0  0  0  0
  -26.4870  -31.2900   24.7110 C   0  0  1  0  0  0  0  0  0  0  0  0
  -25.4270  -30.9170   25.7750 C   0  0  0  0  0  1  0  0  0  0  0  0
  -27.1470  -29.9810   24.2210 C   0  0  0  0  0  1  0  0  0  0  0  0
  -27.6000  -32.1110   25.4060 C   0  0  0  0  0  1  0  0  0  0  0  0
  -25.4990  -33.4570   23.9220 N   0  0  0  0  0  0  0  0  0  0  0  0
  -25.7950  -34.5880   23.2640 C   0  0  0  0  0  0  0  0  0  0  0  0
  -26.5100  -34.6040   22.2580 O   0  0  0  0  0  0  0  0  0  0  0  0
  -24.8610  -33.5100   24.7030 H   0  0  0  0  0  0  0  0  0  0  0  0
  -23.9780  -36.3030   22.9810 C   0  0  0  0  0  1  0  0  0  0  0  0
  -25.2090  -35.9030   23.8110 C   0  0  0  0  0  3  0  0  0  0  0  0
  -27.2490  -36.8340   24.8120 C   0  0  0  0  0  1  0  0  0  0  0  0
  -26.1830  -37.0160   23.8300 N   0  0  0  0  0  0  0  0  0  0  0  0
  -25.7210  -37.9000   24.0260 H   0  0  0  0  0  0  0  0  0  0  0  0
  -31.0960  -16.5590   21.1360 C   0  0  0  0  0  2  0  0  0  0  0  0
  -30.9300  -14.3740   19.8060 C   0  0  0  0  0  0  0  0  0  0  0  0
  -30.4780  -12.2210   18.6160 C   0  0  0  0  0  2  0  0  0  0  0  0
  -29.4140  -12.3900   17.5090 C   0  0  0  0  0  2  0  0  0  0  0  0
  -27.9920  -12.2500   18.0860 C   0  0  0  0  0  2  0  0  0  0  0  0
  -27.7880  -13.1340   19.3430 C   0  0  0  0  0  3  0  0  0  0  0  0
  -28.9390  -12.9240   20.3530 C   0  0  0  0  0  2  0  0  0  0  0  0
  -30.2120  -13.2160   19.6790 N   0  0  0  0  0  0  0  0  0  0  0  0
  -31.9150  -14.6120   19.0990 O   0  0  0  0  0  0  0  0  0  0  0  0
  -30.4970  -15.2610   20.7360 N   0  0  0  0  0  0  0  0  0  0  0  0
  -29.7270  -14.9600   21.3120 H   0  0  0  0  0  0  0  0  0  0  0  0
  -25.5050  -13.8080   20.3210 C   0  0  0  0  0  0  0  0  0  0  0  0
  -24.4510  -13.0660   20.7740 C   0  0  0  0  0  0  0  0  0  0  0  0
  -24.8430  -11.6970   20.6430 C   0  0  0  0  0  0  0  0  0  0  0  0
  -26.4810  -12.8950   19.9480 N   0  0  0  0  0  0  0  0  0  0  0  0
  -26.0940  -11.6190   20.2010 N   0  0  0  0  0  0  0  0  0  0  0  0
  -24.0830  -10.4600   20.8640 C   0  0  0  0  0  0  0  0  0  0  0  0
  -24.5000   -9.5030   21.8150 C   0  0  0  0  0  3  0  0  0  0  0  0
  -23.7470   -8.3290   22.0210 C   0  0  0  0  0  3  0  0  0  0  0  0
  -22.5640   -8.1040   21.2780 C   0  0  0  0  0  0  0  0  0  0  0  0
  -22.1670   -9.0500   20.3170 C   0  0  0  0  0  3  0  0  0  0  0  0
  -22.9190  -10.2170   20.1090 C   0  0  0  0  0  3  0  0  0  0  0  0
  -21.7790   -6.9830   21.3910 O   0  0  0  0  0  0  0  0  0  0  0  0
  -21.6330   -6.3250   22.5860 C   0  0  0  0  0  0  0  0  0  0  0  0
  -21.0930   -6.9620   23.7240 C   0  0  0  0  0  3  0  0  0  0  0  0
  -20.8990   -6.2310   24.9140 C   0  0  0  0  0  3  0  0  0  0  0  0
  -21.2310   -4.8650   24.9640 C   0  0  0  0  0  0  0  0  0  0  0  0
  -21.7610   -4.2270   23.8280 C   0  0  0  0  0  3  0  0  0  0  0  0
  -21.9590   -4.9550   22.6420 C   0  0  0  0  0  0  0  0  0  0  0  0
  -22.4500   -4.3320   21.5450 F   0  0  0  0  0  0  0  0  0  0  0  0
  -21.0350   -4.1590   26.1020 F   0  0  0  0  0  0  0  0  0  0  0  0
  -23.1120  -13.5850   21.2230 C   0  0  0  0  0  0  0  0  0  0  0  0
  -22.4610  -12.8860   22.1430 N   0  0  0  0  0  0  0  0  0  0  0  0
  -22.6630  -14.6490   20.7920 O   0  0  0  0  0  0  0  0  0  0  0  0
  -22.8430  -12.0280   22.5140 H   0  0  0  0  0  0  0  0  0  0  0  0
  -21.5700  -13.2120   22.4900 H   0  0  0  0  0  0  0  0  0  0  0  0
  -25.7090  -15.1780   20.1770 N   0  0  0  0  0  0  0  0  0  0  0  0
  -24.9930  -15.8540   20.4210 H   0  0  0  0  0  0  0  0  0  0  0  0
  -26.5560  -15.6010   19.8190 H   0  0  0  0  0  0  0  0  0  0  0  0
  1  2  1  0
  2  5  2  0
  3  5  1  0
  4  1  2  0
  4  6  1  0
  5 54  1  0
  6  7  1  0
  6  3  2  0
  8  9  2  0
  8 11  1  0
  9  4  1  0
 10  9  1  0
 12 11  1  0
 12 13  1  0
 14 25  2  0
 15 13  1  0
 15 20  1  0
 16 24  1  0
 16 26  1  0
 17 23  1  0
 17 19  1  0
 18 24  1  0
 19 18  1  0
 20 19  2  0
 21 22  1  0
 21 15  2  0
 22 17  2  0
 23 16  1  0
 24 14  1  0
 26 28  2  0
 27 26  1  0
 29 27  1  0
 30 39  2  0
 30 35  1  0
 31 27  1  0
 31 35  1  0
 32 31  1  0
 33 34  1  0
 33 32  1  0
 34 30  1  0
 35 36  2  0
 36 37  1  0
 38 37  2  0
 39 38  1  0
 40 14  1  0
 40 45  1  0
 40 41  1  0
 41 44  1  1
 41 42  1  0
 43 41  1  0
 45 48  1  0
 46 50  1  0
 46 45  1  0
 47 46  2  0
 50 49  1  0
 50 52  1  0
 52 53  1  0
 52 51  1  0
 55 63  1  0
 56 61  1  0
 57 58  1  0
 57 56  1  0
 59 58  1  0
 59 68  1  0
 59 60  1  0
 61 55  1  0
 61 60  1  0
 62 55  2  0
 63 54  1  0
 63 64  1  0
 65 66  2  0
 66 85  1  0
 67 66  1  0
 67 70  1  0
 68 69  1  0
 68 65  1  0
 69 67  2  0
 70 71  1  0
 71 72  2  0
 73 76  1  0
 73 72  1  0
 74 73  2  0
 75 74  1  0
 75 70  2  0
 76 77  1  0
 77 82  2  0
 77 78  1  0
 78 79  2  0
 79 80  1  0
 80 84  1  0
 81 80  2  0
 82 81  1  0
 83 82  1  0
 85 86  1  0
 86 89  1  0
 86 88  1  0
 87 85  2  0
 90 65  1  0
 90 91  1  0
 92 90  1  0
M  ISO  4  12 101  13 101  55 100  63 100
M  END
>  <TORSDO>  (1) 
F 20

>  <SCORE>  (1) 
-11.777

>  <name>  (1) 
0

>  <ligand_id>  (1) 
0

>  <original_smiles>  (1) 
[H]C(=C(c1c([H])c([H])c(C([H])([H])N([H])C(=O)N2C([H])([H])C([H])([H])C([H])([H])C([H])(n3nc(-c4c([H])c([H])c(Oc5c([H])c([H])c(F)c([H])c5F)c([H])c4[H])c(C(=O)N([H])[H])c3N([H])[H])C2([H])[H])c([H])c1C([H])([H])[H])C([H])([H])[H])C([H])([H])C([H])([H])Oc1c([H])c([H])c2c(c1[H])C([H])([H])N(C(=O)C([H])(N([H])C(=O)C([H])(N([H])C([H])([H])[H])C([H])([H])[H])C(C([H])([H])[H])(C([H])([H])[H])C([H])([H])[H])C([H])(C(=O)N([H])C1([H])c3c([H])c([H])c([H])c([H])c3C([H])([H])C([H])([H])C1([H])[H])C2([H])[H]

>  <smiles>  (1) 
[H]C(=C(c1c([H])c([H])c(C([H])([H])N([H])C(=O)N2C([H])([H])C([H])([H])C([H])([H])C([H])(n3nc(-c4c([H])c([H])c(Oc5c([H])c([H])c(F)c([H])c5F)c([H])c4[H])c(C(=O)N([H])[H])c3N([H])[H])C2([H])[H])c([H])c1C([H])([H])[H])C([H])([H])[H])C([H])([H])C([H])([H])Oc1c([H])c([H])c2c(c1[H])C([H])([H])N(C(=O)C([H])(N([H])C(=O)C([H])(N([H])C([H])([H])[H])C([H])([H])[H])C(C([H])([H])[H])(C([H])([H])[H])C([H])([H])[H])C([H])(C(=O)N([H])C1([H])c3c([H])c([H])c([H])c([H])c3C([H])([H])C([H])([H])C1([H])[H])C2([H])[H]

$$$$
1:0:0
     RDKit          3D

 89 97  0  0  1  0  0  0  0  0999 V2000
  -28.7990  -22.3460   20.6090 O   0  0  0  0  0  0  0  0  0  0  0  0
  -28.6890  -18.6320   20.6410 C   0  0  0  0  0  3  0  0  0  0  0  0
  -31.0070  -19.3450   20.6130 C   0  0  0  0  0  3  0  0  0  0  0  0
  -28.2850  -19.9890   20.6520 C   0  0  0  0  0  3  0  0  0  0  0  0
  -30.6050  -20.6950   20.6350 C   0  0  0  0  0  3  0  0  0  0  0  0
  -30.0620  -18.2960   20.6070 C   0  0  0  0  0  0  0  0  0  0  0  0
  -29.2360  -21.0350   20.6570 C   0  0  0  0  0  0  0  0  0  0  0  0
  -30.5750  -16.9130   20.4860 C   0  0  0  0  0  3  0  0  0  0  0  0
  -29.9210  -15.7250   20.5340 C   0  0  0  0  0  3  0  0  0  0  0  0
  -30.6690  -14.4990   20.2200 C   0  0  0  0  0  0  0  0  0  0  0  0
  -30.3060  -12.3260   19.1360 C   0  0  0  0  0  2  0  0  0  0  0  0
  -29.3480  -12.5390   17.9450 C   0  0  0  0  0  2  0  0  0  0  0  0
  -27.8830  -12.4090   18.4060 C   0  0  0  0  0  2  0  0  0  0  0  0
  -27.5750  -13.2550   19.6710 C   0  0  0  0  0  3  0  0  0  0  0  0
  -28.6560  -13.0560   20.7570 C   0  0  0  0  0  2  0  0  0  0  0  0
  -29.9670  -13.3330   20.1540 N   0  0  0  0  0  0  0  0  0  0  0  0
  -31.8340  -14.5560   19.8170 O   0  0  0  0  0  0  0  0  0  0  0  0
  -25.2030  -13.8660   20.4540 C   0  0  0  0  0  0  0  0  0  0  0  0
  -24.1400  -13.0940   20.8440 C   0  0  0  0  0  0  0  0  0  0  0  0
  -24.5920  -11.7420   20.7860 C   0  0  0  0  0  0  0  0  0  0  0  0
  -26.2350  -12.9810   20.1850 N   0  0  0  0  0  0  0  0  0  0  0  0
  -25.8730  -11.6980   20.4440 N   0  0  0  0  0  0  0  0  0  0  0  0
  -23.8630  -10.4810   20.9800 C   0  0  0  0  0  0  0  0  0  0  0  0
  -24.3000   -9.5140   21.9130 C   0  0  0  0  0  3  0  0  0  0  0  0
  -23.5730   -8.3170   22.0950 C   0  0  0  0  0  3  0  0  0  0  0  0
  -22.3970   -8.0800   21.3430 C   0  0  0  0  0  0  0  0  0  0  0  0
  -21.9810   -9.0360   20.4000 C   0  0  0  0  0  3  0  0  0  0  0  0
  -22.7070  -10.2240   20.2150 C   0  0  0  0  0  3  0  0  0  0  0  0
  -21.6410   -6.9350   21.4330 O   0  0  0  0  0  0  0  0  0  0  0  0
  -21.5670   -6.2120   22.5970 C   0  0  0  0  0  0  0  0  0  0  0  0
  -21.1020   -6.7830   23.8030 C   0  0  0  0  0  3  0  0  0  0  0  0
  -20.9770   -5.9850   24.9570 C   0  0  0  0  0  3  0  0  0  0  0  0
  -21.3080   -4.6180   24.9080 C   0  0  0  0  0  0  0  0  0  0  0  0
  -21.7660   -4.0460   23.7070 C   0  0  0  0  0  3  0  0  0  0  0  0
  -21.8930   -4.8400   22.5550 C   0  0  0  0  0  0  0  0  0  0  0  0
  -22.3140   -4.2810   21.3960 F   0  0  0  0  0  0  0  0  0  0  0  0
  -21.1810   -3.8480   26.0150 F   0  0  0  0  0  0  0  0  0  0  0  0
  -22.7540  -13.5780   21.1580 C   0  0  0  0  0  0  0  0  0  0  0  0
  -22.0460  -12.8770   22.0370 N   0  0  0  0  0  0  0  0  0  0  0  0
  -22.3090  -14.6120   20.6590 O   0  0  0  0  0  0  0  0  0  0  0  0
  -22.4190  -12.0430   22.4660 H   0  0  0  0  0  0  0  0  0  0  0  0
  -21.1160  -13.1830   22.2880 H   0  0  0  0  0  0  0  0  0  0  0  0
  -25.3690  -15.2360   20.2840 N   0  0  0  0  0  0  0  0  0  0  0  0
  -24.6010  -15.8870   20.4030 H   0  0  0  0  0  0  0  0  0  0  0  0
  -26.2000  -15.6700   19.9030 H   0  0  0  0  0  0  0  0  0  0  0  0
  -29.4290  -23.2880   21.4880 C   0  0  0  0  0  2  0  0  0  0  0  0
  -29.6080  -24.6880   20.8560 C   0  0  0  0  0  2  0  0  0  0  0  0
  -28.3090  -25.3210   20.3210 C   0  0  0  0  0  2  0  0  0  0  0  0
  -28.4360  -26.7460   20.2130 O   0  0  0  0  0  0  0  0  0  0  0  0
  -24.5610  -31.8880   23.2240 C   0  0  0  0  0  0  0  0  0  0  0  0
  -27.2550  -27.4600   20.1790 C   0  0  0  0  0  0  0  0  0  0  0  0
  -23.3710  -30.4720   21.5820 C   0  0  0  0  0  3  0  0  0  0  0  0
  -24.8430  -28.9440   20.1680 C   0  0  0  0  0  0  0  0  0  0  0  0
  -25.8930  -30.8540   21.3890 C   0  0  0  0  0  2  0  0  0  0  0  0
  -25.9940  -29.4820   20.7550 C   0  0  0  0  0  0  0  0  0  0  0  0
  -27.2030  -28.7510   20.7510 C   0  0  0  0  0  3  0  0  0  0  0  0
  -26.0850  -26.9350   19.5820 C   0  0  0  0  0  3  0  0  0  0  0  0
  -24.8840  -27.6690   19.5770 C   0  0  0  0  0  3  0  0  0  0  0  0
  -23.5900  -29.7900   20.2060 C   0  0  0  0  0  2  0  0  0  0  0  0
  -24.6270  -31.0850   22.1250 N   0  0  0  0  0  0  0  0  0  0  0  0
  -23.4750  -32.1540   23.7590 O   0  0  0  0  0  0  0  0  0  0  0  0
  -22.7240  -29.4490   22.5420 C   0  0  0  0  0  0  0  0  0  0  0  0
  -21.4000  -29.2640   22.4150 N   0  0  0  0  0  0  0  0  0  0  0  0
  -23.4100  -28.8250   23.3560 O   0  0  0  0  0  0  0  0  0  0  0  0
  -20.9100  -29.8130   21.7240 H   0  0  0  0  0  0  0  0  0  0  0  0
  -18.0240  -28.0910   22.9300 C   0  0  0  0  0  0  0  0  0  0  0  0
  -20.5850  -28.3270   23.1860 C   0  0  0  0  0  3  0  0  0  0  0  0
  -20.6740  -26.9010   22.5950 C   0  0  0  0  0  2  0  0  0  0  0  0
  -19.5630  -26.5950   21.5880 C   0  0  0  0  0  2  0  0  0  0  0  0
  -18.1870  -26.7470   22.2420 C   0  0  0  0  0  2  0  0  0  0  0  0
  -19.1510  -28.8420   23.3590 C   0  0  0  0  0  0  0  0  0  0  0  0
  -18.9460  -30.1040   23.9580 C   0  0  0  0  0  3  0  0  0  0  0  0
  -17.6470  -30.6130   24.1380 C   0  0  0  0  0  3  0  0  0  0  0  0
  -16.5330  -29.8590   23.7270 C   0  0  0  0  0  3  0  0  0  0  0  0
  -16.7240  -28.6010   23.1280 C   0  0  0  0  0  3  0  0  0  0  0  0
  -25.8400  -32.5300   23.8460 C   0  0  0  0  0  3  0  0  0  0  0  0
  -25.5250  -33.9290   24.1610 N   0  0  0  0  0  0  0  0  0  0  0  0
  -25.8530  -34.9750   23.3910 C   0  0  0  0  0  0  0  0  0  0  0  0
  -26.5270  -34.8640   22.3630 O   0  0  0  0  0  0  0  0  0  0  0  0
  -24.9300  -34.0880   24.9610 H   0  0  0  0  0  0  0  0  0  0  0  0
  -24.1170  -36.7530   23.0090 C   0  0  0  0  0  1  0  0  0  0  0  0
  -25.3560  -36.3650   23.8310 C   0  0  0  0  0  3  0  0  0  0  0  0
  -27.4780  -37.2740   24.6660 C   0  0  0  0  0  1  0  0  0  0  0  0
  -26.3830  -37.4220   23.7110 N   0  0  0  0  0  0  0  0  0  0  0  0
  -25.9700  -38.3420   23.8430 H   0  0  0  0  0  0  0  0  0  0  0  0
  -26.3550  -31.7700   25.1300 C   0  0  1  0  0  0  0  0  0  0  0  0
  -25.2570  -31.5340   26.1940 C   0  0  0  0  0  1  0  0  0  0  0  0
  -26.9480  -30.3940   24.7480 C   0  0  0  0  0  1  0  0  0  0  0  0
  -27.4950  -32.5770   25.7940 C   0  0  0  0  0  1  0  0  0  0  0  0
  1  7  1  0
  1 46  1  0
  2  4  1  0
  3  5  2  0
  4  7  2  0
  5  7  1  0
  6  3  1  0
  6  2  2  0
  8  9  2  0
  8  6  1  0
 10  9  1  0
 11 16  1  0
 12 13  1  0
 12 11  1  0
 14 13  1  0
 14 21  1  0
 14 15  1  0
 16 10  1  0
 16 15  1  0
 17 10  2  0
 18 19  2  0
 19 38  1  0
 20 19  1  0
 20 23  1  0
 21 22  1  0
 21 18  1  0
 22 20  2  0
 23 24  1  0
 24 25  2  0
 26 29  1  0
 26 25  1  0
 27 26  2  0
 28 27  1  0
 28 23  2  0
 29 30  1  0
 30 31  1  0
 31 32  2  0
 33 32  1  0
 33 37  1  0
 34 33  2  0
 35 30  2  0
 35 34  1  0
 36 35  1  0
 38 39  1  0
 39 42  1  0
 39 41  1  0
 40 38  2  0
 43 44  1  0
 43 18  1  0
 45 43  1  0
 47 46  1  0
 48 47  1  0
 49 48  1  0
 50 61  2  0
 51 49  1  0
 51 56  1  0
 52 60  1  0
 52 62  1  0
 53 59  1  0
 53 55  1  0
 54 60  1  0
 55 54  1  0
 56 55  2  0
 57 51  2  0
 58 57  1  0
 58 53  2  0
 59 52  1  0
 60 50  1  0
 62 64  2  0
 63 62  1  0
 65 63  1  0
 66 75  2  0
 66 71  1  0
 67 63  1  0
 67 71  1  0
 68 67  1  0
 69 70  1  0
 69 68  1  0
 70 66  1  0
 71 72  2  0
 72 73  1  0
 74 73  2  0
 75 74  1  0
 76 50  1  0
 76 77  1  0
 76 86  1  0
 77 80  1  0
 78 82  1  0
 78 77  1  0
 79 78  2  0
 82 81  1  0
 84 82  1  0
 84 85  1  0
 84 83  1  0
 86 89  1  1
 86 87  1  0
 88 86  1  0
M  ISO  4   9 100  10 100  48 101  49 101
M  END
>  <TORSDO>  (2) 
F 21

>  <SCORE>  (2) 
-13.408

>  <name>  (2) 
1

>  <ligand_id>  (2) 
1

>  <original_smiles>  (2) 
[H]C(C(=O)N1C([H])([H])C([H])([H])C([H])([H])C([H])(n2nc(-c3c([H])c([H])c(Oc4c([H])c([H])c(F)c([H])c4F)c([H])c3[H])c(C(=O)N([H])[H])c2N([H])[H])C1([H])[H])=C([H])c1c([H])c([H])c(OC([H])([H])C([H])([H])C([H])([H])Oc2c([H])c([H])c3c(c2[H])C([H])([H])N(C(=O)C([H])(N([H])C(=O)C([H])(N([H])C([H])([H])[H])C([H])([H])[H])C(C([H])([H])[H])(C([H])([H])[H])C([H])([H])[H])C([H])(C(=O)N([H])C2([H])c4c([H])c([H])c([H])c([H])c4C([H])([H])C([H])([H])C2([H])[H])C3([H])[H])c([H])c1[H]

>  <smiles>  (2) 
[H]C(C(=O)N1C([H])([H])C([H])([H])C([H])([H])C([H])(n2nc(-c3c([H])c([H])c(Oc4c([H])c([H])c(F)c([H])c4F)c([H])c3[H])c(C(=O)N([H])[H])c2N([H])[H])C1([H])[H])=C([H])c1c([H])c([H])c(OC([H])([H])C([H])([H])C([H])([H])Oc2c([H])c([H])c3c(c2[H])C([H])([H])N(C(=O)C([H])(N([H])C(=O)C([H])(N([H])C([H])([H])[H])C([H])([H])[H])C(C([H])([H])[H])(C([H])([H])[H])C([H])([H])[H])C([H])(C(=O)N([H])C2([H])c4c([H])c([H])c([H])c([H])c4C([H])([H])C([H])([H])C2([H])[H])C3([H])[H])c([H])c1[H]

$$$$
2:0:0
     RDKit          3D

 89 97  0  0  1  0  0  0  0  0999 V2000
  -30.7890  -19.5430   20.5410 C   0  0  0  0  0  3  0  0  0  0  0  0
  -30.3950  -20.9000   20.3760 C   0  0  0  0  0  3  0  0  0  0  0  0
  -28.2430  -20.1340   19.6090 C   0  0  0  0  0  3  0  0  0  0  0  0
  -29.9380  -18.4500   20.2180 C   0  0  0  0  0  0  0  0  0  0  0  0
  -29.1060  -21.2190   19.8940 C   0  0  0  0  0  0  0  0  0  0  0  0
  -28.6380  -18.7790   19.7440 C   0  0  0  0  0  0  0  0  0  0  0  0
  -27.6650  -17.7150   19.2730 C   0  0  0  0  0  1  0  0  0  0  0  0
  -30.4940  -17.0530   20.3220 C   0  0  0  0  0  3  0  0  0  0  0  0
  -29.9110  -15.8380   20.5610 C   0  0  0  0  0  3  0  0  0  0  0  0
  -30.6950  -14.5900   20.4210 C   0  0  0  0  0  0  0  0  0  0  0  0
  -30.3860  -12.3650   19.4080 C   0  0  0  0  0  2  0  0  0  0  0  0
  -29.4700  -12.5370   18.1780 C   0  0  0  0  0  2  0  0  0  0  0  0
  -27.9920  -12.4010   18.5920 C   0  0  0  0  0  2  0  0  0  0  0  0
  -27.6290  -13.2710   19.8290 C   0  0  0  0  0  3  0  0  0  0  0  0
  -28.6810  -13.1270   20.9520 C   0  0  0  0  0  2  0  0  0  0  0  0
  -30.0060  -13.4070   20.3810 N   0  0  0  0  0  0  0  0  0  0  0  0
  -31.8880  -14.6250   20.1150 O   0  0  0  0  0  0  0  0  0  0  0  0
  -25.2300  -13.8670   20.5410 C   0  0  0  0  0  0  0  0  0  0  0  0
  -24.1630  -13.0960   20.9080 C   0  0  0  0  0  0  0  0  0  0  0  0
  -24.6250  -11.7440   20.8780 C   0  0  0  0  0  0  0  0  0  0  0  0
  -26.2770  -12.9900   20.3090 N   0  0  0  0  0  0  0  0  0  0  0  0
  -25.9190  -11.7070   20.5770 N   0  0  0  0  0  0  0  0  0  0  0  0
  -23.8970  -10.4840   21.0670 C   0  0  0  0  0  0  0  0  0  0  0  0
  -24.3260   -9.5130   21.9980 C   0  0  0  0  0  3  0  0  0  0  0  0
  -23.5990   -8.3160   22.1720 C   0  0  0  0  0  3  0  0  0  0  0  0
  -22.4280   -8.0820   21.4140 C   0  0  0  0  0  0  0  0  0  0  0  0
  -22.0170   -9.0410   20.4720 C   0  0  0  0  0  3  0  0  0  0  0  0
  -22.7460  -10.2290   20.2960 C   0  0  0  0  0  3  0  0  0  0  0  0
  -21.6710   -6.9380   21.4970 O   0  0  0  0  0  0  0  0  0  0  0  0
  -21.6200   -6.1930   22.6480 C   0  0  0  0  0  0  0  0  0  0  0  0
  -21.1810   -6.7430   23.8730 C   0  0  0  0  0  3  0  0  0  0  0  0
  -21.0740   -5.9230   25.0140 C   0  0  0  0  0  3  0  0  0  0  0  0
  -21.3970   -4.5540   24.9350 C   0  0  0  0  0  0  0  0  0  0  0  0
  -21.8280   -4.0060   23.7130 C   0  0  0  0  0  3  0  0  0  0  0  0
  -21.9370   -4.8220   22.5740 C   0  0  0  0  0  0  0  0  0  0  0  0
  -22.3330   -4.2810   21.3960 F   0  0  0  0  0  0  0  0  0  0  0  0
  -21.2870   -3.7660   26.0290 F   0  0  0  0  0  0  0  0  0  0  0  0
  -22.7650  -13.5740   21.1700 C   0  0  0  0  0  0  0  0  0  0  0  0
  -22.0270  -12.8810   22.0310 N   0  0  0  0  0  0  0  0  0  0  0  0
  -22.3320  -14.6000   20.6440 O   0  0  0  0  0  0  0  0  0  0  0  0
  -22.3890  -12.0530   22.4830 H   0  0  0  0  0  0  0  0  0  0  0  0
  -21.0900  -13.1870   22.2480 H   0  0  0  0  0  0  0  0  0  0  0  0
  -25.3840  -15.2370   20.3660 N   0  0  0  0  0  0  0  0  0  0  0  0
  -24.6040  -15.8790   20.4640 H   0  0  0  0  0  0  0  0  0  0  0  0
  -26.2230  -15.6770   20.0180 H   0  0  0  0  0  0  0  0  0  0  0  0
  -28.6090  -22.6440   19.5270 C   0  0  0  0  0  2  0  0  0  0  0  0
  -29.0720  -23.9580   20.2580 C   0  0  0  0  0  2  0  0  0  0  0  0
  -28.0670  -25.1230   19.9290 C   0  0  0  0  0  2  0  0  0  0  0  0
  -28.3050  -26.5280   20.2820 O   0  0  0  0  0  0  0  0  0  0  0  0
  -24.5760  -31.9070   23.2810 C   0  0  0  0  0  0  0  0  0  0  0  0
  -27.1870  -27.3710   20.2180 C   0  0  0  0  0  0  0  0  0  0  0  0
  -23.3730  -30.5130   21.6360 C   0  0  0  0  0  3  0  0  0  0  0  0
  -24.8240  -28.9750   20.2110 C   0  0  0  0  0  0  0  0  0  0  0  0
  -25.9140  -30.8260   21.4700 C   0  0  0  0  0  2  0  0  0  0  0  0
  -25.9890  -29.4540   20.8210 C   0  0  0  0  0  0  0  0  0  0  0  0
  -27.1720  -28.6600   20.8280 C   0  0  0  0  0  3  0  0  0  0  0  0
  -25.9980  -26.9540   19.5660 C   0  0  0  0  0  3  0  0  0  0  0  0
  -24.8300  -27.7270   19.5760 C   0  0  0  0  0  3  0  0  0  0  0  0
  -23.5890  -29.8440   20.2540 C   0  0  0  0  0  2  0  0  0  0  0  0
  -24.6390  -31.1000   22.1840 N   0  0  0  0  0  0  0  0  0  0  0  0
  -23.4920  -32.1880   23.8120 O   0  0  0  0  0  0  0  0  0  0  0  0
  -22.7080  -29.4940   22.5910 C   0  0  0  0  0  0  0  0  0  0  0  0
  -21.3830  -29.3170   22.4590 N   0  0  0  0  0  0  0  0  0  0  0  0
  -23.3830  -28.8670   23.4110 O   0  0  0  0  0  0  0  0  0  0  0  0
  -20.8980  -29.8710   21.7680 H   0  0  0  0  0  0  0  0  0  0  0  0
  -18.0000  -28.1420   22.9540 C   0  0  0  0  0  0  0  0  0  0  0  0
  -20.5590  -28.3830   23.2270 C   0  0  0  0  0  3  0  0  0  0  0  0
  -20.6530  -26.9520   22.6510 C   0  0  0  0  0  2  0  0  0  0  0  0
  -19.5510  -26.6370   21.6350 C   0  0  0  0  0  2  0  0  0  0  0  0
  -18.1690  -26.7910   22.2770 C   0  0  0  0  0  2  0  0  0  0  0  0
  -19.1230  -28.8960   23.3860 C   0  0  0  0  0  0  0  0  0  0  0  0
  -18.9110  -30.1600   23.9780 C   0  0  0  0  0  3  0  0  0  0  0  0
  -17.6090  -30.6700   24.1420 C   0  0  0  0  0  3  0  0  0  0  0  0
  -16.5000  -29.9120   23.7260 C   0  0  0  0  0  3  0  0  0  0  0  0
  -16.6960  -28.6490   23.1390 C   0  0  0  0  0  3  0  0  0  0  0  0
  -25.8610  -32.5350   23.9040 C   0  0  0  0  0  3  0  0  0  0  0  0
  -26.3690  -31.7670   25.1870 C   0  0  1  0  0  0  0  0  0  0  0  0
  -25.2690  -31.5410   26.2500 C   0  0  0  0  0  1  0  0  0  0  0  0
  -26.9490  -30.3850   24.8080 C   0  0  0  0  0  1  0  0  0  0  0  0
  -27.5180  -32.5620   25.8500 C   0  0  0  0  0  1  0  0  0  0  0  0
  -25.5570  -33.9350   24.2240 N   0  0  0  0  0  0  0  0  0  0  0  0
  -25.8920  -34.9810   23.4580 C   0  0  0  0  0  0  0  0  0  0  0  0
  -26.5620  -34.8710   22.4270 O   0  0  0  0  0  0  0  0  0  0  0  0
  -24.9610  -34.0970   25.0230 H   0  0  0  0  0  0  0  0  0  0  0  0
  -24.1730  -36.7820   23.0930 C   0  0  0  0  0  1  0  0  0  0  0  0
  -25.4100  -36.3750   23.9080 C   0  0  0  0  0  3  0  0  0  0  0  0
  -27.5460  -37.2550   24.7420 C   0  0  0  0  0  1  0  0  0  0  0  0
  -26.4470  -37.4230   23.7950 N   0  0  0  0  0  0  0  0  0  0  0  0
  -26.0430  -38.3450   23.9390 H   0  0  0  0  0  0  0  0  0  0  0  0
  2  1  1  0
  3  6  2  0
  3  5  1  0
  4  8  1  0
  4  1  2  0
  5  2  2  0
  6  4  1  0
  7  6  1  0
  8  9  2  0
 10  9  1  0
 11 16  1  0
 12 13  1  0
 12 11  1  0
 14 13  1  0
 14 21  1  0
 14 15  1  0
 16 10  1  0
 16 15  1  0
 17 10  2  0
 18 19  2  0
 19 38  1  0
 20 19  1  0
 20 23  1  0
 21 18  1  0
 21 22  1  0
 22 20  2  0
 23 24  1  0
 24 25  2  0
 26 29  1  0
 26 25  1  0
 27 26  2  0
 28 27  1  0
 28 23  2  0
 29 30  1  0
 30 31  1  0
 31 32  2  0
 33 32  1  0
 33 37  1  0
 34 33  2  0
 35 30  2  0
 35 34  1  0
 36 35  1  0
 38 39  1  0
 39 42  1  0
 39 41  1  0
 40 38  2  0
 43 44  1  0
 43 18  1  0
 45 43  1  0
 46  5  1  0
 46 47  1  0
 48 47  1  0
 48 49  1  0
 50 61  2  0
 51 49  1  0
 51 56  1  0
 52 60  1  0
 52 62  1  0
 53 59  1  0
 53 55  1  0
 54 60  1  0
 55 56  2  0
 55 54  1  0
 57 58  1  0
 57 51  2  0
 58 53  2  0
 59 52  1  0
 60 50  1  0
 62 64  2  0
 63 62  1  0
 65 63  1  0
 66 75  2  0
 66 71  1  0
 67 63  1  0
 67 71  1  0
 68 67  1  0
 69 70  1  0
 69 68  1  0
 70 66  1  0
 71 72  2  0
 72 73  1  0
 74 73  2  0
 75 74  1  0
 76 50  1  0
 76 81  1  0
 76 77  1  0
 77 80  1  1
 77 78  1  0
 79 77  1  0
 81 84  1  0
 82 86  1  0
 82 81  1  0
 83 82  2  0
 86 85  1  0
 88 86  1  0
 88 89  1  0
 88 87  1  0
M  ISO  4   9 100  10 100  48 101  49 101
M  END
>  <TORSDO>  (3) 
F 20

>  <SCORE>  (3) 
-14.035

>  <name>  (3) 
2

>  <ligand_id>  (3) 
2

>  <original_smiles>  (3) 
[H]C(C(=O)N1C([H])([H])C([H])([H])C([H])([H])C([H])(n2nc(-c3c([H])c([H])c(Oc4c([H])c([H])c(F)c([H])c4F)c([H])c3[H])c(C(=O)N([H])[H])c2N([H])[H])C1([H])[H])=C([H])c1c([H])c([H])c(C([H])([H])C([H])([H])C([H])([H])Oc2c([H])c([H])c3c(c2[H])C([H])([H])N(C(=O)C([H])(N([H])C(=O)C([H])(N([H])C([H])([H])[H])C([H])([H])[H])C(C([H])([H])[H])(C([H])([H])[H])C([H])([H])[H])C([H])(C(=O)N([H])C2([H])c4c([H])c([H])c([H])c([H])c4C([H])([H])C([H])([H])C2([H])[H])C3([H])[H])c([H])c1C([H])([H])[H]

>  <smiles>  (3) 
[H]C(C(=O)N1C([H])([H])C([H])([H])C([H])([H])C([H])(n2nc(-c3c([H])c([H])c(Oc4c([H])c([H])c(F)c([H])c4F)c([H])c3[H])c(C(=O)N([H])[H])c2N([H])[H])C1([H])[H])=C([H])c1c([H])c([H])c(C([H])([H])C([H])([H])C([H])([H])Oc2c([H])c([H])c3c(c2[H])C([H])([H])N(C(=O)C([H])(N([H])C(=O)C([H])(N([H])C([H])([H])[H])C([H])([H])[H])C(C([H])([H])[H])(C([H])([H])[H])C([H])([H])[H])C([H])(C(=O)N([H])C2([H])c4c([H])c([H])c([H])c([H])c4C([H])([H])C([H])([H])C2([H])[H])C3([H])[H])c([H])c1C([H])([H])[H]

$$$$
3:0:0
     RDKit          3D

 90 98  0  0  1  0  0  0  0  0999 V2000
  -29.6750  -19.8310   18.8220 C   0  0  0  0  0  3  0  0  0  0  0  0
  -29.8530  -18.6080   18.1660 C   0  0  0  0  0  3  0  0  0  0  0  0
  -29.7230  -18.6530   20.9360 C   0  0  0  0  0  3  0  0  0  0  0  0
  -29.5970  -19.9230   20.2230 C   0  0  0  0  0  0  0  0  0  0  0  0
  -29.9710  -17.3880   18.8570 C   0  0  0  0  0  0  0  0  0  0  0  0
  -29.9230  -17.3540   20.2860 C   0  0  0  0  0  0  0  0  0  0  0  0
  -30.0690  -16.1710   17.9480 C   0  0  0  0  0  1  0  0  0  0  0  0
  -30.7250  -14.9360   20.9030 C   0  0  0  0  0  0  0  0  0  0  0  0
  -30.6640  -12.5910   20.0350 C   0  0  0  0  0  2  0  0  0  0  0  0
  -29.8260  -12.4790   18.7390 C   0  0  0  0  0  2  0  0  0  0  0  0
  -28.3290  -12.3440   19.0500 C   0  0  0  0  0  2  0  0  0  0  0  0
  -27.8340  -13.3270   20.1400 C   0  0  0  0  0  3  0  0  0  0  0  0
  -28.7810  -13.3620   21.3590 C   0  0  0  0  0  2  0  0  0  0  0  0
  -30.1270  -13.6970   20.8680 N   0  0  0  0  0  0  0  0  0  0  0  0
  -31.9300  -15.0450   20.6530 O   0  0  0  0  0  0  0  0  0  0  0  0
  -29.9150  -16.0560   21.0170 N   0  0  0  0  0  0  0  0  0  0  0  0
  -29.0420  -15.8550   21.4810 H   0  0  0  0  0  0  0  0  0  0  0  0
  -25.3890  -13.8820   20.6590 C   0  0  0  0  0  0  0  0  0  0  0  0
  -24.3100  -13.0920   20.9510 C   0  0  0  0  0  0  0  0  0  0  0  0
  -24.8010  -11.7520   20.9930 C   0  0  0  0  0  0  0  0  0  0  0  0
  -26.4630  -13.0210   20.5320 N   0  0  0  0  0  0  0  0  0  0  0  0
  -26.1140  -11.7370   20.8030 N   0  0  0  0  0  0  0  0  0  0  0  0
  -24.0870  -10.4780   21.1420 C   0  0  0  0  0  0  0  0  0  0  0  0
  -24.4540   -9.5410   22.1320 C   0  0  0  0  0  3  0  0  0  0  0  0
  -23.7400   -8.3320   22.2690 C   0  0  0  0  0  3  0  0  0  0  0  0
  -22.6490   -8.0500   21.4120 C   0  0  0  0  0  0  0  0  0  0  0  0
  -22.3030   -8.9770   20.4130 C   0  0  0  0  0  3  0  0  0  0  0  0
  -23.0180  -10.1790   20.2760 C   0  0  0  0  0  3  0  0  0  0  0  0
  -21.9130   -6.8910   21.4580 O   0  0  0  0  0  0  0  0  0  0  0  0
  -21.7580   -6.1790   22.6190 C   0  0  0  0  0  0  0  0  0  0  0  0
  -21.1680   -6.7520   23.7680 C   0  0  0  0  0  3  0  0  0  0  0  0
  -20.9660   -5.9680   24.9210 C   0  0  0  0  0  3  0  0  0  0  0  0
  -21.3340   -4.6100   24.9240 C   0  0  0  0  0  0  0  0  0  0  0  0
  -21.9140   -4.0350   23.7780 C   0  0  0  0  0  3  0  0  0  0  0  0
  -22.1240   -4.8180   22.6300 C   0  0  0  0  0  0  0  0  0  0  0  0
  -22.6650   -4.2540   21.5230 F   0  0  0  0  0  0  0  0  0  0  0  0
  -21.1300   -3.8540   26.0280 F   0  0  0  0  0  0  0  0  0  0  0  0
  -22.8880  -13.5470   21.0850 C   0  0  0  0  0  0  0  0  0  0  0  0
  -22.0990  -12.8510   21.8940 N   0  0  0  0  0  0  0  0  0  0  0  0
  -22.4800  -14.5570   20.5120 O   0  0  0  0  0  0  0  0  0  0  0  0
  -22.4440  -12.0390   22.3830 H   0  0  0  0  0  0  0  0  0  0  0  0
  -21.1420  -13.1440   22.0400 H   0  0  0  0  0  0  0  0  0  0  0  0
  -25.5400  -15.2510   20.4680 N   0  0  0  0  0  0  0  0  0  0  0  0
  -24.7490  -15.8850   20.5170 H   0  0  0  0  0  0  0  0  0  0  0  0
  -26.3970  -15.7080   20.1810 H   0  0  0  0  0  0  0  0  0  0  0  0
  -29.3960  -21.3410   20.8130 C   0  0  0  0  0  3  0  0  0  0  0  0
  -29.2130  -22.5450   20.1440 C   0  0  0  0  0  3  0  0  0  0  0  0
  -29.1060  -24.0350   20.6740 C   0  0  0  0  0  3  0  0  0  0  0  0
  -28.2800  -25.1070   19.8020 C   0  0  0  0  0  3  0  0  0  0  0  0
  -28.3860  -26.5750   20.0730 O   0  0  0  0  0  0  0  0  0  0  0  0
  -24.6360  -31.9350   23.1600 C   0  0  0  0  0  0  0  0  0  0  0  0
  -27.2540  -27.4210   20.0120 C   0  0  0  0  0  0  0  0  0  0  0  0
  -23.4250  -30.5360   21.5310 C   0  0  0  0  0  3  0  0  0  0  0  0
  -24.8720  -29.0220   20.0530 C   0  0  0  0  0  0  0  0  0  0  0  0
  -25.9600  -30.8800   21.3090 C   0  0  0  0  0  2  0  0  0  0  0  0
  -26.0440  -29.5090   20.6480 C   0  0  0  0  0  0  0  0  0  0  0  0
  -27.2350  -28.7200   20.6190 C   0  0  0  0  0  3  0  0  0  0  0  0
  -26.0660  -27.0120   19.3650 C   0  0  0  0  0  3  0  0  0  0  0  0
  -24.8890  -27.7850   19.3940 C   0  0  0  0  0  3  0  0  0  0  0  0
  -23.6270  -29.8830   20.1380 C   0  0  0  0  0  2  0  0  0  0  0  0
  -24.6960  -31.1350   22.0550 N   0  0  0  0  0  0  0  0  0  0  0  0
  -23.5580  -32.1920   23.7150 O   0  0  0  0  0  0  0  0  0  0  0  0
  -22.7920  -29.4990   22.4950 C   0  0  0  0  0  0  0  0  0  0  0  0
  -21.4670  -29.3020   22.3880 N   0  0  0  0  0  0  0  0  0  0  0  0
  -23.4930  -28.8770   23.2960 O   0  0  0  0  0  0  0  0  0  0  0  0
  -20.9600  -29.8700   21.7250 H   0  0  0  0  0  0  0  0  0  0  0  0
  -18.1240  -28.0070   22.9170 C   0  0  0  0  0  0  0  0  0  0  0  0
  -20.6760  -28.3360   23.1560 C   0  0  0  0  0  3  0  0  0  0  0  0
  -20.8170  -26.9100   22.5710 C   0  0  0  0  0  2  0  0  0  0  0  0
  -19.7030  -26.5400   21.5870 C   0  0  0  0  0  2  0  0  0  0  0  0
  -18.3300  -26.6540   22.2580 C   0  0  0  0  0  2  0  0  0  0  0  0
  -19.2240  -28.8010   23.3310 C   0  0  0  0  0  0  0  0  0  0  0  0
  -18.9750  -30.0590   23.9210 C   0  0  0  0  0  3  0  0  0  0  0  0
  -17.6600  -30.5270   24.0940 C   0  0  0  0  0  3  0  0  0  0  0  0
  -16.5730  -29.7340   23.6920 C   0  0  0  0  0  3  0  0  0  0  0  0
  -16.8070  -28.4750   23.1110 C   0  0  0  0  0  3  0  0  0  0  0  0
  -25.9190  -32.5840   23.7650 C   0  0  0  0  0  3  0  0  0  0  0  0
  -26.4730  -31.8100   25.0270 C   0  0  1  0  0  0  0  0  0  0  0  0
  -25.4040  -31.5500   26.1150 C   0  0  0  0  0  1  0  0  0  0  0  0
  -27.0660  -30.4450   24.6120 C   0  0  0  0  0  1  0  0  0  0  0  0
  -27.6270  -32.6160   25.6690 C   0  0  0  0  0  1  0  0  0  0  0  0
  -25.5980  -33.9750   24.1130 N   0  0  0  0  0  0  0  0  0  0  0  0
  -25.9290  -35.0440   23.3740 C   0  0  0  0  0  0  0  0  0  0  0  0
  -26.6080  -34.9600   22.3460 O   0  0  0  0  0  0  0  0  0  0  0  0
  -25.0030  -34.1160   24.9170 H   0  0  0  0  0  0  0  0  0  0  0  0
  -24.2160  -36.8480   23.0030 C   0  0  0  0  0  1  0  0  0  0  0  0
  -25.4280  -36.4220   23.8460 C   0  0  0  0  0  3  0  0  0  0  0  0
  -27.5340  -37.2850   24.7680 C   0  0  0  0  0  1  0  0  0  0  0  0
  -26.4640  -37.4750   23.7900 N   0  0  0  0  0  0  0  0  0  0  0  0
  -26.0570  -38.3930   23.9410 H   0  0  0  0  0  0  0  0  0  0  0  0
  1  4  1  0
  2  1  2  0
  2  5  1  0
  4 46  1  0
  4  3  2  0
  5  6  2  0
  6  3  1  0
  6 16  1  0
  7  5  1  0
  8 16  1  0
  9 14  1  0
 10 11  1  0
 10  9  1  0
 12 11  1  0
 12 21  1  0
 12 13  1  0
 14  8  1  0
 14 13  1  0
 15  8  2  0
 16 17  1  0
 18 19  2  0
 19 20  1  0
 19 38  1  0
 20 23  1  0
 21 18  1  0
 21 22  1  0
 22 20  2  0
 23 24  1  0
 24 25  2  0
 26 29  1  0
 26 25  1  0
 27 26  2  0
 28 27  1  0
 28 23  2  0
 29 30  1  0
 30 35  2  0
 30 31  1  0
 31 32  2  0
 32 33  1  0
 33 37  1  0
 34 33  2  0
 35 34  1  0
 36 35  1  0
 38 39  1  0
 39 42  1  0
 39 41  1  0
 40 38  2  0
 43 44  1  0
 43 18  1  0
 45 43  1  0
 47 48  1  0
 47 46  2  0
 49 50  1  0
 49 48  2  0
 51 62  2  0
 52 50  1  0
 52 57  1  0
 53 61  1  0
 53 63  1  0
 54 60  1  0
 54 56  1  0
 55 61  1  0
 56 55  1  0
 57 56  2  0
 58 59  1  0
 58 52  2  0
 59 54  2  0
 60 53  1  0
 61 51  1  0
 63 65  2  0
 64 63  1  0
 66 64  1  0
 67 76  2  0
 67 72  1  0
 68 64  1  0
 68 72  1  0
 69 68  1  0
 70 71  1  0
 70 69  1  0
 71 67  1  0
 72 73  2  0
 73 74  1  0
 75 74  2  0
 76 75  1  0
 77 51  1  0
 77 82  1  0
 77 78  1  0
 78 81  1  1
 78 79  1  0
 80 78  1  0
 82 85  1  0
 83 87  1  0
 83 82  1  0
 84 83  2  0
 87 86  1  0
 89 87  1  0
 89 90  1  0
 89 88  1  0
M  ISO  4   8 100  16 100  49 101  50 101
M  END
>  <TORSDO>  (4) 
F 19

>  <SCORE>  (4) 
-13.057

>  <name>  (4) 
3

>  <ligand_id>  (4) 
3

>  <original_smiles>  (4) 
[H]C(=C([H])C([H])([H])C([H])([H])Oc1c([H])c([H])c2c(c1[H])C([H])([H])N(C(=O)C([H])(N([H])C(=O)C([H])(N([H])C([H])([H])[H])C([H])([H])[H])C(C([H])([H])[H])(C([H])([H])[H])C([H])([H])[H])C([H])(C(=O)N([H])C1([H])c3c([H])c([H])c([H])c([H])c3C([H])([H])C([H])([H])C1([H])[H])C2([H])[H])c1c([H])c([H])c(C([H])([H])[H])c(N([H])C(=O)N2C([H])([H])C([H])([H])C([H])([H])C([H])(n3nc(-c4c([H])c([H])c(Oc5c([H])c([H])c(F)c([H])c5F)c([H])c4[H])c(C(=O)N([H])[H])c3N([H])[H])C2([H])[H])c1[H]

>  <smiles>  (4) 
[H]C(=C([H])C([H])([H])C([H])([H])Oc1c([H])c([H])c2c(c1[H])C([H])([H])N(C(=O)C([H])(N([H])C(=O)C([H])(N([H])C([H])([H])[H])C([H])([H])[H])C(C([H])([H])[H])(C([H])([H])[H])C([H])([H])[H])C([H])(C(=O)N([H])C1([H])c3c([H])c([H])c([H])c([H])c3C([H])([H])C([H])([H])C1([H])[H])C2([H])[H])c1c([H])c([H])c(C([H])([H])[H])c(N([H])C(=O)N2C([H])([H])C([H])([H])C([H])([H])C([H])(n3nc(-c4c([H])c([H])c(Oc5c([H])c([H])c(F)c([H])c5F)c([H])c4[H])c(C(=O)N([H])[H])c3N([H])[H])C2([H])[H])c1[H]

$$$$
4:0:0
     RDKit          3D

 94102  0  0  1  0  0  0  0  0999 V2000
  -30.6530  -19.0680   19.1060 C   0  0  0  0  0  3  0  0  0  0  0  0
  -31.1880  -17.7640   19.2640 C   0  0  0  0  0  3  0  0  0  0  0  0
  -29.6570  -18.9040   21.2910 C   0  0  0  0  0  3  0  0  0  0  0  0
  -29.8970  -19.6670   20.1330 C   0  0  0  0  0  0  0  0  0  0  0  0
  -30.9760  -16.9870   20.4370 C   0  0  0  0  0  0  0  0  0  0  0  0
  -30.1750  -17.5950   21.4610 C   0  0  0  0  0  0  0  0  0  0  0  0
  -31.6420  -15.6260   20.6040 C   0  0  0  0  0  0  0  0  0  0  0  0
  -32.0710  -15.2400   21.7360 N   0  0  0  0  0  0  0  0  0  0  0  0
  -31.8890  -15.9440   22.4390 H   0  0  0  0  0  0  0  0  0  0  0  0
  -31.8310  -14.7200   19.3710 C   0  0  0  0  0  0  0  0  0  0  0  0
  -31.1880  -12.6730   18.1290 C   0  0  0  0  0  2  0  0  0  0  0  0
  -30.0750  -12.9730   17.1060 C   0  0  0  0  0  2  0  0  0  0  0  0
  -28.6880  -12.8550   17.7620 C   0  0  0  0  0  2  0  0  0  0  0  0
  -28.6010  -13.6490   19.0910 C   0  0  0  0  0  3  0  0  0  0  0  0
  -29.8000  -13.3270   20.0080 C   0  0  0  0  0  2  0  0  0  0  0  0
  -31.0410  -13.6060   19.2630 N   0  0  0  0  0  0  0  0  0  0  0  0
  -32.7450  -14.9570   18.5720 O   0  0  0  0  0  0  0  0  0  0  0  0
  -26.4340  -14.3430   20.2910 C   0  0  0  0  0  0  0  0  0  0  0  0
  -25.3730  -13.6150   20.7590 C   0  0  0  0  0  0  0  0  0  0  0  0
  -25.6830  -12.2480   20.4880 C   0  0  0  0  0  0  0  0  0  0  0  0
  -27.3290  -13.4210   19.7720 N   0  0  0  0  0  0  0  0  0  0  0  0
  -26.8890  -12.1480   19.9420 N   0  0  0  0  0  0  0  0  0  0  0  0
  -24.8780  -11.0330   20.6660 C   0  0  0  0  0  0  0  0  0  0  0  0
  -25.3280   -9.9620   21.4710 C   0  0  0  0  0  3  0  0  0  0  0  0
  -24.5280   -8.8100   21.6380 C   0  0  0  0  0  3  0  0  0  0  0  0
  -23.2660   -8.7230   21.0020 C   0  0  0  0  0  0  0  0  0  0  0  0
  -22.8350   -9.7810   20.1850 C   0  0  0  0  0  3  0  0  0  0  0  0
  -23.6330  -10.9250   20.0140 C   0  0  0  0  0  3  0  0  0  0  0  0
  -22.4330   -7.6320   21.0880 O   0  0  0  0  0  0  0  0  0  0  0  0
  -22.2500   -6.9570   22.2680 C   0  0  0  0  0  0  0  0  0  0  0  0
  -21.7970   -7.6060   23.4370 C   0  0  0  0  0  3  0  0  0  0  0  0
  -21.5570   -6.8600   24.6080 C   0  0  0  0  0  3  0  0  0  0  0  0
  -21.7600   -5.4670   24.6100 C   0  0  0  0  0  0  0  0  0  0  0  0
  -22.2080   -4.8180   23.4470 C   0  0  0  0  0  3  0  0  0  0  0  0
  -22.4500   -5.5610   22.2790 C   0  0  0  0  0  0  0  0  0  0  0  0
  -22.8620   -4.9270   21.1520 F   0  0  0  0  0  0  0  0  0  0  0  0
  -21.5230   -4.7490   25.7330 F   0  0  0  0  0  0  0  0  0  0  0  0
  -24.1000  -14.1620   21.3370 C   0  0  0  0  0  0  0  0  0  0  0  0
  -23.5050  -13.4500   22.2890 N   0  0  0  0  0  0  0  0  0  0  0  0
  -23.6510  -15.2490   20.9800 O   0  0  0  0  0  0  0  0  0  0  0  0
  -23.8850  -12.5690   22.6010 H   0  0  0  0  0  0  0  0  0  0  0  0
  -22.6570  -13.7980   22.7140 H   0  0  0  0  0  0  0  0  0  0  0  0
  -26.7000  -15.7080   20.2490 N   0  0  0  0  0  0  0  0  0  0  0  0
  -26.0320  -16.4000   20.5720 H   0  0  0  0  0  0  0  0  0  0  0  0
  -27.5310  -16.1230   19.8490 H   0  0  0  0  0  0  0  0  0  0  0  0
  -29.2240  -20.9840   19.9890 C   0  0  0  0  0  3  0  0  0  0  0  0
  -29.7030  -22.1800   20.4130 C   0  0  0  0  0  3  0  0  0  0  0  0
  -29.6170  -24.5950   20.7660 C   0  0  0  0  0  3  0  0  0  0  0  0
  -28.9660  -23.4550   20.4250 C   0  0  0  0  0  0  0  0  0  0  0  0
  -27.4710  -23.5020   20.1400 C   0  0  0  0  0  1  0  0  0  0  0  0
  -29.0110  -25.9790   21.0500 C   0  0  0  0  0  2  0  0  0  0  0  0
  -28.9230  -26.8590   19.9210 O   0  0  0  0  0  0  0  0  0  0  0  0
  -24.9450  -31.6650   23.3920 C   0  0  0  0  0  0  0  0  0  0  0  0
  -27.7800  -27.6270   19.9480 C   0  0  0  0  0  0  0  0  0  0  0  0
  -23.8180  -30.4200   21.5760 C   0  0  0  0  0  3  0  0  0  0  0  0
  -25.3500  -29.0690   20.0430 C   0  0  0  0  0  0  0  0  0  0  0  0
  -26.3380  -30.8500   21.4910 C   0  0  0  0  0  2  0  0  0  0  0  0
  -26.4770  -29.5510   20.7210 C   0  0  0  0  0  0  0  0  0  0  0  0
  -27.6950  -28.8340   20.6810 C   0  0  0  0  0  3  0  0  0  0  0  0
  -26.6420  -27.1650   19.2560 C   0  0  0  0  0  3  0  0  0  0  0  0
  -25.4270  -27.8710   19.3110 C   0  0  0  0  0  3  0  0  0  0  0  0
  -24.0810  -29.8860   20.1410 C   0  0  0  0  0  2  0  0  0  0  0  0
  -25.0500  -30.9860   22.2150 N   0  0  0  0  0  0  0  0  0  0  0  0
  -23.8440  -31.8590   23.9240 O   0  0  0  0  0  0  0  0  0  0  0  0
  -23.1620  -29.2920   22.4040 C   0  0  0  0  0  0  0  0  0  0  0  0
  -21.8450  -29.1060   22.2250 N   0  0  0  0  0  0  0  0  0  0  0  0
  -23.8380  -28.5930   23.1650 O   0  0  0  0  0  0  0  0  0  0  0  0
  -21.3600  -29.7250   21.5880 H   0  0  0  0  0  0  0  0  0  0  0  0
  -18.4760  -27.8350   22.5320 C   0  0  0  0  0  0  0  0  0  0  0  0
  -21.0260  -28.0790   22.8710 C   0  0  0  0  0  3  0  0  0  0  0  0
  -21.1510  -26.7260   22.1330 C   0  0  0  0  0  2  0  0  0  0  0  0
  -20.0670  -26.5150   21.0720 C   0  0  0  0  0  2  0  0  0  0  0  0
  -18.6740  -26.5740   21.7080 C   0  0  0  0  0  2  0  0  0  0  0  0
  -19.5820  -28.5510   23.0650 C   0  0  0  0  0  0  0  0  0  0  0  0
  -19.3450  -29.7340   23.7970 C   0  0  0  0  0  3  0  0  0  0  0  0
  -18.0340  -30.2060   23.9960 C   0  0  0  0  0  3  0  0  0  0  0  0
  -16.9420  -29.4880   23.4770 C   0  0  0  0  0  3  0  0  0  0  0  0
  -17.1640  -28.3010   22.7530 C   0  0  0  0  0  3  0  0  0  0  0  0
  -26.1980  -32.2540   24.1110 C   0  0  0  0  0  3  0  0  0  0  0  0
  -25.8660  -33.6230   24.5270 N   0  0  0  0  0  0  0  0  0  0  0  0
  -26.2130  -34.7280   23.8530 C   0  0  0  0  0  0  0  0  0  0  0  0
  -26.9190  -34.7020   22.8410 O   0  0  0  0  0  0  0  0  0  0  0  0
  -25.2340  -33.7140   25.3080 H   0  0  0  0  0  0  0  0  0  0  0  0
  -24.4730  -36.5240   23.5730 C   0  0  0  0  0  1  0  0  0  0  0  0
  -25.6980  -36.0780   24.3870 C   0  0  0  0  0  3  0  0  0  0  0  0
  -27.7940  -36.9310   25.3430 C   0  0  0  0  0  1  0  0  0  0  0  0
  -26.7210  -37.1460   24.3730 N   0  0  0  0  0  0  0  0  0  0  0  0
  -26.2990  -38.0500   24.5640 H   0  0  0  0  0  0  0  0  0  0  0  0
  -26.6670  -31.3920   25.3460 C   0  0  1  0  0  0  0  0  0  0  0  0
  -25.5320  -31.0660   26.3440 C   0  0  0  0  0  1  0  0  0  0  0  0
  -27.2820  -30.0540   24.8750 C   0  0  0  0  0  1  0  0  0  0  0  0
  -27.7830  -32.1410   26.1120 C   0  0  0  0  0  1  0  0  0  0  0  0
  -30.5730  -17.4990   23.9760 C   0  0  0  0  0  1  0  0  0  0  0  0
  -29.8130  -16.9090   22.7780 C   0  0  0  0  0  2  0  0  0  0  0  0
  1  2  2  0
  1  4  1  0
  2  5  1  0
  3  6  1  0
  4  3  2  0
  5  7  1  0
  5  6  2  0
  6 94  1  0
  7  8  2  0
  8  9  1  0
 10  7  1  0
 11 16  1  0
 12 13  1  0
 12 11  1  0
 14 13  1  0
 14 21  1  0
 14 15  1  0
 16 10  1  0
 16 15  1  0
 17 10  2  0
 18 19  2  0
 19 38  1  0
 20 23  1  0
 20 19  1  0
 21 22  1  0
 21 18  1  0
 22 20  2  0
 23 24  1  0
 24 25  2  0
 26 29  1  0
 26 25  1  0
 27 26  2  0
 28 27  1  0
 28 23  2  0
 29 30  1  0
 30 35  2  0
 30 31  1  0
 31 32  2  0
 32 33  1  0
 33 37  1  0
 34 33  2  0
 35 34  1  0
 36 35  1  0
 38 39  1  0
 39 41  1  0
 39 42  1  0
 40 38  2  0
 43 18  1  0
 43 44  1  0
 45 43  1  0
 46  4  1  0
 46 47  2  0
 47 49  1  0
 48 51  1  0
 49 48  2  0
 50 49  1  0
 52 54  1  0
 52 51  1  0
 53 64  2  0
 54 59  1  0
 55 63  1  0
 55 65  1  0
 56 62  1  0
 56 58  1  0
 57 63  1  0
 58 57  1  0
 59 58  2  0
 60 61  1  0
 60 54  2  0
 61 56  2  0
 62 55  1  0
 63 53  1  0
 65 67  2  0
 66 65  1  0
 68 66  1  0
 69 78  2  0
 69 74  1  0
 70 66  1  0
 70 74  1  0
 71 70  1  0
 72 73  1  0
 72 71  1  0
 73 69  1  0
 74 75  2  0
 75 76  1  0
 77 76  2  0
 78 77  1  0
 79 53  1  0
 79 80  1  0
 79 89  1  0
 80 83  1  0
 81 85  1  0
 81 80  1  0
 82 81  2  0
 85 84  1  0
 87 85  1  0
 87 88  1  0
 87 86  1  0
 89 92  1  1
 89 90  1  0
 91 89  1  0
 94 93  1  0
M  ISO  4   7 100  10 100  51 101  52 101
M  END
>  <TORSDO>  (5) 
F 21

>  <SCORE>  (5) 
-7.513

>  <name>  (5) 
4

>  <ligand_id>  (5) 
4

>  <original_smiles>  (5) 
[H]N=C(C(=O)N1C([H])([H])C([H])([H])C([H])([H])C([H])(n2nc(-c3c([H])c([H])c(Oc4c([H])c([H])c(F)c([H])c4F)c([H])c3[H])c(C(=O)N([H])[H])c2N([H])[H])C1([H])[H])c1c([H])c([H])c(C([H])=C([H])C(=C([H])C([H])([H])Oc2c([H])c([H])c3c(c2[H])C([H])([H])N(C(=O)C([H])(N([H])C(=O)C([H])(N([H])C([H])([H])[H])C([H])([H])[H])C(C([H])([H])[H])(C([H])([H])[H])C([H])([H])[H])C([H])(C(=O)N([H])C2([H])c4c([H])c([H])c([H])c([H])c4C([H])([H])C([H])([H])C2([H])[H])C3([H])[H])C([H])([H])[H])c([H])c1C([H])([H])C([H])([H])[H]

>  <smiles>  (5) 
[H]N=C(C(=O)N1C([H])([H])C([H])([H])C([H])([H])C([H])(n2nc(-c3c([H])c([H])c(Oc4c([H])c([H])c(F)c([H])c4F)c([H])c3[H])c(C(=O)N([H])[H])c2N([H])[H])C1([H])[H])c1c([H])c([H])c(C([H])=C([H])C(=C([H])C([H])([H])Oc2c([H])c([H])c3c(c2[H])C([H])([H])N(C(=O)C([H])(N([H])C(=O)C([H])(N([H])C([H])([H])[H])C([H])([H])[H])C(C([H])([H])[H])(C([H])([H])[H])C([H])([H])[H])C([H])(C(=O)N([H])C2([H])c4c([H])c([H])c([H])c([H])c4C([H])([H])C([H])([H])C2([H])[H])C3([H])[H])C([H])([H])[H])c([H])c1C([H])([H])C([H])([H])[H]

$$$$
5:0:0
     RDKit          3D

 91 99  0  0  1  0  0  0  0  0999 V2000
  -28.9290  -22.0040   21.2180 C   0  0  0  0  0  0  0  0  0  0  0  0
  -27.8740  -22.1950   21.8970 N   0  0  0  0  0  0  0  0  0  0  0  0
  -27.4050  -21.3300   22.1360 H   0  0  0  0  0  0  0  0  0  0  0  0
  -30.7670  -19.1110   19.4410 C   0  0  0  0  0  3  0  0  0  0  0  0
  -28.9950  -18.1800   20.8110 C   0  0  0  0  0  3  0  0  0  0  0  0
  -30.4650  -20.4020   19.9290 C   0  0  0  0  0  3  0  0  0  0  0  0
  -28.6990  -19.4710   21.3040 C   0  0  0  0  0  3  0  0  0  0  0  0
  -30.0030  -17.9990   19.8450 C   0  0  0  0  0  0  0  0  0  0  0  0
  -29.3890  -20.6180   20.8310 C   0  0  0  0  0  0  0  0  0  0  0  0
  -29.9190  -16.8510   18.9400 C   0  0  0  0  0  3  0  0  0  0  0  0
  -30.2910  -15.5530   18.9370 C   0  0  0  0  0  3  0  0  0  0  0  0
  -31.0800  -14.7160   19.8440 C   0  0  0  0  0  0  0  0  0  0  0  0
  -30.8110  -12.4210   19.0700 C   0  0  0  0  0  2  0  0  0  0  0  0
  -29.8590  -12.4710   17.8520 C   0  0  0  0  0  2  0  0  0  0  0  0
  -28.3710  -12.5170   18.2760 C   0  0  0  0  0  2  0  0  0  0  0  0
  -28.0570  -13.4310   19.4950 C   0  0  0  0  0  3  0  0  0  0  0  0
  -29.1420  -13.3140   20.5940 C   0  0  0  0  0  2  0  0  0  0  0  0
  -30.4690  -13.5100   19.9930 N   0  0  0  0  0  0  0  0  0  0  0  0
  -32.3010  -14.8570   19.8660 O   0  0  0  0  0  0  0  0  0  0  0  0
  -25.7070  -14.1290   20.2670 C   0  0  0  0  0  0  0  0  0  0  0  0
  -24.6160  -13.3950   20.6530 C   0  0  0  0  0  0  0  0  0  0  0  0
  -25.0290  -12.0290   20.6180 C   0  0  0  0  0  0  0  0  0  0  0  0
  -26.7120  -13.2070   20.0190 N   0  0  0  0  0  0  0  0  0  0  0  0
  -26.3140  -11.9410   20.2950 N   0  0  0  0  0  0  0  0  0  0  0  0
  -24.2610  -10.7940   20.8150 C   0  0  0  0  0  0  0  0  0  0  0  0
  -24.6570   -9.8240   21.7620 C   0  0  0  0  0  3  0  0  0  0  0  0
  -23.8950   -8.6510   21.9460 C   0  0  0  0  0  3  0  0  0  0  0  0
  -22.7200   -8.4430   21.1840 C   0  0  0  0  0  0  0  0  0  0  0  0
  -22.3440   -9.3990   20.2260 C   0  0  0  0  0  3  0  0  0  0  0  0
  -23.1070  -10.5650   20.0400 C   0  0  0  0  0  3  0  0  0  0  0  0
  -21.9310   -7.3220   21.2780 O   0  0  0  0  0  0  0  0  0  0  0  0
  -21.8230   -6.6150   22.4480 C   0  0  0  0  0  0  0  0  0  0  0  0
  -21.3760   -7.2200   23.6450 C   0  0  0  0  0  3  0  0  0  0  0  0
  -21.2170   -6.4410   24.8090 C   0  0  0  0  0  3  0  0  0  0  0  0
  -21.4900   -5.0600   24.7760 C   0  0  0  0  0  0  0  0  0  0  0  0
  -21.9270   -4.4570   23.5840 C   0  0  0  0  0  3  0  0  0  0  0  0
  -22.0910   -5.2320   22.4230 C   0  0  0  0  0  0  0  0  0  0  0  0
  -22.4950   -4.6420   21.2720 F   0  0  0  0  0  0  0  0  0  0  0  0
  -21.3260   -4.3110   25.8910 F   0  0  0  0  0  0  0  0  0  0  0  0
  -23.2400  -13.9260   20.9410 C   0  0  0  0  0  0  0  0  0  0  0  0
  -22.5060  -13.2640   21.8290 N   0  0  0  0  0  0  0  0  0  0  0  0
  -22.8280  -14.9570   20.4140 O   0  0  0  0  0  0  0  0  0  0  0  0
  -22.8540  -12.4300   22.2770 H   0  0  0  0  0  0  0  0  0  0  0  0
  -21.5840  -13.6020   22.0680 H   0  0  0  0  0  0  0  0  0  0  0  0
  -25.9200  -15.4930   20.0860 N   0  0  0  0  0  0  0  0  0  0  0  0
  -25.1830  -16.1800   20.2070 H   0  0  0  0  0  0  0  0  0  0  0  0
  -26.7880  -15.8970   19.7570 H   0  0  0  0  0  0  0  0  0  0  0  0
  -29.7560  -23.2160   20.7520 C   0  0  0  0  0  2  0  0  0  0  0  0
  -29.2320  -24.6460   21.1050 C   0  0  0  0  0  2  0  0  0  0  0  0
  -28.4720  -25.3440   19.9520 C   0  0  0  0  0  2  0  0  0  0  0  0
  -28.4460  -26.7690   20.1620 O   0  0  0  0  0  0  0  0  0  0  0  0
  -24.5830  -31.8850   23.1990 C   0  0  0  0  0  0  0  0  0  0  0  0
  -27.2500  -27.4640   20.1160 C   0  0  0  0  0  0  0  0  0  0  0  0
  -23.3850  -30.4940   21.5420 C   0  0  0  0  0  3  0  0  0  0  0  0
  -24.8470  -28.9670   20.1130 C   0  0  0  0  0  0  0  0  0  0  0  0
  -25.9100  -30.8550   21.3600 C   0  0  0  0  0  2  0  0  0  0  0  0
  -25.9980  -29.4860   20.7170 C   0  0  0  0  0  0  0  0  0  0  0  0
  -27.1940  -28.7370   20.7260 C   0  0  0  0  0  3  0  0  0  0  0  0
  -26.0840  -26.9700   19.4840 C   0  0  0  0  0  3  0  0  0  0  0  0
  -24.8830  -27.7030   19.4990 C   0  0  0  0  0  3  0  0  0  0  0  0
  -23.6010  -29.8270   20.1570 C   0  0  0  0  0  2  0  0  0  0  0  0
  -24.6430  -31.0950   22.0900 N   0  0  0  0  0  0  0  0  0  0  0  0
  -23.5000  -32.1490   23.7390 O   0  0  0  0  0  0  0  0  0  0  0  0
  -22.7370  -29.4620   22.4910 C   0  0  0  0  0  0  0  0  0  0  0  0
  -21.4130  -29.2820   22.3650 N   0  0  0  0  0  0  0  0  0  0  0  0
  -23.4210  -28.8260   23.2950 O   0  0  0  0  0  0  0  0  0  0  0  0
  -20.9210  -29.8520   21.6890 H   0  0  0  0  0  0  0  0  0  0  0  0
  -18.0340  -28.1030   22.8650 C   0  0  0  0  0  0  0  0  0  0  0  0
  -20.5950  -28.3370   23.1250 C   0  0  0  0  0  3  0  0  0  0  0  0
  -20.6820  -26.9160   22.5220 C   0  0  0  0  0  2  0  0  0  0  0  0
  -19.5700  -26.6190   21.5110 C   0  0  0  0  0  2  0  0  0  0  0  0
  -18.1940  -26.7640   22.1670 C   0  0  0  0  0  2  0  0  0  0  0  0
  -19.1610  -28.8500   23.3010 C   0  0  0  0  0  0  0  0  0  0  0  0
  -18.9560  -30.1080   23.9100 C   0  0  0  0  0  3  0  0  0  0  0  0
  -17.6560  -30.6140   24.0910 C   0  0  0  0  0  3  0  0  0  0  0  0
  -16.5430  -29.8640   23.6720 C   0  0  0  0  0  3  0  0  0  0  0  0
  -16.7340  -28.6110   23.0640 C   0  0  0  0  0  3  0  0  0  0  0  0
  -25.8650  -32.5120   23.8290 C   0  0  0  0  0  3  0  0  0  0  0  0
  -25.5580  -33.9090   24.1590 N   0  0  0  0  0  0  0  0  0  0  0  0
  -25.9040  -34.9630   23.4100 C   0  0  0  0  0  0  0  0  0  0  0  0
  -26.5930  -34.8620   22.3910 O   0  0  0  0  0  0  0  0  0  0  0  0
  -24.9550  -34.0610   24.9550 H   0  0  0  0  0  0  0  0  0  0  0  0
  -24.1980  -36.7680   23.0150 C   0  0  0  0  0  1  0  0  0  0  0  0
  -25.4100  -36.3510   23.8640 C   0  0  0  0  0  3  0  0  0  0  0  0
  -27.5220  -37.2190   24.7650 C   0  0  0  0  0  1  0  0  0  0  0  0
  -26.4490  -37.4000   23.7910 N   0  0  0  0  0  0  0  0  0  0  0  0
  -26.0450  -38.3210   23.9280 H   0  0  0  0  0  0  0  0  0  0  0  0
  -26.3740  -31.7360   25.1070 C   0  0  1  0  0  0  0  0  0  0  0  0
  -25.2760  -31.4940   26.1690 C   0  0  0  0  0  1  0  0  0  0  0  0
  -26.9600  -30.3620   24.7090 C   0  0  0  0  0  1  0  0  0  0  0  0
  -27.5190  -32.5270   25.7790 C   0  0  0  0  0  1  0  0  0  0  0  0
  1  2  2  0
  2  3  1  0
  4  8  2  0
  4  6  1  0
  5  7  2  0
  6  9  2  0
  8  5  1  0
  9  1  1  0
  9  7  1  0
 10  8  1  0
 11 10  2  0
 11 12  1  0
 12 19  2  0
 12 18  1  0
 13 18  1  0
 14 15  1  0
 14 13  1  0
 16 15  1  0
 16 23  1  0
 16 17  1  0
 18 17  1  0
 20 21  2  0
 21 40  1  0
 22 21  1  0
 22 25  1  0
 23 20  1  0
 23 24  1  0
 24 22  2  0
 25 26  1  0
 26 27  2  0
 28 31  1  0
 28 27  1  0
 29 28  2  0
 30 29  1  0
 30 25  2  0
 31 32  1  0
 32 33  1  0
 33 34  2  0
 35 34  1  0
 35 39  1  0
 36 35  2  0
 37 32  2  0
 37 36  1  0
 38 37  1  0
 40 41  1  0
 41 44  1  0
 41 43  1  0
 42 40  2  0
 45 46  1  0
 45 20  1  0
 47 45  1  0
 48 49  1  0
 48  1  1  0
 50 51  1  0
 50 49  1  0
 52 63  2  0
 53 51  1  0
 53 58  1  0
 54 62  1  0
 54 64  1  0
 55 61  1  0
 55 57  1  0
 56 62  1  0
 57 58  2  0
 57 56  1  0
 59 60  1  0
 59 53  2  0
 60 55  2  0
 61 54  1  0
 62 52  1  0
 64 66  2  0
 65 64  1  0
 67 65  1  0
 68 77  2  0
 68 73  1  0
 69 65  1  0
 69 73  1  0
 70 69  1  0
 71 72  1  0
 71 70  1  0
 72 68  1  0
 73 74  2  0
 74 75  1  0
 76 75  2  0
 77 76  1  0
 78 52  1  0
 78 79  1  0
 78 88  1  0
 79 82  1  0
 80 84  1  0
 80 79  1  0
 81 80  2  0
 84 83  1  0
 86 84  1  0
 86 87  1  0
 86 85  1  0
 88 91  1  1
 88 89  1  0
 90 88  1  0
M  ISO  4  11 100  12 100  50 101  51 101
M  END
>  <TORSDO>  (6) 
F 21

>  <SCORE>  (6) 
-12.665

>  <name>  (6) 
5

>  <ligand_id>  (6) 
5

>  <original_smiles>  (6) 
[H]N=C(c1c([H])c([H])c(C([H])=C([H])C(=O)N2C([H])([H])C([H])([H])C([H])([H])C([H])(n3nc(-c4c([H])c([H])c(Oc5c([H])c([H])c(F)c([H])c5F)c([H])c4[H])c(C(=O)N([H])[H])c3N([H])[H])C2([H])[H])c([H])c1[H])C([H])([H])C([H])([H])C([H])([H])Oc1c([H])c([H])c2c(c1[H])C([H])([H])N(C(=O)C([H])(N([H])C(=O)C([H])(N([H])C([H])([H])[H])C([H])([H])[H])C(C([H])([H])[H])(C([H])([H])[H])C([H])([H])[H])C([H])(C(=O)N([H])C1([H])c3c([H])c([H])c([H])c([H])c3C([H])([H])C([H])([H])C1([H])[H])C2([H])[H]

>  <smiles>  (6) 
[H]N=C(c1c([H])c([H])c(C([H])=C([H])C(=O)N2C([H])([H])C([H])([H])C([H])([H])C([H])(n3nc(-c4c([H])c([H])c(Oc5c([H])c([H])c(F)c([H])c5F)c([H])c4[H])c(C(=O)N([H])[H])c3N([H])[H])C2([H])[H])c([H])c1[H])C([H])([H])C([H])([H])C([H])([H])Oc1c([H])c([H])c2c(c1[H])C([H])([H])N(C(=O)C([H])(N([H])C(=O)C([H])(N([H])C([H])([H])[H])C([H])([H])[H])C(C([H])([H])[H])(C([H])([H])[H])C([H])([H])[H])C([H])(C(=O)N([H])C1([H])c3c([H])c([H])c([H])c([H])c3C([H])([H])C([H])([H])C1([H])[H])C2([H])[H]

$$$$
6:0:0
     RDKit          3D

 88 96  0  0  1  0  0  0  0  0999 V2000
  -30.3030  -20.4670   19.3870 C   0  0  0  0  0  3  0  0  0  0  0  0
  -30.4840  -18.9920   19.4300 C   0  0  0  0  0  3  0  0  0  0  0  0
  -28.1600  -20.2630   20.1960 C   0  0  0  0  0  3  0  0  0  0  0  0
  -29.1280  -21.2530   19.7620 C   0  0  0  0  0  0  0  0  0  0  0  0
  -28.3260  -18.7860   20.2400 C   0  0  0  0  0  0  0  0  0  0  0  0
  -29.5100  -18.0080   19.8680 C   0  0  0  0  0  0  0  0  0  0  0  0
  -27.1370  -17.9970   20.7600 C   0  0  0  0  0  1  0  0  0  0  0  0
  -30.3510  -15.2150   19.5770 C   0  0  0  0  0  0  0  0  0  0  0  0
  -30.2210  -12.8050   18.6510 C   0  0  0  0  0  2  0  0  0  0  0  0
  -29.1670  -12.6810   17.5200 C   0  0  0  0  0  2  0  0  0  0  0  0
  -27.7640  -12.4290   18.1010 C   0  0  0  0  0  2  0  0  0  0  0  0
  -27.4600  -13.3570   19.3040 C   0  0  0  0  0  3  0  0  0  0  0  0
  -28.6240  -13.4210   20.3170 C   0  0  0  0  0  2  0  0  0  0  0  0
  -29.8020  -13.9090   19.5820 N   0  0  0  0  0  0  0  0  0  0  0  0
  -31.5160  -15.2740   19.1550 O   0  0  0  0  0  0  0  0  0  0  0  0
  -29.5530  -16.4010   19.9050 N   0  0  0  0  0  0  0  0  0  0  0  0
  -28.6930  -16.0520   20.3010 H   0  0  0  0  0  0  0  0  0  0  0  0
  -25.1960  -13.9280   20.3360 C   0  0  0  0  0  0  0  0  0  0  0  0
  -24.1650  -13.1550   20.7920 C   0  0  0  0  0  0  0  0  0  0  0  0
  -24.5930  -11.7990   20.6460 C   0  0  0  0  0  0  0  0  0  0  0  0
  -26.1850  -13.0460   19.9390 N   0  0  0  0  0  0  0  0  0  0  0  0
  -25.8410  -11.7570   20.1900 N   0  0  0  0  0  0  0  0  0  0  0  0
  -23.8610  -10.5440   20.8580 C   0  0  0  0  0  0  0  0  0  0  0  0
  -24.3270   -9.5580   21.7570 C   0  0  0  0  0  3  0  0  0  0  0  0
  -23.5930   -8.3690   21.9590 C   0  0  0  0  0  3  0  0  0  0  0  0
  -22.3790   -8.1570   21.2620 C   0  0  0  0  0  0  0  0  0  0  0  0
  -21.9320   -9.1300   20.3510 C   0  0  0  0  0  3  0  0  0  0  0  0
  -22.6670  -10.3100   20.1470 C   0  0  0  0  0  3  0  0  0  0  0  0
  -21.6150   -7.0210   21.3740 O   0  0  0  0  0  0  0  0  0  0  0  0
  -21.5550   -6.3070   22.5440 C   0  0  0  0  0  0  0  0  0  0  0  0
  -21.1150   -6.8910   23.7520 C   0  0  0  0  0  3  0  0  0  0  0  0
  -21.0040   -6.1030   24.9150 C   0  0  0  0  0  3  0  0  0  0  0  0
  -21.3190   -4.7330   24.8700 C   0  0  0  0  0  0  0  0  0  0  0  0
  -21.7520   -4.1480   23.6670 C   0  0  0  0  0  3  0  0  0  0  0  0
  -21.8650   -4.9320   22.5070 C   0  0  0  0  0  0  0  0  0  0  0  0
  -22.2610   -4.3600   21.3450 F   0  0  0  0  0  0  0  0  0  0  0  0
  -21.2050   -3.9730   25.9860 F   0  0  0  0  0  0  0  0  0  0  0  0
  -22.8180  -13.6450   21.2360 C   0  0  0  0  0  0  0  0  0  0  0  0
  -22.1800  -12.9320   22.1560 N   0  0  0  0  0  0  0  0  0  0  0  0
  -22.3460  -14.6950   20.8030 O   0  0  0  0  0  0  0  0  0  0  0  0
  -22.5780  -12.0820   22.5270 H   0  0  0  0  0  0  0  0  0  0  0  0
  -21.2800  -13.2410   22.4970 H   0  0  0  0  0  0  0  0  0  0  0  0
  -25.3630  -15.3010   20.1950 N   0  0  0  0  0  0  0  0  0  0  0  0
  -24.6060  -15.9480   20.3900 H   0  0  0  0  0  0  0  0  0  0  0  0
  -26.1260  -15.7300   19.6880 H   0  0  0  0  0  0  0  0  0  0  0  0
  -29.0900  -22.9830   19.9480 C   0  0  0  0  0  3  0  0  0  0  0  0
  -28.0530  -24.3510   19.5030 C   0  0  0  0  0  3  0  0  0  0  0  0
  -28.2200  -25.9530   19.7590 O   0  0  0  0  0  0  0  0  0  0  0  0
  -24.5220  -31.6240   22.9940 C   0  0  0  0  0  0  0  0  0  0  0  0
  -27.1630  -26.9880   19.7430 C   0  0  0  0  0  0  0  0  0  0  0  0
  -23.3400  -30.2700   21.3090 C   0  0  0  0  0  3  0  0  0  0  0  0
  -24.8090  -28.7710   19.8020 C   0  0  0  0  0  0  0  0  0  0  0  0
  -25.8940  -30.5670   21.1380 C   0  0  0  0  0  2  0  0  0  0  0  0
  -25.9910  -29.1930   20.4230 C   0  0  0  0  0  0  0  0  0  0  0  0
  -27.1630  -28.3220   20.3690 C   0  0  0  0  0  3  0  0  0  0  0  0
  -25.9480  -26.7030   19.0830 C   0  0  0  0  0  3  0  0  0  0  0  0
  -24.8080  -27.5480   19.1130 C   0  0  0  0  0  3  0  0  0  0  0  0
  -23.5660  -29.6530   19.9030 C   0  0  0  0  0  2  0  0  0  0  0  0
  -24.6060  -30.8440   21.8690 N   0  0  0  0  0  0  0  0  0  0  0  0
  -23.4330  -31.8630   23.5410 O   0  0  0  0  0  0  0  0  0  0  0  0
  -22.6850  -29.2150   22.2390 C   0  0  0  0  0  0  0  0  0  0  0  0
  -21.3560  -29.0350   22.1340 N   0  0  0  0  0  0  0  0  0  0  0  0
  -23.3790  -28.5610   23.0220 O   0  0  0  0  0  0  0  0  0  0  0  0
  -20.8480  -29.6170   21.4820 H   0  0  0  0  0  0  0  0  0  0  0  0
  -17.9980  -27.7760   22.6800 C   0  0  0  0  0  0  0  0  0  0  0  0
  -20.5640  -28.0490   22.8760 C   0  0  0  0  0  3  0  0  0  0  0  0
  -20.6560  -26.6520   22.2180 C   0  0  0  0  0  2  0  0  0  0  0  0
  -19.5240  -26.3780   21.2220 C   0  0  0  0  0  2  0  0  0  0  0  0
  -18.1620  -26.4720   21.9180 C   0  0  0  0  0  2  0  0  0  0  0  0
  -19.1250  -28.5240   23.1150 C   0  0  0  0  0  0  0  0  0  0  0  0
  -18.9140  -29.7440   23.7940 C   0  0  0  0  0  3  0  0  0  0  0  0
  -17.6100  -30.2170   24.0380 C   0  0  0  0  0  3  0  0  0  0  0  0
  -16.5000  -29.4660   23.6140 C   0  0  0  0  0  3  0  0  0  0  0  0
  -16.6950  -28.2480   22.9410 C   0  0  0  0  0  3  0  0  0  0  0  0
  -25.7860  -32.2680   23.6390 C   0  0  0  0  0  3  0  0  0  0  0  0
  -25.4390  -33.6420   24.0420 N   0  0  0  0  0  0  0  0  0  0  0  0
  -25.7360  -34.7450   23.3420 C   0  0  0  0  0  0  0  0  0  0  0  0
  -26.3950  -34.7150   22.3000 O   0  0  0  0  0  0  0  0  0  0  0  0
  -24.8480  -33.7370   24.8560 H   0  0  0  0  0  0  0  0  0  0  0  0
  -23.9560  -36.5130   23.1200 C   0  0  0  0  0  1  0  0  0  0  0  0
  -25.2250  -36.0970   23.8820 C   0  0  0  0  0  3  0  0  0  0  0  0
  -27.3480  -37.0010   24.7230 C   0  0  0  0  0  1  0  0  0  0  0  0
  -26.2270  -37.1820   23.8040 N   0  0  0  0  0  0  0  0  0  0  0  0
  -25.8000  -38.0830   23.9970 H   0  0  0  0  0  0  0  0  0  0  0  0
  -26.3290  -31.4580   24.8810 C   0  0  1  0  0  0  0  0  0  0  0  0
  -25.2500  -31.1560   25.9480 C   0  0  0  0  0  1  0  0  0  0  0  0
  -26.9370  -30.1080   24.4370 C   0  0  0  0  0  1  0  0  0  0  0  0
  -27.4690  -32.2500   25.5650 C   0  0  0  0  0  1  0  0  0  0  0  0
  1  2  2  0
  1  4  1  0
  2  6  1  0
  3  5  1  0
  4 46  1  0
  4  3  2  0
  5  7  1  0
  6 16  1  0
  6  5  2  0
  8 14  1  0
  8 16  1  0
  9 14  1  0
 10 11  1  0
 10  9  1  0
 12 11  1  0
 12 21  1  0
 12 13  1  0
 14 13  1  0
 15  8  2  0
 16 17  1  0
 18 19  2  0
 19 38  1  0
 20 19  1  0
 20 23  1  0
 21 22  1  0
 21 18  1  0
 22 20  2  0
 23 24  1  0
 24 25  2  0
 26 29  1  0
 26 25  1  0
 27 26  2  0
 28 27  1  0
 28 23  2  0
 29 30  1  0
 30 31  1  0
 31 32  2  0
 33 32  1  0
 33 37  1  0
 34 33  2  0
 35 30  2  0
 35 34  1  0
 36 35  1  0
 38 39  1  0
 39 42  1  0
 39 41  1  0
 40 38  2  0
 43 18  1  0
 43 44  1  0
 45 43  1  0
 47 48  1  0
 47 46  2  0
 49 60  2  0
 50 48  1  0
 50 55  1  0
 51 59  1  0
 51 61  1  0
 52 58  1  0
 52 54  1  0
 53 59  1  0
 54 53  1  0
 55 54  2  0
 56 57  1  0
 56 50  2  0
 57 52  2  0
 58 51  1  0
 59 49  1  0
 61 63  2  0
 62 61  1  0
 64 62  1  0
 65 74  2  0
 65 70  1  0
 66 62  1  0
 66 70  1  0
 67 66  1  0
 68 69  1  0
 68 67  1  0
 69 65  1  0
 70 71  2  0
 71 72  1  0
 73 72  2  0
 74 73  1  0
 75 49  1  0
 75 76  1  0
 75 85  1  0
 76 79  1  0
 77 81  1  0
 77 76  1  0
 78 77  2  0
 81 80  1  0
 83 81  1  0
 83 84  1  0
 83 82  1  0
 85 88  1  1
 85 86  1  0
 87 85  1  0
M  ISO  4   8 100  16 100  47 101  48 101
M  END
>  <TORSDO>  (7) 
F 18

>  <SCORE>  (7) 
-14.016

>  <name>  (7) 
6

>  <ligand_id>  (7) 
6

>  <original_smiles>  (7) 
[H]c1c([H])c([H])c2c(c1[H])C([H])([H])C([H])([H])C([H])([H])C2([H])N([H])C(=O)C1([H])N(C(=O)C([H])(N([H])C(=O)C([H])(N([H])C([H])([H])[H])C([H])([H])[H])C(C([H])([H])[H])(C([H])([H])[H])C([H])([H])[H])C([H])([H])c2c([H])c(OC([H])([H])C([H])([H])c3c([H])c([H])c(N([H])C(=O)N4C([H])([H])C([H])([H])C([H])([H])C([H])(n5nc(-c6c([H])c([H])c(Oc7c([H])c([H])c(F)c([H])c7F)c([H])c6[H])c(C(=O)N([H])[H])c5N([H])[H])C4([H])[H])c(C([H])([H])[H])c3[H])c([H])c([H])c2C1([H])[H]

>  <smiles>  (7) 
[H]c1c([H])c([H])c2c(c1[H])C([H])([H])C([H])([H])C([H])([H])C2([H])N([H])C(=O)C1([H])N(C(=O)C([H])(N([H])C(=O)C([H])(N([H])C([H])([H])[H])C([H])([H])[H])C(C([H])([H])[H])(C([H])([H])[H])C([H])([H])[H])C([H])([H])c2c([H])c(OC([H])([H])C([H])([H])c3c([H])c([H])c(N([H])C(=O)N4C([H])([H])C([H])([H])C([H])([H])C([H])(n5nc(-c6c([H])c([H])c(Oc7c([H])c([H])c(F)c([H])c7F)c([H])c6[H])c(C(=O)N([H])[H])c5N([H])[H])C4([H])[H])c(C([H])([H])[H])c3[H])c([H])c([H])c2C1([H])[H]

$$$$
7:0:0
     RDKit          3D

 95104  0  0  1  0  0  0  0  0999 V2000
  -28.6740  -24.2610   19.7820 C   0  0  0  0  0  0  0  0  0  0  0  0
  -29.6510  -23.3780   20.1280 C   0  0  0  0  0  0  0  0  0  0  0  0
  -29.5700  -23.0480   16.9100 C   0  0  0  0  0  0  0  0  0  0  0  0
  -27.8920  -24.2380   18.4540 C   0  0  0  0  0  2  0  0  0  0  0  0
  -28.1390  -23.1040   17.4330 C   0  0  0  0  0  2  0  0  0  0  0  0
  -30.6710  -23.0350   17.9630 C   0  0  0  0  0  2  0  0  0  0  0  0
  -30.3640  -23.4070   21.4720 C   0  0  0  0  0  1  0  0  0  0  0  0
  -30.2020  -22.4640   19.2330 N   0  0  0  0  0  0  0  0  0  0  0  0
  -29.8170  -23.0000   15.7020 O   0  0  0  0  0  0  0  0  0  0  0  0
  -29.5930  -18.9780   20.5970 C   0  0  0  0  0  3  0  0  0  0  0  0
  -30.8440  -18.8250   18.5320 C   0  0  0  0  0  3  0  0  0  0  0  0
  -29.5530  -20.3890   20.4480 C   0  0  0  0  0  3  0  0  0  0  0  0
  -30.8060  -20.2180   18.3870 C   0  0  0  0  0  3  0  0  0  0  0  0
  -30.2790  -18.1860   19.6520 C   0  0  0  0  0  0  0  0  0  0  0  0
  -30.1880  -21.0440   19.3570 C   0  0  0  0  0  0  0  0  0  0  0  0
  -30.5430  -16.7410   19.7530 C   0  0  0  0  0  2  0  0  0  0  0  0
  -30.1160  -15.7610   20.5890 C   0  0  0  0  0  2  0  0  0  0  0  0
  -30.8080  -14.4810   20.4190 C   0  0  0  0  0  0  0  0  0  0  0  0
  -30.4310  -12.3110   19.3690 C   0  0  0  0  0  2  0  0  0  0  0  0
  -29.5290  -12.5390   18.1400 C   0  0  0  0  0  2  0  0  0  0  0  0
  -28.0500  -12.4130   18.5470 C   0  0  0  0  0  2  0  0  0  0  0  0
  -27.6950  -13.2670   19.7950 C   0  0  0  0  0  3  0  0  0  0  0  0
  -28.7380  -13.1040   20.9220 C   0  0  0  0  0  2  0  0  0  0  0  0
  -30.0730  -13.3400   20.3600 N   0  0  0  0  0  0  0  0  0  0  0  0
  -32.0030  -14.4800   20.1140 O   0  0  0  0  0  0  0  0  0  0  0  0
  -25.2910  -13.8510   20.4890 C   0  0  0  0  0  0  0  0  0  0  0  0
  -24.2260  -13.0710   20.8500 C   0  0  0  0  0  0  0  0  0  0  0  0
  -24.6990  -11.7230   20.8320 C   0  0  0  0  0  0  0  0  0  0  0  0
  -26.3440  -12.9780   20.2700 N   0  0  0  0  0  0  0  0  0  0  0  0
  -25.9920  -11.6930   20.5380 N   0  0  0  0  0  0  0  0  0  0  0  0
  -23.9790  -10.4560   21.0220 C   0  0  0  0  0  0  0  0  0  0  0  0
  -24.4090   -9.4960   21.9650 C   0  0  0  0  0  3  0  0  0  0  0  0
  -23.6900   -8.2940   22.1420 C   0  0  0  0  0  3  0  0  0  0  0  0
  -22.5270   -8.0430   21.3750 C   0  0  0  0  0  0  0  0  0  0  0  0
  -22.1160   -8.9920   20.4210 C   0  0  0  0  0  3  0  0  0  0  0  0
  -22.8370  -10.1850   20.2430 C   0  0  0  0  0  3  0  0  0  0  0  0
  -21.7800   -6.8930   21.4610 O   0  0  0  0  0  0  0  0  0  0  0  0
  -21.7220   -6.1570   22.6170 C   0  0  0  0  0  0  0  0  0  0  0  0
  -21.2690   -6.7130   23.8330 C   0  0  0  0  0  3  0  0  0  0  0  0
  -21.1590   -5.9010   24.9810 C   0  0  0  0  0  3  0  0  0  0  0  0
  -21.4920   -4.5350   24.9120 C   0  0  0  0  0  0  0  0  0  0  0  0
  -21.9380   -3.9790   23.7000 C   0  0  0  0  0  3  0  0  0  0  0  0
  -22.0490   -4.7880   22.5550 C   0  0  0  0  0  0  0  0  0  0  0  0
  -22.4610   -4.2410   21.3860 F   0  0  0  0  0  0  0  0  0  0  0  0
  -21.3800   -3.7540   26.0120 F   0  0  0  0  0  0  0  0  0  0  0  0
  -22.8220  -13.5390   21.1060 C   0  0  0  0  0  0  0  0  0  0  0  0
  -22.0890  -12.8400   21.9640 N   0  0  0  0  0  0  0  0  0  0  0  0
  -22.3840  -14.5600   20.5770 O   0  0  0  0  0  0  0  0  0  0  0  0
  -22.4560  -12.0130   22.4120 H   0  0  0  0  0  0  0  0  0  0  0  0
  -21.1480  -13.1360   22.1790 H   0  0  0  0  0  0  0  0  0  0  0  0
  -25.4490  -15.2220   20.3080 N   0  0  0  0  0  0  0  0  0  0  0  0
  -24.6800  -15.8740   20.4090 H   0  0  0  0  0  0  0  0  0  0  0  0
  -26.3070  -15.6630   20.0040 H   0  0  0  0  0  0  0  0  0  0  0  0
  -28.1930  -25.3770   20.7210 C   0  0  0  0  0  2  0  0  0  0  0  0
  -28.3490  -26.6960   20.1610 O   0  0  0  0  0  0  0  0  0  0  0  0
  -24.5800  -31.8920   23.2430 C   0  0  0  0  0  0  0  0  0  0  0  0
  -27.2020  -27.4590   20.1500 C   0  0  0  0  0  0  0  0  0  0  0  0
  -23.3700  -30.4970   21.6020 C   0  0  0  0  0  3  0  0  0  0  0  0
  -24.8170  -28.9730   20.1670 C   0  0  0  0  0  0  0  0  0  0  0  0
  -25.8970  -30.8570   21.3970 C   0  0  0  0  0  2  0  0  0  0  0  0
  -25.9800  -29.4900   20.7520 C   0  0  0  0  0  0  0  0  0  0  0  0
  -27.1790  -28.7420   20.7390 C   0  0  0  0  0  3  0  0  0  0  0  0
  -26.0230  -26.9660   19.5490 C   0  0  0  0  0  3  0  0  0  0  0  0
  -24.8340  -27.7070   19.5610 C   0  0  0  0  0  3  0  0  0  0  0  0
  -23.5750  -29.8290   20.2170 C   0  0  0  0  0  2  0  0  0  0  0  0
  -24.6340  -31.0960   22.1390 N   0  0  0  0  0  0  0  0  0  0  0  0
  -23.5000  -32.1630   23.7850 O   0  0  0  0  0  0  0  0  0  0  0  0
  -22.7240  -29.4680   22.5580 C   0  0  0  0  0  0  0  0  0  0  0  0
  -21.3990  -29.2860   22.4340 N   0  0  0  0  0  0  0  0  0  0  0  0
  -23.4110  -28.8380   23.3660 O   0  0  0  0  0  0  0  0  0  0  0  0
  -20.9060  -29.8470   21.7540 H   0  0  0  0  0  0  0  0  0  0  0  0
  -18.0240  -28.1030   22.9480 C   0  0  0  0  0  0  0  0  0  0  0  0
  -20.5840  -28.3470   23.2050 C   0  0  0  0  0  3  0  0  0  0  0  0
  -20.6770  -26.9190   22.6190 C   0  0  0  0  0  2  0  0  0  0  0  0
  -19.5660  -26.6080   21.6100 C   0  0  0  0  0  2  0  0  0  0  0  0
  -18.1900  -26.7570   22.2640 C   0  0  0  0  0  2  0  0  0  0  0  0
  -19.1490  -28.8580   23.3740 C   0  0  0  0  0  0  0  0  0  0  0  0
  -18.9410  -30.1190   23.9720 C   0  0  0  0  0  3  0  0  0  0  0  0
  -17.6400  -30.6270   24.1480 C   0  0  0  0  0  3  0  0  0  0  0  0
  -16.5290  -29.8710   23.7380 C   0  0  0  0  0  3  0  0  0  0  0  0
  -16.7220  -28.6100   23.1430 C   0  0  0  0  0  3  0  0  0  0  0  0
  -25.8680  -32.5220   23.8590 C   0  0  0  0  0  3  0  0  0  0  0  0
  -26.3880  -31.7520   25.1330 C   0  0  1  0  0  0  0  0  0  0  0  0
  -25.2980  -31.5140   26.2040 C   0  0  0  0  0  1  0  0  0  0  0  0
  -26.9690  -30.3740   24.7390 C   0  0  0  0  0  1  0  0  0  0  0  0
  -27.5400  -32.5460   25.7920 C   0  0  0  0  0  1  0  0  0  0  0  0
  -25.5620  -33.9210   24.1840 N   0  0  0  0  0  0  0  0  0  0  0  0
  -25.8990  -34.9700   23.4210 C   0  0  0  0  0  0  0  0  0  0  0  0
  -26.5710  -34.8620   22.3920 O   0  0  0  0  0  0  0  0  0  0  0  0
  -24.9650  -34.0800   24.9830 H   0  0  0  0  0  0  0  0  0  0  0  0
  -24.1800  -36.7680   23.0450 C   0  0  0  0  0  1  0  0  0  0  0  0
  -25.4100  -36.3610   23.8710 C   0  0  0  0  0  3  0  0  0  0  0  0
  -27.5380  -37.2370   24.7260 C   0  0  0  0  0  1  0  0  0  0  0  0
  -26.4480  -37.4090   23.7690 N   0  0  0  0  0  0  0  0  0  0  0  0
  -26.0440  -38.3310   23.9140 H   0  0  0  0  0  0  0  0  0  0  0  0
  1  2  2  0
  1 54  1  0
  2  7  1  0
  3  5  1  0
  3  6  1  0
  4  1  1  0
  5  4  1  0
  6  8  1  0
  8 15  1  0
  8  2  1  0
  9  3  2  0
 11 14  1  0
 12 10  1  0
 13 11  2  0
 13 15  1  0
 14 16  1  0
 14 10  2  0
 15 12  2  0
 16 17  1  0
 18 17  1  0
 19 24  1  0
 20 21  1  0
 20 19  1  0
 22 21  1  0
 22 29  1  0
 22 23  1  0
 24 18  1  0
 24 23  1  0
 25 18  2  0
 26 27  2  0
 27 46  1  0
 28 27  1  0
 28 31  1  0
 29 26  1  0
 29 30  1  0
 30 28  2  0
 31 32  1  0
 32 33  2  0
 34 37  1  0
 34 33  1  0
 35 34  2  0
 36 35  1  0
 36 31  2  0
 37 38  1  0
 38 39  1  0
 39 40  2  0
 41 40  1  0
 41 45  1  0
 42 41  2  0
 43 38  2  0
 43 42  1  0
 44 43  1  0
 46 47  1  0
 47 50  1  0
 47 49  1  0
 48 46  2  0
 51 52  1  0
 51 26  1  0
 53 51  1  0
 55 54  1  0
 56 67  2  0
 57 55  1  0
 57 62  1  0
 58 66  1  0
 58 68  1  0
 59 65  1  0
 59 61  1  0
 60 66  1  0
 61 60  1  0
 62 61  2  0
 63 64  1  0
 63 57  2  0
 64 59  2  0
 65 58  1  0
 66 56  1  0
 68 70  2  0
 69 68  1  0
 71 69  1  0
 72 81  2  0
 72 77  1  0
 73 69  1  0
 73 77  1  0
 74 73  1  0
 75 76  1  0
 75 74  1  0
 76 72  1  0
 77 78  2  0
 78 79  1  0
 80 79  2  0
 81 80  1  0
 82 56  1  0
 82 87  1  0
 82 83  1  0
 83 86  1  1
 83 84  1  0
 85 83  1  0
 87 90  1  0
 88 92  1  0
 88 87  1  0
 89 88  2  0
 92 91  1  0
 94 92  1  0
 94 95  1  0
 94 93  1  0
M  ISO  4  17 100  18 100  54 101  55 101
M  END
>  <TORSDO>  (8) 
F 19

>  <SCORE>  (8) 
-14.402

>  <name>  (8) 
7

>  <ligand_id>  (8) 
7

>  <original_smiles>  (8) 
[H]C(C(=O)N1C([H])([H])C([H])([H])C([H])([H])C([H])(n2nc(-c3c([H])c([H])c(Oc4c([H])c([H])c(F)c([H])c4F)c([H])c3[H])c(C(=O)N([H])[H])c2N([H])[H])C1([H])[H])=C([H])c1c([H])c([H])c(N2C(C([H])([H])[H])=C(C([H])([H])Oc3c([H])c([H])c4c(c3[H])C([H])([H])N(C(=O)C([H])(N([H])C(=O)C([H])(N([H])C([H])([H])[H])C([H])([H])[H])C(C([H])([H])[H])(C([H])([H])[H])C([H])([H])[H])C([H])(C(=O)N([H])C3([H])c5c([H])c([H])c([H])c([H])c5C([H])([H])C([H])([H])C3([H])[H])C4([H])[H])C([H])([H])C([H])([H])C(=O)C2([H])[H])c([H])c1[H]

>  <smiles>  (8) 
[H]C(C(=O)N1C([H])([H])C([H])([H])C([H])([H])C([H])(n2nc(-c3c([H])c([H])c(Oc4c([H])c([H])c(F)c([H])c4F)c([H])c3[H])c(C(=O)N([H])[H])c2N([H])[H])C1([H])[H])=C([H])c1c([H])c([H])c(N2C(C([H])([H])[H])=C(C([H])([H])Oc3c([H])c([H])c4c(c3[H])C([H])([H])N(C(=O)C([H])(N([H])C(=O)C([H])(N([H])C([H])([H])[H])C([H])([H])[H])C(C([H])([H])[H])(C([H])([H])[H])C([H])([H])[H])C([H])(C(=O)N([H])C3([H])c5c([H])c([H])c([H])c([H])c5C([H])([H])C([H])([H])C3([H])[H])C4([H])[H])C([H])([H])C([H])([H])C(=O)C2([H])[H])c([H])c1[H]

$$$$
8:0:0
     RDKit          3D

 91 99  0  0  1  0  0  0  0  0999 V2000
  -31.7680  -19.4160   19.9160 C   0  0  0  0  0  3  0  0  0  0  0  0
  -32.0470  -20.7870   19.9550 C   0  0  0  0  0  3  0  0  0  0  0  0
  -29.4550  -19.8790   20.4120 C   0  0  0  0  0  3  0  0  0  0  0  0
  -30.4890  -18.8680   20.1790 C   0  0  0  0  0  0  0  0  0  0  0  0
  -31.0570  -21.7450   20.2290 C   0  0  0  0  0  0  0  0  0  0  0  0
  -29.6980  -21.3360   20.3900 C   0  0  0  0  0  0  0  0  0  0  0  0
  -30.5830  -17.3010   20.1780 C   0  0  0  0  0  3  0  0  0  0  0  0
  -29.9240  -16.1240   20.5290 C   0  0  0  0  0  3  0  0  0  0  0  0
  -30.6230  -14.7790   20.3370 C   0  0  0  0  0  0  0  0  0  0  0  0
  -30.3540  -12.4890   19.3890 C   0  0  0  0  0  2  0  0  0  0  0  0
  -29.4380  -12.5680   18.1500 C   0  0  0  0  0  2  0  0  0  0  0  0
  -27.9640  -12.4090   18.5640 C   0  0  0  0  0  2  0  0  0  0  0  0
  -27.5830  -13.2990   19.7780 C   0  0  0  0  0  3  0  0  0  0  0  0
  -28.6350  -13.2500   20.9010 C   0  0  0  0  0  2  0  0  0  0  0  0
  -29.9390  -13.5770   20.3130 N   0  0  0  0  0  0  0  0  0  0  0  0
  -31.8220  -14.7440   20.0430 O   0  0  0  0  0  0  0  0  0  0  0  0
  -25.1980  -13.8680   20.5140 C   0  0  0  0  0  0  0  0  0  0  0  0
  -24.1370  -13.0880   20.8840 C   0  0  0  0  0  0  0  0  0  0  0  0
  -24.6070  -11.7410   20.8580 C   0  0  0  0  0  0  0  0  0  0  0  0
  -26.2450  -12.9960   20.2750 N   0  0  0  0  0  0  0  0  0  0  0  0
  -25.9000  -11.7090   20.5490 N   0  0  0  0  0  0  0  0  0  0  0  0
  -23.8860  -10.4730   21.0500 C   0  0  0  0  0  0  0  0  0  0  0  0
  -24.3280   -9.5030   21.9760 C   0  0  0  0  0  3  0  0  0  0  0  0
  -23.6060   -8.3050   22.1590 C   0  0  0  0  0  3  0  0  0  0  0  0
  -22.4240   -8.0690   21.4150 C   0  0  0  0  0  0  0  0  0  0  0  0
  -22.0000   -9.0270   20.4780 C   0  0  0  0  0  3  0  0  0  0  0  0
  -22.7250  -10.2180   20.2940 C   0  0  0  0  0  3  0  0  0  0  0  0
  -21.6720   -6.9240   21.5070 O   0  0  0  0  0  0  0  0  0  0  0  0
  -21.6450   -6.1670   22.6510 C   0  0  0  0  0  0  0  0  0  0  0  0
  -21.2640   -6.7120   23.8970 C   0  0  0  0  0  3  0  0  0  0  0  0
  -21.1870   -5.8840   25.0340 C   0  0  0  0  0  3  0  0  0  0  0  0
  -21.4810   -4.5110   24.9270 C   0  0  0  0  0  0  0  0  0  0  0  0
  -21.8550   -3.9650   23.6870 C   0  0  0  0  0  3  0  0  0  0  0  0
  -21.9350   -4.7910   22.5520 C   0  0  0  0  0  0  0  0  0  0  0  0
  -22.2750   -4.2560   21.3540 F   0  0  0  0  0  0  0  0  0  0  0  0
  -21.4000   -3.7140   26.0170 F   0  0  0  0  0  0  0  0  0  0  0  0
  -22.7350  -13.5580   21.1480 C   0  0  0  0  0  0  0  0  0  0  0  0
  -22.0060  -12.8610   22.0130 N   0  0  0  0  0  0  0  0  0  0  0  0
  -22.2910  -14.5760   20.6200 O   0  0  0  0  0  0  0  0  0  0  0  0
  -22.3820  -12.0410   22.4660 H   0  0  0  0  0  0  0  0  0  0  0  0
  -21.0610  -13.1490   22.2250 H   0  0  0  0  0  0  0  0  0  0  0  0
  -25.3590  -15.2400   20.3310 N   0  0  0  0  0  0  0  0  0  0  0  0
  -24.6020  -15.9070   20.4470 H   0  0  0  0  0  0  0  0  0  0  0  0
  -26.2170  -15.6680   20.0020 H   0  0  0  0  0  0  0  0  0  0  0  0
  -31.5730  -23.1730   20.4260 C   0  0  0  0  0  2  0  0  0  0  0  0
  -31.6140  -25.0480   18.7070 C   0  0  0  0  0  2  0  0  0  0  0  0
  -32.0250  -23.8450   19.1390 C   0  0  0  0  0  3  0  0  0  0  0  0
  -28.6710  -22.3040   20.6340 O   0  0  0  0  0  0  0  0  0  0  0  0
  -28.5170  -23.6150   19.9090 C   0  0  0  0  0  3  0  0  0  0  0  0
  -28.1530  -24.9800   20.7230 C   0  0  0  0  0  3  0  0  0  0  0  0
  -28.3210  -26.3890   20.2090 O   0  0  0  0  0  0  0  0  0  0  0  0
  -24.6100  -31.8820   23.2420 C   0  0  0  0  0  0  0  0  0  0  0  0
  -27.2160  -27.2690   20.2100 C   0  0  0  0  0  0  0  0  0  0  0  0
  -23.4080  -30.4710   21.6140 C   0  0  0  0  0  3  0  0  0  0  0  0
  -24.8580  -28.9070   20.1960 C   0  0  0  0  0  0  0  0  0  0  0  0
  -25.9510  -30.7800   21.4300 C   0  0  0  0  0  2  0  0  0  0  0  0
  -26.0330  -29.3950   20.7840 C   0  0  0  0  0  0  0  0  0  0  0  0
  -27.2180  -28.5900   20.7740 C   0  0  0  0  0  3  0  0  0  0  0  0
  -26.0190  -26.8400   19.6020 C   0  0  0  0  0  3  0  0  0  0  0  0
  -24.8550  -27.6370   19.5970 C   0  0  0  0  0  3  0  0  0  0  0  0
  -23.6200  -29.7850   20.2400 C   0  0  0  0  0  2  0  0  0  0  0  0
  -24.6760  -31.0630   22.1510 N   0  0  0  0  0  0  0  0  0  0  0  0
  -23.5260  -32.1600   23.7740 O   0  0  0  0  0  0  0  0  0  0  0  0
  -22.7460  -29.4610   22.5800 C   0  0  0  0  0  0  0  0  0  0  0  0
  -21.4200  -29.2780   22.4540 N   0  0  0  0  0  0  0  0  0  0  0  0
  -23.4250  -28.8430   23.4050 O   0  0  0  0  0  0  0  0  0  0  0  0
  -20.9310  -29.8290   21.7620 H   0  0  0  0  0  0  0  0  0  0  0  0
  -18.0450  -28.0710   22.9630 C   0  0  0  0  0  0  0  0  0  0  0  0
  -20.6020  -28.3440   23.2310 C   0  0  0  0  0  3  0  0  0  0  0  0
  -20.7110  -26.9090   22.6670 C   0  0  0  0  0  2  0  0  0  0  0  0
  -19.6110  -26.5730   21.6540 C   0  0  0  0  0  2  0  0  0  0  0  0
  -18.2280  -26.7180   22.2950 C   0  0  0  0  0  2  0  0  0  0  0  0
  -19.1610  -28.8420   23.3860 C   0  0  0  0  0  0  0  0  0  0  0  0
  -18.9370  -30.1080   23.9690 C   0  0  0  0  0  3  0  0  0  0  0  0
  -17.6310  -30.6060   24.1300 C   0  0  0  0  0  3  0  0  0  0  0  0
  -16.5290  -29.8330   23.7250 C   0  0  0  0  0  3  0  0  0  0  0  0
  -16.7380  -28.5660   23.1500 C   0  0  0  0  0  3  0  0  0  0  0  0
  -25.8900  -32.5230   23.8610 C   0  0  0  0  0  3  0  0  0  0  0  0
  -25.5760  -33.9220   24.1830 N   0  0  0  0  0  0  0  0  0  0  0  0
  -25.9030  -34.9740   23.4210 C   0  0  0  0  0  0  0  0  0  0  0  0
  -26.5690  -34.8680   22.3870 O   0  0  0  0  0  0  0  0  0  0  0  0
  -24.9850  -34.0780   24.9870 H   0  0  0  0  0  0  0  0  0  0  0  0
  -24.1640  -36.7600   23.0670 C   0  0  0  0  0  1  0  0  0  0  0  0
  -25.4120  -36.3630   23.8730 C   0  0  0  0  0  3  0  0  0  0  0  0
  -27.5500  -37.2580   24.6850 C   0  0  0  0  0  1  0  0  0  0  0  0
  -26.4410  -37.4200   23.7490 N   0  0  0  0  0  0  0  0  0  0  0  0
  -26.0340  -38.3400   23.8970 H   0  0  0  0  0  0  0  0  0  0  0  0
  -26.4090  -31.7630   25.1440 C   0  0  1  0  0  0  0  0  0  0  0  0
  -25.3190  -31.5290   26.2140 C   0  0  0  0  0  1  0  0  0  0  0  0
  -26.9960  -30.3840   24.7640 C   0  0  0  0  0  1  0  0  0  0  0  0
  -27.5610  -32.5640   25.7970 C   0  0  0  0  0  1  0  0  0  0  0  0
  1  2  2  0
  1  4  1  0
  2  5  1  0
  4  3  2  0
  5  6  2  0
  5 45  1  0
  6  3  1  0
  6 48  1  0
  7  4  1  0
  7  8  2  0
  9  8  1  0
 10 15  1  0
 11 12  1  0
 11 10  1  0
 13 12  1  0
 13 20  1  0
 13 14  1  0
 15  9  1  0
 15 14  1  0
 16  9  2  0
 17 18  2  0
 18 37  1  0
 19 18  1  0
 19 22  1  0
 20 17  1  0
 20 21  1  0
 21 19  2  0
 22 23  1  0
 23 24  2  0
 25 28  1  0
 25 24  1  0
 26 25  2  0
 27 26  1  0
 27 22  2  0
 28 29  1  0
 29 30  1  0
 30 31  2  0
 32 31  1  0
 32 36  1  0
 33 32  2  0
 34 29  2  0
 34 33  1  0
 35 34  1  0
 37 38  1  0
 38 41  1  0
 38 40  1  0
 39 37  2  0
 42 43  1  0
 42 17  1  0
 44 42  1  0
 46 47  2  0
 47 45  1  0
 49 48  1  0
 49 50  2  0
 51 53  1  0
 51 50  1  0
 52 63  2  0
 53 58  1  0
 54 62  1  0
 54 64  1  0
 55 61  1  0
 55 57  1  0
 56 62  1  0
 57 56  1  0
 58 57  2  0
 59 53  2  0
 60 59  1  0
 60 55  2  0
 61 54  1  0
 62 52  1  0
 64 66  2  0
 65 64  1  0
 67 65  1  0
 68 77  2  0
 68 73  1  0
 69 65  1  0
 69 73  1  0
 70 69  1  0
 71 72  1  0
 71 70  1  0
 72 68  1  0
 73 74  2  0
 74 75  1  0
 76 75  2  0
 77 76  1  0
 78 52  1  0
 78 79  1  0
 78 88  1  0
 79 82  1  0
 80 84  1  0
 80 79  1  0
 81 80  2  0
 84 83  1  0
 86 84  1  0
 86 87  1  0
 86 85  1  0
 88 91  1  1
 88 89  1  0
 90 88  1  0
M  ISO  4   8 100   9 100  50 101  51 101
M  END
>  <TORSDO>  (9) 
F 22

>  <SCORE>  (9) 
-13.120

>  <name>  (9) 
8

>  <ligand_id>  (9) 
8

>  <original_smiles>  (9) 
[H]C([H])=C([H])C([H])([H])c1c([H])c([H])c(C([H])=C([H])C(=O)N2C([H])([H])C([H])([H])C([H])([H])C([H])(n3nc(-c4c([H])c([H])c(Oc5c([H])c([H])c(F)c([H])c5F)c([H])c4[H])c(C(=O)N([H])[H])c3N([H])[H])C2([H])[H])c([H])c1OC([H])([H])C([H])([H])Oc1c([H])c([H])c2c(c1[H])C([H])([H])N(C(=O)C([H])(N([H])C(=O)C([H])(N([H])C([H])([H])[H])C([H])([H])[H])C(C([H])([H])[H])(C([H])([H])[H])C([H])([H])[H])C([H])(C(=O)N([H])C1([H])c3c([H])c([H])c([H])c([H])c3C([H])([H])C([H])([H])C1([H])[H])C2([H])[H]

>  <smiles>  (9) 
[H]C([H])=C([H])C([H])([H])c1c([H])c([H])c(C([H])=C([H])C(=O)N2C([H])([H])C([H])([H])C([H])([H])C([H])(n3nc(-c4c([H])c([H])c(Oc5c([H])c([H])c(F)c([H])c5F)c([H])c4[H])c(C(=O)N([H])[H])c3N([H])[H])C2([H])[H])c([H])c1OC([H])([H])C([H])([H])Oc1c([H])c([H])c2c(c1[H])C([H])([H])N(C(=O)C([H])(N([H])C(=O)C([H])(N([H])C([H])([H])[H])C([H])([H])[H])C(C([H])([H])[H])(C([H])([H])[H])C([H])([H])[H])C([H])(C(=O)N([H])C1([H])c3c([H])c([H])c([H])c([H])c3C([H])([H])C([H])([H])C1([H])[H])C2([H])[H]

$$$$
9:0:0
     RDKit          3D

 92100  0  0  1  0  0  0  0  0999 V2000
  -30.6250  -19.1130   21.9360 C   0  0  0  0  0  3  0  0  0  0  0  0
  -30.3920  -20.4650   21.6190 C   0  0  0  0  0  3  0  0  0  0  0  0
  -29.5530  -18.4660   19.8490 C   0  0  0  0  0  3  0  0  0  0  0  0
  -30.2500  -18.1120   21.0220 C   0  0  0  0  0  0  0  0  0  0  0  0
  -29.8210  -20.8290   20.3760 C   0  0  0  0  0  0  0  0  0  0  0  0
  -29.3520  -19.8150   19.5030 C   0  0  0  0  0  0  0  0  0  0  0  0
  -30.7110  -16.7340   21.1670 C   0  0  0  0  0  2  0  0  0  0  0  0
  -30.0270  -15.6550   20.7430 C   0  0  0  0  0  2  0  0  0  0  0  0
  -30.7540  -14.4280   20.4810 C   0  0  0  0  0  0  0  0  0  0  0  0
  -30.3590  -12.3020   19.3270 C   0  0  0  0  0  2  0  0  0  0  0  0
  -29.4520  -12.5650   18.1070 C   0  0  0  0  0  2  0  0  0  0  0  0
  -27.9680  -12.4530   18.5120 C   0  0  0  0  0  2  0  0  0  0  0  0
  -27.6250  -13.2790   19.7800 C   0  0  0  0  0  3  0  0  0  0  0  0
  -28.6680  -13.0660   20.9010 C   0  0  0  0  0  2  0  0  0  0  0  0
  -30.0100  -13.2990   20.3490 N   0  0  0  0  0  0  0  0  0  0  0  0
  -31.9250  -14.4890   20.1100 O   0  0  0  0  0  0  0  0  0  0  0  0
  -25.2220  -13.8930   20.4610 C   0  0  0  0  0  0  0  0  0  0  0  0
  -24.1480  -13.1260   20.8230 C   0  0  0  0  0  0  0  0  0  0  0  0
  -24.6070  -11.7740   20.8120 C   0  0  0  0  0  0  0  0  0  0  0  0
  -26.2680  -13.0100   20.2490 N   0  0  0  0  0  0  0  0  0  0  0  0
  -25.9020  -11.7290   20.5170 N   0  0  0  0  0  0  0  0  0  0  0  0
  -23.8780  -10.5130   21.0040 C   0  0  0  0  0  0  0  0  0  0  0  0
  -24.3030   -9.5550   21.9510 C   0  0  0  0  0  3  0  0  0  0  0  0
  -23.5790   -8.3560   22.1310 C   0  0  0  0  0  3  0  0  0  0  0  0
  -22.4140   -8.1100   21.3660 C   0  0  0  0  0  0  0  0  0  0  0  0
  -22.0090   -9.0580   20.4100 C   0  0  0  0  0  3  0  0  0  0  0  0
  -22.7340  -10.2470   20.2260 C   0  0  0  0  0  3  0  0  0  0  0  0
  -21.6570   -6.9670   21.4570 O   0  0  0  0  0  0  0  0  0  0  0  0
  -21.5950   -6.2340   22.6160 C   0  0  0  0  0  0  0  0  0  0  0  0
  -21.1560   -6.8000   23.8330 C   0  0  0  0  0  3  0  0  0  0  0  0
  -21.0440   -5.9940   24.9830 C   0  0  0  0  0  3  0  0  0  0  0  0
  -21.3580   -4.6230   24.9160 C   0  0  0  0  0  0  0  0  0  0  0  0
  -21.7940   -4.0570   23.7050 C   0  0  0  0  0  3  0  0  0  0  0  0
  -21.9080   -4.8610   22.5580 C   0  0  0  0  0  0  0  0  0  0  0  0
  -22.3080   -4.3070   21.3880 F   0  0  0  0  0  0  0  0  0  0  0  0
  -21.2440   -3.8470   26.0190 F   0  0  0  0  0  0  0  0  0  0  0  0
  -22.7490  -13.6070   21.0730 C   0  0  0  0  0  0  0  0  0  0  0  0
  -22.0070  -12.9180   21.9340 N   0  0  0  0  0  0  0  0  0  0  0  0
  -22.3210  -14.6310   20.5400 O   0  0  0  0  0  0  0  0  0  0  0  0
  -22.3670  -12.0940   22.3930 H   0  0  0  0  0  0  0  0  0  0  0  0
  -21.0650  -13.2220   22.1390 H   0  0  0  0  0  0  0  0  0  0  0  0
  -25.3910  -15.2620   20.2720 N   0  0  0  0  0  0  0  0  0  0  0  0
  -24.6220  -15.9170   20.3630 H   0  0  0  0  0  0  0  0  0  0  0  0
  -26.2500  -15.7040   19.9670 H   0  0  0  0  0  0  0  0  0  0  0  0
  -29.7160  -22.2450   19.9980 C   0  0  0  0  0  3  0  0  0  0  0  0
  -29.5330  -23.2700   20.8470 C   0  0  0  0  0  3  0  0  0  0  0  0
  -29.5070  -24.6410   20.3270 C   0  0  0  0  0  0  0  0  0  0  0  0
  -30.3160  -25.0430   19.4820 O   0  0  0  0  0  0  0  0  0  0  0  0
  -28.4190  -25.5700   20.8630 C   0  0  0  0  0  2  0  0  0  0  0  0
  -28.4680  -26.8160   20.1740 O   0  0  0  0  0  0  0  0  0  0  0  0
  -24.5990  -31.8960   23.2500 C   0  0  0  0  0  0  0  0  0  0  0  0
  -27.2850  -27.5030   20.1820 C   0  0  0  0  0  0  0  0  0  0  0  0
  -23.4060  -30.4850   21.6030 C   0  0  0  0  0  3  0  0  0  0  0  0
  -24.8740  -28.9540   20.1900 C   0  0  0  0  0  0  0  0  0  0  0  0
  -25.9270  -30.8670   21.4150 C   0  0  0  0  0  2  0  0  0  0  0  0
  -26.0240  -29.5010   20.7740 C   0  0  0  0  0  0  0  0  0  0  0  0
  -27.2350  -28.7840   20.7650 C   0  0  0  0  0  3  0  0  0  0  0  0
  -26.1260  -26.9580   19.5920 C   0  0  0  0  0  3  0  0  0  0  0  0
  -24.9160  -27.6790   19.5990 C   0  0  0  0  0  3  0  0  0  0  0  0
  -23.6230  -29.8010   20.2270 C   0  0  0  0  0  2  0  0  0  0  0  0
  -24.6610  -31.0990   22.1470 N   0  0  0  0  0  0  0  0  0  0  0  0
  -23.5150  -32.1600   23.7890 O   0  0  0  0  0  0  0  0  0  0  0  0
  -22.7590  -29.4610   22.5630 C   0  0  0  0  0  0  0  0  0  0  0  0
  -21.4360  -29.2700   22.4300 N   0  0  0  0  0  0  0  0  0  0  0  0
  -23.4460  -28.8380   23.3760 O   0  0  0  0  0  0  0  0  0  0  0  0
  -20.9430  -29.8220   21.7430 H   0  0  0  0  0  0  0  0  0  0  0  0
  -18.0640  -28.0780   22.9340 C   0  0  0  0  0  0  0  0  0  0  0  0
  -20.6230  -28.3280   23.2000 C   0  0  0  0  0  3  0  0  0  0  0  0
  -20.7210  -26.9000   22.6160 C   0  0  0  0  0  2  0  0  0  0  0  0
  -19.6140  -26.5850   21.6040 C   0  0  0  0  0  2  0  0  0  0  0  0
  -18.2340  -26.7320   22.2500 C   0  0  0  0  0  2  0  0  0  0  0  0
  -19.1860  -28.8350   23.3660 C   0  0  0  0  0  0  0  0  0  0  0  0
  -18.9730  -30.0960   23.9630 C   0  0  0  0  0  3  0  0  0  0  0  0
  -17.6700  -30.6000   24.1350 C   0  0  0  0  0  3  0  0  0  0  0  0
  -16.5620  -29.8390   23.7210 C   0  0  0  0  0  3  0  0  0  0  0  0
  -16.7600  -28.5810   23.1250 C   0  0  0  0  0  3  0  0  0  0  0  0
  -25.8800  -32.5310   23.8720 C   0  0  0  0  0  3  0  0  0  0  0  0
  -25.5690  -33.9310   24.1890 N   0  0  0  0  0  0  0  0  0  0  0  0
  -25.9060  -34.9770   23.4240 C   0  0  0  0  0  0  0  0  0  0  0  0
  -26.5840  -34.8660   22.3990 O   0  0  0  0  0  0  0  0  0  0  0  0
  -24.9610  -34.0900   24.9810 H   0  0  0  0  0  0  0  0  0  0  0  0
  -24.1790  -36.7630   23.0340 C   0  0  0  0  0  1  0  0  0  0  0  0
  -25.4090  -36.3670   23.8650 C   0  0  0  0  0  3  0  0  0  0  0  0
  -27.5340  -37.2560   24.7170 C   0  0  0  0  0  1  0  0  0  0  0  0
  -26.4410  -37.4210   23.7610 N   0  0  0  0  0  0  0  0  0  0  0  0
  -26.0330  -38.3410   23.9000 H   0  0  0  0  0  0  0  0  0  0  0  0
  -26.3950  -31.7700   25.1560 C   0  0  1  0  0  0  0  0  0  0  0  0
  -25.2980  -31.5370   26.2210 C   0  0  0  0  0  1  0  0  0  0  0  0
  -26.9810  -30.3900   24.7770 C   0  0  0  0  0  1  0  0  0  0  0  0
  -27.5400  -32.5730   25.8170 C   0  0  0  0  0  1  0  0  0  0  0  0
  -27.2160  -20.5970   18.3590 C   0  0  0  0  0  1  0  0  0  0  0  0
  -28.6640  -20.1220   18.1760 C   0  0  0  0  0  2  0  0  0  0  0  0
  2  1  1  0
  3  4  1  0
  4  7  1  0
  4  1  2  0
  5  2  2  0
  6  3  2  0
  6  5  1  0
  8  7  1  0
  9  8  1  0
 10 15  1  0
 11 12  1  0
 11 10  1  0
 13 12  1  0
 13 20  1  0
 13 14  1  0
 15  9  1  0
 15 14  1  0
 16  9  2  0
 17 18  2  0
 18 37  1  0
 19 18  1  0
 19 22  1  0
 20 17  1  0
 20 21  1  0
 21 19  2  0
 22 23  1  0
 23 24  2  0
 25 28  1  0
 25 24  1  0
 26 25  2  0
 27 26  1  0
 27 22  2  0
 28 29  1  0
 29 30  1  0
 30 31  2  0
 32 31  1  0
 32 36  1  0
 33 32  2  0
 34 29  2  0
 34 33  1  0
 35 34  1  0
 37 38  1  0
 38 41  1  0
 38 40  1  0
 39 37  2  0
 42 43  1  0
 42 17  1  0
 44 42  1  0
 45  5  1  0
 45 46  2  0
 47 46  1  0
 47 49  1  0
 48 47  2  0
 50 52  1  0
 50 49  1  0
 51 62  2  0
 52 57  1  0
 53 61  1  0
 53 63  1  0
 54 60  1  0
 54 56  1  0
 55 61  1  0
 56 55  1  0
 57 56  2  0
 58 59  1  0
 58 52  2  0
 59 54  2  0
 60 53  1  0
 61 51  1  0
 63 65  2  0
 64 63  1  0
 66 64  1  0
 67 76  2  0
 67 72  1  0
 68 64  1  0
 68 72  1  0
 69 68  1  0
 70 71  1  0
 70 69  1  0
 71 67  1  0
 72 73  2  0
 73 74  1  0
 75 74  2  0
 76 75  1  0
 77 51  1  0
 77 78  1  0
 77 87  1  0
 78 81  1  0
 79 83  1  0
 79 78  1  0
 80 79  2  0
 83 82  1  0
 85 83  1  0
 85 86  1  0
 85 84  1  0
 87 90  1  1
 87 88  1  0
 89 87  1  0
 92 91  1  0
 92  6  1  0
M  ISO  4   8 100   9 100  49 101  50 101
M  END
>  <TORSDO>  (10) 
F 21

>  <SCORE>  (10) 
-13.670

>  <name>  (10) 
9

>  <ligand_id>  (10) 
9

>  <original_smiles>  (10) 
[H]C(C(=O)N1C([H])([H])C([H])([H])C([H])([H])C([H])(n2nc(-c3c([H])c([H])c(Oc4c([H])c([H])c(F)c([H])c4F)c([H])c3[H])c(C(=O)N([H])[H])c2N([H])[H])C1([H])[H])=C([H])c1c([H])c([H])c(C([H])=C([H])C(=O)C([H])([H])Oc2c([H])c([H])c3c(c2[H])C([H])([H])N(C(=O)C([H])(N([H])C(=O)C([H])(N([H])C([H])([H])[H])C([H])([H])[H])C(C([H])([H])[H])(C([H])([H])[H])C([H])([H])[H])C([H])(C(=O)N([H])C2([H])c4c([H])c([H])c([H])c([H])c4C([H])([H])C([H])([H])C2([H])[H])C3([H])[H])c(C([H])([H])C([H])([H])[H])c1[H]

>  <smiles>  (10) 
[H]C(C(=O)N1C([H])([H])C([H])([H])C([H])([H])C([H])(n2nc(-c3c([H])c([H])c(Oc4c([H])c([H])c(F)c([H])c4F)c([H])c3[H])c(C(=O)N([H])[H])c2N([H])[H])C1([H])[H])=C([H])c1c([H])c([H])c(C([H])=C([H])C(=O)C([H])([H])Oc2c([H])c([H])c3c(c2[H])C([H])([H])N(C(=O)C([H])(N([H])C(=O)C([H])(N([H])C([H])([H])[H])C([H])([H])[H])C(C([H])([H])[H])(C([H])([H])[H])C([H])([H])[H])C([H])(C(=O)N([H])C2([H])c4c([H])c([H])c([H])c([H])c4C([H])([H])C([H])([H])C2([H])[H])C3([H])[H])c(C([H])([H])C([H])([H])[H])c1[H]

$$$$
10:0:0
     RDKit          3D

 91 99  0  0  1  0  0  0  0  0999 V2000
  -30.0530  -19.3440   19.5640 C   0  0  0  0  0  3  0  0  0  0  0  0
  -30.3440  -17.9380   19.6690 C   0  0  0  0  0  3  0  0  0  0  0  0
  -27.8070  -18.9150   20.2710 C   0  0  0  0  0  3  0  0  0  0  0  0
  -28.7640  -19.8710   19.8560 C   0  0  0  0  0  0  0  0  0  0  0  0
  -28.0720  -17.5140   20.3800 C   0  0  0  0  0  0  0  0  0  0  0  0
  -29.3700  -16.9820   20.0900 C   0  0  0  0  0  0  0  0  0  0  0  0
  -30.4120  -14.5730   19.6440 C   0  0  0  0  0  0  0  0  0  0  0  0
  -30.2700  -12.2920   18.6260 C   0  0  0  0  0  2  0  0  0  0  0  0
  -29.2050  -12.3400   17.5020 C   0  0  0  0  0  2  0  0  0  0  0  0
  -27.7730  -12.1750   18.0580 C   0  0  0  0  0  2  0  0  0  0  0  0
  -27.5100  -13.0430   19.3180 C   0  0  0  0  0  3  0  0  0  0  0  0
  -28.6660  -12.8860   20.3300 C   0  0  0  0  0  2  0  0  0  0  0  0
  -29.9020  -13.2960   19.6450 N   0  0  0  0  0  0  0  0  0  0  0  0
  -31.5010  -14.8270   19.1130 O   0  0  0  0  0  0  0  0  0  0  0  0
  -29.5680  -15.5210   20.1800 N   0  0  0  0  0  0  0  0  0  0  0  0
  -28.8290  -15.0620   20.6890 H   0  0  0  0  0  0  0  0  0  0  0  0
  -25.1880  -13.6250   20.2560 C   0  0  0  0  0  0  0  0  0  0  0  0
  -24.1690  -12.8430   20.7280 C   0  0  0  0  0  0  0  0  0  0  0  0
  -24.6420  -11.4960   20.6600 C   0  0  0  0  0  0  0  0  0  0  0  0
  -26.2130  -12.7530   19.9240 N   0  0  0  0  0  0  0  0  0  0  0  0
  -25.8960  -11.4690   20.2280 N   0  0  0  0  0  0  0  0  0  0  0  0
  -23.9540  -10.2270   20.9290 C   0  0  0  0  0  0  0  0  0  0  0  0
  -24.4400   -9.3110   21.8900 C   0  0  0  0  0  3  0  0  0  0  0  0
  -23.7520   -8.1050   22.1420 C   0  0  0  0  0  3  0  0  0  0  0  0
  -22.5630   -7.8060   21.4360 C   0  0  0  0  0  0  0  0  0  0  0  0
  -22.0960   -8.7100   20.4650 C   0  0  0  0  0  3  0  0  0  0  0  0
  -22.7850   -9.9070   20.2100 C   0  0  0  0  0  3  0  0  0  0  0  0
  -21.8420   -6.6490   21.5970 O   0  0  0  0  0  0  0  0  0  0  0  0
  -21.7810   -5.9990   22.8040 C   0  0  0  0  0  0  0  0  0  0  0  0
  -21.3120   -6.6410   23.9710 C   0  0  0  0  0  3  0  0  0  0  0  0
  -21.2000   -5.9160   25.1760 C   0  0  0  0  0  3  0  0  0  0  0  0
  -21.5460   -4.5520   25.2120 C   0  0  0  0  0  0  0  0  0  0  0  0
  -22.0080   -3.9110   24.0500 C   0  0  0  0  0  3  0  0  0  0  0  0
  -22.1200   -4.6310   22.8470 C   0  0  0  0  0  0  0  0  0  0  0  0
  -22.5450   -4.0040   21.7240 F   0  0  0  0  0  0  0  0  0  0  0  0
  -21.4310   -3.8540   26.3660 F   0  0  0  0  0  0  0  0  0  0  0  0
  -22.7970  -13.3040   21.1280 C   0  0  0  0  0  0  0  0  0  0  0  0
  -22.1680  -12.6120   22.0710 N   0  0  0  0  0  0  0  0  0  0  0  0
  -22.2940  -14.3140   20.6390 O   0  0  0  0  0  0  0  0  0  0  0  0
  -22.5910  -11.7960   22.4890 H   0  0  0  0  0  0  0  0  0  0  0  0
  -21.2520  -12.9040   22.3810 H   0  0  0  0  0  0  0  0  0  0  0  0
  -25.3240  -14.9970   20.0680 N   0  0  0  0  0  0  0  0  0  0  0  0
  -24.5990  -15.6510   20.3420 H   0  0  0  0  0  0  0  0  0  0  0  0
  -26.1460  -15.4510   19.6920 H   0  0  0  0  0  0  0  0  0  0  0  0
  -25.5150  -16.9230   20.3910 C   0  0  0  0  0  1  0  0  0  0  0  0
  -26.9460  -16.5890   20.8670 C   0  0  0  0  0  2  0  0  0  0  0  0
  -28.3140  -21.3910   19.8040 C   0  0  0  0  0  3  0  0  0  0  0  0
  -29.0530  -22.4860   18.9200 C   0  0  0  0  0  3  0  0  0  0  0  0
  -28.4310  -23.9570   18.7330 C   0  0  0  0  0  2  0  0  0  0  0  0
  -28.4870  -25.0650   19.8630 C   0  0  0  0  0  2  0  0  0  0  0  0
  -28.4560  -26.4940   19.4940 O   0  0  0  0  0  0  0  0  0  0  0  0
  -24.6690  -31.5150   23.0090 C   0  0  0  0  0  0  0  0  0  0  0  0
  -27.2860  -27.2510   19.6020 C   0  0  0  0  0  0  0  0  0  0  0  0
  -23.4510  -30.2430   21.2770 C   0  0  0  0  0  3  0  0  0  0  0  0
  -24.8910  -28.8020   19.7320 C   0  0  0  0  0  0  0  0  0  0  0  0
  -25.9730  -30.6140   21.0660 C   0  0  0  0  0  2  0  0  0  0  0  0
  -26.0600  -29.2760   20.3410 C   0  0  0  0  0  0  0  0  0  0  0  0
  -27.2630  -28.5200   20.2580 C   0  0  0  0  0  3  0  0  0  0  0  0
  -26.0930  -26.8120   18.9860 C   0  0  0  0  0  3  0  0  0  0  0  0
  -24.9080  -27.5770   19.0390 C   0  0  0  0  0  3  0  0  0  0  0  0
  -23.6480  -29.6610   19.8500 C   0  0  0  0  0  2  0  0  0  0  0  0
  -24.7200  -30.8030   21.8450 N   0  0  0  0  0  0  0  0  0  0  0  0
  -23.5940  -31.7390   23.5830 O   0  0  0  0  0  0  0  0  0  0  0  0
  -22.8040  -29.1580   22.1700 C   0  0  0  0  0  0  0  0  0  0  0  0
  -21.4730  -29.0080   22.0670 N   0  0  0  0  0  0  0  0  0  0  0  0
  -23.4950  -28.4540   22.9120 O   0  0  0  0  0  0  0  0  0  0  0  0
  -20.9720  -29.6320   21.4510 H   0  0  0  0  0  0  0  0  0  0  0  0
  -18.0910  -27.8530   22.5930 C   0  0  0  0  0  0  0  0  0  0  0  0
  -20.6640  -28.0150   22.7760 C   0  0  0  0  0  3  0  0  0  0  0  0
  -20.7000  -26.6480   22.0530 C   0  0  0  0  0  2  0  0  0  0  0  0
  -19.5490  -26.4630   21.0590 C   0  0  0  0  0  2  0  0  0  0  0  0
  -18.1980  -26.5790   21.7710 C   0  0  0  0  0  2  0  0  0  0  0  0
  -19.2500  -28.5370   23.0500 C   0  0  0  0  0  0  0  0  0  0  0  0
  -19.0910  -29.7390   23.7730 C   0  0  0  0  0  3  0  0  0  0  0  0
  -17.8090  -30.2550   24.0420 C   0  0  0  0  0  3  0  0  0  0  0  0
  -16.6670  -29.5680   23.5970 C   0  0  0  0  0  3  0  0  0  0  0  0
  -16.8100  -28.3670   22.8770 C   0  0  0  0  0  3  0  0  0  0  0  0
  -25.9570  -32.1000   23.6680 C   0  0  0  0  0  3  0  0  0  0  0  0
  -25.6430  -33.4570   24.1360 N   0  0  0  0  0  0  0  0  0  0  0  0
  -25.9630  -34.5820   23.4790 C   0  0  0  0  0  0  0  0  0  0  0  0
  -26.6190  -34.5810   22.4340 O   0  0  0  0  0  0  0  0  0  0  0  0
  -25.0520  -33.5290   24.9510 H   0  0  0  0  0  0  0  0  0  0  0  0
  -24.2150  -36.3800   23.3180 C   0  0  0  0  0  1  0  0  0  0  0  0
  -25.4710  -35.9130   24.0730 C   0  0  0  0  0  3  0  0  0  0  0  0
  -27.6110  -36.7310   24.9560 C   0  0  0  0  0  1  0  0  0  0  0  0
  -26.4950  -36.9810   24.0480 N   0  0  0  0  0  0  0  0  0  0  0  0
  -26.0860  -37.8800   24.2890 H   0  0  0  0  0  0  0  0  0  0  0  0
  -26.4990  -31.2130   24.8530 C   0  0  1  0  0  0  0  0  0  0  0  0
  -25.4290  -30.8780   25.9160 C   0  0  0  0  0  1  0  0  0  0  0  0
  -27.0680  -29.8840   24.3080 C   0  0  0  0  0  1  0  0  0  0  0  0
  -27.6710  -31.9350   25.5600 C   0  0  0  0  0  1  0  0  0  0  0  0
  1  2  2  0
  1  4  1  0
  2  6  1  0
  3  5  1  0
  4  3  2  0
  5 46  1  0
  6 15  1  0
  6  5  2  0
  7 13  1  0
  7 15  1  0
  8 13  1  0
  9 10  1  0
  9  8  1  0
 11 10  1  0
 11 20  1  0
 11 12  1  0
 13 12  1  0
 14  7  2  0
 15 16  1  0
 17 18  2  0
 18 37  1  0
 19 18  1  0
 19 22  1  0
 20 21  1  0
 20 17  1  0
 21 19  2  0
 22 23  1  0
 23 24  2  0
 25 28  1  0
 25 24  1  0
 26 25  2  0
 27 26  1  0
 27 22  2  0
 28 29  1  0
 29 34  2  0
 29 30  1  0
 30 31  2  0
 31 32  1  0
 32 36  1  0
 33 32  2  0
 34 33  1  0
 35 34  1  0
 37 38  1  0
 38 41  1  0
 38 40  1  0
 39 37  2  0
 42 17  1  0
 42 43  1  0
 44 42  1  0
 45 46  1  0
 47  4  1  0
 48 47  2  0
 49 48  1  0
 49 50  1  0
 51 53  1  0
 51 50  1  0
 52 63  2  0
 53 58  1  0
 54 62  1  0
 54 64  1  0
 55 61  1  0
 55 57  1  0
 56 62  1  0
 57 56  1  0
 58 57  2  0
 59 60  1  0
 59 53  2  0
 60 55  2  0
 61 54  1  0
 62 52  1  0
 64 66  2  0
 65 64  1  0
 67 65  1  0
 68 77  2  0
 68 73  1  0
 69 65  1  0
 69 73  1  0
 70 69  1  0
 71 72  1  0
 71 70  1  0
 72 68  1  0
 73 74  2  0
 74 75  1  0
 76 75  2  0
 77 76  1  0
 78 52  1  0
 78 79  1  0
 78 88  1  0
 79 82  1  0
 80 84  1  0
 80 79  1  0
 81 80  2  0
 84 83  1  0
 86 84  1  0
 86 87  1  0
 86 85  1  0
 88 91  1  1
 88 89  1  0
 90 88  1  0
M  ISO  4   7 100  15 100  50 101  51 101
M  END
>  <TORSDO>  (11) 
F 21

>  <SCORE>  (11) 
-11.370

>  <name>  (11) 
10

>  <ligand_id>  (11) 
10

>  <original_smiles>  (11) 
[H]c1c([H])c([H])c2c(c1[H])C([H])([H])C([H])([H])C([H])([H])C2([H])N([H])C(=O)C1([H])N(C(=O)C([H])(N([H])C(=O)C([H])(N([H])C([H])([H])[H])C([H])([H])[H])C(C([H])([H])[H])(C([H])([H])[H])C([H])([H])[H])C([H])([H])c2c([H])c(OC([H])([H])C([H])([H])C([H])([H])C([H])([H])c3c([H])c([H])c(N([H])C(=O)N4C([H])([H])C([H])([H])C([H])([H])C([H])(n5nc(-c6c([H])c([H])c(Oc7c([H])c([H])c(F)c([H])c7F)c([H])c6[H])c(C(=O)N([H])[H])c5N([H])[H])C4([H])[H])c(C([H])([H])C([H])([H])[H])c3[H])c([H])c([H])c2C1([H])[H]

>  <smiles>  (11) 
[H]c1c([H])c([H])c2c(c1[H])C([H])([H])C([H])([H])C([H])([H])C2([H])N([H])C(=O)C1([H])N(C(=O)C([H])(N([H])C(=O)C([H])(N([H])C([H])([H])[H])C([H])([H])[H])C(C([H])([H])[H])(C([H])([H])[H])C([H])([H])[H])C([H])([H])c2c([H])c(OC([H])([H])C([H])([H])C([H])([H])C([H])([H])c3c([H])c([H])c(N([H])C(=O)N4C([H])([H])C([H])([H])C([H])([H])C([H])(n5nc(-c6c([H])c([H])c(Oc7c([H])c([H])c(F)c([H])c7F)c([H])c6[H])c(C(=O)N([H])[H])c5N([H])[H])C4([H])[H])c(C([H])([H])C([H])([H])[H])c3[H])c([H])c([H])c2C1([H])[H]

$$$$
11:0:0
     RDKit          3D

 92100  0  0  1  0  0  0  0  0999 V2000
  -29.5810  -20.3440   23.0430 C   0  0  0  0  0  3  0  0  0  0  0  0
  -29.0410  -21.3940   22.2770 C   0  0  0  0  0  3  0  0  0  0  0  0
  -30.3640  -20.6760   20.3700 C   0  0  0  0  0  3  0  0  0  0  0  0
  -30.5010  -19.4400   22.4750 C   0  0  0  0  0  0  0  0  0  0  0  0
  -29.4470  -21.5990   20.9430 C   0  0  0  0  0  0  0  0  0  0  0  0
  -30.8640  -19.5710   21.1120 C   0  0  0  0  0  0  0  0  0  0  0  0
  -31.1080  -18.3630   23.3570 C   0  0  0  0  0  1  0  0  0  0  0  0
  -28.9030  -22.6960   20.2900 O   0  0  0  0  0  0  0  0  0  0  0  0
  -29.6400  -23.2770   19.2110 C   0  0  0  0  0  2  0  0  0  0  0  0
  -29.9630  -25.1850   17.5960 C   0  0  0  0  0  1  0  0  0  0  0  0
  -29.0710  -24.6440   18.7280 C   0  0  0  0  0  3  0  0  0  0  0  0
  -28.9250  -25.6950   19.8590 C   0  0  0  0  0  2  0  0  0  0  0  0
  -28.7850  -27.0530   19.4040 O   0  0  0  0  0  0  0  0  0  0  0  0
  -24.5690  -31.4450   23.0790 C   0  0  0  0  0  0  0  0  0  0  0  0
  -27.5440  -27.6370   19.5070 C   0  0  0  0  0  0  0  0  0  0  0  0
  -23.4610  -30.1230   21.3040 C   0  0  0  0  0  3  0  0  0  0  0  0
  -25.0200  -28.8940   19.7030 C   0  0  0  0  0  0  0  0  0  0  0  0
  -25.9340  -30.7480   21.1120 C   0  0  0  0  0  2  0  0  0  0  0  0
  -26.1360  -29.4670   20.3270 C   0  0  0  0  0  0  0  0  0  0  0  0
  -27.4030  -28.8500   20.2190 C   0  0  0  0  0  3  0  0  0  0  0  0
  -26.4120  -27.0710   18.8850 C   0  0  0  0  0  3  0  0  0  0  0  0
  -25.1530  -27.6970   18.9770 C   0  0  0  0  0  3  0  0  0  0  0  0
  -23.7010  -29.6170   19.8560 C   0  0  0  0  0  2  0  0  0  0  0  0
  -24.6730  -30.7820   21.8920 N   0  0  0  0  0  0  0  0  0  0  0  0
  -23.4790  -31.5520   23.6590 O   0  0  0  0  0  0  0  0  0  0  0  0
  -22.9300  -28.9470   22.1560 C   0  0  0  0  0  0  0  0  0  0  0  0
  -21.6280  -28.6480   22.0140 N   0  0  0  0  0  0  0  0  0  0  0  0
  -23.6840  -28.3100   22.8960 O   0  0  0  0  0  0  0  0  0  0  0  0
  -21.0770  -29.2200   21.3890 H   0  0  0  0  0  0  0  0  0  0  0  0
  -18.3980  -27.0700   22.3720 C   0  0  0  0  0  0  0  0  0  0  0  0
  -20.9170  -27.5590   22.6820 C   0  0  0  0  0  3  0  0  0  0  0  0
  -21.1620  -26.2130   21.9620 C   0  0  0  0  0  2  0  0  0  0  0  0
  -20.0920  -25.8840   20.9150 C   0  0  0  0  0  2  0  0  0  0  0  0
  -18.7070  -25.8210   21.5650 C   0  0  0  0  0  2  0  0  0  0  0  0
  -19.4360  -27.8940   22.8840 C   0  0  0  0  0  0  0  0  0  0  0  0
  -19.0920  -29.0630   23.6000 C   0  0  0  0  0  3  0  0  0  0  0  0
  -17.7440  -29.4090   23.8070 C   0  0  0  0  0  3  0  0  0  0  0  0
  -16.7220  -28.5800   23.3140 C   0  0  0  0  0  3  0  0  0  0  0  0
  -17.0490  -27.4110   22.6030 C   0  0  0  0  0  3  0  0  0  0  0  0
  -25.8060  -32.1200   23.7500 C   0  0  0  0  0  3  0  0  0  0  0  0
  -25.4410  -33.5110   24.0460 N   0  0  0  0  0  0  0  0  0  0  0  0
  -25.7940  -34.5640   23.2950 C   0  0  0  0  0  0  0  0  0  0  0  0
  -26.5280  -34.4680   22.3080 O   0  0  0  0  0  0  0  0  0  0  0  0
  -24.7920  -33.6580   24.8040 H   0  0  0  0  0  0  0  0  0  0  0  0
  -24.0460  -36.3080   22.8130 C   0  0  0  0  0  1  0  0  0  0  0  0
  -25.2430  -35.9430   23.7060 C   0  0  0  0  0  3  0  0  0  0  0  0
  -27.3010  -36.8890   24.6570 C   0  0  0  0  0  1  0  0  0  0  0  0
  -26.2540  -37.0220   23.6460 N   0  0  0  0  0  0  0  0  0  0  0  0
  -25.8160  -37.9320   23.7580 H   0  0  0  0  0  0  0  0  0  0  0  0
  -26.2880  -31.3780   25.0570 C   0  0  1  0  0  0  0  0  0  0  0  0
  -25.1520  -31.1020   26.0690 C   0  0  0  0  0  1  0  0  0  0  0  0
  -26.9420  -30.0220   24.7010 C   0  0  0  0  0  1  0  0  0  0  0  0
  -27.3690  -32.2210   25.7710 C   0  0  0  0  0  1  0  0  0  0  0  0
  -31.7350  -18.6860   20.5040 O   0  0  0  0  0  0  0  0  0  0  0  0
  -31.2280  -17.3700   20.2070 C   0  0  0  0  0  2  0  0  0  0  0  0
  -32.0220  -16.2400   20.9240 C   0  0  0  0  0  2  0  0  0  0  0  0
  -32.3840  -15.0320   20.0260 C   0  0  0  0  0  0  0  0  0  0  0  0
  -31.9030  -12.7970   19.0760 C   0  0  0  0  0  2  0  0  0  0  0  0
  -30.9230  -12.9130   17.8920 C   0  0  0  0  0  2  0  0  0  0  0  0
  -29.4680  -12.8760   18.3960 C   0  0  0  0  0  2  0  0  0  0  0  0
  -29.2200  -13.8730   19.5560 C   0  0  0  0  0  3  0  0  0  0  0  0
  -30.3070  -13.7330   20.6440 C   0  0  0  0  0  2  0  0  0  0  0  0
  -31.6240  -13.9010   20.0090 N   0  0  0  0  0  0  0  0  0  0  0  0
  -33.4010  -15.1400   19.3350 O   0  0  0  0  0  0  0  0  0  0  0  0
  -26.9800  -14.6980   20.5200 C   0  0  0  0  0  0  0  0  0  0  0  0
  -25.8460  -14.0320   20.9010 C   0  0  0  0  0  0  0  0  0  0  0  0
  -26.1160  -12.6450   20.6980 C   0  0  0  0  0  0  0  0  0  0  0  0
  -27.8770  -13.7210   20.1140 N   0  0  0  0  0  0  0  0  0  0  0  0
  -27.3630  -12.4760   20.2760 N   0  0  0  0  0  0  0  0  0  0  0  0
  -25.2410  -11.4710   20.8250 C   0  0  0  0  0  0  0  0  0  0  0  0
  -25.5780  -10.3850   21.6620 C   0  0  0  0  0  3  0  0  0  0  0  0
  -24.7100   -9.2780   21.7810 C   0  0  0  0  0  3  0  0  0  0  0  0
  -23.4910   -9.2500   21.0620 C   0  0  0  0  0  0  0  0  0  0  0  0
  -23.1730  -10.3240   20.2140 C   0  0  0  0  0  3  0  0  0  0  0  0
  -24.0390  -11.4230   20.0920 C   0  0  0  0  0  3  0  0  0  0  0  0
  -22.5990   -8.2060   21.0930 O   0  0  0  0  0  0  0  0  0  0  0  0
  -22.3500   -7.5090   22.2470 C   0  0  0  0  0  0  0  0  0  0  0  0
  -21.8780   -8.1460   23.4160 C   0  0  0  0  0  3  0  0  0  0  0  0
  -21.5690   -7.3830   24.5570 C   0  0  0  0  0  3  0  0  0  0  0  0
  -21.7230   -5.9830   24.5330 C   0  0  0  0  0  0  0  0  0  0  0  0
  -22.1880   -5.3460   23.3680 C   0  0  0  0  0  3  0  0  0  0  0  0
  -22.4980   -6.1070   22.2280 C   0  0  0  0  0  0  0  0  0  0  0  0
  -22.9260   -5.4870   21.1020 F   0  0  0  0  0  0  0  0  0  0  0  0
  -21.4190   -5.2460   25.6270 F   0  0  0  0  0  0  0  0  0  0  0  0
  -24.5500  -14.6520   21.3370 C   0  0  0  0  0  0  0  0  0  0  0  0
  -23.8120  -13.9730   22.2080 N   0  0  0  0  0  0  0  0  0  0  0  0
  -24.2080  -15.7650   20.9430 O   0  0  0  0  0  0  0  0  0  0  0  0
  -24.1020  -13.0680   22.5430 H   0  0  0  0  0  0  0  0  0  0  0  0
  -22.9450  -14.3680   22.5450 H   0  0  0  0  0  0  0  0  0  0  0  0
  -27.3160  -16.0470   20.4670 N   0  0  0  0  0  0  0  0  0  0  0  0
  -26.6590  -16.7790   20.7130 H   0  0  0  0  0  0  0  0  0  0  0  0
  -28.1840  -16.4050   20.0880 H   0  0  0  0  0  0  0  0  0  0  0  0
  2  1  2  0
  3  5  2  0
  3  6  1  0
  4  1  1  0
  4  7  1  0
  5  2  1  0
  6  4  2  0
  8  5  1  0
  9  8  1  0
 11 10  1  0
 11  9  1  0
 11 12  1  0
 13 15  1  0
 13 12  1  0
 14 25  2  0
 15 20  1  0
 16 24  1  0
 16 26  1  0
 17 23  1  0
 17 19  1  0
 18 24  1  0
 19 18  1  0
 20 19  2  0
 21 22  1  0
 21 15  2  0
 22 17  2  0
 23 16  1  0
 24 14  1  0
 26 28  2  0
 27 26  1  0
 29 27  1  0
 30 39  2  0
 30 35  1  0
 31 27  1  0
 31 35  1  0
 32 31  1  0
 33 34  1  0
 33 32  1  0
 34 30  1  0
 35 36  2  0
 36 37  1  0
 38 37  2  0
 39 38  1  0
 40 14  1  0
 40 41  1  0
 40 50  1  0
 41 44  1  0
 42 46  1  0
 42 41  1  0
 43 42  2  0
 46 45  1  0
 48 46  1  0
 48 49  1  0
 48 47  1  0
 50 53  1  1
 50 51  1  0
 52 50  1  0
 54  6  1  0
 55 54  1  0
 55 56  1  0
 57 56  1  0
 58 63  1  0
 59 60  1  0
 59 58  1  0
 61 60  1  0
 61 68  1  0
 61 62  1  0
 63 57  1  0
 63 62  1  0
 64 57  2  0
 65 66  2  0
 66 85  1  0
 67 70  1  0
 67 66  1  0
 68 69  1  0
 68 65  1  0
 69 67  2  0
 70 71  1  0
 71 72  2  0
 73 76  1  0
 73 72  1  0
 74 73  2  0
 75 74  1  0
 75 70  2  0
 76 77  1  0
 77 78  1  0
 78 79  2  0
 80 79  1  0
 80 84  1  0
 81 80  2  0
 82 77  2  0
 82 81  1  0
 83 82  1  0
 85 86  1  0
 86 88  1  0
 86 89  1  0
 87 85  2  0
 90 65  1  0
 90 91  1  0
 92 90  1  0
M  ISO  4  12 101  13 101  56 100  57 100
M  END
>  <TORSDO>  (12) 
F 23

>  <SCORE>  (12) 
-7.350

>  <name>  (12) 
11

>  <ligand_id>  (12) 
11

>  <original_smiles>  (12) 
[H]c1c([H])c([H])c2c(c1[H])C([H])([H])C([H])([H])C([H])([H])C2([H])N([H])C(=O)C1([H])N(C(=O)C([H])(N([H])C(=O)C([H])(N([H])C([H])([H])[H])C([H])([H])[H])C(C([H])([H])[H])(C([H])([H])[H])C([H])([H])[H])C([H])([H])c2c([H])c(OC([H])([H])C([H])(C([H])([H])[H])C([H])([H])Oc3c([H])c([H])c(C([H])([H])[H])c(OC([H])([H])C([H])([H])C(=O)N4C([H])([H])C([H])([H])C([H])([H])C([H])(n5nc(-c6c([H])c([H])c(Oc7c([H])c([H])c(F)c([H])c7F)c([H])c6[H])c(C(=O)N([H])[H])c5N([H])[H])C4([H])[H])c3[H])c([H])c([H])c2C1([H])[H]

>  <smiles>  (12) 
[H]c1c([H])c([H])c2c(c1[H])C([H])([H])C([H])([H])C([H])([H])C2([H])N([H])C(=O)C1([H])N(C(=O)C([H])(N([H])C(=O)C([H])(N([H])C([H])([H])[H])C([H])([H])[H])C(C([H])([H])[H])(C([H])([H])[H])C([H])([H])[H])C([H])([H])c2c([H])c(OC([H])([H])C([H])(C([H])([H])[H])C([H])([H])Oc3c([H])c([H])c(C([H])([H])[H])c(OC([H])([H])C([H])([H])C(=O)N4C([H])([H])C([H])([H])C([H])([H])C([H])(n5nc(-c6c([H])c([H])c(Oc7c([H])c([H])c(F)c([H])c7F)c([H])c6[H])c(C(=O)N([H])[H])c5N([H])[H])C4([H])[H])c3[H])c([H])c([H])c2C1([H])[H]

$$$$
12:0:0
     RDKit          3D

 93101  0  0  1  0  0  0  0  0999 V2000
  -31.7180  -17.2150   21.7110 C   0  0  0  0  0  3  0  0  0  0  0  0
  -31.4100  -19.6200   21.4740 C   0  0  0  0  0  3  0  0  0  0  0  0
  -29.6090  -18.0960   20.8350 C   0  0  0  0  0  0  0  0  0  0  0  0
  -30.4260  -16.9760   21.1880 C   0  0  0  0  0  0  0  0  0  0  0  0
  -30.1030  -19.4310   20.9610 C   0  0  0  0  0  0  0  0  0  0  0  0
  -32.2050  -18.5240   21.8500 C   0  0  0  0  0  0  0  0  0  0  0  0
  -33.4480  -18.7320   22.3460 F   0  0  0  0  0  0  0  0  0  0  0  0
  -30.6230  -14.5880   20.5040 C   0  0  0  0  0  0  0  0  0  0  0  0
  -30.3250  -12.4130   19.3730 C   0  0  0  0  0  2  0  0  0  0  0  0
  -29.4070  -12.5920   18.1480 C   0  0  0  0  0  2  0  0  0  0  0  0
  -27.9280  -12.4520   18.5540 C   0  0  0  0  0  2  0  0  0  0  0  0
  -27.5630  -13.3130   19.7940 C   0  0  0  0  0  3  0  0  0  0  0  0
  -28.5990  -13.1300   20.9250 C   0  0  0  0  0  2  0  0  0  0  0  0
  -29.9320  -13.4210   20.3730 N   0  0  0  0  0  0  0  0  0  0  0  0
  -31.7520  -14.7390   20.0290 O   0  0  0  0  0  0  0  0  0  0  0  0
  -29.9520  -15.6240   21.0550 N   0  0  0  0  0  0  0  0  0  0  0  0
  -28.9840  -15.4490   21.2780 H   0  0  0  0  0  0  0  0  0  0  0  0
  -25.1570  -13.9210   20.4670 C   0  0  0  0  0  0  0  0  0  0  0  0
  -24.0820  -13.1510   20.8220 C   0  0  0  0  0  0  0  0  0  0  0  0
  -24.5400  -11.7980   20.7960 C   0  0  0  0  0  0  0  0  0  0  0  0
  -26.2040  -13.0390   20.2530 N   0  0  0  0  0  0  0  0  0  0  0  0
  -25.8350  -11.7570   20.5070 N   0  0  0  0  0  0  0  0  0  0  0  0
  -23.8080  -10.5380   20.9730 C   0  0  0  0  0  0  0  0  0  0  0  0
  -24.2330   -9.5600   21.9000 C   0  0  0  0  0  3  0  0  0  0  0  0
  -23.5030   -8.3640   22.0650 C   0  0  0  0  0  3  0  0  0  0  0  0
  -22.3320   -8.1370   21.3040 C   0  0  0  0  0  0  0  0  0  0  0  0
  -21.9250   -9.1030   20.3660 C   0  0  0  0  0  3  0  0  0  0  0  0
  -22.6570  -10.2890   20.1990 C   0  0  0  0  0  3  0  0  0  0  0  0
  -21.5720   -6.9940   21.3790 O   0  0  0  0  0  0  0  0  0  0  0  0
  -21.5210   -6.2380   22.5220 C   0  0  0  0  0  0  0  0  0  0  0  0
  -21.1050   -6.7800   23.7580 C   0  0  0  0  0  3  0  0  0  0  0  0
  -21.0020   -5.9510   24.8920 C   0  0  0  0  0  3  0  0  0  0  0  0
  -21.3030   -4.5790   24.7930 C   0  0  0  0  0  0  0  0  0  0  0  0
  -21.7130   -4.0360   23.5620 C   0  0  0  0  0  3  0  0  0  0  0  0
  -21.8180   -4.8620   22.4290 C   0  0  0  0  0  0  0  0  0  0  0  0
  -22.1920   -4.3300   21.2410 F   0  0  0  0  0  0  0  0  0  0  0  0
  -21.1960   -3.7800   25.8800 F   0  0  0  0  0  0  0  0  0  0  0  0
  -22.6820  -13.6310   21.0740 C   0  0  0  0  0  0  0  0  0  0  0  0
  -21.9410  -12.9390   21.9320 N   0  0  0  0  0  0  0  0  0  0  0  0
  -22.2510  -14.6550   20.5450 O   0  0  0  0  0  0  0  0  0  0  0  0
  -22.3010  -12.1100   22.3820 H   0  0  0  0  0  0  0  0  0  0  0  0
  -21.0010  -13.2430   22.1450 H   0  0  0  0  0  0  0  0  0  0  0  0
  -25.3260  -15.2900   20.2880 N   0  0  0  0  0  0  0  0  0  0  0  0
  -24.5510  -15.9400   20.3670 H   0  0  0  0  0  0  0  0  0  0  0  0
  -26.1650  -15.7160   19.9190 H   0  0  0  0  0  0  0  0  0  0  0  0
  -28.1940  -17.5240   18.7990 C   0  0  0  0  0  1  0  0  0  0  0  0
  -28.2010  -17.8660   20.2950 C   0  0  0  0  0  2  0  0  0  0  0  0
  -29.2980  -20.4990   20.5750 O   0  0  0  0  0  0  0  0  0  0  0  0
  -29.7900  -21.8460   20.7070 C   0  0  0  0  0  2  0  0  0  0  0  0
  -28.7350  -22.8680   20.2210 C   0  0  0  0  0  2  0  0  0  0  0  0
  -29.1260  -24.3710   20.3530 C   0  0  0  0  0  2  0  0  0  0  0  0
  -27.9870  -25.3040   19.8700 C   0  0  0  0  0  2  0  0  0  0  0  0
  -28.1870  -26.7260   20.0520 O   0  0  0  0  0  0  0  0  0  0  0  0
  -24.5010  -31.9820   23.1870 C   0  0  0  0  0  0  0  0  0  0  0  0
  -27.0370  -27.5050   20.0350 C   0  0  0  0  0  0  0  0  0  0  0  0
  -23.2460  -30.5840   21.5830 C   0  0  0  0  0  3  0  0  0  0  0  0
  -24.6540  -29.0510   20.1120 C   0  0  0  0  0  0  0  0  0  0  0  0
  -25.7720  -30.9290   21.3160 C   0  0  0  0  0  2  0  0  0  0  0  0
  -25.8350  -29.5580   20.6690 C   0  0  0  0  0  0  0  0  0  0  0  0
  -27.0290  -28.7940   20.6270 C   0  0  0  0  0  3  0  0  0  0  0  0
  -25.8320  -27.0350   19.4540 C   0  0  0  0  0  3  0  0  0  0  0  0
  -24.6500  -27.7890   19.5000 C   0  0  0  0  0  3  0  0  0  0  0  0
  -23.4160  -29.9120   20.1960 C   0  0  0  0  0  2  0  0  0  0  0  0
  -24.5270  -31.1790   22.0860 N   0  0  0  0  0  0  0  0  0  0  0  0
  -23.4350  -32.2560   23.7560 O   0  0  0  0  0  0  0  0  0  0  0  0
  -22.6220  -29.5600   22.5590 C   0  0  0  0  0  0  0  0  0  0  0  0
  -21.2960  -29.3640   22.4560 N   0  0  0  0  0  0  0  0  0  0  0  0
  -23.3240  -28.9460   23.3660 O   0  0  0  0  0  0  0  0  0  0  0  0
  -20.7910  -29.9120   21.7740 H   0  0  0  0  0  0  0  0  0  0  0  0
  -17.9460  -28.1180   22.9930 C   0  0  0  0  0  0  0  0  0  0  0  0
  -20.5010  -28.4250   23.2460 C   0  0  0  0  0  3  0  0  0  0  0  0
  -20.6260  -26.9870   22.6930 C   0  0  0  0  0  2  0  0  0  0  0  0
  -19.5240  -26.6280   21.6910 C   0  0  0  0  0  2  0  0  0  0  0  0
  -18.1430  -26.7600   22.3410 C   0  0  0  0  0  2  0  0  0  0  0  0
  -19.0540  -28.9060   23.4050 C   0  0  0  0  0  0  0  0  0  0  0  0
  -18.8170  -30.1760   23.9740 C   0  0  0  0  0  3  0  0  0  0  0  0
  -17.5040  -30.6580   24.1390 C   0  0  0  0  0  3  0  0  0  0  0  0
  -16.4110  -29.8670   23.7440 C   0  0  0  0  0  3  0  0  0  0  0  0
  -16.6330  -28.5990   23.1780 C   0  0  0  0  0  3  0  0  0  0  0  0
  -25.8050  -32.6110   23.7690 C   0  0  0  0  0  3  0  0  0  0  0  0
  -25.5060  -34.0070   24.1140 N   0  0  0  0  0  0  0  0  0  0  0  0
  -25.8110  -35.0620   23.3470 C   0  0  0  0  0  0  0  0  0  0  0  0
  -26.4460  -34.9630   22.2940 O   0  0  0  0  0  0  0  0  0  0  0  0
  -24.9390  -34.1590   24.9360 H   0  0  0  0  0  0  0  0  0  0  0  0
  -24.0650  -36.8480   23.0540 C   0  0  0  0  0  1  0  0  0  0  0  0
  -25.3330  -36.4470   23.8230 C   0  0  0  0  0  3  0  0  0  0  0  0
  -27.4960  -37.3320   24.5790 C   0  0  0  0  0  1  0  0  0  0  0  0
  -26.3570  -37.5060   23.6810 N   0  0  0  0  0  0  0  0  0  0  0  0
  -25.9530  -38.4220   23.8550 H   0  0  0  0  0  0  0  0  0  0  0  0
  -26.3630  -31.8340   25.0240 C   0  0  1  0  0  0  0  0  0  0  0  0
  -25.3070  -31.5910   26.1260 C   0  0  0  0  0  1  0  0  0  0  0  0
  -26.9330  -30.4590   24.6050 C   0  0  0  0  0  1  0  0  0  0  0  0
  -27.5350  -32.6260   25.6510 C   0  0  0  0  0  1  0  0  0  0  0  0
  1  6  1  0
  2  6  2  0
  3  5  2  0
  3  4  1  0
  4  1  2  0
  5  2  1  0
  6  7  1  0
  8 16  1  0
  9 14  1  0
 10 11  1  0
 10  9  1  0
 12 11  1  0
 12 21  1  0
 12 13  1  0
 14  8  1  0
 14 13  1  0
 15  8  2  0
 16  4  1  0
 16 17  1  0
 18 19  2  0
 19 38  1  0
 20 19  1  0
 20 23  1  0
 21 18  1  0
 21 22  1  0
 22 20  2  0
 23 24  1  0
 24 25  2  0
 26 29  1  0
 26 25  1  0
 27 26  2  0
 28 27  1  0
 28 23  2  0
 29 30  1  0
 30 31  1  0
 31 32  2  0
 33 32  1  0
 33 37  1  0
 34 33  2  0
 35 30  2  0
 35 34  1  0
 36 35  1  0
 38 39  1  0
 39 42  1  0
 39 41  1  0
 40 38  2  0
 43 44  1  0
 43 18  1  0
 45 43  1  0
 46 47  1  0
 47  3  1  0
 48 49  1  0
 48  5  1  0
 50 51  1  0
 50 49  1  0
 52 53  1  0
 52 51  1  0
 54 65  2  0
 55 53  1  0
 55 60  1  0
 56 64  1  0
 56 66  1  0
 57 63  1  0
 57 59  1  0
 58 64  1  0
 59 58  1  0
 60 59  2  0
 61 62  1  0
 61 55  2  0
 62 57  2  0
 63 56  1  0
 64 54  1  0
 66 68  2  0
 67 66  1  0
 69 67  1  0
 70 79  2  0
 70 75  1  0
 71 67  1  0
 71 75  1  0
 72 71  1  0
 73 74  1  0
 73 72  1  0
 74 70  1  0
 75 76  2  0
 76 77  1  0
 78 77  2  0
 79 78  1  0
 80 54  1  0
 80 81  1  0
 80 90  1  0
 81 84  1  0
 82 86  1  0
 82 81  1  0
 83 82  2  0
 86 85  1  0
 88 86  1  0
 88 89  1  0
 88 87  1  0
 90 93  1  1
 90 91  1  0
 92 90  1  0
M  ISO  4   8 100  16 100  52 101  53 101
M  END
>  <TORSDO>  (13) 
F 22

>  <SCORE>  (13) 
-12.534

>  <name>  (13) 
12

>  <ligand_id>  (13) 
12

>  <original_smiles>  (13) 
[H]c1c([H])c([H])c2c(c1[H])C([H])([H])C([H])([H])C([H])([H])C2([H])N([H])C(=O)C1([H])N(C(=O)C([H])(N([H])C(=O)C([H])(N([H])C([H])([H])[H])C([H])([H])[H])C(C([H])([H])[H])(C([H])([H])[H])C([H])([H])[H])C([H])([H])c2c([H])c(OC([H])([H])C([H])([H])C([H])([H])C([H])([H])Oc3c([H])c(F)c([H])c(N([H])C(=O)N4C([H])([H])C([H])([H])C([H])([H])C([H])(n5nc(-c6c([H])c([H])c(Oc7c([H])c([H])c(F)c([H])c7F)c([H])c6[H])c(C(=O)N([H])[H])c5N([H])[H])C4([H])[H])c3C([H])([H])C([H])([H])[H])c([H])c([H])c2C1([H])[H]

>  <smiles>  (13) 
[H]c1c([H])c([H])c2c(c1[H])C([H])([H])C([H])([H])C([H])([H])C2([H])N([H])C(=O)C1([H])N(C(=O)C([H])(N([H])C(=O)C([H])(N([H])C([H])([H])[H])C([H])([H])[H])C(C([H])([H])[H])(C([H])([H])[H])C([H])([H])[H])C([H])([H])c2c([H])c(OC([H])([H])C([H])([H])C([H])([H])C([H])([H])Oc3c([H])c(F)c([H])c(N([H])C(=O)N4C([H])([H])C([H])([H])C([H])([H])C([H])(n5nc(-c6c([H])c([H])c(Oc7c([H])c([H])c(F)c([H])c7F)c([H])c6[H])c(C(=O)N([H])[H])c5N([H])[H])C4([H])[H])c3C([H])([H])C([H])([H])[H])c([H])c([H])c2C1([H])[H]

$$$$
13:0:0
     RDKit          3D

 90 91  0  0  1  0  0  0  0  0999 V2000
  -18.3340  -25.4300   21.0560 C   0  0  0  0  0  3  0  0  0  0  0  0
  -18.8740  -23.8240   21.6510 C   0  0  0  0  0  2  0  0  0  0  0  0
  -21.3840  -24.8030   21.5470 C   0  0  0  0  0 15  0  0  0  0  0  0
  -19.7860  -26.5610   20.8290 C   0  0  1  0  0  0  0  0  0  0  0  0
  -22.0150  -22.8800   21.1800 C   0  0  0  0  0  1  0  0  0  0  0  0
  -20.3450  -22.8450   21.5880 C   0  0  0  0  0  3  0  0  0  0  0  0
  -19.9560  -21.4050   21.8600 C   0  0  0  0  0  1  0  0  0  0  0  0
  -19.9180  -28.4850   21.0520 C   0  0  0  0  0  2  0  0  0  0  0  0
  -20.6890  -29.4290   22.1360 C   0  0  0  0  0  1  0  0  0  0  0  0
  -22.0660  -28.9470   23.6350 C   0  0  0  0  0 15  0  0  0  0  0  0
  -23.8980  -27.7080   23.6420 C   0  0  0  0  0 15  0  0  0  0  0  0
  -25.3620  -27.1110   22.6330 O   0  0  0  0  0  1  0  0  0  0  0  0
  -24.7310  -32.1840   23.0680 C   0  0  0  0  0  0  0  0  0  0  0  0
  -26.3180  -27.4990   21.5900 C   0  0  0  0  0  3  0  0  0  0  0  0
  -23.9700  -30.9870   20.8950 C   0  0  0  0  0  3  0  0  0  0  0  0
  -25.6390  -29.3680   19.8890 C   0  0  0  0  0  3  0  0  0  0  0  0
  -26.4300  -31.1270   21.5400 C   0  0  0  0  0  2  0  0  0  0  0  0
  -26.4870  -29.7110   20.9640 C   0  0  0  0  0  3  0  0  0  0  0  0
  -27.0540  -28.6820   21.7200 C   0  0  0  0  0  2  0  0  0  0  0  0
  -26.0970  -27.0350   20.2650 C   0  0  0  0  0  2  0  0  0  0  0  0
  -25.5980  -28.0340   19.4140 C   0  0  0  0  0  2  0  0  0  0  0  0
  -24.5590  -30.4010   19.5810 C   0  0  0  0  0  2  0  0  0  0  0  0
  -25.0540  -31.6270   21.8230 N   0  0  0  0  0  0  0  0  0  0  0  0
  -23.5500  -32.4180   23.3850 O   0  0  0  0  0  0  0  0  0  0  0  0
  -23.5370  -29.7180   21.5500 C   0  0  0  0  0  0  0  0  0  0  0  0
  -22.6970  -28.6920   21.1620 N   0  0  0  0  0  0  0  0  0  0  0  0
  -24.1590  -29.6610   22.5430 O   0  0  0  0  0  0  0  0  0  0  0  0
  -22.3720  -28.8370   20.2190 H   0  0  0  0  0  0  0  0  0  0  0  0
  -18.9380  -26.5830   22.5080 C   0  0  2  0  0  0  0  0  0  0  0  0
  -21.7730  -27.4910   21.8950 C   0  0  0  0  0  2  0  0  0  0  0  0
  -22.0710  -26.9890   20.2980 C   0  0  0  0  0  2  0  0  0  0  0  0
  -21.0850  -26.5880   19.0450 C   0  0  0  0  0  2  0  0  0  0  0  0
  -19.7700  -25.7410   19.4360 C   0  0  0  0  0  2  0  0  0  0  0  0
  -20.0650  -27.5240   23.1110 C   0  0  0  0  0  2  0  0  0  0  0  0
  -19.5410  -28.7380   24.0510 C   0  0  0  0  0  2  0  0  0  0  0  0
  -18.5290  -29.7770   23.7840 C   0  0  0  0  0  2  0  0  0  0  0  0
  -17.5280  -29.2040   23.0180 C   0  0  0  0  0  2  0  0  0  0  0  0
  -17.7060  -27.7320   22.6940 C   0  0  0  0  0  2  0  0  0  0  0  0
  -25.8200  -32.4960   24.1630 C   0  0  0  0  0  3  0  0  0  0  0  0
  -25.9150  -31.5700   25.4560 C   0  0  1  0  0  0  0  0  0  0  0  0
  -24.5830  -31.3490   26.2020 C   0  0  0  0  0  1  0  0  0  0  0  0
  -26.5140  -30.1920   25.1180 C   0  0  0  0  0  1  0  0  0  0  0  0
  -26.9050  -32.2060   26.4670 C   0  0  0  0  0  1  0  0  0  0  0  0
  -25.5350  -33.8650   24.5680 N   0  0  0  0  0  0  0  0  0  0  0  0
  -26.0740  -34.9240   23.9630 C   0  0  0  0  0  0  0  0  0  0  0  0
  -26.9280  -34.8250   23.0770 O   0  0  0  0  0  0  0  0  0  0  0  0
  -24.7900  -34.0050   25.2330 H   0  0  0  0  0  0  0  0  0  0  0  0
  -24.5720  -36.8470   23.3910 C   0  0  0  0  0  1  0  0  0  0  0  0
  -25.5880  -36.3080   24.4100 C   0  0  0  0  0  3  0  0  0  0  0  0
  -27.5690  -36.9540   25.7030 C   0  0  0  0  0  1  0  0  0  0  0  0
  -26.6900  -37.2750   24.5820 N   0  0  0  0  0  0  0  0  0  0  0  0
  -26.3270  -38.2140   24.7160 H   0  0  0  0  0  0  0  0  0  0  0  0
  -24.0200  -20.9170   20.5980 C   0  0  0  0  0 15  0  0  0  0  0  0
  -25.2250  -19.1640   20.2640 C   0  0  0  0  0 15  0  0  0  0  0  0
  -27.0520  -17.5010   19.6840 C   0  0  0  0  0  2  0  0  0  0  0  0
  -28.8720  -14.9220   18.5040 C   0  0  0  0  0  2  0  0  0  0  0  0
  -28.7150  -13.4890   17.6290 C   0  0  0  0  0  2  0  0  0  0  0  0
  -27.7630  -12.4750   18.2460 C   0  0  0  0  0  2  0  0  0  0  0  0
  -26.9540  -13.4170   19.1100 C   0  0  0  0  0  3  0  0  0  0  0  0
  -27.6390  -14.4210   20.1100 C   0  0  0  0  0  2  0  0  0  0  0  0
  -27.6580  -15.8160   19.4280 N   0  0  0  0  0  0  0  0  0  0  0  0
  -28.3520  -17.5290   19.2770 O   0  0  0  0  0  1  0  0  0  0  0  0
  -24.8970  -13.8470   20.2300 C   0  0  0  0  0  0  0  0  0  0  0  0
  -23.9850  -13.0660   20.8240 C   0  0  0  0  0  0  0  0  0  0  0  0
  -24.4140  -11.7190   20.6110 C   0  0  0  0  0  0  0  0  0  0  0  0
  -25.8190  -12.9630   19.7410 N   0  0  0  0  0  0  0  0  0  0  0  0
  -25.5930  -11.6680   20.0060 N   0  0  0  0  0  0  0  0  0  0  0  0
  -23.7140  -10.4780   20.8760 C   0  0  0  0  0  0  0  0  0  0  0  0
  -24.2530   -9.4890   21.7210 C   0  0  0  0  0  3  0  0  0  0  0  0
  -23.5230   -8.3140   21.9780 C   0  0  0  0  0  3  0  0  0  0  0  0
  -22.2490   -8.1330   21.3870 C   0  0  0  0  0  0  0  0  0  0  0  0
  -21.7350   -9.1120   20.5220 C   0  0  0  0  0  3  0  0  0  0  0  0
  -22.4650  -10.2780   20.2620 C   0  0  0  0  0  3  0  0  0  0  0  0
  -21.4710   -7.0190   21.5660 O   0  0  0  0  0  0  0  0  0  0  0  0
  -21.5070   -6.3060   22.7350 C   0  0  0  0  0  0  0  0  0  0  0  0
  -21.2090   -6.8990   23.9800 C   0  0  0  0  0  3  0  0  0  0  0  0
  -21.1910   -6.1100   25.1470 C   0  0  0  0  0  3  0  0  0  0  0  0
  -21.4600   -4.7310   25.0670 C   0  0  0  0  0  0  0  0  0  0  0  0
  -21.7550   -4.1380   23.8260 C   0  0  0  0  0  3  0  0  0  0  0  0
  -21.7740   -4.9250   22.6620 C   0  0  0  0  0  0  0  0  0  0  0  0
  -22.0390   -4.3510   21.4620 F   0  0  0  0  0  0  0  0  0  0  0  0
  -21.4320   -3.9680   26.1840 F   0  0  0  0  0  0  0  0  0  0  0  0
  -22.7340  -13.5870   21.4320 C   0  0  0  0  0  0  0  0  0  0  0  0
  -22.2120  -12.8860   22.4250 N   0  0  0  0  0  0  0  0  0  0  0  0
  -22.2580  -14.6630   21.0700 O   0  0  0  0  0  0  0  0  0  0  0  0
  -22.6280  -12.0190   22.7310 H   0  0  0  0  0  0  0  0  0  0  0  0
  -21.3820  -13.2200   22.8930 H   0  0  0  0  0  0  0  0  0  0  0  0
  -25.0010  -15.2280   20.0570 N   0  0  0  0  0  0  0  0  0  0  0  0
  -24.2020  -15.8220   20.2560 H   0  0  0  0  0  0  0  0  0  0  0  0
  -25.6220  -15.6030   19.3550 H   0  0  0  0  0  0  0  0  0  0  0  0
  1  2  1  0
  1 29  1  0
  4 33  1  1
  4  8  1  0
  4  1  1  0
  4 29  1  0
  5  6  1  0
  6  2  1  0
  6  7  1  0
  8  9  1  0
 13 24  2  0
 14 19  1  0
 14 12  1  0
 15 25  1  0
 15 23  1  0
 16 21  1  0
 16 18  1  0
 17 23  1  0
 18 17  1  0
 18 19  1  0
 20 14  1  0
 21 20  1  0
 22 16  1  0
 22 15  1  0
 23 13  1  0
 25 27  2  0
 26 25  1  0
 26 30  1  0
 28 26  1  0
 29 38  1  6
 29 34  1  0
 31 30  1  0
 32 33  1  0
 32 31  1  0
 34 35  1  0
 36 35  1  0
 37 36  1  0
 38 37  1  0
 39 13  1  0
 39 44  1  0
 39 40  1  0
 40 41  1  1
 40 43  1  0
 42 40  1  0
 44 47  1  0
 45 49  1  0
 45 44  1  0
 46 45  2  0
 49 48  1  0
 49 51  1  0
 51 52  1  0
 51 50  1  0
 56 61  1  0
 57 58  1  0
 57 56  1  0
 59 58  1  0
 59 66  1  0
 59 60  1  0
 61 55  1  0
 61 60  1  0
 62 55  1  0
 63 64  2  0
 64 83  1  0
 65 64  1  0
 65 68  1  0
 66 67  1  0
 66 63  1  0
 67 65  2  0
 68 69  1  0
 69 70  2  0
 71 74  1  0
 71 70  1  0
 72 71  2  0
 73 72  1  0
 73 68  2  0
 74 75  1  0
 75 76  1  0
 76 77  2  0
 78 77  1  0
 78 82  1  0
 79 78  2  0
 80 75  2  0
 80 79  1  0
 81 80  1  0
 83 84  1  0
 84 86  1  0
 84 87  1  0
 85 83  2  0
 88 63  1  0
 88 89  1  0
 90 88  1  0
M  ISO  4  11 101  12 101  54 100  55 100
M  END
>  <TORSDO>  (14) 
F 20

>  <SCORE>  (14) 
1.754

>  <name>  (14) 
13

>  <ligand_id>  (14) 
13

>  <original_smiles>  (14) 
[H]C(C(=O)N1C([H])([H])C([H])([H])C([H])([H])C([H])(n2nc(-c3c([H])c([H])c(Oc4c([H])c([H])c(F)c([H])c4F)c([H])c3[H])c(C(=O)N([H])[H])c2N([H])[H])C1([H])[H])=C([H])c1c([H])c(C([H])=C([H])C([H])([H])C([H])([H])Oc2c([H])c([H])c3c(c2[H])C([H])([H])N(C(=O)C([H])(N([H])C(=O)C([H])(N([H])C([H])([H])[H])C([H])([H])[H])C(C([H])([H])[H])(C([H])([H])[H])C([H])([H])[H])C([H])(C(=O)N([H])C2([H])c4c([H])c([H])c([H])c([H])c4C([H])([H])C([H])([H])C2([H])[H])C3([H])[H])c([H])c([H])c1C([H])([H])[H]

>  <smiles>  (14) 
[H]C(C(=O)N1C([H])([H])C([H])([H])C([H])([H])C([H])(n2nc(-c3c([H])c([H])c(Oc4c([H])c([H])c(F)c([H])c4F)c([H])c3[H])c(C(=O)N([H])[H])c2N([H])[H])C1([H])[H])=C([H])c1c([H])c(C([H])=C([H])C([H])([H])C([H])([H])Oc2c([H])c([H])c3c(c2[H])C([H])([H])N(C(=O)C([H])(N([H])C(=O)C([H])(N([H])C([H])([H])[H])C([H])([H])[H])C(C([H])([H])[H])(C([H])([H])[H])C([H])([H])[H])C([H])(C(=O)N([H])C2([H])c4c([H])c([H])c([H])c([H])c4C([H])([H])C([H])([H])C2([H])[H])C3([H])[H])c([H])c([H])c1C([H])([H])[H]

$$$$
14:0:0
     RDKit          3D

 88 96  0  0  1  0  0  0  0  0999 V2000
  -28.5160  -18.7290   20.5060 C   0  0  0  0  0  3  0  0  0  0  0  0
  -30.7750  -19.5380   20.2490 C   0  0  0  0  0  3  0  0  0  0  0  0
  -28.0470  -20.0630   20.3910 C   0  0  0  0  0  3  0  0  0  0  0  0
  -30.3080  -20.8750   20.1390 C   0  0  0  0  0  3  0  0  0  0  0  0
  -29.8940  -18.4340   20.4110 C   0  0  0  0  0  0  0  0  0  0  0  0
  -28.9260  -21.1620   20.1900 C   0  0  0  0  0  0  0  0  0  0  0  0
  -30.4610  -17.0460   20.4120 C   0  0  0  0  0  3  0  0  0  0  0  0
  -29.8730  -15.8290   20.6090 C   0  0  0  0  0  3  0  0  0  0  0  0
  -30.6630  -14.5890   20.4180 C   0  0  0  0  0  0  0  0  0  0  0  0
  -30.3850  -12.3650   19.3930 C   0  0  0  0  0  2  0  0  0  0  0  0
  -29.4780  -12.5320   18.1540 C   0  0  0  0  0  2  0  0  0  0  0  0
  -27.9930  -12.4020   18.5490 C   0  0  0  0  0  2  0  0  0  0  0  0
  -27.6250  -13.2710   19.7820 C   0  0  0  0  0  3  0  0  0  0  0  0
  -28.6600  -13.1100   20.9180 C   0  0  0  0  0  2  0  0  0  0  0  0
  -29.9890  -13.4010   20.3650 N   0  0  0  0  0  0  0  0  0  0  0  0
  -31.8540  -14.6440   20.0990 O   0  0  0  0  0  0  0  0  0  0  0  0
  -25.2200  -13.8850   20.4600 C   0  0  0  0  0  0  0  0  0  0  0  0
  -24.1460  -13.1160   20.8180 C   0  0  0  0  0  0  0  0  0  0  0  0
  -24.6090  -11.7640   20.8080 C   0  0  0  0  0  0  0  0  0  0  0  0
  -26.2670  -13.0010   20.2500 N   0  0  0  0  0  0  0  0  0  0  0  0
  -25.9020  -11.7210   20.5180 N   0  0  0  0  0  0  0  0  0  0  0  0
  -23.8800  -10.5020   20.9950 C   0  0  0  0  0  0  0  0  0  0  0  0
  -24.2960   -9.5420   21.9450 C   0  0  0  0  0  3  0  0  0  0  0  0
  -23.5660   -8.3480   22.1210 C   0  0  0  0  0  3  0  0  0  0  0  0
  -22.4040   -8.1070   21.3490 C   0  0  0  0  0  0  0  0  0  0  0  0
  -22.0080   -9.0560   20.3890 C   0  0  0  0  0  3  0  0  0  0  0  0
  -22.7400  -10.2410   20.2100 C   0  0  0  0  0  3  0  0  0  0  0  0
  -21.6510   -6.9600   21.4300 O   0  0  0  0  0  0  0  0  0  0  0  0
  -21.5760   -6.2300   22.5890 C   0  0  0  0  0  0  0  0  0  0  0  0
  -21.1050   -6.7930   23.7970 C   0  0  0  0  0  3  0  0  0  0  0  0
  -20.9800   -5.9890   24.9470 C   0  0  0  0  0  3  0  0  0  0  0  0
  -21.3130   -4.6230   24.8920 C   0  0  0  0  0  0  0  0  0  0  0  0
  -21.7780   -4.0590   23.6900 C   0  0  0  0  0  3  0  0  0  0  0  0
  -21.9060   -4.8610   22.5420 C   0  0  0  0  0  0  0  0  0  0  0  0
  -22.3330   -4.3090   21.3810 F   0  0  0  0  0  0  0  0  0  0  0  0
  -21.1860   -3.8480   25.9940 F   0  0  0  0  0  0  0  0  0  0  0  0
  -22.7450  -13.5980   21.0580 C   0  0  0  0  0  0  0  0  0  0  0  0
  -21.9990  -12.9200   21.9240 N   0  0  0  0  0  0  0  0  0  0  0  0
  -22.3190  -14.6170   20.5150 O   0  0  0  0  0  0  0  0  0  0  0  0
  -22.3580  -12.1030   22.3930 H   0  0  0  0  0  0  0  0  0  0  0  0
  -21.0610  -13.2320   22.1280 H   0  0  0  0  0  0  0  0  0  0  0  0
  -25.3890  -15.2550   20.2750 N   0  0  0  0  0  0  0  0  0  0  0  0
  -24.6210  -15.9080   20.3830 H   0  0  0  0  0  0  0  0  0  0  0  0
  -26.2440  -15.6950   19.9600 H   0  0  0  0  0  0  0  0  0  0  0  0
  -28.3060  -22.5630   19.9250 C   0  0  0  0  0  2  0  0  0  0  0  0
  -29.0240  -23.9260   20.2610 C   0  0  0  0  0  2  0  0  0  0  0  0
  -28.0550  -25.1180   19.9110 C   0  0  0  0  0  2  0  0  0  0  0  0
  -28.3230  -26.5340   20.1930 O   0  0  0  0  0  0  0  0  0  0  0  0
  -24.5930  -31.8810   23.2460 C   0  0  0  0  0  0  0  0  0  0  0  0
  -27.2010  -27.3780   20.1400 C   0  0  0  0  0  0  0  0  0  0  0  0
  -23.3860  -30.4980   21.5970 C   0  0  0  0  0  3  0  0  0  0  0  0
  -24.8340  -28.9740   20.1580 C   0  0  0  0  0  0  0  0  0  0  0  0
  -25.9260  -30.8270   21.4130 C   0  0  0  0  0  2  0  0  0  0  0  0
  -26.0050  -29.4590   20.7520 C   0  0  0  0  0  0  0  0  0  0  0  0
  -27.1930  -28.6720   20.7360 C   0  0  0  0  0  3  0  0  0  0  0  0
  -25.9990  -26.9460   19.5230 C   0  0  0  0  0  3  0  0  0  0  0  0
  -24.8280  -27.7180   19.5420 C   0  0  0  0  0  3  0  0  0  0  0  0
  -23.5980  -29.8420   20.2110 C   0  0  0  0  0  2  0  0  0  0  0  0
  -24.6540  -31.0840   22.1430 N   0  0  0  0  0  0  0  0  0  0  0  0
  -23.5110  -32.1550   23.7850 O   0  0  0  0  0  0  0  0  0  0  0  0
  -22.7300  -29.4670   22.5470 C   0  0  0  0  0  0  0  0  0  0  0  0
  -21.4040  -29.2870   22.4180 N   0  0  0  0  0  0  0  0  0  0  0  0
  -23.4110  -28.8350   23.3580 O   0  0  0  0  0  0  0  0  0  0  0  0
  -20.9150  -29.8480   21.7360 H   0  0  0  0  0  0  0  0  0  0  0  0
  -18.0270  -28.0960   22.9180 C   0  0  0  0  0  0  0  0  0  0  0  0
  -20.5870  -28.3440   23.1840 C   0  0  0  0  0  3  0  0  0  0  0  0
  -20.6830  -26.9180   22.5940 C   0  0  0  0  0  2  0  0  0  0  0  0
  -19.5760  -26.6080   21.5810 C   0  0  0  0  0  2  0  0  0  0  0  0
  -18.1960  -26.7520   22.2290 C   0  0  0  0  0  2  0  0  0  0  0  0
  -19.1490  -28.8510   23.3520 C   0  0  0  0  0  0  0  0  0  0  0  0
  -18.9360  -30.1090   23.9540 C   0  0  0  0  0  3  0  0  0  0  0  0
  -17.6320  -30.6140   24.1260 C   0  0  0  0  0  3  0  0  0  0  0  0
  -16.5250  -29.8560   23.7070 C   0  0  0  0  0  3  0  0  0  0  0  0
  -16.7230  -28.5980   23.1100 C   0  0  0  0  0  3  0  0  0  0  0  0
  -25.8780  -32.5070   23.8700 C   0  0  0  0  0  3  0  0  0  0  0  0
  -26.3950  -31.7280   25.1410 C   0  0  1  0  0  0  0  0  0  0  0  0
  -25.3040  -31.4890   26.2100 C   0  0  0  0  0  1  0  0  0  0  0  0
  -26.9750  -30.3500   24.7430 C   0  0  0  0  0  1  0  0  0  0  0  0
  -27.5470  -32.5190   25.8040 C   0  0  0  0  0  1  0  0  0  0  0  0
  -25.5690  -33.9030   24.2090 N   0  0  0  0  0  0  0  0  0  0  0  0
  -25.8820  -34.9580   23.4450 C   0  0  0  0  0  0  0  0  0  0  0  0
  -26.5330  -34.8590   22.4010 O   0  0  0  0  0  0  0  0  0  0  0  0
  -24.9810  -34.0550   25.0160 H   0  0  0  0  0  0  0  0  0  0  0  0
  -24.1310  -36.7390   23.1410 C   0  0  0  0  0  1  0  0  0  0  0  0
  -25.3980  -36.3430   23.9150 C   0  0  0  0  0  3  0  0  0  0  0  0
  -27.5460  -37.2460   24.6890 C   0  0  0  0  0  1  0  0  0  0  0  0
  -26.4180  -37.4040   23.7740 N   0  0  0  0  0  0  0  0  0  0  0  0
  -26.0090  -38.3200   23.9320 H   0  0  0  0  0  0  0  0  0  0  0  0
  2  5  2  0
  3  1  2  0
  4  6  2  0
  4  2  1  0
  5  7  1  0
  5  1  1  0
  6  3  1  0
  7  8  2  0
  9  8  1  0
 10 15  1  0
 11 12  1  0
 11 10  1  0
 13 12  1  0
 13 20  1  0
 13 14  1  0
 15  9  1  0
 15 14  1  0
 16  9  2  0
 17 18  2  0
 18 37  1  0
 19 18  1  0
 19 22  1  0
 20 17  1  0
 20 21  1  0
 21 19  2  0
 22 23  1  0
 23 24  2  0
 25 28  1  0
 25 24  1  0
 26 25  2  0
 27 26  1  0
 27 22  2  0
 28 29  1  0
 29 30  1  0
 30 31  2  0
 32 31  1  0
 32 36  1  0
 33 32  2  0
 34 29  2  0
 34 33  1  0
 35 34  1  0
 37 38  1  0
 38 41  1  0
 38 40  1  0
 39 37  2  0
 42 43  1  0
 42 17  1  0
 44 42  1  0
 45  6  1  0
 45 46  1  0
 47 48  1  0
 47 46  1  0
 49 60  2  0
 50 48  1  0
 50 55  1  0
 51 59  1  0
 51 61  1  0
 52 58  1  0
 52 54  1  0
 53 59  1  0
 54 53  1  0
 55 54  2  0
 56 57  1  0
 56 50  2  0
 57 52  2  0
 58 51  1  0
 59 49  1  0
 61 63  2  0
 62 61  1  0
 64 62  1  0
 65 74  2  0
 65 70  1  0
 66 62  1  0
 66 70  1  0
 67 66  1  0
 68 69  1  0
 68 67  1  0
 69 65  1  0
 70 71  2  0
 71 72  1  0
 73 72  2  0
 74 73  1  0
 75 49  1  0
 75 80  1  0
 75 76  1  0
 76 79  1  1
 76 77  1  0
 78 76  1  0
 80 83  1  0
 81 85  1  0
 81 80  1  0
 82 81  2  0
 85 84  1  0
 87 85  1  0
 87 88  1  0
 87 86  1  0
M  ISO  4   8 100   9 100  47 101  48 101
M  END
>  <TORSDO>  (15) 
F 20

>  <SCORE>  (15) 
-13.743

>  <name>  (15) 
14

>  <ligand_id>  (15) 
14

>  <original_smiles>  (15) 
[H]C(C(=O)N1C([H])([H])C([H])([H])C([H])([H])C([H])(n2nc(-c3c([H])c([H])c(Oc4c([H])c([H])c(F)c([H])c4F)c([H])c3[H])c(C(=O)N([H])[H])c2N([H])[H])C1([H])[H])=C([H])c1c([H])c([H])c(C([H])([H])C([H])([H])C([H])([H])Oc2c([H])c([H])c3c(c2[H])C([H])([H])N(C(=O)C([H])(N([H])C(=O)C([H])(N([H])C([H])([H])[H])C([H])([H])[H])C(C([H])([H])[H])(C([H])([H])[H])C([H])([H])[H])C([H])(C(=O)N([H])C2([H])c4c([H])c([H])c([H])c([H])c4C([H])([H])C([H])([H])C2([H])[H])C3([H])[H])c([H])c1[H]

>  <smiles>  (15) 
[H]C(C(=O)N1C([H])([H])C([H])([H])C([H])([H])C([H])(n2nc(-c3c([H])c([H])c(Oc4c([H])c([H])c(F)c([H])c4F)c([H])c3[H])c(C(=O)N([H])[H])c2N([H])[H])C1([H])[H])=C([H])c1c([H])c([H])c(C([H])([H])C([H])([H])C([H])([H])Oc2c([H])c([H])c3c(c2[H])C([H])([H])N(C(=O)C([H])(N([H])C(=O)C([H])(N([H])C([H])([H])[H])C([H])([H])[H])C(C([H])([H])[H])(C([H])([H])[H])C([H])([H])[H])C([H])(C(=O)N([H])C2([H])c4c([H])c([H])c([H])c([H])c4C([H])([H])C([H])([H])C2([H])[H])C3([H])[H])c([H])c1[H]

$$$$
15:0:0
     RDKit          3D

 92100  0  0  1  0  0  0  0  0999 V2000
  -29.6820  -18.5870   18.4510 C   0  0  0  0  0  3  0  0  0  0  0  0
  -29.4570  -19.7540   19.1930 C   0  0  0  0  0  3  0  0  0  0  0  0
  -29.5850  -18.4370   21.2370 C   0  0  0  0  0  3  0  0  0  0  0  0
  -29.8290  -17.3330   19.0780 C   0  0  0  0  0  0  0  0  0  0  0  0
  -29.8120  -17.2300   20.5030 C   0  0  0  0  0  0  0  0  0  0  0  0
  -29.3860  -19.6990   20.5970 C   0  0  0  0  0  0  0  0  0  0  0  0
  -30.7220  -14.9220   21.0770 C   0  0  0  0  0  0  0  0  0  0  0  0
  -30.7270  -12.5880   20.2550 C   0  0  0  0  0  2  0  0  0  0  0  0
  -29.9370  -12.5020   18.9300 C   0  0  0  0  0  2  0  0  0  0  0  0
  -28.4140  -12.4090   19.1740 C   0  0  0  0  0  2  0  0  0  0  0  0
  -27.8840  -13.3650   20.2790 C   0  0  0  0  0  3  0  0  0  0  0  0
  -28.8020  -13.3450   21.5210 C   0  0  0  0  0  2  0  0  0  0  0  0
  -30.1630  -13.6770   21.0720 N   0  0  0  0  0  0  0  0  0  0  0  0
  -31.9170  -15.1060   20.8320 O   0  0  0  0  0  0  0  0  0  0  0  0
  -29.8450  -15.9560   21.2020 N   0  0  0  0  0  0  0  0  0  0  0  0
  -28.9660  -15.6890   21.6220 H   0  0  0  0  0  0  0  0  0  0  0  0
  -25.4150  -13.9330   20.7300 C   0  0  0  0  0  0  0  0  0  0  0  0
  -24.3290  -13.1440   21.0020 C   0  0  0  0  0  0  0  0  0  0  0  0
  -24.8200  -11.8020   21.0490 C   0  0  0  0  0  0  0  0  0  0  0  0
  -26.4950  -13.0700   20.6260 N   0  0  0  0  0  0  0  0  0  0  0  0
  -26.1350  -11.7870   20.8800 N   0  0  0  0  0  0  0  0  0  0  0  0
  -24.1040  -10.5280   21.1890 C   0  0  0  0  0  0  0  0  0  0  0  0
  -24.4610   -9.5860   22.1780 C   0  0  0  0  0  3  0  0  0  0  0  0
  -23.7470   -8.3750   22.3050 C   0  0  0  0  0  3  0  0  0  0  0  0
  -22.6630   -8.0960   21.4390 C   0  0  0  0  0  0  0  0  0  0  0  0
  -22.3260   -9.0280   20.4410 C   0  0  0  0  0  3  0  0  0  0  0  0
  -23.0410  -10.2300   20.3130 C   0  0  0  0  0  3  0  0  0  0  0  0
  -21.9280   -6.9360   21.4720 O   0  0  0  0  0  0  0  0  0  0  0  0
  -21.7690   -6.2170   22.6290 C   0  0  0  0  0  0  0  0  0  0  0  0
  -21.1830   -6.7820   23.7830 C   0  0  0  0  0  3  0  0  0  0  0  0
  -20.9760   -5.9870   24.9270 C   0  0  0  0  0  3  0  0  0  0  0  0
  -21.3430   -4.6280   24.9180 C   0  0  0  0  0  0  0  0  0  0  0  0
  -21.9230   -4.0630   23.7690 C   0  0  0  0  0  3  0  0  0  0  0  0
  -22.1320   -4.8550   22.6270 C   0  0  0  0  0  0  0  0  0  0  0  0
  -22.6710   -4.3010   21.5140 F   0  0  0  0  0  0  0  0  0  0  0  0
  -21.1370   -3.8630   26.0150 F   0  0  0  0  0  0  0  0  0  0  0  0
  -22.9020  -13.5940   21.1160 C   0  0  0  0  0  0  0  0  0  0  0  0
  -22.1030  -12.9010   21.9210 N   0  0  0  0  0  0  0  0  0  0  0  0
  -22.4970  -14.5950   20.5270 O   0  0  0  0  0  0  0  0  0  0  0  0
  -22.4400  -12.0920   22.4210 H   0  0  0  0  0  0  0  0  0  0  0  0
  -21.1410  -13.1850   22.0400 H   0  0  0  0  0  0  0  0  0  0  0  0
  -25.5700  -15.3030   20.5410 N   0  0  0  0  0  0  0  0  0  0  0  0
  -24.7830  -15.9420   20.5580 H   0  0  0  0  0  0  0  0  0  0  0  0
  -26.4400  -15.7550   20.2900 H   0  0  0  0  0  0  0  0  0  0  0  0
  -31.3290  -15.8860   17.6130 C   0  0  0  0  0  1  0  0  0  0  0  0
  -29.9100  -16.1430   18.1400 C   0  0  0  0  0  2  0  0  0  0  0  0
  -29.1560  -20.8490   21.3440 O   0  0  0  0  0  0  0  0  0  0  0  0
  -28.2290  -21.8540   20.8580 C   0  0  0  0  0  2  0  0  0  0  0  0
  -28.8390  -23.1260   20.1860 C   0  0  0  0  0  3  0  0  0  0  0  0
  -27.9790  -24.4330   20.3140 C   0  0  0  0  0  3  0  0  0  0  0  0
  -28.3930  -25.5970   19.3590 C   0  0  0  0  0  2  0  0  0  0  0  0
  -28.2660  -26.9370   19.8890 O   0  0  0  0  0  0  0  0  0  0  0  0
  -24.5380  -31.9880   23.2400 C   0  0  0  0  0  0  0  0  0  0  0  0
  -27.0660  -27.6300   19.9180 C   0  0  0  0  0  0  0  0  0  0  0  0
  -23.2670  -30.6320   21.6070 C   0  0  0  0  0  3  0  0  0  0  0  0
  -24.6620  -29.1400   20.0720 C   0  0  0  0  0  0  0  0  0  0  0  0
  -25.7800  -31.0030   21.3110 C   0  0  0  0  0  2  0  0  0  0  0  0
  -25.8410  -29.6490   20.6270 C   0  0  0  0  0  0  0  0  0  0  0  0
  -27.0400  -28.9020   20.5450 C   0  0  0  0  0  3  0  0  0  0  0  0
  -25.8630  -27.1360   19.3620 C   0  0  0  0  0  3  0  0  0  0  0  0
  -24.6700  -27.8840   19.4360 C   0  0  0  0  0  3  0  0  0  0  0  0
  -23.4190  -29.9930   20.1990 C   0  0  0  0  0  2  0  0  0  0  0  0
  -24.5480  -31.2220   22.1100 N   0  0  0  0  0  0  0  0  0  0  0  0
  -23.4810  -32.2380   23.8340 O   0  0  0  0  0  0  0  0  0  0  0  0
  -22.6590  -29.5810   22.5640 C   0  0  0  0  0  0  0  0  0  0  0  0
  -21.3380  -29.3640   22.4560 N   0  0  0  0  0  0  0  0  0  0  0  0
  -23.3730  -28.9640   23.3580 O   0  0  0  0  0  0  0  0  0  0  0  0
  -20.8200  -29.9160   21.7860 H   0  0  0  0  0  0  0  0  0  0  0  0
  -18.0170  -28.0290   22.9520 C   0  0  0  0  0  0  0  0  0  0  0  0
  -20.5610  -28.3910   23.2240 C   0  0  0  0  0  3  0  0  0  0  0  0
  -20.7230  -26.9670   22.6440 C   0  0  0  0  0  2  0  0  0  0  0  0
  -19.6350  -26.6030   21.6280 C   0  0  0  0  0  2  0  0  0  0  0  0
  -18.2480  -26.6900   22.2730 C   0  0  0  0  0  2  0  0  0  0  0  0
  -19.1030  -28.8350   23.3850 C   0  0  0  0  0  0  0  0  0  0  0  0
  -18.8340  -30.0870   23.9790 C   0  0  0  0  0  3  0  0  0  0  0  0
  -17.5090  -30.5350   24.1460 C   0  0  0  0  0  3  0  0  0  0  0  0
  -16.4380  -29.7260   23.7300 C   0  0  0  0  0  3  0  0  0  0  0  0
  -16.6920  -28.4760   23.1390 C   0  0  0  0  0  3  0  0  0  0  0  0
  -25.8470  -32.6060   23.8230 C   0  0  0  0  0  3  0  0  0  0  0  0
  -25.5630  -34.0070   24.1630 N   0  0  0  0  0  0  0  0  0  0  0  0
  -25.9050  -35.0580   23.4040 C   0  0  0  0  0  0  0  0  0  0  0  0
  -26.5620  -34.9470   22.3650 O   0  0  0  0  0  0  0  0  0  0  0  0
  -24.9790  -34.1660   24.9700 H   0  0  0  0  0  0  0  0  0  0  0  0
  -24.2070  -36.8820   23.0660 C   0  0  0  0  0  1  0  0  0  0  0  0
  -25.4430  -36.4510   23.8720 C   0  0  0  0  0  3  0  0  0  0  0  0
  -27.5940  -37.2930   24.7030 C   0  0  0  0  0  1  0  0  0  0  0  0
  -26.4930  -37.4860   23.7630 N   0  0  0  0  0  0  0  0  0  0  0  0
  -26.1040  -38.4120   23.9170 H   0  0  0  0  0  0  0  0  0  0  0  0
  -26.3940  -31.8270   25.0820 C   0  0  1  0  0  0  0  0  0  0  0  0
  -25.3330  -31.6000   26.1830 C   0  0  0  0  0  1  0  0  0  0  0  0
  -26.9520  -30.4450   24.6700 C   0  0  0  0  0  1  0  0  0  0  0  0
  -27.5730  -32.6100   25.7110 C   0  0  0  0  0  1  0  0  0  0  0  0
  1  4  2  0
  1  2  1  0
  2  6  2  0
  4  5  1  0
  5 15  1  0
  5  3  2  0
  6  3  1  0
  6 47  1  0
  7 15  1  0
  8 13  1  0
  9 10  1  0
  9  8  1  0
 11 10  1  0
 11 20  1  0
 11 12  1  0
 13  7  1  0
 13 12  1  0
 14  7  2  0
 15 16  1  0
 17 18  2  0
 18 19  1  0
 18 37  1  0
 19 22  1  0
 20 17  1  0
 20 21  1  0
 21 19  2  0
 22 23  1  0
 23 24  2  0
 25 28  1  0
 25 24  1  0
 26 25  2  0
 27 26  1  0
 27 22  2  0
 28 29  1  0
 29 30  1  0
 30 31  2  0
 32 31  1  0
 32 36  1  0
 33 32  2  0
 34 29  2  0
 34 33  1  0
 35 34  1  0
 37 38  1  0
 38 41  1  0
 38 40  1  0
 39 37  2  0
 42 43  1  0
 42 17  1  0
 44 42  1  0
 45 46  1  0
 46  4  1  0
 48 47  1  0
 49 50  2  0
 49 48  1  0
 51 52  1  0
 51 50  1  0
 52 54  1  0
 53 64  2  0
 54 59  1  0
 55 63  1  0
 55 65  1  0
 56 62  1  0
 56 58  1  0
 57 63  1  0
 58 57  1  0
 59 58  2  0
 60 61  1  0
 60 54  2  0
 61 56  2  0
 62 55  1  0
 63 53  1  0
 65 67  2  0
 66 65  1  0
 68 66  1  0
 69 78  2  0
 69 74  1  0
 70 66  1  0
 70 74  1  0
 71 70  1  0
 72 73  1  0
 72 71  1  0
 73 69  1  0
 74 75  2  0
 75 76  1  0
 77 76  2  0
 78 77  1  0
 79 53  1  0
 79 80  1  0
 79 89  1  0
 80 83  1  0
 81 85  1  0
 81 80  1  0
 82 81  2  0
 85 84  1  0
 87 85  1  0
 87 88  1  0
 87 86  1  0
 89 92  1  1
 89 90  1  0
 91 89  1  0
M  ISO  4   7 100  15 100  51 101  52 101
M  END
>  <TORSDO>  (16) 
F 22

>  <SCORE>  (16) 
-11.750

>  <name>  (16) 
15

>  <ligand_id>  (16) 
15

>  <original_smiles>  (16) 
[H]c1c([H])c([H])c2c(c1[H])C([H])([H])C([H])([H])C([H])([H])C2([H])N([H])C(=O)C1([H])N(C(=O)C([H])(N([H])C(=O)C([H])(N([H])C([H])([H])[H])C([H])([H])[H])C(C([H])([H])[H])(C([H])([H])[H])C([H])([H])[H])C([H])([H])c2c([H])c(OC([H])([H])C([H])([H])C([H])([H])C([H])([H])Oc3c([H])c([H])c(C([H])([H])C([H])([H])[H])c(N([H])C(=O)N4C([H])([H])C([H])([H])C([H])([H])C([H])(n5nc(-c6c([H])c([H])c(Oc7c([H])c([H])c(F)c([H])c7F)c([H])c6[H])c(C(=O)N([H])[H])c5N([H])[H])C4([H])[H])c3[H])c([H])c([H])c2C1([H])[H]

>  <smiles>  (16) 
[H]c1c([H])c([H])c2c(c1[H])C([H])([H])C([H])([H])C([H])([H])C2([H])N([H])C(=O)C1([H])N(C(=O)C([H])(N([H])C(=O)C([H])(N([H])C([H])([H])[H])C([H])([H])[H])C(C([H])([H])[H])(C([H])([H])[H])C([H])([H])[H])C([H])([H])c2c([H])c(OC([H])([H])C([H])([H])C([H])([H])C([H])([H])Oc3c([H])c([H])c(C([H])([H])C([H])([H])[H])c(N([H])C(=O)N4C([H])([H])C([H])([H])C([H])([H])C([H])(n5nc(-c6c([H])c([H])c(Oc7c([H])c([H])c(F)c([H])c7F)c([H])c6[H])c(C(=O)N([H])[H])c5N([H])[H])C4([H])[H])c3[H])c([H])c([H])c2C1([H])[H]

$$$$
16:0:0
     RDKit          3D

 90 98  0  0  1  0  0  0  0  0999 V2000
  -30.3780  -19.1600   19.4090 C   0  0  0  0  0  3  0  0  0  0  0  0
  -30.1700  -20.5250   19.6410 C   0  0  0  0  0  3  0  0  0  0  0  0
  -30.5870  -18.7760   21.7960 C   0  0  0  0  0  3  0  0  0  0  0  0
  -30.6240  -18.2820   20.4780 C   0  0  0  0  0  0  0  0  0  0  0  0
  -30.2030  -21.0530   20.9520 C   0  0  0  0  0  0  0  0  0  0  0  0
  -30.3910  -20.1560   22.0380 C   0  0  0  0  0  0  0  0  0  0  0  0
  -30.4250  -20.6490   23.4750 C   0  0  0  0  0  1  0  0  0  0  0  0
  -30.9790  -16.9040   20.1380 C   0  0  0  0  0  3  0  0  0  0  0  0
  -30.8440  -15.7720   20.8620 C   0  0  0  0  0  3  0  0  0  0  0  0
  -31.4550  -14.5860   20.2850 C   0  0  0  0  0  0  0  0  0  0  0  0
  -30.9540  -12.5410   19.0380 C   0  0  0  0  0  2  0  0  0  0  0  0
  -30.0450  -12.9170   17.8520 C   0  0  0  0  0  2  0  0  0  0  0  0
  -28.5630  -12.8650   18.2730 C   0  0  0  0  0  2  0  0  0  0  0  0
  -28.2860  -13.6310   19.5960 C   0  0  0  0  0  3  0  0  0  0  0  0
  -29.3260  -13.2730   20.6820 C   0  0  0  0  0  2  0  0  0  0  0  0
  -30.6700  -13.4880   20.1270 N   0  0  0  0  0  0  0  0  0  0  0  0
  -32.5970  -14.6410   19.8180 O   0  0  0  0  0  0  0  0  0  0  0  0
  -25.9070  -14.3220   20.2910 C   0  0  0  0  0  0  0  0  0  0  0  0
  -24.8090  -13.5880   20.6510 C   0  0  0  0  0  0  0  0  0  0  0  0
  -25.2220  -12.2200   20.6220 C   0  0  0  0  0  0  0  0  0  0  0  0
  -26.9210  -13.4040   20.0660 N   0  0  0  0  0  0  0  0  0  0  0  0
  -26.5110  -12.1350   20.3220 N   0  0  0  0  0  0  0  0  0  0  0  0
  -24.4490  -10.9850   20.8050 C   0  0  0  0  0  0  0  0  0  0  0  0
  -24.8440   -9.9960   21.7330 C   0  0  0  0  0  3  0  0  0  0  0  0
  -24.0730   -8.8260   21.9040 C   0  0  0  0  0  3  0  0  0  0  0  0
  -22.8920   -8.6380   21.1480 C   0  0  0  0  0  0  0  0  0  0  0  0
  -22.5150   -9.6140   20.2090 C   0  0  0  0  0  3  0  0  0  0  0  0
  -23.2870  -10.7760   20.0370 C   0  0  0  0  0  3  0  0  0  0  0  0
  -22.0940   -7.5220   21.2290 O   0  0  0  0  0  0  0  0  0  0  0  0
  -21.9960   -6.7890   22.3840 C   0  0  0  0  0  0  0  0  0  0  0  0
  -21.5830   -7.3700   23.6030 C   0  0  0  0  0  3  0  0  0  0  0  0
  -21.4300   -6.5660   24.7490 C   0  0  0  0  0  3  0  0  0  0  0  0
  -21.6800   -5.1820   24.6790 C   0  0  0  0  0  0  0  0  0  0  0  0
  -22.0850   -4.6010   23.4650 C   0  0  0  0  0  3  0  0  0  0  0  0
  -22.2390   -5.4020   22.3200 C   0  0  0  0  0  0  0  0  0  0  0  0
  -22.6100   -4.8330   21.1470 F   0  0  0  0  0  0  0  0  0  0  0  0
  -21.5250   -4.4070   25.7790 F   0  0  0  0  0  0  0  0  0  0  0  0
  -23.4290  -14.1150   20.9150 C   0  0  0  0  0  0  0  0  0  0  0  0
  -22.6780  -13.4570   21.7930 N   0  0  0  0  0  0  0  0  0  0  0  0
  -23.0240  -15.1450   20.3790 O   0  0  0  0  0  0  0  0  0  0  0  0
  -23.0180  -12.6250   22.2510 H   0  0  0  0  0  0  0  0  0  0  0  0
  -21.7500  -13.7930   22.0120 H   0  0  0  0  0  0  0  0  0  0  0  0
  -26.1250  -15.6850   20.1180 N   0  0  0  0  0  0  0  0  0  0  0  0
  -25.3920  -16.3750   20.2360 H   0  0  0  0  0  0  0  0  0  0  0  0
  -27.0090  -16.0910   19.8320 H   0  0  0  0  0  0  0  0  0  0  0  0
  -30.0890  -22.5130   21.1620 C   0  0  0  0  0  3  0  0  0  0  0  0
  -30.1280  -23.4510   20.1960 C   0  0  0  0  0  3  0  0  0  0  0  0
  -30.0000  -24.9370   20.4270 C   0  0  0  0  0  2  0  0  0  0  0  0
  -28.6910  -25.4650   19.8390 C   0  0  0  0  0  2  0  0  0  0  0  0
  -28.6890  -26.8810   19.9600 O   0  0  0  0  0  0  0  0  0  0  0  0
  -24.7140  -31.7310   23.2260 C   0  0  0  0  0  0  0  0  0  0  0  0
  -27.4770  -27.5280   19.9560 C   0  0  0  0  0  0  0  0  0  0  0  0
  -23.5440  -30.3770   21.5170 C   0  0  0  0  0  3  0  0  0  0  0  0
  -25.0370  -28.9470   20.0280 C   0  0  0  0  0  0  0  0  0  0  0  0
  -26.0550  -30.8180   21.3380 C   0  0  0  0  0  2  0  0  0  0  0  0
  -26.1760  -29.4810   20.6410 C   0  0  0  0  0  0  0  0  0  0  0  0
  -27.3970  -28.7790   20.6020 C   0  0  0  0  0  3  0  0  0  0  0  0
  -26.3200  -27.0050   19.3290 C   0  0  0  0  0  3  0  0  0  0  0  0
  -25.1020  -27.7070   19.3690 C   0  0  0  0  0  3  0  0  0  0  0  0
  -23.7700  -29.7640   20.1090 C   0  0  0  0  0  2  0  0  0  0  0  0
  -24.7890  -30.9870   22.0870 N   0  0  0  0  0  0  0  0  0  0  0  0
  -23.6260  -31.9500   23.7760 O   0  0  0  0  0  0  0  0  0  0  0  0
  -22.9200  -29.2950   22.4280 C   0  0  0  0  0  0  0  0  0  0  0  0
  -21.6040  -29.0740   22.2750 N   0  0  0  0  0  0  0  0  0  0  0  0
  -23.6150  -28.6620   23.2270 O   0  0  0  0  0  0  0  0  0  0  0  0
  -21.1040  -29.6400   21.6050 H   0  0  0  0  0  0  0  0  0  0  0  0
  -18.2750  -27.7220   22.6440 C   0  0  0  0  0  0  0  0  0  0  0  0
  -20.8110  -28.0800   22.9970 C   0  0  0  0  0  3  0  0  0  0  0  0
  -20.9920  -26.6720   22.3850 C   0  0  0  0  0  2  0  0  0  0  0  0
  -19.9340  -26.3310   21.3310 C   0  0  0  0  0  2  0  0  0  0  0  0
  -18.5290  -26.4010   21.9390 C   0  0  0  0  0  2  0  0  0  0  0  0
  -19.3480  -28.5180   23.1270 C   0  0  0  0  0  0  0  0  0  0  0  0
  -19.0580  -29.7550   23.7440 C   0  0  0  0  0  3  0  0  0  0  0  0
  -17.7290  -30.1960   23.8840 C   0  0  0  0  0  3  0  0  0  0  0  0
  -16.6710  -29.3970   23.4190 C   0  0  0  0  0  3  0  0  0  0  0  0
  -16.9450  -28.1620   22.8040 C   0  0  0  0  0  3  0  0  0  0  0  0
  -25.9850  -32.3640   23.8780 C   0  0  0  0  0  3  0  0  0  0  0  0
  -26.5120  -31.5550   25.1260 C   0  0  1  0  0  0  0  0  0  0  0  0
  -25.4220  -31.2690   26.1850 C   0  0  0  0  0  1  0  0  0  0  0  0
  -27.1110  -30.2000   24.6850 C   0  0  0  0  0  1  0  0  0  0  0  0
  -27.6540  -32.3390   25.8150 C   0  0  0  0  0  1  0  0  0  0  0  0
  -25.6460  -33.7420   24.2540 N   0  0  0  0  0  0  0  0  0  0  0  0
  -25.9820  -34.8280   23.5440 C   0  0  0  0  0  0  0  0  0  0  0  0
  -26.6810  -34.7750   22.5280 O   0  0  0  0  0  0  0  0  0  0  0  0
  -25.0280  -33.8560   25.0430 H   0  0  0  0  0  0  0  0  0  0  0  0
  -24.2390  -36.6100   23.2060 C   0  0  0  0  0  1  0  0  0  0  0  0
  -25.4590  -36.1890   24.0410 C   0  0  0  0  0  3  0  0  0  0  0  0
  -27.5530  -37.0690   24.9770 C   0  0  0  0  0  1  0  0  0  0  0  0
  -26.4790  -37.2600   24.0060 N   0  0  0  0  0  0  0  0  0  0  0  0
  -26.0530  -38.1670   24.1780 H   0  0  0  0  0  0  0  0  0  0  0  0
  1  2  2  0
  1  4  1  0
  2  5  1  0
  3  6  1  0
  4  3  2  0
  5 46  1  0
  5  6  2  0
  6  7  1  0
  8  4  1  0
  8  9  2  0
 10  9  1  0
 11 16  1  0
 12 13  1  0
 12 11  1  0
 14 13  1  0
 14 21  1  0
 14 15  1  0
 16 10  1  0
 16 15  1  0
 17 10  2  0
 18 19  2  0
 19 38  1  0
 20 19  1  0
 20 23  1  0
 21 18  1  0
 21 22  1  0
 22 20  2  0
 23 24  1  0
 24 25  2  0
 26 29  1  0
 26 25  1  0
 27 26  2  0
 28 27  1  0
 28 23  2  0
 29 30  1  0
 30 31  1  0
 31 32  2  0
 33 32  1  0
 33 37  1  0
 34 33  2  0
 35 30  2  0
 35 34  1  0
 36 35  1  0
 38 39  1  0
 39 42  1  0
 39 41  1  0
 40 38  2  0
 43 44  1  0
 43 18  1  0
 45 43  1  0
 47 48  1  0
 47 46  2  0
 49 50  1  0
 49 48  1  0
 51 62  2  0
 52 50  1  0
 52 57  1  0
 53 61  1  0
 53 63  1  0
 54 60  1  0
 54 56  1  0
 55 61  1  0
 56 55  1  0
 57 56  2  0
 58 59  1  0
 58 52  2  0
 59 54  2  0
 60 53  1  0
 61 51  1  0
 63 65  2  0
 64 63  1  0
 66 64  1  0
 67 76  2  0
 67 72  1  0
 68 64  1  0
 68 72  1  0
 69 68  1  0
 70 71  1  0
 70 69  1  0
 71 67  1  0
 72 73  2  0
 73 74  1  0
 75 74  2  0
 76 75  1  0
 77 51  1  0
 77 82  1  0
 77 78  1  0
 78 81  1  1
 78 79  1  0
 80 78  1  0
 82 85  1  0
 83 87  1  0
 83 82  1  0
 84 83  2  0
 87 86  1  0
 89 87  1  0
 89 90  1  0
 89 88  1  0
M  ISO  4   9 100  10 100  49 101  50 101
M  END
>  <TORSDO>  (17) 
F 20

>  <SCORE>  (17) 
-12.490

>  <name>  (17) 
16

>  <ligand_id>  (17) 
16

>  <original_smiles>  (17) 
[H]C(C(=O)N1C([H])([H])C([H])([H])C([H])([H])C([H])(n2nc(-c3c([H])c([H])c(Oc4c([H])c([H])c(F)c([H])c4F)c([H])c3[H])c(C(=O)N([H])[H])c2N([H])[H])C1([H])[H])=C([H])c1c([H])c([H])c(C([H])=C([H])C([H])([H])C([H])([H])Oc2c([H])c([H])c3c(c2[H])C([H])([H])N(C(=O)C([H])(N([H])C(=O)C([H])(N([H])C([H])([H])[H])C([H])([H])[H])C(C([H])([H])[H])(C([H])([H])[H])C([H])([H])[H])C([H])(C(=O)N([H])C2([H])c4c([H])c([H])c([H])c([H])c4C([H])([H])C([H])([H])C2([H])[H])C3([H])[H])c(C([H])([H])[H])c1[H]

>  <smiles>  (17) 
[H]C(C(=O)N1C([H])([H])C([H])([H])C([H])([H])C([H])(n2nc(-c3c([H])c([H])c(Oc4c([H])c([H])c(F)c([H])c4F)c([H])c3[H])c(C(=O)N([H])[H])c2N([H])[H])C1([H])[H])=C([H])c1c([H])c([H])c(C([H])=C([H])C([H])([H])C([H])([H])Oc2c([H])c([H])c3c(c2[H])C([H])([H])N(C(=O)C([H])(N([H])C(=O)C([H])(N([H])C([H])([H])[H])C([H])([H])[H])C(C([H])([H])[H])(C([H])([H])[H])C([H])([H])[H])C([H])(C(=O)N([H])C2([H])c4c([H])c([H])c([H])c([H])c4C([H])([H])C([H])([H])C2([H])[H])C3([H])[H])c(C([H])([H])[H])c1[H]

$$$$
17:0:0
     RDKit          3D

 91 99  0  0  1  0  0  0  0  0999 V2000
  -29.1730  -22.1350   19.3070 C   0  0  0  0  0  2  0  0  0  0  0  0
  -30.5190  -19.7960   19.2890 C   0  0  0  0  0  3  0  0  0  0  0  0
  -30.7030  -18.3650   19.4700 C   0  0  0  0  0  3  0  0  0  0  0  0
  -28.4760  -19.7250   20.4620 C   0  0  0  0  0  3  0  0  0  0  0  0
  -29.3880  -20.5620   19.7480 C   0  0  0  0  0  0  0  0  0  0  0  0
  -28.6400  -18.2900   20.6360 C   0  0  0  0  0  0  0  0  0  0  0  0
  -29.7550  -17.5230   20.1310 C   0  0  0  0  0  0  0  0  0  0  0  0
  -27.5440  -17.5490   21.3880 C   0  0  0  0  0  1  0  0  0  0  0  0
  -30.5880  -14.9150   19.8540 C   0  0  0  0  0  0  0  0  0  0  0  0
  -30.3870  -12.5990   18.8610 C   0  0  0  0  0  2  0  0  0  0  0  0
  -29.3510  -12.6800   17.7150 C   0  0  0  0  0  2  0  0  0  0  0  0
  -27.9250  -12.4550   18.2590 C   0  0  0  0  0  2  0  0  0  0  0  0
  -27.6420  -13.3080   19.5260 C   0  0  0  0  0  3  0  0  0  0  0  0
  -28.7980  -13.2290   20.5490 C   0  0  0  0  0  2  0  0  0  0  0  0
  -30.0280  -13.6440   19.8550 N   0  0  0  0  0  0  0  0  0  0  0  0
  -31.7290  -15.0520   19.3970 O   0  0  0  0  0  0  0  0  0  0  0  0
  -29.7860  -16.0020   20.2500 N   0  0  0  0  0  0  0  0  0  0  0  0
  -28.9510  -15.6510   20.6940 H   0  0  0  0  0  0  0  0  0  0  0  0
  -25.3560  -13.8670   20.5380 C   0  0  0  0  0  0  0  0  0  0  0  0
  -24.3250  -13.0790   20.9710 C   0  0  0  0  0  0  0  0  0  0  0  0
  -24.7600  -11.7310   20.8030 C   0  0  0  0  0  0  0  0  0  0  0  0
  -26.3540  -12.9940   20.1330 N   0  0  0  0  0  0  0  0  0  0  0  0
  -26.0100  -11.6990   20.3550 N   0  0  0  0  0  0  0  0  0  0  0  0
  -24.0330  -10.4680   20.9830 C   0  0  0  0  0  0  0  0  0  0  0  0
  -24.4800   -9.4810   21.8890 C   0  0  0  0  0  3  0  0  0  0  0  0
  -23.7540   -8.2820   22.0550 C   0  0  0  0  0  3  0  0  0  0  0  0
  -22.5640   -8.0630   21.3180 C   0  0  0  0  0  0  0  0  0  0  0  0
  -22.1380   -9.0390   20.3990 C   0  0  0  0  0  3  0  0  0  0  0  0
  -22.8640  -10.2300   20.2300 C   0  0  0  0  0  3  0  0  0  0  0  0
  -21.8060   -6.9170   21.4020 O   0  0  0  0  0  0  0  0  0  0  0  0
  -21.7150   -6.1960   22.5650 C   0  0  0  0  0  0  0  0  0  0  0  0
  -21.2310   -6.7710   23.7610 C   0  0  0  0  0  3  0  0  0  0  0  0
  -21.0850   -5.9750   24.9150 C   0  0  0  0  0  3  0  0  0  0  0  0
  -21.4130   -4.6060   24.8750 C   0  0  0  0  0  0  0  0  0  0  0  0
  -21.8890   -4.0320   23.6830 C   0  0  0  0  0  3  0  0  0  0  0  0
  -22.0370   -4.8250   22.5300 C   0  0  0  0  0  0  0  0  0  0  0  0
  -22.4780   -4.2630   21.3780 F   0  0  0  0  0  0  0  0  0  0  0  0
  -21.2680   -3.8380   25.9800 F   0  0  0  0  0  0  0  0  0  0  0  0
  -22.9720  -13.5570   21.4150 C   0  0  0  0  0  0  0  0  0  0  0  0
  -22.3220  -12.8260   22.3130 N   0  0  0  0  0  0  0  0  0  0  0  0
  -22.5010  -14.6160   21.0020 O   0  0  0  0  0  0  0  0  0  0  0  0
  -22.7150  -11.9690   22.6740 H   0  0  0  0  0  0  0  0  0  0  0  0
  -21.4230  -13.1350   22.6570 H   0  0  0  0  0  0  0  0  0  0  0  0
  -25.5190  -15.2430   20.4270 N   0  0  0  0  0  0  0  0  0  0  0  0
  -24.7680  -15.8930   20.6260 H   0  0  0  0  0  0  0  0  0  0  0  0
  -26.3080  -15.6860   19.9740 H   0  0  0  0  0  0  0  0  0  0  0  0
  -26.9920  -23.1590   20.2830 C   0  0  0  0  0  1  0  0  0  0  0  0
  -29.1520  -23.4950   21.5210 C   0  0  0  0  0  1  0  0  0  0  0  0
  -28.5030  -23.4300   20.1230 C   0  0  1  0  0  0  0  0  0  0  0  0
  -28.5960  -24.9370   19.4110 C   0  0  0  0  0  2  0  0  0  0  0  0
  -28.4240  -26.3240   20.0400 O   0  0  0  0  0  0  0  0  0  0  0  0
  -24.6830  -31.8420   22.9900 C   0  0  0  0  0  0  0  0  0  0  0  0
  -27.3050  -27.2040   19.9340 C   0  0  0  0  0  0  0  0  0  0  0  0
  -23.4800  -30.4190   21.3680 C   0  0  0  0  0  3  0  0  0  0  0  0
  -24.9320  -28.8560   19.9310 C   0  0  0  0  0  0  0  0  0  0  0  0
  -26.0220  -30.7370   21.1630 C   0  0  0  0  0  2  0  0  0  0  0  0
  -26.1050  -29.3460   20.5160 C   0  0  0  0  0  0  0  0  0  0  0  0
  -27.2910  -28.5330   20.4990 C   0  0  0  0  0  3  0  0  0  0  0  0
  -26.1020  -26.7860   19.3280 C   0  0  0  0  0  3  0  0  0  0  0  0
  -24.9400  -27.5870   19.3240 C   0  0  0  0  0  3  0  0  0  0  0  0
  -23.6900  -29.7270   19.9920 C   0  0  0  0  0  2  0  0  0  0  0  0
  -24.7480  -31.0250   21.8940 N   0  0  0  0  0  0  0  0  0  0  0  0
  -23.6000  -32.1180   23.5290 O   0  0  0  0  0  0  0  0  0  0  0  0
  -22.8250  -29.4130   22.3480 C   0  0  0  0  0  0  0  0  0  0  0  0
  -21.4940  -29.2500   22.2600 N   0  0  0  0  0  0  0  0  0  0  0  0
  -23.5190  -28.7770   23.1470 O   0  0  0  0  0  0  0  0  0  0  0  0
  -20.9930  -29.8120   21.5870 H   0  0  0  0  0  0  0  0  0  0  0  0
  -18.1160  -28.0990   22.8890 C   0  0  0  0  0  0  0  0  0  0  0  0
  -20.6870  -28.3140   23.0490 C   0  0  0  0  0  3  0  0  0  0  0  0
  -20.7380  -26.8910   22.4490 C   0  0  0  0  0  2  0  0  0  0  0  0
  -19.5900  -26.6010   21.4750 C   0  0  0  0  0  2  0  0  0  0  0  0
  -18.2400  -26.7570   22.1840 C   0  0  0  0  0  2  0  0  0  0  0  0
  -19.2650  -28.8340   23.2830 C   0  0  0  0  0  0  0  0  0  0  0  0
  -19.0960  -30.0860   23.9110 C   0  0  0  0  0  3  0  0  0  0  0  0
  -17.8090  -30.6100   24.1450 C   0  0  0  0  0  3  0  0  0  0  0  0
  -16.6740  -29.8680   23.7710 C   0  0  0  0  0  3  0  0  0  0  0  0
  -16.8290  -28.6150   23.1500 C   0  0  0  0  0  3  0  0  0  0  0  0
  -25.9620  -32.4930   23.6040 C   0  0  0  0  0  3  0  0  0  0  0  0
  -26.5770  -31.6560   24.7940 C   0  0  1  0  0  0  0  0  0  0  0  0
  -25.5530  -31.2790   25.8930 C   0  0  0  0  0  1  0  0  0  0  0  0
  -27.2130  -30.3460   24.2710 C   0  0  0  0  0  1  0  0  0  0  0  0
  -27.7200  -32.4580   25.4580 C   0  0  0  0  0  1  0  0  0  0  0  0
  -25.6030  -33.8440   24.0670 N   0  0  0  0  0  0  0  0  0  0  0  0
  -25.8210  -34.9710   23.3750 C   0  0  0  0  0  0  0  0  0  0  0  0
  -26.4180  -34.9820   22.2950 O   0  0  0  0  0  0  0  0  0  0  0  0
  -25.0700  -33.8990   24.9220 H   0  0  0  0  0  0  0  0  0  0  0  0
  -23.9790  -36.6800   23.2800 C   0  0  0  0  0  1  0  0  0  0  0  0
  -25.2970  -36.2910   23.9720 C   0  0  0  0  0  3  0  0  0  0  0  0
  -27.4350  -37.2360   24.7250 C   0  0  0  0  0  1  0  0  0  0  0  0
  -26.2610  -37.4080   23.8700 N   0  0  0  0  0  0  0  0  0  0  0  0
  -25.8230  -38.2920   24.1120 H   0  0  0  0  0  0  0  0  0  0  0  0
  1  5  1  0
  1 49  1  0
  2  3  2  0
  2  5  1  0
  3  7  1  0
  4  6  1  0
  5  4  2  0
  6  8  1  0
  7 17  1  0
  7  6  2  0
  9 15  1  0
  9 17  1  0
 10 15  1  0
 11 12  1  0
 11 10  1  0
 13 12  1  0
 13 22  1  0
 13 14  1  0
 15 14  1  0
 16  9  2  0
 17 18  1  0
 19 20  2  0
 20 39  1  0
 21 20  1  0
 21 24  1  0
 22 23  1  0
 22 19  1  0
 23 21  2  0
 24 25  1  0
 25 26  2  0
 27 30  1  0
 27 26  1  0
 28 27  2  0
 29 28  1  0
 29 24  2  0
 30 31  1  0
 31 32  1  0
 32 33  2  0
 34 33  1  0
 34 38  1  0
 35 34  2  0
 36 31  2  0
 36 35  1  0
 37 36  1  0
 39 40  1  0
 40 43  1  0
 40 42  1  0
 41 39  2  0
 44 19  1  0
 44 45  1  0
 46 44  1  0
 49 47  1  1
 49 48  1  0
 50 51  1  0
 50 49  1  0
 52 63  2  0
 53 51  1  0
 53 58  1  0
 54 62  1  0
 54 64  1  0
 55 61  1  0
 55 57  1  0
 56 62  1  0
 57 56  1  0
 58 57  2  0
 59 53  2  0
 60 59  1  0
 60 55  2  0
 61 54  1  0
 62 52  1  0
 64 66  2  0
 65 64  1  0
 67 65  1  0
 68 77  2  0
 68 73  1  0
 69 65  1  0
 69 73  1  0
 70 69  1  0
 71 72  1  0
 71 70  1  0
 72 68  1  0
 73 74  2  0
 74 75  1  0
 76 75  2  0
 77 76  1  0
 78 52  1  0
 78 83  1  0
 78 79  1  0
 79 82  1  1
 79 80  1  0
 81 79  1  0
 83 86  1  0
 84 88  1  0
 84 83  1  0
 85 84  2  0
 88 87  1  0
 90 88  1  0
 90 91  1  0
 90 89  1  0
M  ISO  4   9 100  17 100  50 101  51 101
M  END
>  <TORSDO>  (18) 
F 19

>  <SCORE>  (18) 
-11.875

>  <name>  (18) 
17

>  <ligand_id>  (18) 
17

>  <original_smiles>  (18) 
[H]c1c([H])c([H])c2c(c1[H])C([H])([H])C([H])([H])C([H])([H])C2([H])N([H])C(=O)C1([H])N(C(=O)C([H])(N([H])C(=O)C([H])(N([H])C([H])([H])[H])C([H])([H])[H])C(C([H])([H])[H])(C([H])([H])[H])C([H])([H])[H])C([H])([H])c2c([H])c(OC([H])([H])C(C([H])([H])[H])(C([H])([H])[H])C([H])([H])c3c([H])c([H])c(N([H])C(=O)N4C([H])([H])C([H])([H])C([H])([H])C([H])(n5nc(-c6c([H])c([H])c(Oc7c([H])c([H])c(F)c([H])c7F)c([H])c6[H])c(C(=O)N([H])[H])c5N([H])[H])C4([H])[H])c(C([H])([H])[H])c3[H])c([H])c([H])c2C1([H])[H]

>  <smiles>  (18) 
[H]c1c([H])c([H])c2c(c1[H])C([H])([H])C([H])([H])C([H])([H])C2([H])N([H])C(=O)C1([H])N(C(=O)C([H])(N([H])C(=O)C([H])(N([H])C([H])([H])[H])C([H])([H])[H])C(C([H])([H])[H])(C([H])([H])[H])C([H])([H])[H])C([H])([H])c2c([H])c(OC([H])([H])C(C([H])([H])[H])(C([H])([H])[H])C([H])([H])c3c([H])c([H])c(N([H])C(=O)N4C([H])([H])C([H])([H])C([H])([H])C([H])(n5nc(-c6c([H])c([H])c(Oc7c([H])c([H])c(F)c([H])c7F)c([H])c6[H])c(C(=O)N([H])[H])c5N([H])[H])C4([H])[H])c(C([H])([H])[H])c3[H])c([H])c([H])c2C1([H])[H]

$$$$
18:0:0
     RDKit          3D

 93102  0  0  1  0  0  0  0  0999 V2000
  -28.2540  -24.2900   20.1120 C   0  0  0  0  0  0  0  0  0  0  0  0
  -28.3200  -25.5430   20.6380 C   0  0  0  0  0  3  0  0  0  0  0  0
  -28.0730  -24.0530   18.6200 C   0  0  0  0  0  2  0  0  0  0  0  0
  -28.2690  -23.0060   20.9890 C   0  0  0  0  0  2  0  0  0  0  0  0
  -28.8400  -22.8120   18.1330 C   0  0  0  0  0  2  0  0  0  0  0  0
  -28.4970  -21.5520   18.9530 C   0  0  0  0  0  2  0  0  0  0  0  0
  -28.8190  -21.7660   20.3650 N   0  0  0  0  0  0  0  0  0  0  0  0
  -31.3160  -18.9730   22.4550 C   0  0  0  0  0  3  0  0  0  0  0  0
  -29.6470  -19.3930   20.7310 C   0  0  0  0  0  3  0  0  0  0  0  0
  -30.4370  -21.2250   22.1420 C   0  0  0  0  0  3  0  0  0  0  0  0
  -30.5280  -18.4770   21.3950 C   0  0  0  0  0  0  0  0  0  0  0  0
  -31.2810  -20.3290   22.8350 C   0  0  0  0  0  0  0  0  0  0  0  0
  -29.6020  -20.7970   21.0760 C   0  0  0  0  0  0  0  0  0  0  0  0
  -32.2110  -20.8240   23.9400 C   0  0  0  0  0  1  0  0  0  0  0  0
  -30.8640  -17.0810   20.9600 C   0  0  0  0  0  3  0  0  0  0  0  0
  -30.1380  -15.9380   20.7650 C   0  0  0  0  0  3  0  0  0  0  0  0
  -30.8310  -14.7210   20.2680 C   0  0  0  0  0  0  0  0  0  0  0  0
  -30.5100  -12.5150   19.1820 C   0  0  0  0  0  2  0  0  0  0  0  0
  -29.5680  -12.6850   17.9730 C   0  0  0  0  0  2  0  0  0  0  0  0
  -28.0980  -12.5400   18.4150 C   0  0  0  0  0  2  0  0  0  0  0  0
  -27.7610  -13.3950   19.6680 C   0  0  0  0  0  3  0  0  0  0  0  0
  -28.8300  -13.2290   20.7700 C   0  0  0  0  0  2  0  0  0  0  0  0
  -30.1390  -13.5420   20.1800 N   0  0  0  0  0  0  0  0  0  0  0  0
  -31.9750  -14.7900   19.8060 O   0  0  0  0  0  0  0  0  0  0  0  0
  -25.3800  -13.9880   20.4210 C   0  0  0  0  0  0  0  0  0  0  0  0
  -24.3170  -13.2130   20.8020 C   0  0  0  0  0  0  0  0  0  0  0  0
  -24.7810  -11.8620   20.7610 C   0  0  0  0  0  0  0  0  0  0  0  0
  -26.4210  -13.1080   20.1720 N   0  0  0  0  0  0  0  0  0  0  0  0
  -26.0670  -11.8260   20.4360 N   0  0  0  0  0  0  0  0  0  0  0  0
  -24.0610  -10.5990   20.9580 C   0  0  0  0  0  0  0  0  0  0  0  0
  -24.4920   -9.6410   21.9040 C   0  0  0  0  0  3  0  0  0  0  0  0
  -23.7710   -8.4420   22.0870 C   0  0  0  0  0  3  0  0  0  0  0  0
  -22.6050   -8.1920   21.3270 C   0  0  0  0  0  0  0  0  0  0  0  0
  -22.1920   -9.1360   20.3720 C   0  0  0  0  0  3  0  0  0  0  0  0
  -22.9130  -10.3280   20.1850 C   0  0  0  0  0  3  0  0  0  0  0  0
  -21.8530   -7.0460   21.4210 O   0  0  0  0  0  0  0  0  0  0  0  0
  -21.7730   -6.3310   22.5900 C   0  0  0  0  0  0  0  0  0  0  0  0
  -21.2990   -6.9110   23.7880 C   0  0  0  0  0  3  0  0  0  0  0  0
  -21.1690   -6.1220   24.9480 C   0  0  0  0  0  3  0  0  0  0  0  0
  -21.5040   -4.7540   24.9120 C   0  0  0  0  0  0  0  0  0  0  0  0
  -21.9700   -4.1740   23.7180 C   0  0  0  0  0  3  0  0  0  0  0  0
  -22.1030   -4.9610   22.5610 C   0  0  0  0  0  0  0  0  0  0  0  0
  -22.5320   -4.3930   21.4070 F   0  0  0  0  0  0  0  0  0  0  0  0
  -21.3740   -3.9920   26.0240 F   0  0  0  0  0  0  0  0  0  0  0  0
  -22.9230  -13.6900   21.0910 C   0  0  0  0  0  0  0  0  0  0  0  0
  -22.2090  -12.9940   21.9700 N   0  0  0  0  0  0  0  0  0  0  0  0
  -22.4740  -14.7120   20.5740 O   0  0  0  0  0  0  0  0  0  0  0  0
  -22.5830  -12.1690   22.4160 H   0  0  0  0  0  0  0  0  0  0  0  0
  -21.2730  -13.2910   22.2060 H   0  0  0  0  0  0  0  0  0  0  0  0
  -25.5470  -15.3570   20.2420 N   0  0  0  0  0  0  0  0  0  0  0  0
  -24.7960  -16.0260   20.3770 H   0  0  0  0  0  0  0  0  0  0  0  0
  -26.4100  -15.7870   19.9310 H   0  0  0  0  0  0  0  0  0  0  0  0
  -28.3370  -26.7360   19.9270 O   0  0  0  0  0  0  0  0  0  0  0  0
  -24.6010  -31.8990   23.1950 C   0  0  0  0  0  0  0  0  0  0  0  0
  -27.1980  -27.5170   19.9780 C   0  0  0  0  0  0  0  0  0  0  0  0
  -23.3710  -30.5210   21.5510 C   0  0  0  0  0  3  0  0  0  0  0  0
  -24.8030  -29.0290   20.0590 C   0  0  0  0  0  0  0  0  0  0  0  0
  -25.8930  -30.9000   21.3090 C   0  0  0  0  0  2  0  0  0  0  0  0
  -25.9730  -29.5430   20.6340 C   0  0  0  0  0  0  0  0  0  0  0  0
  -27.1780  -28.7970   20.5880 C   0  0  0  0  0  3  0  0  0  0  0  0
  -26.0140  -27.0270   19.3920 C   0  0  0  0  0  3  0  0  0  0  0  0
  -24.8190  -27.7690   19.4360 C   0  0  0  0  0  3  0  0  0  0  0  0
  -23.5530  -29.8770   20.1520 C   0  0  0  0  0  2  0  0  0  0  0  0
  -24.6410  -31.1200   22.0770 N   0  0  0  0  0  0  0  0  0  0  0  0
  -23.5280  -32.1510   23.7600 O   0  0  0  0  0  0  0  0  0  0  0  0
  -22.7470  -29.4710   22.5000 C   0  0  0  0  0  0  0  0  0  0  0  0
  -21.4230  -29.2830   22.3960 N   0  0  0  0  0  0  0  0  0  0  0  0
  -23.4510  -28.8290   23.2850 O   0  0  0  0  0  0  0  0  0  0  0  0
  -20.9150  -29.8480   21.7300 H   0  0  0  0  0  0  0  0  0  0  0  0
  -18.0710  -28.0350   22.9160 C   0  0  0  0  0  0  0  0  0  0  0  0
  -20.6280  -28.3200   23.1570 C   0  0  0  0  0  3  0  0  0  0  0  0
  -20.7390  -26.9010   22.5530 C   0  0  0  0  0  2  0  0  0  0  0  0
  -19.6260  -26.5840   21.5480 C   0  0  0  0  0  2  0  0  0  0  0  0
  -18.2510  -26.7000   22.2120 C   0  0  0  0  0  2  0  0  0  0  0  0
  -19.1860  -28.8050   23.3400 C   0  0  0  0  0  0  0  0  0  0  0  0
  -18.9580  -30.0560   23.9530 C   0  0  0  0  0  3  0  0  0  0  0  0
  -17.6510  -30.5390   24.1480 C   0  0  0  0  0  3  0  0  0  0  0  0
  -16.5510  -29.7640   23.7410 C   0  0  0  0  0  3  0  0  0  0  0  0
  -16.7610  -28.5150   23.1310 C   0  0  0  0  0  3  0  0  0  0  0  0
  -25.8910  -32.5280   23.8020 C   0  0  0  0  0  3  0  0  0  0  0  0
  -25.5840  -33.9230   24.1430 N   0  0  0  0  0  0  0  0  0  0  0  0
  -25.9190  -34.9850   23.3970 C   0  0  0  0  0  0  0  0  0  0  0  0
  -26.5940  -34.8920   22.3680 O   0  0  0  0  0  0  0  0  0  0  0  0
  -24.9930  -34.0720   24.9480 H   0  0  0  0  0  0  0  0  0  0  0  0
  -24.2060  -36.7890   23.0290 C   0  0  0  0  0  1  0  0  0  0  0  0
  -25.4220  -36.3660   23.8670 C   0  0  0  0  0  3  0  0  0  0  0  0
  -27.5340  -37.2140   24.7780 C   0  0  0  0  0  1  0  0  0  0  0  0
  -26.4610  -37.4160   23.8090 N   0  0  0  0  0  0  0  0  0  0  0  0
  -26.0550  -38.3350   23.9740 H   0  0  0  0  0  0  0  0  0  0  0  0
  -26.4300  -31.7530   25.0660 C   0  0  1  0  0  0  0  0  0  0  0  0
  -25.3570  -31.4920   26.1470 C   0  0  0  0  0  1  0  0  0  0  0  0
  -27.0290  -30.3880   24.6560 C   0  0  0  0  0  1  0  0  0  0  0  0
  -27.5850  -32.5550   25.7140 C   0  0  0  0  0  1  0  0  0  0  0  0
  1  2  2  0
  1  4  1  0
  3  1  1  0
  5  3  1  0
  5  6  1  0
  6  7  1  0
  7  4  1  0
  7 13  1  0
  8 12  1  0
  9 13  2  0
  9 11  1  0
 10 12  2  0
 11  8  2  0
 12 14  1  0
 13 10  1  0
 15 11  1  0
 16 15  2  0
 17 16  1  0
 18 23  1  0
 19 20  1  0
 19 18  1  0
 21 20  1  0
 21 28  1  0
 21 22  1  0
 23 17  1  0
 23 22  1  0
 24 17  2  0
 25 26  2  0
 26 45  1  0
 27 26  1  0
 27 30  1  0
 28 25  1  0
 28 29  1  0
 29 27  2  0
 30 31  1  0
 31 32  2  0
 33 36  1  0
 33 32  1  0
 34 33  2  0
 35 34  1  0
 35 30  2  0
 36 37  1  0
 37 38  1  0
 38 39  2  0
 40 39  1  0
 40 44  1  0
 41 40  2  0
 42 37  2  0
 42 41  1  0
 43 42  1  0
 45 46  1  0
 46 49  1  0
 46 48  1  0
 47 45  2  0
 50 51  1  0
 50 25  1  0
 52 50  1  0
 53 55  1  0
 53  2  1  0
 54 65  2  0
 55 60  1  0
 56 64  1  0
 56 66  1  0
 57 63  1  0
 57 59  1  0
 58 64  1  0
 59 58  1  0
 60 59  2  0
 61 62  1  0
 61 55  2  0
 62 57  2  0
 63 56  1  0
 64 54  1  0
 66 68  2  0
 67 66  1  0
 69 67  1  0
 70 79  2  0
 70 75  1  0
 71 67  1  0
 71 75  1  0
 72 71  1  0
 73 74  1  0
 73 72  1  0
 74 70  1  0
 75 76  2  0
 76 77  1  0
 78 77  2  0
 79 78  1  0
 80 54  1  0
 80 81  1  0
 80 90  1  0
 81 84  1  0
 82 86  1  0
 82 81  1  0
 83 82  2  0
 86 85  1  0
 88 86  1  0
 88 89  1  0
 88 87  1  0
 90 93  1  1
 90 91  1  0
 92 90  1  0
M  ISO  4   2 101  16 100  17 100  53 101
M  END
>  <TORSDO>  (19) 
F 18

>  <SCORE>  (19) 
-15.088

>  <name>  (19) 
18

>  <ligand_id>  (19) 
18

>  <original_smiles>  (19) 
[H]C(Oc1c([H])c([H])c2c(c1[H])C([H])([H])N(C(=O)C([H])(N([H])C(=O)C([H])(N([H])C([H])([H])[H])C([H])([H])[H])C(C([H])([H])[H])(C([H])([H])[H])C([H])([H])[H])C([H])(C(=O)N([H])C1([H])c3c([H])c([H])c([H])c([H])c3C([H])([H])C([H])([H])C1([H])[H])C2([H])[H])=C1C([H])([H])N(c2c([H])c(C([H])=C([H])C(=O)N3C([H])([H])C([H])([H])C([H])([H])C([H])(n4nc(-c5c([H])c([H])c(Oc6c([H])c([H])c(F)c([H])c6F)c([H])c5[H])c(C(=O)N([H])[H])c4N([H])[H])C3([H])[H])c([H])c(C([H])([H])[H])c2[H])C([H])([H])C([H])([H])C1([H])[H]

>  <smiles>  (19) 
[H]C(Oc1c([H])c([H])c2c(c1[H])C([H])([H])N(C(=O)C([H])(N([H])C(=O)C([H])(N([H])C([H])([H])[H])C([H])([H])[H])C(C([H])([H])[H])(C([H])([H])[H])C([H])([H])[H])C([H])(C(=O)N([H])C1([H])c3c([H])c([H])c([H])c([H])c3C([H])([H])C([H])([H])C1([H])[H])C2([H])[H])=C1C([H])([H])N(c2c([H])c(C([H])=C([H])C(=O)N3C([H])([H])C([H])([H])C([H])([H])C([H])(n4nc(-c5c([H])c([H])c(Oc6c([H])c([H])c(F)c([H])c6F)c([H])c5[H])c(C(=O)N([H])[H])c4N([H])[H])C3([H])[H])c([H])c(C([H])([H])[H])c2[H])C([H])([H])C([H])([H])C1([H])[H]

$$$$
19:0:0
     RDKit          3D

 91 99  0  0  1  0  0  0  0  0999 V2000
  -28.5840  -20.9230   19.4640 C   0  0  0  0  0  3  0  0  0  0  0  0
  -26.8180  -19.0410   19.7630 C   0  0  0  0  0  3  0  0  0  0  0  0
  -27.3350  -16.6180   19.7810 C   0  0  0  0  0  3  0  0  0  0  0  0
  -29.1110  -18.2700   19.5780 C   0  0  0  0  0  3  0  0  0  0  0  0
  -26.4000  -17.6830   19.8290 C   0  0  0  0  0  0  0  0  0  0  0  0
  -28.1850  -19.3860   19.6650 C   0  0  0  0  0  0  0  0  0  0  0  0
  -28.7130  -16.8660   19.6150 C   0  0  0  0  0  0  0  0  0  0  0  0
  -24.9140  -17.3660   19.8870 C   0  0  0  0  0  1  0  0  0  0  0  0
  -30.3800  -14.8350   20.1060 C   0  0  0  0  0  0  0  0  0  0  0  0
  -30.5320  -12.3700   19.7690 C   0  0  0  0  0  2  0  0  0  0  0  0
  -29.7120  -11.9500   18.5300 C   0  0  0  0  0  2  0  0  0  0  0  0
  -28.2460  -11.6790   18.9160 C   0  0  0  0  0  2  0  0  0  0  0  0
  -27.6550  -12.8050   19.8130 C   0  0  0  0  0  3  0  0  0  0  0  0
  -28.6160  -13.1780   20.9570 C   0  0  0  0  0  2  0  0  0  0  0  0
  -29.8700  -13.5730   20.3190 N   0  0  0  0  0  0  0  0  0  0  0  0
  -31.6000  -14.9680   20.0280 O   0  0  0  0  0  0  0  0  0  0  0  0
  -29.6680  -15.7690   19.3580 N   0  0  0  0  0  0  0  0  0  0  0  0
  -30.3330  -16.0980   18.6690 H   0  0  0  0  0  0  0  0  0  0  0  0
  -25.2370  -13.2950   20.4930 C   0  0  0  0  0  0  0  0  0  0  0  0
  -24.2100  -12.4870   20.8780 C   0  0  0  0  0  0  0  0  0  0  0  0
  -24.7370  -11.1570   20.9010 C   0  0  0  0  0  0  0  0  0  0  0  0
  -26.3250  -12.4650   20.3010 N   0  0  0  0  0  0  0  0  0  0  0  0
  -26.0340  -11.1730   20.6080 N   0  0  0  0  0  0  0  0  0  0  0  0
  -24.0690   -9.8740   21.1340 C   0  0  0  0  0  0  0  0  0  0  0  0
  -24.4930   -8.9920   22.1550 C   0  0  0  0  0  3  0  0  0  0  0  0
  -23.8200   -7.7700   22.3720 C   0  0  0  0  0  3  0  0  0  0  0  0
  -22.7090   -7.4190   21.5660 C   0  0  0  0  0  0  0  0  0  0  0  0
  -22.3030   -8.2880   20.5390 C   0  0  0  0  0  3  0  0  0  0  0  0
  -22.9770   -9.5030   20.3210 C   0  0  0  0  0  3  0  0  0  0  0  0
  -22.0120   -6.2400   21.6800 O   0  0  0  0  0  0  0  0  0  0  0  0
  -21.8580   -5.6100   22.8900 C   0  0  0  0  0  0  0  0  0  0  0  0
  -21.2600   -6.2550   23.9930 C   0  0  0  0  0  3  0  0  0  0  0  0
  -21.0540   -5.5480   25.1960 C   0  0  0  0  0  3  0  0  0  0  0  0
  -21.4430   -4.1970   25.2920 C   0  0  0  0  0  0  0  0  0  0  0  0
  -22.0350   -3.5530   24.1910 C   0  0  0  0  0  3  0  0  0  0  0  0
  -22.2390   -4.2580   22.9930 C   0  0  0  0  0  0  0  0  0  0  0  0
  -22.7890   -3.6270   21.9260 F   0  0  0  0  0  0  0  0  0  0  0  0
  -21.2420   -3.5140   26.4430 F   0  0  0  0  0  0  0  0  0  0  0  0
  -22.7900  -12.9040   21.1180 C   0  0  0  0  0  0  0  0  0  0  0  0
  -22.0920  -12.2150   22.0110 N   0  0  0  0  0  0  0  0  0  0  0  0
  -22.3040  -13.8780   20.5420 O   0  0  0  0  0  0  0  0  0  0  0  0
  -22.5040  -11.4310   22.5010 H   0  0  0  0  0  0  0  0  0  0  0  0
  -21.1360  -12.4840   22.2130 H   0  0  0  0  0  0  0  0  0  0  0  0
  -25.3280  -14.6630   20.2660 N   0  0  0  0  0  0  0  0  0  0  0  0
  -24.5460  -15.2870   20.3990 H   0  0  0  0  0  0  0  0  0  0  0  0
  -26.1620  -15.1330   19.9430 H   0  0  0  0  0  0  0  0  0  0  0  0
  -28.4110  -22.1090   20.5630 C   0  0  0  0  0  3  0  0  0  0  0  0
  -28.7830  -23.6080   20.1410 C   0  0  0  0  0  0  0  0  0  0  0  0
  -29.4680  -23.8130   19.1320 O   0  0  0  0  0  0  0  0  0  0  0  0
  -28.3200  -24.8520   21.0220 C   0  0  0  0  0  2  0  0  0  0  0  0
  -28.5960  -26.2430   20.5280 O   0  0  0  0  0  0  0  0  0  0  0  0
  -24.6280  -31.6910   23.1880 C   0  0  0  0  0  0  0  0  0  0  0  0
  -27.4990  -27.1090   20.4010 C   0  0  0  0  0  0  0  0  0  0  0  0
  -23.5480  -30.2050   21.5370 C   0  0  0  0  0  3  0  0  0  0  0  0
  -25.1120  -28.6630   20.2290 C   0  0  0  0  0  0  0  0  0  0  0  0
  -26.0830  -30.6040   21.4680 C   0  0  0  0  0  2  0  0  0  0  0  0
  -26.2420  -29.2120   20.8520 C   0  0  0  0  0  0  0  0  0  0  0  0
  -27.4510  -28.4490   20.9080 C   0  0  0  0  0  3  0  0  0  0  0  0
  -26.3510  -26.6210   19.7380 C   0  0  0  0  0  3  0  0  0  0  0  0
  -25.1750  -27.3860   19.6490 C   0  0  0  0  0  3  0  0  0  0  0  0
  -23.8470  -29.4930   20.1920 C   0  0  0  0  0  2  0  0  0  0  0  0
  -24.7690  -30.8510   22.1220 N   0  0  0  0  0  0  0  0  0  0  0  0
  -23.5110  -31.9430   23.6610 O   0  0  0  0  0  0  0  0  0  0  0  0
  -22.8590  -29.2000   22.4930 C   0  0  0  0  0  0  0  0  0  0  0  0
  -21.5390  -29.0140   22.3260 N   0  0  0  0  0  0  0  0  0  0  0  0
  -23.5180  -28.5920   23.3440 O   0  0  0  0  0  0  0  0  0  0  0  0
  -21.0570  -29.6160   21.6720 H   0  0  0  0  0  0  0  0  0  0  0  0
  -18.1560  -27.7950   22.7130 C   0  0  0  0  0  0  0  0  0  0  0  0
  -20.7050  -28.0710   23.0710 C   0  0  0  0  0  3  0  0  0  0  0  0
  -20.8300  -26.6260   22.5090 C   0  0  0  0  0  2  0  0  0  0  0  0
  -19.7620  -26.2950   21.4560 C   0  0  0  0  0  2  0  0  0  0  0  0
  -18.3590  -26.4470   22.0490 C   0  0  0  0  0  2  0  0  0  0  0  0
  -19.2610  -28.5660   23.1740 C   0  0  0  0  0  0  0  0  0  0  0  0
  -19.0210  -29.8310   23.7510 C   0  0  0  0  0  3  0  0  0  0  0  0
  -17.7130  -30.3330   23.8710 C   0  0  0  0  0  3  0  0  0  0  0  0
  -16.6240  -29.5570   23.4290 C   0  0  0  0  0  3  0  0  0  0  0  0
  -16.8450  -28.2910   22.8600 C   0  0  0  0  0  3  0  0  0  0  0  0
  -25.8580  -32.3740   23.8630 C   0  0  0  0  0  3  0  0  0  0  0  0
  -26.3240  -31.6540   25.1890 C   0  0  1  0  0  0  0  0  0  0  0  0
  -25.1780  -31.4000   26.1980 C   0  0  0  0  0  1  0  0  0  0  0  0
  -26.9790  -30.2890   24.8700 C   0  0  0  0  0  1  0  0  0  0  0  0
  -27.4090  -32.5050   25.8940 C   0  0  0  0  0  1  0  0  0  0  0  0
  -25.5020  -33.7750   24.1340 N   0  0  0  0  0  0  0  0  0  0  0  0
  -25.8360  -34.8070   23.3480 C   0  0  0  0  0  0  0  0  0  0  0  0
  -26.5450  -34.6840   22.3450 O   0  0  0  0  0  0  0  0  0  0  0  0
  -24.8830  -33.9510   24.9150 H   0  0  0  0  0  0  0  0  0  0  0  0
  -24.0850  -36.5420   22.8640 C   0  0  0  0  0  1  0  0  0  0  0  0
  -25.3030  -36.2010   23.7360 C   0  0  0  0  0  3  0  0  0  0  0  0
  -27.3820  -37.1660   24.6130 C   0  0  0  0  0  1  0  0  0  0  0  0
  -26.3170  -37.2730   23.6190 N   0  0  0  0  0  0  0  0  0  0  0  0
  -25.8860  -38.1890   23.7200 H   0  0  0  0  0  0  0  0  0  0  0  0
  1  6  1  0
  1 47  2  0
  2  5  1  0
  3  5  2  0
  4  7  2  0
  4  6  1  0
  5  8  1  0
  6  2  2  0
  7  3  1  0
  9 15  1  0
 10 15  1  0
 11 12  1  0
 11 10  1  0
 13 12  1  0
 13 22  1  0
 13 14  1  0
 15 14  1  0
 16  9  2  0
 17  7  1  0
 17  9  1  0
 18 17  1  0
 19 20  2  0
 20 21  1  0
 20 39  1  0
 21 24  1  0
 22 19  1  0
 22 23  1  0
 23 21  2  0
 24 25  1  0
 25 26  2  0
 27 30  1  0
 27 26  1  0
 28 27  2  0
 29 28  1  0
 29 24  2  0
 30 31  1  0
 31 36  2  0
 31 32  1  0
 32 33  2  0
 33 34  1  0
 34 38  1  0
 35 34  2  0
 36 35  1  0
 37 36  1  0
 39 40  1  0
 40 43  1  0
 40 42  1  0
 41 39  2  0
 44 45  1  0
 44 19  1  0
 46 44  1  0
 48 47  1  0
 48 50  1  0
 49 48  2  0
 51 50  1  0
 52 63  2  0
 53 51  1  0
 53 58  1  0
 54 62  1  0
 54 64  1  0
 55 57  1  0
 56 62  1  0
 57 58  2  0
 57 56  1  0
 59 53  2  0
 60 59  1  0
 60 55  2  0
 61 55  1  0
 61 54  1  0
 62 52  1  0
 64 66  2  0
 65 64  1  0
 67 65  1  0
 68 77  2  0
 68 73  1  0
 69 65  1  0
 69 73  1  0
 70 69  1  0
 71 72  1  0
 71 70  1  0
 72 68  1  0
 73 74  2  0
 74 75  1  0
 76 75  2  0
 77 76  1  0
 78 52  1  0
 78 83  1  0
 78 79  1  0
 79 82  1  1
 79 80  1  0
 81 79  1  0
 83 86  1  0
 84 88  1  0
 84 83  1  0
 85 84  2  0
 88 87  1  0
 90 91  1  0
 90 88  1  0
 90 89  1  0
M  ISO  4   9 100  17 100  50 101  51 101
M  END
>  <TORSDO>  (20) 
F 20

>  <SCORE>  (20) 
-12.209

>  <name>  (20) 
19

>  <ligand_id>  (20) 
19

>  <original_smiles>  (20) 
[H]c1c([H])c([H])c2c(c1[H])C([H])([H])C([H])([H])C([H])([H])C2([H])N([H])C(=O)C1([H])N(C(=O)C([H])(N([H])C(=O)C([H])(N([H])C([H])([H])[H])C([H])([H])[H])C(C([H])([H])[H])(C([H])([H])[H])C([H])([H])[H])C([H])([H])c2c([H])c(OC([H])([H])C(=O)C([H])([H])C([H])([H])c3c([H])c(N([H])C(=O)N4C([H])([H])C([H])([H])C([H])([H])C([H])(n5nc(-c6c([H])c([H])c(Oc7c([H])c([H])c(F)c([H])c7F)c([H])c6[H])c(C(=O)N([H])[H])c5N([H])[H])C4([H])[H])c([H])c(C([H])([H])[H])c3[H])c([H])c([H])c2C1([H])[H]

>  <smiles>  (20) 
[H]c1c([H])c([H])c2c(c1[H])C([H])([H])C([H])([H])C([H])([H])C2([H])N([H])C(=O)C1([H])N(C(=O)C([H])(N([H])C(=O)C([H])(N([H])C([H])([H])[H])C([H])([H])[H])C(C([H])([H])[H])(C([H])([H])[H])C([H])([H])[H])C([H])([H])c2c([H])c(OC([H])([H])C(=O)C([H])([H])C([H])([H])c3c([H])c(N([H])C(=O)N4C([H])([H])C([H])([H])C([H])([H])C([H])(n5nc(-c6c([H])c([H])c(Oc7c([H])c([H])c(F)c([H])c7F)c([H])c6[H])c(C(=O)N([H])[H])c5N([H])[H])C4([H])[H])c([H])c(C([H])([H])[H])c3[H])c([H])c([H])c2C1([H])[H]

$$$$
20:0:0
     RDKit          3D

 88 96  0  0  1  0  0  0  0  0999 V2000
  -28.9940  -20.0940   22.1020 C   0  0  0  0  0  3  0  0  0  0  0  0
  -29.4630  -18.8860   21.5440 C   0  0  0  0  0  3  0  0  0  0  0  0
  -29.0380  -21.3030   21.3800 C   0  0  0  0  0  3  0  0  0  0  0  0
  -30.0460  -20.0970   19.5240 C   0  0  0  0  0  3  0  0  0  0  0  0
  -30.0210  -18.8410   20.2470 C   0  0  0  0  0  0  0  0  0  0  0  0
  -29.5560  -21.3470   20.0690 C   0  0  0  0  0  0  0  0  0  0  0  0
  -30.5430  -17.5000   19.7170 C   0  0  0  0  0  3  0  0  0  0  0  0
  -30.3330  -16.2160   20.1890 C   0  0  0  0  0  3  0  0  0  0  0  0
  -31.0210  -14.9980   19.6470 C   0  0  0  0  0  0  0  0  0  0  0  0
  -30.6870  -12.7250   18.6800 C   0  0  0  0  0  2  0  0  0  0  0  0
  -29.6510  -12.8230   17.5370 C   0  0  0  0  0  2  0  0  0  0  0  0
  -28.2180  -12.6820   18.0870 C   0  0  0  0  0  2  0  0  0  0  0  0
  -27.9680  -13.5790   19.3270 C   0  0  0  0  0  3  0  0  0  0  0  0
  -29.1130  -13.4560   20.3550 C   0  0  0  0  0  2  0  0  0  0  0  0
  -30.3700  -13.7820   19.6680 N   0  0  0  0  0  0  0  0  0  0  0  0
  -32.1270  -15.0780   19.1040 O   0  0  0  0  0  0  0  0  0  0  0  0
  -25.6890  -14.2150   20.3280 C   0  0  0  0  0  0  0  0  0  0  0  0
  -24.6310  -13.4600   20.7550 C   0  0  0  0  0  0  0  0  0  0  0  0
  -25.0260  -12.0970   20.5880 C   0  0  0  0  0  0  0  0  0  0  0  0
  -26.6640  -13.3140   19.9300 N   0  0  0  0  0  0  0  0  0  0  0  0
  -26.2760  -12.0300   20.1470 N   0  0  0  0  0  0  0  0  0  0  0  0
  -24.2640  -10.8530   20.7710 C   0  0  0  0  0  0  0  0  0  0  0  0
  -24.6910   -9.8520   21.6720 C   0  0  0  0  0  3  0  0  0  0  0  0
  -23.9300   -8.6750   21.8440 C   0  0  0  0  0  3  0  0  0  0  0  0
  -22.7300   -8.4920   21.1160 C   0  0  0  0  0  0  0  0  0  0  0  0
  -22.3240   -9.4810   20.2040 C   0  0  0  0  0  3  0  0  0  0  0  0
  -23.0850  -10.6500   20.0290 C   0  0  0  0  0  3  0  0  0  0  0  0
  -21.9420   -7.3690   21.1980 O   0  0  0  0  0  0  0  0  0  0  0  0
  -21.8240   -6.6560   22.3650 C   0  0  0  0  0  0  0  0  0  0  0  0
  -21.3260   -7.2430   23.5500 C   0  0  0  0  0  3  0  0  0  0  0  0
  -21.1560   -6.4560   24.7070 C   0  0  0  0  0  3  0  0  0  0  0  0
  -21.4730   -5.0850   24.6800 C   0  0  0  0  0  0  0  0  0  0  0  0
  -21.9650   -4.4990   23.5000 C   0  0  0  0  0  3  0  0  0  0  0  0
  -22.1360   -5.2820   22.3450 C   0  0  0  0  0  0  0  0  0  0  0  0
  -22.5900   -4.7080   21.2050 F   0  0  0  0  0  0  0  0  0  0  0  0
  -21.3040   -4.3280   25.7880 F   0  0  0  0  0  0  0  0  0  0  0  0
  -23.2910  -13.9710   21.1990 C   0  0  0  0  0  0  0  0  0  0  0  0
  -22.6270  -13.2520   22.0970 N   0  0  0  0  0  0  0  0  0  0  0  0
  -22.8480  -15.0420   20.7880 O   0  0  0  0  0  0  0  0  0  0  0  0
  -23.0010  -12.3840   22.4520 H   0  0  0  0  0  0  0  0  0  0  0  0
  -21.7330  -13.5760   22.4370 H   0  0  0  0  0  0  0  0  0  0  0  0
  -25.8990  -15.5870   20.2250 N   0  0  0  0  0  0  0  0  0  0  0  0
  -25.1810  -16.2630   20.4620 H   0  0  0  0  0  0  0  0  0  0  0  0
  -26.7420  -16.0150   19.8630 H   0  0  0  0  0  0  0  0  0  0  0  0
  -29.4360  -22.6940   19.2480 C   0  0  0  0  0  2  0  0  0  0  0  0
  -29.5040  -24.1520   19.9340 C   0  0  0  0  0  3  0  0  0  0  0  0
  -28.5810  -25.3000   19.3000 C   0  0  0  0  0  3  0  0  0  0  0  0
  -28.6430  -26.7290   19.7340 O   0  0  0  0  0  0  0  0  0  0  0  0
  -24.5650  -31.6720   23.0800 C   0  0  0  0  0  0  0  0  0  0  0  0
  -27.4700  -27.5140   19.7120 C   0  0  0  0  0  0  0  0  0  0  0  0
  -23.4460  -30.2840   21.3730 C   0  0  0  0  0  3  0  0  0  0  0  0
  -24.9890  -28.9500   19.8290 C   0  0  0  0  0  0  0  0  0  0  0  0
  -25.9520  -30.8090   21.1800 C   0  0  0  0  0  2  0  0  0  0  0  0
  -26.1270  -29.4840   20.4460 C   0  0  0  0  0  0  0  0  0  0  0  0
  -27.3670  -28.7750   20.3840 C   0  0  0  0  0  3  0  0  0  0  0  0
  -26.3070  -27.0590   19.0460 C   0  0  0  0  0  3  0  0  0  0  0  0
  -25.0810  -27.7460   19.1190 C   0  0  0  0  0  3  0  0  0  0  0  0
  -23.6880  -29.7190   19.9490 C   0  0  0  0  0  2  0  0  0  0  0  0
  -24.6730  -30.9380   21.9350 N   0  0  0  0  0  0  0  0  0  0  0  0
  -23.4730  -31.8290   23.6450 O   0  0  0  0  0  0  0  0  0  0  0  0
  -22.8850  -29.1590   22.2750 C   0  0  0  0  0  0  0  0  0  0  0  0
  -21.5870  -28.8500   22.1200 N   0  0  0  0  0  0  0  0  0  0  0  0
  -23.6170  -28.5720   23.0770 O   0  0  0  0  0  0  0  0  0  0  0  0
  -21.0500  -29.3820   21.4500 H   0  0  0  0  0  0  0  0  0  0  0  0
  -18.3570  -27.2620   22.4920 C   0  0  0  0  0  0  0  0  0  0  0  0
  -20.8630  -27.7970   22.8370 C   0  0  0  0  0  3  0  0  0  0  0  0
  -21.1390  -26.4080   22.2170 C   0  0  0  0  0  2  0  0  0  0  0  0
  -20.1030  -26.0010   21.1640 C   0  0  0  0  0  2  0  0  0  0  0  0
  -18.7000  -25.9670   21.7760 C   0  0  0  0  0  2  0  0  0  0  0  0
  -19.3720  -28.1290   22.9760 C   0  0  0  0  0  0  0  0  0  0  0  0
  -18.9980  -29.3360   23.6060 C   0  0  0  0  0  3  0  0  0  0  0  0
  -17.6420  -29.6810   23.7550 C   0  0  0  0  0  3  0  0  0  0  0  0
  -16.6410  -28.8120   23.2860 C   0  0  0  0  0  3  0  0  0  0  0  0
  -16.9990  -27.6050   22.6610 C   0  0  0  0  0  3  0  0  0  0  0  0
  -25.8050  -32.3670   23.7210 C   0  0  0  0  0  3  0  0  0  0  0  0
  -26.3460  -31.6160   24.9980 C   0  0  1  0  0  0  0  0  0  0  0  0
  -25.2520  -31.3080   26.0480 C   0  0  0  0  0  1  0  0  0  0  0  0
  -27.0120  -30.2770   24.6080 C   0  0  0  0  0  1  0  0  0  0  0  0
  -27.4380  -32.4700   25.6840 C   0  0  0  0  0  1  0  0  0  0  0  0
  -25.4160  -33.7450   24.0570 N   0  0  0  0  0  0  0  0  0  0  0  0
  -25.6950  -34.8190   23.3080 C   0  0  0  0  0  0  0  0  0  0  0  0
  -26.3760  -34.7600   22.2790 O   0  0  0  0  0  0  0  0  0  0  0  0
  -24.8080  -33.8610   24.8540 H   0  0  0  0  0  0  0  0  0  0  0  0
  -23.8710  -36.5160   22.9570 C   0  0  0  0  0  1  0  0  0  0  0  0
  -25.1300  -36.1760   23.7710 C   0  0  0  0  0  3  0  0  0  0  0  0
  -27.2030  -37.1790   24.6220 C   0  0  0  0  0  1  0  0  0  0  0  0
  -26.1030  -37.2860   23.6670 N   0  0  0  0  0  0  0  0  0  0  0  0
  -25.6450  -38.1810   23.8110 H   0  0  0  0  0  0  0  0  0  0  0  0
  2  1  1  0
  3  1  2  0
  4  6  2  0
  4  5  1  0
  5  2  2  0
  6  3  1  0
  7  8  2  0
  7  5  1  0
  9 15  1  0
  9  8  1  0
 10 15  1  0
 11 12  1  0
 11 10  1  0
 13 12  1  0
 13 20  1  0
 13 14  1  0
 15 14  1  0
 16  9  2  0
 17 18  2  0
 18 37  1  0
 19 18  1  0
 19 22  1  0
 20 21  1  0
 20 17  1  0
 21 19  2  0
 22 23  1  0
 23 24  2  0
 25 28  1  0
 25 24  1  0
 26 25  2  0
 27 26  1  0
 27 22  2  0
 28 29  1  0
 29 30  1  0
 30 31  2  0
 32 31  1  0
 32 36  1  0
 33 32  2  0
 34 29  2  0
 34 33  1  0
 35 34  1  0
 37 38  1  0
 38 41  1  0
 38 40  1  0
 39 37  2  0
 42 17  1  0
 42 43  1  0
 44 42  1  0
 45 46  1  0
 45  6  1  0
 47 48  1  0
 47 46  2  0
 49 60  2  0
 50 48  1  0
 50 55  1  0
 51 59  1  0
 51 61  1  0
 52 58  1  0
 52 54  1  0
 53 59  1  0
 54 53  1  0
 55 54  2  0
 56 57  1  0
 56 50  2  0
 57 52  2  0
 58 51  1  0
 59 49  1  0
 61 63  2  0
 62 61  1  0
 64 62  1  0
 65 74  2  0
 65 70  1  0
 66 62  1  0
 66 70  1  0
 67 66  1  0
 68 69  1  0
 68 67  1  0
 69 65  1  0
 70 71  2  0
 71 72  1  0
 73 72  2  0
 74 73  1  0
 75 49  1  0
 75 80  1  0
 75 76  1  0
 76 79  1  1
 76 77  1  0
 78 76  1  0
 80 83  1  0
 81 85  1  0
 81 80  1  0
 82 81  2  0
 85 84  1  0
 87 85  1  0
 87 88  1  0
 87 86  1  0
M  ISO  4   8 100   9 100  47 101  48 101
M  END
>  <TORSDO>  (21) 
F 20

>  <SCORE>  (21) 
-10.566

>  <name>  (21) 
20

>  <ligand_id>  (21) 
20

>  <original_smiles>  (21) 
[H]C(C(=O)N1C([H])([H])C([H])([H])C([H])([H])C([H])(n2nc(-c3c([H])c([H])c(Oc4c([H])c([H])c(F)c([H])c4F)c([H])c3[H])c(C(=O)N([H])[H])c2N([H])[H])C1([H])[H])=C([H])c1c([H])c([H])c([H])c(C([H])([H])C([H])([H])C([H])([H])Oc2c([H])c([H])c3c(c2[H])C([H])([H])N(C(=O)C([H])(N([H])C(=O)C([H])(N([H])C([H])([H])[H])C([H])([H])[H])C(C([H])([H])[H])(C([H])([H])[H])C([H])([H])[H])C([H])(C(=O)N([H])C2([H])c4c([H])c([H])c([H])c([H])c4C([H])([H])C([H])([H])C2([H])[H])C3([H])[H])c1[H]

>  <smiles>  (21) 
[H]C(C(=O)N1C([H])([H])C([H])([H])C([H])([H])C([H])(n2nc(-c3c([H])c([H])c(Oc4c([H])c([H])c(F)c([H])c4F)c([H])c3[H])c(C(=O)N([H])[H])c2N([H])[H])C1([H])[H])=C([H])c1c([H])c([H])c([H])c(C([H])([H])C([H])([H])C([H])([H])Oc2c([H])c([H])c3c(c2[H])C([H])([H])N(C(=O)C([H])(N([H])C(=O)C([H])(N([H])C([H])([H])[H])C([H])([H])[H])C(C([H])([H])[H])(C([H])([H])[H])C([H])([H])[H])C([H])(C(=O)N([H])C2([H])c4c([H])c([H])c([H])c([H])c4C([H])([H])C([H])([H])C2([H])[H])C3([H])[H])c1[H]

$$$$
21:0:0
     RDKit          3D

 89 97  0  0  1  0  0  0  0  0999 V2000
  -30.2120  -20.4690   18.9940 C   0  0  0  0  0  3  0  0  0  0  0  0
  -30.8010  -19.3550   18.3640 C   0  0  0  0  0  3  0  0  0  0  0  0
  -29.2860  -18.9130   20.6080 C   0  0  0  0  0  3  0  0  0  0  0  0
  -29.3920  -20.3260   20.1250 C   0  0  0  0  0  0  0  0  0  0  0  0
  -30.6440  -18.0170   18.8080 C   0  0  0  0  0  0  0  0  0  0  0  0
  -29.9250  -17.7000   20.0040 C   0  0  0  0  0  0  0  0  0  0  0  0
  -31.2220  -16.9610   17.8780 C   0  0  0  0  0  1  0  0  0  0  0  0
  -30.5350  -15.0190   20.3170 C   0  0  0  0  0  0  0  0  0  0  0  0
  -30.4060  -12.6670   19.3840 C   0  0  0  0  0  2  0  0  0  0  0  0
  -29.4770  -12.6340   18.1490 C   0  0  0  0  0  2  0  0  0  0  0  0
  -28.0130  -12.4260   18.5740 C   0  0  0  0  0  2  0  0  0  0  0  0
  -27.6070  -13.3380   19.7630 C   0  0  0  0  0  3  0  0  0  0  0  0
  -28.6620  -13.3450   20.8890 C   0  0  0  0  0  2  0  0  0  0  0  0
  -29.9310  -13.7600   20.2820 N   0  0  0  0  0  0  0  0  0  0  0  0
  -31.7470  -15.0430   20.0790 O   0  0  0  0  0  0  0  0  0  0  0  0
  -29.7680  -16.2230   20.4550 N   0  0  0  0  0  0  0  0  0  0  0  0
  -28.8630  -16.0310   20.8590 H   0  0  0  0  0  0  0  0  0  0  0  0
  -25.2240  -13.9070   20.4970 C   0  0  0  0  0  0  0  0  0  0  0  0
  -24.1620  -13.1290   20.8660 C   0  0  0  0  0  0  0  0  0  0  0  0
  -24.6310  -11.7800   20.8400 C   0  0  0  0  0  0  0  0  0  0  0  0
  -26.2700  -13.0330   20.2590 N   0  0  0  0  0  0  0  0  0  0  0  0
  -25.9230  -11.7470   20.5320 N   0  0  0  0  0  0  0  0  0  0  0  0
  -23.9070  -10.5160   21.0300 C   0  0  0  0  0  0  0  0  0  0  0  0
  -24.3320   -9.5550   21.9720 C   0  0  0  0  0  3  0  0  0  0  0  0
  -23.6060   -8.3570   22.1520 C   0  0  0  0  0  3  0  0  0  0  0  0
  -22.4410   -8.1120   21.3860 C   0  0  0  0  0  0  0  0  0  0  0  0
  -22.0360   -9.0630   20.4320 C   0  0  0  0  0  3  0  0  0  0  0  0
  -22.7630  -10.2510   20.2520 C   0  0  0  0  0  3  0  0  0  0  0  0
  -21.6880   -6.9660   21.4720 O   0  0  0  0  0  0  0  0  0  0  0  0
  -21.6220   -6.2340   22.6310 C   0  0  0  0  0  0  0  0  0  0  0  0
  -21.1540   -6.7930   23.8400 C   0  0  0  0  0  3  0  0  0  0  0  0
  -21.0360   -5.9860   24.9890 C   0  0  0  0  0  3  0  0  0  0  0  0
  -21.3770   -4.6220   24.9310 C   0  0  0  0  0  0  0  0  0  0  0  0
  -21.8400   -4.0620   23.7270 C   0  0  0  0  0  3  0  0  0  0  0  0
  -21.9580   -4.8660   22.5790 C   0  0  0  0  0  0  0  0  0  0  0  0
  -22.3830   -4.3160   21.4160 F   0  0  0  0  0  0  0  0  0  0  0  0
  -21.2580   -3.8450   26.0330 F   0  0  0  0  0  0  0  0  0  0  0  0
  -22.7610  -13.6030   21.1290 C   0  0  0  0  0  0  0  0  0  0  0  0
  -22.0300  -12.9090   21.9930 N   0  0  0  0  0  0  0  0  0  0  0  0
  -22.3250  -14.6260   20.6030 O   0  0  0  0  0  0  0  0  0  0  0  0
  -22.3950  -12.0830   22.4430 H   0  0  0  0  0  0  0  0  0  0  0  0
  -21.0910  -13.2110   22.2100 H   0  0  0  0  0  0  0  0  0  0  0  0
  -25.3830  -15.2770   20.3140 N   0  0  0  0  0  0  0  0  0  0  0  0
  -24.6110  -15.9280   20.4150 H   0  0  0  0  0  0  0  0  0  0  0  0
  -26.2180  -15.7140   19.9460 H   0  0  0  0  0  0  0  0  0  0  0  0
  -28.6580  -21.7040   20.6820 C   0  0  0  0  0  2  0  0  0  0  0  0
  -28.9430  -23.3020   20.1720 C   0  0  0  0  0  3  0  0  0  0  0  0
  -28.0110  -24.6680   20.5620 C   0  0  0  0  0  3  0  0  0  0  0  0
  -28.2800  -26.1860   20.2770 O   0  0  0  0  0  0  0  0  0  0  0  0
  -24.6260  -31.8980   23.2380 C   0  0  0  0  0  0  0  0  0  0  0  0
  -27.2190  -27.1690   20.2390 C   0  0  0  0  0  0  0  0  0  0  0  0
  -23.4340  -30.4900   21.6030 C   0  0  0  0  0  3  0  0  0  0  0  0
  -24.8900  -28.9150   20.1880 C   0  0  0  0  0  0  0  0  0  0  0  0
  -25.9880  -30.7620   21.4420 C   0  0  0  0  0  2  0  0  0  0  0  0
  -26.0670  -29.3660   20.7970 C   0  0  0  0  0  0  0  0  0  0  0  0
  -27.2360  -28.5110   20.8010 C   0  0  0  0  0  3  0  0  0  0  0  0
  -26.0180  -26.8270   19.5820 C   0  0  0  0  0  3  0  0  0  0  0  0
  -24.8790  -27.6590   19.5620 C   0  0  0  0  0  3  0  0  0  0  0  0
  -23.6600  -29.8090   20.2280 C   0  0  0  0  0  2  0  0  0  0  0  0
  -24.7030  -31.0730   22.1480 N   0  0  0  0  0  0  0  0  0  0  0  0
  -23.5380  -32.1800   23.7630 O   0  0  0  0  0  0  0  0  0  0  0  0
  -22.7570  -29.4850   22.5680 C   0  0  0  0  0  0  0  0  0  0  0  0
  -21.4300  -29.3060   22.4380 N   0  0  0  0  0  0  0  0  0  0  0  0
  -23.4280  -28.8680   23.4000 O   0  0  0  0  0  0  0  0  0  0  0  0
  -20.9440  -29.8550   21.7420 H   0  0  0  0  0  0  0  0  0  0  0  0
  -18.0530  -28.0910   22.9370 C   0  0  0  0  0  0  0  0  0  0  0  0
  -20.6100  -28.3690   23.2110 C   0  0  0  0  0  3  0  0  0  0  0  0
  -20.7210  -26.9340   22.6460 C   0  0  0  0  0  2  0  0  0  0  0  0
  -19.6240  -26.5990   21.6290 C   0  0  0  0  0  2  0  0  0  0  0  0
  -18.2400  -26.7390   22.2680 C   0  0  0  0  0  2  0  0  0  0  0  0
  -19.1660  -28.8620   23.3650 C   0  0  0  0  0  0  0  0  0  0  0  0
  -18.9370  -30.1250   23.9530 C   0  0  0  0  0  3  0  0  0  0  0  0
  -17.6270  -30.6180   24.1150 C   0  0  0  0  0  3  0  0  0  0  0  0
  -16.5290  -29.8440   23.7020 C   0  0  0  0  0  3  0  0  0  0  0  0
  -16.7430  -28.5820   23.1180 C   0  0  0  0  0  3  0  0  0  0  0  0
  -25.9000  -32.5410   23.8640 C   0  0  0  0  0  3  0  0  0  0  0  0
  -26.4080  -31.7820   25.1530 C   0  0  1  0  0  0  0  0  0  0  0  0
  -25.3080  -31.5550   26.2150 C   0  0  0  0  0  1  0  0  0  0  0  0
  -26.9950  -30.4000   24.7830 C   0  0  0  0  0  1  0  0  0  0  0  0
  -27.5530  -32.5840   25.8150 C   0  0  0  0  0  1  0  0  0  0  0  0
  -25.5840  -33.9420   24.1850 N   0  0  0  0  0  0  0  0  0  0  0  0
  -25.9140  -34.9950   23.4260 C   0  0  0  0  0  0  0  0  0  0  0  0
  -26.5860  -34.8890   22.3960 O   0  0  0  0  0  0  0  0  0  0  0  0
  -24.9870  -34.0970   24.9850 H   0  0  0  0  0  0  0  0  0  0  0  0
  -24.1910  -36.7930   23.0630 C   0  0  0  0  0  1  0  0  0  0  0  0
  -25.4270  -36.3860   23.8810 C   0  0  0  0  0  3  0  0  0  0  0  0
  -27.5570  -37.2730   24.7250 C   0  0  0  0  0  1  0  0  0  0  0  0
  -26.4610  -37.4370   23.7720 N   0  0  0  0  0  0  0  0  0  0  0  0
  -26.0550  -38.3590   23.9130 H   0  0  0  0  0  0  0  0  0  0  0  0
  1  4  1  0
  2  5  1  0
  2  1  2  0
  4  3  2  0
  4 46  1  0
  5  6  2  0
  6 16  1  0
  6  3  1  0
  7  5  1  0
  8 16  1  0
  9 14  1  0
 10 11  1  0
 10  9  1  0
 12 11  1  0
 12 21  1  0
 12 13  1  0
 14  8  1  0
 14 13  1  0
 15  8  2  0
 16 17  1  0
 18 19  2  0
 19 38  1  0
 20 19  1  0
 20 23  1  0
 21 18  1  0
 21 22  1  0
 22 20  2  0
 23 24  1  0
 24 25  2  0
 26 29  1  0
 26 25  1  0
 27 26  2  0
 28 27  1  0
 28 23  2  0
 29 30  1  0
 30 31  1  0
 31 32  2  0
 33 32  1  0
 33 37  1  0
 34 33  2  0
 35 30  2  0
 35 34  1  0
 36 35  1  0
 38 39  1  0
 39 42  1  0
 39 41  1  0
 40 38  2  0
 43 44  1  0
 43 18  1  0
 45 43  1  0
 47 48  2  0
 47 46  1  0
 49 48  1  0
 50 61  2  0
 51 49  1  0
 51 56  1  0
 52 60  1  0
 52 62  1  0
 53 59  1  0
 53 55  1  0
 54 60  1  0
 55 56  2  0
 55 54  1  0
 57 51  2  0
 58 57  1  0
 58 53  2  0
 59 52  1  0
 60 50  1  0
 62 64  2  0
 63 62  1  0
 65 63  1  0
 66 75  2  0
 66 71  1  0
 67 63  1  0
 67 71  1  0
 68 67  1  0
 69 70  1  0
 69 68  1  0
 70 66  1  0
 71 72  2  0
 72 73  1  0
 74 73  2  0
 75 74  1  0
 76 50  1  0
 76 81  1  0
 76 77  1  0
 77 80  1  1
 77 78  1  0
 79 77  1  0
 81 84  1  0
 82 86  1  0
 82 81  1  0
 83 82  2  0
 86 85  1  0
 88 86  1  0
 88 89  1  0
 88 87  1  0
M  ISO  4   8 100  16 100  48 101  49 101
M  END
>  <TORSDO>  (22) 
F 19

>  <SCORE>  (22) 
-15.384

>  <name>  (22) 
21

>  <ligand_id>  (22) 
21

>  <original_smiles>  (22) 
[H]c1c([H])c([H])c2c(c1[H])C([H])([H])C([H])([H])C([H])([H])C2([H])N([H])C(=O)C1([H])N(C(=O)C([H])(N([H])C(=O)C([H])(N([H])C([H])([H])[H])C([H])([H])[H])C(C([H])([H])[H])(C([H])([H])[H])C([H])([H])[H])C([H])([H])c2c([H])c(OC([H])([H])C([H])([H])C([H])([H])c3c([H])c([H])c(C([H])([H])[H])c(N([H])C(=O)N4C([H])([H])C([H])([H])C([H])([H])C([H])(n5nc(-c6c([H])c([H])c(Oc7c([H])c([H])c(F)c([H])c7F)c([H])c6[H])c(C(=O)N([H])[H])c5N([H])[H])C4([H])[H])c3[H])c([H])c([H])c2C1([H])[H]

>  <smiles>  (22) 
[H]c1c([H])c([H])c2c(c1[H])C([H])([H])C([H])([H])C([H])([H])C2([H])N([H])C(=O)C1([H])N(C(=O)C([H])(N([H])C(=O)C([H])(N([H])C([H])([H])[H])C([H])([H])[H])C(C([H])([H])[H])(C([H])([H])[H])C([H])([H])[H])C([H])([H])c2c([H])c(OC([H])([H])C([H])([H])C([H])([H])c3c([H])c([H])c(C([H])([H])[H])c(N([H])C(=O)N4C([H])([H])C([H])([H])C([H])([H])C([H])(n5nc(-c6c([H])c([H])c(Oc7c([H])c([H])c(F)c([H])c7F)c([H])c6[H])c(C(=O)N([H])[H])c5N([H])[H])C4([H])[H])c3[H])c([H])c([H])c2C1([H])[H]

$$$$
22:0:0
     RDKit          3D

 92100  0  0  1  0  0  0  0  0999 V2000
  -29.4110  -22.4740   21.6240 C   0  0  0  0  0  0  0  0  0  0  0  0
  -28.4610  -22.7970   22.3450 O   0  0  0  0  0  0  0  0  0  0  0  0
  -31.3710  -19.2070   21.3790 C   0  0  0  0  0  3  0  0  0  0  0  0
  -31.0000  -20.5310   21.6660 C   0  0  0  0  0  3  0  0  0  0  0  0
  -29.1980  -18.8080   20.3850 C   0  0  0  0  0  3  0  0  0  0  0  0
  -30.4810  -18.3330   20.7270 C   0  0  0  0  0  0  0  0  0  0  0  0
  -29.7260  -21.0330   21.3100 C   0  0  0  0  0  0  0  0  0  0  0  0
  -28.8120  -20.1430   20.6650 C   0  0  0  0  0  0  0  0  0  0  0  0
  -27.4190  -20.5740   20.2310 C   0  0  0  0  0  1  0  0  0  0  0  0
  -30.9730  -16.9820   20.4040 C   0  0  0  0  0  3  0  0  0  0  0  0
  -30.2800  -15.8240   20.3050 C   0  0  0  0  0  3  0  0  0  0  0  0
  -30.9940  -14.6200   19.8720 C   0  0  0  0  0  0  0  0  0  0  0  0
  -30.6830  -12.3370   19.0120 C   0  0  0  0  0  2  0  0  0  0  0  0
  -29.7120  -12.3900   17.8140 C   0  0  0  0  0  2  0  0  0  0  0  0
  -28.2510  -12.2790   18.2950 C   0  0  0  0  0  2  0  0  0  0  0  0
  -27.9300  -13.2470   19.4660 C   0  0  0  0  0  3  0  0  0  0  0  0
  -29.0190  -13.1740   20.5590 C   0  0  0  0  0  2  0  0  0  0  0  0
  -30.3200  -13.4360   19.9230 N   0  0  0  0  0  0  0  0  0  0  0  0
  -32.1060  -14.6940   19.3410 O   0  0  0  0  0  0  0  0  0  0  0  0
  -25.5950  -13.9010   20.3290 C   0  0  0  0  0  0  0  0  0  0  0  0
  -24.5270  -13.1490   20.7380 C   0  0  0  0  0  0  0  0  0  0  0  0
  -24.9420  -11.7860   20.6380 C   0  0  0  0  0  0  0  0  0  0  0  0
  -26.5980  -12.9980   20.0120 N   0  0  0  0  0  0  0  0  0  0  0  0
  -26.2110  -11.7190   20.2520 N   0  0  0  0  0  0  0  0  0  0  0  0
  -24.1900  -10.5400   20.8340 C   0  0  0  0  0  0  0  0  0  0  0  0
  -24.5730   -9.5910   21.8060 C   0  0  0  0  0  3  0  0  0  0  0  0
  -23.8230   -8.4090   21.9860 C   0  0  0  0  0  3  0  0  0  0  0  0
  -22.6760   -8.1670   21.1930 C   0  0  0  0  0  0  0  0  0  0  0  0
  -22.3120   -9.1050   20.2100 C   0  0  0  0  0  3  0  0  0  0  0  0
  -23.0620  -10.2790   20.0290 C   0  0  0  0  0  3  0  0  0  0  0  0
  -21.9020   -7.0360   21.2810 O   0  0  0  0  0  0  0  0  0  0  0  0
  -21.6740   -6.4110   22.4810 C   0  0  0  0  0  0  0  0  0  0  0  0
  -21.0810   -7.0830   23.5720 C   0  0  0  0  0  3  0  0  0  0  0  0
  -20.8020   -6.3820   24.7630 C   0  0  0  0  0  3  0  0  0  0  0  0
  -21.1060   -5.0110   24.8620 C   0  0  0  0  0  0  0  0  0  0  0  0
  -21.6930   -4.3400   23.7740 C   0  0  0  0  0  3  0  0  0  0  0  0
  -21.9730   -5.0360   22.5870 C   0  0  0  0  0  0  0  0  0  0  0  0
  -22.5180   -4.3790   21.5350 F   0  0  0  0  0  0  0  0  0  0  0  0
  -20.8320   -4.3370   26.0030 F   0  0  0  0  0  0  0  0  0  0  0  0
  -23.1640  -13.6580   21.1070 C   0  0  0  0  0  0  0  0  0  0  0  0
  -22.4760  -12.9700   22.0130 N   0  0  0  0  0  0  0  0  0  0  0  0
  -22.7190  -14.7000   20.6280 O   0  0  0  0  0  0  0  0  0  0  0  0
  -22.8500  -12.1270   22.4220 H   0  0  0  0  0  0  0  0  0  0  0  0
  -21.5640  -13.2930   22.3020 H   0  0  0  0  0  0  0  0  0  0  0  0
  -25.7940  -15.2710   20.1860 N   0  0  0  0  0  0  0  0  0  0  0  0
  -25.0570  -15.9460   20.3600 H   0  0  0  0  0  0  0  0  0  0  0  0
  -26.6410  -15.6940   19.8270 H   0  0  0  0  0  0  0  0  0  0  0  0
  -30.3000  -23.5040   21.0350 C   0  0  0  0  0  3  0  0  0  0  0  0
  -30.3590  -24.7630   21.5120 C   0  0  0  0  0  3  0  0  0  0  0  0
  -31.2840  -25.8470   20.9780 C   0  0  0  0  0  2  0  0  0  0  0  0
  -30.5510  -27.1530   20.6330 C   0  0  0  0  0  2  0  0  0  0  0  0
  -29.6220  -26.9020   19.5860 O   0  0  0  0  0  0  0  0  0  0  0  0
  -24.9940  -31.1020   23.0580 C   0  0  0  0  0  0  0  0  0  0  0  0
  -28.3880  -27.5060   19.6580 C   0  0  0  0  0  0  0  0  0  0  0  0
  -24.0640  -29.7300   21.2160 C   0  0  0  0  0  3  0  0  0  0  0  0
  -25.7820  -28.5990   19.7070 C   0  0  0  0  0  0  0  0  0  0  0  0
  -26.5030  -30.4930   21.1750 C   0  0  0  0  0  2  0  0  0  0  0  0
  -26.8190  -29.2300   20.4050 C   0  0  0  0  0  0  0  0  0  0  0  0
  -28.1220  -28.6920   20.3840 C   0  0  0  0  0  3  0  0  0  0  0  0
  -27.3350  -26.8880   18.9530 C   0  0  0  0  0  3  0  0  0  0  0  0
  -26.0320  -27.4230   18.9790 C   0  0  0  0  0  3  0  0  0  0  0  0
  -24.4170  -29.2460   19.7840 C   0  0  0  0  0  2  0  0  0  0  0  0
  -25.2000  -30.4510   21.8780 N   0  0  0  0  0  0  0  0  0  0  0  0
  -23.8690  -31.1470   23.5740 O   0  0  0  0  0  0  0  0  0  0  0  0
  -23.5510  -28.5230   22.0310 C   0  0  0  0  0  0  0  0  0  0  0  0
  -22.2810  -28.1470   21.8040 N   0  0  0  0  0  0  0  0  0  0  0  0
  -24.2900  -27.9300   22.8210 O   0  0  0  0  0  0  0  0  0  0  0  0
  -21.7380  -28.6900   21.1470 H   0  0  0  0  0  0  0  0  0  0  0  0
  -19.1240  -26.4000   21.9790 C   0  0  0  0  0  0  0  0  0  0  0  0
  -21.5950  -27.0160   22.4260 C   0  0  0  0  0  3  0  0  0  0  0  0
  -21.9480  -25.6900   21.7130 C   0  0  0  0  0  2  0  0  0  0  0  0
  -20.9560  -25.3160   20.6080 C   0  0  0  0  0  2  0  0  0  0  0  0
  -19.5420  -25.1760   21.1820 C   0  0  0  0  0  2  0  0  0  0  0  0
  -20.0880  -27.2730   22.5490 C   0  0  0  0  0  0  0  0  0  0  0  0
  -19.6470  -28.4160   23.2510 C   0  0  0  0  0  3  0  0  0  0  0  0
  -18.2740  -28.6910   23.3880 C   0  0  0  0  0  3  0  0  0  0  0  0
  -17.3240  -27.8150   22.8350 C   0  0  0  0  0  3  0  0  0  0  0  0
  -17.7500  -26.6710   22.1360 C   0  0  0  0  0  3  0  0  0  0  0  0
  -26.1530  -31.8390   23.8000 C   0  0  0  0  0  3  0  0  0  0  0  0
  -25.6640  -33.1760   24.1630 N   0  0  0  0  0  0  0  0  0  0  0  0
  -25.9220  -34.2930   23.4690 C   0  0  0  0  0  0  0  0  0  0  0  0
  -26.6670  -34.3140   22.4850 O   0  0  0  0  0  0  0  0  0  0  0  0
  -25.0020  -33.2260   24.9230 H   0  0  0  0  0  0  0  0  0  0  0  0
  -24.0170  -35.8840   23.0670 C   0  0  0  0  0  1  0  0  0  0  0  0
  -25.2470  -35.5930   23.9420 C   0  0  0  0  0  3  0  0  0  0  0  0
  -27.2030  -36.6890   24.9450 C   0  0  0  0  0  1  0  0  0  0  0  0
  -26.1530  -36.7630   23.9330 N   0  0  0  0  0  0  0  0  0  0  0  0
  -25.6310  -37.6230   24.0790 H   0  0  0  0  0  0  0  0  0  0  0  0
  -26.6660  -31.0660   25.0760 C   0  0  1  0  0  0  0  0  0  0  0  0
  -25.5380  -30.6520   26.0480 C   0  0  0  0  0  1  0  0  0  0  0  0
  -27.4300  -29.7850   24.6650 C   0  0  0  0  0  1  0  0  0  0  0  0
  -27.6700  -31.9480   25.8560 C   0  0  0  0  0  1  0  0  0  0  0  0
  1  2  2  0
  3  4  1  0
  5  8  2  0
  5  6  1  0
  6  3  2  0
  7  1  1  0
  7  4  2  0
  8  7  1  0
  9  8  1  0
 10  6  1  0
 11 10  2  0
 12 18  1  0
 12 11  1  0
 13 18  1  0
 14 15  1  0
 14 13  1  0
 16 15  1  0
 16 23  1  0
 16 17  1  0
 18 17  1  0
 19 12  2  0
 20 21  2  0
 21 40  1  0
 22 21  1  0
 22 25  1  0
 23 24  1  0
 23 20  1  0
 24 22  2  0
 25 26  1  0
 26 27  2  0
 28 31  1  0
 28 27  1  0
 29 28  2  0
 30 29  1  0
 30 25  2  0
 31 32  1  0
 32 37  2  0
 32 33  1  0
 33 34  2  0
 34 35  1  0
 35 39  1  0
 36 35  2  0
 37 36  1  0
 38 37  1  0
 40 41  1  0
 41 44  1  0
 41 43  1  0
 42 40  2  0
 45 20  1  0
 45 46  1  0
 47 45  1  0
 48 49  2  0
 48  1  1  0
 50 49  1  0
 51 50  1  0
 52 54  1  0
 52 51  1  0
 53 64  2  0
 54 59  1  0
 55 63  1  0
 55 65  1  0
 56 62  1  0
 56 58  1  0
 57 63  1  0
 58 57  1  0
 59 58  2  0
 60 61  1  0
 60 54  2  0
 61 56  2  0
 62 55  1  0
 63 53  1  0
 65 67  2  0
 66 65  1  0
 68 66  1  0
 69 78  2  0
 69 74  1  0
 70 66  1  0
 70 74  1  0
 71 70  1  0
 72 73  1  0
 72 71  1  0
 73 69  1  0
 74 75  2  0
 75 76  1  0
 77 76  2  0
 78 77  1  0
 79 53  1  0
 79 80  1  0
 79 89  1  0
 80 83  1  0
 81 85  1  0
 81 80  1  0
 82 81  2  0
 85 84  1  0
 87 85  1  0
 87 88  1  0
 87 86  1  0
 89 92  1  1
 89 90  1  0
 91 89  1  0
M  ISO  4  11 100  12 100  51 101  52 101
M  END
>  <TORSDO>  (23) 
F 21

>  <SCORE>  (23) 
-10.614

>  <name>  (23) 
22

>  <ligand_id>  (23) 
22

>  <original_smiles>  (23) 
[H]C(C(=O)N1C([H])([H])C([H])([H])C([H])([H])C([H])(n2nc(-c3c([H])c([H])c(Oc4c([H])c([H])c(F)c([H])c4F)c([H])c3[H])c(C(=O)N([H])[H])c2N([H])[H])C1([H])[H])=C([H])c1c([H])c([H])c(C(=O)C([H])=C([H])C([H])([H])C([H])([H])Oc2c([H])c([H])c3c(c2[H])C([H])([H])N(C(=O)C([H])(N([H])C(=O)C([H])(N([H])C([H])([H])[H])C([H])([H])[H])C(C([H])([H])[H])(C([H])([H])[H])C([H])([H])[H])C([H])(C(=O)N([H])C2([H])c4c([H])c([H])c([H])c([H])c4C([H])([H])C([H])([H])C2([H])[H])C3([H])[H])c(C([H])([H])[H])c1[H]

>  <smiles>  (23) 
[H]C(C(=O)N1C([H])([H])C([H])([H])C([H])([H])C([H])(n2nc(-c3c([H])c([H])c(Oc4c([H])c([H])c(F)c([H])c4F)c([H])c3[H])c(C(=O)N([H])[H])c2N([H])[H])C1([H])[H])=C([H])c1c([H])c([H])c(C(=O)C([H])=C([H])C([H])([H])C([H])([H])Oc2c([H])c([H])c3c(c2[H])C([H])([H])N(C(=O)C([H])(N([H])C(=O)C([H])(N([H])C([H])([H])[H])C([H])([H])[H])C(C([H])([H])[H])(C([H])([H])[H])C([H])([H])[H])C([H])(C(=O)N([H])C2([H])c4c([H])c([H])c([H])c([H])c4C([H])([H])C([H])([H])C2([H])[H])C3([H])[H])c(C([H])([H])[H])c1[H]

$$$$
23:0:0
     RDKit          3D

 91 99  0  0  1  0  0  0  0  0999 V2000
  -28.4870  -20.1100   20.1920 C   0  0  0  0  0  3  0  0  0  0  0  0
  -31.2020  -19.5850   19.9430 C   0  0  0  0  0  3  0  0  0  0  0  0
  -28.9700  -18.7790   20.3710 C   0  0  0  0  0  0  0  0  0  0  0  0
  -30.7190  -20.9130   19.7600 C   0  0  0  0  0  0  0  0  0  0  0  0
  -29.3370  -21.2090   19.8900 C   0  0  0  0  0  0  0  0  0  0  0  0
  -30.3540  -18.4860   20.2450 C   0  0  0  0  0  0  0  0  0  0  0  0
  -27.9780  -17.6820   20.7150 C   0  0  0  0  0  1  0  0  0  0  0  0
  -31.7130  -22.0060   19.4110 C   0  0  0  0  0  1  0  0  0  0  0  0
  -28.7150  -22.6050   19.5460 C   0  0  0  0  0  2  0  0  0  0  0  0
  -29.0160  -23.9270   20.3690 C   0  0  0  0  0  2  0  0  0  0  0  0
  -28.1620  -25.1480   19.8400 C   0  0  0  0  0  2  0  0  0  0  0  0
  -28.2960  -26.5210   20.3620 O   0  0  0  0  0  0  0  0  0  0  0  0
  -24.4700  -31.9170   23.2260 C   0  0  0  0  0  0  0  0  0  0  0  0
  -27.1710  -27.3570   20.2610 C   0  0  0  0  0  0  0  0  0  0  0  0
  -23.3000  -30.4720   21.6030 C   0  0  0  0  0  3  0  0  0  0  0  0
  -24.7840  -28.9300   20.2110 C   0  0  0  0  0  0  0  0  0  0  0  0
  -25.8380  -30.8220   21.4420 C   0  0  0  0  0  2  0  0  0  0  0  0
  -25.9380  -29.4370   20.8190 C   0  0  0  0  0  0  0  0  0  0  0  0
  -27.1310  -28.6580   20.8470 C   0  0  0  0  0  3  0  0  0  0  0  0
  -25.9970  -26.9190   19.5970 C   0  0  0  0  0  3  0  0  0  0  0  0
  -24.8140  -27.6750   19.5900 C   0  0  0  0  0  3  0  0  0  0  0  0
  -23.5330  -29.7820   20.2350 C   0  0  0  0  0  2  0  0  0  0  0  0
  -24.5530  -31.0880   22.1460 N   0  0  0  0  0  0  0  0  0  0  0  0
  -23.3790  -32.1920   23.7440 O   0  0  0  0  0  0  0  0  0  0  0  0
  -22.6470  -29.4590   22.5730 C   0  0  0  0  0  0  0  0  0  0  0  0
  -21.3370  -29.2150   22.4010 N   0  0  0  0  0  0  0  0  0  0  0  0
  -23.3180  -28.8960   23.4410 O   0  0  0  0  0  0  0  0  0  0  0  0
  -20.8550  -29.7250   21.6750 H   0  0  0  0  0  0  0  0  0  0  0  0
  -17.9970  -27.8840   22.8060 C   0  0  0  0  0  0  0  0  0  0  0  0
  -20.5270  -28.2740   23.1780 C   0  0  0  0  0  3  0  0  0  0  0  0
  -20.7180  -26.8250   22.6740 C   0  0  0  0  0  2  0  0  0  0  0  0
  -19.6800  -26.4090   21.6270 C   0  0  0  0  0  2  0  0  0  0  0  0
  -18.2640  -26.5160   22.2010 C   0  0  0  0  0  2  0  0  0  0  0  0
  -19.0600  -28.7150   23.2500 C   0  0  0  0  0  0  0  0  0  0  0  0
  -18.7580  -29.9920   23.7720 C   0  0  0  0  0  3  0  0  0  0  0  0
  -17.4250  -30.4390   23.8580 C   0  0  0  0  0  3  0  0  0  0  0  0
  -16.3770  -29.6060   23.4320 C   0  0  0  0  0  3  0  0  0  0  0  0
  -16.6630  -28.3310   22.9120 C   0  0  0  0  0  3  0  0  0  0  0  0
  -25.7400  -32.5780   23.8450 C   0  0  0  0  0  3  0  0  0  0  0  0
  -26.2360  -31.8600   25.1610 C   0  0  1  0  0  0  0  0  0  0  0  0
  -25.1160  -31.6290   26.2010 C   0  0  0  0  0  1  0  0  0  0  0  0
  -26.8640  -30.4850   24.8320 C   0  0  0  0  0  1  0  0  0  0  0  0
  -27.3460  -32.7040   25.8290 C   0  0  0  0  0  1  0  0  0  0  0  0
  -25.4220  -33.9870   24.1120 N   0  0  0  0  0  0  0  0  0  0  0  0
  -25.7290  -35.0050   23.2970 C   0  0  0  0  0  0  0  0  0  0  0  0
  -26.3800  -34.8590   22.2590 O   0  0  0  0  0  0  0  0  0  0  0  0
  -24.8430  -34.1750   24.9170 H   0  0  0  0  0  0  0  0  0  0  0  0
  -23.9620  -36.7500   22.8990 C   0  0  0  0  0  1  0  0  0  0  0  0
  -25.2320  -36.4080   23.6950 C   0  0  0  0  0  3  0  0  0  0  0  0
  -27.3660  -37.3770   24.4240 C   0  0  0  0  0  1  0  0  0  0  0  0
  -26.2430  -37.4680   23.4950 N   0  0  0  0  0  0  0  0  0  0  0  0
  -25.8250  -38.3900   23.5920 H   0  0  0  0  0  0  0  0  0  0  0  0
  -31.0070  -17.1010   20.5800 C   0  0  0  0  0  2  0  0  0  0  0  0
  -30.9540  -14.6550   19.9060 C   0  0  0  0  0  0  0  0  0  0  0  0
  -30.5540  -12.4250   18.9020 C   0  0  0  0  0  2  0  0  0  0  0  0
  -29.5700  -12.5600   17.7210 C   0  0  0  0  0  2  0  0  0  0  0  0
  -28.1150  -12.4670   18.2180 C   0  0  0  0  0  2  0  0  0  0  0  0
  -27.8380  -13.3740   19.4480 C   0  0  0  0  0  3  0  0  0  0  0  0
  -28.9420  -13.2370   20.5200 C   0  0  0  0  0  2  0  0  0  0  0  0
  -30.2330  -13.4930   19.8670 N   0  0  0  0  0  0  0  0  0  0  0  0
  -32.1000  -14.7090   19.4570 O   0  0  0  0  0  0  0  0  0  0  0  0
  -30.3270  -15.7920   20.3230 N   0  0  0  0  0  0  0  0  0  0  0  0
  -29.3680  -15.7020   20.6170 H   0  0  0  0  0  0  0  0  0  0  0  0
  -25.5220  -14.0600   20.3220 C   0  0  0  0  0  0  0  0  0  0  0  0
  -24.4400  -13.3260   20.7270 C   0  0  0  0  0  0  0  0  0  0  0  0
  -24.8290  -11.9570   20.6230 C   0  0  0  0  0  0  0  0  0  0  0  0
  -26.5070  -13.1390   20.0000 N   0  0  0  0  0  0  0  0  0  0  0  0
  -26.0980  -11.8670   20.2410 N   0  0  0  0  0  0  0  0  0  0  0  0
  -24.0500  -10.7260   20.8070 C   0  0  0  0  0  0  0  0  0  0  0  0
  -24.4220   -9.7520   21.7590 C   0  0  0  0  0  3  0  0  0  0  0  0
  -23.6440   -8.5860   21.9320 C   0  0  0  0  0  3  0  0  0  0  0  0
  -22.4800   -8.3880   21.1510 C   0  0  0  0  0  0  0  0  0  0  0  0
  -22.1270   -9.3500   20.1890 C   0  0  0  0  0  3  0  0  0  0  0  0
  -22.9050  -10.5070   20.0150 C   0  0  0  0  0  3  0  0  0  0  0  0
  -21.6780   -7.2750   21.2320 O   0  0  0  0  0  0  0  0  0  0  0  0
  -21.4910   -6.6060   22.4160 C   0  0  0  0  0  0  0  0  0  0  0  0
  -20.9210   -7.2340   23.5450 C   0  0  0  0  0  3  0  0  0  0  0  0
  -20.6840   -6.4910   24.7190 C   0  0  0  0  0  3  0  0  0  0  0  0
  -21.0070   -5.1220   24.7630 C   0  0  0  0  0  0  0  0  0  0  0  0
  -21.5690   -4.4940   23.6380 C   0  0  0  0  0  3  0  0  0  0  0  0
  -21.8070   -5.2340   22.4670 C   0  0  0  0  0  0  0  0  0  0  0  0
  -22.3300   -4.6190   21.3790 F   0  0  0  0  0  0  0  0  0  0  0  0
  -20.7710   -4.4060   25.8870 F   0  0  0  0  0  0  0  0  0  0  0  0
  -23.0870  -13.8640   21.0940 C   0  0  0  0  0  0  0  0  0  0  0  0
  -22.3740  -13.1780   21.9810 N   0  0  0  0  0  0  0  0  0  0  0  0
  -22.6720  -14.9230   20.6290 O   0  0  0  0  0  0  0  0  0  0  0  0
  -22.7240  -12.3190   22.3790 H   0  0  0  0  0  0  0  0  0  0  0  0
  -21.4680  -13.5180   22.2680 H   0  0  0  0  0  0  0  0  0  0  0  0
  -25.7420  -15.4250   20.1740 N   0  0  0  0  0  0  0  0  0  0  0  0
  -25.0030  -16.1030   20.3270 H   0  0  0  0  0  0  0  0  0  0  0  0
  -26.5610  -15.8230   19.7370 H   0  0  0  0  0  0  0  0  0  0  0  0
  1  3  1  0
  2  6  1  0
  3  7  1  0
  4  5  1  0
  4  2  2  0
  5  1  2  0
  6  3  2  0
  6 53  1  0
  8  4  1  0
  9  5  1  0
  9 10  1  0
 11 12  1  0
 11 10  1  0
 13 24  2  0
 14 12  1  0
 14 19  1  0
 15 23  1  0
 15 25  1  0
 16 22  1  0
 16 18  1  0
 17 23  1  0
 18 19  2  0
 18 17  1  0
 20 14  2  0
 21 20  1  0
 21 16  2  0
 22 15  1  0
 23 13  1  0
 25 27  2  0
 26 25  1  0
 28 26  1  0
 29 38  2  0
 29 34  1  0
 30 26  1  0
 30 34  1  0
 31 30  1  0
 32 33  1  0
 32 31  1  0
 33 29  1  0
 34 35  2  0
 35 36  1  0
 37 36  2  0
 38 37  1  0
 39 13  1  0
 39 44  1  0
 39 40  1  0
 40 43  1  1
 40 41  1  0
 42 40  1  0
 44 47  1  0
 45 49  1  0
 45 44  1  0
 46 45  2  0
 49 48  1  0
 51 52  1  0
 51 49  1  0
 51 50  1  0
 54 62  1  0
 55 60  1  0
 56 57  1  0
 56 55  1  0
 58 57  1  0
 58 67  1  0
 58 59  1  0
 60 54  1  0
 60 59  1  0
 61 54  2  0
 62 53  1  0
 62 63  1  0
 64 65  2  0
 65 84  1  0
 66 65  1  0
 66 69  1  0
 67 68  1  0
 67 64  1  0
 68 66  2  0
 69 70  1  0
 70 71  2  0
 72 75  1  0
 72 71  1  0
 73 72  2  0
 74 73  1  0
 74 69  2  0
 75 76  1  0
 76 81  2  0
 76 77  1  0
 77 78  2  0
 78 79  1  0
 79 83  1  0
 80 79  2  0
 81 80  1  0
 82 81  1  0
 84 85  1  0
 85 88  1  0
 85 87  1  0
 86 84  2  0
 89 64  1  0
 89 90  1  0
 91 89  1  0
M  ISO  4  11 101  12 101  54 100  62 100
M  END
>  <TORSDO>  (24) 
F 20

>  <SCORE>  (24) 
-13.084

>  <name>  (24) 
23

>  <ligand_id>  (24) 
23

>  <original_smiles>  (24) 
[H]c1c([H])c([H])c2c(c1[H])C([H])([H])C([H])([H])C([H])([H])C2([H])N([H])C(=O)C1([H])N(C(=O)C([H])(N([H])C(=O)C([H])(N([H])C([H])([H])[H])C([H])([H])[H])C(C([H])([H])[H])(C([H])([H])[H])C([H])([H])[H])C([H])([H])c2c([H])c(OC([H])([H])C([H])([H])C([H])([H])c3c([H])c(C([H])([H])[H])c(C([H])([H])N([H])C(=O)N4C([H])([H])C([H])([H])C([H])([H])C([H])(n5nc(-c6c([H])c([H])c(Oc7c([H])c([H])c(F)c([H])c7F)c([H])c6[H])c(C(=O)N([H])[H])c5N([H])[H])C4([H])[H])c([H])c3C([H])([H])[H])c([H])c([H])c2C1([H])[H]

>  <smiles>  (24) 
[H]c1c([H])c([H])c2c(c1[H])C([H])([H])C([H])([H])C([H])([H])C2([H])N([H])C(=O)C1([H])N(C(=O)C([H])(N([H])C(=O)C([H])(N([H])C([H])([H])[H])C([H])([H])[H])C(C([H])([H])[H])(C([H])([H])[H])C([H])([H])[H])C([H])([H])c2c([H])c(OC([H])([H])C([H])([H])C([H])([H])c3c([H])c(C([H])([H])[H])c(C([H])([H])N([H])C(=O)N4C([H])([H])C([H])([H])C([H])([H])C([H])(n5nc(-c6c([H])c([H])c(Oc7c([H])c([H])c(F)c([H])c7F)c([H])c6[H])c(C(=O)N([H])[H])c5N([H])[H])C4([H])[H])c([H])c3C([H])([H])[H])c([H])c([H])c2C1([H])[H]

$$$$
24:0:0
     RDKit          3D

 90 98  0  0  1  0  0  0  0  0999 V2000
  -30.3660  -19.2170   18.9350 C   0  0  0  0  0  3  0  0  0  0  0  0
  -30.6550  -17.8170   19.0260 C   0  0  0  0  0  3  0  0  0  0  0  0
  -28.7690  -19.0100   20.7170 C   0  0  0  0  0  3  0  0  0  0  0  0
  -29.3940  -19.8470   19.7620 C   0  0  0  0  0  0  0  0  0  0  0  0
  -29.0380  -17.6130   20.8060 C   0  0  0  0  0  0  0  0  0  0  0  0
  -29.9750  -16.9710   19.9450 C   0  0  0  0  0  0  0  0  0  0  0  0
  -28.2590  -16.7950   21.8250 C   0  0  0  0  0  1  0  0  0  0  0  0
  -30.7120  -14.5560   19.2650 C   0  0  0  0  0  0  0  0  0  0  0  0
  -30.2490  -12.4230   18.0690 C   0  0  0  0  0  2  0  0  0  0  0  0
  -29.1140  -12.6940   17.0540 C   0  0  0  0  0  2  0  0  0  0  0  0
  -27.7270  -12.5560   17.7170 C   0  0  0  0  0  2  0  0  0  0  0  0
  -27.6340  -13.3070   19.0700 C   0  0  0  0  0  3  0  0  0  0  0  0
  -28.8540  -12.9880   19.9630 C   0  0  0  0  0  2  0  0  0  0  0  0
  -30.0670  -13.3470   19.2070 N   0  0  0  0  0  0  0  0  0  0  0  0
  -31.7490  -14.7680   18.6280 O   0  0  0  0  0  0  0  0  0  0  0  0
  -30.0810  -15.5120   20.0110 N   0  0  0  0  0  0  0  0  0  0  0  0
  -29.3970  -15.0970   20.6240 H   0  0  0  0  0  0  0  0  0  0  0  0
  -25.4120  -13.9310   20.2040 C   0  0  0  0  0  0  0  0  0  0  0  0
  -24.3950  -13.1660   20.7080 C   0  0  0  0  0  0  0  0  0  0  0  0
  -24.7960  -11.8070   20.5310 C   0  0  0  0  0  0  0  0  0  0  0  0
  -26.3720  -13.0370   19.7550 N   0  0  0  0  0  0  0  0  0  0  0  0
  -26.0150  -11.7520   20.0060 N   0  0  0  0  0  0  0  0  0  0  0  0
  -24.0680  -10.5560   20.7760 C   0  0  0  0  0  0  0  0  0  0  0  0
  -24.5490   -9.5880   21.6850 C   0  0  0  0  0  3  0  0  0  0  0  0
  -23.8200   -8.4010   21.9190 C   0  0  0  0  0  3  0  0  0  0  0  0
  -22.5980   -8.1740   21.2440 C   0  0  0  0  0  0  0  0  0  0  0  0
  -22.1360   -9.1300   20.3220 C   0  0  0  0  0  3  0  0  0  0  0  0
  -22.8640  -10.3090   20.0870 C   0  0  0  0  0  3  0  0  0  0  0  0
  -21.8370   -7.0400   21.3870 O   0  0  0  0  0  0  0  0  0  0  0  0
  -21.7530   -6.3750   22.5840 C   0  0  0  0  0  0  0  0  0  0  0  0
  -21.2650   -7.0020   23.7510 C   0  0  0  0  0  3  0  0  0  0  0  0
  -21.1320   -6.2620   24.9440 C   0  0  0  0  0  3  0  0  0  0  0  0
  -21.4760   -4.8980   24.9700 C   0  0  0  0  0  0  0  0  0  0  0  0
  -21.9570   -4.2700   23.8070 C   0  0  0  0  0  3  0  0  0  0  0  0
  -22.0920   -5.0070   22.6160 C   0  0  0  0  0  0  0  0  0  0  0  0
  -22.5360   -4.3930   21.4930 F   0  0  0  0  0  0  0  0  0  0  0  0
  -21.3400   -4.1850   26.1120 F   0  0  0  0  0  0  0  0  0  0  0  0
  -23.0800  -13.6640   21.2370 C   0  0  0  0  0  0  0  0  0  0  0  0
  -22.4980  -12.9560   22.1980 N   0  0  0  0  0  0  0  0  0  0  0  0
  -22.5850  -14.7160   20.8340 O   0  0  0  0  0  0  0  0  0  0  0  0
  -22.9130  -12.1040   22.5440 H   0  0  0  0  0  0  0  0  0  0  0  0
  -21.6220  -13.2690   22.5930 H   0  0  0  0  0  0  0  0  0  0  0  0
  -25.5920  -15.3040   20.0710 N   0  0  0  0  0  0  0  0  0  0  0  0
  -24.8750  -15.9700   20.3390 H   0  0  0  0  0  0  0  0  0  0  0  0
  -26.3830  -15.7400   19.6140 H   0  0  0  0  0  0  0  0  0  0  0  0
  -28.8700  -21.3150   19.5320 C   0  0  0  0  0  2  0  0  0  0  0  0
  -29.6020  -22.5630   20.1700 C   0  0  0  0  0  2  0  0  0  0  0  0
  -28.7800  -23.9170   20.4280 C   0  0  0  0  0  2  0  0  0  0  0  0
  -28.9860  -25.1830   19.4970 C   0  0  0  0  0  2  0  0  0  0  0  0
  -28.7530  -26.5240   20.0670 O   0  0  0  0  0  0  0  0  0  0  0  0
  -24.6020  -31.5900   23.0080 C   0  0  0  0  0  0  0  0  0  0  0  0
  -27.5420  -27.2200   19.9900 C   0  0  0  0  0  0  0  0  0  0  0  0
  -23.5120  -30.1320   21.3360 C   0  0  0  0  0  3  0  0  0  0  0  0
  -25.0770  -28.6650   19.9410 C   0  0  0  0  0  0  0  0  0  0  0  0
  -26.0270  -30.6010   21.2040 C   0  0  0  0  0  2  0  0  0  0  0  0
  -26.1970  -29.2310   20.5580 C   0  0  0  0  0  0  0  0  0  0  0  0
  -27.4280  -28.5180   20.5750 C   0  0  0  0  0  3  0  0  0  0  0  0
  -26.3920  -26.6880   19.3670 C   0  0  0  0  0  3  0  0  0  0  0  0
  -25.1740  -27.3990   19.3390 C   0  0  0  0  0  3  0  0  0  0  0  0
  -23.7910  -29.4660   19.9610 C   0  0  0  0  0  2  0  0  0  0  0  0
  -24.7300  -30.7930   21.9080 N   0  0  0  0  0  0  0  0  0  0  0  0
  -23.4940  -31.8040   23.5210 O   0  0  0  0  0  0  0  0  0  0  0  0
  -22.8860  -29.0790   22.2810 C   0  0  0  0  0  0  0  0  0  0  0  0
  -21.5690  -28.8520   22.1450 N   0  0  0  0  0  0  0  0  0  0  0  0
  -23.5860  -28.4680   23.0940 O   0  0  0  0  0  0  0  0  0  0  0  0
  -21.0630  -29.3990   21.4620 H   0  0  0  0  0  0  0  0  0  0  0  0
  -18.2280  -27.5670   22.6510 C   0  0  0  0  0  0  0  0  0  0  0  0
  -20.7830  -27.8740   22.8980 C   0  0  0  0  0  3  0  0  0  0  0  0
  -20.9090  -26.4640   22.2770 C   0  0  0  0  0  2  0  0  0  0  0  0
  -19.8010  -26.1480   21.2680 C   0  0  0  0  0  2  0  0  0  0  0  0
  -18.4240  -26.2420   21.9340 C   0  0  0  0  0  2  0  0  0  0  0  0
  -19.3350  -28.3400   23.0900 C   0  0  0  0  0  0  0  0  0  0  0  0
  -19.0960  -29.5810   23.7220 C   0  0  0  0  0  3  0  0  0  0  0  0
  -17.7830  -30.0470   23.9200 C   0  0  0  0  0  3  0  0  0  0  0  0
  -16.6910  -29.2700   23.4970 C   0  0  0  0  0  3  0  0  0  0  0  0
  -16.9140  -28.0320   22.8690 C   0  0  0  0  0  3  0  0  0  0  0  0
  -25.8350  -32.2890   23.6610 C   0  0  0  0  0  3  0  0  0  0  0  0
  -26.3730  -31.5330   24.9380 C   0  0  1  0  0  0  0  0  0  0  0  0
  -25.2750  -31.2150   25.9800 C   0  0  0  0  0  1  0  0  0  0  0  0
  -27.0470  -30.2000   24.5420 C   0  0  0  0  0  1  0  0  0  0  0  0
  -27.4590  -32.3880   25.6340 C   0  0  0  0  0  1  0  0  0  0  0  0
  -25.4390  -33.6630   24.0000 N   0  0  0  0  0  0  0  0  0  0  0  0
  -25.7170  -34.7410   23.2560 C   0  0  0  0  0  0  0  0  0  0  0  0
  -26.4010  -34.6870   22.2310 O   0  0  0  0  0  0  0  0  0  0  0  0
  -24.8290  -33.7730   24.7970 H   0  0  0  0  0  0  0  0  0  0  0  0
  -23.8820  -36.4260   22.9090 C   0  0  0  0  0  1  0  0  0  0  0  0
  -25.1440  -36.0940   23.7210 C   0  0  0  0  0  3  0  0  0  0  0  0
  -27.2110  -37.1090   24.5720 C   0  0  0  0  0  1  0  0  0  0  0  0
  -26.1090  -37.2090   23.6180 N   0  0  0  0  0  0  0  0  0  0  0  0
  -25.6460  -38.1020   23.7630 H   0  0  0  0  0  0  0  0  0  0  0  0
  1  2  2  0
  1  4  1  0
  2  6  1  0
  3  5  1  0
  4  3  2  0
  5  7  1  0
  6 16  1  0
  6  5  2  0
  8 16  1  0
  9 14  1  0
 10 11  1  0
 10  9  1  0
 12 11  1  0
 12 21  1  0
 12 13  1  0
 14  8  1  0
 14 13  1  0
 15  8  2  0
 16 17  1  0
 18 19  2  0
 19 38  1  0
 20 19  1  0
 20 23  1  0
 21 22  1  0
 21 18  1  0
 22 20  2  0
 23 24  1  0
 24 25  2  0
 26 29  1  0
 26 25  1  0
 27 26  2  0
 28 27  1  0
 28 23  2  0
 29 30  1  0
 30 35  2  0
 30 31  1  0
 31 32  2  0
 32 33  1  0
 33 37  1  0
 34 33  2  0
 35 34  1  0
 36 35  1  0
 38 39  1  0
 39 41  1  0
 39 42  1  0
 40 38  2  0
 43 18  1  0
 43 44  1  0
 45 43  1  0
 46  4  1  0
 46 47  1  0
 47 48  1  0
 49 50  1  0
 49 48  1  0
 51 62  2  0
 52 50  1  0
 52 57  1  0
 53 61  1  0
 53 63  1  0
 54 60  1  0
 54 56  1  0
 55 61  1  0
 56 57  2  0
 56 55  1  0
 58 52  2  0
 59 58  1  0
 59 54  2  0
 60 53  1  0
 61 51  1  0
 63 65  2  0
 64 63  1  0
 66 64  1  0
 67 76  2  0
 67 72  1  0
 68 64  1  0
 68 72  1  0
 69 68  1  0
 70 71  1  0
 70 69  1  0
 71 67  1  0
 72 73  2  0
 73 74  1  0
 75 74  2  0
 76 75  1  0
 77 51  1  0
 77 82  1  0
 77 78  1  0
 78 81  1  1
 78 79  1  0
 80 78  1  0
 82 85  1  0
 83 87  1  0
 83 82  1  0
 84 83  2  0
 87 86  1  0
 89 87  1  0
 89 90  1  0
 89 88  1  0
M  ISO  4   8 100  16 100  49 101  50 101
M  END
>  <TORSDO>  (25) 
F 20

>  <SCORE>  (25) 
-9.313

>  <name>  (25) 
24

>  <ligand_id>  (25) 
24

>  <original_smiles>  (25) 
[H]c1c([H])c([H])c2c(c1[H])C([H])([H])C([H])([H])C([H])([H])C2([H])N([H])C(=O)C1([H])N(C(=O)C([H])(N([H])C(=O)C([H])(N([H])C([H])([H])[H])C([H])([H])[H])C(C([H])([H])[H])(C([H])([H])[H])C([H])([H])[H])C([H])([H])c2c([H])c(OC([H])([H])C([H])([H])C([H])([H])C([H])([H])c3c([H])c([H])c(N([H])C(=O)N4C([H])([H])C([H])([H])C([H])([H])C([H])(n5nc(-c6c([H])c([H])c(Oc7c([H])c([H])c(F)c([H])c7F)c([H])c6[H])c(C(=O)N([H])[H])c5N([H])[H])C4([H])[H])c(C([H])([H])[H])c3[H])c([H])c([H])c2C1([H])[H]

>  <smiles>  (25) 
[H]c1c([H])c([H])c2c(c1[H])C([H])([H])C([H])([H])C([H])([H])C2([H])N([H])C(=O)C1([H])N(C(=O)C([H])(N([H])C(=O)C([H])(N([H])C([H])([H])[H])C([H])([H])[H])C(C([H])([H])[H])(C([H])([H])[H])C([H])([H])[H])C([H])([H])c2c([H])c(OC([H])([H])C([H])([H])C([H])([H])C([H])([H])c3c([H])c([H])c(N([H])C(=O)N4C([H])([H])C([H])([H])C([H])([H])C([H])(n5nc(-c6c([H])c([H])c(Oc7c([H])c([H])c(F)c([H])c7F)c([H])c6[H])c(C(=O)N([H])[H])c5N([H])[H])C4([H])[H])c(C([H])([H])[H])c3[H])c([H])c([H])c2C1([H])[H]

$$$$
25:0:0
     RDKit          3D

 89 97  0  0  1  0  0  0  0  0999 V2000
  -30.5750  -18.9300   22.3080 C   0  0  0  0  0  3  0  0  0  0  0  0
  -30.0880  -19.9650   20.1670 C   0  0  0  0  0  3  0  0  0  0  0  0
  -30.0040  -21.3200   22.1830 C   0  0  0  0  0  3  0  0  0  0  0  0
  -30.4760  -18.7790   20.9050 C   0  0  0  0  0  0  0  0  0  0  0  0
  -30.3770  -20.1820   22.9360 C   0  0  0  0  0  0  0  0  0  0  0  0
  -29.8330  -21.2520   20.7850 C   0  0  0  0  0  0  0  0  0  0  0  0
  -30.5800  -20.3170   24.4370 C   0  0  0  0  0  1  0  0  0  0  0  0
  -30.8110  -17.4210   20.2710 C   0  0  0  0  0  3  0  0  0  0  0  0
  -30.7190  -16.1360   20.7760 C   0  0  0  0  0  3  0  0  0  0  0  0
  -31.2960  -14.9290   20.0880 C   0  0  0  0  0  0  0  0  0  0  0  0
  -30.9000  -12.7160   19.0020 C   0  0  0  0  0  2  0  0  0  0  0  0
  -29.9360  -12.9030   17.8090 C   0  0  0  0  0  2  0  0  0  0  0  0
  -28.4710  -12.8060   18.2720 C   0  0  0  0  0  2  0  0  0  0  0  0
  -28.1900  -13.6710   19.5310 C   0  0  0  0  0  3  0  0  0  0  0  0
  -29.2700  -13.4630   20.6160 C   0  0  0  0  0  2  0  0  0  0  0  0
  -30.5800  -13.7530   20.0150 N   0  0  0  0  0  0  0  0  0  0  0  0
  -32.4020  -14.9890   19.5390 O   0  0  0  0  0  0  0  0  0  0  0  0
  -25.8680  -14.3770   20.3660 C   0  0  0  0  0  0  0  0  0  0  0  0
  -24.7700  -13.6570   20.7520 C   0  0  0  0  0  0  0  0  0  0  0  0
  -25.1450  -12.2820   20.6550 C   0  0  0  0  0  0  0  0  0  0  0  0
  -26.8450  -13.4450   20.0570 N   0  0  0  0  0  0  0  0  0  0  0  0
  -26.4190  -12.1760   20.2910 N   0  0  0  0  0  0  0  0  0  0  0  0
  -24.3500  -11.0590   20.8300 C   0  0  0  0  0  0  0  0  0  0  0  0
  -24.7250  -10.0580   21.7520 C   0  0  0  0  0  3  0  0  0  0  0  0
  -23.9300   -8.9030   21.9150 C   0  0  0  0  0  3  0  0  0  0  0  0
  -22.7470   -8.7410   21.1560 C   0  0  0  0  0  0  0  0  0  0  0  0
  -22.3920   -9.7320   20.2240 C   0  0  0  0  0  3  0  0  0  0  0  0
  -23.1860  -10.8790   20.0580 C   0  0  0  0  0  3  0  0  0  0  0  0
  -21.9300   -7.6380   21.2280 O   0  0  0  0  0  0  0  0  0  0  0  0
  -21.8130   -6.9020   22.3800 C   0  0  0  0  0  0  0  0  0  0  0  0
  -21.3500   -7.4710   23.5860 C   0  0  0  0  0  3  0  0  0  0  0  0
  -21.1800   -6.6600   24.7270 C   0  0  0  0  0  3  0  0  0  0  0  0
  -21.4640   -5.2830   24.6630 C   0  0  0  0  0  0  0  0  0  0  0  0
  -21.9200   -4.7140   23.4610 C   0  0  0  0  0  3  0  0  0  0  0  0
  -22.0920   -5.5220   22.3230 C   0  0  0  0  0  0  0  0  0  0  0  0
  -22.5110   -4.9630   21.1620 F   0  0  0  0  0  0  0  0  0  0  0  0
  -21.2970   -4.5040   25.7570 F   0  0  0  0  0  0  0  0  0  0  0  0
  -23.4150  -14.2100   21.0930 C   0  0  0  0  0  0  0  0  0  0  0  0
  -22.6740  -13.5390   21.9660 N   0  0  0  0  0  0  0  0  0  0  0  0
  -23.0200  -15.2730   20.6160 O   0  0  0  0  0  0  0  0  0  0  0  0
  -23.0030  -12.6850   22.3900 H   0  0  0  0  0  0  0  0  0  0  0  0
  -21.7640  -13.8940   22.2210 H   0  0  0  0  0  0  0  0  0  0  0  0
  -26.1120  -15.7420   20.2370 N   0  0  0  0  0  0  0  0  0  0  0  0
  -25.4020  -16.4410   20.4280 H   0  0  0  0  0  0  0  0  0  0  0  0
  -26.9920  -16.1440   19.9350 H   0  0  0  0  0  0  0  0  0  0  0  0
  -29.2610  -22.5090   20.0070 C   0  0  0  0  0  2  0  0  0  0  0  0
  -29.5490  -24.0400   20.4350 C   0  0  0  0  0  3  0  0  0  0  0  0
  -28.5770  -25.1480   19.7950 C   0  0  0  0  0  3  0  0  0  0  0  0
  -28.7080  -26.6160   20.0460 O   0  0  0  0  0  0  0  0  0  0  0  0
  -24.7150  -31.7540   23.1650 C   0  0  0  0  0  0  0  0  0  0  0  0
  -27.5580  -27.4310   19.9710 C   0  0  0  0  0  0  0  0  0  0  0  0
  -23.5780  -30.3400   21.4900 C   0  0  0  0  0  3  0  0  0  0  0  0
  -25.1070  -28.9230   20.0060 C   0  0  0  0  0  0  0  0  0  0  0  0
  -26.0950  -30.8050   21.3040 C   0  0  0  0  0  2  0  0  0  0  0  0
  -26.2500  -29.4530   20.6180 C   0  0  0  0  0  0  0  0  0  0  0  0
  -27.4750  -28.7180   20.5980 C   0  0  0  0  0  3  0  0  0  0  0  0
  -26.3940  -26.9770   19.3040 C   0  0  0  0  0  3  0  0  0  0  0  0
  -25.1840  -27.6920   19.3390 C   0  0  0  0  0  3  0  0  0  0  0  0
  -23.8230  -29.7210   20.0890 C   0  0  0  0  0  2  0  0  0  0  0  0
  -24.8150  -30.9840   22.0440 N   0  0  0  0  0  0  0  0  0  0  0  0
  -23.6220  -31.9520   23.7160 O   0  0  0  0  0  0  0  0  0  0  0  0
  -22.9820  -29.2590   22.4210 C   0  0  0  0  0  0  0  0  0  0  0  0
  -21.6740  -28.9900   22.2750 N   0  0  0  0  0  0  0  0  0  0  0  0
  -23.6960  -28.6680   23.2340 O   0  0  0  0  0  0  0  0  0  0  0  0
  -21.1530  -29.5170   21.5890 H   0  0  0  0  0  0  0  0  0  0  0  0
  -18.3930  -27.5270   22.7030 C   0  0  0  0  0  0  0  0  0  0  0  0
  -20.9190  -27.9820   23.0200 C   0  0  0  0  0  3  0  0  0  0  0  0
  -21.1440  -26.5710   22.4280 C   0  0  0  0  0  2  0  0  0  0  0  0
  -20.0850  -26.1780   21.3910 C   0  0  0  0  0  2  0  0  0  0  0  0
  -18.6860  -26.2060   22.0120 C   0  0  0  0  0  2  0  0  0  0  0  0
  -19.4420  -28.3680   23.1620 C   0  0  0  0  0  0  0  0  0  0  0  0
  -19.1130  -29.6020   23.7660 C   0  0  0  0  0  3  0  0  0  0  0  0
  -17.7700  -29.9950   23.9180 C   0  0  0  0  0  3  0  0  0  0  0  0
  -16.7360  -29.1520   23.4740 C   0  0  0  0  0  3  0  0  0  0  0  0
  -17.0500  -27.9200   22.8720 C   0  0  0  0  0  3  0  0  0  0  0  0
  -25.9660  -32.4380   23.8000 C   0  0  0  0  0  3  0  0  0  0  0  0
  -26.5080  -31.6850   25.0760 C   0  0  1  0  0  0  0  0  0  0  0  0
  -25.4140  -31.3860   26.1280 C   0  0  0  0  0  1  0  0  0  0  0  0
  -27.1630  -30.3410   24.6830 C   0  0  0  0  0  1  0  0  0  0  0  0
  -27.6150  -32.5260   25.7540 C   0  0  0  0  0  1  0  0  0  0  0  0
  -25.5920  -33.8200   24.1330 N   0  0  0  0  0  0  0  0  0  0  0  0
  -25.8690  -34.8890   23.3750 C   0  0  0  0  0  0  0  0  0  0  0  0
  -26.5350  -34.8180   22.3390 O   0  0  0  0  0  0  0  0  0  0  0  0
  -24.9940  -33.9440   24.9380 H   0  0  0  0  0  0  0  0  0  0  0  0
  -24.0460  -36.5940   23.0490 C   0  0  0  0  0  1  0  0  0  0  0  0
  -25.3200  -36.2520   23.8390 C   0  0  0  0  0  3  0  0  0  0  0  0
  -27.4150  -37.2520   24.6370 C   0  0  0  0  0  1  0  0  0  0  0  0
  -26.2940  -37.3560   23.7070 N   0  0  0  0  0  0  0  0  0  0  0  0
  -25.8430  -38.2540   23.8540 H   0  0  0  0  0  0  0  0  0  0  0  0
  1  5  1  0
  2  6  2  0
  2  4  1  0
  3  5  2  0
  4  1  2  0
  5  7  1  0
  6  3  1  0
  8  9  2  0
  8  4  1  0
 10  9  1  0
 11 16  1  0
 12 13  1  0
 12 11  1  0
 14 13  1  0
 14 21  1  0
 14 15  1  0
 16 10  1  0
 16 15  1  0
 17 10  2  0
 18 19  2  0
 19 38  1  0
 20 19  1  0
 20 23  1  0
 21 22  1  0
 21 18  1  0
 22 20  2  0
 23 24  1  0
 24 25  2  0
 26 29  1  0
 26 25  1  0
 27 26  2  0
 28 27  1  0
 28 23  2  0
 29 30  1  0
 30 31  1  0
 31 32  2  0
 33 32  1  0
 33 37  1  0
 34 33  2  0
 35 30  2  0
 35 34  1  0
 36 35  1  0
 38 39  1  0
 39 42  1  0
 39 41  1  0
 40 38  2  0
 43 18  1  0
 43 44  1  0
 45 43  1  0
 46 47  1  0
 46  6  1  0
 48 49  1  0
 48 47  2  0
 50 61  2  0
 51 49  1  0
 51 56  1  0
 52 60  1  0
 52 62  1  0
 53 59  1  0
 53 55  1  0
 54 60  1  0
 55 54  1  0
 56 55  2  0
 57 58  1  0
 57 51  2  0
 58 53  2  0
 59 52  1  0
 60 50  1  0
 62 64  2  0
 63 62  1  0
 65 63  1  0
 66 75  2  0
 66 71  1  0
 67 63  1  0
 67 71  1  0
 68 67  1  0
 69 70  1  0
 69 68  1  0
 70 66  1  0
 71 72  2  0
 72 73  1  0
 74 73  2  0
 75 74  1  0
 76 50  1  0
 76 81  1  0
 76 77  1  0
 77 80  1  1
 77 78  1  0
 79 77  1  0
 81 84  1  0
 82 86  1  0
 82 81  1  0
 83 82  2  0
 86 85  1  0
 88 86  1  0
 88 89  1  0
 88 87  1  0
M  ISO  4   9 100  10 100  48 101  49 101
M  END
>  <TORSDO>  (26) 
F 20

>  <SCORE>  (26) 
-12.068

>  <name>  (26) 
25

>  <ligand_id>  (26) 
25

>  <original_smiles>  (26) 
[H]C(C(=O)N1C([H])([H])C([H])([H])C([H])([H])C([H])(n2nc(-c3c([H])c([H])c(Oc4c([H])c([H])c(F)c([H])c4F)c([H])c3[H])c(C(=O)N([H])[H])c2N([H])[H])C1([H])[H])=C([H])c1c([H])c(C([H])([H])[H])c([H])c(C([H])([H])C([H])([H])C([H])([H])Oc2c([H])c([H])c3c(c2[H])C([H])([H])N(C(=O)C([H])(N([H])C(=O)C([H])(N([H])C([H])([H])[H])C([H])([H])[H])C(C([H])([H])[H])(C([H])([H])[H])C([H])([H])[H])C([H])(C(=O)N([H])C2([H])c4c([H])c([H])c([H])c([H])c4C([H])([H])C([H])([H])C2([H])[H])C3([H])[H])c1[H]

>  <smiles>  (26) 
[H]C(C(=O)N1C([H])([H])C([H])([H])C([H])([H])C([H])(n2nc(-c3c([H])c([H])c(Oc4c([H])c([H])c(F)c([H])c4F)c([H])c3[H])c(C(=O)N([H])[H])c2N([H])[H])C1([H])[H])=C([H])c1c([H])c(C([H])([H])[H])c([H])c(C([H])([H])C([H])([H])C([H])([H])Oc2c([H])c([H])c3c(c2[H])C([H])([H])N(C(=O)C([H])(N([H])C(=O)C([H])(N([H])C([H])([H])[H])C([H])([H])[H])C(C([H])([H])[H])(C([H])([H])[H])C([H])([H])[H])C([H])(C(=O)N([H])C2([H])c4c([H])c([H])c([H])c([H])c4C([H])([H])C([H])([H])C2([H])[H])C3([H])[H])c1[H]

$$$$
26:0:0
     RDKit          3D

 90 98  0  0  1  0  0  0  0  0999 V2000
  -31.0070  -19.2080   19.3440 C   0  0  0  0  0  3  0  0  0  0  0  0
  -31.0250  -17.7900   19.4850 C   0  0  0  0  0  3  0  0  0  0  0  0
  -28.8290  -19.3070   20.3390 C   0  0  0  0  0  3  0  0  0  0  0  0
  -29.9150  -20.0140   19.7640 C   0  0  0  0  0  0  0  0  0  0  0  0
  -28.8370  -17.8850   20.4940 C   0  0  0  0  0  0  0  0  0  0  0  0
  -29.9380  -17.0840   20.0640 C   0  0  0  0  0  0  0  0  0  0  0  0
  -27.6250  -17.2350   21.1390 C   0  0  0  0  0  1  0  0  0  0  0  0
  -30.5780  -14.6020   19.6170 C   0  0  0  0  0  0  0  0  0  0  0  0
  -30.2130  -12.4140   18.4960 C   0  0  0  0  0  2  0  0  0  0  0  0
  -29.1370  -12.6080   17.4040 C   0  0  0  0  0  2  0  0  0  0  0  0
  -27.7200  -12.4510   17.9920 C   0  0  0  0  0  2  0  0  0  0  0  0
  -27.5210  -13.2620   19.3000 C   0  0  0  0  0  3  0  0  0  0  0  0
  -28.6970  -13.0400   20.2780 C   0  0  0  0  0  2  0  0  0  0  0  0
  -29.9400  -13.3890   19.5710 N   0  0  0  0  0  0  0  0  0  0  0  0
  -31.6740  -14.7700   19.0720 O   0  0  0  0  0  0  0  0  0  0  0  0
  -29.8660  -15.6260   20.1820 N   0  0  0  0  0  0  0  0  0  0  0  0
  -29.0570  -15.2960   20.6840 H   0  0  0  0  0  0  0  0  0  0  0  0
  -25.2340  -13.8580   20.3110 C   0  0  0  0  0  0  0  0  0  0  0  0
  -24.2050  -13.0830   20.7700 C   0  0  0  0  0  0  0  0  0  0  0  0
  -24.6350  -11.7280   20.6250 C   0  0  0  0  0  0  0  0  0  0  0  0
  -26.2300  -12.9770   19.9210 N   0  0  0  0  0  0  0  0  0  0  0  0
  -25.8810  -11.6880   20.1680 N   0  0  0  0  0  0  0  0  0  0  0  0
  -23.9130  -10.4690   20.8420 C   0  0  0  0  0  0  0  0  0  0  0  0
  -24.3810   -9.4960   21.7540 C   0  0  0  0  0  3  0  0  0  0  0  0
  -23.6580   -8.3010   21.9570 C   0  0  0  0  0  3  0  0  0  0  0  0
  -22.4540   -8.0690   21.2500 C   0  0  0  0  0  0  0  0  0  0  0  0
  -22.0060   -9.0300   20.3270 C   0  0  0  0  0  3  0  0  0  0  0  0
  -22.7280  -10.2170   20.1220 C   0  0  0  0  0  3  0  0  0  0  0  0
  -21.7010   -6.9260   21.3660 O   0  0  0  0  0  0  0  0  0  0  0  0
  -21.6150   -6.2370   22.5490 C   0  0  0  0  0  0  0  0  0  0  0  0
  -21.1270   -6.8380   23.7290 C   0  0  0  0  0  3  0  0  0  0  0  0
  -20.9910   -6.0730   24.9050 C   0  0  0  0  0  3  0  0  0  0  0  0
  -21.3330   -4.7080   24.9010 C   0  0  0  0  0  0  0  0  0  0  0  0
  -21.8140   -4.1060   23.7250 C   0  0  0  0  0  3  0  0  0  0  0  0
  -21.9520   -4.8680   22.5510 C   0  0  0  0  0  0  0  0  0  0  0  0
  -22.3960   -4.2770   21.4160 F   0  0  0  0  0  0  0  0  0  0  0  0
  -21.1950   -3.9710   26.0280 F   0  0  0  0  0  0  0  0  0  0  0  0
  -22.8560  -13.5650   21.2240 C   0  0  0  0  0  0  0  0  0  0  0  0
  -22.2270  -12.8460   22.1460 N   0  0  0  0  0  0  0  0  0  0  0  0
  -22.3750  -14.6140   20.7950 O   0  0  0  0  0  0  0  0  0  0  0  0
  -22.6310  -11.9970   22.5130 H   0  0  0  0  0  0  0  0  0  0  0  0
  -21.3260  -13.1490   22.4900 H   0  0  0  0  0  0  0  0  0  0  0  0
  -25.3980  -15.2330   20.1700 N   0  0  0  0  0  0  0  0  0  0  0  0
  -24.6500  -15.8850   20.3780 H   0  0  0  0  0  0  0  0  0  0  0  0
  -26.1890  -15.6710   19.7160 H   0  0  0  0  0  0  0  0  0  0  0  0
  -29.9810  -21.5270   19.6090 C   0  0  0  0  0  3  0  0  0  0  0  0
  -29.1050  -22.5220   19.9550 C   0  0  0  0  0  3  0  0  0  0  0  0
  -29.3610  -24.0660   19.8370 C   0  0  0  0  0  3  0  0  0  0  0  0
  -28.1540  -25.0170   19.4590 C   0  0  0  0  0  3  0  0  0  0  0  0
  -28.3340  -26.4720   19.6510 O   0  0  0  0  0  0  0  0  0  0  0  0
  -24.5180  -31.5820   23.0090 C   0  0  0  0  0  0  0  0  0  0  0  0
  -27.1890  -27.2820   19.6620 C   0  0  0  0  0  0  0  0  0  0  0  0
  -23.3270  -30.2700   21.2910 C   0  0  0  0  0  3  0  0  0  0  0  0
  -24.7910  -28.8380   19.7660 C   0  0  0  0  0  0  0  0  0  0  0  0
  -25.8570  -30.6470   21.1120 C   0  0  0  0  0  2  0  0  0  0  0  0
  -25.9550  -29.3140   20.3820 C   0  0  0  0  0  0  0  0  0  0  0  0
  -27.1570  -28.5500   20.3180 C   0  0  0  0  0  3  0  0  0  0  0  0
  -25.9950  -26.8540   19.0320 C   0  0  0  0  0  3  0  0  0  0  0  0
  -24.8130  -27.6140   19.0830 C   0  0  0  0  0  3  0  0  0  0  0  0
  -23.5400  -29.6830   19.8720 C   0  0  0  0  0  2  0  0  0  0  0  0
  -24.5860  -30.8460   21.8620 N   0  0  0  0  0  0  0  0  0  0  0  0
  -23.4350  -31.8050   23.5670 O   0  0  0  0  0  0  0  0  0  0  0  0
  -22.6860  -29.1840   22.1890 C   0  0  0  0  0  0  0  0  0  0  0  0
  -21.3580  -29.0160   22.0790 N   0  0  0  0  0  0  0  0  0  0  0  0
  -23.3830  -28.4990   22.9420 O   0  0  0  0  0  0  0  0  0  0  0  0
  -20.8560  -29.6200   21.4440 H   0  0  0  0  0  0  0  0  0  0  0  0
  -17.9820  -27.8400   22.6280 C   0  0  0  0  0  0  0  0  0  0  0  0
  -20.5550  -28.0260   22.7980 C   0  0  0  0  0  3  0  0  0  0  0  0
  -20.5990  -26.6530   22.0890 C   0  0  0  0  0  2  0  0  0  0  0  0
  -19.4440  -26.4470   21.1040 C   0  0  0  0  0  2  0  0  0  0  0  0
  -18.0960  -26.5560   21.8230 C   0  0  0  0  0  2  0  0  0  0  0  0
  -19.1350  -28.5380   23.0720 C   0  0  0  0  0  0  0  0  0  0  0  0
  -18.9730  -29.7440   23.7880 C   0  0  0  0  0  3  0  0  0  0  0  0
  -17.6890  -30.2510   24.0620 C   0  0  0  0  0  3  0  0  0  0  0  0
  -16.5500  -29.5490   23.6310 C   0  0  0  0  0  3  0  0  0  0  0  0
  -16.6960  -28.3450   22.9200 C   0  0  0  0  0  3  0  0  0  0  0  0
  -25.7960  -32.1920   23.6630 C   0  0  0  0  0  3  0  0  0  0  0  0
  -26.3160  -31.3640   24.9020 C   0  0  1  0  0  0  0  0  0  0  0  0
  -25.2220  -31.0680   25.9550 C   0  0  0  0  0  1  0  0  0  0  0  0
  -26.9100  -30.0120   24.4460 C   0  0  0  0  0  1  0  0  0  0  0  0
  -27.4610  -32.1340   25.6030 C   0  0  0  0  0  1  0  0  0  0  0  0
  -25.4750  -33.5710   24.0590 N   0  0  0  0  0  0  0  0  0  0  0  0
  -25.7800  -34.6590   23.3410 C   0  0  0  0  0  0  0  0  0  0  0  0
  -26.4310  -34.6100   22.2950 O   0  0  0  0  0  0  0  0  0  0  0  0
  -24.8950  -33.6810   24.8780 H   0  0  0  0  0  0  0  0  0  0  0  0
  -24.0140  -36.4350   23.1100 C   0  0  0  0  0  1  0  0  0  0  0  0
  -25.2850  -36.0210   23.8670 C   0  0  0  0  0  3  0  0  0  0  0  0
  -27.4250  -36.9150   24.6770 C   0  0  0  0  0  1  0  0  0  0  0  0
  -26.2970  -37.0950   23.7640 N   0  0  0  0  0  0  0  0  0  0  0  0
  -25.8800  -38.0030   23.9530 H   0  0  0  0  0  0  0  0  0  0  0  0
  1  2  2  0
  1  4  1  0
  2  6  1  0
  3  5  1  0
  4  3  2  0
  5  7  1  0
  6 16  1  0
  6  5  2  0
  8 16  1  0
  9 14  1  0
 10 11  1  0
 10  9  1  0
 12 11  1  0
 12 21  1  0
 12 13  1  0
 14  8  1  0
 14 13  1  0
 15  8  2  0
 16 17  1  0
 18 19  2  0
 19 38  1  0
 20 19  1  0
 20 23  1  0
 21 22  1  0
 21 18  1  0
 22 20  2  0
 23 24  1  0
 24 25  2  0
 26 29  1  0
 26 25  1  0
 27 26  2  0
 28 27  1  0
 28 23  2  0
 29 30  1  0
 30 35  2  0
 30 31  1  0
 31 32  2  0
 33 32  1  0
 33 37  1  0
 34 33  2  0
 35 34  1  0
 36 35  1  0
 38 39  1  0
 39 42  1  0
 39 41  1  0
 40 38  2  0
 43 18  1  0
 43 44  1  0
 45 43  1  0
 46  4  1  0
 46 47  2  0
 48 47  1  0
 49 50  1  0
 49 48  2  0
 50 52  1  0
 51 62  2  0
 52 57  1  0
 53 61  1  0
 53 63  1  0
 54 60  1  0
 54 56  1  0
 55 61  1  0
 56 55  1  0
 57 56  2  0
 58 59  1  0
 58 52  2  0
 59 54  2  0
 60 53  1  0
 61 51  1  0
 63 65  2  0
 64 63  1  0
 66 64  1  0
 67 76  2  0
 67 72  1  0
 68 64  1  0
 68 72  1  0
 69 68  1  0
 70 71  1  0
 70 69  1  0
 71 67  1  0
 72 73  2  0
 73 74  1  0
 75 74  2  0
 76 75  1  0
 77 51  1  0
 77 82  1  0
 77 78  1  0
 78 81  1  1
 78 79  1  0
 80 78  1  0
 82 85  1  0
 83 87  1  0
 83 82  1  0
 84 83  2  0
 87 86  1  0
 89 87  1  0
 89 90  1  0
 89 88  1  0
M  ISO  4   8 100  16 100  49 101  50 101
M  END
>  <TORSDO>  (27) 
F 19

>  <SCORE>  (27) 
-11.944

>  <name>  (27) 
26

>  <ligand_id>  (27) 
26

>  <original_smiles>  (27) 
[H]C(=C([H])C([H])([H])C([H])([H])Oc1c([H])c([H])c2c(c1[H])C([H])([H])N(C(=O)C([H])(N([H])C(=O)C([H])(N([H])C([H])([H])[H])C([H])([H])[H])C(C([H])([H])[H])(C([H])([H])[H])C([H])([H])[H])C([H])(C(=O)N([H])C1([H])c3c([H])c([H])c([H])c([H])c3C([H])([H])C([H])([H])C1([H])[H])C2([H])[H])c1c([H])c([H])c(N([H])C(=O)N2C([H])([H])C([H])([H])C([H])([H])C([H])(n3nc(-c4c([H])c([H])c(Oc5c([H])c([H])c(F)c([H])c5F)c([H])c4[H])c(C(=O)N([H])[H])c3N([H])[H])C2([H])[H])c(C([H])([H])[H])c1[H]

>  <smiles>  (27) 
[H]C(=C([H])C([H])([H])C([H])([H])Oc1c([H])c([H])c2c(c1[H])C([H])([H])N(C(=O)C([H])(N([H])C(=O)C([H])(N([H])C([H])([H])[H])C([H])([H])[H])C(C([H])([H])[H])(C([H])([H])[H])C([H])([H])[H])C([H])(C(=O)N([H])C1([H])c3c([H])c([H])c([H])c([H])c3C([H])([H])C([H])([H])C1([H])[H])C2([H])[H])c1c([H])c([H])c(N([H])C(=O)N2C([H])([H])C([H])([H])C([H])([H])C([H])(n3nc(-c4c([H])c([H])c(Oc5c([H])c([H])c(F)c([H])c5F)c([H])c4[H])c(C(=O)N([H])[H])c3N([H])[H])C2([H])[H])c(C([H])([H])[H])c1[H]

$$$$
27:0:0
     RDKit          3D

 94102  0  0  1  0  0  0  0  0999 V2000
  -32.6380  -19.9340   20.4030 C   0  0  0  0  0  3  0  0  0  0  0  0
  -33.4630  -17.6890   20.7980 C   0  0  0  0  0  3  0  0  0  0  0  0
  -31.2990  -19.4930   20.5120 C   0  0  0  0  0  0  0  0  0  0  0  0
  -33.7160  -19.0430   20.5370 C   0  0  0  0  0  0  0  0  0  0  0  0
  -32.1440  -17.2040   20.9230 C   0  0  0  0  0  0  0  0  0  0  0  0
  -31.0450  -18.1020   20.7510 C   0  0  0  0  0  0  0  0  0  0  0  0
  -35.1420  -19.5440   20.4170 C   0  0  0  0  0  1  0  0  0  0  0  0
  -30.2080  -20.4860   20.3140 C   0  0  0  0  0  3  0  0  0  0  0  0
  -30.3130  -21.6900   19.7090 C   0  0  0  0  0  3  0  0  0  0  0  0
  -29.1450  -22.6300   19.4510 C   0  0  0  0  0  2  0  0  0  0  0  0
  -29.3390  -24.0960   19.9000 C   0  0  0  0  0  2  0  0  0  0  0  0
  -28.1450  -24.9450   19.4130 C   0  0  0  0  0  2  0  0  0  0  0  0
  -28.2850  -26.3680   19.5600 O   0  0  0  0  0  0  0  0  0  0  0  0
  -24.5260  -31.4650   22.8250 C   0  0  0  0  0  0  0  0  0  0  0  0
  -27.1070  -27.1020   19.5690 C   0  0  0  0  0  0  0  0  0  0  0  0
  -23.2820  -30.0840   21.1980 C   0  0  0  0  0  3  0  0  0  0  0  0
  -24.6980  -28.6000   19.6900 C   0  0  0  0  0  0  0  0  0  0  0  0
  -25.7990  -30.4680   20.9280 C   0  0  0  0  0  2  0  0  0  0  0  0
  -25.8730  -29.1140   20.2520 C   0  0  0  0  0  0  0  0  0  0  0  0
  -27.0780  -28.3730   20.1920 C   0  0  0  0  0  3  0  0  0  0  0  0
  -25.9080  -26.6180   18.9860 C   0  0  0  0  0  3  0  0  0  0  0  0
  -24.7120  -27.3510   19.0520 C   0  0  0  0  0  3  0  0  0  0  0  0
  -23.4500  -29.4450   19.7950 C   0  0  0  0  0  2  0  0  0  0  0  0
  -24.5550  -30.6870   21.7070 N   0  0  0  0  0  0  0  0  0  0  0  0
  -23.4600  -31.7160   23.4030 O   0  0  0  0  0  0  0  0  0  0  0  0
  -22.6730  -29.0310   22.1540 C   0  0  0  0  0  0  0  0  0  0  0  0
  -21.3470  -28.8340   22.0580 N   0  0  0  0  0  0  0  0  0  0  0  0
  -23.3880  -28.3980   22.9350 O   0  0  0  0  0  0  0  0  0  0  0  0
  -20.8310  -29.3950   21.3940 H   0  0  0  0  0  0  0  0  0  0  0  0
  -18.0040  -27.5860   22.6270 C   0  0  0  0  0  0  0  0  0  0  0  0
  -20.5660  -27.8720   22.8330 C   0  0  0  0  0  3  0  0  0  0  0  0
  -20.6700  -26.4540   22.2290 C   0  0  0  0  0  2  0  0  0  0  0  0
  -19.5450  -26.1320   21.2410 C   0  0  0  0  0  2  0  0  0  0  0  0
  -18.1780  -26.2500   21.9240 C   0  0  0  0  0  2  0  0  0  0  0  0
  -19.1250  -28.3540   23.0410 C   0  0  0  0  0  0  0  0  0  0  0  0
  -18.9080  -29.6030   23.6610 C   0  0  0  0  0  3  0  0  0  0  0  0
  -17.6040  -30.0880   23.8700 C   0  0  0  0  0  3  0  0  0  0  0  0
  -16.4970  -29.3150   23.4750 C   0  0  0  0  0  3  0  0  0  0  0  0
  -16.6980  -28.0650   22.8600 C   0  0  0  0  0  3  0  0  0  0  0  0
  -25.8250  -32.0960   23.4150 C   0  0  0  0  0  3  0  0  0  0  0  0
  -25.4740  -33.4190   23.9450 N   0  0  0  0  0  0  0  0  0  0  0  0
  -25.7520  -34.5800   23.3370 C   0  0  0  0  0  0  0  0  0  0  0  0
  -26.4040  -34.6510   22.2920 O   0  0  0  0  0  0  0  0  0  0  0  0
  -24.8960  -33.4360   24.7720 H   0  0  0  0  0  0  0  0  0  0  0  0
  -23.9580  -36.3400   23.2530 C   0  0  0  0  0  1  0  0  0  0  0  0
  -25.2210  -35.8680   23.9940 C   0  0  0  0  0  3  0  0  0  0  0  0
  -27.3210  -36.7040   24.9500 C   0  0  0  0  0  1  0  0  0  0  0  0
  -26.2140  -36.9620   24.0320 N   0  0  0  0  0  0  0  0  0  0  0  0
  -25.7760  -37.8390   24.3020 H   0  0  0  0  0  0  0  0  0  0  0  0
  -26.5000  -31.2070   24.5320 C   0  0  1  0  0  0  0  0  0  0  0  0
  -25.5180  -30.7530   25.6360 C   0  0  0  0  0  1  0  0  0  0  0  0
  -27.1330  -29.9390   23.9130 C   0  0  0  0  0  1  0  0  0  0  0  0
  -27.6510  -31.9960   25.2040 C   0  0  0  0  0  1  0  0  0  0  0  0
  -29.1460  -17.1890   22.2260 C   0  0  0  0  0  1  0  0  0  0  0  0
  -29.6050  -17.5770   20.8150 C   0  0  0  0  0  2  0  0  0  0  0  0
  -32.0050  -15.7330   21.3420 C   0  0  0  0  0  2  0  0  0  0  0  0
  -31.1530  -14.2400   19.5270 C   0  0  0  0  0  0  0  0  0  0  0  0
  -30.4180  -12.2870   18.2040 C   0  0  0  0  0  2  0  0  0  0  0  0
  -29.3240  -12.6470   17.1830 C   0  0  0  0  0  2  0  0  0  0  0  0
  -27.9320  -12.5590   17.8350 C   0  0  0  0  0  2  0  0  0  0  0  0
  -27.8560  -13.3340   19.1760 C   0  0  0  0  0  3  0  0  0  0  0  0
  -29.0420  -12.9650   20.0930 C   0  0  0  0  0  2  0  0  0  0  0  0
  -30.2970  -13.1960   19.3520 N   0  0  0  0  0  0  0  0  0  0  0  0
  -32.0730  -14.4990   18.7460 O   0  0  0  0  0  0  0  0  0  0  0  0
  -30.9990  -14.9080   20.6760 N   0  0  0  0  0  0  0  0  0  0  0  0
  -30.2100  -14.6280   21.2380 H   0  0  0  0  0  0  0  0  0  0  0  0
  -25.6500  -14.0520   20.2950 C   0  0  0  0  0  0  0  0  0  0  0  0
  -24.5910  -13.3290   20.7730 C   0  0  0  0  0  0  0  0  0  0  0  0
  -24.9270  -11.9550   20.5750 C   0  0  0  0  0  0  0  0  0  0  0  0
  -26.5720  -13.1200   19.8410 N   0  0  0  0  0  0  0  0  0  0  0  0
  -26.1470  -11.8500   20.0630 N   0  0  0  0  0  0  0  0  0  0  0  0
  -24.1360  -10.7370   20.7890 C   0  0  0  0  0  0  0  0  0  0  0  0
  -24.5420   -9.7440   21.7090 C   0  0  0  0  0  3  0  0  0  0  0  0
  -23.7550   -8.5900   21.9080 C   0  0  0  0  0  3  0  0  0  0  0  0
  -22.5490   -8.4200   21.1900 C   0  0  0  0  0  0  0  0  0  0  0  0
  -22.1620   -9.3990   20.2590 C   0  0  0  0  0  3  0  0  0  0  0  0
  -22.9480  -10.5460   20.0570 C   0  0  0  0  0  3  0  0  0  0  0  0
  -21.7350   -7.3190   21.3010 O   0  0  0  0  0  0  0  0  0  0  0  0
  -21.5880   -6.6480   22.4890 C   0  0  0  0  0  0  0  0  0  0  0  0
  -21.1020   -7.2870   23.6500 C   0  0  0  0  0  3  0  0  0  0  0  0
  -20.9020   -6.5440   24.8310 C   0  0  0  0  0  3  0  0  0  0  0  0
  -21.1770   -5.1640   24.8500 C   0  0  0  0  0  0  0  0  0  0  0  0
  -21.6560   -4.5250   23.6930 C   0  0  0  0  0  3  0  0  0  0  0  0
  -21.8580   -5.2650   22.5140 C   0  0  0  0  0  0  0  0  0  0  0  0
  -22.2990   -4.6410   21.3960 F   0  0  0  0  0  0  0  0  0  0  0  0
  -20.9770   -4.4470   25.9810 F   0  0  0  0  0  0  0  0  0  0  0  0
  -23.2950  -13.8800   21.2980 C   0  0  0  0  0  0  0  0  0  0  0  0
  -22.6980  -13.2140   22.2800 N   0  0  0  0  0  0  0  0  0  0  0  0
  -22.8300  -14.9360   20.8690 O   0  0  0  0  0  0  0  0  0  0  0  0
  -23.0890  -12.3600   22.6460 H   0  0  0  0  0  0  0  0  0  0  0  0
  -21.8370  -13.5680   22.6730 H   0  0  0  0  0  0  0  0  0  0  0  0
  -25.9000  -15.4170   20.1920 N   0  0  0  0  0  0  0  0  0  0  0  0
  -25.2210  -16.1140   20.4760 H   0  0  0  0  0  0  0  0  0  0  0  0
  -26.7300  -15.8190   19.7740 H   0  0  0  0  0  0  0  0  0  0  0  0
  1  3  2  0
  1  4  1  0
  2  5  1  0
  3  6  1  0
  4  2  2  0
  5 56  1  0
  6 55  1  0
  6  5  2  0
  7  4  1  0
  8  3  1  0
  9  8  2  0
 10  9  1  0
 10 11  1  0
 12 13  1  0
 12 11  1  0
 13 15  1  0
 14 25  2  0
 15 20  1  0
 16 24  1  0
 16 26  1  0
 17 23  1  0
 17 19  1  0
 18 24  1  0
 19 18  1  0
 20 19  2  0
 21 22  1  0
 21 15  2  0
 22 17  2  0
 23 16  1  0
 24 14  1  0
 26 28  2  0
 27 26  1  0
 29 27  1  0
 30 39  2  0
 30 35  1  0
 31 27  1  0
 31 35  1  0
 32 31  1  0
 33 34  1  0
 33 32  1  0
 34 30  1  0
 35 36  2  0
 36 37  1  0
 38 37  2  0
 39 38  1  0
 40 14  1  0
 40 41  1  0
 40 50  1  0
 41 44  1  0
 42 41  1  0
 42 46  1  0
 43 42  2  0
 46 45  1  0
 46 48  1  0
 48 49  1  0
 48 47  1  0
 50 53  1  1
 50 51  1  0
 52 50  1  0
 55 54  1  0
 57 65  1  0
 58 63  1  0
 59 60  1  0
 59 58  1  0
 61 60  1  0
 61 70  1  0
 61 62  1  0
 63 57  1  0
 63 62  1  0
 64 57  2  0
 65 66  1  0
 65 56  1  0
 67 68  2  0
 68 87  1  0
 69 68  1  0
 69 72  1  0
 70 71  1  0
 70 67  1  0
 71 69  2  0
 72 73  1  0
 73 74  2  0
 75 78  1  0
 75 74  1  0
 76 75  2  0
 77 76  1  0
 77 72  2  0
 78 79  1  0
 79 84  2  0
 79 80  1  0
 80 81  2  0
 81 82  1  0
 82 86  1  0
 83 82  2  0
 84 83  1  0
 85 84  1  0
 87 88  1  0
 88 90  1  0
 88 91  1  0
 89 87  2  0
 92 67  1  0
 92 93  1  0
 94 92  1  0
M  ISO  4  12 101  13 101  57 100  65 100
M  END
>  <TORSDO>  (28) 
F 22

>  <SCORE>  (28) 
-8.403

>  <name>  (28) 
27

>  <ligand_id>  (28) 
27

>  <original_smiles>  (28) 
[H]C(=C([H])C([H])([H])C([H])([H])C([H])([H])Oc1c([H])c([H])c2c(c1[H])C([H])([H])N(C(=O)C([H])(N([H])C(=O)C([H])(N([H])C([H])([H])[H])C([H])([H])[H])C(C([H])([H])[H])(C([H])([H])[H])C([H])([H])[H])C([H])(C(=O)N([H])C1([H])c3c([H])c([H])c([H])c([H])c3C([H])([H])C([H])([H])C1([H])[H])C2([H])[H])c1c([H])c(C([H])([H])[H])c([H])c(C([H])([H])N([H])C(=O)N2C([H])([H])C([H])([H])C([H])([H])C([H])(n3nc(-c4c([H])c([H])c(Oc5c([H])c([H])c(F)c([H])c5F)c([H])c4[H])c(C(=O)N([H])[H])c3N([H])[H])C2([H])[H])c1C([H])([H])C([H])([H])[H]

>  <smiles>  (28) 
[H]C(=C([H])C([H])([H])C([H])([H])C([H])([H])Oc1c([H])c([H])c2c(c1[H])C([H])([H])N(C(=O)C([H])(N([H])C(=O)C([H])(N([H])C([H])([H])[H])C([H])([H])[H])C(C([H])([H])[H])(C([H])([H])[H])C([H])([H])[H])C([H])(C(=O)N([H])C1([H])c3c([H])c([H])c([H])c([H])c3C([H])([H])C([H])([H])C1([H])[H])C2([H])[H])c1c([H])c(C([H])([H])[H])c([H])c(C([H])([H])N([H])C(=O)N2C([H])([H])C([H])([H])C([H])([H])C([H])(n3nc(-c4c([H])c([H])c(Oc5c([H])c([H])c(F)c([H])c5F)c([H])c4[H])c(C(=O)N([H])[H])c3N([H])[H])C2([H])[H])c1C([H])([H])C([H])([H])[H]

$$$$
28:0:0
     RDKit          3D

 92101  0  0  1  0  0  0  0  0999 V2000
  -31.4370  -18.6460   20.2870 C   0  0  0  0  0  3  0  0  0  0  0  0
  -32.0150  -19.9160   20.0680 C   0  0  0  0  0  3  0  0  0  0  0  0
  -29.2860  -19.7590   20.4040 C   0  0  0  0  0  3  0  0  0  0  0  0
  -30.0530  -18.5300   20.4910 C   0  0  0  0  0  0  0  0  0  0  0  0
  -31.2540  -21.1140   20.0060 C   0  0  0  0  0  0  0  0  0  0  0  0
  -29.8380  -21.0760   20.1590 C   0  0  0  0  0  0  0  0  0  0  0  0
  -32.0270  -22.4030   19.7470 C   0  0  0  0  0  2  0  0  0  0  0  0
  -28.8910  -22.3520   19.9620 C   0  0  0  0  0  2  0  0  0  0  0  0
  -31.3610  -23.3410   18.7420 C   0  0  0  0  0  2  0  0  0  0  0  0
  -30.4460  -24.3960   19.3760 C   0  0  0  0  0  2  0  0  0  0  0  0
  -29.2940  -23.8950   20.2880 C   0  0  2  0  0  0  0  0  0  0  0  0
  -29.6950  -23.9690   21.7750 C   0  0  0  0  0  1  0  0  0  0  0  0
  -29.3790  -17.2070   20.8430 C   0  0  0  0  0  3  0  0  0  0  0  0
  -29.5190  -15.8230   20.8480 C   0  0  0  0  0  3  0  0  0  0  0  0
  -30.4910  -14.7590   20.3910 C   0  0  0  0  0  0  0  0  0  0  0  0
  -30.3920  -12.5200   19.2580 C   0  0  0  0  0  2  0  0  0  0  0  0
  -29.4180  -12.6400   18.0600 C   0  0  0  0  0  2  0  0  0  0  0  0
  -27.9460  -12.4500   18.4900 C   0  0  0  0  0  2  0  0  0  0  0  0
  -27.5950  -13.2630   19.7620 C   0  0  0  0  0  3  0  0  0  0  0  0
  -28.6670  -13.0250   20.8480 C   0  0  0  0  0  2  0  0  0  0  0  0
  -29.9560  -13.4850   20.2940 N   0  0  0  0  0  0  0  0  0  0  0  0
  -31.6470  -14.9650   20.0000 O   0  0  0  0  0  0  0  0  0  0  0  0
  -25.1990  -13.8680   20.4760 C   0  0  0  0  0  0  0  0  0  0  0  0
  -24.1330  -13.0970   20.8510 C   0  0  0  0  0  0  0  0  0  0  0  0
  -24.5970  -11.7460   20.8220 C   0  0  0  0  0  0  0  0  0  0  0  0
  -26.2450  -12.9860   20.2440 N   0  0  0  0  0  0  0  0  0  0  0  0
  -25.8860  -11.7060   20.5100 N   0  0  0  0  0  0  0  0  0  0  0  0
  -23.8750  -10.4830   21.0180 C   0  0  0  0  0  0  0  0  0  0  0  0
  -24.3160   -9.5190   21.9510 C   0  0  0  0  0  3  0  0  0  0  0  0
  -23.5950   -8.3190   22.1340 C   0  0  0  0  0  3  0  0  0  0  0  0
  -22.4190   -8.0770   21.3840 C   0  0  0  0  0  0  0  0  0  0  0  0
  -21.9980   -9.0300   20.4400 C   0  0  0  0  0  3  0  0  0  0  0  0
  -22.7190  -10.2210   20.2560 C   0  0  0  0  0  3  0  0  0  0  0  0
  -21.6700   -6.9290   21.4770 O   0  0  0  0  0  0  0  0  0  0  0  0
  -21.6260   -6.1890   22.6310 C   0  0  0  0  0  0  0  0  0  0  0  0
  -21.2000   -6.7440   23.8570 C   0  0  0  0  0  3  0  0  0  0  0  0
  -21.1040   -5.9300   25.0040 C   0  0  0  0  0  3  0  0  0  0  0  0
  -21.4250   -4.5620   24.9250 C   0  0  0  0  0  0  0  0  0  0  0  0
  -21.8440   -4.0060   23.7030 C   0  0  0  0  0  3  0  0  0  0  0  0
  -21.9420   -4.8180   22.5600 C   0  0  0  0  0  0  0  0  0  0  0  0
  -22.3260   -4.2720   21.3810 F   0  0  0  0  0  0  0  0  0  0  0  0
  -21.3250   -3.7780   26.0240 F   0  0  0  0  0  0  0  0  0  0  0  0
  -22.7350  -13.5730   21.1250 C   0  0  0  0  0  0  0  0  0  0  0  0
  -22.0090  -12.8780   21.9930 N   0  0  0  0  0  0  0  0  0  0  0  0
  -22.2930  -14.5960   20.6010 O   0  0  0  0  0  0  0  0  0  0  0  0
  -22.3800  -12.0510   22.4390 H   0  0  0  0  0  0  0  0  0  0  0  0
  -21.0710  -13.1770   22.2170 H   0  0  0  0  0  0  0  0  0  0  0  0
  -25.3620  -15.2390   20.2930 N   0  0  0  0  0  0  0  0  0  0  0  0
  -24.5940  -15.8930   20.4010 H   0  0  0  0  0  0  0  0  0  0  0  0
  -26.2080  -15.6740   19.9450 H   0  0  0  0  0  0  0  0  0  0  0  0
  -28.0980  -24.9640   20.0710 C   0  0  0  0  0  2  0  0  0  0  0  0
  -28.3150  -26.4360   20.2400 O   0  0  0  0  0  0  0  0  0  0  0  0
  -24.6220  -31.9060   23.2420 C   0  0  0  0  0  0  0  0  0  0  0  0
  -27.2010  -27.3030   20.1930 C   0  0  0  0  0  0  0  0  0  0  0  0
  -23.4070  -30.5110   21.6090 C   0  0  0  0  0  3  0  0  0  0  0  0
  -24.8440  -28.9460   20.1850 C   0  0  0  0  0  0  0  0  0  0  0  0
  -25.9510  -30.8090   21.4200 C   0  0  0  0  0  2  0  0  0  0  0  0
  -26.0200  -29.4260   20.7750 C   0  0  0  0  0  0  0  0  0  0  0  0
  -27.2010  -28.6170   20.7670 C   0  0  0  0  0  3  0  0  0  0  0  0
  -25.9960  -26.8850   19.5800 C   0  0  0  0  0  3  0  0  0  0  0  0
  -24.8350  -27.6810   19.5790 C   0  0  0  0  0  3  0  0  0  0  0  0
  -23.6140  -29.8300   20.2320 C   0  0  0  0  0  2  0  0  0  0  0  0
  -24.6790  -31.0940   22.1460 N   0  0  0  0  0  0  0  0  0  0  0  0
  -23.5410  -32.1920   23.7780 O   0  0  0  0  0  0  0  0  0  0  0  0
  -22.7380  -29.5020   22.5730 C   0  0  0  0  0  0  0  0  0  0  0  0
  -21.4090  -29.3340   22.4490 N   0  0  0  0  0  0  0  0  0  0  0  0
  -23.4120  -28.8740   23.3940 O   0  0  0  0  0  0  0  0  0  0  0  0
  -20.9230  -29.8920   21.7610 H   0  0  0  0  0  0  0  0  0  0  0  0
  -18.0250  -28.1650   22.9630 C   0  0  0  0  0  0  0  0  0  0  0  0
  -20.5870  -28.4050   23.2250 C   0  0  0  0  0  3  0  0  0  0  0  0
  -20.6750  -26.9710   22.6530 C   0  0  0  0  0  2  0  0  0  0  0  0
  -19.5680  -26.6550   21.6420 C   0  0  0  0  0  2  0  0  0  0  0  0
  -18.1890  -26.8120   22.2900 C   0  0  0  0  0  2  0  0  0  0  0  0
  -19.1500  -28.9190   23.3880 C   0  0  0  0  0  0  0  0  0  0  0  0
  -18.9430  -30.1840   23.9790 C   0  0  0  0  0  3  0  0  0  0  0  0
  -17.6430  -30.6960   24.1470 C   0  0  0  0  0  3  0  0  0  0  0  0
  -16.5310  -29.9390   23.7360 C   0  0  0  0  0  3  0  0  0  0  0  0
  -16.7230  -28.6750   23.1520 C   0  0  0  0  0  3  0  0  0  0  0  0
  -25.9080  -32.5330   23.8620 C   0  0  0  0  0  3  0  0  0  0  0  0
  -25.6040  -33.9300   24.2020 N   0  0  0  0  0  0  0  0  0  0  0  0
  -25.9220  -34.9860   23.4410 C   0  0  0  0  0  0  0  0  0  0  0  0
  -26.5720  -34.8880   22.3980 O   0  0  0  0  0  0  0  0  0  0  0  0
  -25.0250  -34.0810   25.0160 H   0  0  0  0  0  0  0  0  0  0  0  0
  -24.1800  -36.7730   23.1340 C   0  0  0  0  0  1  0  0  0  0  0  0
  -25.4420  -36.3720   23.9140 C   0  0  0  0  0  3  0  0  0  0  0  0
  -27.5950  -37.2600   24.6930 C   0  0  0  0  0  1  0  0  0  0  0  0
  -26.4700  -37.4280   23.7770 N   0  0  0  0  0  0  0  0  0  0  0  0
  -26.0650  -38.3470   23.9360 H   0  0  0  0  0  0  0  0  0  0  0  0
  -26.4290  -31.7530   25.1310 C   0  0  1  0  0  0  0  0  0  0  0  0
  -25.3410  -31.5130   26.2040 C   0  0  0  0  0  1  0  0  0  0  0  0
  -27.0050  -30.3760   24.7300 C   0  0  0  0  0  1  0  0  0  0  0  0
  -27.5850  -32.5410   25.7920 C   0  0  0  0  0  1  0  0  0  0  0  0
  1  4  1  0
  2  1  2  0
  3  4  2  0
  4 13  1  0
  5  2  1  0
  5  6  2  0
  6  3  1  0
  7  5  1  0
  8  6  1  0
  8 11  1  0
  9 10  1  0
  9  7  1  0
 10 11  1  0
 11 12  1  1
 13 14  2  0
 15 14  1  0
 16 21  1  0
 17 18  1  0
 17 16  1  0
 19 18  1  0
 19 26  1  0
 19 20  1  0
 21 15  1  0
 21 20  1  0
 22 15  2  0
 23 24  2  0
 24 43  1  0
 25 24  1  0
 25 28  1  0
 26 23  1  0
 26 27  1  0
 27 25  2  0
 28 29  1  0
 29 30  2  0
 31 34  1  0
 31 30  1  0
 32 31  2  0
 33 32  1  0
 33 28  2  0
 34 35  1  0
 35 36  1  0
 36 37  2  0
 38 37  1  0
 38 42  1  0
 39 38  2  0
 40 35  2  0
 40 39  1  0
 41 40  1  0
 43 44  1  0
 44 47  1  0
 44 46  1  0
 45 43  2  0
 48 49  1  0
 48 23  1  0
 50 48  1  0
 51 52  1  0
 51 11  1  0
 53 64  2  0
 54 52  1  0
 54 59  1  0
 55 63  1  0
 55 65  1  0
 56 62  1  0
 56 58  1  0
 57 63  1  0
 58 57  1  0
 59 58  2  0
 60 54  2  0
 61 60  1  0
 61 56  2  0
 62 55  1  0
 63 53  1  0
 65 67  2  0
 66 65  1  0
 68 66  1  0
 69 78  2  0
 69 74  1  0
 70 66  1  0
 70 74  1  0
 71 70  1  0
 72 73  1  0
 72 71  1  0
 73 69  1  0
 74 75  2  0
 75 76  1  0
 77 76  2  0
 78 77  1  0
 79 53  1  0
 79 80  1  0
 79 89  1  0
 80 83  1  0
 81 85  1  0
 81 80  1  0
 82 81  2  0
 85 84  1  0
 87 85  1  0
 87 88  1  0
 87 86  1  0
 89 92  1  1
 89 90  1  0
 91 89  1  0
M  ISO  4  14 100  15 100  51 101  52 101
M  END
>  <TORSDO>  (29) 
F 18

>  <SCORE>  (29) 
-14.930

>  <name>  (29) 
28

>  <ligand_id>  (29) 
28

>  <original_smiles>  (29) 
[H]C(C(=O)N1C([H])([H])C([H])([H])C([H])([H])C([H])(n2nc(-c3c([H])c([H])c(Oc4c([H])c([H])c(F)c([H])c4F)c([H])c3[H])c(C(=O)N([H])[H])c2N([H])[H])C1([H])[H])=C([H])c1c([H])c([H])c2c(c1[H])C([H])([H])C(C([H])([H])[H])(C([H])([H])Oc1c([H])c([H])c3c(c1[H])C([H])([H])N(C(=O)C([H])(N([H])C(=O)C([H])(N([H])C([H])([H])[H])C([H])([H])[H])C(C([H])([H])[H])(C([H])([H])[H])C([H])([H])[H])C([H])(C(=O)N([H])C1([H])c4c([H])c([H])c([H])c([H])c4C([H])([H])C([H])([H])C1([H])[H])C3([H])[H])C([H])([H])C([H])([H])C2([H])[H]

>  <smiles>  (29) 
[H]C(C(=O)N1C([H])([H])C([H])([H])C([H])([H])C([H])(n2nc(-c3c([H])c([H])c(Oc4c([H])c([H])c(F)c([H])c4F)c([H])c3[H])c(C(=O)N([H])[H])c2N([H])[H])C1([H])[H])=C([H])c1c([H])c([H])c2c(c1[H])C([H])([H])C(C([H])([H])[H])(C([H])([H])Oc1c([H])c([H])c3c(c1[H])C([H])([H])N(C(=O)C([H])(N([H])C(=O)C([H])(N([H])C([H])([H])[H])C([H])([H])[H])C(C([H])([H])[H])(C([H])([H])[H])C([H])([H])[H])C([H])(C(=O)N([H])C1([H])c4c([H])c([H])c([H])c([H])c4C([H])([H])C([H])([H])C1([H])[H])C3([H])[H])C([H])([H])C([H])([H])C2([H])[H]

$$$$
29:0:0
     RDKit          3D

 91 99  0  0  1  0  0  0  0  0999 V2000
  -30.4250  -22.5440   20.6490 C   0  0  0  0  0  3  0  0  0  0  0  0
  -29.3980  -23.2980   21.0670 C   0  0  0  0  0  3  0  0  0  0  0  0
  -29.5510  -20.2270   21.2380 C   0  0  0  0  0  3  0  0  0  0  0  0
  -29.6680  -18.8260   21.1050 C   0  0  0  0  0  3  0  0  0  0  0  0
  -31.4360  -20.5300   19.7360 C   0  0  0  0  0  3  0  0  0  0  0  0
  -30.4630  -21.0840   20.5800 C   0  0  0  0  0  0  0  0  0  0  0  0
  -30.6900  -18.2710   20.3020 C   0  0  0  0  0  0  0  0  0  0  0  0
  -31.5480  -19.1420   19.5750 C   0  0  0  0  0  0  0  0  0  0  0  0
  -32.6080  -18.6400   18.6010 C   0  0  0  0  0  1  0  0  0  0  0  0
  -30.9090  -16.8240   20.1800 C   0  0  0  0  0  3  0  0  0  0  0  0
  -30.1750  -15.7350   20.5250 C   0  0  0  0  0  3  0  0  0  0  0  0
  -30.7860  -14.4440   20.1940 C   0  0  0  0  0  0  0  0  0  0  0  0
  -30.3070  -12.3140   19.1070 C   0  0  0  0  0  2  0  0  0  0  0  0
  -29.3690  -12.5790   17.9150 C   0  0  0  0  0  2  0  0  0  0  0  0
  -27.9040  -12.4680   18.3730 C   0  0  0  0  0  2  0  0  0  0  0  0
  -27.6070  -13.2970   19.6530 C   0  0  0  0  0  3  0  0  0  0  0  0
  -28.6910  -13.1060   20.7370 C   0  0  0  0  0  2  0  0  0  0  0  0
  -30.0070  -13.3330   20.1270 N   0  0  0  0  0  0  0  0  0  0  0  0
  -31.9480  -14.4020   19.7880 O   0  0  0  0  0  0  0  0  0  0  0  0
  -25.2310  -13.8790   20.4410 C   0  0  0  0  0  0  0  0  0  0  0  0
  -24.1760  -13.0980   20.8310 C   0  0  0  0  0  0  0  0  0  0  0  0
  -24.6420  -11.7480   20.7750 C   0  0  0  0  0  0  0  0  0  0  0  0
  -26.2730  -13.0060   20.1720 N   0  0  0  0  0  0  0  0  0  0  0  0
  -25.9230  -11.7190   20.4330 N   0  0  0  0  0  0  0  0  0  0  0  0
  -23.9230  -10.4810   20.9700 C   0  0  0  0  0  0  0  0  0  0  0  0
  -24.3610   -9.5210   21.9090 C   0  0  0  0  0  3  0  0  0  0  0  0
  -23.6430   -8.3200   22.0930 C   0  0  0  0  0  3  0  0  0  0  0  0
  -22.4720   -8.0700   21.3380 C   0  0  0  0  0  0  0  0  0  0  0  0
  -22.0530   -9.0200   20.3890 C   0  0  0  0  0  3  0  0  0  0  0  0
  -22.7730  -10.2110   20.2040 C   0  0  0  0  0  3  0  0  0  0  0  0
  -21.7250   -6.9200   21.4300 O   0  0  0  0  0  0  0  0  0  0  0  0
  -21.6520   -6.2020   22.5970 C   0  0  0  0  0  0  0  0  0  0  0  0
  -21.1660   -6.7710   23.7940 C   0  0  0  0  0  3  0  0  0  0  0  0
  -21.0410   -5.9780   24.9510 C   0  0  0  0  0  3  0  0  0  0  0  0
  -21.3910   -4.6140   24.9130 C   0  0  0  0  0  0  0  0  0  0  0  0
  -21.8700   -4.0450   23.7200 C   0  0  0  0  0  3  0  0  0  0  0  0
  -21.9960   -4.8360   22.5650 C   0  0  0  0  0  0  0  0  0  0  0  0
  -22.4380   -4.2750   21.4130 F   0  0  0  0  0  0  0  0  0  0  0  0
  -21.2640   -3.8490   26.0220 F   0  0  0  0  0  0  0  0  0  0  0  0
  -22.7850  -13.5680   21.1410 C   0  0  0  0  0  0  0  0  0  0  0  0
  -22.0790  -12.8610   22.0190 N   0  0  0  0  0  0  0  0  0  0  0  0
  -22.3320  -14.5980   20.6440 O   0  0  0  0  0  0  0  0  0  0  0  0
  -22.4580  -12.0290   22.4440 H   0  0  0  0  0  0  0  0  0  0  0  0
  -21.1470  -13.1610   22.2670 H   0  0  0  0  0  0  0  0  0  0  0  0
  -25.3880  -15.2520   20.2750 N   0  0  0  0  0  0  0  0  0  0  0  0
  -24.6230  -15.9050   20.4100 H   0  0  0  0  0  0  0  0  0  0  0  0
  -26.2320  -15.6950   19.9350 H   0  0  0  0  0  0  0  0  0  0  0  0
  -29.5050  -24.7590   21.0330 C   0  0  0  0  0  0  0  0  0  0  0  0
  -30.5760  -25.3710   21.1220 O   0  0  0  0  0  0  0  0  0  0  0  0
  -28.1970  -25.5120   20.8520 C   0  0  0  0  0  2  0  0  0  0  0  0
  -28.4250  -26.7900   20.2650 O   0  0  0  0  0  0  0  0  0  0  0  0
  -24.5600  -31.9050   23.2410 C   0  0  0  0  0  0  0  0  0  0  0  0
  -27.2670  -27.5140   20.1990 C   0  0  0  0  0  0  0  0  0  0  0  0
  -23.3810  -30.4900   21.5890 C   0  0  0  0  0  3  0  0  0  0  0  0
  -24.8610  -28.9710   20.1780 C   0  0  0  0  0  0  0  0  0  0  0  0
  -25.9020  -30.8830   21.4130 C   0  0  0  0  0  2  0  0  0  0  0  0
  -26.0060  -29.5160   20.7730 C   0  0  0  0  0  0  0  0  0  0  0  0
  -27.2170  -28.7960   20.7790 C   0  0  0  0  0  3  0  0  0  0  0  0
  -26.1120  -26.9750   19.5920 C   0  0  0  0  0  3  0  0  0  0  0  0
  -24.9070  -27.6990   19.5840 C   0  0  0  0  0  3  0  0  0  0  0  0
  -23.6080  -29.8130   20.2120 C   0  0  0  0  0  2  0  0  0  0  0  0
  -24.6310  -31.1050   22.1400 N   0  0  0  0  0  0  0  0  0  0  0  0
  -23.4710  -32.1680   23.7700 O   0  0  0  0  0  0  0  0  0  0  0  0
  -22.7330  -29.4610   22.5440 C   0  0  0  0  0  0  0  0  0  0  0  0
  -21.4100  -29.2760   22.4130 N   0  0  0  0  0  0  0  0  0  0  0  0
  -23.4170  -28.8320   23.3570 O   0  0  0  0  0  0  0  0  0  0  0  0
  -20.9200  -29.8370   21.7290 H   0  0  0  0  0  0  0  0  0  0  0  0
  -18.0290  -28.1140   22.9230 C   0  0  0  0  0  0  0  0  0  0  0  0
  -20.5910  -28.3360   23.1770 C   0  0  0  0  0  3  0  0  0  0  0  0
  -20.6720  -26.9130   22.5780 C   0  0  0  0  0  2  0  0  0  0  0  0
  -19.5560  -26.6180   21.5700 C   0  0  0  0  0  2  0  0  0  0  0  0
  -18.1830  -26.7710   22.2290 C   0  0  0  0  0  2  0  0  0  0  0  0
  -19.1600  -28.8550   23.3540 C   0  0  0  0  0  0  0  0  0  0  0  0
  -18.9640  -30.1140   23.9630 C   0  0  0  0  0  3  0  0  0  0  0  0
  -17.6670  -30.6300   24.1470 C   0  0  0  0  0  3  0  0  0  0  0  0
  -16.5490  -29.8840   23.7330 C   0  0  0  0  0  3  0  0  0  0  0  0
  -16.7320  -28.6280   23.1270 C   0  0  0  0  0  3  0  0  0  0  0  0
  -25.8350  -32.5460   23.8720 C   0  0  0  0  0  3  0  0  0  0  0  0
  -26.3520  -31.7780   25.1480 C   0  0  1  0  0  0  0  0  0  0  0  0
  -25.2550  -31.5220   26.2070 C   0  0  0  0  0  1  0  0  0  0  0  0
  -26.9560  -30.4100   24.7530 C   0  0  0  0  0  1  0  0  0  0  0  0
  -27.4870  -32.5850   25.8220 C   0  0  0  0  0  1  0  0  0  0  0  0
  -25.5110  -33.9410   24.1970 N   0  0  0  0  0  0  0  0  0  0  0  0
  -25.8350  -34.9940   23.4360 C   0  0  0  0  0  0  0  0  0  0  0  0
  -26.5120  -34.8960   22.4070 O   0  0  0  0  0  0  0  0  0  0  0  0
  -24.9100  -34.0920   24.9940 H   0  0  0  0  0  0  0  0  0  0  0  0
  -24.0910  -36.7660   23.0630 C   0  0  0  0  0  1  0  0  0  0  0  0
  -25.3300  -36.3780   23.8850 C   0  0  0  0  0  3  0  0  0  0  0  0
  -27.4490  -37.2860   24.7310 C   0  0  0  0  0  1  0  0  0  0  0  0
  -26.3520  -37.4420   23.7790 N   0  0  0  0  0  0  0  0  0  0  0  0
  -25.9360  -38.3580   23.9220 H   0  0  0  0  0  0  0  0  0  0  0  0
  1  2  2  0
  4  3  1  0
  5  6  1  0
  6  1  1  0
  6  3  2  0
  7  4  2  0
  8  5  2  0
  8  7  1  0
  9  8  1  0
 10  7  1  0
 10 11  2  0
 12 11  1  0
 13 18  1  0
 14 15  1  0
 14 13  1  0
 16 15  1  0
 16 23  1  0
 16 17  1  0
 18 12  1  0
 18 17  1  0
 19 12  2  0
 20 21  2  0
 21 40  1  0
 22 21  1  0
 22 25  1  0
 23 24  1  0
 23 20  1  0
 24 22  2  0
 25 26  1  0
 26 27  2  0
 28 31  1  0
 28 27  1  0
 29 28  2  0
 30 29  1  0
 30 25  2  0
 31 32  1  0
 32 33  1  0
 33 34  2  0
 35 34  1  0
 35 39  1  0
 36 35  2  0
 37 32  2  0
 37 36  1  0
 38 37  1  0
 40 41  1  0
 41 44  1  0
 41 43  1  0
 42 40  2  0
 45 46  1  0
 45 20  1  0
 47 45  1  0
 48  2  1  0
 48 49  2  0
 50 48  1  0
 51 50  1  0
 52 63  2  0
 53 51  1  0
 53 58  1  0
 54 62  1  0
 54 64  1  0
 55 61  1  0
 55 57  1  0
 56 62  1  0
 57 58  2  0
 57 56  1  0
 59 53  2  0
 60 59  1  0
 60 55  2  0
 61 54  1  0
 62 52  1  0
 64 66  2  0
 65 64  1  0
 67 65  1  0
 68 77  2  0
 68 73  1  0
 69 65  1  0
 69 73  1  0
 70 69  1  0
 71 72  1  0
 71 70  1  0
 72 68  1  0
 73 74  2  0
 74 75  1  0
 76 75  2  0
 77 76  1  0
 78 52  1  0
 78 83  1  0
 78 79  1  0
 79 82  1  1
 79 80  1  0
 81 79  1  0
 83 86  1  0
 84 88  1  0
 84 83  1  0
 85 84  2  0
 88 87  1  0
 90 88  1  0
 90 91  1  0
 90 89  1  0
M  ISO  4  11 100  12 100  50 101  51 101
M  END
>  <TORSDO>  (30) 
F 20

>  <SCORE>  (30) 
-13.774

>  <name>  (30) 
29

>  <ligand_id>  (30) 
29

>  <original_smiles>  (30) 
[H]C(C(=O)C([H])([H])Oc1c([H])c([H])c2c(c1[H])C([H])([H])N(C(=O)C([H])(N([H])C(=O)C([H])(N([H])C([H])([H])[H])C([H])([H])[H])C(C([H])([H])[H])(C([H])([H])[H])C([H])([H])[H])C([H])(C(=O)N([H])C1([H])c3c([H])c([H])c([H])c([H])c3C([H])([H])C([H])([H])C1([H])[H])C2([H])[H])=C([H])c1c([H])c([H])c(C([H])=C([H])C(=O)N2C([H])([H])C([H])([H])C([H])([H])C([H])(n3nc(-c4c([H])c([H])c(Oc5c([H])c([H])c(F)c([H])c5F)c([H])c4[H])c(C(=O)N([H])[H])c3N([H])[H])C2([H])[H])c(C([H])([H])[H])c1[H]

>  <smiles>  (30) 
[H]C(C(=O)C([H])([H])Oc1c([H])c([H])c2c(c1[H])C([H])([H])N(C(=O)C([H])(N([H])C(=O)C([H])(N([H])C([H])([H])[H])C([H])([H])[H])C(C([H])([H])[H])(C([H])([H])[H])C([H])([H])[H])C([H])(C(=O)N([H])C1([H])c3c([H])c([H])c([H])c([H])c3C([H])([H])C([H])([H])C1([H])[H])C2([H])[H])=C([H])c1c([H])c([H])c(C([H])=C([H])C(=O)N2C([H])([H])C([H])([H])C([H])([H])C([H])(n3nc(-c4c([H])c([H])c(Oc5c([H])c([H])c(F)c([H])c5F)c([H])c4[H])c(C(=O)N([H])[H])c3N([H])[H])C2([H])[H])c(C([H])([H])[H])c1[H]

$$$$
30:0:0
     RDKit          3D

 92100  0  0  1  0  0  0  0  0999 V2000
  -28.0780  -17.8510   19.3160 C   0  0  0  0  0  3  0  0  0  0  0  0
  -27.1610  -18.7810   18.8150 C   0  0  0  0  0  3  0  0  0  0  0  0
  -29.4450  -19.6680   20.1450 C   0  0  0  0  0  3  0  0  0  0  0  0
  -29.2420  -18.2710   19.9820 C   0  0  0  0  0  0  0  0  0  0  0  0
  -27.3650  -20.1700   18.9500 C   0  0  0  0  0  0  0  0  0  0  0  0
  -28.5350  -20.6450   19.6360 C   0  0  0  0  0  0  0  0  0  0  0  0
  -30.1940  -17.2180   20.4320 C   0  0  0  0  0  3  0  0  0  0  0  0
  -29.8120  -15.9740   20.8260 C   0  0  0  0  0  3  0  0  0  0  0  0
  -30.7440  -14.8460   20.9720 C   0  0  0  0  0  0  0  0  0  0  0  0
  -30.6720  -12.5110   20.1970 C   0  0  0  0  0  2  0  0  0  0  0  0
  -29.8840  -12.5050   18.8670 C   0  0  0  0  0  2  0  0  0  0  0  0
  -28.3690  -12.3610   19.1210 C   0  0  0  0  0  2  0  0  0  0  0  0
  -27.8520  -13.3530   20.1950 C   0  0  0  0  0  3  0  0  0  0  0  0
  -28.7670  -13.3360   21.4440 C   0  0  0  0  0  2  0  0  0  0  0  0
  -30.1460  -13.6180   21.0130 N   0  0  0  0  0  0  0  0  0  0  0  0
  -31.9590  -14.9690   20.7870 O   0  0  0  0  0  0  0  0  0  0  0  0
  -25.4010  -14.0040   20.6410 C   0  0  0  0  0  0  0  0  0  0  0  0
  -24.2930  -13.2510   20.9150 C   0  0  0  0  0  0  0  0  0  0  0  0
  -24.7420  -11.8970   20.9720 C   0  0  0  0  0  0  0  0  0  0  0  0
  -26.4560  -13.1070   20.5420 N   0  0  0  0  0  0  0  0  0  0  0  0
  -26.0570  -11.8370   20.8030 N   0  0  0  0  0  0  0  0  0  0  0  0
  -23.9900  -10.6460   21.1200 C   0  0  0  0  0  0  0  0  0  0  0  0
  -24.3520   -9.6750   22.0800 C   0  0  0  0  0  3  0  0  0  0  0  0
  -23.6020   -8.4880   22.2150 C   0  0  0  0  0  3  0  0  0  0  0  0
  -22.4750   -8.2630   21.3880 C   0  0  0  0  0  0  0  0  0  0  0  0
  -22.1330   -9.2220   20.4190 C   0  0  0  0  0  3  0  0  0  0  0  0
  -22.8830  -10.4020   20.2820 C   0  0  0  0  0  3  0  0  0  0  0  0
  -21.7010   -7.1280   21.4310 O   0  0  0  0  0  0  0  0  0  0  0  0
  -21.6310   -6.3480   22.5570 C   0  0  0  0  0  0  0  0  0  0  0  0
  -21.1960   -6.8650   23.7970 C   0  0  0  0  0  3  0  0  0  0  0  0
  -21.0710   -6.0110   24.9110 C   0  0  0  0  0  3  0  0  0  0  0  0
  -21.3720   -4.6420   24.7870 C   0  0  0  0  0  0  0  0  0  0  0  0
  -21.8000   -4.1240   23.5520 C   0  0  0  0  0  3  0  0  0  0  0  0
  -21.9260   -4.9740   22.4390 C   0  0  0  0  0  0  0  0  0  0  0  0
  -22.3180   -4.4660   21.2460 F   0  0  0  0  0  0  0  0  0  0  0  0
  -21.2450   -3.8200   25.8530 F   0  0  0  0  0  0  0  0  0  0  0  0
  -22.8800  -13.7450   21.0270 C   0  0  0  0  0  0  0  0  0  0  0  0
  -22.0630  -13.0900   21.8460 N   0  0  0  0  0  0  0  0  0  0  0  0
  -22.5020  -14.7470   20.4200 O   0  0  0  0  0  0  0  0  0  0  0  0
  -22.3780  -12.2800   22.3590 H   0  0  0  0  0  0  0  0  0  0  0  0
  -21.1110  -13.4060   21.9630 H   0  0  0  0  0  0  0  0  0  0  0  0
  -25.5960  -15.3680   20.4490 N   0  0  0  0  0  0  0  0  0  0  0  0
  -24.8290  -16.0310   20.4820 H   0  0  0  0  0  0  0  0  0  0  0  0
  -26.4880  -15.8060   20.2660 H   0  0  0  0  0  0  0  0  0  0  0  0
  -25.3430  -21.6390   19.4360 C   0  0  0  0  0  1  0  0  0  0  0  0
  -26.2480  -21.0260   18.3590 C   0  0  0  0  0  2  0  0  0  0  0  0
  -28.8730  -21.9750   19.8980 O   0  0  0  0  0  0  0  0  0  0  0  0
  -28.2650  -23.0600   19.1690 C   0  0  0  0  0  2  0  0  0  0  0  0
  -28.7430  -24.4530   19.6280 C   0  0  0  0  0  0  0  0  0  0  0  0
  -29.3910  -24.6060   20.6700 O   0  0  0  0  0  0  0  0  0  0  0  0
  -28.3690  -25.6510   18.7230 C   0  0  0  0  0  2  0  0  0  0  0  0
  -28.2790  -26.8990   19.4490 O   0  0  0  0  0  0  0  0  0  0  0  0
  -24.5400  -31.7470   23.1060 C   0  0  0  0  0  0  0  0  0  0  0  0
  -27.0770  -27.5890   19.5370 C   0  0  0  0  0  0  0  0  0  0  0  0
  -23.2750  -30.4900   21.3930 C   0  0  0  0  0  3  0  0  0  0  0  0
  -24.6760  -29.0890   19.7850 C   0  0  0  0  0  0  0  0  0  0  0  0
  -25.7930  -30.8710   21.1340 C   0  0  0  0  0  2  0  0  0  0  0  0
  -25.8550  -29.5590   20.3720 C   0  0  0  0  0  0  0  0  0  0  0  0
  -27.0530  -28.8160   20.2500 C   0  0  0  0  0  3  0  0  0  0  0  0
  -25.8660  -27.1300   18.9670 C   0  0  0  0  0  3  0  0  0  0  0  0
  -24.6760  -27.8720   19.0850 C   0  0  0  0  0  3  0  0  0  0  0  0
  -23.4340  -29.9350   19.9520 C   0  0  0  0  0  2  0  0  0  0  0  0
  -24.5570  -31.0470   21.9360 N   0  0  0  0  0  0  0  0  0  0  0  0
  -23.4790  -31.9650   23.7080 O   0  0  0  0  0  0  0  0  0  0  0  0
  -22.6610  -29.3850   22.2830 C   0  0  0  0  0  0  0  0  0  0  0  0
  -21.3310  -29.2170   22.1990 N   0  0  0  0  0  0  0  0  0  0  0  0
  -23.3770  -28.6850   23.0040 O   0  0  0  0  0  0  0  0  0  0  0  0
  -20.8140  -29.8360   21.5890 H   0  0  0  0  0  0  0  0  0  0  0  0
  -17.9780  -27.9810   22.7230 C   0  0  0  0  0  0  0  0  0  0  0  0
  -20.5450  -28.2130   22.9140 C   0  0  0  0  0  3  0  0  0  0  0  0
  -20.6190  -26.8410   22.2050 C   0  0  0  0  0  2  0  0  0  0  0  0
  -19.4760  -26.6120   21.2120 C   0  0  0  0  0  2  0  0  0  0  0  0
  -18.1210  -26.6990   21.9200 C   0  0  0  0  0  2  0  0  0  0  0  0
  -19.1150  -28.7000   23.1760 C   0  0  0  0  0  0  0  0  0  0  0  0
  -18.9260  -29.9060   23.8870 C   0  0  0  0  0  3  0  0  0  0  0  0
  -17.6310  -30.3900   24.1490 C   0  0  0  0  0  3  0  0  0  0  0  0
  -16.5080  -29.6670   23.7130 C   0  0  0  0  0  3  0  0  0  0  0  0
  -16.6820  -28.4640   23.0060 C   0  0  0  0  0  3  0  0  0  0  0  0
  -25.8470  -32.3260   23.7310 C   0  0  0  0  0  3  0  0  0  0  0  0
  -25.5530  -33.6890   24.1880 N   0  0  0  0  0  0  0  0  0  0  0  0
  -25.9020  -34.8050   23.5310 C   0  0  0  0  0  0  0  0  0  0  0  0
  -26.5790  -34.7890   22.4990 O   0  0  0  0  0  0  0  0  0  0  0  0
  -24.9510  -33.7760   24.9950 H   0  0  0  0  0  0  0  0  0  0  0  0
  -24.2050  -36.6480   23.3240 C   0  0  0  0  0  1  0  0  0  0  0  0
  -25.4260  -36.1500   24.1120 C   0  0  0  0  0  3  0  0  0  0  0  0
  -27.5560  -36.9190   25.0610 C   0  0  0  0  0  1  0  0  0  0  0  0
  -26.4750  -37.1930   24.1170 N   0  0  0  0  0  0  0  0  0  0  0  0
  -26.0800  -38.1010   24.3440 H   0  0  0  0  0  0  0  0  0  0  0  0
  -26.4110  -31.4500   24.9150 C   0  0  1  0  0  0  0  0  0  0  0  0
  -25.3620  -31.1310   26.0060 C   0  0  0  0  0  1  0  0  0  0  0  0
  -26.9660  -30.1070   24.3860 C   0  0  0  0  0  1  0  0  0  0  0  0
  -27.5940  -32.1810   25.5920 C   0  0  0  0  0  1  0  0  0  0  0  0
  1  4  1  0
  2  5  1  0
  2  1  2  0
  4  3  2  0
  4  7  1  0
  5  6  2  0
  6 47  1  0
  6  3  1  0
  7  8  2  0
  8  9  1  0
  9 15  1  0
 10 15  1  0
 11 12  1  0
 11 10  1  0
 13 12  1  0
 13 20  1  0
 13 14  1  0
 15 14  1  0
 16  9  2  0
 17 18  2  0
 18 19  1  0
 18 37  1  0
 19 22  1  0
 20 17  1  0
 20 21  1  0
 21 19  2  0
 22 23  1  0
 23 24  2  0
 25 28  1  0
 25 24  1  0
 26 25  2  0
 27 26  1  0
 27 22  2  0
 28 29  1  0
 29 30  1  0
 30 31  2  0
 32 31  1  0
 32 36  1  0
 33 32  2  0
 34 29  2  0
 34 33  1  0
 35 34  1  0
 37 38  1  0
 38 41  1  0
 38 40  1  0
 39 37  2  0
 42 43  1  0
 42 17  1  0
 44 42  1  0
 46  5  1  0
 46 45  1  0
 48 49  1  0
 48 47  1  0
 49 50  2  0
 51 52  1  0
 51 49  1  0
 52 54  1  0
 53 64  2  0
 54 59  1  0
 55 63  1  0
 55 65  1  0
 56 62  1  0
 56 58  1  0
 57 63  1  0
 58 57  1  0
 59 58  2  0
 60 61  1  0
 60 54  2  0
 61 56  2  0
 62 55  1  0
 63 53  1  0
 65 67  2  0
 66 65  1  0
 68 66  1  0
 69 78  2  0
 69 74  1  0
 70 66  1  0
 70 74  1  0
 71 70  1  0
 72 73  1  0
 72 71  1  0
 73 69  1  0
 74 75  2  0
 75 76  1  0
 77 76  2  0
 78 77  1  0
 79 53  1  0
 79 80  1  0
 79 89  1  0
 80 83  1  0
 81 85  1  0
 81 80  1  0
 82 81  2  0
 85 84  1  0
 85 87  1  0
 87 88  1  0
 87 86  1  0
 89 92  1  1
 89 90  1  0
 91 89  1  0
M  ISO  4   8 100   9 100  51 101  52 101
M  END
>  <TORSDO>  (31) 
F 22

>  <SCORE>  (31) 
-12.127

>  <name>  (31) 
30

>  <ligand_id>  (31) 
30

>  <original_smiles>  (31) 
[H]C(C(=O)N1C([H])([H])C([H])([H])C([H])([H])C([H])(n2nc(-c3c([H])c([H])c(Oc4c([H])c([H])c(F)c([H])c4F)c([H])c3[H])c(C(=O)N([H])[H])c2N([H])[H])C1([H])[H])=C([H])c1c([H])c([H])c(C([H])([H])C([H])([H])[H])c(OC([H])([H])C(=O)C([H])([H])Oc2c([H])c([H])c3c(c2[H])C([H])([H])N(C(=O)C([H])(N([H])C(=O)C([H])(N([H])C([H])([H])[H])C([H])([H])[H])C(C([H])([H])[H])(C([H])([H])[H])C([H])([H])[H])C([H])(C(=O)N([H])C2([H])c4c([H])c([H])c([H])c([H])c4C([H])([H])C([H])([H])C2([H])[H])C3([H])[H])c1[H]

>  <smiles>  (31) 
[H]C(C(=O)N1C([H])([H])C([H])([H])C([H])([H])C([H])(n2nc(-c3c([H])c([H])c(Oc4c([H])c([H])c(F)c([H])c4F)c([H])c3[H])c(C(=O)N([H])[H])c2N([H])[H])C1([H])[H])=C([H])c1c([H])c([H])c(C([H])([H])C([H])([H])[H])c(OC([H])([H])C(=O)C([H])([H])Oc2c([H])c([H])c3c(c2[H])C([H])([H])N(C(=O)C([H])(N([H])C(=O)C([H])(N([H])C([H])([H])[H])C([H])([H])[H])C(C([H])([H])[H])(C([H])([H])[H])C([H])([H])[H])C([H])(C(=O)N([H])C2([H])c4c([H])c([H])c([H])c([H])c4C([H])([H])C([H])([H])C2([H])[H])C3([H])[H])c1[H]

$$$$
31:0:0
     RDKit          3D

 92101  0  0  1  0  0  0  0  0999 V2000
  -30.0650  -22.1900   18.9010 C   0  0  0  0  0  2  0  0  0  0  0  0
  -29.7020  -23.7020   18.9910 C   0  0  0  0  0  2  0  0  0  0  0  0
  -28.8250  -22.5290   20.9190 C   0  0  0  0  0  2  0  0  0  0  0  0
  -29.9310  -21.6050   20.3150 C   0  0  0  0  0  3  0  0  0  0  0  0
  -29.1370  -23.9880   20.4030 C   0  0  0  0  0  3  0  0  0  0  0  0
  -30.9270  -19.3050   21.0380 C   0  0  0  0  0  3  0  0  0  0  0  0
  -28.8570  -17.9730   19.8890 C   0  0  0  0  0  3  0  0  0  0  0  0
  -30.9320  -17.8810   21.0800 C   0  0  0  0  0  0  0  0  0  0  0  0
  -29.8680  -17.1610   20.4720 C   0  0  0  0  0  0  0  0  0  0  0  0
  -29.8760  -20.0300   20.4230 C   0  0  0  0  0  0  0  0  0  0  0  0
  -32.0570  -17.1760   21.8170 C   0  0  0  0  0  1  0  0  0  0  0  0
  -28.8530  -19.3420   19.8550 N   0  0  0  0  0  0  0  0  0  0  0  0
  -30.4550  -14.6660   20.0780 C   0  0  0  0  0  0  0  0  0  0  0  0
  -30.1650  -12.4790   18.9280 C   0  0  0  0  0  2  0  0  0  0  0  0
  -29.1500  -12.6600   17.7770 C   0  0  0  0  0  2  0  0  0  0  0  0
  -27.7050  -12.4870   18.2850 C   0  0  0  0  0  2  0  0  0  0  0  0
  -27.4240  -13.2980   19.5780 C   0  0  0  0  0  3  0  0  0  0  0  0
  -28.5470  -13.0930   20.6210 C   0  0  0  0  0  2  0  0  0  0  0  0
  -29.8220  -13.4550   19.9810 N   0  0  0  0  0  0  0  0  0  0  0  0
  -31.5870  -14.8360   19.6220 O   0  0  0  0  0  0  0  0  0  0  0  0
  -29.6870  -15.7070   20.5310 N   0  0  0  0  0  0  0  0  0  0  0  0
  -28.7490  -15.4120   20.7560 H   0  0  0  0  0  0  0  0  0  0  0  0
  -25.0730  -13.8730   20.4420 C   0  0  0  0  0  0  0  0  0  0  0  0
  -24.0290  -13.0870   20.8510 C   0  0  0  0  0  0  0  0  0  0  0  0
  -24.4910  -11.7390   20.7600 C   0  0  0  0  0  0  0  0  0  0  0  0
  -26.1050  -13.0010   20.1290 N   0  0  0  0  0  0  0  0  0  0  0  0
  -25.7620  -11.7120   20.3790 N   0  0  0  0  0  0  0  0  0  0  0  0
  -23.7770  -10.4690   20.9560 C   0  0  0  0  0  0  0  0  0  0  0  0
  -24.2280   -9.5060   21.8850 C   0  0  0  0  0  3  0  0  0  0  0  0
  -23.5150   -8.3010   22.0690 C   0  0  0  0  0  3  0  0  0  0  0  0
  -22.3370   -8.0530   21.3250 C   0  0  0  0  0  0  0  0  0  0  0  0
  -21.9060   -9.0050   20.3860 C   0  0  0  0  0  3  0  0  0  0  0  0
  -22.6200  -10.2010   20.1990 C   0  0  0  0  0  3  0  0  0  0  0  0
  -21.5940   -6.9010   21.4200 O   0  0  0  0  0  0  0  0  0  0  0  0
  -21.5420   -6.1720   22.5800 C   0  0  0  0  0  0  0  0  0  0  0  0
  -21.0600   -6.7240   23.7870 C   0  0  0  0  0  3  0  0  0  0  0  0
  -20.9580   -5.9180   24.9380 C   0  0  0  0  0  3  0  0  0  0  0  0
  -21.3280   -4.5600   24.8840 C   0  0  0  0  0  0  0  0  0  0  0  0
  -21.8040   -4.0080   23.6820 C   0  0  0  0  0  3  0  0  0  0  0  0
  -21.9070   -4.8100   22.5330 C   0  0  0  0  0  0  0  0  0  0  0  0
  -22.3460   -4.2670   21.3720 F   0  0  0  0  0  0  0  0  0  0  0  0
  -21.2230   -3.7850   25.9880 F   0  0  0  0  0  0  0  0  0  0  0  0
  -22.6480  -13.5530   21.2110 C   0  0  0  0  0  0  0  0  0  0  0  0
  -21.9660  -12.8300   22.0930 N   0  0  0  0  0  0  0  0  0  0  0  0
  -22.1830  -14.5920   20.7450 O   0  0  0  0  0  0  0  0  0  0  0  0
  -22.3570  -11.9900   22.4930 H   0  0  0  0  0  0  0  0  0  0  0  0
  -21.0420  -13.1230   22.3760 H   0  0  0  0  0  0  0  0  0  0  0  0
  -25.2230  -15.2480   20.2890 N   0  0  0  0  0  0  0  0  0  0  0  0
  -24.4520  -15.8900   20.4490 H   0  0  0  0  0  0  0  0  0  0  0  0
  -26.0290  -15.6960   19.8760 H   0  0  0  0  0  0  0  0  0  0  0  0
  -27.9640  -25.0610   20.4620 C   0  0  0  0  0  2  0  0  0  0  0  0
  -28.2280  -26.5000   20.2180 O   0  0  0  0  0  0  0  0  0  0  0  0
  -24.5910  -31.9560   23.2480 C   0  0  0  0  0  0  0  0  0  0  0  0
  -27.1130  -27.3540   20.1920 C   0  0  0  0  0  0  0  0  0  0  0  0
  -23.3450  -30.5500   21.6460 C   0  0  0  0  0  3  0  0  0  0  0  0
  -24.7560  -28.9750   20.2120 C   0  0  0  0  0  0  0  0  0  0  0  0
  -25.8830  -30.8480   21.4130 C   0  0  0  0  0  2  0  0  0  0  0  0
  -25.9400  -29.4640   20.7790 C   0  0  0  0  0  0  0  0  0  0  0  0
  -27.1220  -28.6650   20.7590 C   0  0  0  0  0  3  0  0  0  0  0  0
  -25.9070  -26.9250   19.5910 C   0  0  0  0  0  3  0  0  0  0  0  0
  -24.7410  -27.7100   19.6090 C   0  0  0  0  0  3  0  0  0  0  0  0
  -23.5270  -29.8570   20.2710 C   0  0  0  0  0  2  0  0  0  0  0  0
  -24.6270  -31.1360   22.1580 N   0  0  0  0  0  0  0  0  0  0  0  0
  -23.5200  -32.2490   23.7990 O   0  0  0  0  0  0  0  0  0  0  0  0
  -22.6950  -29.5480   22.6300 C   0  0  0  0  0  0  0  0  0  0  0  0
  -21.3710  -29.3480   22.5020 N   0  0  0  0  0  0  0  0  0  0  0  0
  -23.3780  -28.9520   23.4660 O   0  0  0  0  0  0  0  0  0  0  0  0
  -20.8790  -29.8790   21.7980 H   0  0  0  0  0  0  0  0  0  0  0  0
  -18.0160  -28.0860   22.9880 C   0  0  0  0  0  0  0  0  0  0  0  0
  -20.5620  -28.4210   23.2940 C   0  0  0  0  0  3  0  0  0  0  0  0
  -20.7100  -26.9710   22.7780 C   0  0  0  0  0  2  0  0  0  0  0  0
  -19.6360  -26.5810   21.7580 C   0  0  0  0  0  2  0  0  0  0  0  0
  -18.2400  -26.7160   22.3700 C   0  0  0  0  0  2  0  0  0  0  0  0
  -19.1070  -28.8920   23.4080 C   0  0  0  0  0  0  0  0  0  0  0  0
  -18.8460  -30.1720   23.9450 C   0  0  0  0  0  3  0  0  0  0  0  0
  -17.5270  -30.6460   24.0660 C   0  0  0  0  0  3  0  0  0  0  0  0
  -16.4500  -29.8380   23.6630 C   0  0  0  0  0  3  0  0  0  0  0  0
  -16.6950  -28.5600   23.1310 C   0  0  0  0  0  3  0  0  0  0  0  0
  -25.8910  -32.5830   23.8380 C   0  0  0  0  0  3  0  0  0  0  0  0
  -25.5950  -33.9840   24.1700 N   0  0  0  0  0  0  0  0  0  0  0  0
  -25.9210  -35.0340   23.4030 C   0  0  0  0  0  0  0  0  0  0  0  0
  -26.5730  -34.9240   22.3620 O   0  0  0  0  0  0  0  0  0  0  0  0
  -25.0140  -34.1440   24.9800 H   0  0  0  0  0  0  0  0  0  0  0  0
  -24.2080  -36.8450   23.0640 C   0  0  0  0  0  1  0  0  0  0  0  0
  -25.4500  -36.4270   23.8660 C   0  0  0  0  0  3  0  0  0  0  0  0
  -27.5950  -37.2930   24.6900 C   0  0  0  0  0  1  0  0  0  0  0  0
  -26.4930  -37.4690   23.7490 N   0  0  0  0  0  0  0  0  0  0  0  0
  -26.0960  -38.3940   23.8930 H   0  0  0  0  0  0  0  0  0  0  0  0
  -26.4320  -31.8150   25.1060 C   0  0  1  0  0  0  0  0  0  0  0  0
  -25.3610  -31.5830   26.1970 C   0  0  0  0  0  1  0  0  0  0  0  0
  -27.0060  -30.4360   24.7080 C   0  0  0  0  0  1  0  0  0  0  0  0
  -27.5970  -32.6100   25.7410 C   0  0  0  0  0  1  0  0  0  0  0  0
  1  2  1  0
  1  4  1  0
  2  5  1  0
  4 10  1  0
  4  3  1  0
  5 51  1  0
  5  3  1  0
  6  8  1  0
  7  9  1  0
  8 11  1  0
  9 21  1  0
  9  8  2  0
 10  6  2  0
 12  7  2  0
 12 10  1  0
 13 21  1  0
 14 19  1  0
 15 16  1  0
 15 14  1  0
 17 16  1  0
 17 26  1  0
 17 18  1  0
 19 13  1  0
 19 18  1  0
 20 13  2  0
 21 22  1  0
 23 24  2  0
 24 43  1  0
 25 24  1  0
 25 28  1  0
 26 27  1  0
 26 23  1  0
 27 25  2  0
 28 29  1  0
 29 30  2  0
 31 34  1  0
 31 30  1  0
 32 31  2  0
 33 32  1  0
 33 28  2  0
 34 35  1  0
 35 36  1  0
 36 37  2  0
 38 37  1  0
 38 42  1  0
 39 38  2  0
 40 35  2  0
 40 39  1  0
 41 40  1  0
 43 44  1  0
 44 47  1  0
 44 46  1  0
 45 43  2  0
 48 23  1  0
 48 49  1  0
 50 48  1  0
 52 51  1  0
 53 64  2  0
 54 52  1  0
 54 59  1  0
 55 63  1  0
 55 65  1  0
 56 62  1  0
 56 58  1  0
 57 63  1  0
 58 57  1  0
 59 58  2  0
 60 61  1  0
 60 54  2  0
 61 56  2  0
 62 55  1  0
 63 53  1  0
 65 67  2  0
 66 65  1  0
 68 66  1  0
 69 78  2  0
 69 74  1  0
 70 66  1  0
 70 74  1  0
 71 70  1  0
 72 73  1  0
 72 71  1  0
 73 69  1  0
 74 75  2  0
 75 76  1  0
 77 76  2  0
 78 77  1  0
 79 53  1  0
 79 80  1  0
 79 89  1  0
 80 83  1  0
 81 85  1  0
 81 80  1  0
 82 81  2  0
 85 84  1  0
 87 85  1  0
 87 88  1  0
 87 86  1  0
 89 92  1  1
 89 90  1  0
 91 89  1  0
M  ISO  4  13 100  21 100  51 101  52 101
M  END
>  <TORSDO>  (32) 
F 18

>  <SCORE>  (32) 
-13.740

>  <name>  (32) 
31

>  <ligand_id>  (32) 
31

>  <original_smiles>  (32) 
[H]c1nc(C2([H])C([H])([H])C([H])([H])C([H])(C([H])([H])Oc3c([H])c([H])c4c(c3[H])C([H])([H])N(C(=O)C([H])(N([H])C(=O)C([H])(N([H])C([H])([H])[H])C([H])([H])[H])C(C([H])([H])[H])(C([H])([H])[H])C([H])([H])[H])C([H])(C(=O)N([H])C3([H])c5c([H])c([H])c([H])c([H])c5C([H])([H])C([H])([H])C3([H])[H])C4([H])[H])C2([H])[H])c([H])c(C([H])([H])[H])c1N([H])C(=O)N1C([H])([H])C([H])([H])C([H])([H])C([H])(n2nc(-c3c([H])c([H])c(Oc4c([H])c([H])c(F)c([H])c4F)c([H])c3[H])c(C(=O)N([H])[H])c2N([H])[H])C1([H])[H]

>  <smiles>  (32) 
[H]c1nc(C2([H])C([H])([H])C([H])([H])C([H])(C([H])([H])Oc3c([H])c([H])c4c(c3[H])C([H])([H])N(C(=O)C([H])(N([H])C(=O)C([H])(N([H])C([H])([H])[H])C([H])([H])[H])C(C([H])([H])[H])(C([H])([H])[H])C([H])([H])[H])C([H])(C(=O)N([H])C3([H])c5c([H])c([H])c([H])c([H])c5C([H])([H])C([H])([H])C3([H])[H])C4([H])[H])C2([H])[H])c([H])c(C([H])([H])[H])c1N([H])C(=O)N1C([H])([H])C([H])([H])C([H])([H])C([H])(n2nc(-c3c([H])c([H])c(Oc4c([H])c([H])c(F)c([H])c4F)c([H])c3[H])c(C(=O)N([H])[H])c2N([H])[H])C1([H])[H]

$$$$
32:0:0
     RDKit          3D

 90 98  0  0  1  0  0  0  0  0999 V2000
  -29.4430  -22.3400   20.9150 C   0  0  0  0  0  3  0  0  0  0  0  0
  -29.6450  -23.2960   19.9890 C   0  0  0  0  0  3  0  0  0  0  0  0
  -29.7090  -18.6060   21.5210 C   0  0  0  0  0  3  0  0  0  0  0  0
  -29.5790  -18.9930   19.1240 C   0  0  0  0  0  3  0  0  0  0  0  0
  -29.5470  -19.9900   21.7440 C   0  0  0  0  0  3  0  0  0  0  0  0
  -29.4050  -20.3670   19.3470 C   0  0  0  0  0  3  0  0  0  0  0  0
  -29.7850  -18.1120   20.2030 C   0  0  0  0  0  0  0  0  0  0  0  0
  -29.4350  -20.8890   20.6600 C   0  0  0  0  0  0  0  0  0  0  0  0
  -30.1690  -16.7350   19.8880 C   0  0  0  0  0  3  0  0  0  0  0  0
  -30.2000  -15.6460   20.6830 C   0  0  0  0  0  3  0  0  0  0  0  0
  -30.8440  -14.4790   20.1070 C   0  0  0  0  0  0  0  0  0  0  0  0
  -30.3890  -12.3840   18.9310 C   0  0  0  0  0  2  0  0  0  0  0  0
  -29.4030  -12.6900   17.7860 C   0  0  0  0  0  2  0  0  0  0  0  0
  -27.9510  -12.5640   18.2870 C   0  0  0  0  0  2  0  0  0  0  0  0
  -27.6990  -13.3420   19.6080 C   0  0  0  0  0  3  0  0  0  0  0  0
  -28.8120  -13.0720   20.6460 C   0  0  0  0  0  2  0  0  0  0  0  0
  -30.1120  -13.3390   20.0150 N   0  0  0  0  0  0  0  0  0  0  0  0
  -31.9520  -14.5930   19.5750 O   0  0  0  0  0  0  0  0  0  0  0  0
  -25.3450  -13.9270   20.4680 C   0  0  0  0  0  0  0  0  0  0  0  0
  -24.2980  -13.1430   20.8740 C   0  0  0  0  0  0  0  0  0  0  0  0
  -24.7540  -11.7930   20.7790 C   0  0  0  0  0  0  0  0  0  0  0  0
  -26.3740  -13.0520   20.1530 N   0  0  0  0  0  0  0  0  0  0  0  0
  -26.0250  -11.7630   20.3960 N   0  0  0  0  0  0  0  0  0  0  0  0
  -24.0370  -10.5260   20.9720 C   0  0  0  0  0  0  0  0  0  0  0  0
  -24.4950   -9.5510   21.8870 C   0  0  0  0  0  3  0  0  0  0  0  0
  -23.7790   -8.3490   22.0710 C   0  0  0  0  0  3  0  0  0  0  0  0
  -22.5900   -8.1120   21.3410 C   0  0  0  0  0  0  0  0  0  0  0  0
  -22.1510   -9.0750   20.4150 C   0  0  0  0  0  3  0  0  0  0  0  0
  -22.8680  -10.2700   20.2290 C   0  0  0  0  0  3  0  0  0  0  0  0
  -21.8440   -6.9620   21.4340 O   0  0  0  0  0  0  0  0  0  0  0  0
  -21.7820   -6.2360   22.5960 C   0  0  0  0  0  0  0  0  0  0  0  0
  -21.3260   -6.8030   23.8060 C   0  0  0  0  0  3  0  0  0  0  0  0
  -21.2130   -6.0020   24.9610 C   0  0  0  0  0  3  0  0  0  0  0  0
  -21.5460   -4.6350   24.9050 C   0  0  0  0  0  0  0  0  0  0  0  0
  -21.9940   -4.0680   23.6990 C   0  0  0  0  0  3  0  0  0  0  0  0
  -22.1080   -4.8660   22.5470 C   0  0  0  0  0  0  0  0  0  0  0  0
  -22.5210   -4.3090   21.3830 F   0  0  0  0  0  0  0  0  0  0  0  0
  -21.4310   -3.8640   26.0120 F   0  0  0  0  0  0  0  0  0  0  0  0
  -22.9190  -13.6120   21.2410 C   0  0  0  0  0  0  0  0  0  0  0  0
  -22.2420  -12.8940   22.1300 N   0  0  0  0  0  0  0  0  0  0  0  0
  -22.4510  -14.6490   20.7750 O   0  0  0  0  0  0  0  0  0  0  0  0
  -22.6340  -12.0540   22.5300 H   0  0  0  0  0  0  0  0  0  0  0  0
  -21.3200  -13.1890   22.4160 H   0  0  0  0  0  0  0  0  0  0  0  0
  -25.5050  -15.3010   20.3240 N   0  0  0  0  0  0  0  0  0  0  0  0
  -24.7560  -15.9590   20.5100 H   0  0  0  0  0  0  0  0  0  0  0  0
  -26.3510  -15.7460   19.9930 H   0  0  0  0  0  0  0  0  0  0  0  0
  -31.0080  -25.3770   19.7350 C   0  0  0  0  0  1  0  0  0  0  0  0
  -29.6950  -24.7840   20.2710 C   0  0  0  0  0  3  0  0  0  0  0  0
  -28.4580  -25.4780   19.6840 C   0  0  0  0  0  2  0  0  0  0  0  0
  -28.4370  -26.8340   20.1210 O   0  0  0  0  0  0  0  0  0  0  0  0
  -24.6150  -31.9120   23.2560 C   0  0  0  0  0  0  0  0  0  0  0  0
  -27.2370  -27.5120   20.1150 C   0  0  0  0  0  0  0  0  0  0  0  0
  -23.3950  -30.5270   21.6100 C   0  0  0  0  0  3  0  0  0  0  0  0
  -24.8360  -29.0020   20.1640 C   0  0  0  0  0  0  0  0  0  0  0  0
  -25.9190  -30.8870   21.3990 C   0  0  0  0  0  2  0  0  0  0  0  0
  -25.9970  -29.5240   20.7470 C   0  0  0  0  0  0  0  0  0  0  0  0
  -27.1960  -28.7850   20.7220 C   0  0  0  0  0  3  0  0  0  0  0  0
  -26.0560  -26.9970   19.5270 C   0  0  0  0  0  3  0  0  0  0  0  0
  -24.8580  -27.7360   19.5550 C   0  0  0  0  0  3  0  0  0  0  0  0
  -23.5930  -29.8570   20.2240 C   0  0  0  0  0  2  0  0  0  0  0  0
  -24.6620  -31.1230   22.1460 N   0  0  0  0  0  0  0  0  0  0  0  0
  -23.5380  -32.1820   23.8050 O   0  0  0  0  0  0  0  0  0  0  0  0
  -22.7510  -29.4970   22.5660 C   0  0  0  0  0  0  0  0  0  0  0  0
  -21.4310  -29.2950   22.4230 N   0  0  0  0  0  0  0  0  0  0  0  0
  -23.4340  -28.8830   23.3890 O   0  0  0  0  0  0  0  0  0  0  0  0
  -20.9420  -29.8460   21.7300 H   0  0  0  0  0  0  0  0  0  0  0  0
  -18.0740  -28.0310   22.8470 C   0  0  0  0  0  0  0  0  0  0  0  0
  -20.6160  -28.3490   23.1830 C   0  0  0  0  0  3  0  0  0  0  0  0
  -20.7660  -26.9140   22.6270 C   0  0  0  0  0  2  0  0  0  0  0  0
  -19.6980  -26.5540   21.5900 C   0  0  0  0  0  2  0  0  0  0  0  0
  -18.2970  -26.6760   22.1960 C   0  0  0  0  0  2  0  0  0  0  0  0
  -19.1630  -28.8220   23.2960 C   0  0  0  0  0  0  0  0  0  0  0  0
  -18.9010  -30.0890   23.8620 C   0  0  0  0  0  3  0  0  0  0  0  0
  -17.5830  -30.5640   23.9840 C   0  0  0  0  0  3  0  0  0  0  0  0
  -16.5060  -29.7700   23.5530 C   0  0  0  0  0  3  0  0  0  0  0  0
  -16.7530  -28.5050   22.9900 C   0  0  0  0  0  3  0  0  0  0  0  0
  -25.9070  -32.5330   23.8740 C   0  0  0  0  0  3  0  0  0  0  0  0
  -26.4220  -31.7580   25.1490 C   0  0  1  0  0  0  0  0  0  0  0  0
  -25.3310  -31.5250   26.2200 C   0  0  0  0  0  1  0  0  0  0  0  0
  -26.9960  -30.3780   24.7520 C   0  0  0  0  0  1  0  0  0  0  0  0
  -27.5780  -32.5470   25.8100 C   0  0  0  0  0  1  0  0  0  0  0  0
  -25.6100  -33.9340   24.2010 N   0  0  0  0  0  0  0  0  0  0  0  0
  -25.9280  -34.9800   23.4260 C   0  0  0  0  0  0  0  0  0  0  0  0
  -26.5750  -34.8660   22.3810 O   0  0  0  0  0  0  0  0  0  0  0  0
  -25.0320  -34.0960   25.0130 H   0  0  0  0  0  0  0  0  0  0  0  0
  -24.1810  -36.7600   23.1150 C   0  0  0  0  0  1  0  0  0  0  0  0
  -25.4530  -36.3720   23.8840 C   0  0  0  0  0  3  0  0  0  0  0  0
  -27.6140  -37.2750   24.6230 C   0  0  0  0  0  1  0  0  0  0  0  0
  -26.4770  -37.4260   23.7180 N   0  0  0  0  0  0  0  0  0  0  0  0
  -26.0730  -38.3470   23.8680 H   0  0  0  0  0  0  0  0  0  0  0  0
  2 48  1  0
  2  1  2  0
  3  5  1  0
  4  6  2  0
  4  7  1  0
  6  8  1  0
  7  3  2  0
  8  1  1  0
  8  5  2  0
  9  7  1  0
  9 10  2  0
 11 10  1  0
 12 17  1  0
 13 14  1  0
 13 12  1  0
 15 14  1  0
 15 22  1  0
 15 16  1  0
 17 11  1  0
 17 16  1  0
 18 11  2  0
 19 20  2  0
 20 39  1  0
 21 20  1  0
 21 24  1  0
 22 23  1  0
 22 19  1  0
 23 21  2  0
 24 25  1  0
 25 26  2  0
 27 30  1  0
 27 26  1  0
 28 27  2  0
 29 28  1  0
 29 24  2  0
 30 31  1  0
 31 32  1  0
 32 33  2  0
 34 33  1  0
 34 38  1  0
 35 34  2  0
 36 31  2  0
 36 35  1  0
 37 36  1  0
 39 40  1  0
 40 43  1  0
 40 42  1  0
 41 39  2  0
 44 19  1  0
 44 45  1  0
 46 44  1  0
 48 47  1  0
 49 50  1  0
 49 48  1  0
 51 62  2  0
 52 50  1  0
 52 57  1  0
 53 61  1  0
 53 63  1  0
 54 60  1  0
 54 56  1  0
 55 61  1  0
 56 55  1  0
 57 56  2  0
 58 59  1  0
 58 52  2  0
 59 54  2  0
 60 53  1  0
 61 51  1  0
 63 65  2  0
 64 63  1  0
 66 64  1  0
 67 76  2  0
 67 72  1  0
 68 64  1  0
 68 72  1  0
 69 68  1  0
 70 71  1  0
 70 69  1  0
 71 67  1  0
 72 73  2  0
 73 74  1  0
 75 74  2  0
 76 75  1  0
 77 51  1  0
 77 82  1  0
 77 78  1  0
 78 81  1  1
 78 79  1  0
 80 78  1  0
 82 85  1  0
 83 87  1  0
 83 82  1  0
 84 83  2  0
 87 86  1  0
 89 90  1  0
 89 87  1  0
 89 88  1  0
M  ISO  4  10 100  11 100  49 101  50 101
M  END
>  <TORSDO>  (33) 
F 20

>  <SCORE>  (33) 
-12.975

>  <name>  (33) 
32

>  <ligand_id>  (33) 
32

>  <original_smiles>  (33) 
[H]C(C(=O)N1C([H])([H])C([H])([H])C([H])([H])C([H])(n2nc(-c3c([H])c([H])c(Oc4c([H])c([H])c(F)c([H])c4F)c([H])c3[H])c(C(=O)N([H])[H])c2N([H])[H])C1([H])[H])=C([H])c1c([H])c([H])c(C([H])=C([H])C([H])(C([H])([H])[H])C([H])([H])Oc2c([H])c([H])c3c(c2[H])C([H])([H])N(C(=O)C([H])(N([H])C(=O)C([H])(N([H])C([H])([H])[H])C([H])([H])[H])C(C([H])([H])[H])(C([H])([H])[H])C([H])([H])[H])C([H])(C(=O)N([H])C2([H])c4c([H])c([H])c([H])c([H])c4C([H])([H])C([H])([H])C2([H])[H])C3([H])[H])c([H])c1[H]

>  <smiles>  (33) 
[H]C(C(=O)N1C([H])([H])C([H])([H])C([H])([H])C([H])(n2nc(-c3c([H])c([H])c(Oc4c([H])c([H])c(F)c([H])c4F)c([H])c3[H])c(C(=O)N([H])[H])c2N([H])[H])C1([H])[H])=C([H])c1c([H])c([H])c(C([H])=C([H])C([H])(C([H])([H])[H])C([H])([H])Oc2c([H])c([H])c3c(c2[H])C([H])([H])N(C(=O)C([H])(N([H])C(=O)C([H])(N([H])C([H])([H])[H])C([H])([H])[H])C(C([H])([H])[H])(C([H])([H])[H])C([H])([H])[H])C([H])(C(=O)N([H])C2([H])c4c([H])c([H])c([H])c([H])c4C([H])([H])C([H])([H])C2([H])[H])C3([H])[H])c([H])c1[H]

$$$$
33:0:0
     RDKit          3D

 90 91  0  0  1  0  0  0  0  0999 V2000
  -21.4030  -24.8470   21.1560 C   0  0  0  0  0 15  0  0  0  0  0  0
  -20.3800  -23.0320   20.5490 C   0  0  0  0  0  3  0  0  0  0  0  0
  -18.6760  -25.7810   19.8840 C   0  0  0  0  0  3  0  0  0  0  0  0
  -22.0960  -22.9770   20.6470 C   0  0  0  0  0  1  0  0  0  0  0  0
  -20.1440  -26.8210   20.2980 C   0  0  1  0  0  0  0  0  0  0  0  0
  -18.9610  -24.0640   20.3210 C   0  0  0  0  0  0  0  0  0  0  0  0
  -17.6700  -23.2740   20.2470 C   0  0  0  0  0  1  0  0  0  0  0  0
  -23.9920  -20.8530   20.2770 C   0  0  0  0  0 15  0  0  0  0  0  0
  -25.6770  -19.5330   20.0300 C   0  0  0  0  0 15  0  0  0  0  0  0
  -27.3730  -17.6690   19.6690 C   0  0  0  0  0  2  0  0  0  0  0  0
  -29.2860  -15.0800   18.6710 C   0  0  0  0  0  2  0  0  0  0  0  0
  -29.2100  -13.6260   17.8240 C   0  0  0  0  0  2  0  0  0  0  0  0
  -28.2510  -12.6030   18.4190 C   0  0  0  0  0  2  0  0  0  0  0  0
  -27.3680  -13.5490   19.2030 C   0  0  0  0  0  3  0  0  0  0  0  0
  -27.9680  -14.6000   20.2090 C   0  0  0  0  0  2  0  0  0  0  0  0
  -27.9930  -15.9770   19.4830 N   0  0  0  0  0  0  0  0  0  0  0  0
  -28.7060  -17.6620   19.3710 O   0  0  0  0  0  1  0  0  0  0  0  0
  -25.2780  -13.9670   20.2660 C   0  0  0  0  0  0  0  0  0  0  0  0
  -24.3340  -13.1770   20.7920 C   0  0  0  0  0  0  0  0  0  0  0  0
  -24.7530  -11.8320   20.5430 C   0  0  0  0  0  0  0  0  0  0  0  0
  -26.2060  -13.0880   19.7760 N   0  0  0  0  0  0  0  0  0  0  0  0
  -25.9520  -11.7860   19.9790 N   0  0  0  0  0  0  0  0  0  0  0  0
  -24.0270  -10.5950   20.7350 C   0  0  0  0  0  0  0  0  0  0  0  0
  -24.4370   -9.6340   21.6790 C   0  0  0  0  0  3  0  0  0  0  0  0
  -23.6780   -8.4610   21.8570 C   0  0  0  0  0  3  0  0  0  0  0  0
  -22.5080   -8.2550   21.0870 C   0  0  0  0  0  0  0  0  0  0  0  0
  -22.1290   -9.2070   20.1270 C   0  0  0  0  0  3  0  0  0  0  0  0
  -22.8870  -10.3700   19.9460 C   0  0  0  0  0  3  0  0  0  0  0  0
  -21.7150   -7.1410   21.1790 O   0  0  0  0  0  0  0  0  0  0  0  0
  -21.4630   -6.5450   22.3850 C   0  0  0  0  0  0  0  0  0  0  0  0
  -20.8350   -7.2360   23.4440 C   0  0  0  0  0  3  0  0  0  0  0  0
  -20.5330   -6.5590   24.6420 C   0  0  0  0  0  3  0  0  0  0  0  0
  -20.8490   -5.1940   24.7780 C   0  0  0  0  0  0  0  0  0  0  0  0
  -21.4730   -4.5050   23.7220 C   0  0  0  0  0  3  0  0  0  0  0  0
  -21.7780   -5.1800   22.5280 C   0  0  0  0  0  0  0  0  0  0  0  0
  -22.3590   -4.5100   21.5040 F   0  0  0  0  0  0  0  0  0  0  0  0
  -20.5500   -4.5390   25.9240 F   0  0  0  0  0  0  0  0  0  0  0  0
  -23.0680  -13.6930   21.3750 C   0  0  0  0  0  0  0  0  0  0  0  0
  -22.5050  -12.9650   22.3250 N   0  0  0  0  0  0  0  0  0  0  0  0
  -22.6170  -14.7850   21.0320 O   0  0  0  0  0  0  0  0  0  0  0  0
  -22.9060  -12.0860   22.6150 H   0  0  0  0  0  0  0  0  0  0  0  0
  -21.6620  -13.2930   22.7740 H   0  0  0  0  0  0  0  0  0  0  0  0
  -25.4040  -15.3520   20.1570 N   0  0  0  0  0  0  0  0  0  0  0  0
  -24.6170  -15.9560   20.3700 H   0  0  0  0  0  0  0  0  0  0  0  0
  -26.0790  -15.7660   19.5280 H   0  0  0  0  0  0  0  0  0  0  0  0
  -20.2220  -28.6800   20.8750 C   0  0  0  0  0  2  0  0  0  0  0  0
  -20.9510  -29.4330   22.1300 C   0  0  0  0  0  1  0  0  0  0  0  0
  -22.3280  -28.7630   23.5320 C   0  0  0  0  0 15  0  0  0  0  0  0
  -24.0960  -27.4450   23.3870 C   0  0  0  0  0 15  0  0  0  0  0  0
  -25.5380  -26.9280   22.2920 O   0  0  0  0  0  1  0  0  0  0  0  0
  -24.5400  -31.8920   22.8780 C   0  0  0  0  0  0  0  0  0  0  0  0
  -26.5210  -27.4230   21.3160 C   0  0  0  0  0  3  0  0  0  0  0  0
  -23.9850  -30.7590   20.6080 C   0  0  0  0  0  3  0  0  0  0  0  0
  -25.8310  -29.3160   19.6340 C   0  0  0  0  0  3  0  0  0  0  0  0
  -26.3940  -31.0450   21.4010 C   0  0  0  0  0  2  0  0  0  0  0  0
  -26.5930  -29.6660   20.7710 C   0  0  0  0  0  3  0  0  0  0  0  0
  -27.1740  -28.6430   21.5280 C   0  0  0  0  0  2  0  0  0  0  0  0
  -26.4190  -27.0050   19.9600 C   0  0  0  0  0  2  0  0  0  0  0  0
  -25.9010  -28.0030   19.1140 C   0  0  0  0  0  2  0  0  0  0  0  0
  -24.6910  -30.2860   19.3090 C   0  0  0  0  0  2  0  0  0  0  0  0
  -24.9690  -31.4310   21.6270 N   0  0  0  0  0  0  0  0  0  0  0  0
  -23.3320  -32.0270   23.1360 O   0  0  0  0  0  0  0  0  0  0  0  0
  -23.6200  -29.4170   21.1610 C   0  0  0  0  0  0  0  0  0  0  0  0
  -22.8510  -28.3560   20.7220 N   0  0  0  0  0  0  0  0  0  0  0  0
  -24.2210  -29.3500   22.1570 O   0  0  0  0  0  0  0  0  0  0  0  0
  -22.5170  -28.5140   19.7850 H   0  0  0  0  0  0  0  0  0  0  0  0
  -19.1040  -26.2230   21.8420 C   0  0  0  0  0  3  0  0  0  0  0  0
  -21.9520  -27.1040   21.4250 C   0  0  0  0  0  2  0  0  0  0  0  0
  -22.3220  -26.7420   19.8130 C   0  0  0  0  0  2  0  0  0  0  0  0
  -21.3660  -26.5730   18.4800 C   0  0  0  0  0  2  0  0  0  0  0  0
  -19.9900  -25.7490   18.7060 C   0  0  0  0  0  3  0  0  0  0  0  0
  -20.2370  -27.0580   22.5780 C   0  0  0  0  0  2  0  0  0  0  0  0
  -19.7490  -28.1790   23.6340 C   0  0  0  0  0  2  0  0  0  0  0  0
  -18.7430  -29.2410   23.4960 C   0  0  0  0  0  2  0  0  0  0  0  0
  -17.7330  -28.7720   22.6710 C   0  0  0  0  0  2  0  0  0  0  0  0
  -17.8910  -27.3540   22.1580 C   0  0  0  0  0  2  0  0  0  0  0  0
  -25.5420  -32.2320   24.0480 C   0  0  0  0  0  3  0  0  0  0  0  0
  -25.4790  -31.3820   25.3930 C   0  0  1  0  0  0  0  0  0  0  0  0
  -24.0760  -31.2670   26.0250 C   0  0  0  0  0  1  0  0  0  0  0  0
  -26.0310  -29.9590   25.1690 C   0  0  0  0  0  1  0  0  0  0  0  0
  -26.4120  -32.0240   26.4550 C   0  0  0  0  0  1  0  0  0  0  0  0
  -25.3000  -33.6370   24.3530 N   0  0  0  0  0  0  0  0  0  0  0  0
  -25.9840  -34.6300   23.7780 C   0  0  0  0  0  0  0  0  0  0  0  0
  -26.9310  -34.4350   23.0130 O   0  0  0  0  0  0  0  0  0  0  0  0
  -24.5010  -33.8580   24.9270 H   0  0  0  0  0  0  0  0  0  0  0  0
  -24.7150  -36.6140   22.9280 C   0  0  0  0  0  1  0  0  0  0  0  0
  -25.5410  -36.0630   24.1010 C   0  0  0  0  0  3  0  0  0  0  0  0
  -27.3570  -36.6440   25.6440 C   0  0  0  0  0  1  0  0  0  0  0  0
  -26.6740  -36.9660   24.3930 N   0  0  0  0  0  0  0  0  0  0  0  0
  -26.3650  -37.9330   24.4390 H   0  0  0  0  0  0  0  0  0  0  0  0
  2  4  1  0
  3  5  1  0
  3  6  1  0
  5 46  1  6
  5 67  1  0
  6  2  2  0
  7  6  1  0
 11 16  1  0
 12 13  1  0
 12 11  1  0
 14 13  1  0
 14 21  1  0
 14 15  1  0
 16 10  1  0
 16 15  1  0
 17 10  1  0
 18 19  2  0
 19 38  1  0
 20 23  1  0
 20 19  1  0
 21 22  1  0
 21 18  1  0
 22 20  2  0
 23 24  1  0
 24 25  2  0
 26 29  1  0
 26 25  1  0
 27 26  2  0
 28 27  1  0
 28 23  2  0
 29 30  1  0
 30 35  2  0
 30 31  1  0
 31 32  2  0
 32 33  1  0
 33 37  1  0
 34 33  2  0
 35 34  1  0
 36 35  1  0
 38 39  1  0
 39 41  1  0
 39 42  1  0
 40 38  2  0
 43 18  1  0
 43 44  1  0
 45 43  1  0
 46 47  1  0
 51 62  2  0
 52 57  1  0
 52 50  1  0
 53 63  1  0
 53 61  1  0
 54 59  1  0
 54 56  1  0
 55 61  1  0
 56 55  1  0
 56 57  1  0
 58 52  1  0
 59 58  1  0
 60 54  1  0
 60 53  1  0
 61 51  1  0
 63 65  2  0
 64 63  1  0
 64 68  1  0
 66 64  1  0
 67 76  1  0
 67 72  1  0
 69 68  1  0
 70 69  1  0
 71 70  1  0
 71  3  1  0
 71  5  1  0
 72 73  1  0
 74 73  1  0
 75 74  1  0
 76 75  1  0
 77 51  1  0
 77 82  1  0
 77 78  1  0
 78 79  1  1
 78 81  1  0
 80 78  1  0
 82 85  1  0
 83 87  1  0
 83 82  1  0
 84 83  2  0
 87 86  1  0
 87 89  1  0
 89 90  1  0
 89 88  1  0
M  ISO  4   9 100  10 100  49 101  50 101
M  END
>  <TORSDO>  (34) 
F 20

>  <SCORE>  (34) 
-2.486

>  <name>  (34) 
33

>  <ligand_id>  (34) 
33

>  <original_smiles>  (34) 
[H]C(C(=O)N1C([H])([H])C([H])([H])C([H])([H])C([H])(n2nc(-c3c([H])c([H])c(Oc4c([H])c([H])c(F)c([H])c4F)c([H])c3[H])c(C(=O)N([H])[H])c2N([H])[H])C1([H])[H])=C([H])c1c([H])c(C([H])=C([H])C([H])([H])C([H])([H])Oc2c([H])c([H])c3c(c2[H])C([H])([H])N(C(=O)C([H])(N([H])C(=O)C([H])(N([H])C([H])([H])[H])C([H])([H])[H])C(C([H])([H])[H])(C([H])([H])[H])C([H])([H])[H])C([H])(C(=O)N([H])C2([H])c4c([H])c([H])c([H])c([H])c4C([H])([H])C([H])([H])C2([H])[H])C3([H])[H])c([H])c(C([H])([H])[H])c1[H]

>  <smiles>  (34) 
[H]C(C(=O)N1C([H])([H])C([H])([H])C([H])([H])C([H])(n2nc(-c3c([H])c([H])c(Oc4c([H])c([H])c(F)c([H])c4F)c([H])c3[H])c(C(=O)N([H])[H])c2N([H])[H])C1([H])[H])=C([H])c1c([H])c(C([H])=C([H])C([H])([H])C([H])([H])Oc2c([H])c([H])c3c(c2[H])C([H])([H])N(C(=O)C([H])(N([H])C(=O)C([H])(N([H])C([H])([H])[H])C([H])([H])[H])C(C([H])([H])[H])(C([H])([H])[H])C([H])([H])[H])C([H])(C(=O)N([H])C2([H])c4c([H])c([H])c([H])c([H])c4C([H])([H])C([H])([H])C2([H])[H])C3([H])[H])c([H])c(C([H])([H])[H])c1[H]

$$$$
34:0:0
     RDKit          3D

 91 99  0  0  1  0  0  0  0  0999 V2000
  -30.2570  -21.9390   19.6440 C   0  0  0  0  0  3  0  0  0  0  0  0
  -29.3230  -22.7340   20.2380 C   0  0  0  0  0  3  0  0  0  0  0  0
  -29.9840  -19.4040   20.3830 C   0  0  0  0  0  3  0  0  0  0  0  0
  -31.1580  -20.0560   18.3650 C   0  0  0  0  0  3  0  0  0  0  0  0
  -30.9780  -17.6940   18.9540 C   0  0  0  0  0  3  0  0  0  0  0  0
  -30.4400  -20.4480   19.5150 C   0  0  0  0  0  0  0  0  0  0  0  0
  -30.2710  -18.0140   20.1320 C   0  0  0  0  0  0  0  0  0  0  0  0
  -31.4240  -18.7040   18.0810 C   0  0  0  0  0  0  0  0  0  0  0  0
  -32.2000  -18.3300   16.8340 C   0  0  0  0  0  1  0  0  0  0  0  0
  -29.8340  -16.9550   21.1100 C   0  0  0  0  0  3  0  0  0  0  0  0
  -29.9590  -15.5940   21.2630 C   0  0  0  0  0  3  0  0  0  0  0  0
  -30.6560  -14.5620   20.4610 C   0  0  0  0  0  0  0  0  0  0  0  0
  -30.3780  -12.3970   19.2610 C   0  0  0  0  0  2  0  0  0  0  0  0
  -29.4220  -12.5920   18.0640 C   0  0  0  0  0  2  0  0  0  0  0  0
  -27.9490  -12.4420   18.4950 C   0  0  0  0  0  2  0  0  0  0  0  0
  -27.6220  -13.2550   19.7750 C   0  0  0  0  0  3  0  0  0  0  0  0
  -28.6820  -13.0000   20.8660 C   0  0  0  0  0  2  0  0  0  0  0  0
  -29.9980  -13.3670   20.3090 N   0  0  0  0  0  0  0  0  0  0  0  0
  -31.7660  -14.7370   19.9470 O   0  0  0  0  0  0  0  0  0  0  0  0
  -25.2290  -13.8740   20.4830 C   0  0  0  0  0  0  0  0  0  0  0  0
  -24.1580  -13.1080   20.8580 C   0  0  0  0  0  0  0  0  0  0  0  0
  -24.6140  -11.7550   20.8370 C   0  0  0  0  0  0  0  0  0  0  0  0
  -26.2700  -12.9870   20.2560 N   0  0  0  0  0  0  0  0  0  0  0  0
  -25.9040  -11.7080   20.5260 N   0  0  0  0  0  0  0  0  0  0  0  0
  -23.8840  -10.4980   21.0380 C   0  0  0  0  0  0  0  0  0  0  0  0
  -24.3290   -9.5250   21.9610 C   0  0  0  0  0  3  0  0  0  0  0  0
  -23.6000   -8.3310   22.1500 C   0  0  0  0  0  3  0  0  0  0  0  0
  -22.4130   -8.1010   21.4140 C   0  0  0  0  0  0  0  0  0  0  0  0
  -21.9880   -9.0620   20.4800 C   0  0  0  0  0  3  0  0  0  0  0  0
  -22.7170  -10.2470   20.2900 C   0  0  0  0  0  3  0  0  0  0  0  0
  -21.6560   -6.9590   21.5110 O   0  0  0  0  0  0  0  0  0  0  0  0
  -21.6370   -6.2020   22.6560 C   0  0  0  0  0  0  0  0  0  0  0  0
  -21.2620   -6.7470   23.9030 C   0  0  0  0  0  3  0  0  0  0  0  0
  -21.1900   -5.9190   25.0410 C   0  0  0  0  0  3  0  0  0  0  0  0
  -21.4800   -4.5450   24.9320 C   0  0  0  0  0  0  0  0  0  0  0  0
  -21.8480   -3.9990   23.6900 C   0  0  0  0  0  3  0  0  0  0  0  0
  -21.9230   -4.8250   22.5540 C   0  0  0  0  0  0  0  0  0  0  0  0
  -22.2580   -4.2890   21.3550 F   0  0  0  0  0  0  0  0  0  0  0  0
  -21.4040   -3.7480   26.0230 F   0  0  0  0  0  0  0  0  0  0  0  0
  -22.7630  -13.5940   21.1310 C   0  0  0  0  0  0  0  0  0  0  0  0
  -22.0360  -12.9070   22.0040 N   0  0  0  0  0  0  0  0  0  0  0  0
  -22.3280  -14.6180   20.6050 O   0  0  0  0  0  0  0  0  0  0  0  0
  -22.4030  -12.0820   22.4520 H   0  0  0  0  0  0  0  0  0  0  0  0
  -21.1000  -13.2130   22.2290 H   0  0  0  0  0  0  0  0  0  0  0  0
  -25.3990  -15.2430   20.3000 N   0  0  0  0  0  0  0  0  0  0  0  0
  -24.6370  -15.9030   20.4150 H   0  0  0  0  0  0  0  0  0  0  0  0
  -26.2620  -15.6790   19.9970 H   0  0  0  0  0  0  0  0  0  0  0  0
  -29.4210  -24.2430   20.1630 C   0  0  0  0  0  0  0  0  0  0  0  0
  -30.4740  -24.8090   19.8480 O   0  0  0  0  0  0  0  0  0  0  0  0
  -28.1780  -25.1330   20.4720 C   0  0  0  0  0  2  0  0  0  0  0  0
  -28.3750  -26.5630   20.2070 O   0  0  0  0  0  0  0  0  0  0  0  0
  -24.6060  -31.8780   23.2370 C   0  0  0  0  0  0  0  0  0  0  0  0
  -27.2320  -27.3590   20.1870 C   0  0  0  0  0  0  0  0  0  0  0  0
  -23.4000  -30.4750   21.5960 C   0  0  0  0  0  3  0  0  0  0  0  0
  -24.8520  -28.9270   20.1790 C   0  0  0  0  0  0  0  0  0  0  0  0
  -25.9340  -30.8100   21.4090 C   0  0  0  0  0  2  0  0  0  0  0  0
  -26.0180  -29.4330   20.7710 C   0  0  0  0  0  0  0  0  0  0  0  0
  -27.2100  -28.6580   20.7670 C   0  0  0  0  0  3  0  0  0  0  0  0
  -26.0450  -26.8950   19.5710 C   0  0  0  0  0  3  0  0  0  0  0  0
  -24.8660  -27.6630   19.5700 C   0  0  0  0  0  3  0  0  0  0  0  0
  -23.6140  -29.7960   20.2180 C   0  0  0  0  0  2  0  0  0  0  0  0
  -24.6640  -31.0700   22.1380 N   0  0  0  0  0  0  0  0  0  0  0  0
  -23.5220  -32.1540   23.7730 O   0  0  0  0  0  0  0  0  0  0  0  0
  -22.7390  -29.4590   22.5580 C   0  0  0  0  0  0  0  0  0  0  0  0
  -21.4140  -29.2760   22.4250 N   0  0  0  0  0  0  0  0  0  0  0  0
  -23.4170  -28.8400   23.3830 O   0  0  0  0  0  0  0  0  0  0  0  0
  -20.9270  -29.8280   21.7330 H   0  0  0  0  0  0  0  0  0  0  0  0
  -18.0450  -28.0560   22.8930 C   0  0  0  0  0  0  0  0  0  0  0  0
  -20.5960  -28.3400   23.1960 C   0  0  0  0  0  3  0  0  0  0  0  0
  -20.7210  -26.9030   22.6400 C   0  0  0  0  0  2  0  0  0  0  0  0
  -19.6360  -26.5570   21.6150 C   0  0  0  0  0  2  0  0  0  0  0  0
  -18.2430  -26.6990   22.2370 C   0  0  0  0  0  2  0  0  0  0  0  0
  -19.1510  -28.8330   23.3290 C   0  0  0  0  0  0  0  0  0  0  0  0
  -18.9140  -30.1010   23.9010 C   0  0  0  0  0  3  0  0  0  0  0  0
  -17.6030  -30.5920   24.0450 C   0  0  0  0  0  3  0  0  0  0  0  0
  -16.5110  -29.8120   23.6260 C   0  0  0  0  0  3  0  0  0  0  0  0
  -16.7330  -28.5470   23.0540 C   0  0  0  0  0  3  0  0  0  0  0  0
  -25.8900  -32.5090   23.8560 C   0  0  0  0  0  3  0  0  0  0  0  0
  -26.4130  -31.7340   25.1280 C   0  0  1  0  0  0  0  0  0  0  0  0
  -25.3270  -31.4930   26.2010 C   0  0  0  0  0  1  0  0  0  0  0  0
  -26.9950  -30.3570   24.7300 C   0  0  0  0  0  1  0  0  0  0  0  0
  -27.5660  -32.5270   25.7880 C   0  0  0  0  0  1  0  0  0  0  0  0
  -25.5820  -33.9060   24.1900 N   0  0  0  0  0  0  0  0  0  0  0  0
  -25.9100  -34.9610   23.4300 C   0  0  0  0  0  0  0  0  0  0  0  0
  -26.5730  -34.8590   22.3950 O   0  0  0  0  0  0  0  0  0  0  0  0
  -24.9960  -34.0620   24.9970 H   0  0  0  0  0  0  0  0  0  0  0  0
  -24.1770  -36.7520   23.0880 C   0  0  0  0  0  1  0  0  0  0  0  0
  -25.4230  -36.3480   23.8920 C   0  0  0  0  0  3  0  0  0  0  0  0
  -27.5620  -37.2340   24.7120 C   0  0  0  0  0  1  0  0  0  0  0  0
  -26.4530  -37.4010   23.7760 N   0  0  0  0  0  0  0  0  0  0  0  0
  -26.0460  -38.3200   23.9290 H   0  0  0  0  0  0  0  0  0  0  0  0
  1  2  2  0
  4  6  1  0
  5  7  2  0
  6  1  1  0
  6  3  2  0
  7  3  1  0
  7 10  1  0
  8  4  2  0
  8  5  1  0
  9  8  1  0
 10 11  2  0
 12 11  1  0
 13 18  1  0
 14 15  1  0
 14 13  1  0
 16 15  1  0
 16 23  1  0
 16 17  1  0
 18 12  1  0
 18 17  1  0
 19 12  2  0
 20 21  2  0
 21 40  1  0
 22 21  1  0
 22 25  1  0
 23 20  1  0
 23 24  1  0
 24 22  2  0
 25 26  1  0
 26 27  2  0
 28 31  1  0
 28 27  1  0
 29 28  2  0
 30 29  1  0
 30 25  2  0
 31 32  1  0
 32 33  1  0
 33 34  2  0
 35 34  1  0
 35 39  1  0
 36 35  2  0
 37 32  2  0
 37 36  1  0
 38 37  1  0
 40 41  1  0
 41 44  1  0
 41 43  1  0
 42 40  2  0
 45 46  1  0
 45 20  1  0
 47 45  1  0
 48  2  1  0
 48 50  1  0
 49 48  2  0
 51 50  1  0
 52 63  2  0
 53 51  1  0
 53 58  1  0
 54 62  1  0
 54 64  1  0
 55 61  1  0
 55 57  1  0
 56 62  1  0
 57 56  1  0
 58 57  2  0
 59 53  2  0
 60 59  1  0
 60 55  2  0
 61 54  1  0
 62 52  1  0
 64 66  2  0
 65 64  1  0
 67 65  1  0
 68 77  2  0
 68 73  1  0
 69 65  1  0
 69 73  1  0
 70 69  1  0
 71 72  1  0
 71 70  1  0
 72 68  1  0
 73 74  2  0
 74 75  1  0
 76 75  2  0
 77 76  1  0
 78 52  1  0
 78 83  1  0
 78 79  1  0
 79 82  1  1
 79 80  1  0
 81 79  1  0
 83 86  1  0
 84 88  1  0
 84 83  1  0
 85 84  2  0
 88 87  1  0
 90 88  1  0
 90 91  1  0
 90 89  1  0
M  ISO  4  11 100  12 100  50 101  51 101
M  END
>  <TORSDO>  (35) 
F 20

>  <SCORE>  (35) 
-13.951

>  <name>  (35) 
34

>  <ligand_id>  (35) 
34

>  <original_smiles>  (35) 
[H]C(C(=O)N1C([H])([H])C([H])([H])C([H])([H])C([H])(n2nc(-c3c([H])c([H])c(Oc4c([H])c([H])c(F)c([H])c4F)c([H])c3[H])c(C(=O)N([H])[H])c2N([H])[H])C1([H])[H])=C([H])c1c([H])c(C([H])=C([H])C(=O)C([H])([H])Oc2c([H])c([H])c3c(c2[H])C([H])([H])N(C(=O)C([H])(N([H])C(=O)C([H])(N([H])C([H])([H])[H])C([H])([H])[H])C(C([H])([H])[H])(C([H])([H])[H])C([H])([H])[H])C([H])(C(=O)N([H])C2([H])c4c([H])c([H])c([H])c([H])c4C([H])([H])C([H])([H])C2([H])[H])C3([H])[H])c([H])c(C([H])([H])[H])c1[H]

>  <smiles>  (35) 
[H]C(C(=O)N1C([H])([H])C([H])([H])C([H])([H])C([H])(n2nc(-c3c([H])c([H])c(Oc4c([H])c([H])c(F)c([H])c4F)c([H])c3[H])c(C(=O)N([H])[H])c2N([H])[H])C1([H])[H])=C([H])c1c([H])c(C([H])=C([H])C(=O)C([H])([H])Oc2c([H])c([H])c3c(c2[H])C([H])([H])N(C(=O)C([H])(N([H])C(=O)C([H])(N([H])C([H])([H])[H])C([H])([H])[H])C(C([H])([H])[H])(C([H])([H])[H])C([H])([H])[H])C([H])(C(=O)N([H])C2([H])c4c([H])c([H])c([H])c([H])c4C([H])([H])C([H])([H])C2([H])[H])C3([H])[H])c([H])c(C([H])([H])[H])c1[H]

$$$$
35:0:0
     RDKit          3D

 92100  0  0  1  0  0  0  0  0999 V2000
  -36.2430  -21.0670   14.8040 C   0  0  0  0  0  3  0  0  0  0  0  0
  -36.9950  -19.8740   14.5160 C   0  0  0  0  0  3  0  0  0  0  0  0
  -35.9060  -18.7800   16.3510 C   0  0  0  0  0  3  0  0  0  0  0  0
  -35.2930  -21.1470   15.8740 C   0  0  0  0  0  0  0  0  0  0  0  0
  -35.1950  -19.9650   16.6750 C   0  0  0  0  0  0  0  0  0  0  0  0
  -36.8230  -18.6850   15.2800 C   0  0  0  0  0  0  0  0  0  0  0  0
  -38.6900  -16.8590   14.9540 C   0  0  0  0  0  0  0  0  0  0  0  0
  -39.9460  -15.2850   13.4900 C   0  0  0  0  0  2  0  0  0  0  0  0
  -39.7230  -15.7270   12.0250 C   0  0  0  0  0  2  0  0  0  0  0  0
  -38.4140  -15.1470   11.4530 C   0  0  0  0  0  2  0  0  0  0  0  0
  -37.2100  -15.3170   12.4150 C   0  0  0  0  0  3  0  0  0  0  0  0
  -37.5860  -14.8770   13.8480 C   0  0  0  0  0  2  0  0  0  0  0  0
  -38.7540  -15.6780   14.2650 N   0  0  0  0  0  0  0  0  0  0  0  0
  -39.7130  -17.4510   15.3270 O   0  0  0  0  0  0  0  0  0  0  0  0
  -37.4320  -17.3670   15.0960 N   0  0  0  0  0  0  0  0  0  0  0  0
  -36.7530  -16.6570   14.8630 H   0  0  0  0  0  0  0  0  0  0  0  0
  -34.7380  -15.1250   11.7290 C   0  0  0  0  0  0  0  0  0  0  0  0
  -34.0210  -14.1050   11.1660 C   0  0  0  0  0  0  0  0  0  0  0  0
  -34.9310  -13.0140   11.0270 C   0  0  0  0  0  0  0  0  0  0  0  0
  -36.0190  -14.6310   11.9150 N   0  0  0  0  0  0  0  0  0  0  0  0
  -36.1150  -13.3300   11.5360 N   0  0  0  0  0  0  0  0  0  0  0  0
  -34.7600  -11.7010   10.3870 C   0  0  0  0  0  0  0  0  0  0  0  0
  -34.8770  -10.5030   11.1250 C   0  0  0  0  0  3  0  0  0  0  0  0
  -34.6910   -9.2540   10.4930 C   0  0  0  0  0  3  0  0  0  0  0  0
  -34.3790   -9.1930    9.1140 C   0  0  0  0  0  0  0  0  0  0  0  0
  -34.2870  -10.3900    8.3810 C   0  0  0  0  0  3  0  0  0  0  0  0
  -34.4750  -11.6310    9.0100 C   0  0  0  0  0  3  0  0  0  0  0  0
  -34.2050   -8.0280    8.4120 O   0  0  0  0  0  0  0  0  0  0  0  0
  -32.9700   -7.6390    7.9600 C   0  0  0  0  0  0  0  0  0  0  0  0
  -32.5710   -7.8290    6.6200 C   0  0  0  0  0  3  0  0  0  0  0  0
  -31.3180   -7.3540    6.1820 C   0  0  0  0  0  3  0  0  0  0  0  0
  -30.4700   -6.6780    7.0790 C   0  0  0  0  0  0  0  0  0  0  0  0
  -30.8690   -6.4810    8.4140 C   0  0  0  0  0  3  0  0  0  0  0  0
  -32.1160   -6.9590    8.8510 C   0  0  0  0  0  0  0  0  0  0  0  0
  -32.5030   -6.7480   10.1330 F   0  0  0  0  0  0  0  0  0  0  0  0
  -29.2710   -6.2130    6.6580 F   0  0  0  0  0  0  0  0  0  0  0  0
  -32.5960  -14.1670   10.6960 C   0  0  0  0  0  0  0  0  0  0  0  0
  -31.6980  -13.4650   11.3780 N   0  0  0  0  0  0  0  0  0  0  0  0
  -32.2620  -14.8800    9.7500 O   0  0  0  0  0  0  0  0  0  0  0  0
  -31.9680  -12.8950   12.1660 H   0  0  0  0  0  0  0  0  0  0  0  0
  -30.7240  -13.5020   11.1130 H   0  0  0  0  0  0  0  0  0  0  0  0
  -34.4170  -16.4340   12.0780 N   0  0  0  0  0  0  0  0  0  0  0  0
  -33.5040  -16.8350   11.8950 H   0  0  0  0  0  0  0  0  0  0  0  0
  -35.0820  -17.1130   12.4300 H   0  0  0  0  0  0  0  0  0  0  0  0
  -34.3470  -19.9290   17.9420 C   0  0  0  0  0  2  0  0  0  0  0  0
  -36.3610  -20.4830   19.4260 C   0  0  0  0  0  2  0  0  0  0  0  0
  -35.0500  -20.5600   19.1350 C   0  0  0  0  0  3  0  0  0  0  0  0
  -34.3520  -22.3880   16.2000 C   0  0  0  0  0  2  0  0  0  0  0  0
  -32.9490  -22.6120   15.4940 C   0  0  0  0  0  2  0  0  0  0  0  0
  -32.6110  -24.0710   14.9050 C   0  0  0  0  0  2  0  0  0  0  0  0
  -31.9580  -24.2940   13.4660 C   0  0  0  0  0  2  0  0  0  0  0  0
  -32.7940  -24.9060   12.4050 O   0  0  0  0  0  0  0  0  0  0  0  0
  -32.6240  -29.0600    6.5030 C   0  0  0  0  0  0  0  0  0  0  0  0
  -32.2440  -25.1720   11.1460 C   0  0  0  0  0  0  0  0  0  0  0  0
  -30.7570  -27.4710    6.7880 C   0  0  0  0  0  3  0  0  0  0  0  0
  -31.0750  -25.6850    8.5910 C   0  0  0  0  0  0  0  0  0  0  0  0
  -33.0660  -26.9620    7.7870 C   0  0  0  0  0  2  0  0  0  0  0  0
  -32.3610  -26.1560    8.8700 C   0  0  0  0  0  0  0  0  0  0  0  0
  -32.9540  -25.8910   10.1390 C   0  0  0  0  0  3  0  0  0  0  0  0
  -30.9620  -24.6900   10.8200 C   0  0  0  0  0  3  0  0  0  0  0  0
  -30.3770  -24.9430    9.5610 C   0  0  0  0  0  3  0  0  0  0  0  0
  -30.4990  -26.0040    7.2270 C   0  0  0  0  0  2  0  0  0  0  0  0
  -32.1770  -27.8850    7.0280 N   0  0  0  0  0  0  0  0  0  0  0  0
  -31.8860  -29.7790    5.8110 O   0  0  0  0  0  0  0  0  0  0  0  0
  -29.7300  -28.3940    7.4870 C   0  0  0  0  0  0  0  0  0  0  0  0
  -28.8130  -28.9830    6.7010 N   0  0  0  0  0  0  0  0  0  0  0  0
  -29.7530  -28.5510    8.7100 O   0  0  0  0  0  0  0  0  0  0  0  0
  -28.8780  -28.8240    5.7040 H   0  0  0  0  0  0  0  0  0  0  0  0
  -26.7780  -31.8170    5.7390 C   0  0  0  0  0  0  0  0  0  0  0  0
  -27.7190  -29.8550    7.1350 C   0  0  0  0  0  3  0  0  0  0  0  0
  -26.3420  -29.1800    6.9270 C   0  0  0  0  0  2  0  0  0  0  0  0
  -25.6920  -29.5360    5.5880 C   0  0  0  0  0  2  0  0  0  0  0  0
  -25.4930  -31.0500    5.4700 C   0  0  0  0  0  2  0  0  0  0  0  0
  -27.8280  -31.2490    6.5090 C   0  0  0  0  0  0  0  0  0  0  0  0
  -29.0180  -31.9880    6.6960 C   0  0  0  0  0  3  0  0  0  0  0  0
  -29.1560  -33.2760    6.1430 C   0  0  0  0  0  3  0  0  0  0  0  0
  -28.1020  -33.8440    5.4070 C   0  0  0  0  0  3  0  0  0  0  0  0
  -26.9190  -33.1140    5.1990 C   0  0  0  0  0  3  0  0  0  0  0  0
  -34.0880  -29.5490    6.7290 C   0  0  0  0  0  3  0  0  0  0  0  0
  -34.5940  -30.0650    5.4500 N   0  0  0  0  0  0  0  0  0  0  0  0
  -35.7880  -29.7610    4.9280 C   0  0  0  0  0  0  0  0  0  0  0  0
  -36.6200  -29.0640    5.5140 O   0  0  0  0  0  0  0  0  0  0  0  0
  -33.9570  -30.6300    4.9100 H   0  0  0  0  0  0  0  0  0  0  0  0
  -36.3820  -29.1520    2.5690 C   0  0  0  0  0  1  0  0  0  0  0  0
  -36.1110  -30.3190    3.5300 C   0  0  0  0  0  3  0  0  0  0  0  0
  -37.0100  -32.4930    4.2360 C   0  0  0  0  0  1  0  0  0  0  0  0
  -37.2630  -31.2450    3.5190 N   0  0  0  0  0  0  0  0  0  0  0  0
  -37.5320  -31.4750    2.5690 H   0  0  0  0  0  0  0  0  0  0  0  0
  -34.2080  -30.6520    7.8540 C   0  0  1  0  0  0  0  0  0  0  0  0
  -34.1110  -32.0990    7.3200 C   0  0  0  0  0  1  0  0  0  0  0  0
  -33.1020  -30.4650    8.9220 C   0  0  0  0  0  1  0  0  0  0  0  0
  -35.5650  -30.5110    8.5780 C   0  0  0  0  0  1  0  0  0  0  0  0
  1  4  1  0
  2  1  2  0
  2  6  1  0
  3  5  1  0
  4 48  1  0
  4  5  2  0
  5 45  1  0
  6  3  2  0
  7 15  1  0
  7 14  2  0
  8 13  1  0
  9  8  1  0
 10  9  1  0
 11 10  1  0
 11 12  1  0
 12 13  1  0
 13  7  1  0
 15  6  1  0
 16 15  1  0
 17 20  1  0
 17 42  1  0
 18 17  2  0
 19 18  1  0
 19 21  2  0
 20 11  1  0
 21 20  1  0
 22 19  1  0
 22 23  1  0
 24 23  2  0
 25 24  1  0
 26 27  1  0
 26 25  2  0
 27 22  2  0
 28 25  1  0
 29 28  1  0
 29 34  1  0
 30 29  2  0
 31 30  1  0
 31 32  2  0
 32 33  1  0
 33 34  2  0
 34 35  1  0
 36 32  1  0
 37 18  1  0
 37 38  1  0
 38 40  1  0
 39 37  2  0
 41 38  1  0
 42 44  1  0
 43 42  1  0
 45 47  1  0
 47 46  2  0
 49 48  1  0
 50 49  1  0
 51 50  1  0
 52 51  1  0
 53 63  1  0
 54 52  1  0
 55 63  1  0
 55 62  1  0
 55 65  1  0
 56 58  2  0
 56 61  1  0
 57 58  1  0
 58 59  1  0
 59 54  2  0
 60 54  1  0
 61 60  2  0
 62 56  1  0
 63 57  1  0
 64 53  2  0
 65 67  2  0
 66 65  1  0
 68 66  1  0
 69 74  1  0
 70 66  1  0
 71 70  1  0
 72 71  1  0
 73 72  1  0
 73 69  1  0
 74 75  2  0
 74 70  1  0
 76 75  1  0
 77 76  2  0
 78 77  1  0
 78 69  2  0
 79 53  1  0
 79 89  1  0
 80 79  1  0
 81 80  1  0
 81 82  2  0
 83 80  1  0
 85 84  1  0
 85 81  1  0
 87 85  1  0
 87 86  1  0
 88 87  1  0
 89 92  1  1
 89 91  1  0
 90 89  1  0
M  ISO  4   7 100  15 100  51 101  52 101
M  END
>  <TORSDO>  (36) 
F 22

>  <SCORE>  (36) 
-3.296

>  <name>  (36) 
35

>  <ligand_id>  (36) 
35

>  <original_smiles>  (36) 
[H]C([H])=C([H])C([H])([H])c1c([H])c(N([H])C(=O)N2C([H])([H])C([H])([H])C([H])([H])C([H])(n3nc(-c4c([H])c([H])c(Oc5c([H])c([H])c(F)c([H])c5F)c([H])c4[H])c(C(=O)N([H])[H])c3N([H])[H])C2([H])[H])c([H])c([H])c1C([H])([H])C([H])([H])C([H])([H])C([H])([H])Oc1c([H])c([H])c2c(c1[H])C([H])([H])N(C(=O)C([H])(N([H])C(=O)C([H])(N([H])C([H])([H])[H])C([H])([H])[H])C(C([H])([H])[H])(C([H])([H])[H])C([H])([H])[H])C([H])(C(=O)N([H])C1([H])c3c([H])c([H])c([H])c([H])c3C([H])([H])C([H])([H])C1([H])[H])C2([H])[H]

>  <smiles>  (36) 
[H]C([H])=C([H])C([H])([H])c1c([H])c(N([H])C(=O)N2C([H])([H])C([H])([H])C([H])([H])C([H])(n3nc(-c4c([H])c([H])c(Oc5c([H])c([H])c(F)c([H])c5F)c([H])c4[H])c(C(=O)N([H])[H])c3N([H])[H])C2([H])[H])c([H])c([H])c1C([H])([H])C([H])([H])C([H])([H])C([H])([H])Oc1c([H])c([H])c2c(c1[H])C([H])([H])N(C(=O)C([H])(N([H])C(=O)C([H])(N([H])C([H])([H])[H])C([H])([H])[H])C(C([H])([H])[H])(C([H])([H])[H])C([H])([H])[H])C([H])(C(=O)N([H])C1([H])c3c([H])c([H])c([H])c([H])c3C([H])([H])C([H])([H])C1([H])[H])C2([H])[H]

$$$$
36:0:0
     RDKit          3D

 91 99  0  0  1  0  0  0  0  0999 V2000
  -30.2570  -21.9390   19.6440 C   0  0  0  0  0  3  0  0  0  0  0  0
  -29.3230  -22.7340   20.2380 C   0  0  0  0  0  3  0  0  0  0  0  0
  -29.9840  -19.4040   20.3830 C   0  0  0  0  0  3  0  0  0  0  0  0
  -31.1580  -20.0560   18.3650 C   0  0  0  0  0  3  0  0  0  0  0  0
  -30.9780  -17.6940   18.9540 C   0  0  0  0  0  3  0  0  0  0  0  0
  -30.4400  -20.4480   19.5150 C   0  0  0  0  0  0  0  0  0  0  0  0
  -30.2710  -18.0140   20.1320 C   0  0  0  0  0  0  0  0  0  0  0  0
  -31.4240  -18.7040   18.0810 C   0  0  0  0  0  0  0  0  0  0  0  0
  -32.2000  -18.3300   16.8340 C   0  0  0  0  0  1  0  0  0  0  0  0
  -29.8340  -16.9550   21.1100 C   0  0  0  0  0  3  0  0  0  0  0  0
  -29.9590  -15.5940   21.2630 C   0  0  0  0  0  3  0  0  0  0  0  0
  -30.6560  -14.5620   20.4610 C   0  0  0  0  0  0  0  0  0  0  0  0
  -30.3780  -12.3970   19.2610 C   0  0  0  0  0  2  0  0  0  0  0  0
  -29.4220  -12.5920   18.0640 C   0  0  0  0  0  2  0  0  0  0  0  0
  -27.9490  -12.4420   18.4950 C   0  0  0  0  0  2  0  0  0  0  0  0
  -27.6220  -13.2550   19.7750 C   0  0  0  0  0  3  0  0  0  0  0  0
  -28.6820  -13.0000   20.8660 C   0  0  0  0  0  2  0  0  0  0  0  0
  -29.9980  -13.3670   20.3090 N   0  0  0  0  0  0  0  0  0  0  0  0
  -31.7660  -14.7370   19.9470 O   0  0  0  0  0  0  0  0  0  0  0  0
  -25.2290  -13.8740   20.4830 C   0  0  0  0  0  0  0  0  0  0  0  0
  -24.1580  -13.1080   20.8580 C   0  0  0  0  0  0  0  0  0  0  0  0
  -24.6140  -11.7550   20.8370 C   0  0  0  0  0  0  0  0  0  0  0  0
  -26.2700  -12.9870   20.2560 N   0  0  0  0  0  0  0  0  0  0  0  0
  -25.9040  -11.7080   20.5260 N   0  0  0  0  0  0  0  0  0  0  0  0
  -23.8840  -10.4980   21.0380 C   0  0  0  0  0  0  0  0  0  0  0  0
  -24.3290   -9.5250   21.9610 C   0  0  0  0  0  3  0  0  0  0  0  0
  -23.6000   -8.3310   22.1500 C   0  0  0  0  0  3  0  0  0  0  0  0
  -22.4130   -8.1010   21.4140 C   0  0  0  0  0  0  0  0  0  0  0  0
  -21.9880   -9.0620   20.4800 C   0  0  0  0  0  3  0  0  0  0  0  0
  -22.7170  -10.2470   20.2900 C   0  0  0  0  0  3  0  0  0  0  0  0
  -21.6560   -6.9590   21.5110 O   0  0  0  0  0  0  0  0  0  0  0  0
  -21.6370   -6.2020   22.6560 C   0  0  0  0  0  0  0  0  0  0  0  0
  -21.2620   -6.7470   23.9030 C   0  0  0  0  0  3  0  0  0  0  0  0
  -21.1900   -5.9190   25.0410 C   0  0  0  0  0  3  0  0  0  0  0  0
  -21.4800   -4.5450   24.9320 C   0  0  0  0  0  0  0  0  0  0  0  0
  -21.8480   -3.9990   23.6900 C   0  0  0  0  0  3  0  0  0  0  0  0
  -21.9230   -4.8250   22.5540 C   0  0  0  0  0  0  0  0  0  0  0  0
  -22.2580   -4.2890   21.3550 F   0  0  0  0  0  0  0  0  0  0  0  0
  -21.4040   -3.7480   26.0230 F   0  0  0  0  0  0  0  0  0  0  0  0
  -22.7630  -13.5940   21.1310 C   0  0  0  0  0  0  0  0  0  0  0  0
  -22.0360  -12.9070   22.0040 N   0  0  0  0  0  0  0  0  0  0  0  0
  -22.3280  -14.6180   20.6050 O   0  0  0  0  0  0  0  0  0  0  0  0
  -22.4030  -12.0820   22.4520 H   0  0  0  0  0  0  0  0  0  0  0  0
  -21.1000  -13.2130   22.2290 H   0  0  0  0  0  0  0  0  0  0  0  0
  -25.3990  -15.2430   20.3000 N   0  0  0  0  0  0  0  0  0  0  0  0
  -24.6370  -15.9030   20.4150 H   0  0  0  0  0  0  0  0  0  0  0  0
  -26.2620  -15.6790   19.9970 H   0  0  0  0  0  0  0  0  0  0  0  0
  -29.4210  -24.2430   20.1630 C   0  0  0  0  0  0  0  0  0  0  0  0
  -30.4740  -24.8090   19.8480 O   0  0  0  0  0  0  0  0  0  0  0  0
  -28.1780  -25.1330   20.4720 C   0  0  0  0  0  2  0  0  0  0  0  0
  -28.3750  -26.5630   20.2070 O   0  0  0  0  0  0  0  0  0  0  0  0
  -24.6060  -31.8780   23.2370 C   0  0  0  0  0  0  0  0  0  0  0  0
  -27.2320  -27.3590   20.1870 C   0  0  0  0  0  0  0  0  0  0  0  0
  -23.4000  -30.4750   21.5960 C   0  0  0  0  0  3  0  0  0  0  0  0
  -24.8520  -28.9270   20.1790 C   0  0  0  0  0  0  0  0  0  0  0  0
  -25.9340  -30.8100   21.4090 C   0  0  0  0  0  2  0  0  0  0  0  0
  -26.0180  -29.4330   20.7710 C   0  0  0  0  0  0  0  0  0  0  0  0
  -27.2100  -28.6580   20.7670 C   0  0  0  0  0  3  0  0  0  0  0  0
  -26.0450  -26.8950   19.5710 C   0  0  0  0  0  3  0  0  0  0  0  0
  -24.8660  -27.6630   19.5700 C   0  0  0  0  0  3  0  0  0  0  0  0
  -23.6140  -29.7960   20.2180 C   0  0  0  0  0  2  0  0  0  0  0  0
  -24.6640  -31.0700   22.1380 N   0  0  0  0  0  0  0  0  0  0  0  0
  -23.5220  -32.1540   23.7730 O   0  0  0  0  0  0  0  0  0  0  0  0
  -22.7390  -29.4590   22.5580 C   0  0  0  0  0  0  0  0  0  0  0  0
  -21.4140  -29.2760   22.4250 N   0  0  0  0  0  0  0  0  0  0  0  0
  -23.4170  -28.8400   23.3830 O   0  0  0  0  0  0  0  0  0  0  0  0
  -20.9270  -29.8280   21.7330 H   0  0  0  0  0  0  0  0  0  0  0  0
  -18.0450  -28.0560   22.8930 C   0  0  0  0  0  0  0  0  0  0  0  0
  -20.5960  -28.3400   23.1960 C   0  0  0  0  0  3  0  0  0  0  0  0
  -20.7210  -26.9030   22.6400 C   0  0  0  0  0  2  0  0  0  0  0  0
  -19.6360  -26.5570   21.6150 C   0  0  0  0  0  2  0  0  0  0  0  0
  -18.2430  -26.6990   22.2370 C   0  0  0  0  0  2  0  0  0  0  0  0
  -19.1510  -28.8330   23.3290 C   0  0  0  0  0  0  0  0  0  0  0  0
  -18.9140  -30.1010   23.9010 C   0  0  0  0  0  3  0  0  0  0  0  0
  -17.6030  -30.5920   24.0450 C   0  0  0  0  0  3  0  0  0  0  0  0
  -16.5110  -29.8120   23.6260 C   0  0  0  0  0  3  0  0  0  0  0  0
  -16.7330  -28.5470   23.0540 C   0  0  0  0  0  3  0  0  0  0  0  0
  -25.8900  -32.5090   23.8560 C   0  0  0  0  0  3  0  0  0  0  0  0
  -26.4130  -31.7340   25.1280 C   0  0  1  0  0  0  0  0  0  0  0  0
  -25.3270  -31.4930   26.2010 C   0  0  0  0  0  1  0  0  0  0  0  0
  -26.9950  -30.3570   24.7300 C   0  0  0  0  0  1  0  0  0  0  0  0
  -27.5660  -32.5270   25.7880 C   0  0  0  0  0  1  0  0  0  0  0  0
  -25.5820  -33.9060   24.1900 N   0  0  0  0  0  0  0  0  0  0  0  0
  -25.9100  -34.9610   23.4300 C   0  0  0  0  0  0  0  0  0  0  0  0
  -26.5730  -34.8590   22.3950 O   0  0  0  0  0  0  0  0  0  0  0  0
  -24.9960  -34.0620   24.9970 H   0  0  0  0  0  0  0  0  0  0  0  0
  -24.1770  -36.7520   23.0880 C   0  0  0  0  0  1  0  0  0  0  0  0
  -25.4230  -36.3480   23.8920 C   0  0  0  0  0  3  0  0  0  0  0  0
  -27.5620  -37.2340   24.7120 C   0  0  0  0  0  1  0  0  0  0  0  0
  -26.4530  -37.4010   23.7760 N   0  0  0  0  0  0  0  0  0  0  0  0
  -26.0460  -38.3200   23.9290 H   0  0  0  0  0  0  0  0  0  0  0  0
  1  2  2  0
  4  6  1  0
  5  7  2  0
  6  1  1  0
  6  3  2  0
  7  3  1  0
  7 10  1  0
  8  4  2  0
  8  5  1  0
  9  8  1  0
 10 11  2  0
 12 11  1  0
 13 18  1  0
 14 15  1  0
 14 13  1  0
 16 15  1  0
 16 23  1  0
 16 17  1  0
 18 12  1  0
 18 17  1  0
 19 12  2  0
 20 21  2  0
 21 40  1  0
 22 21  1  0
 22 25  1  0
 23 20  1  0
 23 24  1  0
 24 22  2  0
 25 26  1  0
 26 27  2  0
 28 31  1  0
 28 27  1  0
 29 28  2  0
 30 29  1  0
 30 25  2  0
 31 32  1  0
 32 33  1  0
 33 34  2  0
 35 34  1  0
 35 39  1  0
 36 35  2  0
 37 32  2  0
 37 36  1  0
 38 37  1  0
 40 41  1  0
 41 44  1  0
 41 43  1  0
 42 40  2  0
 45 46  1  0
 45 20  1  0
 47 45  1  0
 48  2  1  0
 48 50  1  0
 49 48  2  0
 51 50  1  0
 52 63  2  0
 53 51  1  0
 53 58  1  0
 54 62  1  0
 54 64  1  0
 55 61  1  0
 55 57  1  0
 56 62  1  0
 57 56  1  0
 58 57  2  0
 59 53  2  0
 60 59  1  0
 60 55  2  0
 61 54  1  0
 62 52  1  0
 64 66  2  0
 65 64  1  0
 67 65  1  0
 68 77  2  0
 68 73  1  0
 69 65  1  0
 69 73  1  0
 70 69  1  0
 71 72  1  0
 71 70  1  0
 72 68  1  0
 73 74  2  0
 74 75  1  0
 76 75  2  0
 77 76  1  0
 78 52  1  0
 78 83  1  0
 78 79  1  0
 79 82  1  1
 79 80  1  0
 81 79  1  0
 83 86  1  0
 84 88  1  0
 84 83  1  0
 85 84  2  0
 88 87  1  0
 90 88  1  0
 90 91  1  0
 90 89  1  0
M  ISO  4  11 100  12 100  50 101  51 101
M  END
>  <TORSDO>  (37) 
F 20

>  <SCORE>  (37) 
-13.951

>  <name>  (37) 
36

>  <ligand_id>  (37) 
36

>  <original_smiles>  (37) 
[H]C(C(=O)N1C([H])([H])C([H])([H])C([H])([H])C([H])(n2nc(-c3c([H])c([H])c(Oc4c([H])c([H])c(F)c([H])c4F)c([H])c3[H])c(C(=O)N([H])[H])c2N([H])[H])C1([H])[H])=C([H])c1c([H])c(C([H])=C([H])C(=O)C([H])([H])Oc2c([H])c([H])c3c(c2[H])C([H])([H])N(C(=O)C([H])(N([H])C(=O)C([H])(N([H])C([H])([H])[H])C([H])([H])[H])C(C([H])([H])[H])(C([H])([H])[H])C([H])([H])[H])C([H])(C(=O)N([H])C2([H])c4c([H])c([H])c([H])c([H])c4C([H])([H])C([H])([H])C2([H])[H])C3([H])[H])c([H])c(C([H])([H])[H])c1[H]

>  <smiles>  (37) 
[H]C(C(=O)N1C([H])([H])C([H])([H])C([H])([H])C([H])(n2nc(-c3c([H])c([H])c(Oc4c([H])c([H])c(F)c([H])c4F)c([H])c3[H])c(C(=O)N([H])[H])c2N([H])[H])C1([H])[H])=C([H])c1c([H])c(C([H])=C([H])C(=O)C([H])([H])Oc2c([H])c([H])c3c(c2[H])C([H])([H])N(C(=O)C([H])(N([H])C(=O)C([H])(N([H])C([H])([H])[H])C([H])([H])[H])C(C([H])([H])[H])(C([H])([H])[H])C([H])([H])[H])C([H])(C(=O)N([H])C2([H])c4c([H])c([H])c([H])c([H])c4C([H])([H])C([H])([H])C2([H])[H])C3([H])[H])c([H])c(C([H])([H])[H])c1[H]

$$$$
37:0:0
     RDKit          3D

 90 99  0  0  1  0  0  0  0  0999 V2000
  -28.4220  -19.1790   20.8150 C   0  0  0  0  0  3  0  0  0  0  0  0
  -28.2940  -20.5980   20.7700 C   0  0  0  0  0  3  0  0  0  0  0  0
  -30.7710  -19.3090   20.2490 C   0  0  0  0  0  2  0  0  0  0  0  0
  -29.6530  -18.4940   20.5870 C   0  0  0  0  0  0  0  0  0  0  0  0
  -29.4300  -21.3880   20.4980 C   0  0  0  0  0  0  0  0  0  0  0  0
  -30.6360  -20.7290   20.2320 C   0  0  0  0  0  0  0  0  0  0  0  0
  -31.7590  -21.7250   20.0850 C   0  0  0  0  0  2  0  0  0  0  0  0
  -31.0760  -23.1170   20.1790 C   0  0  0  0  0  2  0  0  0  0  0  0
  -29.6190  -22.9190   20.6800 C   0  0  0  0  0  3  0  0  0  0  0  0
  -29.6910  -17.0130   20.9170 C   0  0  0  0  0  0  0  0  0  0  0  0
  -29.9280  -15.6540   20.9780 C   0  0  0  0  0  3  0  0  0  0  0  0
  -30.6450  -14.6580   20.1260 C   0  0  0  0  0  0  0  0  0  0  0  0
  -30.3760  -12.4850   18.9240 C   0  0  0  0  0  2  0  0  0  0  0  0
  -29.3520  -12.6650   17.7790 C   0  0  0  0  0  2  0  0  0  0  0  0
  -27.9030  -12.4960   18.2830 C   0  0  0  0  0  2  0  0  0  0  0  0
  -27.6330  -13.2990   19.5830 C   0  0  0  0  0  3  0  0  0  0  0  0
  -28.7480  -13.0300   20.6120 C   0  0  0  0  0  2  0  0  0  0  0  0
  -30.0290  -13.4340   20.0020 N   0  0  0  0  0  0  0  0  0  0  0  0
  -31.7090  -14.8900   19.5420 O   0  0  0  0  0  0  0  0  0  0  0  0
  -25.2840  -13.9020   20.4440 C   0  0  0  0  0  0  0  0  0  0  0  0
  -24.2340  -13.1290   20.8570 C   0  0  0  0  0  0  0  0  0  0  0  0
  -24.6830  -11.7750   20.7670 C   0  0  0  0  0  0  0  0  0  0  0  0
  -26.3080  -13.0200   20.1310 N   0  0  0  0  0  0  0  0  0  0  0  0
  -25.9510  -11.7350   20.3810 N   0  0  0  0  0  0  0  0  0  0  0  0
  -23.9600  -10.5130   20.9720 C   0  0  0  0  0  0  0  0  0  0  0  0
  -24.4190   -9.5400   21.8860 C   0  0  0  0  0  3  0  0  0  0  0  0
  -23.6970   -8.3420   22.0770 C   0  0  0  0  0  3  0  0  0  0  0  0
  -22.5020   -8.1100   21.3550 C   0  0  0  0  0  0  0  0  0  0  0  0
  -22.0620   -9.0730   20.4310 C   0  0  0  0  0  3  0  0  0  0  0  0
  -22.7850  -10.2630   20.2370 C   0  0  0  0  0  3  0  0  0  0  0  0
  -21.7490   -6.9650   21.4570 O   0  0  0  0  0  0  0  0  0  0  0  0
  -21.7110   -6.2300   22.6140 C   0  0  0  0  0  0  0  0  0  0  0  0
  -21.2680   -6.7850   23.8350 C   0  0  0  0  0  3  0  0  0  0  0  0
  -21.1780   -5.9740   24.9850 C   0  0  0  0  0  3  0  0  0  0  0  0
  -21.5210   -4.6100   24.9150 C   0  0  0  0  0  0  0  0  0  0  0  0
  -21.9560   -4.0550   23.6990 C   0  0  0  0  0  3  0  0  0  0  0  0
  -22.0480   -4.8630   22.5510 C   0  0  0  0  0  0  0  0  0  0  0  0
  -22.4480   -4.3180   21.3760 F   0  0  0  0  0  0  0  0  0  0  0  0
  -21.4270   -3.8300   26.0160 F   0  0  0  0  0  0  0  0  0  0  0  0
  -22.8580  -13.6080   21.2230 C   0  0  0  0  0  0  0  0  0  0  0  0
  -22.1760  -12.8920   22.1100 N   0  0  0  0  0  0  0  0  0  0  0  0
  -22.4000  -14.6500   20.7590 O   0  0  0  0  0  0  0  0  0  0  0  0
  -22.5610  -12.0470   22.5070 H   0  0  0  0  0  0  0  0  0  0  0  0
  -21.2560  -13.1930   22.3980 H   0  0  0  0  0  0  0  0  0  0  0  0
  -25.4500  -15.2760   20.2910 N   0  0  0  0  0  0  0  0  0  0  0  0
  -24.7020  -15.9370   20.4680 H   0  0  0  0  0  0  0  0  0  0  0  0
  -26.2970  -15.7170   19.9530 H   0  0  0  0  0  0  0  0  0  0  0  0
  -28.6130  -23.9940   20.0820 C   0  0  0  0  0  2  0  0  0  0  0  0
  -28.5470  -25.3760   20.8640 C   0  0  0  0  0  2  0  0  0  0  0  0
  -28.5200  -26.6480   20.1380 O   0  0  0  0  0  0  0  0  0  0  0  0
  -24.6180  -31.8640   23.2300 C   0  0  0  0  0  0  0  0  0  0  0  0
  -27.3580  -27.4110   20.1790 C   0  0  0  0  0  0  0  0  0  0  0  0
  -23.4580  -30.4600   21.5590 C   0  0  0  0  0  3  0  0  0  0  0  0
  -24.9550  -28.9380   20.1510 C   0  0  0  0  0  0  0  0  0  0  0  0
  -25.9880  -30.8340   21.4080 C   0  0  0  0  0  2  0  0  0  0  0  0
  -26.1020  -29.4600   20.7620 C   0  0  0  0  0  0  0  0  0  0  0  0
  -27.3100  -28.7100   20.7620 C   0  0  0  0  0  3  0  0  0  0  0  0
  -26.1900  -26.9150   19.5660 C   0  0  0  0  0  3  0  0  0  0  0  0
  -24.9970  -27.6680   19.5480 C   0  0  0  0  0  3  0  0  0  0  0  0
  -23.7020  -29.7900   20.1790 C   0  0  0  0  0  2  0  0  0  0  0  0
  -24.7060  -31.0690   22.1240 N   0  0  0  0  0  0  0  0  0  0  0  0
  -23.5240  -32.1200   23.7530 O   0  0  0  0  0  0  0  0  0  0  0  0
  -22.7980  -29.4280   22.5020 C   0  0  0  0  0  0  0  0  0  0  0  0
  -21.4790  -29.2290   22.3490 N   0  0  0  0  0  0  0  0  0  0  0  0
  -23.4740  -28.8090   23.3290 O   0  0  0  0  0  0  0  0  0  0  0  0
  -20.9950  -29.7810   21.6540 H   0  0  0  0  0  0  0  0  0  0  0  0
  -18.1130  -27.9790   22.7770 C   0  0  0  0  0  0  0  0  0  0  0  0
  -20.6610  -28.2730   23.0970 C   0  0  0  0  0  3  0  0  0  0  0  0
  -20.7950  -26.8480   22.5130 C   0  0  0  0  0  2  0  0  0  0  0  0
  -19.7170  -26.5180   21.4750 C   0  0  0  0  0  2  0  0  0  0  0  0
  -18.3220  -26.6380   22.0960 C   0  0  0  0  0  2  0  0  0  0  0  0
  -19.2120  -28.7550   23.2330 C   0  0  0  0  0  0  0  0  0  0  0  0
  -18.9630  -30.0100   23.8290 C   0  0  0  0  0  3  0  0  0  0  0  0
  -17.6490  -30.4920   23.9730 C   0  0  0  0  0  3  0  0  0  0  0  0
  -16.5640  -29.7140   23.5340 C   0  0  0  0  0  3  0  0  0  0  0  0
  -16.7970  -28.4590   22.9420 C   0  0  0  0  0  3  0  0  0  0  0  0
  -25.8850  -32.5070   23.8760 C   0  0  0  0  0  3  0  0  0  0  0  0
  -26.3750  -31.7480   25.1710 C   0  0  1  0  0  0  0  0  0  0  0  0
  -25.2580  -31.5100   26.2140 C   0  0  0  0  0  1  0  0  0  0  0  0
  -26.9760  -30.3720   24.8010 C   0  0  0  0  0  1  0  0  0  0  0  0
  -27.5050  -32.5540   25.8550 C   0  0  0  0  0  1  0  0  0  0  0  0
  -25.5620  -33.9060   24.1890 N   0  0  0  0  0  0  0  0  0  0  0  0
  -25.9050  -34.9550   23.4290 C   0  0  0  0  0  0  0  0  0  0  0  0
  -26.5980  -34.8460   22.4140 O   0  0  0  0  0  0  0  0  0  0  0  0
  -24.9480  -34.0650   24.9750 H   0  0  0  0  0  0  0  0  0  0  0  0
  -24.1830  -36.7400   23.0160 C   0  0  0  0  0  1  0  0  0  0  0  0
  -25.4020  -36.3440   23.8640 C   0  0  0  0  0  3  0  0  0  0  0  0
  -27.5070  -37.2450   24.7540 C   0  0  0  0  0  1  0  0  0  0  0  0
  -26.4350  -37.3990   23.7720 N   0  0  0  0  0  0  0  0  0  0  0  0
  -26.0220  -38.3200   23.8960 H   0  0  0  0  0  0  0  0  0  0  0  0
  2  1  2  0
  3  4  1  0
  4  1  1  0
  4 10  2  0
  5  9  1  0
  5  2  1  0
  6  3  1  0
  6  5  2  0
  7  8  1  0
  7  6  1  0
  8  9  1  0
  9 48  1  0
 10 11  2  0
 12 11  1  0
 13 18  1  0
 14 15  1  0
 14 13  1  0
 16 15  1  0
 16 23  1  0
 16 17  1  0
 18 12  1  0
 18 17  1  0
 19 12  2  0
 20 21  2  0
 21 40  1  0
 22 21  1  0
 22 25  1  0
 23 24  1  0
 23 20  1  0
 24 22  2  0
 25 26  1  0
 26 27  2  0
 28 31  1  0
 28 27  1  0
 29 28  2  0
 30 29  1  0
 30 25  2  0
 31 32  1  0
 32 33  1  0
 33 34  2  0
 35 34  1  0
 35 39  1  0
 36 35  2  0
 37 32  2  0
 37 36  1  0
 38 37  1  0
 40 41  1  0
 41 44  1  0
 41 43  1  0
 42 40  2  0
 45 20  1  0
 45 46  1  0
 47 45  1  0
 48 49  1  0
 50 52  1  0
 50 49  1  0
 51 62  2  0
 52 57  1  0
 53 61  1  0
 53 63  1  0
 54 60  1  0
 54 56  1  0
 55 61  1  0
 56 57  2  0
 56 55  1  0
 58 52  2  0
 59 58  1  0
 59 54  2  0
 60 53  1  0
 61 51  1  0
 63 65  2  0
 64 63  1  0
 66 64  1  0
 67 76  2  0
 67 72  1  0
 68 64  1  0
 68 72  1  0
 69 68  1  0
 70 71  1  0
 70 69  1  0
 71 67  1  0
 72 73  2  0
 73 74  1  0
 75 74  2  0
 76 75  1  0
 77 51  1  0
 77 82  1  0
 77 78  1  0
 78 81  1  1
 78 79  1  0
 80 78  1  0
 82 85  1  0
 83 87  1  0
 83 82  1  0
 84 83  2  0
 87 86  1  0
 89 87  1  0
 89 90  1  0
 89 88  1  0
M  ISO  4  11 100  12 100  49 101  50 101
M  END
>  <TORSDO>  (38) 
F 19

>  <SCORE>  (38) 
-14.118

>  <name>  (38) 
37

>  <ligand_id>  (38) 
37

>  <original_smiles>  (38) 
[H]C(C(=O)N1C([H])([H])C([H])([H])C([H])([H])C([H])(n2nc(-c3c([H])c([H])c(Oc4c([H])c([H])c(F)c([H])c4F)c([H])c3[H])c(C(=O)N([H])[H])c2N([H])[H])C1([H])[H])=C([H])c1c([H])c([H])c2c(c1[H])C([H])([H])C([H])([H])C2([H])C([H])([H])C([H])([H])Oc1c([H])c([H])c2c(c1[H])C([H])([H])N(C(=O)C([H])(N([H])C(=O)C([H])(N([H])C([H])([H])[H])C([H])([H])[H])C(C([H])([H])[H])(C([H])([H])[H])C([H])([H])[H])C([H])(C(=O)N([H])C1([H])c3c([H])c([H])c([H])c([H])c3C([H])([H])C([H])([H])C1([H])[H])C2([H])[H]

>  <smiles>  (38) 
[H]C(C(=O)N1C([H])([H])C([H])([H])C([H])([H])C([H])(n2nc(-c3c([H])c([H])c(Oc4c([H])c([H])c(F)c([H])c4F)c([H])c3[H])c(C(=O)N([H])[H])c2N([H])[H])C1([H])[H])=C([H])c1c([H])c([H])c2c(c1[H])C([H])([H])C([H])([H])C2([H])C([H])([H])C([H])([H])Oc1c([H])c([H])c2c(c1[H])C([H])([H])N(C(=O)C([H])(N([H])C(=O)C([H])(N([H])C([H])([H])[H])C([H])([H])[H])C(C([H])([H])[H])(C([H])([H])[H])C([H])([H])[H])C([H])(C(=O)N([H])C1([H])c3c([H])c([H])c([H])c([H])c3C([H])([H])C([H])([H])C1([H])[H])C2([H])[H]

$$$$
38:0:0
     RDKit          3D

 91 99  0  0  1  0  0  0  0  0999 V2000
  -28.9540  -21.6150   20.1040 C   0  0  0  0  0  0  0  0  0  0  0  0
  -27.2930  -21.6960   19.9170 S   0  0  0  0  0  0  0  0  0  0  0  0
  -30.6700  -18.2500   19.5860 C   0  0  0  0  0  3  0  0  0  0  0  0
  -30.3930  -19.6300   19.2280 C   0  0  0  0  0  0  0  0  0  0  0  0
  -30.1500  -17.8710   20.7980 C   0  0  0  0  0  0  0  0  0  0  0  0
  -29.5990  -20.2970   20.1490 C   0  0  0  0  0  0  0  0  0  0  0  0
  -29.2860  -19.2220   21.5060 S   0  0  0  0  0  0  0  0  0  0  0  0
  -30.1640  -16.6250   21.5410 C   0  0  0  0  0  3  0  0  0  0  0  0
  -30.4340  -15.2940   21.3990 C   0  0  0  0  0  3  0  0  0  0  0  0
  -30.8860  -14.5220   20.2360 C   0  0  0  0  0  0  0  0  0  0  0  0
  -30.5020  -12.4470   18.9050 C   0  0  0  0  0  2  0  0  0  0  0  0
  -29.4850  -12.6680   17.7680 C   0  0  0  0  0  2  0  0  0  0  0  0
  -28.0390  -12.5110   18.2730 C   0  0  0  0  0  2  0  0  0  0  0  0
  -27.7780  -13.3080   19.5750 C   0  0  0  0  0  3  0  0  0  0  0  0
  -28.8780  -13.0180   20.6160 C   0  0  0  0  0  2  0  0  0  0  0  0
  -30.1820  -13.3660   20.0140 N   0  0  0  0  0  0  0  0  0  0  0  0
  -31.8790  -14.8190   19.5670 O   0  0  0  0  0  0  0  0  0  0  0  0
  -25.4170  -13.9380   20.3880 C   0  0  0  0  0  0  0  0  0  0  0  0
  -24.3560  -13.1730   20.7900 C   0  0  0  0  0  0  0  0  0  0  0  0
  -24.8000  -11.8170   20.7260 C   0  0  0  0  0  0  0  0  0  0  0  0
  -26.4420  -13.0470   20.1070 N   0  0  0  0  0  0  0  0  0  0  0  0
  -26.0740  -11.7670   20.3650 N   0  0  0  0  0  0  0  0  0  0  0  0
  -24.0690  -10.5600   20.9320 C   0  0  0  0  0  0  0  0  0  0  0  0
  -24.5030   -9.5970   21.8690 C   0  0  0  0  0  3  0  0  0  0  0  0
  -23.7750   -8.4030   22.0600 C   0  0  0  0  0  3  0  0  0  0  0  0
  -22.5970   -8.1650   21.3130 C   0  0  0  0  0  0  0  0  0  0  0  0
  -22.1800   -9.1160   20.3660 C   0  0  0  0  0  3  0  0  0  0  0  0
  -22.9100  -10.3020   20.1740 C   0  0  0  0  0  3  0  0  0  0  0  0
  -21.8410   -7.0220   21.4110 O   0  0  0  0  0  0  0  0  0  0  0  0
  -21.7560   -6.3140   22.5830 C   0  0  0  0  0  0  0  0  0  0  0  0
  -21.3060   -6.9090   23.7800 C   0  0  0  0  0  3  0  0  0  0  0  0
  -21.1660   -6.1290   24.9450 C   0  0  0  0  0  3  0  0  0  0  0  0
  -21.4680   -4.7550   24.9150 C   0  0  0  0  0  0  0  0  0  0  0  0
  -21.9090   -4.1580   23.7210 C   0  0  0  0  0  3  0  0  0  0  0  0
  -22.0480   -4.9350   22.5570 C   0  0  0  0  0  0  0  0  0  0  0  0
  -22.4540   -4.3510   21.4050 F   0  0  0  0  0  0  0  0  0  0  0  0
  -21.3270   -4.0040   26.0310 F   0  0  0  0  0  0  0  0  0  0  0  0
  -22.9760  -13.6600   21.1260 C   0  0  0  0  0  0  0  0  0  0  0  0
  -22.2820  -12.9660   22.0210 N   0  0  0  0  0  0  0  0  0  0  0  0
  -22.5240  -14.6920   20.6310 O   0  0  0  0  0  0  0  0  0  0  0  0
  -22.6610  -12.1280   22.4360 H   0  0  0  0  0  0  0  0  0  0  0  0
  -21.3590  -13.2770   22.2930 H   0  0  0  0  0  0  0  0  0  0  0  0
  -25.5950  -15.3080   20.2200 N   0  0  0  0  0  0  0  0  0  0  0  0
  -24.8590  -15.9860   20.3800 H   0  0  0  0  0  0  0  0  0  0  0  0
  -26.4560  -15.7280   19.8880 H   0  0  0  0  0  0  0  0  0  0  0  0
  -32.3530  -19.9030   17.6240 C   0  0  0  0  0  1  0  0  0  0  0  0
  -30.8950  -20.2580   17.9480 C   0  0  0  0  0  2  0  0  0  0  0  0
  -29.8240  -22.8860   20.2080 C   0  0  0  0  0  2  0  0  0  0  0  0
  -29.2160  -24.1470   20.9410 C   0  0  0  0  0  2  0  0  0  0  0  0
  -28.3240  -25.1830   20.1470 C   0  0  0  0  0  2  0  0  0  0  0  0
  -28.4180  -26.6400   20.1670 O   0  0  0  0  0  0  0  0  0  0  0  0
  -24.6170  -31.8670   23.2100 C   0  0  0  0  0  0  0  0  0  0  0  0
  -27.2500  -27.3960   20.1170 C   0  0  0  0  0  0  0  0  0  0  0  0
  -23.4030  -30.4630   21.5720 C   0  0  0  0  0  3  0  0  0  0  0  0
  -24.8540  -28.9200   20.1370 C   0  0  0  0  0  0  0  0  0  0  0  0
  -25.9310  -30.8120   21.3670 C   0  0  0  0  0  2  0  0  0  0  0  0
  -26.0160  -29.4410   20.7190 C   0  0  0  0  0  0  0  0  0  0  0  0
  -27.2170  -28.6890   20.6990 C   0  0  0  0  0  3  0  0  0  0  0  0
  -26.0700  -26.8970   19.5230 C   0  0  0  0  0  3  0  0  0  0  0  0
  -24.8770  -27.6490   19.5340 C   0  0  0  0  0  3  0  0  0  0  0  0
  -23.6110  -29.7830   20.1920 C   0  0  0  0  0  2  0  0  0  0  0  0
  -24.6680  -31.0620   22.1080 N   0  0  0  0  0  0  0  0  0  0  0  0
  -23.5390  -32.1410   23.7570 O   0  0  0  0  0  0  0  0  0  0  0  0
  -22.7540  -29.4420   22.5350 C   0  0  0  0  0  0  0  0  0  0  0  0
  -21.4290  -29.2650   22.4130 N   0  0  0  0  0  0  0  0  0  0  0  0
  -23.4390  -28.8140   23.3460 O   0  0  0  0  0  0  0  0  0  0  0  0
  -20.9390  -29.8210   21.7280 H   0  0  0  0  0  0  0  0  0  0  0  0
  -18.0540  -28.0710   22.9210 C   0  0  0  0  0  0  0  0  0  0  0  0
  -20.6130  -28.3250   23.1840 C   0  0  0  0  0  3  0  0  0  0  0  0
  -20.7120  -26.8940   22.6080 C   0  0  0  0  0  2  0  0  0  0  0  0
  -19.6060  -26.5740   21.5960 C   0  0  0  0  0  2  0  0  0  0  0  0
  -18.2270  -26.7210   22.2440 C   0  0  0  0  0  2  0  0  0  0  0  0
  -19.1750  -28.8310   23.3470 C   0  0  0  0  0  0  0  0  0  0  0  0
  -18.9610  -30.0940   23.9380 C   0  0  0  0  0  3  0  0  0  0  0  0
  -17.6580  -30.5980   24.1120 C   0  0  0  0  0  3  0  0  0  0  0  0
  -16.5510  -29.8320   23.7030 C   0  0  0  0  0  3  0  0  0  0  0  0
  -16.7490  -28.5720   23.1110 C   0  0  0  0  0  3  0  0  0  0  0  0
  -25.9070  -32.4950   23.8240 C   0  0  0  0  0  3  0  0  0  0  0  0
  -25.5970  -33.8900   24.1580 N   0  0  0  0  0  0  0  0  0  0  0  0
  -25.9230  -34.9450   23.4010 C   0  0  0  0  0  0  0  0  0  0  0  0
  -26.5880  -34.8440   22.3650 O   0  0  0  0  0  0  0  0  0  0  0  0
  -25.0110  -34.0450   24.9660 H   0  0  0  0  0  0  0  0  0  0  0  0
  -24.1960  -36.7430   23.0570 C   0  0  0  0  0  1  0  0  0  0  0  0
  -25.4370  -36.3310   23.8650 C   0  0  0  0  0  3  0  0  0  0  0  0
  -27.5740  -37.2170   24.6910 C   0  0  0  0  0  1  0  0  0  0  0  0
  -26.4690  -37.3860   23.7520 N   0  0  0  0  0  0  0  0  0  0  0  0
  -26.0640  -38.3050   23.9040 H   0  0  0  0  0  0  0  0  0  0  0  0
  -26.4340  -31.7170   25.0920 C   0  0  1  0  0  0  0  0  0  0  0  0
  -25.3470  -31.4720   26.1650 C   0  0  0  0  0  1  0  0  0  0  0  0
  -27.0200  -30.3430   24.6900 C   0  0  0  0  0  1  0  0  0  0  0  0
  -27.5910  -32.5080   25.7470 C   0  0  0  0  0  1  0  0  0  0  0  0
  1  6  1  0
  1 48  1  0
  2  1  2  0
  3  5  2  0
  4  3  1  0
  4  6  2  0
  5  7  1  0
  5  8  1  0
  6  7  1  0
  9  8  2  0
 10  9  1  0
 11 16  1  0
 12 13  1  0
 12 11  1  0
 14 13  1  0
 14 21  1  0
 14 15  1  0
 16 10  1  0
 16 15  1  0
 17 10  2  0
 18 19  2  0
 19 38  1  0
 20 19  1  0
 20 23  1  0
 21 22  1  0
 21 18  1  0
 22 20  2  0
 23 24  1  0
 24 25  2  0
 26 29  1  0
 26 25  1  0
 27 26  2  0
 28 27  1  0
 28 23  2  0
 29 30  1  0
 30 31  1  0
 31 32  2  0
 33 32  1  0
 33 37  1  0
 34 33  2  0
 35 30  2  0
 35 34  1  0
 36 35  1  0
 38 39  1  0
 39 42  1  0
 39 41  1  0
 40 38  2  0
 43 44  1  0
 43 18  1  0
 45 43  1  0
 46 47  1  0
 47  4  1  0
 48 49  1  0
 50 51  1  0
 50 49  1  0
 52 63  2  0
 53 51  1  0
 53 58  1  0
 54 62  1  0
 54 64  1  0
 55 61  1  0
 55 57  1  0
 56 62  1  0
 57 56  1  0
 58 57  2  0
 59 60  1  0
 59 53  2  0
 60 55  2  0
 61 54  1  0
 62 52  1  0
 64 66  2  0
 65 64  1  0
 67 65  1  0
 68 77  2  0
 68 73  1  0
 69 65  1  0
 69 73  1  0
 70 69  1  0
 71 72  1  0
 71 70  1  0
 72 68  1  0
 73 74  2  0
 74 75  1  0
 76 75  2  0
 77 76  1  0
 78 52  1  0
 78 79  1  0
 78 88  1  0
 79 82  1  0
 80 84  1  0
 80 79  1  0
 81 80  2  0
 84 83  1  0
 86 84  1  0
 86 87  1  0
 86 85  1  0
 88 91  1  1
 88 89  1  0
 90 88  1  0
M  ISO  4   9 100  10 100  50 101  51 101
M  END
>  <TORSDO>  (39) 
F 22

>  <SCORE>  (39) 
-12.299

>  <name>  (39) 
38

>  <ligand_id>  (39) 
38

>  <original_smiles>  (39) 
[H]C(C(=O)N1C([H])([H])C([H])([H])C([H])([H])C([H])(n2nc(-c3c([H])c([H])c(Oc4c([H])c([H])c(F)c([H])c4F)c([H])c3[H])c(C(=O)N([H])[H])c2N([H])[H])C1([H])[H])=C([H])c1sc(C(=S)C([H])([H])C([H])([H])C([H])([H])Oc2c([H])c([H])c3c(c2[H])C([H])([H])N(C(=O)C([H])(N([H])C(=O)C([H])(N([H])C([H])([H])[H])C([H])([H])[H])C(C([H])([H])[H])(C([H])([H])[H])C([H])([H])[H])C([H])(C(=O)N([H])C2([H])c4c([H])c([H])c([H])c([H])c4C([H])([H])C([H])([H])C2([H])[H])C3([H])[H])c(C([H])([H])C([H])([H])[H])c1[H]

>  <smiles>  (39) 
[H]C(C(=O)N1C([H])([H])C([H])([H])C([H])([H])C([H])(n2nc(-c3c([H])c([H])c(Oc4c([H])c([H])c(F)c([H])c4F)c([H])c3[H])c(C(=O)N([H])[H])c2N([H])[H])C1([H])[H])=C([H])c1sc(C(=S)C([H])([H])C([H])([H])C([H])([H])Oc2c([H])c([H])c3c(c2[H])C([H])([H])N(C(=O)C([H])(N([H])C(=O)C([H])(N([H])C([H])([H])[H])C([H])([H])[H])C(C([H])([H])[H])(C([H])([H])[H])C([H])([H])[H])C([H])(C(=O)N([H])C2([H])c4c([H])c([H])c([H])c([H])c4C([H])([H])C([H])([H])C2([H])[H])C3([H])[H])c(C([H])([H])C([H])([H])[H])c1[H]

$$$$
39:0:0
     RDKit          3D

 90 90  0  0  1  0  0  0  0  0999 V2000
  -23.8910  -24.4870   22.4220 C   0  0  0  0  0  3  0  0  0  0  0  0
  -22.1170  -24.8360   20.7260 C   0  0  0  0  0  3  0  0  0  0  0  0
  -24.5930  -23.0750   21.4340 C   0  0  0  0  0  3  0  0  0  0  0  0
  -22.5810  -25.8500   22.6020 C   0  0  0  0  0  3  0  0  0  0  0  0
  -23.2540  -23.6160   20.7150 C   0  0  0  0  0  0  0  0  0  0  0  0
  -21.6310  -26.2770   21.3600 C   0  0  0  0  0  3  0  0  0  0  0  0
  -22.8810  -22.5870   19.6620 C   0  0  0  0  0  1  0  0  0  0  0  0
  -21.4510  -28.7740   20.1260 C   0  0  0  0  0  3  0  0  0  0  0  0
  -26.2790  -21.2300   20.9990 C   0  0  0  0  0  1  0  0  0  0  0  0
  -27.3010  -19.6290   20.4990 C   0  0  0  0  0  1  0  0  0  0  0  0
  -28.9560  -18.1020   20.1480 C   0  0  0  0  0  2  0  0  0  0  0  0
  -30.5470  -15.5120   19.2400 C   0  0  0  0  0  2  0  0  0  0  0  0
  -30.2590  -14.2760   18.1920 C   0  0  0  0  0  2  0  0  0  0  0  0
  -29.0820  -13.4000   18.6070 C   0  0  0  0  0  2  0  0  0  0  0  0
  -28.2150  -14.3800   19.3810 C   0  0  0  0  0  3  0  0  0  0  0  0
  -28.8500  -15.1860   20.5470 C   0  0  0  0  0  2  0  0  0  0  0  0
  -29.3350  -16.4700   19.9510 N   0  0  0  0  0  0  0  0  0  0  0  0
  -30.2540  -18.1830   19.8920 O   0  0  0  0  0  1  0  0  0  0  0  0
  -25.9640  -14.8020   20.1740 C   0  0  0  0  0  0  0  0  0  0  0  0
  -24.9690  -14.0000   20.6060 C   0  0  0  0  0  0  0  0  0  0  0  0
  -25.4630  -12.6600   20.5100 C   0  0  0  0  0  0  0  0  0  0  0  0
  -26.9730  -13.9370   19.8380 N   0  0  0  0  0  0  0  0  0  0  0  0
  -26.7240  -12.6410   20.1040 N   0  0  0  0  0  0  0  0  0  0  0  0
  -24.7730  -11.3930   20.7090 C   0  0  0  0  0  0  0  0  0  0  0  0
  -25.1730  -10.4760   21.7040 C   0  0  0  0  0  3  0  0  0  0  0  0
  -24.4600   -9.2720   21.8810 C   0  0  0  0  0  3  0  0  0  0  0  0
  -23.3430   -8.9850   21.0620 C   0  0  0  0  0  0  0  0  0  0  0  0
  -22.9720   -9.8910   20.0540 C   0  0  0  0  0  3  0  0  0  0  0  0
  -23.6830  -11.0860   19.8740 C   0  0  0  0  0  3  0  0  0  0  0  0
  -22.6030   -7.8340   21.1460 O   0  0  0  0  0  0  0  0  0  0  0  0
  -22.3430   -7.2380   22.3530 C   0  0  0  0  0  0  0  0  0  0  0  0
  -21.6940   -7.9270   23.4010 C   0  0  0  0  0  3  0  0  0  0  0  0
  -21.3850   -7.2520   24.5980 C   0  0  0  0  0  3  0  0  0  0  0  0
  -21.7140   -5.8910   24.7460 C   0  0  0  0  0  0  0  0  0  0  0  0
  -22.3570   -5.2040   23.7010 C   0  0  0  0  0  3  0  0  0  0  0  0
  -22.6680   -5.8760   22.5060 C   0  0  0  0  0  0  0  0  0  0  0  0
  -23.2690   -5.2070   21.4930 F   0  0  0  0  0  0  0  0  0  0  0  0
  -21.4090   -5.2400   25.8920 F   0  0  0  0  0  0  0  0  0  0  0  0
  -23.6050  -14.4710   20.9770 C   0  0  0  0  0  0  0  0  0  0  0  0
  -22.9500  -13.7740   21.8940 N   0  0  0  0  0  0  0  0  0  0  0  0
  -23.1420  -15.5020   20.4900 O   0  0  0  0  0  0  0  0  0  0  0  0
  -23.3510  -12.9440   22.3060 H   0  0  0  0  0  0  0  0  0  0  0  0
  -22.0330  -14.0760   22.1920 H   0  0  0  0  0  0  0  0  0  0  0  0
  -26.1000  -16.1850   20.0230 N   0  0  0  0  0  0  0  0  0  0  0  0
  -25.2900  -16.7880   20.1200 H   0  0  0  0  0  0  0  0  0  0  0  0
  -26.8360  -16.5920   19.4630 H   0  0  0  0  0  0  0  0  0  0  0  0
  -22.1070  -27.5160   23.7950 C   0  0  0  0  0 15  0  0  0  0  0  0
  -21.8680  -29.8390   22.8810 C   0  0  0  0  0 15  0  0  0  0  0  0
  -22.5800  -29.9690   20.6680 C   0  0  0  0  0  1  0  0  0  0  0  0
  -23.8670  -28.7310   19.8730 O   0  0  0  0  0  1  0  0  0  0  0  0
  -25.4630  -31.6220   24.1220 C   0  0  0  0  0  0  0  0  0  0  0  0
  -25.2950  -28.2760   19.7750 C   0  0  0  0  0  3  0  0  0  0  0  0
  -24.2930  -30.8510   22.2050 C   0  0  0  0  0  3  0  0  0  0  0  0
  -25.4140  -30.7490   19.9130 C   0  0  0  0  0  3  0  0  0  0  0  0
  -26.6920  -30.8140   22.0610 C   0  0  0  0  0  2  0  0  0  0  0  0
  -26.3180  -30.1190   20.7580 C   0  0  0  0  0  3  0  0  0  0  0  0
  -26.3800  -28.7450   20.5800 C   0  0  0  0  0  2  0  0  0  0  0  0
  -25.4330  -28.7570   18.5010 C   0  0  0  0  0  2  0  0  0  0  0  0
  -25.1180  -30.1450   18.6350 C   0  0  0  0  0  2  0  0  0  0  0  0
  -24.5630  -31.6280   20.7700 C   0  0  0  0  0  2  0  0  0  0  0  0
  -25.4950  -31.1390   22.8720 N   0  0  0  0  0  0  0  0  0  0  0  0
  -24.4270  -31.9940   24.7070 O   0  0  0  0  0  0  0  0  0  0  0  0
  -24.0530  -29.1270   22.5170 C   0  0  0  0  0  0  0  0  0  0  0  0
  -23.0830  -28.1650   21.8560 N   0  0  0  0  0  0  0  0  0  0  0  0
  -24.1150  -28.8220   23.6820 O   0  0  0  0  0  0  0  0  0  0  0  0
  -23.2570  -27.2240   22.1750 H   0  0  0  0  0  0  0  0  0  0  0  0
  -17.9630  -28.4280   22.2980 C   0  0  0  0  0  0  0  0  0  0  0  0
  -21.3270  -28.2690   21.1760 C   0  0  0  0  0  2  0  0  0  0  0  0
  -20.8150  -27.7290   19.3530 C   0  0  0  0  0  1  0  0  0  0  0  0
  -18.7710  -27.2940   19.1930 C   0  0  0  0  0 15  0  0  0  0  0  0
  -17.6170  -27.4860   20.8170 C   0  0  0  0  0  1  0  0  0  0  0  0
  -19.4630  -28.6360   22.7060 C   0  0  0  0  0  3  0  0  0  0  0  0
  -19.2850  -29.5750   23.9480 C   0  0  0  0  0  3  0  0  0  0  0  0
  -18.1910  -30.4140   24.4280 C   0  0  0  0  0  3  0  0  0  0  0  0
  -16.9540  -30.3400   23.7910 C   0  0  0  0  0  3  0  0  0  0  0  0
  -16.8780  -29.3340   22.7840 C   0  0  0  0  0  3  0  0  0  0  0  0
  -26.8010  -31.6400   24.8530 C   0  0  0  0  0  3  0  0  0  0  0  0
  -26.9170  -30.4430   25.8650 C   0  0  1  0  0  0  0  0  0  0  0  0
  -25.6970  -30.2940   26.8030 C   0  0  0  0  0  1  0  0  0  0  0  0
  -27.1490  -29.0830   25.1580 C   0  0  0  0  0  1  0  0  0  0  0  0
  -28.1790  -30.6610   26.7210 C   0  0  0  0  0  1  0  0  0  0  0  0
  -26.9090  -32.9410   25.5040 N   0  0  0  0  0  0  0  0  0  0  0  0
  -27.5490  -33.9820   24.9630 C   0  0  0  0  0  0  0  0  0  0  0  0
  -28.1510  -33.9160   23.8870 O   0  0  0  0  0  0  0  0  0  0  0  0
  -26.3960  -33.0750   26.3630 H   0  0  0  0  0  0  0  0  0  0  0  0
  -26.5510  -36.2830   25.1090 C   0  0  0  0  0  1  0  0  0  0  0  0
  -27.5340  -35.2970   25.7570 C   0  0  0  0  0  3  0  0  0  0  0  0
  -29.7950  -35.1430   26.7000 C   0  0  0  0  0  1  0  0  0  0  0  0
  -28.8710  -35.9170   25.8740 N   0  0  0  0  0  0  0  0  0  0  0  0
  -28.8010  -36.8510   26.2680 H   0  0  0  0  0  0  0  0  0  0  0  0
  1  4  1  0
  2  6  1  0
  3  1  2  0
  5  2  2  0
  5  3  1  0
  6  4  2  0
  7  5  1  0
  8 49  1  0
  8 68  1  0
 10  9  1  0
 12 17  1  0
 13 14  1  0
 13 12  1  0
 15 14  1  0
 15 22  1  0
 15 16  1  0
 17 11  1  0
 17 16  1  0
 18 11  1  0
 19 20  2  0
 20 39  1  0
 21 20  1  0
 21 24  1  0
 22 23  1  0
 22 19  1  0
 23 21  2  0
 24 25  1  0
 25 26  2  0
 27 30  1  0
 27 26  1  0
 28 27  2  0
 29 28  1  0
 29 24  2  0
 30 31  1  0
 31 36  2  0
 31 32  1  0
 32 33  2  0
 33 34  1  0
 34 38  1  0
 35 34  2  0
 36 35  1  0
 37 36  1  0
 39 40  1  0
 40 43  1  0
 40 42  1  0
 41 39  2  0
 44 45  1  0
 44 19  1  0
 46 44  1  0
 51 62  2  0
 52 50  1  0
 52 57  1  0
 53 63  1  0
 53 61  1  0
 54 59  1  0
 54 56  1  0
 54 60  1  0
 55 61  1  0
 56 57  1  0
 56 55  1  0
 58 59  1  0
 58 52  1  0
 60 53  1  0
 61 51  1  0
 63 65  2  0
 64 66  1  0
 64 63  1  0
 67 72  2  0
 67 76  1  0
 68 64  1  0
 69  8  1  0
 71 67  1  0
 72 73  1  0
 73 74  2  0
 75 74  1  0
 76 75  2  0
 77 51  1  0
 77 82  1  0
 77 78  1  0
 78 81  1  1
 78 79  1  0
 80 78  1  0
 82 85  1  0
 83 82  1  0
 83 87  1  0
 84 83  2  0
 87 86  1  0
 87 89  1  0
 89 90  1  0
 89 88  1  0
M  ISO  4  10 100  11 100  49 101  50 101
M  END
>  <TORSDO>  (40) 
F 20

>  <SCORE>  (40) 
-5.112

>  <name>  (40) 
39

>  <ligand_id>  (40) 
39

>  <original_smiles>  (40) 
[H]C(C(=O)N1C([H])([H])C([H])([H])C([H])([H])C([H])(n2nc(-c3c([H])c([H])c(Oc4c([H])c([H])c(F)c([H])c4F)c([H])c3[H])c(C(=O)N([H])[H])c2N([H])[H])C1([H])[H])=C([H])c1c([H])c(C([H])([H])C([H])([H])C([H])([H])Oc2c([H])c([H])c3c(c2[H])C([H])([H])N(C(=O)C([H])(N([H])C(=O)C([H])(N([H])C([H])([H])[H])C([H])([H])[H])C(C([H])([H])[H])(C([H])([H])[H])C([H])([H])[H])C([H])(C(=O)N([H])C2([H])c4c([H])c([H])c([H])c([H])c4C([H])([H])C([H])([H])C2([H])[H])C3([H])[H])c(C([H])([H])[H])c([H])c1C([H])([H])[H]

>  <smiles>  (40) 
[H]C(C(=O)N1C([H])([H])C([H])([H])C([H])([H])C([H])(n2nc(-c3c([H])c([H])c(Oc4c([H])c([H])c(F)c([H])c4F)c([H])c3[H])c(C(=O)N([H])[H])c2N([H])[H])C1([H])[H])=C([H])c1c([H])c(C([H])([H])C([H])([H])C([H])([H])Oc2c([H])c([H])c3c(c2[H])C([H])([H])N(C(=O)C([H])(N([H])C(=O)C([H])(N([H])C([H])([H])[H])C([H])([H])[H])C(C([H])([H])[H])(C([H])([H])[H])C([H])([H])[H])C([H])(C(=O)N([H])C2([H])c4c([H])c([H])c([H])c([H])c4C([H])([H])C([H])([H])C2([H])[H])C3([H])[H])c(C([H])([H])[H])c([H])c1C([H])([H])[H]

$$$$
40:0:0
     RDKit          3D

 91 99  0  0  1  0  0  0  0  0999 V2000
  -29.9650  -21.0390   22.5630 C   0  0  0  0  0  3  0  0  0  0  0  0
  -30.6300  -19.9900   23.2110 C   0  0  0  0  0  3  0  0  0  0  0  0
  -29.8240  -18.4040   21.5290 C   0  0  0  0  0  0  0  0  0  0  0  0
  -29.2020  -20.8190   21.3960 C   0  0  0  0  0  0  0  0  0  0  0  0
  -30.5660  -18.6770   22.7100 C   0  0  0  0  0  0  0  0  0  0  0  0
  -29.1510  -19.4850   20.8640 C   0  0  0  0  0  0  0  0  0  0  0  0
  -31.3250  -17.5910   23.4620 C   0  0  0  0  0  1  0  0  0  0  0  0
  -28.3740  -19.2100   19.5790 C   0  0  0  0  0  1  0  0  0  0  0  0
  -29.8250  -17.0150   21.0220 C   0  0  0  0  0  0  0  0  0  0  0  0
  -30.0470  -15.8740   20.6240 C   0  0  0  0  0  0  0  0  0  0  0  0
  -30.6510  -14.6700   20.0410 C   0  0  0  0  0  0  0  0  0  0  0  0
  -30.2770  -12.5030   18.9290 C   0  0  0  0  0  2  0  0  0  0  0  0
  -29.2780  -12.7030   17.7710 C   0  0  0  0  0  2  0  0  0  0  0  0
  -27.8300  -12.5520   18.2780 C   0  0  0  0  0  2  0  0  0  0  0  0
  -27.5520  -13.3840   19.5590 C   0  0  0  0  0  3  0  0  0  0  0  0
  -28.6690  -13.1970   20.6110 C   0  0  0  0  0  2  0  0  0  0  0  0
  -29.9540  -13.5000   19.9660 N   0  0  0  0  0  0  0  0  0  0  0  0
  -31.7490  -14.8160   19.5010 O   0  0  0  0  0  0  0  0  0  0  0  0
  -25.2010  -13.9570   20.4280 C   0  0  0  0  0  0  0  0  0  0  0  0
  -24.1610  -13.1690   20.8430 C   0  0  0  0  0  0  0  0  0  0  0  0
  -24.6260  -11.8210   20.7550 C   0  0  0  0  0  0  0  0  0  0  0  0
  -26.2340  -13.0880   20.1140 N   0  0  0  0  0  0  0  0  0  0  0  0
  -25.8950  -11.7970   20.3680 N   0  0  0  0  0  0  0  0  0  0  0  0
  -23.9170  -10.5510   20.9610 C   0  0  0  0  0  0  0  0  0  0  0  0
  -24.3870   -9.5820   21.8750 C   0  0  0  0  0  3  0  0  0  0  0  0
  -23.6780   -8.3770   22.0690 C   0  0  0  0  0  3  0  0  0  0  0  0
  -22.4850   -8.1320   21.3480 C   0  0  0  0  0  0  0  0  0  0  0  0
  -22.0340   -9.0890   20.4230 C   0  0  0  0  0  3  0  0  0  0  0  0
  -22.7440  -10.2860   20.2270 C   0  0  0  0  0  3  0  0  0  0  0  0
  -21.7440   -6.9790   21.4530 O   0  0  0  0  0  0  0  0  0  0  0  0
  -21.7070   -6.2500   22.6150 C   0  0  0  0  0  0  0  0  0  0  0  0
  -21.2760   -6.8130   23.8360 C   0  0  0  0  0  3  0  0  0  0  0  0
  -21.1880   -6.0090   24.9900 C   0  0  0  0  0  3  0  0  0  0  0  0
  -21.5210   -4.6440   24.9250 C   0  0  0  0  0  0  0  0  0  0  0  0
  -21.9450   -4.0790   23.7090 C   0  0  0  0  0  3  0  0  0  0  0  0
  -22.0350   -4.8810   22.5560 C   0  0  0  0  0  0  0  0  0  0  0  0
  -22.4250   -4.3270   21.3830 F   0  0  0  0  0  0  0  0  0  0  0  0
  -21.4290   -3.8690   26.0310 F   0  0  0  0  0  0  0  0  0  0  0  0
  -22.7800  -13.6330   21.2100 C   0  0  0  0  0  0  0  0  0  0  0  0
  -22.1080  -12.9110   22.1000 N   0  0  0  0  0  0  0  0  0  0  0  0
  -22.3090  -14.6690   20.7440 O   0  0  0  0  0  0  0  0  0  0  0  0
  -22.5040  -12.0730   22.4990 H   0  0  0  0  0  0  0  0  0  0  0  0
  -21.1850  -13.2020   22.3880 H   0  0  0  0  0  0  0  0  0  0  0  0
  -25.3510  -15.3310   20.2720 N   0  0  0  0  0  0  0  0  0  0  0  0
  -24.5960  -15.9850   20.4500 H   0  0  0  0  0  0  0  0  0  0  0  0
  -26.1920  -15.7790   19.9290 H   0  0  0  0  0  0  0  0  0  0  0  0
  -28.4940  -21.9950   20.7940 C   0  0  0  0  0  3  0  0  0  0  0  0
  -28.7970  -23.3080   20.9790 C   0  0  0  0  0  3  0  0  0  0  0  0
  -27.9870  -24.5130   20.4780 C   0  0  0  0  0  2  0  0  0  0  0  0
  -28.7880  -25.5920   19.6870 C   0  0  0  0  0  2  0  0  0  0  0  0
  -28.6830  -26.9450   20.1860 O   0  0  0  0  0  0  0  0  0  0  0  0
  -24.6840  -31.9620   23.2750 C   0  0  0  0  0  0  0  0  0  0  0  0
  -27.4840  -27.6370   20.1410 C   0  0  0  0  0  0  0  0  0  0  0  0
  -23.5410  -30.5720   21.5800 C   0  0  0  0  0  3  0  0  0  0  0  0
  -25.0550  -29.1030   20.1430 C   0  0  0  0  0  0  0  0  0  0  0  0
  -26.0600  -30.9930   21.4340 C   0  0  0  0  0  2  0  0  0  0  0  0
  -26.1900  -29.6380   20.7630 C   0  0  0  0  0  0  0  0  0  0  0  0
  -27.4060  -28.9120   20.7560 C   0  0  0  0  0  3  0  0  0  0  0  0
  -26.3250  -27.1240   19.5130 C   0  0  0  0  0  3  0  0  0  0  0  0
  -25.1170  -27.8480   19.5150 C   0  0  0  0  0  3  0  0  0  0  0  0
  -23.7900  -29.9320   20.1880 C   0  0  0  0  0  2  0  0  0  0  0  0
  -24.7800  -31.1890   22.1550 N   0  0  0  0  0  0  0  0  0  0  0  0
  -23.5870  -32.1950   23.8020 O   0  0  0  0  0  0  0  0  0  0  0  0
  -22.8990  -29.5120   22.5040 C   0  0  0  0  0  0  0  0  0  0  0  0
  -21.5860  -29.2860   22.3360 N   0  0  0  0  0  0  0  0  0  0  0  0
  -23.5800  -28.8960   23.3290 O   0  0  0  0  0  0  0  0  0  0  0  0
  -21.0970  -29.8350   21.6420 H   0  0  0  0  0  0  0  0  0  0  0  0
  -18.2440  -27.9640   22.7100 C   0  0  0  0  0  0  0  0  0  0  0  0
  -20.7800  -28.3080   23.0670 C   0  0  0  0  0  3  0  0  0  0  0  0
  -20.9540  -26.8920   22.4710 C   0  0  0  0  0  2  0  0  0  0  0  0
  -19.8950  -26.5470   21.4180 C   0  0  0  0  0  2  0  0  0  0  0  0
  -18.4900  -26.6330   22.0200 C   0  0  0  0  0  2  0  0  0  0  0  0
  -19.3210  -28.7570   23.1870 C   0  0  0  0  0  0  0  0  0  0  0  0
  -19.0400  -30.0020   23.7900 C   0  0  0  0  0  3  0  0  0  0  0  0
  -17.7140  -30.4560   23.9220 C   0  0  0  0  0  3  0  0  0  0  0  0
  -16.6500  -29.6590   23.4630 C   0  0  0  0  0  3  0  0  0  0  0  0
  -16.9160  -28.4140   22.8630 C   0  0  0  0  0  3  0  0  0  0  0  0
  -25.9420  -32.6110   23.9310 C   0  0  0  0  0  3  0  0  0  0  0  0
  -26.4340  -31.8460   25.2220 C   0  0  1  0  0  0  0  0  0  0  0  0
  -25.3110  -31.5830   26.2530 C   0  0  0  0  0  1  0  0  0  0  0  0
  -27.0540  -30.4810   24.8440 C   0  0  0  0  0  1  0  0  0  0  0  0
  -27.5480  -32.6590   25.9210 C   0  0  0  0  0  1  0  0  0  0  0  0
  -25.6070  -34.0060   24.2480 N   0  0  0  0  0  0  0  0  0  0  0  0
  -25.9440  -35.0590   23.4920 C   0  0  0  0  0  0  0  0  0  0  0  0
  -26.6400  -34.9590   22.4780 O   0  0  0  0  0  0  0  0  0  0  0  0
  -24.9940  -34.1550   25.0360 H   0  0  0  0  0  0  0  0  0  0  0  0
  -24.1930  -36.8210   23.0950 C   0  0  0  0  0  1  0  0  0  0  0  0
  -25.4270  -36.4420   23.9310 C   0  0  0  0  0  3  0  0  0  0  0  0
  -27.5320  -37.3680   24.7910 C   0  0  0  0  0  1  0  0  0  0  0  0
  -26.4440  -37.5110   23.8270 N   0  0  0  0  0  0  0  0  0  0  0  0
  -26.0220  -38.4260   23.9620 H   0  0  0  0  0  0  0  0  0  0  0  0
  1  2  1  0
  3  5  1  0
  4  1  2  0
  5  2  2  0
  5  7  1  0
  6  4  1  0
  6  3  2  0
  8  6  1  0
  9  3  1  0
 10  9  3  0
 11 10  1  0
 12 17  1  0
 13 14  1  0
 13 12  1  0
 15 14  1  0
 15 22  1  0
 15 16  1  0
 17 11  1  0
 17 16  1  0
 18 11  2  0
 19 20  2  0
 20 39  1  0
 21 20  1  0
 21 24  1  0
 22 23  1  0
 22 19  1  0
 23 21  2  0
 24 25  1  0
 25 26  2  0
 27 30  1  0
 27 26  1  0
 28 27  2  0
 29 28  1  0
 29 24  2  0
 30 31  1  0
 31 32  1  0
 32 33  2  0
 34 33  1  0
 34 38  1  0
 35 34  2  0
 36 31  2  0
 36 35  1  0
 37 36  1  0
 39 40  1  0
 40 43  1  0
 40 42  1  0
 41 39  2  0
 44 19  1  0
 44 45  1  0
 46 44  1  0
 47 48  2  0
 47  4  1  0
 49 48  1  0
 50 51  1  0
 50 49  1  0
 52 63  2  0
 53 51  1  0
 53 58  1  0
 54 62  1  0
 54 64  1  0
 55 61  1  0
 55 57  1  0
 56 62  1  0
 57 56  1  0
 58 57  2  0
 59 60  1  0
 59 53  2  0
 60 55  2  0
 61 54  1  0
 62 52  1  0
 64 66  2  0
 65 64  1  0
 67 65  1  0
 68 77  2  0
 68 73  1  0
 69 65  1  0
 69 73  1  0
 70 69  1  0
 71 72  1  0
 71 70  1  0
 72 68  1  0
 73 74  2  0
 74 75  1  0
 76 75  2  0
 77 76  1  0
 78 52  1  0
 78 83  1  0
 78 79  1  0
 79 82  1  1
 79 80  1  0
 81 79  1  0
 83 86  1  0
 84 88  1  0
 84 83  1  0
 85 84  2  0
 88 87  1  0
 90 88  1  0
 90 91  1  0
 90 89  1  0
M  ISO  4  10 100  11 100  50 101  51 101
M  END
>  <TORSDO>  (41) 
F 20

>  <SCORE>  (41) 
-12.009

>  <name>  (41) 
40

>  <ligand_id>  (41) 
40

>  <original_smiles>  (41) 
[H]C(=C([H])C([H])([H])C([H])([H])Oc1c([H])c([H])c2c(c1[H])C([H])([H])N(C(=O)C([H])(N([H])C(=O)C([H])(N([H])C([H])([H])[H])C([H])([H])[H])C(C([H])([H])[H])(C([H])([H])[H])C([H])([H])[H])C([H])(C(=O)N([H])C1([H])c3c([H])c([H])c([H])c([H])c3C([H])([H])C([H])([H])C1([H])[H])C2([H])[H])c1c([H])c([H])c(C([H])([H])[H])c(C#CC(=O)N2C([H])([H])C([H])([H])C([H])([H])C([H])(n3nc(-c4c([H])c([H])c(Oc5c([H])c([H])c(F)c([H])c5F)c([H])c4[H])c(C(=O)N([H])[H])c3N([H])[H])C2([H])[H])c1C([H])([H])[H]

>  <smiles>  (41) 
[H]C(=C([H])C([H])([H])C([H])([H])Oc1c([H])c([H])c2c(c1[H])C([H])([H])N(C(=O)C([H])(N([H])C(=O)C([H])(N([H])C([H])([H])[H])C([H])([H])[H])C(C([H])([H])[H])(C([H])([H])[H])C([H])([H])[H])C([H])(C(=O)N([H])C1([H])c3c([H])c([H])c([H])c([H])c3C([H])([H])C([H])([H])C1([H])[H])C2([H])[H])c1c([H])c([H])c(C([H])([H])[H])c(C#CC(=O)N2C([H])([H])C([H])([H])C([H])([H])C([H])(n3nc(-c4c([H])c([H])c(Oc5c([H])c([H])c(F)c([H])c5F)c([H])c4[H])c(C(=O)N([H])[H])c3N([H])[H])C2([H])[H])c1C([H])([H])[H]

$$$$
41:0:0
     RDKit          3D

 90 98  0  0  1  0  0  0  0  0999 V2000
  -32.2610  -19.6540   23.0170 C   0  0  0  0  0  3  0  0  0  0  0  0
  -32.2140  -21.1120   21.0700 C   0  0  0  0  0  3  0  0  0  0  0  0
  -30.6930  -19.1940   21.2230 C   0  0  0  0  0  0  0  0  0  0  0  0
  -32.9250  -20.5780   22.1730 C   0  0  0  0  0  0  0  0  0  0  0  0
  -31.0470  -19.0510   22.5940 C   0  0  0  0  0  0  0  0  0  0  0  0
  -30.9120  -20.6240   20.7760 C   0  0  0  0  0  0  0  0  0  0  0  0
  -34.3190  -21.0960   22.5320 C   0  0  0  0  0  1  0  0  0  0  0  0
  -30.2670  -18.1450   23.5500 C   0  0  0  0  0  1  0  0  0  0  0  0
  -31.0980  -17.8060   20.4800 C   0  0  0  0  0  3  0  0  0  0  0  0
  -30.8020  -16.4190   20.6910 C   0  0  0  0  0  3  0  0  0  0  0  0
  -31.4000  -15.1460   20.0010 C   0  0  0  0  0  0  0  0  0  0  0  0
  -31.0430  -12.8630   18.9000 C   0  0  0  0  0  2  0  0  0  0  0  0
  -30.0290  -12.9760   17.7380 C   0  0  0  0  0  2  0  0  0  0  0  0
  -28.6000  -12.7750   18.2670 C   0  0  0  0  0  2  0  0  0  0  0  0
  -28.3440  -13.6120   19.5450 C   0  0  0  0  0  3  0  0  0  0  0  0
  -29.4780  -13.5260   20.5910 C   0  0  0  0  0  2  0  0  0  0  0  0
  -30.7270  -13.9160   19.9270 N   0  0  0  0  0  0  0  0  0  0  0  0
  -32.5020  -15.1710   19.4460 O   0  0  0  0  0  0  0  0  0  0  0  0
  -26.0920  -14.2330   20.5770 C   0  0  0  0  0  0  0  0  0  0  0  0
  -25.0160  -13.4790   20.9690 C   0  0  0  0  0  0  0  0  0  0  0  0
  -25.3790  -12.1210   20.7350 C   0  0  0  0  0  0  0  0  0  0  0  0
  -27.0410  -13.3300   20.1350 N   0  0  0  0  0  0  0  0  0  0  0  0
  -26.6280  -12.0460   20.2870 N   0  0  0  0  0  0  0  0  0  0  0  0
  -24.5870  -10.8890   20.8610 C   0  0  0  0  0  0  0  0  0  0  0  0
  -24.9150   -9.8920   21.8060 C   0  0  0  0  0  3  0  0  0  0  0  0
  -24.1220   -8.7300   21.9240 C   0  0  0  0  0  3  0  0  0  0  0  0
  -22.9890   -8.5550   21.0940 C   0  0  0  0  0  0  0  0  0  0  0  0
  -22.6830   -9.5410   20.1390 C   0  0  0  0  0  3  0  0  0  0  0  0
  -23.4770  -10.6930   20.0190 C   0  0  0  0  0  3  0  0  0  0  0  0
  -22.1790   -7.4460   21.1180 O   0  0  0  0  0  0  0  0  0  0  0  0
  -21.7550   -6.8850   22.2960 C   0  0  0  0  0  0  0  0  0  0  0  0
  -20.9520   -7.5980   23.2140 C   0  0  0  0  0  3  0  0  0  0  0  0
  -20.4790   -6.9620   24.3780 C   0  0  0  0  0  3  0  0  0  0  0  0
  -20.7980   -5.6120   24.6230 C   0  0  0  0  0  0  0  0  0  0  0  0
  -21.5930   -4.9000   23.7100 C   0  0  0  0  0  3  0  0  0  0  0  0
  -22.0660   -5.5330   22.5470 C   0  0  0  0  0  0  0  0  0  0  0  0
  -22.8100   -4.8340   21.6570 F   0  0  0  0  0  0  0  0  0  0  0  0
  -20.3390   -5.0010   25.7420 F   0  0  0  0  0  0  0  0  0  0  0  0
  -23.6910  -14.0030   21.4350 C   0  0  0  0  0  0  0  0  0  0  0  0
  -23.0320  -13.2670   22.3230 N   0  0  0  0  0  0  0  0  0  0  0  0
  -23.2580  -15.0900   21.0600 O   0  0  0  0  0  0  0  0  0  0  0  0
  -23.4160  -12.3870   22.6430 H   0  0  0  0  0  0  0  0  0  0  0  0
  -22.1390  -13.5740   22.6740 H   0  0  0  0  0  0  0  0  0  0  0  0
  -26.3430  -15.5990   20.5380 N   0  0  0  0  0  0  0  0  0  0  0  0
  -25.6630  -16.3030   20.8070 H   0  0  0  0  0  0  0  0  0  0  0  0
  -27.2050  -16.0010   20.1900 H   0  0  0  0  0  0  0  0  0  0  0  0
  -29.7940  -21.8570   20.6280 C   0  0  0  0  0  2  0  0  0  0  0  0
  -30.0610  -23.5450   20.6470 C   0  0  0  0  0  3  0  0  0  0  0  0
  -28.8500  -24.7410   20.6400 C   0  0  0  0  0  3  0  0  0  0  0  0
  -28.9760  -26.3020   20.6920 O   0  0  0  0  0  0  0  0  0  0  0  0
  -24.7480  -31.7470   23.3390 C   0  0  0  0  0  0  0  0  0  0  0  0
  -27.8490  -27.2000   20.5420 C   0  0  0  0  0  0  0  0  0  0  0  0
  -23.7680  -30.3150   21.5870 C   0  0  0  0  0  3  0  0  0  0  0  0
  -25.4240  -28.8150   20.2930 C   0  0  0  0  0  0  0  0  0  0  0  0
  -26.3090  -30.7020   21.6460 C   0  0  0  0  0  2  0  0  0  0  0  0
  -26.5190  -29.3190   21.0070 C   0  0  0  0  0  0  0  0  0  0  0  0
  -27.7230  -28.5310   21.1110 C   0  0  0  0  0  3  0  0  0  0  0  0
  -26.7160  -26.7830   19.7990 C   0  0  0  0  0  3  0  0  0  0  0  0
  -25.5350  -27.5540   19.6830 C   0  0  0  0  0  3  0  0  0  0  0  0
  -24.1440  -29.6450   20.2370 C   0  0  0  0  0  2  0  0  0  0  0  0
  -24.9570  -30.9440   22.2480 N   0  0  0  0  0  0  0  0  0  0  0  0
  -23.6090  -31.9760   23.7680 O   0  0  0  0  0  0  0  0  0  0  0  0
  -23.0480  -29.2740   22.4780 C   0  0  0  0  0  0  0  0  0  0  0  0
  -21.7390  -29.0680   22.2480 N   0  0  0  0  0  0  0  0  0  0  0  0
  -23.6760  -28.6510   23.3350 O   0  0  0  0  0  0  0  0  0  0  0  0
  -21.2900  -29.6250   21.5350 H   0  0  0  0  0  0  0  0  0  0  0  0
  -18.3490  -27.8340   22.5640 C   0  0  0  0  0  0  0  0  0  0  0  0
  -20.8950  -28.0890   22.9370 C   0  0  0  0  0  3  0  0  0  0  0  0
  -21.0230  -26.6910   22.2870 C   0  0  0  0  0  2  0  0  0  0  0  0
  -19.9620  -26.4230   21.2140 C   0  0  0  0  0  2  0  0  0  0  0  0
  -18.5560  -26.5270   21.8170 C   0  0  0  0  0  2  0  0  0  0  0  0
  -19.4470  -28.5740   23.0750 C   0  0  0  0  0  0  0  0  0  0  0  0
  -19.2040  -29.7970   23.7380 C   0  0  0  0  0  3  0  0  0  0  0  0
  -17.8930  -30.2830   23.8900 C   0  0  0  0  0  3  0  0  0  0  0  0
  -16.8070  -29.5420   23.3940 C   0  0  0  0  0  3  0  0  0  0  0  0
  -17.0350  -28.3180   22.7400 C   0  0  0  0  0  3  0  0  0  0  0  0
  -25.9240  -32.4340   24.0880 C   0  0  0  0  0  3  0  0  0  0  0  0
  -26.3020  -31.7130   25.4390 C   0  0  1  0  0  0  0  0  0  0  0  0
  -25.0890  -31.4300   26.3590 C   0  0  0  0  0  1  0  0  0  0  0  0
  -27.0010  -30.3630   25.1650 C   0  0  0  0  0  1  0  0  0  0  0  0
  -27.3180  -32.5820   26.2200 C   0  0  0  0  0  1  0  0  0  0  0  0
  -25.5360  -33.8320   24.3390 N   0  0  0  0  0  0  0  0  0  0  0  0
  -25.8730  -34.8700   23.5640 C   0  0  0  0  0  0  0  0  0  0  0  0
  -26.6000  -34.7570   22.5770 O   0  0  0  0  0  0  0  0  0  0  0  0
  -24.8590  -33.9850   25.0720 H   0  0  0  0  0  0  0  0  0  0  0  0
  -24.0680  -36.5790   23.1070 C   0  0  0  0  0  1  0  0  0  0  0  0
  -25.3110  -36.2530   23.9490 C   0  0  0  0  0  3  0  0  0  0  0  0
  -27.3590  -37.3080   24.8020 C   0  0  0  0  0  1  0  0  0  0  0  0
  -26.2940  -37.3460   23.8060 N   0  0  0  0  0  0  0  0  0  0  0  0
  -25.8340  -38.2500   23.8750 H   0  0  0  0  0  0  0  0  0  0  0  0
  2  4  1  0
  3  5  2  0
  4  7  1  0
  4  1  2  0
  5  1  1  0
  5  8  1  0
  6  2  2  0
  6  3  1  0
  9 10  2  0
  9  3  1  0
 11 10  1  0
 12 17  1  0
 13 14  1  0
 13 12  1  0
 15 14  1  0
 15 22  1  0
 15 16  1  0
 17 11  1  0
 17 16  1  0
 18 11  2  0
 19 20  2  0
 20 39  1  0
 21 24  1  0
 21 20  1  0
 22 23  1  0
 22 19  1  0
 23 21  2  0
 24 25  1  0
 25 26  2  0
 27 30  1  0
 27 26  1  0
 28 27  2  0
 29 28  1  0
 29 24  2  0
 30 31  1  0
 31 36  2  0
 31 32  1  0
 32 33  2  0
 33 34  1  0
 34 38  1  0
 35 34  2  0
 36 35  1  0
 37 36  1  0
 39 40  1  0
 40 42  1  0
 40 43  1  0
 41 39  2  0
 44 19  1  0
 44 45  1  0
 46 44  1  0
 47 48  1  0
 47  6  1  0
 49 48  2  0
 49 50  1  0
 51 62  2  0
 52 50  1  0
 52 57  1  0
 53 61  1  0
 53 63  1  0
 54 56  1  0
 55 61  1  0
 56 57  2  0
 56 55  1  0
 58 52  2  0
 59 58  1  0
 59 54  2  0
 60 54  1  0
 60 53  1  0
 61 51  1  0
 63 65  2  0
 64 63  1  0
 66 64  1  0
 67 76  2  0
 67 72  1  0
 68 64  1  0
 68 72  1  0
 69 68  1  0
 70 71  1  0
 70 69  1  0
 71 67  1  0
 72 73  2  0
 73 74  1  0
 75 74  2  0
 76 75  1  0
 77 51  1  0
 77 82  1  0
 77 78  1  0
 78 81  1  1
 78 79  1  0
 80 78  1  0
 82 85  1  0
 83 87  1  0
 83 82  1  0
 84 83  2  0
 87 86  1  0
 89 90  1  0
 89 87  1  0
 89 88  1  0
M  ISO  4  10 100  11 100  49 101  50 101
M  END
>  <TORSDO>  (42) 
F 20

>  <SCORE>  (42) 
-11.783

>  <name>  (42) 
41

>  <ligand_id>  (42) 
41

>  <original_smiles>  (42) 
[H]C(C(=O)N1C([H])([H])C([H])([H])C([H])([H])C([H])(n2nc(-c3c([H])c([H])c(Oc4c([H])c([H])c(F)c([H])c4F)c([H])c3[H])c(C(=O)N([H])[H])c2N([H])[H])C1([H])[H])=C([H])c1c(C([H])([H])[H])c([H])c(C([H])([H])[H])c([H])c1C([H])([H])C([H])([H])C([H])([H])Oc1c([H])c([H])c2c(c1[H])C([H])([H])N(C(=O)C([H])(N([H])C(=O)C([H])(N([H])C([H])([H])[H])C([H])([H])[H])C(C([H])([H])[H])(C([H])([H])[H])C([H])([H])[H])C([H])(C(=O)N([H])C1([H])c3c([H])c([H])c([H])c([H])c3C([H])([H])C([H])([H])C1([H])[H])C2([H])[H]

>  <smiles>  (42) 
[H]C(C(=O)N1C([H])([H])C([H])([H])C([H])([H])C([H])(n2nc(-c3c([H])c([H])c(Oc4c([H])c([H])c(F)c([H])c4F)c([H])c3[H])c(C(=O)N([H])[H])c2N([H])[H])C1([H])[H])=C([H])c1c(C([H])([H])[H])c([H])c(C([H])([H])[H])c([H])c1C([H])([H])C([H])([H])C([H])([H])Oc1c([H])c([H])c2c(c1[H])C([H])([H])N(C(=O)C([H])(N([H])C(=O)C([H])(N([H])C([H])([H])[H])C([H])([H])[H])C(C([H])([H])[H])(C([H])([H])[H])C([H])([H])[H])C([H])(C(=O)N([H])C1([H])c3c([H])c([H])c([H])c([H])c3C([H])([H])C([H])([H])C1([H])[H])C2([H])[H]

$$$$
42:0:0
     RDKit          3D

 91 99  0  0  1  0  0  0  0  0999 V2000
  -29.4820  -18.4790   20.6020 C   0  0  0  0  0  3  0  0  0  0  0  0
  -31.3210  -19.0490   18.6390 C   0  0  0  0  0  3  0  0  0  0  0  0
  -29.6940  -19.8850   20.2670 C   0  0  0  0  0  0  0  0  0  0  0  0
  -30.6820  -20.1280   19.2860 C   0  0  0  0  0  0  0  0  0  0  0  0
  -31.0490  -17.6950   18.9270 C   0  0  0  0  0  0  0  0  0  0  0  0
  -30.1600  -17.3440   19.9930 C   0  0  0  0  0  0  0  0  0  0  0  0
  -31.0980  -21.5250   18.8750 C   0  0  0  0  0  1  0  0  0  0  0  0
  -31.7110  -16.6960   17.9880 C   0  0  0  0  0  1  0  0  0  0  0  0
  -30.6170  -14.7620   20.3440 C   0  0  0  0  0  0  0  0  0  0  0  0
  -30.3830  -12.4830   19.3780 C   0  0  0  0  0  2  0  0  0  0  0  0
  -29.4500  -12.5530   18.1500 C   0  0  0  0  0  2  0  0  0  0  0  0
  -27.9800  -12.3840   18.5780 C   0  0  0  0  0  2  0  0  0  0  0  0
  -27.6010  -13.2840   19.7840 C   0  0  0  0  0  3  0  0  0  0  0  0
  -28.6620  -13.2200   20.9040 C   0  0  0  0  0  2  0  0  0  0  0  0
  -29.9600  -13.5540   20.3050 N   0  0  0  0  0  0  0  0  0  0  0  0
  -31.8320  -14.7860   20.1470 O   0  0  0  0  0  0  0  0  0  0  0  0
  -29.8660  -15.9310   20.3940 N   0  0  0  0  0  0  0  0  0  0  0  0
  -28.9220  -15.7790   20.7070 H   0  0  0  0  0  0  0  0  0  0  0  0
  -25.2080  -13.8710   20.5070 C   0  0  0  0  0  0  0  0  0  0  0  0
  -24.1430  -13.0940   20.8760 C   0  0  0  0  0  0  0  0  0  0  0  0
  -24.6110  -11.7460   20.8550 C   0  0  0  0  0  0  0  0  0  0  0  0
  -26.2560  -12.9950   20.2780 N   0  0  0  0  0  0  0  0  0  0  0  0
  -25.9040  -11.7120   20.5530 N   0  0  0  0  0  0  0  0  0  0  0  0
  -23.8870  -10.4820   21.0450 C   0  0  0  0  0  0  0  0  0  0  0  0
  -24.3260   -9.5120   21.9720 C   0  0  0  0  0  3  0  0  0  0  0  0
  -23.6050   -8.3120   22.1510 C   0  0  0  0  0  3  0  0  0  0  0  0
  -22.4270   -8.0740   21.4030 C   0  0  0  0  0  0  0  0  0  0  0  0
  -22.0080   -9.0310   20.4610 C   0  0  0  0  0  3  0  0  0  0  0  0
  -22.7310  -10.2230   20.2810 C   0  0  0  0  0  3  0  0  0  0  0  0
  -21.6750   -6.9290   21.4960 O   0  0  0  0  0  0  0  0  0  0  0  0
  -21.6410   -6.1780   22.6430 C   0  0  0  0  0  0  0  0  0  0  0  0
  -21.2340   -6.7230   23.8800 C   0  0  0  0  0  3  0  0  0  0  0  0
  -21.1490   -5.8980   25.0190 C   0  0  0  0  0  3  0  0  0  0  0  0
  -21.4600   -4.5280   24.9250 C   0  0  0  0  0  0  0  0  0  0  0  0
  -21.8580   -3.9820   23.6910 C   0  0  0  0  0  3  0  0  0  0  0  0
  -21.9460   -4.8040   22.5540 C   0  0  0  0  0  0  0  0  0  0  0  0
  -22.3110   -4.2670   21.3650 F   0  0  0  0  0  0  0  0  0  0  0  0
  -21.3700   -3.7340   26.0170 F   0  0  0  0  0  0  0  0  0  0  0  0
  -22.7430  -13.5680   21.1380 C   0  0  0  0  0  0  0  0  0  0  0  0
  -22.0110  -12.8720   22.0020 N   0  0  0  0  0  0  0  0  0  0  0  0
  -22.3060  -14.5890   20.6100 O   0  0  0  0  0  0  0  0  0  0  0  0
  -22.3780  -12.0500   22.4580 H   0  0  0  0  0  0  0  0  0  0  0  0
  -21.0690  -13.1690   22.2120 H   0  0  0  0  0  0  0  0  0  0  0  0
  -25.3650  -15.2410   20.3230 N   0  0  0  0  0  0  0  0  0  0  0  0
  -24.5930  -15.8910   20.4250 H   0  0  0  0  0  0  0  0  0  0  0  0
  -26.2010  -15.6800   19.9600 H   0  0  0  0  0  0  0  0  0  0  0  0
  -28.8880  -20.9970   20.9770 C   0  0  0  0  0  3  0  0  0  0  0  0
  -28.6650  -22.3740   21.0400 C   0  0  0  0  0  3  0  0  0  0  0  0
  -29.1200  -23.7490   20.3880 C   0  0  0  0  0  3  0  0  0  0  0  0
  -28.0320  -24.9450   20.4570 C   0  0  0  0  0  3  0  0  0  0  0  0
  -28.3270  -26.4060   20.2530 O   0  0  0  0  0  0  0  0  0  0  0  0
  -24.6140  -31.9030   23.2390 C   0  0  0  0  0  0  0  0  0  0  0  0
  -27.2280  -27.3000   20.2080 C   0  0  0  0  0  0  0  0  0  0  0  0
  -23.4140  -30.5010   21.6020 C   0  0  0  0  0  3  0  0  0  0  0  0
  -24.8700  -28.9460   20.1880 C   0  0  0  0  0  0  0  0  0  0  0  0
  -25.9620  -30.8110   21.4270 C   0  0  0  0  0  2  0  0  0  0  0  0
  -26.0430  -29.4260   20.7860 C   0  0  0  0  0  0  0  0  0  0  0  0
  -27.2260  -28.6170   20.7850 C   0  0  0  0  0  3  0  0  0  0  0  0
  -26.0310  -26.8970   19.5720 C   0  0  0  0  0  3  0  0  0  0  0  0
  -24.8700  -27.6870   19.5710 C   0  0  0  0  0  3  0  0  0  0  0  0
  -23.6340  -29.8230   20.2250 C   0  0  0  0  0  2  0  0  0  0  0  0
  -24.6830  -31.0890   22.1460 N   0  0  0  0  0  0  0  0  0  0  0  0
  -23.5260  -32.1820   23.7660 O   0  0  0  0  0  0  0  0  0  0  0  0
  -22.7500  -29.4860   22.5630 C   0  0  0  0  0  0  0  0  0  0  0  0
  -21.4220  -29.3140   22.4390 N   0  0  0  0  0  0  0  0  0  0  0  0
  -23.4260  -28.8580   23.3810 O   0  0  0  0  0  0  0  0  0  0  0  0
  -20.9360  -29.8780   21.7560 H   0  0  0  0  0  0  0  0  0  0  0  0
  -18.0350  -28.1420   22.9540 C   0  0  0  0  0  0  0  0  0  0  0  0
  -20.5980  -28.3810   23.2120 C   0  0  0  0  0  3  0  0  0  0  0  0
  -20.6830  -26.9510   22.6340 C   0  0  0  0  0  2  0  0  0  0  0  0
  -19.5730  -26.6360   21.6260 C   0  0  0  0  0  2  0  0  0  0  0  0
  -18.1960  -26.7910   22.2780 C   0  0  0  0  0  2  0  0  0  0  0  0
  -19.1610  -28.8940   23.3790 C   0  0  0  0  0  0  0  0  0  0  0  0
  -18.9550  -30.1590   23.9720 C   0  0  0  0  0  3  0  0  0  0  0  0
  -17.6540  -30.6670   24.1470 C   0  0  0  0  0  3  0  0  0  0  0  0
  -16.5420  -29.9120   23.7360 C   0  0  0  0  0  3  0  0  0  0  0  0
  -16.7330  -28.6510   23.1430 C   0  0  0  0  0  3  0  0  0  0  0  0
  -25.8910  -32.5390   23.8660 C   0  0  0  0  0  3  0  0  0  0  0  0
  -26.4010  -31.7730   25.1470 C   0  0  1  0  0  0  0  0  0  0  0  0
  -25.3040  -31.5400   26.2110 C   0  0  0  0  0  1  0  0  0  0  0  0
  -26.9860  -30.3920   24.7620 C   0  0  0  0  0  1  0  0  0  0  0  0
  -27.5490  -32.5710   25.8080 C   0  0  0  0  0  1  0  0  0  0  0  0
  -25.5770  -33.9390   24.1910 N   0  0  0  0  0  0  0  0  0  0  0  0
  -25.9110  -34.9900   23.4310 C   0  0  0  0  0  0  0  0  0  0  0  0
  -26.5870  -34.8880   22.4040 O   0  0  0  0  0  0  0  0  0  0  0  0
  -24.9760  -34.0930   24.9860 H   0  0  0  0  0  0  0  0  0  0  0  0
  -24.1850  -36.7860   23.0660 C   0  0  0  0  0  1  0  0  0  0  0  0
  -25.4200  -36.3800   23.8860 C   0  0  0  0  0  3  0  0  0  0  0  0
  -27.5500  -37.2640   24.7320 C   0  0  0  0  0  1  0  0  0  0  0  0
  -26.4540  -37.4320   23.7810 N   0  0  0  0  0  0  0  0  0  0  0  0
  -26.0470  -38.3530   23.9220 H   0  0  0  0  0  0  0  0  0  0  0  0
  2  5  2  0
  2  4  1  0
  3  1  1  0
  3 47  1  0
  4  3  2  0
  5  6  1  0
  6 17  1  0
  6  1  2  0
  7  4  1  0
  8  5  1  0
  9 17  1  0
 10 15  1  0
 11 12  1  0
 11 10  1  0
 13 12  1  0
 13 22  1  0
 13 14  1  0
 15  9  1  0
 15 14  1  0
 16  9  2  0
 17 18  1  0
 19 20  2  0
 20 39  1  0
 21 20  1  0
 21 24  1  0
 22 19  1  0
 22 23  1  0
 23 21  2  0
 24 25  1  0
 25 26  2  0
 27 30  1  0
 27 26  1  0
 28 27  2  0
 29 28  1  0
 29 24  2  0
 30 31  1  0
 31 32  1  0
 32 33  2  0
 34 33  1  0
 34 38  1  0
 35 34  2  0
 36 31  2  0
 36 35  1  0
 37 36  1  0
 39 40  1  0
 40 43  1  0
 40 42  1  0
 41 39  2  0
 44 45  1  0
 44 19  1  0
 46 44  1  0
 47 48  2  0
 49 50  2  0
 49 48  1  0
 51 50  1  0
 52 63  2  0
 53 51  1  0
 53 58  1  0
 54 62  1  0
 54 64  1  0
 55 61  1  0
 55 57  1  0
 56 62  1  0
 57 56  1  0
 58 57  2  0
 59 53  2  0
 60 59  1  0
 60 55  2  0
 61 54  1  0
 62 52  1  0
 64 66  2  0
 65 64  1  0
 67 65  1  0
 68 77  2  0
 68 73  1  0
 69 65  1  0
 69 73  1  0
 70 69  1  0
 71 72  1  0
 71 70  1  0
 72 68  1  0
 73 74  2  0
 74 75  1  0
 76 75  2  0
 77 76  1  0
 78 52  1  0
 78 83  1  0
 78 79  1  0
 79 82  1  1
 79 80  1  0
 81 79  1  0
 83 86  1  0
 84 88  1  0
 84 83  1  0
 85 84  2  0
 88 87  1  0
 90 88  1  0
 90 91  1  0
 90 89  1  0
M  ISO  4   9 100  17 100  50 101  51 101
M  END
>  <TORSDO>  (43) 
F 19

>  <SCORE>  (43) 
-14.386

>  <name>  (43) 
42

>  <ligand_id>  (43) 
42

>  <original_smiles>  (43) 
[H]C(=C([H])C([H])([H])C([H])([H])Oc1c([H])c([H])c2c(c1[H])C([H])([H])N(C(=O)C([H])(N([H])C(=O)C([H])(N([H])C([H])([H])[H])C([H])([H])[H])C(C([H])([H])[H])(C([H])([H])[H])C([H])([H])[H])C([H])(C(=O)N([H])C1([H])c3c([H])c([H])c([H])c([H])c3C([H])([H])C([H])([H])C1([H])[H])C2([H])[H])c1c([H])c(N([H])C(=O)N2C([H])([H])C([H])([H])C([H])([H])C([H])(n3nc(-c4c([H])c([H])c(Oc5c([H])c([H])c(F)c([H])c5F)c([H])c4[H])c(C(=O)N([H])[H])c3N([H])[H])C2([H])[H])c(C([H])([H])[H])c([H])c1C([H])([H])[H]

>  <smiles>  (43) 
[H]C(=C([H])C([H])([H])C([H])([H])Oc1c([H])c([H])c2c(c1[H])C([H])([H])N(C(=O)C([H])(N([H])C(=O)C([H])(N([H])C([H])([H])[H])C([H])([H])[H])C(C([H])([H])[H])(C([H])([H])[H])C([H])([H])[H])C([H])(C(=O)N([H])C1([H])c3c([H])c([H])c([H])c([H])c3C([H])([H])C([H])([H])C1([H])[H])C2([H])[H])c1c([H])c(N([H])C(=O)N2C([H])([H])C([H])([H])C([H])([H])C([H])(n3nc(-c4c([H])c([H])c(Oc5c([H])c([H])c(F)c([H])c5F)c([H])c4[H])c(C(=O)N([H])[H])c3N([H])[H])C2([H])[H])c(C([H])([H])[H])c([H])c1C([H])([H])[H]

$$$$
43:0:0
     RDKit          3D

 91 99  0  0  1  0  0  0  0  0999 V2000
  -30.1190  -21.9910   21.1020 C   0  0  0  0  0  3  0  0  0  0  0  0
  -29.6830  -23.2120   21.5380 C   0  0  0  0  0  3  0  0  0  0  0  0
  -30.8670  -18.2410   23.2270 C   0  0  0  0  0  3  0  0  0  0  0  0
  -30.9300  -19.4650   23.9290 C   0  0  0  0  0  3  0  0  0  0  0  0
  -30.4320  -19.4850   21.1930 C   0  0  0  0  0  3  0  0  0  0  0  0
  -30.6870  -18.2340   21.8300 C   0  0  0  0  0  0  0  0  0  0  0  0
  -30.4440  -20.7410   21.8820 C   0  0  0  0  0  0  0  0  0  0  0  0
  -30.7720  -20.7070   23.2710 C   0  0  0  0  0  0  0  0  0  0  0  0
  -31.0680  -21.9620   24.0830 C   0  0  0  0  0  1  0  0  0  0  0  0
  -30.8410  -16.9690   21.0360 C   0  0  0  0  0  3  0  0  0  0  0  0
  -30.5170  -15.6740   21.3320 C   0  0  0  0  0  3  0  0  0  0  0  0
  -30.9450  -14.5880   20.4210 C   0  0  0  0  0  0  0  0  0  0  0  0
  -30.5160  -12.4350   19.2480 C   0  0  0  0  0  2  0  0  0  0  0  0
  -29.6020  -12.6460   18.0230 C   0  0  0  0  0  2  0  0  0  0  0  0
  -28.1260  -12.5080   18.4390 C   0  0  0  0  0  2  0  0  0  0  0  0
  -27.7900  -13.3530   19.7010 C   0  0  0  0  0  3  0  0  0  0  0  0
  -28.8440  -13.1880   20.8230 C   0  0  0  0  0  2  0  0  0  0  0  0
  -30.1800  -13.4580   20.2660 N   0  0  0  0  0  0  0  0  0  0  0  0
  -32.0010  -14.7030   19.7910 O   0  0  0  0  0  0  0  0  0  0  0  0
  -25.3880  -13.9510   20.4090 C   0  0  0  0  0  0  0  0  0  0  0  0
  -24.3200  -13.1830   20.7880 C   0  0  0  0  0  0  0  0  0  0  0  0
  -24.7840  -11.8310   20.7720 C   0  0  0  0  0  0  0  0  0  0  0  0
  -26.4340  -13.0720   20.1820 N   0  0  0  0  0  0  0  0  0  0  0  0
  -26.0750  -11.7920   20.4640 N   0  0  0  0  0  0  0  0  0  0  0  0
  -24.0570  -10.5690   20.9730 C   0  0  0  0  0  0  0  0  0  0  0  0
  -24.4880   -9.6120   21.9180 C   0  0  0  0  0  3  0  0  0  0  0  0
  -23.7600   -8.4170   22.1090 C   0  0  0  0  0  3  0  0  0  0  0  0
  -22.5890   -8.1680   21.3520 C   0  0  0  0  0  0  0  0  0  0  0  0
  -22.1760   -9.1150   20.3970 C   0  0  0  0  0  3  0  0  0  0  0  0
  -22.9040  -10.3030   20.2050 C   0  0  0  0  0  3  0  0  0  0  0  0
  -21.8360   -7.0220   21.4480 O   0  0  0  0  0  0  0  0  0  0  0  0
  -21.7790   -6.2940   22.6100 C   0  0  0  0  0  0  0  0  0  0  0  0
  -21.3400   -6.8650   23.8250 C   0  0  0  0  0  3  0  0  0  0  0  0
  -21.2270   -6.0600   24.9790 C   0  0  0  0  0  3  0  0  0  0  0  0
  -21.5480   -4.6910   24.9180 C   0  0  0  0  0  0  0  0  0  0  0  0
  -21.9840   -4.1230   23.7070 C   0  0  0  0  0  3  0  0  0  0  0  0
  -22.0950   -4.9200   22.5550 C   0  0  0  0  0  0  0  0  0  0  0  0
  -22.4910   -4.3640   21.3880 F   0  0  0  0  0  0  0  0  0  0  0  0
  -21.4380   -3.9190   26.0250 F   0  0  0  0  0  0  0  0  0  0  0  0
  -22.9210  -13.6640   21.0520 C   0  0  0  0  0  0  0  0  0  0  0  0
  -22.1840  -12.9870   21.9250 N   0  0  0  0  0  0  0  0  0  0  0  0
  -22.4870  -14.6840   20.5170 O   0  0  0  0  0  0  0  0  0  0  0  0
  -22.5420  -12.1710   22.3960 H   0  0  0  0  0  0  0  0  0  0  0  0
  -21.2440  -13.2990   22.1270 H   0  0  0  0  0  0  0  0  0  0  0  0
  -25.5570  -15.3180   20.2180 N   0  0  0  0  0  0  0  0  0  0  0  0
  -24.8180  -15.9980   20.3570 H   0  0  0  0  0  0  0  0  0  0  0  0
  -26.4320  -15.7370   19.9230 H   0  0  0  0  0  0  0  0  0  0  0  0
  -29.4350  -24.3810   20.6270 C   0  0  0  0  0  0  0  0  0  0  0  0
  -29.9720  -24.4760   19.5180 O   0  0  0  0  0  0  0  0  0  0  0  0
  -28.4680  -25.5160   21.0970 C   0  0  0  0  0  2  0  0  0  0  0  0
  -28.5080  -26.7120   20.2660 O   0  0  0  0  0  0  0  0  0  0  0  0
  -24.6150  -31.8970   23.2710 C   0  0  0  0  0  0  0  0  0  0  0  0
  -27.3430  -27.4620   20.2460 C   0  0  0  0  0  0  0  0  0  0  0  0
  -23.4410  -30.4870   21.6100 C   0  0  0  0  0  3  0  0  0  0  0  0
  -24.9310  -28.9550   20.2070 C   0  0  0  0  0  0  0  0  0  0  0  0
  -25.9640  -30.8730   21.4340 C   0  0  0  0  0  2  0  0  0  0  0  0
  -26.0790  -29.4960   20.8020 C   0  0  0  0  0  0  0  0  0  0  0  0
  -27.2890  -28.7570   20.8180 C   0  0  0  0  0  3  0  0  0  0  0  0
  -26.1800  -26.9410   19.6390 C   0  0  0  0  0  3  0  0  0  0  0  0
  -24.9760  -27.6770   19.6210 C   0  0  0  0  0  3  0  0  0  0  0  0
  -23.6750  -29.7980   20.2370 C   0  0  0  0  0  2  0  0  0  0  0  0
  -24.6920  -31.1010   22.1650 N   0  0  0  0  0  0  0  0  0  0  0  0
  -23.5270  -32.1570   23.8030 O   0  0  0  0  0  0  0  0  0  0  0  0
  -22.7840  -29.4660   22.5670 C   0  0  0  0  0  0  0  0  0  0  0  0
  -21.4600  -29.2810   22.4310 N   0  0  0  0  0  0  0  0  0  0  0  0
  -23.4640  -28.8400   23.3860 O   0  0  0  0  0  0  0  0  0  0  0  0
  -20.9760  -29.8360   21.7380 H   0  0  0  0  0  0  0  0  0  0  0  0
  -18.0880  -28.0620   22.8930 C   0  0  0  0  0  0  0  0  0  0  0  0
  -20.6420  -28.3360   23.1910 C   0  0  0  0  0  3  0  0  0  0  0  0
  -20.7610  -26.9080   22.6060 C   0  0  0  0  0  2  0  0  0  0  0  0
  -19.6690  -26.5820   21.5820 C   0  0  0  0  0  2  0  0  0  0  0  0
  -18.2800  -26.7160   22.2130 C   0  0  0  0  0  2  0  0  0  0  0  0
  -19.1970  -28.8300   23.3370 C   0  0  0  0  0  0  0  0  0  0  0  0
  -18.9640  -30.0870   23.9330 C   0  0  0  0  0  3  0  0  0  0  0  0
  -17.6540  -30.5770   24.0900 C   0  0  0  0  0  3  0  0  0  0  0  0
  -16.5590  -29.8070   23.6580 C   0  0  0  0  0  3  0  0  0  0  0  0
  -16.7780  -28.5510   23.0660 C   0  0  0  0  0  3  0  0  0  0  0  0
  -25.8880  -32.5370   23.9120 C   0  0  0  0  0  3  0  0  0  0  0  0
  -26.3770  -31.7790   25.2070 C   0  0  1  0  0  0  0  0  0  0  0  0
  -25.2590  -31.5610   26.2520 C   0  0  0  0  0  1  0  0  0  0  0  0
  -26.9600  -30.3960   24.8420 C   0  0  0  0  0  1  0  0  0  0  0  0
  -27.5180  -32.5750   25.8810 C   0  0  0  0  0  1  0  0  0  0  0  0
  -25.5730  -33.9400   24.2150 N   0  0  0  0  0  0  0  0  0  0  0  0
  -25.9320  -34.9820   23.4490 C   0  0  0  0  0  0  0  0  0  0  0  0
  -26.6280  -34.8620   22.4370 O   0  0  0  0  0  0  0  0  0  0  0  0
  -24.9480  -34.1060   24.9920 H   0  0  0  0  0  0  0  0  0  0  0  0
  -24.2240  -36.7810   23.0190 C   0  0  0  0  0  1  0  0  0  0  0  0
  -25.4370  -36.3780   23.8740 C   0  0  0  0  0  3  0  0  0  0  0  0
  -27.5510  -37.2610   24.7590 C   0  0  0  0  0  1  0  0  0  0  0  0
  -26.4810  -37.4230   23.7790 N   0  0  0  0  0  0  0  0  0  0  0  0
  -26.0750  -38.3470   23.9030 H   0  0  0  0  0  0  0  0  0  0  0  0
  1  2  2  0
  1  7  1  0
  3  4  1  0
  5  6  1  0
  5  7  2  0
  6  3  2  0
  7  8  1  0
  8  4  2  0
  8  9  1  0
 10 11  2  0
 10  6  1  0
 12 11  1  0
 13 18  1  0
 14 15  1  0
 14 13  1  0
 16 15  1  0
 16 23  1  0
 16 17  1  0
 18 12  1  0
 18 17  1  0
 19 12  2  0
 20 21  2  0
 21 40  1  0
 22 21  1  0
 22 25  1  0
 23 20  1  0
 23 24  1  0
 24 22  2  0
 25 26  1  0
 26 27  2  0
 28 31  1  0
 28 27  1  0
 29 28  2  0
 30 29  1  0
 30 25  2  0
 31 32  1  0
 32 33  1  0
 33 34  2  0
 35 34  1  0
 35 39  1  0
 36 35  2  0
 37 32  2  0
 37 36  1  0
 38 37  1  0
 40 41  1  0
 41 44  1  0
 41 43  1  0
 42 40  2  0
 45 46  1  0
 45 20  1  0
 47 45  1  0
 48 50  1  0
 48  2  1  0
 49 48  2  0
 51 50  1  0
 52 63  2  0
 53 51  1  0
 53 58  1  0
 54 62  1  0
 54 64  1  0
 55 61  1  0
 55 57  1  0
 56 62  1  0
 57 58  2  0
 57 56  1  0
 59 53  2  0
 60 59  1  0
 60 55  2  0
 61 54  1  0
 62 52  1  0
 64 66  2  0
 65 64  1  0
 67 65  1  0
 68 77  2  0
 68 73  1  0
 69 65  1  0
 69 73  1  0
 70 69  1  0
 71 72  1  0
 71 70  1  0
 72 68  1  0
 73 74  2  0
 74 75  1  0
 76 75  2  0
 77 76  1  0
 78 52  1  0
 78 83  1  0
 78 79  1  0
 79 82  1  1
 79 80  1  0
 81 79  1  0
 83 86  1  0
 84 88  1  0
 84 83  1  0
 85 84  2  0
 88 87  1  0
 90 88  1  0
 90 91  1  0
 90 89  1  0
M  ISO  4  11 100  12 100  50 101  51 101
M  END
>  <TORSDO>  (44) 
F 20

>  <SCORE>  (44) 
-13.586

>  <name>  (44) 
43

>  <ligand_id>  (44) 
43

>  <original_smiles>  (44) 
[H]C(C(=O)N1C([H])([H])C([H])([H])C([H])([H])C([H])(n2nc(-c3c([H])c([H])c(Oc4c([H])c([H])c(F)c([H])c4F)c([H])c3[H])c(C(=O)N([H])[H])c2N([H])[H])C1([H])[H])=C([H])c1c([H])c([H])c(C([H])([H])[H])c(C([H])=C([H])C(=O)C([H])([H])Oc2c([H])c([H])c3c(c2[H])C([H])([H])N(C(=O)C([H])(N([H])C(=O)C([H])(N([H])C([H])([H])[H])C([H])([H])[H])C(C([H])([H])[H])(C([H])([H])[H])C([H])([H])[H])C([H])(C(=O)N([H])C2([H])c4c([H])c([H])c([H])c([H])c4C([H])([H])C([H])([H])C2([H])[H])C3([H])[H])c1[H]

>  <smiles>  (44) 
[H]C(C(=O)N1C([H])([H])C([H])([H])C([H])([H])C([H])(n2nc(-c3c([H])c([H])c(Oc4c([H])c([H])c(F)c([H])c4F)c([H])c3[H])c(C(=O)N([H])[H])c2N([H])[H])C1([H])[H])=C([H])c1c([H])c([H])c(C([H])([H])[H])c(C([H])=C([H])C(=O)C([H])([H])Oc2c([H])c([H])c3c(c2[H])C([H])([H])N(C(=O)C([H])(N([H])C(=O)C([H])(N([H])C([H])([H])[H])C([H])([H])[H])C(C([H])([H])[H])(C([H])([H])[H])C([H])([H])[H])C([H])(C(=O)N([H])C2([H])c4c([H])c([H])c([H])c([H])c4C([H])([H])C([H])([H])C2([H])[H])C3([H])[H])c1[H]

$$$$
44:0:0
     RDKit          3D

 88 96  0  0  1  0  0  0  0  0999 V2000
  -29.3290  -22.0320   21.1280 C   0  0  0  0  0  3  0  0  0  0  0  0
  -29.4880  -22.9610   20.1530 C   0  0  0  0  0  3  0  0  0  0  0  0
  -29.9710  -19.6920   20.0420 C   0  0  0  0  0  3  0  0  0  0  0  0
  -29.0010  -19.7040   22.0500 C   0  0  0  0  0  3  0  0  0  0  0  0
  -29.4330  -20.5420   21.0610 C   0  0  0  0  0  0  0  0  0  0  0  0
  -29.9060  -18.3960   20.5210 C   0  0  0  0  0  0  0  0  0  0  0  0
  -29.2790  -18.4020   21.7360 O   0  0  0  0  0  0  0  0  0  0  0  0
  -30.3770  -17.1180   20.0260 C   0  0  0  0  0  3  0  0  0  0  0  0
  -30.2340  -15.8530   20.5130 C   0  0  0  0  0  3  0  0  0  0  0  0
  -30.8840  -14.7070   19.8450 C   0  0  0  0  0  0  0  0  0  0  0  0
  -30.4650  -12.5580   18.7000 C   0  0  0  0  0  2  0  0  0  0  0  0
  -29.4160  -12.7960   17.5930 C   0  0  0  0  0  2  0  0  0  0  0  0
  -27.9880  -12.6490   18.1560 C   0  0  0  0  0  2  0  0  0  0  0  0
  -27.7810  -13.4440   19.4740 C   0  0  0  0  0  3  0  0  0  0  0  0
  -28.9390  -13.1910   20.4650 C   0  0  0  0  0  2  0  0  0  0  0  0
  -30.1990  -13.5250   19.7830 N   0  0  0  0  0  0  0  0  0  0  0  0
  -31.9650  -14.8400   19.2630 O   0  0  0  0  0  0  0  0  0  0  0  0
  -25.4870  -14.0350   20.4740 C   0  0  0  0  0  0  0  0  0  0  0  0
  -24.4470  -13.2560   20.9050 C   0  0  0  0  0  0  0  0  0  0  0  0
  -24.8720  -11.9020   20.7390 C   0  0  0  0  0  0  0  0  0  0  0  0
  -26.4820  -13.1540   20.0760 N   0  0  0  0  0  0  0  0  0  0  0  0
  -26.1210  -11.8630   20.2920 N   0  0  0  0  0  0  0  0  0  0  0  0
  -24.1410  -10.6410   20.9260 C   0  0  0  0  0  0  0  0  0  0  0  0
  -24.5870   -9.6570   21.8360 C   0  0  0  0  0  3  0  0  0  0  0  0
  -23.8580   -8.4620   22.0130 C   0  0  0  0  0  3  0  0  0  0  0  0
  -22.6670   -8.2420   21.2790 C   0  0  0  0  0  0  0  0  0  0  0  0
  -22.2400   -9.2150   20.3590 C   0  0  0  0  0  3  0  0  0  0  0  0
  -22.9690  -10.4020   20.1800 C   0  0  0  0  0  3  0  0  0  0  0  0
  -21.9080   -7.1000   21.3650 O   0  0  0  0  0  0  0  0  0  0  0  0
  -21.7830   -6.4050   22.5410 C   0  0  0  0  0  0  0  0  0  0  0  0
  -21.2610   -7.0040   23.7080 C   0  0  0  0  0  3  0  0  0  0  0  0
  -21.0850   -6.2340   24.8750 C   0  0  0  0  0  3  0  0  0  0  0  0
  -21.4230   -4.8670   24.8770 C   0  0  0  0  0  0  0  0  0  0  0  0
  -21.9400   -4.2690   23.7140 C   0  0  0  0  0  3  0  0  0  0  0  0
  -22.1160   -5.0360   22.5480 C   0  0  0  0  0  0  0  0  0  0  0  0
  -22.5950   -4.4500   21.4250 F   0  0  0  0  0  0  0  0  0  0  0  0
  -21.2480   -4.1260   25.9950 F   0  0  0  0  0  0  0  0  0  0  0  0
  -23.0980  -13.7370   21.3560 C   0  0  0  0  0  0  0  0  0  0  0  0
  -22.4560  -13.0050   22.2600 N   0  0  0  0  0  0  0  0  0  0  0  0
  -22.6240  -14.7950   20.9420 O   0  0  0  0  0  0  0  0  0  0  0  0
  -22.8540  -12.1480   22.6160 H   0  0  0  0  0  0  0  0  0  0  0  0
  -21.5550  -13.3070   22.6030 H   0  0  0  0  0  0  0  0  0  0  0  0
  -25.6650  -15.4110   20.3690 N   0  0  0  0  0  0  0  0  0  0  0  0
  -24.9330  -16.0710   20.6050 H   0  0  0  0  0  0  0  0  0  0  0  0
  -26.4980  -15.8560   20.0060 H   0  0  0  0  0  0  0  0  0  0  0  0
  -29.4790  -24.4900   20.3800 C   0  0  0  0  0  2  0  0  0  0  0  0
  -28.3050  -25.2890   19.7440 C   0  0  0  0  0  2  0  0  0  0  0  0
  -28.3690  -26.7190   20.0120 O   0  0  0  0  0  0  0  0  0  0  0  0
  -24.4230  -31.7520   23.2000 C   0  0  0  0  0  0  0  0  0  0  0  0
  -27.1820  -27.4440   19.9910 C   0  0  0  0  0  0  0  0  0  0  0  0
  -23.2470  -30.3380   21.5490 C   0  0  0  0  0  3  0  0  0  0  0  0
  -24.7370  -28.8930   20.0630 C   0  0  0  0  0  0  0  0  0  0  0  0
  -25.7580  -30.7920   21.3210 C   0  0  0  0  0  2  0  0  0  0  0  0
  -25.8870  -29.4370   20.6470 C   0  0  0  0  0  0  0  0  0  0  0  0
  -27.1110  -28.7220   20.6060 C   0  0  0  0  0  3  0  0  0  0  0  0
  -26.0110  -26.9360   19.3830 C   0  0  0  0  0  3  0  0  0  0  0  0
  -24.7960  -27.6440   19.4240 C   0  0  0  0  0  3  0  0  0  0  0  0
  -23.4620  -29.7020   20.1490 C   0  0  0  0  0  2  0  0  0  0  0  0
  -24.4950  -30.9760   22.0810 N   0  0  0  0  0  0  0  0  0  0  0  0
  -23.3400  -31.9690   23.7620 O   0  0  0  0  0  0  0  0  0  0  0  0
  -22.6540  -29.2690   22.4970 C   0  0  0  0  0  0  0  0  0  0  0  0
  -21.3420  -29.0140   22.3660 N   0  0  0  0  0  0  0  0  0  0  0  0
  -23.3710  -28.6760   23.3060 O   0  0  0  0  0  0  0  0  0  0  0  0
  -20.8210  -29.5490   21.6840 H   0  0  0  0  0  0  0  0  0  0  0  0
  -18.0420  -27.6170   22.8400 C   0  0  0  0  0  0  0  0  0  0  0  0
  -20.5790  -28.0230   23.1250 C   0  0  0  0  0  3  0  0  0  0  0  0
  -20.7680  -26.6060   22.5360 C   0  0  0  0  0  2  0  0  0  0  0  0
  -19.6900  -26.2280   21.5140 C   0  0  0  0  0  2  0  0  0  0  0  0
  -18.3000  -26.2860   22.1540 C   0  0  0  0  0  2  0  0  0  0  0  0
  -19.1120  -28.4400   23.2810 C   0  0  0  0  0  0  0  0  0  0  0  0
  -18.8170  -29.6820   23.8820 C   0  0  0  0  0  3  0  0  0  0  0  0
  -17.4860  -30.1050   24.0470 C   0  0  0  0  0  3  0  0  0  0  0  0
  -16.4300  -29.2800   23.6230 C   0  0  0  0  0  3  0  0  0  0  0  0
  -16.7090  -28.0390   23.0240 C   0  0  0  0  0  3  0  0  0  0  0  0
  -25.6920  -32.4240   23.8130 C   0  0  0  0  0  3  0  0  0  0  0  0
  -26.2320  -31.6780   25.0940 C   0  0  1  0  0  0  0  0  0  0  0  0
  -25.1470  -31.4160   26.1640 C   0  0  0  0  0  1  0  0  0  0  0  0
  -26.8580  -30.3170   24.7110 C   0  0  0  0  0  1  0  0  0  0  0  0
  -27.3580  -32.5120   25.7500 C   0  0  0  0  0  1  0  0  0  0  0  0
  -25.3470  -33.8160   24.1280 N   0  0  0  0  0  0  0  0  0  0  0  0
  -25.6300  -34.8660   23.3460 C   0  0  0  0  0  0  0  0  0  0  0  0
  -26.2810  -34.7680   22.3020 O   0  0  0  0  0  0  0  0  0  0  0  0
  -24.7650  -33.9650   24.9390 H   0  0  0  0  0  0  0  0  0  0  0  0
  -23.8360  -36.5960   23.0050 C   0  0  0  0  0  1  0  0  0  0  0  0
  -25.1080  -36.2450   23.7930 C   0  0  0  0  0  3  0  0  0  0  0  0
  -27.2280  -37.2170   24.5640 C   0  0  0  0  0  1  0  0  0  0  0  0
  -26.1030  -37.3300   23.6390 N   0  0  0  0  0  0  0  0  0  0  0  0
  -25.6700  -38.2390   23.7760 H   0  0  0  0  0  0  0  0  0  0  0  0
  2 46  1  0
  2  1  2  0
  3  6  2  0
  3  5  1  0
  5  1  1  0
  5  4  2  0
  6  7  1  0
  7  4  1  0
  8  9  2  0
  8  6  1  0
 10  9  1  0
 11 16  1  0
 12 13  1  0
 12 11  1  0
 14 13  1  0
 14 21  1  0
 14 15  1  0
 16 10  1  0
 16 15  1  0
 17 10  2  0
 18 19  2  0
 19 38  1  0
 20 19  1  0
 20 23  1  0
 21 22  1  0
 21 18  1  0
 22 20  2  0
 23 24  1  0
 24 25  2  0
 26 29  1  0
 26 25  1  0
 27 26  2  0
 28 27  1  0
 28 23  2  0
 29 30  1  0
 30 35  2  0
 30 31  1  0
 31 32  2  0
 32 33  1  0
 33 37  1  0
 34 33  2  0
 35 34  1  0
 36 35  1  0
 38 39  1  0
 39 42  1  0
 39 41  1  0
 40 38  2  0
 43 18  1  0
 43 44  1  0
 45 43  1  0
 47 48  1  0
 47 46  1  0
 49 60  2  0
 50 48  1  0
 50 55  1  0
 51 59  1  0
 51 61  1  0
 52 58  1  0
 52 54  1  0
 53 59  1  0
 54 53  1  0
 55 54  2  0
 56 57  1  0
 56 50  2  0
 57 52  2  0
 58 51  1  0
 59 49  1  0
 61 63  2  0
 62 61  1  0
 64 62  1  0
 65 74  2  0
 65 70  1  0
 66 62  1  0
 66 70  1  0
 67 66  1  0
 68 69  1  0
 68 67  1  0
 69 65  1  0
 70 71  2  0
 71 72  1  0
 73 72  2  0
 74 73  1  0
 75 49  1  0
 75 80  1  0
 75 76  1  0
 76 79  1  1
 76 77  1  0
 78 76  1  0
 80 83  1  0
 81 85  1  0
 81 80  1  0
 82 81  2  0
 85 84  1  0
 87 88  1  0
 87 85  1  0
 87 86  1  0
M  ISO  4   9 100  10 100  47 101  48 101
M  END
>  <TORSDO>  (45) 
F 20

>  <SCORE>  (45) 
-10.836

>  <name>  (45) 
44

>  <ligand_id>  (45) 
44

>  <original_smiles>  (45) 
[H]C(C(=O)N1C([H])([H])C([H])([H])C([H])([H])C([H])(n2nc(-c3c([H])c([H])c(Oc4c([H])c([H])c(F)c([H])c4F)c([H])c3[H])c(C(=O)N([H])[H])c2N([H])[H])C1([H])[H])=C([H])c1oc([H])c(C([H])=C([H])C([H])([H])C([H])([H])Oc2c([H])c([H])c3c(c2[H])C([H])([H])N(C(=O)C([H])(N([H])C(=O)C([H])(N([H])C([H])([H])[H])C([H])([H])[H])C(C([H])([H])[H])(C([H])([H])[H])C([H])([H])[H])C([H])(C(=O)N([H])C2([H])c4c([H])c([H])c([H])c([H])c4C([H])([H])C([H])([H])C2([H])[H])C3([H])[H])c1[H]

>  <smiles>  (45) 
[H]C(C(=O)N1C([H])([H])C([H])([H])C([H])([H])C([H])(n2nc(-c3c([H])c([H])c(Oc4c([H])c([H])c(F)c([H])c4F)c([H])c3[H])c(C(=O)N([H])[H])c2N([H])[H])C1([H])[H])=C([H])c1oc([H])c(C([H])=C([H])C([H])([H])C([H])([H])Oc2c([H])c([H])c3c(c2[H])C([H])([H])N(C(=O)C([H])(N([H])C(=O)C([H])(N([H])C([H])([H])[H])C([H])([H])[H])C(C([H])([H])[H])(C([H])([H])[H])C([H])([H])[H])C([H])(C(=O)N([H])C2([H])c4c([H])c([H])c([H])c([H])c4C([H])([H])C([H])([H])C2([H])[H])C3([H])[H])c1[H]

$$$$
45:0:0
     RDKit          3D

 91 99  0  0  1  0  0  0  0  0999 V2000
  -30.3340  -22.0550   20.0430 O   0  0  0  0  0  0  0  0  0  0  0  0
  -29.5570  -18.6250   21.3980 C   0  0  0  0  0  3  0  0  0  0  0  0
  -31.6830  -18.6140   20.2330 C   0  0  0  0  0  3  0  0  0  0  0  0
  -29.3790  -19.9930   21.0650 C   0  0  0  0  0  3  0  0  0  0  0  0
  -31.5070  -19.9770   19.9060 C   0  0  0  0  0  3  0  0  0  0  0  0
  -30.7260  -17.9310   21.0130 C   0  0  0  0  0  0  0  0  0  0  0  0
  -30.3730  -20.6990   20.3390 C   0  0  0  0  0  0  0  0  0  0  0  0
  -31.0330  -16.5260   21.5520 C   0  0  0  0  0  2  0  0  0  0  0  0
  -30.8150  -14.4540   20.1670 C   0  0  0  0  0  0  0  0  0  0  0  0
  -30.3890  -12.3600   18.9220 C   0  0  0  0  0  2  0  0  0  0  0  0
  -29.3880  -12.6000   17.7760 C   0  0  0  0  0  2  0  0  0  0  0  0
  -27.9390  -12.4620   18.2800 C   0  0  0  0  0  2  0  0  0  0  0  0
  -27.6780  -13.2710   19.5790 C   0  0  0  0  0  3  0  0  0  0  0  0
  -28.7850  -13.0130   20.6240 C   0  0  0  0  0  2  0  0  0  0  0  0
  -30.0820  -13.3190   19.9960 N   0  0  0  0  0  0  0  0  0  0  0  0
  -31.8870  -14.6470   19.5870 O   0  0  0  0  0  0  0  0  0  0  0  0
  -30.2940  -15.3890   20.9820 N   0  0  0  0  0  0  0  0  0  0  0  0
  -29.3890  -15.1880   21.3790 H   0  0  0  0  0  0  0  0  0  0  0  0
  -25.3200  -13.8850   20.4050 C   0  0  0  0  0  0  0  0  0  0  0  0
  -24.2640  -13.1160   20.8150 C   0  0  0  0  0  0  0  0  0  0  0  0
  -24.7120  -11.7610   20.7470 C   0  0  0  0  0  0  0  0  0  0  0  0
  -26.3460  -12.9990   20.1190 N   0  0  0  0  0  0  0  0  0  0  0  0
  -25.9870  -11.7170   20.3800 N   0  0  0  0  0  0  0  0  0  0  0  0
  -23.9860  -10.5020   20.9550 C   0  0  0  0  0  0  0  0  0  0  0  0
  -24.4350   -9.5350   21.8810 C   0  0  0  0  0  3  0  0  0  0  0  0
  -23.7100   -8.3390   22.0770 C   0  0  0  0  0  3  0  0  0  0  0  0
  -22.5200   -8.1040   21.3480 C   0  0  0  0  0  0  0  0  0  0  0  0
  -22.0910   -9.0590   20.4110 C   0  0  0  0  0  3  0  0  0  0  0  0
  -22.8160  -10.2460   20.2130 C   0  0  0  0  0  3  0  0  0  0  0  0
  -21.7650   -6.9620   21.4540 O   0  0  0  0  0  0  0  0  0  0  0  0
  -21.7180   -6.2350   22.6170 C   0  0  0  0  0  0  0  0  0  0  0  0
  -21.2870   -6.8050   23.8340 C   0  0  0  0  0  3  0  0  0  0  0  0
  -21.1880   -6.0040   24.9900 C   0  0  0  0  0  3  0  0  0  0  0  0
  -21.5090   -4.6350   24.9280 C   0  0  0  0  0  0  0  0  0  0  0  0
  -21.9320   -4.0650   23.7150 C   0  0  0  0  0  3  0  0  0  0  0  0
  -22.0330   -4.8620   22.5620 C   0  0  0  0  0  0  0  0  0  0  0  0
  -22.4220   -4.3030   21.3900 F   0  0  0  0  0  0  0  0  0  0  0  0
  -21.4060   -3.8630   26.0360 F   0  0  0  0  0  0  0  0  0  0  0  0
  -22.8840  -13.6000   21.1560 C   0  0  0  0  0  0  0  0  0  0  0  0
  -22.1910  -12.8970   22.0460 N   0  0  0  0  0  0  0  0  0  0  0  0
  -22.4310  -14.6350   20.6710 O   0  0  0  0  0  0  0  0  0  0  0  0
  -22.5710  -12.0590   22.4600 H   0  0  0  0  0  0  0  0  0  0  0  0
  -21.2670  -13.2010   22.3170 H   0  0  0  0  0  0  0  0  0  0  0  0
  -25.4880  -15.2570   20.2360 N   0  0  0  0  0  0  0  0  0  0  0  0
  -24.7350  -15.9180   20.3870 H   0  0  0  0  0  0  0  0  0  0  0  0
  -26.3310  -15.6910   19.8810 H   0  0  0  0  0  0  0  0  0  0  0  0
  -29.1920  -22.8320   20.4390 C   0  0  0  0  0  2  0  0  0  0  0  0
  -29.4460  -24.3510   20.2640 C   0  0  0  0  0  0  0  0  0  0  0  0
  -30.5730  -24.8430   20.4060 O   0  0  0  0  0  0  0  0  0  0  0  0
  -28.2230  -25.2180   19.9040 C   0  0  0  0  0  2  0  0  0  0  0  0
  -28.3810  -26.6260   20.2090 O   0  0  0  0  0  0  0  0  0  0  0  0
  -24.5870  -31.8870   23.2230 C   0  0  0  0  0  0  0  0  0  0  0  0
  -27.2180  -27.3850   20.1780 C   0  0  0  0  0  0  0  0  0  0  0  0
  -23.3790  -30.4710   21.5980 C   0  0  0  0  0  3  0  0  0  0  0  0
  -24.8270  -28.9220   20.1840 C   0  0  0  0  0  0  0  0  0  0  0  0
  -25.9090  -30.8160   21.3980 C   0  0  0  0  0  2  0  0  0  0  0  0
  -25.9910  -29.4390   20.7660 C   0  0  0  0  0  0  0  0  0  0  0  0
  -27.1890  -28.6790   20.7590 C   0  0  0  0  0  3  0  0  0  0  0  0
  -26.0270  -26.8980   19.5830 C   0  0  0  0  0  3  0  0  0  0  0  0
  -24.8420  -27.6510   19.5900 C   0  0  0  0  0  3  0  0  0  0  0  0
  -23.5860  -29.7830   20.2250 C   0  0  0  0  0  2  0  0  0  0  0  0
  -24.6440  -31.0730   22.1310 N   0  0  0  0  0  0  0  0  0  0  0  0
  -23.5060  -32.1660   23.7590 O   0  0  0  0  0  0  0  0  0  0  0  0
  -22.7260  -29.4590   22.5680 C   0  0  0  0  0  0  0  0  0  0  0  0
  -21.4010  -29.2790   22.4450 N   0  0  0  0  0  0  0  0  0  0  0  0
  -23.4090  -28.8390   23.3870 O   0  0  0  0  0  0  0  0  0  0  0  0
  -20.9100  -29.8310   21.7550 H   0  0  0  0  0  0  0  0  0  0  0  0
  -18.0220  -28.1070   22.9670 C   0  0  0  0  0  0  0  0  0  0  0  0
  -20.5830  -28.3510   23.2250 C   0  0  0  0  0  3  0  0  0  0  0  0
  -20.6730  -26.9150   22.6580 C   0  0  0  0  0  2  0  0  0  0  0  0
  -19.5650  -26.5930   21.6510 C   0  0  0  0  0  2  0  0  0  0  0  0
  -18.1870  -26.7520   22.3010 C   0  0  0  0  0  2  0  0  0  0  0  0
  -19.1470  -28.8640   23.3870 C   0  0  0  0  0  0  0  0  0  0  0  0
  -18.9390  -30.1340   23.9700 C   0  0  0  0  0  3  0  0  0  0  0  0
  -17.6380  -30.6450   24.1380 C   0  0  0  0  0  3  0  0  0  0  0  0
  -16.5270  -29.8830   23.7350 C   0  0  0  0  0  3  0  0  0  0  0  0
  -16.7200  -28.6170   23.1550 C   0  0  0  0  0  3  0  0  0  0  0  0
  -25.8740  -32.5240   23.8350 C   0  0  0  0  0  3  0  0  0  0  0  0
  -25.5650  -33.9230   24.1560 N   0  0  0  0  0  0  0  0  0  0  0  0
  -25.9000  -34.9700   23.3900 C   0  0  0  0  0  0  0  0  0  0  0  0
  -26.5750  -34.8600   22.3630 O   0  0  0  0  0  0  0  0  0  0  0  0
  -24.9670  -34.0830   24.9540 H   0  0  0  0  0  0  0  0  0  0  0  0
  -24.1820  -36.7650   23.0080 C   0  0  0  0  0  1  0  0  0  0  0  0
  -25.4120  -36.3610   23.8380 C   0  0  0  0  0  3  0  0  0  0  0  0
  -27.5370  -37.2420   24.6950 C   0  0  0  0  0  1  0  0  0  0  0  0
  -26.4480  -37.4110   23.7350 N   0  0  0  0  0  0  0  0  0  0  0  0
  -26.0430  -38.3330   23.8750 H   0  0  0  0  0  0  0  0  0  0  0  0
  -26.3970  -31.7600   25.1120 C   0  0  1  0  0  0  0  0  0  0  0  0
  -25.3090  -31.5260   26.1860 C   0  0  0  0  0  1  0  0  0  0  0  0
  -26.9820  -30.3820   24.7240 C   0  0  0  0  0  1  0  0  0  0  0  0
  -27.5480  -32.5600   25.7660 C   0  0  0  0  0  1  0  0  0  0  0  0
  1  7  1  0
  1 47  1  0
  3  6  1  0
  4  2  1  0
  5  3  2  0
  5  7  1  0
  6  2  2  0
  6  8  1  0
  7  4  2  0
  9 17  1  0
 10 15  1  0
 11 12  1  0
 11 10  1  0
 13 12  1  0
 13 22  1  0
 13 14  1  0
 15  9  1  0
 15 14  1  0
 16  9  2  0
 17 18  1  0
 17  8  1  0
 19 20  2  0
 20 39  1  0
 21 20  1  0
 21 24  1  0
 22 23  1  0
 22 19  1  0
 23 21  2  0
 24 25  1  0
 25 26  2  0
 27 30  1  0
 27 26  1  0
 28 27  2  0
 29 28  1  0
 29 24  2  0
 30 31  1  0
 31 32  1  0
 32 33  2  0
 34 33  1  0
 34 38  1  0
 35 34  2  0
 36 31  2  0
 36 35  1  0
 37 36  1  0
 39 40  1  0
 40 43  1  0
 40 42  1  0
 41 39  2  0
 44 45  1  0
 44 19  1  0
 46 44  1  0
 48 49  2  0
 48 47  1  0
 50 51  1  0
 50 48  1  0
 52 63  2  0
 53 51  1  0
 53 58  1  0
 54 62  1  0
 54 64  1  0
 55 61  1  0
 55 57  1  0
 56 62  1  0
 57 56  1  0
 58 57  2  0
 59 60  1  0
 59 53  2  0
 60 55  2  0
 61 54  1  0
 62 52  1  0
 64 66  2  0
 65 64  1  0
 67 65  1  0
 68 77  2  0
 68 73  1  0
 69 65  1  0
 69 73  1  0
 70 69  1  0
 71 72  1  0
 71 70  1  0
 72 68  1  0
 73 74  2  0
 74 75  1  0
 76 75  2  0
 77 76  1  0
 78 52  1  0
 78 79  1  0
 78 88  1  0
 79 82  1  0
 80 84  1  0
 80 79  1  0
 81 80  2  0
 84 83  1  0
 86 84  1  0
 86 87  1  0
 86 85  1  0
 88 91  1  1
 88 89  1  0
 90 88  1  0
M  ISO  4   9 100  17 100  50 101  51 101
M  END
>  <TORSDO>  (46) 
F 21

>  <SCORE>  (46) 
-13.104

>  <name>  (46) 
45

>  <ligand_id>  (46) 
45

>  <original_smiles>  (46) 
[H]c1c([H])c([H])c2c(c1[H])C([H])([H])C([H])([H])C([H])([H])C2([H])N([H])C(=O)C1([H])N(C(=O)C([H])(N([H])C(=O)C([H])(N([H])C([H])([H])[H])C([H])([H])[H])C(C([H])([H])[H])(C([H])([H])[H])C([H])([H])[H])C([H])([H])c2c([H])c(OC([H])([H])C(=O)C([H])([H])Oc3c([H])c([H])c(C([H])([H])N([H])C(=O)N4C([H])([H])C([H])([H])C([H])([H])C([H])(n5nc(-c6c([H])c([H])c(Oc7c([H])c([H])c(F)c([H])c7F)c([H])c6[H])c(C(=O)N([H])[H])c5N([H])[H])C4([H])[H])c([H])c3[H])c([H])c([H])c2C1([H])[H]

>  <smiles>  (46) 
[H]c1c([H])c([H])c2c(c1[H])C([H])([H])C([H])([H])C([H])([H])C2([H])N([H])C(=O)C1([H])N(C(=O)C([H])(N([H])C(=O)C([H])(N([H])C([H])([H])[H])C([H])([H])[H])C(C([H])([H])[H])(C([H])([H])[H])C([H])([H])[H])C([H])([H])c2c([H])c(OC([H])([H])C(=O)C([H])([H])Oc3c([H])c([H])c(C([H])([H])N([H])C(=O)N4C([H])([H])C([H])([H])C([H])([H])C([H])(n5nc(-c6c([H])c([H])c(Oc7c([H])c([H])c(F)c([H])c7F)c([H])c6[H])c(C(=O)N([H])[H])c5N([H])[H])C4([H])[H])c([H])c3[H])c([H])c([H])c2C1([H])[H]

$$$$
46:0:0
     RDKit          3D

 91 99  0  0  1  0  0  0  0  0999 V2000
  -30.6580  -19.9040   19.7780 C   0  0  0  0  0  3  0  0  0  0  0  0
  -30.5080  -21.3370   19.7230 C   0  0  0  0  0  3  0  0  0  0  0  0
  -28.6260  -19.7580   21.0420 C   0  0  0  0  0  2  0  0  0  0  0  0
  -29.7120  -19.0710   20.4560 C   0  0  0  0  0  0  0  0  0  0  0  0
  -28.4750  -21.1640   21.0070 C   0  0  0  0  0  0  0  0  0  0  0  0
  -29.4120  -22.0040   20.3500 C   0  0  0  0  0  0  0  0  0  0  0  0
  -29.6930  -17.5710   20.7400 C   0  0  0  0  0  0  0  0  0  0  0  0
  -29.8450  -16.1990   20.8310 C   0  0  0  0  0  3  0  0  0  0  0  0
  -30.6280  -15.1460   20.1200 C   0  0  0  0  0  0  0  0  0  0  0  0
  -30.5890  -12.7860   19.2830 C   0  0  0  0  0  2  0  0  0  0  0  0
  -29.6260  -12.6700   18.0790 C   0  0  0  0  0  2  0  0  0  0  0  0
  -28.1750  -12.4430   18.5510 C   0  0  0  0  0  2  0  0  0  0  0  0
  -27.7570  -13.4330   19.6680 C   0  0  0  0  0  3  0  0  0  0  0  0
  -28.8260  -13.4640   20.7790 C   0  0  0  0  0  2  0  0  0  0  0  0
  -30.1060  -13.8720   20.1650 N   0  0  0  0  0  0  0  0  0  0  0  0
  -31.6950  -15.3680   19.5390 O   0  0  0  0  0  0  0  0  0  0  0  0
  -25.3870  -13.9890   20.4990 C   0  0  0  0  0  0  0  0  0  0  0  0
  -24.3430  -13.1940   20.8910 C   0  0  0  0  0  0  0  0  0  0  0  0
  -24.8180  -11.8500   20.8020 C   0  0  0  0  0  0  0  0  0  0  0  0
  -26.4310  -13.1270   20.1980 N   0  0  0  0  0  0  0  0  0  0  0  0
  -26.0960  -11.8340   20.4380 N   0  0  0  0  0  0  0  0  0  0  0  0
  -24.1170  -10.5720   20.9890 C   0  0  0  0  0  0  0  0  0  0  0  0
  -24.5770   -9.6050   21.9100 C   0  0  0  0  0  3  0  0  0  0  0  0
  -23.8760   -8.3920   22.0840 C   0  0  0  0  0  3  0  0  0  0  0  0
  -22.7020   -8.1410   21.3360 C   0  0  0  0  0  0  0  0  0  0  0  0
  -22.2620   -9.0960   20.4040 C   0  0  0  0  0  3  0  0  0  0  0  0
  -22.9640  -10.2990   20.2280 C   0  0  0  0  0  3  0  0  0  0  0  0
  -21.9680   -6.9830   21.4210 O   0  0  0  0  0  0  0  0  0  0  0  0
  -21.9060   -6.2530   22.5810 C   0  0  0  0  0  0  0  0  0  0  0  0
  -21.4340   -6.8110   23.7880 C   0  0  0  0  0  3  0  0  0  0  0  0
  -21.3250   -6.0060   24.9390 C   0  0  0  0  0  3  0  0  0  0  0  0
  -21.6730   -4.6440   24.8830 C   0  0  0  0  0  0  0  0  0  0  0  0
  -22.1340   -4.0850   23.6780 C   0  0  0  0  0  3  0  0  0  0  0  0
  -22.2480   -4.8870   22.5300 C   0  0  0  0  0  0  0  0  0  0  0  0
  -22.6760   -4.3400   21.3670 F   0  0  0  0  0  0  0  0  0  0  0  0
  -21.5590   -3.8670   25.9850 F   0  0  0  0  0  0  0  0  0  0  0  0
  -22.9530  -13.6440   21.2370 C   0  0  0  0  0  0  0  0  0  0  0  0
  -22.2830  -12.9280   22.1340 N   0  0  0  0  0  0  0  0  0  0  0  0
  -22.4690  -14.6640   20.7460 O   0  0  0  0  0  0  0  0  0  0  0  0
  -22.6930  -12.1060   22.5520 H   0  0  0  0  0  0  0  0  0  0  0  0
  -21.3530  -13.2050   22.4100 H   0  0  0  0  0  0  0  0  0  0  0  0
  -25.5300  -15.3660   20.3520 N   0  0  0  0  0  0  0  0  0  0  0  0
  -24.7670  -16.0130   20.5190 H   0  0  0  0  0  0  0  0  0  0  0  0
  -26.3770  -15.8200   20.0340 H   0  0  0  0  0  0  0  0  0  0  0  0
  -27.2770  -21.7750   21.7210 C   0  0  0  0  0  2  0  0  0  0  0  0
  -25.9400  -23.9430   21.7670 C   0  0  0  0  0  1  0  0  0  0  0  0
  -26.5810  -22.8610   20.8890 C   0  0  0  0  0  2  0  0  0  0  0  0
  -29.1480  -23.3870   20.4310 O   0  0  0  0  0  0  0  0  0  0  0  0
  -29.5840  -24.4470   19.5290 C   0  0  0  0  0  2  0  0  0  0  0  0
  -28.8690  -25.8110   19.9580 C   0  0  0  0  0  2  0  0  0  0  0  0
  -28.6700  -26.9480   19.0350 O   0  0  0  0  0  0  0  0  0  0  0  0
  -24.5690  -31.4620   22.8990 C   0  0  0  0  0  0  0  0  0  0  0  0
  -27.4700  -27.6600   19.1730 C   0  0  0  0  0  0  0  0  0  0  0  0
  -23.4250  -30.1620   21.1400 C   0  0  0  0  0  3  0  0  0  0  0  0
  -24.9490  -28.9700   19.4660 C   0  0  0  0  0  0  0  0  0  0  0  0
  -25.9020  -30.7780   20.8970 C   0  0  0  0  0  2  0  0  0  0  0  0
  -26.0890  -29.5110   20.0740 C   0  0  0  0  0  0  0  0  0  0  0  0
  -27.3520  -28.8700   19.9190 C   0  0  0  0  0  3  0  0  0  0  0  0
  -26.3060  -27.1680   18.5460 C   0  0  0  0  0  3  0  0  0  0  0  0
  -25.0560  -27.8000   18.6980 C   0  0  0  0  0  3  0  0  0  0  0  0
  -23.6310  -29.6890   19.6780 C   0  0  0  0  0  2  0  0  0  0  0  0
  -24.6510  -30.8130   21.7020 N   0  0  0  0  0  0  0  0  0  0  0  0
  -23.4950  -31.5510   23.5110 O   0  0  0  0  0  0  0  0  0  0  0  0
  -22.9200  -28.9680   21.9850 C   0  0  0  0  0  0  0  0  0  0  0  0
  -21.6330  -28.6140   21.8270 N   0  0  0  0  0  0  0  0  0  0  0  0
  -23.6860  -28.3640   22.7400 O   0  0  0  0  0  0  0  0  0  0  0  0
  -21.0660  -29.1560   21.1880 H   0  0  0  0  0  0  0  0  0  0  0  0
  -18.4760  -26.8830   22.1430 C   0  0  0  0  0  0  0  0  0  0  0  0
  -20.9640  -27.4970   22.4930 C   0  0  0  0  0  3  0  0  0  0  0  0
  -21.2890  -26.1590   21.7910 C   0  0  0  0  0  2  0  0  0  0  0  0
  -20.2550  -25.7710   20.7280 C   0  0  0  0  0  2  0  0  0  0  0  0
  -18.8610  -25.6460   21.3500 C   0  0  0  0  0  2  0  0  0  0  0  0
  -19.4630  -27.7610   22.6670 C   0  0  0  0  0  0  0  0  0  0  0  0
  -19.0490  -28.9160   23.3660 C   0  0  0  0  0  3  0  0  0  0  0  0
  -17.6820  -29.1950   23.5500 C   0  0  0  0  0  3  0  0  0  0  0  0
  -16.7110  -28.3150   23.0430 C   0  0  0  0  0  3  0  0  0  0  0  0
  -17.1080  -27.1620   22.3430 C   0  0  0  0  0  3  0  0  0  0  0  0
  -25.8140  -32.1440   23.5440 C   0  0  0  0  0  3  0  0  0  0  0  0
  -25.3980  -33.4720   24.0140 N   0  0  0  0  0  0  0  0  0  0  0  0
  -25.6540  -34.6210   23.3740 C   0  0  0  0  0  0  0  0  0  0  0  0
  -26.3360  -34.6780   22.3470 O   0  0  0  0  0  0  0  0  0  0  0  0
  -24.7890  -33.4940   24.8180 H   0  0  0  0  0  0  0  0  0  0  0  0
  -23.7990  -36.3110   23.1870 C   0  0  0  0  0  1  0  0  0  0  0  0
  -25.0610  -35.9130   23.9690 C   0  0  0  0  0  3  0  0  0  0  0  0
  -27.1160  -36.8600   24.9200 C   0  0  0  0  0  1  0  0  0  0  0  0
  -26.0120  -37.0460   23.9830 N   0  0  0  0  0  0  0  0  0  0  0  0
  -25.5370  -37.9120   24.2210 H   0  0  0  0  0  0  0  0  0  0  0  0
  -26.4370  -31.3060   24.7280 C   0  0  1  0  0  0  0  0  0  0  0  0
  -25.4080  -30.8920   25.8060 C   0  0  0  0  0  1  0  0  0  0  0  0
  -27.1050  -30.0150   24.1990 C   0  0  0  0  0  1  0  0  0  0  0  0
  -27.5460  -32.1290   25.4230 C   0  0  0  0  0  1  0  0  0  0  0  0
  1  4  1  0
  2  1  2  0
  2  6  1  0
  4  7  2  0
  4  3  1  0
  5  3  1  0
  5 45  1  0
  6 48  1  0
  6  5  2  0
  7  8  2  0
  9 15  1  0
  9  8  1  0
 10 15  1  0
 11 12  1  0
 11 10  1  0
 13 12  1  0
 13 20  1  0
 13 14  1  0
 15 14  1  0
 16  9  2  0
 17 18  2  0
 18 37  1  0
 19 18  1  0
 19 22  1  0
 20 21  1  0
 20 17  1  0
 21 19  2  0
 22 23  1  0
 23 24  2  0
 25 28  1  0
 25 24  1  0
 26 25  2  0
 27 26  1  0
 27 22  2  0
 28 29  1  0
 29 30  1  0
 30 31  2  0
 32 31  1  0
 32 36  1  0
 33 32  2  0
 34 29  2  0
 34 33  1  0
 35 34  1  0
 37 38  1  0
 38 41  1  0
 38 40  1  0
 39 37  2  0
 42 17  1  0
 42 43  1  0
 44 42  1  0
 47 45  1  0
 47 46  1  0
 49 50  1  0
 49 48  1  0
 51 53  1  0
 51 50  1  0
 52 63  2  0
 53 58  1  0
 54 62  1  0
 54 64  1  0
 55 61  1  0
 55 57  1  0
 56 62  1  0
 57 56  1  0
 58 57  2  0
 59 60  1  0
 59 53  2  0
 60 55  2  0
 61 54  1  0
 62 52  1  0
 64 66  2  0
 65 64  1  0
 67 65  1  0
 68 77  2  0
 68 73  1  0
 69 65  1  0
 69 73  1  0
 70 69  1  0
 71 72  1  0
 71 70  1  0
 72 68  1  0
 73 74  2  0
 74 75  1  0
 76 75  2  0
 77 76  1  0
 78 52  1  0
 78 79  1  0
 78 88  1  0
 79 82  1  0
 80 84  1  0
 80 79  1  0
 81 80  2  0
 84 83  1  0
 84 86  1  0
 86 87  1  0
 86 85  1  0
 88 91  1  1
 88 89  1  0
 90 88  1  0
M  ISO  4   8 100   9 100  50 101  51 101
M  END
>  <TORSDO>  (47) 
F 22

>  <SCORE>  (47) 
-10.574

>  <name>  (47) 
46

>  <ligand_id>  (47) 
46

>  <original_smiles>  (47) 
[H]C(C(=O)N1C([H])([H])C([H])([H])C([H])([H])C([H])(n2nc(-c3c([H])c([H])c(Oc4c([H])c([H])c(F)c([H])c4F)c([H])c3[H])c(C(=O)N([H])[H])c2N([H])[H])C1([H])[H])=C([H])c1c([H])c([H])c(OC([H])([H])C([H])([H])Oc2c([H])c([H])c3c(c2[H])C([H])([H])N(C(=O)C([H])(N([H])C(=O)C([H])(N([H])C([H])([H])[H])C([H])([H])[H])C(C([H])([H])[H])(C([H])([H])[H])C([H])([H])[H])C([H])(C(=O)N([H])C2([H])c4c([H])c([H])c([H])c([H])c4C([H])([H])C([H])([H])C2([H])[H])C3([H])[H])c(C([H])([H])C([H])([H])C([H])([H])[H])c1[H]

>  <smiles>  (47) 
[H]C(C(=O)N1C([H])([H])C([H])([H])C([H])([H])C([H])(n2nc(-c3c([H])c([H])c(Oc4c([H])c([H])c(F)c([H])c4F)c([H])c3[H])c(C(=O)N([H])[H])c2N([H])[H])C1([H])[H])=C([H])c1c([H])c([H])c(OC([H])([H])C([H])([H])Oc2c([H])c([H])c3c(c2[H])C([H])([H])N(C(=O)C([H])(N([H])C(=O)C([H])(N([H])C([H])([H])[H])C([H])([H])[H])C(C([H])([H])[H])(C([H])([H])[H])C([H])([H])[H])C([H])(C(=O)N([H])C2([H])c4c([H])c([H])c([H])c([H])c4C([H])([H])C([H])([H])C2([H])[H])C3([H])[H])c(C([H])([H])C([H])([H])C([H])([H])[H])c1[H]

$$$$
47:0:0
     RDKit          3D

 92100  0  0  1  0  0  0  0  0999 V2000
  -30.8070  -17.7530   19.6330 C   0  0  0  0  0  3  0  0  0  0  0  0
  -30.5870  -19.1090   19.2470 C   0  0  0  0  0  3  0  0  0  0  0  0
  -30.4360  -19.7440   21.5380 C   0  0  0  0  0  3  0  0  0  0  0  0
  -30.8690  -17.3180   20.9920 C   0  0  0  0  0  0  0  0  0  0  0  0
  -30.6590  -18.3870   21.9530 C   0  0  0  0  0  0  0  0  0  0  0  0
  -30.4020  -20.1490   20.1870 C   0  0  0  0  0  0  0  0  0  0  0  0
  -31.1910  -15.8310   21.3780 C   0  0  0  0  0  0  0  0  0  0  0  0
  -31.2190  -15.4580   22.5890 N   0  0  0  0  0  0  0  0  0  0  0  0
  -31.0010  -16.2360   23.1980 H   0  0  0  0  0  0  0  0  0  0  0  0
  -31.6100  -14.7550   20.3170 C   0  0  0  0  0  0  0  0  0  0  0  0
  -31.1770  -12.6310   19.0890 C   0  0  0  0  0  2  0  0  0  0  0  0
  -30.2540  -12.8880   17.8790 C   0  0  0  0  0  2  0  0  0  0  0  0
  -28.7730  -12.7970   18.2950 C   0  0  0  0  0  2  0  0  0  0  0  0
  -28.4670  -13.6030   19.5860 C   0  0  0  0  0  3  0  0  0  0  0  0
  -29.5120  -13.3210   20.6890 C   0  0  0  0  0  2  0  0  0  0  0  0
  -30.8520  -13.6150   20.1460 N   0  0  0  0  0  0  0  0  0  0  0  0
  -32.6790  -14.9000   19.7130 O   0  0  0  0  0  0  0  0  0  0  0  0
  -26.0950  -14.2990   20.2900 C   0  0  0  0  0  0  0  0  0  0  0  0
  -24.9910  -13.5700   20.6400 C   0  0  0  0  0  0  0  0  0  0  0  0
  -25.3900  -12.2000   20.5980 C   0  0  0  0  0  0  0  0  0  0  0  0
  -27.1000  -13.3750   20.0530 N   0  0  0  0  0  0  0  0  0  0  0  0
  -26.6800  -12.1060   20.2960 N   0  0  0  0  0  0  0  0  0  0  0  0
  -24.6040  -10.9700   20.7700 C   0  0  0  0  0  0  0  0  0  0  0  0
  -24.9780   -9.9820   21.7070 C   0  0  0  0  0  3  0  0  0  0  0  0
  -24.1960   -8.8180   21.8710 C   0  0  0  0  0  3  0  0  0  0  0  0
  -23.0270   -8.6340   21.0950 C   0  0  0  0  0  0  0  0  0  0  0  0
  -22.6720   -9.6100   20.1470 C   0  0  0  0  0  3  0  0  0  0  0  0
  -23.4530  -10.7660   19.9820 C   0  0  0  0  0  3  0  0  0  0  0  0
  -22.2230   -7.5210   21.1650 O   0  0  0  0  0  0  0  0  0  0  0  0
  -22.0840   -6.8040   22.3250 C   0  0  0  0  0  0  0  0  0  0  0  0
  -21.6430   -7.4070   23.5240 C   0  0  0  0  0  3  0  0  0  0  0  0
  -21.4440   -6.6220   24.6760 C   0  0  0  0  0  3  0  0  0  0  0  0
  -21.6800   -5.2340   24.6340 C   0  0  0  0  0  0  0  0  0  0  0  0
  -22.1120   -4.6310   23.4390 C   0  0  0  0  0  3  0  0  0  0  0  0
  -22.3120   -5.4130   22.2890 C   0  0  0  0  0  0  0  0  0  0  0  0
  -22.7100   -4.8230   21.1350 F   0  0  0  0  0  0  0  0  0  0  0  0
  -21.4820   -4.4770   25.7380 F   0  0  0  0  0  0  0  0  0  0  0  0
  -23.6150  -14.1080   20.9090 C   0  0  0  0  0  0  0  0  0  0  0  0
  -22.8620  -13.4600   21.7910 N   0  0  0  0  0  0  0  0  0  0  0  0
  -23.2150  -15.1390   20.3690 O   0  0  0  0  0  0  0  0  0  0  0  0
  -23.2000  -12.6270   22.2510 H   0  0  0  0  0  0  0  0  0  0  0  0
  -21.9370  -13.8040   22.0100 H   0  0  0  0  0  0  0  0  0  0  0  0
  -26.3220  -15.6630   20.1350 N   0  0  0  0  0  0  0  0  0  0  0  0
  -25.5910  -16.3540   20.2630 H   0  0  0  0  0  0  0  0  0  0  0  0
  -27.2020  -16.0690   19.8430 H   0  0  0  0  0  0  0  0  0  0  0  0
  -30.5470  -19.3320   24.4090 C   0  0  0  0  0  1  0  0  0  0  0  0
  -30.6850  -18.1200   23.4690 C   0  0  0  0  0  2  0  0  0  0  0  0
  -30.2100  -21.4770   19.7460 O   0  0  0  0  0  0  0  0  0  0  0  0
  -29.7990  -22.5640   20.6420 C   0  0  0  0  0  2  0  0  0  0  0  0
  -29.7070  -24.0130   19.9730 C   0  0  0  0  0  3  0  0  0  0  0  0
  -28.7840  -25.1180   20.6550 C   0  0  0  0  0  3  0  0  0  0  0  0
  -28.9400  -26.5340   20.2350 O   0  0  0  0  0  0  0  0  0  0  0  0
  -24.9220  -31.7500   23.2140 C   0  0  0  0  0  0  0  0  0  0  0  0
  -27.7920  -27.3370   20.1890 C   0  0  0  0  0  0  0  0  0  0  0  0
  -23.8220  -30.3170   21.5340 C   0  0  0  0  0  3  0  0  0  0  0  0
  -25.3690  -28.8500   20.1260 C   0  0  0  0  0  0  0  0  0  0  0  0
  -26.3510  -30.7460   21.4200 C   0  0  0  0  0  2  0  0  0  0  0  0
  -26.5020  -29.3810   20.7560 C   0  0  0  0  0  0  0  0  0  0  0  0
  -27.7210  -28.6390   20.7720 C   0  0  0  0  0  3  0  0  0  0  0  0
  -26.6380  -26.8610   19.5280 C   0  0  0  0  0  3  0  0  0  0  0  0
  -25.4390  -27.5970   19.5000 C   0  0  0  0  0  3  0  0  0  0  0  0
  -24.0980  -29.6740   20.1500 C   0  0  0  0  0  2  0  0  0  0  0  0
  -25.0490  -30.9530   22.1130 N   0  0  0  0  0  0  0  0  0  0  0  0
  -23.8130  -31.9740   23.7230 O   0  0  0  0  0  0  0  0  0  0  0  0
  -23.1810  -29.2570   22.4620 C   0  0  0  0  0  0  0  0  0  0  0  0
  -21.8660  -29.0310   22.3030 N   0  0  0  0  0  0  0  0  0  0  0  0
  -23.8690  -28.6470   23.2850 O   0  0  0  0  0  0  0  0  0  0  0  0
  -21.3710  -29.5760   21.6130 H   0  0  0  0  0  0  0  0  0  0  0  0
  -18.5230  -27.7200   22.7250 C   0  0  0  0  0  0  0  0  0  0  0  0
  -21.0670  -28.0530   23.0440 C   0  0  0  0  0  3  0  0  0  0  0  0
  -21.2210  -26.6360   22.4460 C   0  0  0  0  0  2  0  0  0  0  0  0
  -20.1480  -26.3020   21.4070 C   0  0  0  0  0  2  0  0  0  0  0  0
  -18.7540  -26.3880   22.0330 C   0  0  0  0  0  2  0  0  0  0  0  0
  -19.6090  -28.5100   23.1870 C   0  0  0  0  0  0  0  0  0  0  0  0
  -19.3390  -29.7550   23.7980 C   0  0  0  0  0  3  0  0  0  0  0  0
  -18.0160  -30.2110   23.9510 C   0  0  0  0  0  3  0  0  0  0  0  0
  -16.9450  -29.4190   23.5000 C   0  0  0  0  0  3  0  0  0  0  0  0
  -17.1990  -28.1750   22.8970 C   0  0  0  0  0  3  0  0  0  0  0  0
  -26.1610  -32.4280   23.8770 C   0  0  0  0  0  3  0  0  0  0  0  0
  -25.7800  -33.8080   24.2100 N   0  0  0  0  0  0  0  0  0  0  0  0
  -26.0790  -34.8820   23.4690 C   0  0  0  0  0  0  0  0  0  0  0  0
  -26.7730  -34.8210   22.4500 O   0  0  0  0  0  0  0  0  0  0  0  0
  -25.1690  -33.9270   25.0040 H   0  0  0  0  0  0  0  0  0  0  0  0
  -24.2720  -36.5940   23.1070 C   0  0  0  0  0  1  0  0  0  0  0  0
  -25.5210  -36.2420   23.9320 C   0  0  0  0  0  3  0  0  0  0  0  0
  -27.6020  -37.2170   24.7970 C   0  0  0  0  0  1  0  0  0  0  0  0
  -26.5040  -37.3450   23.8430 N   0  0  0  0  0  0  0  0  0  0  0  0
  -26.0520  -38.2430   24.0010 H   0  0  0  0  0  0  0  0  0  0  0  0
  -26.6760  -31.6700   25.1600 C   0  0  1  0  0  0  0  0  0  0  0  0
  -25.5630  -31.3770   26.1930 C   0  0  0  0  0  1  0  0  0  0  0  0
  -27.3290  -30.3230   24.7760 C   0  0  0  0  0  1  0  0  0  0  0  0
  -27.7730  -32.5070   25.8590 C   0  0  0  0  0  1  0  0  0  0  0  0
  1  4  1  0
  2  1  2  0
  2  6  1  0
  3  5  1  0
  4  7  1  0
  4  5  2  0
  5 47  1  0
  6  3  2  0
  7  8  2  0
  8  9  1  0
 10  7  1  0
 11 16  1  0
 12 13  1  0
 12 11  1  0
 14 13  1  0
 14 21  1  0
 14 15  1  0
 16 10  1  0
 16 15  1  0
 17 10  2  0
 18 19  2  0
 19 38  1  0
 20 19  1  0
 20 23  1  0
 21 18  1  0
 21 22  1  0
 22 20  2  0
 23 24  1  0
 24 25  2  0
 26 29  1  0
 26 25  1  0
 27 26  2  0
 28 27  1  0
 28 23  2  0
 29 30  1  0
 30 31  1  0
 31 32  2  0
 33 32  1  0
 33 37  1  0
 34 33  2  0
 35 30  2  0
 35 34  1  0
 36 35  1  0
 38 39  1  0
 39 42  1  0
 39 41  1  0
 40 38  2  0
 43 44  1  0
 43 18  1  0
 45 43  1  0
 47 46  1  0
 48  6  1  0
 48 49  1  0
 50 49  1  0
 50 51  2  0
 52 51  1  0
 53 64  2  0
 54 52  1  0
 54 59  1  0
 55 63  1  0
 55 65  1  0
 56 62  1  0
 56 58  1  0
 57 63  1  0
 58 59  2  0
 58 57  1  0
 60 54  2  0
 61 60  1  0
 61 56  2  0
 62 55  1  0
 63 53  1  0
 65 67  2  0
 66 65  1  0
 68 66  1  0
 69 78  2  0
 69 74  1  0
 70 66  1  0
 70 74  1  0
 71 70  1  0
 72 73  1  0
 72 71  1  0
 73 69  1  0
 74 75  2  0
 75 76  1  0
 77 76  2  0
 78 77  1  0
 79 53  1  0
 79 80  1  0
 79 89  1  0
 80 83  1  0
 81 85  1  0
 81 80  1  0
 82 81  2  0
 85 84  1  0
 87 85  1  0
 87 88  1  0
 87 86  1  0
 89 92  1  1
 89 90  1  0
 91 89  1  0
M  ISO  4   7 100  10 100  51 101  52 101
M  END
>  <TORSDO>  (48) 
F 22

>  <SCORE>  (48) 
-10.641

>  <name>  (48) 
47

>  <ligand_id>  (48) 
47

>  <original_smiles>  (48) 
[H]N=C(C(=O)N1C([H])([H])C([H])([H])C([H])([H])C([H])(n2nc(-c3c([H])c([H])c(Oc4c([H])c([H])c(F)c([H])c4F)c([H])c3[H])c(C(=O)N([H])[H])c2N([H])[H])C1([H])[H])c1c([H])c([H])c(OC([H])([H])C([H])([H])C([H])([H])Oc2c([H])c([H])c3c(c2[H])C([H])([H])N(C(=O)C([H])(N([H])C(=O)C([H])(N([H])C([H])([H])[H])C([H])([H])[H])C(C([H])([H])[H])(C([H])([H])[H])C([H])([H])[H])C([H])(C(=O)N([H])C2([H])c4c([H])c([H])c([H])c([H])c4C([H])([H])C([H])([H])C2([H])[H])C3([H])[H])c([H])c1C([H])([H])C([H])([H])[H]

>  <smiles>  (48) 
[H]N=C(C(=O)N1C([H])([H])C([H])([H])C([H])([H])C([H])(n2nc(-c3c([H])c([H])c(Oc4c([H])c([H])c(F)c([H])c4F)c([H])c3[H])c(C(=O)N([H])[H])c2N([H])[H])C1([H])[H])c1c([H])c([H])c(OC([H])([H])C([H])([H])C([H])([H])Oc2c([H])c([H])c3c(c2[H])C([H])([H])N(C(=O)C([H])(N([H])C(=O)C([H])(N([H])C([H])([H])[H])C([H])([H])[H])C(C([H])([H])[H])(C([H])([H])[H])C([H])([H])[H])C([H])(C(=O)N([H])C2([H])c4c([H])c([H])c([H])c([H])c4C([H])([H])C([H])([H])C2([H])[H])C3([H])[H])c([H])c1C([H])([H])C([H])([H])[H]

$$$$
48:0:0
     RDKit          3D

 91 99  0  0  1  0  0  0  0  0999 V2000
  -31.0440  -18.7360   18.2700 C   0  0  0  0  0  3  0  0  0  0  0  0
  -29.6620  -18.4690   20.6600 C   0  0  0  0  0  3  0  0  0  0  0  0
  -30.7340  -19.8980   19.0040 C   0  0  0  0  0  0  0  0  0  0  0  0
  -30.6960  -17.4420   18.7090 C   0  0  0  0  0  0  0  0  0  0  0  0
  -29.9520  -19.8150   20.1840 C   0  0  0  0  0  0  0  0  0  0  0  0
  -30.0840  -17.2550   19.9820 C   0  0  0  0  0  0  0  0  0  0  0  0
  -31.3090  -21.2110   18.4880 C   0  0  0  0  0  1  0  0  0  0  0  0
  -30.9770  -16.3070   17.7310 C   0  0  0  0  0  1  0  0  0  0  0  0
  -30.6080  -14.7530   20.4850 C   0  0  0  0  0  0  0  0  0  0  0  0
  -30.4290  -12.4520   19.5680 C   0  0  0  0  0  2  0  0  0  0  0  0
  -29.5520  -12.5200   18.2980 C   0  0  0  0  0  2  0  0  0  0  0  0
  -28.0580  -12.3910   18.6620 C   0  0  0  0  0  2  0  0  0  0  0  0
  -27.6360  -13.2910   19.8560 C   0  0  0  0  0  3  0  0  0  0  0  0
  -28.6510  -13.2220   21.0190 C   0  0  0  0  0  2  0  0  0  0  0  0
  -29.9730  -13.5330   20.4680 N   0  0  0  0  0  0  0  0  0  0  0  0
  -31.8220  -14.8160   20.2880 O   0  0  0  0  0  0  0  0  0  0  0  0
  -29.8200  -15.8930   20.5150 N   0  0  0  0  0  0  0  0  0  0  0  0
  -28.8740  -15.7330   20.8290 H   0  0  0  0  0  0  0  0  0  0  0  0
  -25.2200  -13.8830   20.4970 C   0  0  0  0  0  0  0  0  0  0  0  0
  -24.1460  -13.1100   20.8420 C   0  0  0  0  0  0  0  0  0  0  0  0
  -24.6140  -11.7620   20.8510 C   0  0  0  0  0  0  0  0  0  0  0  0
  -26.2750  -13.0060   20.3020 N   0  0  0  0  0  0  0  0  0  0  0  0
  -25.9130  -11.7250   20.5830 N   0  0  0  0  0  0  0  0  0  0  0  0
  -23.8830  -10.5010   21.0360 C   0  0  0  0  0  0  0  0  0  0  0  0
  -24.2920   -9.5400   21.9880 C   0  0  0  0  0  3  0  0  0  0  0  0
  -23.5570   -8.3450   22.1590 C   0  0  0  0  0  3  0  0  0  0  0  0
  -22.4000   -8.1060   21.3800 C   0  0  0  0  0  0  0  0  0  0  0  0
  -22.0110   -9.0540   20.4160 C   0  0  0  0  0  3  0  0  0  0  0  0
  -22.7480  -10.2390   20.2420 C   0  0  0  0  0  3  0  0  0  0  0  0
  -21.6410   -6.9640   21.4580 O   0  0  0  0  0  0  0  0  0  0  0  0
  -21.5730   -6.2250   22.6130 C   0  0  0  0  0  0  0  0  0  0  0  0
  -21.1400   -6.7870   23.8350 C   0  0  0  0  0  3  0  0  0  0  0  0
  -21.0200   -5.9730   24.9790 C   0  0  0  0  0  3  0  0  0  0  0  0
  -21.3200   -4.6010   24.9020 C   0  0  0  0  0  0  0  0  0  0  0  0
  -21.7490   -4.0400   23.6860 C   0  0  0  0  0  3  0  0  0  0  0  0
  -21.8730   -4.8500   22.5450 C   0  0  0  0  0  0  0  0  0  0  0  0
  -22.2660   -4.3000   21.3700 F   0  0  0  0  0  0  0  0  0  0  0  0
  -21.1950   -3.8180   26.0000 F   0  0  0  0  0  0  0  0  0  0  0  0
  -22.7390  -13.5910   21.0510 C   0  0  0  0  0  0  0  0  0  0  0  0
  -21.9680  -12.9190   21.9000 N   0  0  0  0  0  0  0  0  0  0  0  0
  -22.3250  -14.6070   20.4930 O   0  0  0  0  0  0  0  0  0  0  0  0
  -22.3070  -12.1040   22.3890 H   0  0  0  0  0  0  0  0  0  0  0  0
  -21.0250  -13.2410   22.0680 H   0  0  0  0  0  0  0  0  0  0  0  0
  -25.3750  -15.2520   20.3090 N   0  0  0  0  0  0  0  0  0  0  0  0
  -24.5810  -15.8780   20.3660 H   0  0  0  0  0  0  0  0  0  0  0  0
  -26.2200  -15.7140   19.9910 H   0  0  0  0  0  0  0  0  0  0  0  0
  -29.5810  -21.1470   20.9740 C   0  0  0  0  0  2  0  0  0  0  0  0
  -28.8580  -22.3930   20.2470 C   0  0  0  0  0  2  0  0  0  0  0  0
  -29.1090  -23.9130   20.7120 C   0  0  0  0  0  3  0  0  0  0  0  0
  -28.2740  -25.0300   19.9070 C   0  0  0  0  0  3  0  0  0  0  0  0
  -28.3600  -26.4770   20.2610 O   0  0  0  0  0  0  0  0  0  0  0  0
  -24.6310  -31.8980   23.2430 C   0  0  0  0  0  0  0  0  0  0  0  0
  -27.2370  -27.3300   20.1660 C   0  0  0  0  0  0  0  0  0  0  0  0
  -23.4210  -30.4960   21.6090 C   0  0  0  0  0  3  0  0  0  0  0  0
  -24.8680  -28.9550   20.1640 C   0  0  0  0  0  0  0  0  0  0  0  0
  -25.9560  -30.8170   21.4080 C   0  0  0  0  0  2  0  0  0  0  0  0
  -26.0350  -29.4340   20.7680 C   0  0  0  0  0  0  0  0  0  0  0  0
  -27.2150  -28.6290   20.7700 C   0  0  0  0  0  3  0  0  0  0  0  0
  -26.0580  -26.9350   19.4890 C   0  0  0  0  0  3  0  0  0  0  0  0
  -24.8830  -27.7140   19.5110 C   0  0  0  0  0  3  0  0  0  0  0  0
  -23.6270  -29.8230   20.2250 C   0  0  0  0  0  2  0  0  0  0  0  0
  -24.6890  -31.0880   22.1450 N   0  0  0  0  0  0  0  0  0  0  0  0
  -23.5500  -32.1730   23.7830 O   0  0  0  0  0  0  0  0  0  0  0  0
  -22.7670  -29.4760   22.5710 C   0  0  0  0  0  0  0  0  0  0  0  0
  -21.4420  -29.2930   22.4460 N   0  0  0  0  0  0  0  0  0  0  0  0
  -23.4500  -28.8560   23.3890 O   0  0  0  0  0  0  0  0  0  0  0  0
  -20.9540  -29.8450   21.7560 H   0  0  0  0  0  0  0  0  0  0  0  0
  -18.0740  -28.0640   22.9420 C   0  0  0  0  0  0  0  0  0  0  0  0
  -20.6290  -28.3540   23.2210 C   0  0  0  0  0  3  0  0  0  0  0  0
  -20.7470  -26.9180   22.6580 C   0  0  0  0  0  2  0  0  0  0  0  0
  -19.6540  -26.5750   21.6410 C   0  0  0  0  0  2  0  0  0  0  0  0
  -18.2680  -26.7110   22.2790 C   0  0  0  0  0  2  0  0  0  0  0  0
  -19.1820  -28.8410   23.3710 C   0  0  0  0  0  0  0  0  0  0  0  0
  -18.9480  -30.1050   23.9560 C   0  0  0  0  0  3  0  0  0  0  0  0
  -17.6370  -30.5940   24.1110 C   0  0  0  0  0  3  0  0  0  0  0  0
  -16.5440  -29.8150   23.6950 C   0  0  0  0  0  3  0  0  0  0  0  0
  -16.7620  -28.5510   23.1190 C   0  0  0  0  0  3  0  0  0  0  0  0
  -25.9150  -32.5320   23.8590 C   0  0  0  0  0  3  0  0  0  0  0  0
  -26.4390  -31.7590   25.1310 C   0  0  1  0  0  0  0  0  0  0  0  0
  -25.3520  -31.5190   26.2060 C   0  0  0  0  0  1  0  0  0  0  0  0
  -27.0180  -30.3830   24.7290 C   0  0  0  0  0  1  0  0  0  0  0  0
  -27.5980  -32.5490   25.7830 C   0  0  0  0  0  1  0  0  0  0  0  0
  -25.6070  -33.9290   24.1940 N   0  0  0  0  0  0  0  0  0  0  0  0
  -25.9350  -34.9830   23.4330 C   0  0  0  0  0  0  0  0  0  0  0  0
  -26.5990  -34.8800   22.3990 O   0  0  0  0  0  0  0  0  0  0  0  0
  -25.0130  -34.0830   24.9960 H   0  0  0  0  0  0  0  0  0  0  0  0
  -24.2050  -36.7730   23.0850 C   0  0  0  0  0  1  0  0  0  0  0  0
  -25.4490  -36.3710   23.8920 C   0  0  0  0  0  3  0  0  0  0  0  0
  -27.5900  -37.2520   24.7100 C   0  0  0  0  0  1  0  0  0  0  0  0
  -26.4830  -37.4250   23.7730 N   0  0  0  0  0  0  0  0  0  0  0  0
  -26.0800  -38.3440   23.9270 H   0  0  0  0  0  0  0  0  0  0  0  0
  1  4  2  0
  1  3  1  0
  3  5  2  0
  4  6  1  0
  5  2  1  0
  5 47  1  0
  6 17  1  0
  6  2  2  0
  7  3  1  0
  8  4  1  0
  9 17  1  0
 10 15  1  0
 11 12  1  0
 11 10  1  0
 13 12  1  0
 13 22  1  0
 13 14  1  0
 15  9  1  0
 15 14  1  0
 16  9  2  0
 17 18  1  0
 19 20  2  0
 20 21  1  0
 20 39  1  0
 21 24  1  0
 22 19  1  0
 22 23  1  0
 23 21  2  0
 24 25  1  0
 25 26  2  0
 27 30  1  0
 27 26  1  0
 28 27  2  0
 29 28  1  0
 29 24  2  0
 30 31  1  0
 31 32  1  0
 32 33  2  0
 34 33  1  0
 34 38  1  0
 35 34  2  0
 36 31  2  0
 36 35  1  0
 37 36  1  0
 39 40  1  0
 40 43  1  0
 40 42  1  0
 41 39  2  0
 44 45  1  0
 44 19  1  0
 46 44  1  0
 48 49  1  0
 48 47  1  0
 50 51  1  0
 50 49  2  0
 52 63  2  0
 53 51  1  0
 53 58  1  0
 54 62  1  0
 54 64  1  0
 55 61  1  0
 55 57  1  0
 56 62  1  0
 57 58  2  0
 57 56  1  0
 59 60  1  0
 59 53  2  0
 60 55  2  0
 61 54  1  0
 62 52  1  0
 64 66  2  0
 65 64  1  0
 67 65  1  0
 68 77  2  0
 68 73  1  0
 69 65  1  0
 69 73  1  0
 70 69  1  0
 71 72  1  0
 71 70  1  0
 72 68  1  0
 73 74  2  0
 74 75  1  0
 76 75  2  0
 77 76  1  0
 78 52  1  0
 78 83  1  0
 78 79  1  0
 79 82  1  1
 79 80  1  0
 81 79  1  0
 83 86  1  0
 84 88  1  0
 84 83  1  0
 85 84  2  0
 88 87  1  0
 90 88  1  0
 90 91  1  0
 90 89  1  0
M  ISO  4   9 100  17 100  50 101  51 101
M  END
>  <TORSDO>  (49) 
F 20

>  <SCORE>  (49) 
-13.422

>  <name>  (49) 
48

>  <ligand_id>  (49) 
48

>  <original_smiles>  (49) 
[H]c1c([H])c([H])c2c(c1[H])C([H])([H])C([H])([H])C([H])([H])C2([H])N([H])C(=O)C1([H])N(C(=O)C([H])(N([H])C(=O)C([H])(N([H])C([H])([H])[H])C([H])([H])[H])C(C([H])([H])[H])(C([H])([H])[H])C([H])([H])[H])C([H])([H])c2c([H])c(OC([H])([H])C([H])([H])C([H])([H])C([H])([H])c3c([H])c(N([H])C(=O)N4C([H])([H])C([H])([H])C([H])([H])C([H])(n5nc(-c6c([H])c([H])c(Oc7c([H])c([H])c(F)c([H])c7F)c([H])c6[H])c(C(=O)N([H])[H])c5N([H])[H])C4([H])[H])c(C([H])([H])[H])c([H])c3C([H])([H])[H])c([H])c([H])c2C1([H])[H]

>  <smiles>  (49) 
[H]c1c([H])c([H])c2c(c1[H])C([H])([H])C([H])([H])C([H])([H])C2([H])N([H])C(=O)C1([H])N(C(=O)C([H])(N([H])C(=O)C([H])(N([H])C([H])([H])[H])C([H])([H])[H])C(C([H])([H])[H])(C([H])([H])[H])C([H])([H])[H])C([H])([H])c2c([H])c(OC([H])([H])C([H])([H])C([H])([H])C([H])([H])c3c([H])c(N([H])C(=O)N4C([H])([H])C([H])([H])C([H])([H])C([H])(n5nc(-c6c([H])c([H])c(Oc7c([H])c([H])c(F)c([H])c7F)c([H])c6[H])c(C(=O)N([H])[H])c5N([H])[H])C4([H])[H])c(C([H])([H])[H])c([H])c3C([H])([H])[H])c([H])c([H])c2C1([H])[H]

$$$$
49:0:0
     RDKit          3D

 90 98  0  0  1  0  0  0  0  0999 V2000
  -30.7650  -19.8790   19.3150 C   0  0  0  0  0  3  0  0  0  0  0  0
  -30.8390  -18.4280   19.1590 C   0  0  0  0  0  3  0  0  0  0  0  0
  -30.2160  -19.5830   21.5880 C   0  0  0  0  0  3  0  0  0  0  0  0
  -30.4280  -20.5400   20.5480 C   0  0  0  0  0  0  0  0  0  0  0  0
  -30.3210  -18.1450   21.4630 C   0  0  0  0  0  0  0  0  0  0  0  0
  -30.6210  -17.4860   20.2220 C   0  0  0  0  0  0  0  0  0  0  0  0
  -31.2910  -14.8710   19.6670 C   0  0  0  0  0  0  0  0  0  0  0  0
  -30.9480  -12.6010   18.6130 C   0  0  0  0  0  2  0  0  0  0  0  0
  -29.8820  -12.7100   17.4960 C   0  0  0  0  0  2  0  0  0  0  0  0
  -28.4590  -12.5680   18.0680 C   0  0  0  0  0  2  0  0  0  0  0  0
  -28.2470  -13.4370   19.3370 C   0  0  0  0  0  3  0  0  0  0  0  0
  -29.4100  -13.2800   20.3410 C   0  0  0  0  0  2  0  0  0  0  0  0
  -30.6500  -13.6380   19.6340 N   0  0  0  0  0  0  0  0  0  0  0  0
  -32.4140  -14.9700   19.1640 O   0  0  0  0  0  0  0  0  0  0  0  0
  -30.5650  -15.9670   20.1640 N   0  0  0  0  0  0  0  0  0  0  0  0
  -29.7450  -15.6170   20.6360 H   0  0  0  0  0  0  0  0  0  0  0  0
  -26.0010  -14.1180   20.3640 C   0  0  0  0  0  0  0  0  0  0  0  0
  -24.9310  -13.3860   20.8010 C   0  0  0  0  0  0  0  0  0  0  0  0
  -25.2930  -12.0140   20.6310 C   0  0  0  0  0  0  0  0  0  0  0  0
  -26.9480  -13.1950   19.9550 N   0  0  0  0  0  0  0  0  0  0  0  0
  -26.5370  -11.9200   20.1760 N   0  0  0  0  0  0  0  0  0  0  0  0
  -24.5050  -10.7900   20.8190 C   0  0  0  0  0  0  0  0  0  0  0  0
  -24.8620   -9.8190   21.7800 C   0  0  0  0  0  3  0  0  0  0  0  0
  -24.0740   -8.6600   21.9540 C   0  0  0  0  0  3  0  0  0  0  0  0
  -22.9140   -8.4650   21.1670 C   0  0  0  0  0  0  0  0  0  0  0  0
  -22.5790   -9.4240   20.1930 C   0  0  0  0  0  3  0  0  0  0  0  0
  -23.3670  -10.5720   20.0170 C   0  0  0  0  0  3  0  0  0  0  0  0
  -22.1050   -7.3570   21.2480 O   0  0  0  0  0  0  0  0  0  0  0  0
  -21.8190   -6.7620   22.4510 C   0  0  0  0  0  0  0  0  0  0  0  0
  -21.1890   -7.4670   23.5000 C   0  0  0  0  0  3  0  0  0  0  0  0
  -20.8480   -6.7990   24.6930 C   0  0  0  0  0  3  0  0  0  0  0  0
  -21.1300   -5.4260   24.8370 C   0  0  0  0  0  0  0  0  0  0  0  0
  -21.7520   -4.7220   23.7900 C   0  0  0  0  0  3  0  0  0  0  0  0
  -22.0930   -5.3870   22.6000 C   0  0  0  0  0  0  0  0  0  0  0  0
  -22.6720   -4.7000   21.5860 F   0  0  0  0  0  0  0  0  0  0  0  0
  -20.7990   -4.7800   25.9780 F   0  0  0  0  0  0  0  0  0  0  0  0
  -23.6090  -13.9290   21.2580 C   0  0  0  0  0  0  0  0  0  0  0  0
  -22.9450  -13.2340   22.1720 N   0  0  0  0  0  0  0  0  0  0  0  0
  -23.1800  -15.0050   20.8390 O   0  0  0  0  0  0  0  0  0  0  0  0
  -23.3070  -12.3600   22.5290 H   0  0  0  0  0  0  0  0  0  0  0  0
  -22.0630  -13.5770   22.5250 H   0  0  0  0  0  0  0  0  0  0  0  0
  -26.2420  -15.4840   20.2570 N   0  0  0  0  0  0  0  0  0  0  0  0
  -25.5300  -16.1700   20.4800 H   0  0  0  0  0  0  0  0  0  0  0  0
  -27.0590  -15.8940   19.8200 H   0  0  0  0  0  0  0  0  0  0  0  0
  -30.8330  -17.7580   23.9840 C   0  0  0  0  0  1  0  0  0  0  0  0
  -30.1260  -17.2720   22.7080 C   0  0  0  0  0  2  0  0  0  0  0  0
  -30.4900  -22.1380   20.9330 C   0  0  0  0  0  2  0  0  0  0  0  0
  -30.0160  -23.5110   20.1260 C   0  0  0  0  0  2  0  0  0  0  0  0
  -29.5720  -24.8830   20.9730 C   0  0  0  0  0  2  0  0  0  0  0  0
  -29.5440  -26.3430   20.5050 O   0  0  0  0  0  0  0  0  0  0  0  0
  -25.0040  -31.3460   23.3980 C   0  0  0  0  0  0  0  0  0  0  0  0
  -28.3400  -27.1150   20.4710 C   0  0  0  0  0  0  0  0  0  0  0  0
  -24.0890  -29.8560   21.6570 C   0  0  0  0  0  3  0  0  0  0  0  0
  -25.8070  -28.5020   20.3140 C   0  0  0  0  0  0  0  0  0  0  0  0
  -26.5870  -30.4530   21.6550 C   0  0  0  0  0  2  0  0  0  0  0  0
  -26.8760  -29.0980   20.9950 C   0  0  0  0  0  0  0  0  0  0  0  0
  -28.1450  -28.4230   21.0550 C   0  0  0  0  0  3  0  0  0  0  0  0
  -27.2400  -26.5930   19.7620 C   0  0  0  0  0  3  0  0  0  0  0  0
  -25.9970  -27.2610   19.6850 C   0  0  0  0  0  3  0  0  0  0  0  0
  -24.4780  -29.2380   20.2870 C   0  0  0  0  0  2  0  0  0  0  0  0
  -25.2400  -30.5740   22.2940 N   0  0  0  0  0  0  0  0  0  0  0  0
  -23.8610  -31.4790   23.8630 O   0  0  0  0  0  0  0  0  0  0  0  0
  -23.4810  -28.7510   22.5550 C   0  0  0  0  0  0  0  0  0  0  0  0
  -22.2230  -28.3640   22.2830 N   0  0  0  0  0  0  0  0  0  0  0  0
  -24.1510  -28.2450   23.4600 O   0  0  0  0  0  0  0  0  0  0  0  0
  -21.7370  -28.8340   21.5320 H   0  0  0  0  0  0  0  0  0  0  0  0
  -19.0810  -26.5640   22.3570 C   0  0  0  0  0  0  0  0  0  0  0  0
  -21.4830  -27.3020   22.9690 C   0  0  0  0  0  3  0  0  0  0  0  0
  -21.9260  -25.9060   22.4760 C   0  0  0  0  0  2  0  0  0  0  0  0
  -21.0600  -25.3660   21.3330 C   0  0  0  0  0  2  0  0  0  0  0  0
  -19.5960  -25.2620   21.7710 C   0  0  0  0  0  2  0  0  0  0  0  0
  -19.9680  -27.5300   22.9060 C   0  0  0  0  0  0  0  0  0  0  0  0
  -19.4380  -28.7380   23.4070 C   0  0  0  0  0  3  0  0  0  0  0  0
  -18.0530  -28.9890   23.3690 C   0  0  0  0  0  3  0  0  0  0  0  0
  -17.1790  -28.0240   22.8370 C   0  0  0  0  0  3  0  0  0  0  0  0
  -17.6930  -26.8130   22.3390 C   0  0  0  0  0  3  0  0  0  0  0  0
  -26.1540  -32.1160   24.1180 C   0  0  0  0  0  3  0  0  0  0  0  0
  -26.6110  -31.4270   25.4620 C   0  0  1  0  0  0  0  0  0  0  0  0
  -25.4470  -31.1020   26.4280 C   0  0  0  0  0  1  0  0  0  0  0  0
  -27.3600  -30.1070   25.1700 C   0  0  0  0  0  1  0  0  0  0  0  0
  -27.6070  -32.3460   26.2080 C   0  0  0  0  0  1  0  0  0  0  0  0
  -25.6830  -33.4840   24.3780 N   0  0  0  0  0  0  0  0  0  0  0  0
  -25.9720  -34.5500   23.6190 C   0  0  0  0  0  0  0  0  0  0  0  0
  -26.7280  -34.4900   22.6460 O   0  0  0  0  0  0  0  0  0  0  0  0
  -25.0170  -33.5960   25.1290 H   0  0  0  0  0  0  0  0  0  0  0  0
  -24.1080  -36.1540   23.0900 C   0  0  0  0  0  1  0  0  0  0  0  0
  -25.3220  -35.8950   23.9970 C   0  0  0  0  0  3  0  0  0  0  0  0
  -27.2900  -37.0130   24.9500 C   0  0  0  0  0  1  0  0  0  0  0  0
  -26.2530  -37.0430   23.9230 N   0  0  0  0  0  0  0  0  0  0  0  0
  -25.7490  -37.9220   24.0060 H   0  0  0  0  0  0  0  0  0  0  0  0
  1  4  1  0
  2  1  2  0
  2  6  1  0
  4 47  1  0
  4  3  2  0
  5  3  1  0
  5 46  1  0
  6  5  2  0
  7 15  1  0
  8 13  1  0
  9 10  1  0
  9  8  1  0
 11 10  1  0
 11 20  1  0
 11 12  1  0
 13  7  1  0
 13 12  1  0
 14  7  2  0
 15  6  1  0
 15 16  1  0
 17 18  2  0
 18 37  1  0
 19 18  1  0
 19 22  1  0
 20 21  1  0
 20 17  1  0
 21 19  2  0
 22 23  1  0
 23 24  2  0
 25 28  1  0
 25 24  1  0
 26 25  2  0
 27 26  1  0
 27 22  2  0
 28 29  1  0
 29 34  2  0
 29 30  1  0
 30 31  2  0
 31 32  1  0
 32 36  1  0
 33 32  2  0
 34 33  1  0
 35 34  1  0
 37 38  1  0
 38 41  1  0
 38 40  1  0
 39 37  2  0
 42 17  1  0
 42 43  1  0
 44 42  1  0
 46 45  1  0
 48 47  1  0
 48 49  1  0
 50 49  1  0
 51 62  2  0
 52 50  1  0
 52 57  1  0
 53 61  1  0
 53 63  1  0
 54 56  1  0
 55 61  1  0
 56 57  2  0
 56 55  1  0
 58 52  2  0
 59 58  1  0
 59 54  2  0
 60 54  1  0
 60 53  1  0
 61 51  1  0
 63 65  2  0
 64 63  1  0
 66 64  1  0
 67 72  1  0
 68 64  1  0
 69 68  1  0
 70 71  1  0
 70 69  1  0
 71 67  1  0
 72 68  1  0
 72 73  2  0
 74 73  1  0
 75 74  2  0
 76 67  2  0
 76 75  1  0
 77 51  1  0
 77 82  1  0
 77 78  1  0
 78 81  1  1
 78 79  1  0
 80 78  1  0
 82 85  1  0
 83 87  1  0
 83 82  1  0
 84 83  2  0
 87 86  1  0
 89 87  1  0
 89 90  1  0
 89 88  1  0
M  ISO  4   7 100  15 100  49 101  50 101
M  END
>  <TORSDO>  (50) 
F 20

>  <SCORE>  (50) 
-9.753

>  <name>  (50) 
49

>  <ligand_id>  (50) 
49

>  <original_smiles>  (50) 
[H]c1c([H])c([H])c2c(c1[H])C([H])([H])C([H])([H])C([H])([H])C2([H])N([H])C(=O)C1([H])N(C(=O)C([H])(N([H])C(=O)C([H])(N([H])C([H])([H])[H])C([H])([H])[H])C(C([H])([H])[H])(C([H])([H])[H])C([H])([H])[H])C([H])([H])c2c([H])c(OC([H])([H])C([H])([H])C([H])([H])c3c([H])c([H])c(N([H])C(=O)N4C([H])([H])C([H])([H])C([H])([H])C([H])(n5nc(-c6c([H])c([H])c(Oc7c([H])c([H])c(F)c([H])c7F)c([H])c6[H])c(C(=O)N([H])[H])c5N([H])[H])C4([H])[H])c(C([H])([H])C([H])([H])[H])c3[H])c([H])c([H])c2C1([H])[H]

>  <smiles>  (50) 
[H]c1c([H])c([H])c2c(c1[H])C([H])([H])C([H])([H])C([H])([H])C2([H])N([H])C(=O)C1([H])N(C(=O)C([H])(N([H])C(=O)C([H])(N([H])C([H])([H])[H])C([H])([H])[H])C(C([H])([H])[H])(C([H])([H])[H])C([H])([H])[H])C([H])([H])c2c([H])c(OC([H])([H])C([H])([H])C([H])([H])c3c([H])c([H])c(N([H])C(=O)N4C([H])([H])C([H])([H])C([H])([H])C([H])(n5nc(-c6c([H])c([H])c(Oc7c([H])c([H])c(F)c([H])c7F)c([H])c6[H])c(C(=O)N([H])[H])c5N([H])[H])C4([H])[H])c(C([H])([H])C([H])([H])[H])c3[H])c([H])c([H])c2C1([H])[H]

$$$$
50:0:0
     RDKit          3D

 91 99  0  0  1  0  0  0  0  0999 V2000
  -27.8980  -20.7520   20.2920 C   0  0  0  0  0  3  0  0  0  0  0  0
  -28.3920  -21.9540   20.6630 C   0  0  0  0  0  3  0  0  0  0  0  0
  -27.9490  -18.5630   19.2210 C   0  0  0  0  0  3  0  0  0  0  0  0
  -28.4530  -17.2790   18.9760 C   0  0  0  0  0  3  0  0  0  0  0  0
  -30.2630  -17.6760   20.5500 C   0  0  0  0  0  3  0  0  0  0  0  0
  -28.5690  -19.4320   20.1410 C   0  0  0  0  0  0  0  0  0  0  0  0
  -29.7300  -18.9680   20.8270 C   0  0  0  0  0  0  0  0  0  0  0  0
  -29.6080  -16.8250   19.6380 C   0  0  0  0  0  0  0  0  0  0  0  0
  -30.3660  -19.7780   21.9410 C   0  0  0  0  0  1  0  0  0  0  0  0
  -30.8300  -14.6000   19.9370 C   0  0  0  0  0  0  0  0  0  0  0  0
  -30.6240  -12.3710   18.9560 C   0  0  0  0  0  2  0  0  0  0  0  0
  -29.6050  -12.5050   17.7990 C   0  0  0  0  0  2  0  0  0  0  0  0
  -28.1540  -12.3650   18.3090 C   0  0  0  0  0  2  0  0  0  0  0  0
  -27.8480  -13.2460   19.5470 C   0  0  0  0  0  3  0  0  0  0  0  0
  -28.9690  -13.1070   20.6110 C   0  0  0  0  0  2  0  0  0  0  0  0
  -30.2710  -13.3700   19.9710 N   0  0  0  0  0  0  0  0  0  0  0  0
  -32.0300  -14.8290   19.7630 O   0  0  0  0  0  0  0  0  0  0  0  0
  -29.9090  -15.4560   19.4590 N   0  0  0  0  0  0  0  0  0  0  0  0
  -29.1490  -14.9470   19.0450 H   0  0  0  0  0  0  0  0  0  0  0  0
  -25.5010  -13.8770   20.3780 C   0  0  0  0  0  0  0  0  0  0  0  0
  -24.4460  -13.1110   20.7880 C   0  0  0  0  0  0  0  0  0  0  0  0
  -24.8980  -11.7570   20.7330 C   0  0  0  0  0  0  0  0  0  0  0  0
  -26.5270  -12.9880   20.0980 N   0  0  0  0  0  0  0  0  0  0  0  0
  -26.1730  -11.7110   20.3740 N   0  0  0  0  0  0  0  0  0  0  0  0
  -24.1770  -10.4970   20.9450 C   0  0  0  0  0  0  0  0  0  0  0  0
  -24.5820   -9.5750   21.9340 C   0  0  0  0  0  3  0  0  0  0  0  0
  -23.8650   -8.3750   22.1300 C   0  0  0  0  0  3  0  0  0  0  0  0
  -22.7270   -8.0930   21.3370 C   0  0  0  0  0  0  0  0  0  0  0  0
  -22.3400   -9.0050   20.3410 C   0  0  0  0  0  3  0  0  0  0  0  0
  -23.0590  -10.1960   20.1430 C   0  0  0  0  0  3  0  0  0  0  0  0
  -21.9840   -6.9420   21.4420 O   0  0  0  0  0  0  0  0  0  0  0  0
  -21.8130   -6.3050   22.6450 C   0  0  0  0  0  0  0  0  0  0  0  0
  -21.2180   -6.9490   23.7530 C   0  0  0  0  0  3  0  0  0  0  0  0
  -20.9960   -6.2370   24.9470 C   0  0  0  0  0  3  0  0  0  0  0  0
  -21.3600   -4.8790   25.0370 C   0  0  0  0  0  0  0  0  0  0  0  0
  -21.9490   -4.2340   23.9340 C   0  0  0  0  0  3  0  0  0  0  0  0
  -22.1700   -4.9450   22.7430 C   0  0  0  0  0  0  0  0  0  0  0  0
  -22.7180   -4.3150   21.6750 F   0  0  0  0  0  0  0  0  0  0  0  0
  -21.1410   -4.1890   26.1810 F   0  0  0  0  0  0  0  0  0  0  0  0
  -23.0620  -13.5910   21.1180 C   0  0  0  0  0  0  0  0  0  0  0  0
  -22.3720  -12.9000   22.0190 N   0  0  0  0  0  0  0  0  0  0  0  0
  -22.6000  -14.6140   20.6130 O   0  0  0  0  0  0  0  0  0  0  0  0
  -22.7570  -12.0730   22.4500 H   0  0  0  0  0  0  0  0  0  0  0  0
  -21.4440  -13.2010   22.2790 H   0  0  0  0  0  0  0  0  0  0  0  0
  -25.6640  -15.2490   20.1950 N   0  0  0  0  0  0  0  0  0  0  0  0
  -24.9020  -15.9010   20.3410 H   0  0  0  0  0  0  0  0  0  0  0  0
  -26.5150  -15.6960   19.8780 H   0  0  0  0  0  0  0  0  0  0  0  0
  -27.5010  -23.1910   20.7820 C   0  0  0  0  0  2  0  0  0  0  0  0
  -28.1930  -24.5690   20.9610 C   0  0  0  0  0  2  0  0  0  0  0  0
  -28.4940  -25.3840   19.6770 C   0  0  0  0  0  2  0  0  0  0  0  0
  -28.4720  -26.7980   19.9560 O   0  0  0  0  0  0  0  0  0  0  0  0
  -24.6230  -31.8620   23.1790 C   0  0  0  0  0  0  0  0  0  0  0  0
  -27.2600  -27.4690   20.0020 C   0  0  0  0  0  0  0  0  0  0  0  0
  -23.4090  -30.4570   21.5500 C   0  0  0  0  0  3  0  0  0  0  0  0
  -24.8480  -28.9520   20.0900 C   0  0  0  0  0  0  0  0  0  0  0  0
  -25.9300  -30.8470   21.3160 C   0  0  0  0  0  2  0  0  0  0  0  0
  -26.0130  -29.4830   20.6560 C   0  0  0  0  0  0  0  0  0  0  0  0
  -27.2210  -28.7520   20.6010 C   0  0  0  0  0  3  0  0  0  0  0  0
  -26.0610  -26.9440   19.4570 C   0  0  0  0  0  3  0  0  0  0  0  0
  -24.8650  -27.6860   19.4880 C   0  0  0  0  0  3  0  0  0  0  0  0
  -23.6010  -29.7970   20.1610 C   0  0  0  0  0  2  0  0  0  0  0  0
  -24.6740  -31.0720   22.0710 N   0  0  0  0  0  0  0  0  0  0  0  0
  -23.5460  -32.1200   23.7370 O   0  0  0  0  0  0  0  0  0  0  0  0
  -22.7850  -29.4220   22.5140 C   0  0  0  0  0  0  0  0  0  0  0  0
  -21.4630  -29.2130   22.3920 N   0  0  0  0  0  0  0  0  0  0  0  0
  -23.4830  -28.8070   23.3270 O   0  0  0  0  0  0  0  0  0  0  0  0
  -20.9620  -29.7280   21.6800 H   0  0  0  0  0  0  0  0  0  0  0  0
  -18.1020  -28.0130   22.9420 C   0  0  0  0  0  0  0  0  0  0  0  0
  -20.6630  -28.2760   23.1790 C   0  0  0  0  0  3  0  0  0  0  0  0
  -20.7570  -26.8450   22.6040 C   0  0  0  0  0  2  0  0  0  0  0  0
  -19.6520  -26.5330   21.5860 C   0  0  0  0  0  2  0  0  0  0  0  0
  -18.2680  -26.6770   22.2380 C   0  0  0  0  0  2  0  0  0  0  0  0
  -19.2270  -28.7770   23.3540 C   0  0  0  0  0  0  0  0  0  0  0  0
  -19.0210  -30.0340   23.9570 C   0  0  0  0  0  3  0  0  0  0  0  0
  -17.7200  -30.5300   24.1620 C   0  0  0  0  0  3  0  0  0  0  0  0
  -16.6100  -29.7620   23.7740 C   0  0  0  0  0  3  0  0  0  0  0  0
  -16.8010  -28.5080   23.1660 C   0  0  0  0  0  3  0  0  0  0  0  0
  -25.9110  -32.5030   23.7850 C   0  0  0  0  0  3  0  0  0  0  0  0
  -26.4610  -31.7230   25.0420 C   0  0  1  0  0  0  0  0  0  0  0  0
  -25.3930  -31.4520   26.1270 C   0  0  0  0  0  1  0  0  0  0  0  0
  -27.0600  -30.3600   24.6240 C   0  0  0  0  0  1  0  0  0  0  0  0
  -27.6160  -32.5230   25.6940 C   0  0  0  0  0  1  0  0  0  0  0  0
  -25.5910  -33.8930   24.1360 N   0  0  0  0  0  0  0  0  0  0  0  0
  -25.8990  -34.9560   23.3820 C   0  0  0  0  0  0  0  0  0  0  0  0
  -26.5500  -34.8680   22.3380 O   0  0  0  0  0  0  0  0  0  0  0  0
  -25.0160  -34.0370   24.9530 H   0  0  0  0  0  0  0  0  0  0  0  0
  -24.1400  -36.7250   23.0780 C   0  0  0  0  0  1  0  0  0  0  0  0
  -25.4060  -36.3350   23.8580 C   0  0  0  0  0  3  0  0  0  0  0  0
  -27.5460  -37.2400   24.6500 C   0  0  0  0  0  1  0  0  0  0  0  0
  -26.4240  -37.4020   23.7290 N   0  0  0  0  0  0  0  0  0  0  0  0
  -26.0100  -38.3150   23.8910 H   0  0  0  0  0  0  0  0  0  0  0  0
  1  2  2  0
  2 48  1  0
  3  6  1  0
  4  3  2  0
  4  8  1  0
  5  7  1  0
  6  1  1  0
  6  7  2  0
  7  9  1  0
  8  5  2  0
 10 16  1  0
 11 16  1  0
 12 13  1  0
 12 11  1  0
 14 13  1  0
 14 23  1  0
 14 15  1  0
 16 15  1  0
 17 10  2  0
 18  8  1  0
 18 10  1  0
 19 18  1  0
 20 21  2  0
 21 40  1  0
 22 21  1  0
 22 25  1  0
 23 24  1  0
 23 20  1  0
 24 22  2  0
 25 26  1  0
 26 27  2  0
 28 31  1  0
 28 27  1  0
 29 28  2  0
 30 29  1  0
 30 25  2  0
 31 32  1  0
 32 37  2  0
 32 33  1  0
 33 34  2  0
 34 35  1  0
 35 39  1  0
 36 35  2  0
 37 36  1  0
 38 37  1  0
 40 41  1  0
 41 44  1  0
 41 43  1  0
 42 40  2  0
 45 46  1  0
 45 20  1  0
 47 45  1  0
 48 49  1  0
 50 51  1  0
 50 49  1  0
 51 53  1  0
 52 63  2  0
 53 58  1  0
 54 62  1  0
 54 64  1  0
 55 61  1  0
 55 57  1  0
 56 62  1  0
 57 56  1  0
 58 57  2  0
 59 60  1  0
 59 53  2  0
 60 55  2  0
 61 54  1  0
 62 52  1  0
 64 66  2  0
 65 64  1  0
 67 65  1  0
 68 77  2  0
 68 73  1  0
 69 65  1  0
 69 73  1  0
 70 69  1  0
 71 72  1  0
 71 70  1  0
 72 68  1  0
 73 74  2  0
 74 75  1  0
 76 75  2  0
 77 76  1  0
 78 52  1  0
 78 83  1  0
 78 79  1  0
 79 82  1  1
 79 80  1  0
 81 79  1  0
 83 86  1  0
 84 88  1  0
 84 83  1  0
 85 84  2  0
 88 87  1  0
 90 88  1  0
 90 91  1  0
 90 89  1  0
M  ISO  4  10 100  18 100  50 101  51 101
M  END
>  <TORSDO>  (51) 
F 20

>  <SCORE>  (51) 
-13.597

>  <name>  (51) 
50

>  <ligand_id>  (51) 
50

>  <original_smiles>  (51) 
[H]C(=C([H])C([H])([H])C([H])([H])C([H])([H])Oc1c([H])c([H])c2c(c1[H])C([H])([H])N(C(=O)C([H])(N([H])C(=O)C([H])(N([H])C([H])([H])[H])C([H])([H])[H])C(C([H])([H])[H])(C([H])([H])[H])C([H])([H])[H])C([H])(C(=O)N([H])C1([H])c3c([H])c([H])c([H])c([H])c3C([H])([H])C([H])([H])C1([H])[H])C2([H])[H])c1c([H])c([H])c(N([H])C(=O)N2C([H])([H])C([H])([H])C([H])([H])C([H])(n3nc(-c4c([H])c([H])c(Oc5c([H])c([H])c(F)c([H])c5F)c([H])c4[H])c(C(=O)N([H])[H])c3N([H])[H])C2([H])[H])c([H])c1C([H])([H])[H]

>  <smiles>  (51) 
[H]C(=C([H])C([H])([H])C([H])([H])C([H])([H])Oc1c([H])c([H])c2c(c1[H])C([H])([H])N(C(=O)C([H])(N([H])C(=O)C([H])(N([H])C([H])([H])[H])C([H])([H])[H])C(C([H])([H])[H])(C([H])([H])[H])C([H])([H])[H])C([H])(C(=O)N([H])C1([H])c3c([H])c([H])c([H])c([H])c3C([H])([H])C([H])([H])C1([H])[H])C2([H])[H])c1c([H])c([H])c(N([H])C(=O)N2C([H])([H])C([H])([H])C([H])([H])C([H])(n3nc(-c4c([H])c([H])c(Oc5c([H])c([H])c(F)c([H])c5F)c([H])c4[H])c(C(=O)N([H])[H])c3N([H])[H])C2([H])[H])c([H])c1C([H])([H])[H]

$$$$
51:0:0
     RDKit          3D

 93101  0  0  1  0  0  0  0  0999 V2000
  -30.1180  -20.8500   18.8930 C   0  0  0  0  0  3  0  0  0  0  0  0
  -30.0300  -22.1540   19.2130 C   0  0  0  0  0  3  0  0  0  0  0  0
  -28.0220  -19.4950   19.3190 C   0  0  0  0  0  3  0  0  0  0  0  0
  -30.1810  -18.7330   20.1480 C   0  0  0  0  0  3  0  0  0  0  0  0
  -28.2100  -17.3440   20.4620 C   0  0  0  0  0  3  0  0  0  0  0  0
  -29.4100  -19.7020   19.4750 C   0  0  0  0  0  0  0  0  0  0  0  0
  -27.4220  -18.3100   19.8010 C   0  0  0  0  0  0  0  0  0  0  0  0
  -29.5920  -17.5530   20.6440 C   0  0  0  0  0  0  0  0  0  0  0  0
  -25.9420  -18.0550   19.5820 C   0  0  0  0  0  1  0  0  0  0  0  0
  -30.4490  -16.5290   21.3740 C   0  0  0  0  0  2  0  0  0  0  0  0
  -30.6540  -14.1840   20.5480 C   0  0  0  0  0  0  0  0  0  0  0  0
  -30.4210  -11.9230   19.5870 C   0  0  0  0  0  2  0  0  0  0  0  0
  -29.5010  -11.9760   18.3510 C   0  0  0  0  0  2  0  0  0  0  0  0
  -28.0260  -11.8250   18.7690 C   0  0  0  0  0  2  0  0  0  0  0  0
  -27.6410  -12.7960   19.9180 C   0  0  0  0  0  3  0  0  0  0  0  0
  -28.6710  -12.7180   21.0650 C   0  0  0  0  0  2  0  0  0  0  0  0
  -30.0040  -12.9930   20.5000 N   0  0  0  0  0  0  0  0  0  0  0  0
  -31.7410  -14.3880   20.0010 O   0  0  0  0  0  0  0  0  0  0  0  0
  -29.9920  -15.1540   21.1890 N   0  0  0  0  0  0  0  0  0  0  0  0
  -29.0870  -14.9070   21.5630 H   0  0  0  0  0  0  0  0  0  0  0  0
  -25.2490  -13.4370   20.6140 C   0  0  0  0  0  0  0  0  0  0  0  0
  -24.1790  -12.6750   21.0030 C   0  0  0  0  0  0  0  0  0  0  0  0
  -24.6330  -11.3220   20.9980 C   0  0  0  0  0  0  0  0  0  0  0  0
  -26.2890  -12.5440   20.4020 N   0  0  0  0  0  0  0  0  0  0  0  0
  -25.9210  -11.2700   20.6870 N   0  0  0  0  0  0  0  0  0  0  0  0
  -23.9020  -10.0670   21.2140 C   0  0  0  0  0  0  0  0  0  0  0  0
  -24.3440   -9.1070   22.1500 C   0  0  0  0  0  3  0  0  0  0  0  0
  -23.6140   -7.9170   22.3520 C   0  0  0  0  0  3  0  0  0  0  0  0
  -22.4280   -7.6770   21.6200 C   0  0  0  0  0  0  0  0  0  0  0  0
  -22.0040   -8.6270   20.6760 C   0  0  0  0  0  3  0  0  0  0  0  0
  -22.7330   -9.8100   20.4710 C   0  0  0  0  0  3  0  0  0  0  0  0
  -21.6680   -6.5370   21.7330 O   0  0  0  0  0  0  0  0  0  0  0  0
  -21.6480   -5.7970   22.8880 C   0  0  0  0  0  0  0  0  0  0  0  0
  -21.2550   -6.3540   24.1240 C   0  0  0  0  0  3  0  0  0  0  0  0
  -21.1790   -5.5380   25.2700 C   0  0  0  0  0  3  0  0  0  0  0  0
  -21.4890   -4.1680   25.1820 C   0  0  0  0  0  0  0  0  0  0  0  0
  -21.8790   -3.6120   23.9510 C   0  0  0  0  0  3  0  0  0  0  0  0
  -21.9540   -4.4240   22.8060 C   0  0  0  0  0  0  0  0  0  0  0  0
  -22.3060   -3.8790   21.6170 F   0  0  0  0  0  0  0  0  0  0  0  0
  -21.4110   -3.3810   26.2810 F   0  0  0  0  0  0  0  0  0  0  0  0
  -22.7850  -13.1650   21.2710 C   0  0  0  0  0  0  0  0  0  0  0  0
  -22.0600  -12.4890   22.1560 N   0  0  0  0  0  0  0  0  0  0  0  0
  -22.3490  -14.1820   20.7340 O   0  0  0  0  0  0  0  0  0  0  0  0
  -22.4290  -11.6690   22.6130 H   0  0  0  0  0  0  0  0  0  0  0  0
  -21.1230  -12.7970   22.3740 H   0  0  0  0  0  0  0  0  0  0  0  0
  -25.4180  -14.7990   20.4040 N   0  0  0  0  0  0  0  0  0  0  0  0
  -24.6370  -15.4430   20.4510 H   0  0  0  0  0  0  0  0  0  0  0  0
  -26.2720  -15.2290   20.0700 H   0  0  0  0  0  0  0  0  0  0  0  0
  -29.1990  -22.7790   20.3250 C   0  0  0  0  0  2  0  0  0  0  0  0
  -29.3530  -24.3030   20.3420 C   0  0  0  0  0  0  0  0  0  0  0  0
  -30.4380  -24.8530   20.1160 O   0  0  0  0  0  0  0  0  0  0  0  0
  -28.0960  -25.1110   20.6590 C   0  0  0  0  0  2  0  0  0  0  0  0
  -28.3040  -26.5020   20.3820 O   0  0  0  0  0  0  0  0  0  0  0  0
  -24.6010  -31.8140   23.2900 C   0  0  0  0  0  0  0  0  0  0  0  0
  -27.1570  -27.2540   20.3430 C   0  0  0  0  0  0  0  0  0  0  0  0
  -23.3800  -30.4240   21.6460 C   0  0  0  0  0  3  0  0  0  0  0  0
  -24.8080  -28.8170   20.2800 C   0  0  0  0  0  0  0  0  0  0  0  0
  -25.9160  -30.7060   21.4880 C   0  0  0  0  0  2  0  0  0  0  0  0
  -25.9700  -29.3230   20.8760 C   0  0  0  0  0  0  0  0  0  0  0  0
  -27.1500  -28.5480   20.9030 C   0  0  0  0  0  3  0  0  0  0  0  0
  -25.9830  -26.7640   19.7280 C   0  0  0  0  0  3  0  0  0  0  0  0
  -24.8080  -27.5370   19.7020 C   0  0  0  0  0  3  0  0  0  0  0  0
  -23.5910  -29.7130   20.2830 C   0  0  0  0  0  2  0  0  0  0  0  0
  -24.6500  -30.9970   22.2000 N   0  0  0  0  0  0  0  0  0  0  0  0
  -23.5190  -32.1280   23.8070 O   0  0  0  0  0  0  0  0  0  0  0  0
  -22.6810  -29.4390   22.6100 C   0  0  0  0  0  0  0  0  0  0  0  0
  -21.3520  -29.3090   22.4690 N   0  0  0  0  0  0  0  0  0  0  0  0
  -23.3320  -28.7920   23.4350 O   0  0  0  0  0  0  0  0  0  0  0  0
  -20.8930  -29.8790   21.7710 H   0  0  0  0  0  0  0  0  0  0  0  0
  -17.9230  -28.2750   22.9660 C   0  0  0  0  0  0  0  0  0  0  0  0
  -20.4900  -28.4100   23.2330 C   0  0  0  0  0  3  0  0  0  0  0  0
  -20.5240  -26.9760   22.6540 C   0  0  0  0  0  2  0  0  0  0  0  0
  -19.3960  -26.6940   21.6560 C   0  0  0  0  0  2  0  0  0  0  0  0
  -18.0320  -26.9070   22.3170 C   0  0  0  0  0  2  0  0  0  0  0  0
  -19.0770  -28.9860   23.3880 C   0  0  0  0  0  0  0  0  0  0  0  0
  -18.9200  -30.2650   23.9660 C   0  0  0  0  0  3  0  0  0  0  0  0
  -17.6410  -30.8280   24.1250 C   0  0  0  0  0  3  0  0  0  0  0  0
  -16.5000  -30.1150   23.7160 C   0  0  0  0  0  3  0  0  0  0  0  0
  -16.6430  -28.8390   23.1420 C   0  0  0  0  0  3  0  0  0  0  0  0
  -25.8960  -32.4100   23.9240 C   0  0  0  0  0  3  0  0  0  0  0  0
  -25.6260  -33.8200   24.2340 N   0  0  0  0  0  0  0  0  0  0  0  0
  -25.9940  -34.8520   23.4640 C   0  0  0  0  0  0  0  0  0  0  0  0
  -26.6720  -34.7140   22.4400 O   0  0  0  0  0  0  0  0  0  0  0  0
  -25.0280  -34.0020   25.0280 H   0  0  0  0  0  0  0  0  0  0  0  0
  -24.3100  -36.6770   23.0810 C   0  0  0  0  0  1  0  0  0  0  0  0
  -25.5410  -36.2580   23.8980 C   0  0  0  0  0  3  0  0  0  0  0  0
  -27.7000  -37.1040   24.7110 C   0  0  0  0  0  1  0  0  0  0  0  0
  -26.6000  -37.2830   23.7660 N   0  0  0  0  0  0  0  0  0  0  0  0
  -26.2170  -38.2160   23.9000 H   0  0  0  0  0  0  0  0  0  0  0  0
  -26.3730  -31.6340   25.2130 C   0  0  1  0  0  0  0  0  0  0  0  0
  -25.2560  -31.4300   26.2630 C   0  0  0  0  0  1  0  0  0  0  0  0
  -26.9260  -30.2410   24.8330 C   0  0  0  0  0  1  0  0  0  0  0  0
  -27.5340  -32.4020   25.8870 C   0  0  0  0  0  1  0  0  0  0  0  0
  1  2  2  0
  1  6  1  0
  2 49  1  0
  3  6  2  0
  3  7  1  0
  4  8  2  0
  5  8  1  0
  6  4  1  0
  7  5  2  0
  8 10  1  0
  9  7  1  0
 11 19  1  0
 12 17  1  0
 13 14  1  0
 13 12  1  0
 15 14  1  0
 15 24  1  0
 15 16  1  0
 17 11  1  0
 17 16  1  0
 18 11  2  0
 19 10  1  0
 19 20  1  0
 21 22  2  0
 22 41  1  0
 23 22  1  0
 23 26  1  0
 24 21  1  0
 24 25  1  0
 25 23  2  0
 26 27  1  0
 27 28  2  0
 29 32  1  0
 29 28  1  0
 30 29  2  0
 31 30  1  0
 31 26  2  0
 32 33  1  0
 33 34  1  0
 34 35  2  0
 36 35  1  0
 36 40  1  0
 37 36  2  0
 38 33  2  0
 38 37  1  0
 39 38  1  0
 41 42  1  0
 42 45  1  0
 42 44  1  0
 43 41  2  0
 46 47  1  0
 46 21  1  0
 48 46  1  0
 49 50  1  0
 50 52  1  0
 51 50  2  0
 53 52  1  0
 54 65  2  0
 55 53  1  0
 55 60  1  0
 56 64  1  0
 56 66  1  0
 57 63  1  0
 57 59  1  0
 58 64  1  0
 59 60  2  0
 59 58  1  0
 61 55  2  0
 62 61  1  0
 62 57  2  0
 63 56  1  0
 64 54  1  0
 66 68  2  0
 67 66  1  0
 69 67  1  0
 70 79  2  0
 70 75  1  0
 71 67  1  0
 71 75  1  0
 72 71  1  0
 73 74  1  0
 73 72  1  0
 74 70  1  0
 75 76  2  0
 76 77  1  0
 78 77  2  0
 79 78  1  0
 80 54  1  0
 80 81  1  0
 80 90  1  0
 81 84  1  0
 82 86  1  0
 82 81  1  0
 83 82  2  0
 86 85  1  0
 88 86  1  0
 88 89  1  0
 88 87  1  0
 90 93  1  1
 90 91  1  0
 92 90  1  0
M  ISO  4  11 100  19 100  52 101  53 101
M  END
>  <TORSDO>  (52) 
F 21

>  <SCORE>  (52) 
-12.985

>  <name>  (52) 
51

>  <ligand_id>  (52) 
51

>  <original_smiles>  (52) 
[H]C(=C([H])C([H])([H])C(=O)C([H])([H])Oc1c([H])c([H])c2c(c1[H])C([H])([H])N(C(=O)C([H])(N([H])C(=O)C([H])(N([H])C([H])([H])[H])C([H])([H])[H])C(C([H])([H])[H])(C([H])([H])[H])C([H])([H])[H])C([H])(C(=O)N([H])C1([H])c3c([H])c([H])c([H])c([H])c3C([H])([H])C([H])([H])C1([H])[H])C2([H])[H])c1c([H])c(C([H])([H])[H])c([H])c(C([H])([H])N([H])C(=O)N2C([H])([H])C([H])([H])C([H])([H])C([H])(n3nc(-c4c([H])c([H])c(Oc5c([H])c([H])c(F)c([H])c5F)c([H])c4[H])c(C(=O)N([H])[H])c3N([H])[H])C2([H])[H])c1[H]

>  <smiles>  (52) 
[H]C(=C([H])C([H])([H])C(=O)C([H])([H])Oc1c([H])c([H])c2c(c1[H])C([H])([H])N(C(=O)C([H])(N([H])C(=O)C([H])(N([H])C([H])([H])[H])C([H])([H])[H])C(C([H])([H])[H])(C([H])([H])[H])C([H])([H])[H])C([H])(C(=O)N([H])C1([H])c3c([H])c([H])c([H])c([H])c3C([H])([H])C([H])([H])C1([H])[H])C2([H])[H])c1c([H])c(C([H])([H])[H])c([H])c(C([H])([H])N([H])C(=O)N2C([H])([H])C([H])([H])C([H])([H])C([H])(n3nc(-c4c([H])c([H])c(Oc5c([H])c([H])c(F)c([H])c5F)c([H])c4[H])c(C(=O)N([H])[H])c3N([H])[H])C2([H])[H])c1[H]

$$$$
52:0:0
     RDKit          3D

 91 99  0  0  1  0  0  0  0  0999 V2000
  -30.9790  -19.1920   19.5590 C   0  0  0  0  0  3  0  0  0  0  0  0
  -30.9980  -17.7800   19.7420 C   0  0  0  0  0  3  0  0  0  0  0  0
  -28.6700  -19.2640   20.1910 C   0  0  0  0  0  3  0  0  0  0  0  0
  -29.8200  -19.9820   19.7820 C   0  0  0  0  0  0  0  0  0  0  0  0
  -28.6640  -17.8420   20.3700 C   0  0  0  0  0  0  0  0  0  0  0  0
  -29.8480  -17.0600   20.1570 C   0  0  0  0  0  0  0  0  0  0  0  0
  -30.5620  -14.5750   19.8290 C   0  0  0  0  0  0  0  0  0  0  0  0
  -30.2640  -12.3460   18.7710 C   0  0  0  0  0  2  0  0  0  0  0  0
  -29.2230  -12.4900   17.6370 C   0  0  0  0  0  2  0  0  0  0  0  0
  -27.7890  -12.3380   18.1820 C   0  0  0  0  0  2  0  0  0  0  0  0
  -27.5380  -13.1910   19.4540 C   0  0  0  0  0  3  0  0  0  0  0  0
  -28.6810  -13.0110   20.4780 C   0  0  0  0  0  2  0  0  0  0  0  0
  -29.9450  -13.3520   19.8030 N   0  0  0  0  0  0  0  0  0  0  0  0
  -31.6760  -14.7400   19.3210 O   0  0  0  0  0  0  0  0  0  0  0  0
  -29.8130  -15.6040   20.3290 N   0  0  0  0  0  0  0  0  0  0  0  0
  -28.9940  -15.2690   20.8100 H   0  0  0  0  0  0  0  0  0  0  0  0
  -25.2230  -13.8010   20.3890 C   0  0  0  0  0  0  0  0  0  0  0  0
  -24.1790  -13.0330   20.8260 C   0  0  0  0  0  0  0  0  0  0  0  0
  -24.6120  -11.6770   20.7100 C   0  0  0  0  0  0  0  0  0  0  0  0
  -26.2280  -12.9140   20.0410 N   0  0  0  0  0  0  0  0  0  0  0  0
  -25.8710  -11.6290   20.2910 N   0  0  0  0  0  0  0  0  0  0  0  0
  -23.8810  -10.4210   20.9200 C   0  0  0  0  0  0  0  0  0  0  0  0
  -24.3320   -9.4490   21.8380 C   0  0  0  0  0  3  0  0  0  0  0  0
  -23.6020   -8.2560   22.0350 C   0  0  0  0  0  3  0  0  0  0  0  0
  -22.4070   -8.0290   21.3120 C   0  0  0  0  0  0  0  0  0  0  0  0
  -21.9760   -8.9890   20.3810 C   0  0  0  0  0  3  0  0  0  0  0  0
  -22.7060  -10.1730   20.1830 C   0  0  0  0  0  3  0  0  0  0  0  0
  -21.6470   -6.8900   21.4190 O   0  0  0  0  0  0  0  0  0  0  0  0
  -21.5750   -6.1800   22.5910 C   0  0  0  0  0  0  0  0  0  0  0  0
  -21.1170   -6.7680   23.7900 C   0  0  0  0  0  3  0  0  0  0  0  0
  -20.9930   -5.9840   24.9550 C   0  0  0  0  0  3  0  0  0  0  0  0
  -21.3140   -4.6140   24.9220 C   0  0  0  0  0  0  0  0  0  0  0  0
  -21.7660   -4.0260   23.7270 C   0  0  0  0  0  3  0  0  0  0  0  0
  -21.8920   -4.8070   22.5640 C   0  0  0  0  0  0  0  0  0  0  0  0
  -22.3060   -4.2310   21.4100 F   0  0  0  0  0  0  0  0  0  0  0  0
  -21.1880   -3.8600   26.0380 F   0  0  0  0  0  0  0  0  0  0  0  0
  -22.8190  -13.5230   21.2340 C   0  0  0  0  0  0  0  0  0  0  0  0
  -22.1610  -12.8150   22.1460 N   0  0  0  0  0  0  0  0  0  0  0  0
  -22.3510  -14.5670   20.7800 O   0  0  0  0  0  0  0  0  0  0  0  0
  -22.5530  -11.9680   22.5320 H   0  0  0  0  0  0  0  0  0  0  0  0
  -21.2530  -13.1250   22.4630 H   0  0  0  0  0  0  0  0  0  0  0  0
  -25.3930  -15.1730   20.2340 N   0  0  0  0  0  0  0  0  0  0  0  0
  -24.6470  -15.8300   20.4340 H   0  0  0  0  0  0  0  0  0  0  0  0
  -26.2060  -15.6100   19.8230 H   0  0  0  0  0  0  0  0  0  0  0  0
  -29.8830  -21.4920   19.6120 C   0  0  0  0  0  3  0  0  0  0  0  0
  -28.9770  -22.4810   19.8890 C   0  0  0  0  0  3  0  0  0  0  0  0
  -29.2270  -24.0250   19.7760 C   0  0  0  0  0  3  0  0  0  0  0  0
  -28.0090  -24.9740   19.4330 C   0  0  0  0  0  3  0  0  0  0  0  0
  -28.2040  -26.4300   19.5950 O   0  0  0  0  0  0  0  0  0  0  0  0
  -24.5380  -31.5960   23.0390 C   0  0  0  0  0  0  0  0  0  0  0  0
  -27.0650  -27.2470   19.6380 C   0  0  0  0  0  0  0  0  0  0  0  0
  -23.2790  -30.2730   21.3780 C   0  0  0  0  0  3  0  0  0  0  0  0
  -24.6810  -28.8170   19.8130 C   0  0  0  0  0  0  0  0  0  0  0  0
  -25.8040  -30.6320   21.1060 C   0  0  0  0  0  2  0  0  0  0  0  0
  -25.8690  -29.2920   20.3840 C   0  0  0  0  0  0  0  0  0  0  0  0
  -27.0640  -28.5190   20.2870 C   0  0  0  0  0  3  0  0  0  0  0  0
  -25.8500  -26.8230   19.0500 C   0  0  0  0  0  3  0  0  0  0  0  0
  -24.6730  -27.5880   19.1390 C   0  0  0  0  0  3  0  0  0  0  0  0
  -23.4400  -29.6740   19.9560 C   0  0  0  0  0  2  0  0  0  0  0  0
  -24.5610  -30.8470   21.8980 N   0  0  0  0  0  0  0  0  0  0  0  0
  -23.4760  -31.8330   23.6320 O   0  0  0  0  0  0  0  0  0  0  0  0
  -22.6660  -29.1990   22.3070 C   0  0  0  0  0  0  0  0  0  0  0  0
  -21.3380  -29.0140   22.2230 N   0  0  0  0  0  0  0  0  0  0  0  0
  -23.3820  -28.5390   23.0650 O   0  0  0  0  0  0  0  0  0  0  0  0
  -20.8180  -29.6000   21.5840 H   0  0  0  0  0  0  0  0  0  0  0  0
  -17.9960  -27.7380   22.7660 C   0  0  0  0  0  0  0  0  0  0  0  0
  -20.5560  -28.0300   22.9750 C   0  0  0  0  0  3  0  0  0  0  0  0
  -20.6660  -26.6260   22.3360 C   0  0  0  0  0  2  0  0  0  0  0  0
  -19.5400  -26.3280   21.3400 C   0  0  0  0  0  2  0  0  0  0  0  0
  -18.1750  -26.4220   22.0280 C   0  0  0  0  0  2  0  0  0  0  0  0
  -19.1150  -28.5010   23.1970 C   0  0  0  0  0  0  0  0  0  0  0  0
  -18.8940  -29.7350   23.8470 C   0  0  0  0  0  3  0  0  0  0  0  0
  -17.5860  -30.2060   24.0710 C   0  0  0  0  0  3  0  0  0  0  0  0
  -16.4820  -29.4400   23.6570 C   0  0  0  0  0  3  0  0  0  0  0  0
  -16.6880  -28.2090   23.0100 C   0  0  0  0  0  3  0  0  0  0  0  0
  -25.8420  -32.2060   23.6400 C   0  0  0  0  0  3  0  0  0  0  0  0
  -26.4180  -31.3730   24.8500 C   0  0  1  0  0  0  0  0  0  0  0  0
  -25.3760  -31.0780   25.9550 C   0  0  0  0  0  1  0  0  0  0  0  0
  -26.9800  -30.0180   24.3610 C   0  0  0  0  0  1  0  0  0  0  0  0
  -27.5990  -32.1340   25.4960 C   0  0  0  0  0  1  0  0  0  0  0  0
  -25.5350  -33.5810   24.0580 N   0  0  0  0  0  0  0  0  0  0  0  0
  -25.8470  -34.6780   23.3560 C   0  0  0  0  0  0  0  0  0  0  0  0
  -26.4930  -34.6390   22.3050 O   0  0  0  0  0  0  0  0  0  0  0  0
  -24.9590  -33.6840   24.8810 H   0  0  0  0  0  0  0  0  0  0  0  0
  -24.1040  -36.4800   23.1480 C   0  0  0  0  0  1  0  0  0  0  0  0
  -25.3650  -36.0360   23.9050 C   0  0  0  0  0  3  0  0  0  0  0  0
  -27.5130  -36.8830   24.7410 C   0  0  0  0  0  1  0  0  0  0  0  0
  -26.3910  -37.0980   23.8300 N   0  0  0  0  0  0  0  0  0  0  0  0
  -25.9860  -38.0060   24.0370 H   0  0  0  0  0  0  0  0  0  0  0  0
  -26.1230  -17.5600   20.0140 C   0  0  0  0  0  1  0  0  0  0  0  0
  -27.3650  -17.1770   20.8340 C   0  0  0  0  0  2  0  0  0  0  0  0
  1  2  2  0
  1  4  1  0
  2  6  1  0
  3  5  1  0
  4  3  2  0
  5 91  1  0
  6 15  1  0
  6  5  2  0
  7 15  1  0
  8 13  1  0
  9 10  1  0
  9  8  1  0
 11 10  1  0
 11 20  1  0
 11 12  1  0
 13  7  1  0
 13 12  1  0
 14  7  2  0
 15 16  1  0
 17 18  2  0
 18 37  1  0
 19 18  1  0
 19 22  1  0
 20 21  1  0
 20 17  1  0
 21 19  2  0
 22 23  1  0
 23 24  2  0
 25 28  1  0
 25 24  1  0
 26 25  2  0
 27 26  1  0
 27 22  2  0
 28 29  1  0
 29 30  1  0
 30 31  2  0
 32 31  1  0
 32 36  1  0
 33 32  2  0
 34 29  2  0
 34 33  1  0
 35 34  1  0
 37 38  1  0
 38 41  1  0
 38 40  1  0
 39 37  2  0
 42 17  1  0
 42 43  1  0
 44 42  1  0
 45  4  1  0
 45 46  2  0
 47 46  1  0
 48 49  1  0
 48 47  2  0
 49 51  1  0
 50 61  2  0
 51 56  1  0
 52 60  1  0
 52 62  1  0
 53 59  1  0
 53 55  1  0
 54 60  1  0
 55 54  1  0
 56 55  2  0
 57 58  1  0
 57 51  2  0
 58 53  2  0
 59 52  1  0
 60 50  1  0
 62 64  2  0
 63 62  1  0
 65 63  1  0
 66 75  2  0
 66 71  1  0
 67 63  1  0
 67 71  1  0
 68 67  1  0
 69 70  1  0
 69 68  1  0
 70 66  1  0
 71 72  2  0
 72 73  1  0
 74 73  2  0
 75 74  1  0
 76 50  1  0
 76 81  1  0
 76 77  1  0
 77 80  1  1
 77 78  1  0
 79 77  1  0
 81 84  1  0
 82 86  1  0
 82 81  1  0
 83 82  2  0
 86 85  1  0
 88 86  1  0
 88 89  1  0
 88 87  1  0
 90 91  1  0
M  ISO  4   7 100  15 100  48 101  49 101
M  END
>  <TORSDO>  (53) 
F 20

>  <SCORE>  (53) 
-12.659

>  <name>  (53) 
52

>  <ligand_id>  (53) 
52

>  <original_smiles>  (53) 
[H]C(=C([H])C([H])([H])C([H])([H])Oc1c([H])c([H])c2c(c1[H])C([H])([H])N(C(=O)C([H])(N([H])C(=O)C([H])(N([H])C([H])([H])[H])C([H])([H])[H])C(C([H])([H])[H])(C([H])([H])[H])C([H])([H])[H])C([H])(C(=O)N([H])C1([H])c3c([H])c([H])c([H])c([H])c3C([H])([H])C([H])([H])C1([H])[H])C2([H])[H])c1c([H])c([H])c(N([H])C(=O)N2C([H])([H])C([H])([H])C([H])([H])C([H])(n3nc(-c4c([H])c([H])c(Oc5c([H])c([H])c(F)c([H])c5F)c([H])c4[H])c(C(=O)N([H])[H])c3N([H])[H])C2([H])[H])c(C([H])([H])C([H])([H])[H])c1[H]

>  <smiles>  (53) 
[H]C(=C([H])C([H])([H])C([H])([H])Oc1c([H])c([H])c2c(c1[H])C([H])([H])N(C(=O)C([H])(N([H])C(=O)C([H])(N([H])C([H])([H])[H])C([H])([H])[H])C(C([H])([H])[H])(C([H])([H])[H])C([H])([H])[H])C([H])(C(=O)N([H])C1([H])c3c([H])c([H])c([H])c([H])c3C([H])([H])C([H])([H])C1([H])[H])C2([H])[H])c1c([H])c([H])c(N([H])C(=O)N2C([H])([H])C([H])([H])C([H])([H])C([H])(n3nc(-c4c([H])c([H])c(Oc5c([H])c([H])c(F)c([H])c5F)c([H])c4[H])c(C(=O)N([H])[H])c3N([H])[H])C2([H])[H])c(C([H])([H])C([H])([H])[H])c1[H]

$$$$
53:0:0
     RDKit          3D

 89 97  0  0  1  0  0  0  0  0999 V2000
  -29.2730  -19.7810   20.7140 C   0  0  0  0  0  3  0  0  0  0  0  0
  -31.0340  -18.6220   19.5160 C   0  0  0  0  0  3  0  0  0  0  0  0
  -30.7210  -21.0730   19.2840 C   0  0  0  0  0  3  0  0  0  0  0  0
  -29.9610  -18.5310   20.4220 C   0  0  0  0  0  0  0  0  0  0  0  0
  -29.6140  -21.0770   20.1600 C   0  0  0  0  0  0  0  0  0  0  0  0
  -31.4080  -19.8720   18.9590 C   0  0  0  0  0  0  0  0  0  0  0  0
  -32.5640  -19.9310   17.9810 C   0  0  0  0  0  1  0  0  0  0  0  0
  -29.5270  -17.2130   21.0790 C   0  0  0  0  0  3  0  0  0  0  0  0
  -29.7120  -15.8280   21.1100 C   0  0  0  0  0  3  0  0  0  0  0  0
  -30.5430  -14.7680   20.4270 C   0  0  0  0  0  0  0  0  0  0  0  0
  -30.4030  -12.5180   19.3060 C   0  0  0  0  0  2  0  0  0  0  0  0
  -29.4410  -12.6200   18.0970 C   0  0  0  0  0  2  0  0  0  0  0  0
  -27.9670  -12.4440   18.5220 C   0  0  0  0  0  2  0  0  0  0  0  0
  -27.6120  -13.2780   19.7810 C   0  0  0  0  0  3  0  0  0  0  0  0
  -28.6760  -13.0630   20.8750 C   0  0  0  0  0  2  0  0  0  0  0  0
  -29.9710  -13.5080   20.3230 N   0  0  0  0  0  0  0  0  0  0  0  0
  -31.6680  -14.9580   19.9520 O   0  0  0  0  0  0  0  0  0  0  0  0
  -25.2190  -13.8810   20.4980 C   0  0  0  0  0  0  0  0  0  0  0  0
  -24.1500  -13.1110   20.8720 C   0  0  0  0  0  0  0  0  0  0  0  0
  -24.6110  -11.7590   20.8430 C   0  0  0  0  0  0  0  0  0  0  0  0
  -26.2610  -12.9990   20.2650 N   0  0  0  0  0  0  0  0  0  0  0  0
  -25.9010  -11.7170   20.5310 N   0  0  0  0  0  0  0  0  0  0  0  0
  -23.8840  -10.4970   21.0410 C   0  0  0  0  0  0  0  0  0  0  0  0
  -24.3280   -9.5260   21.9650 C   0  0  0  0  0  3  0  0  0  0  0  0
  -23.6010   -8.3290   22.1480 C   0  0  0  0  0  3  0  0  0  0  0  0
  -22.4160   -8.0970   21.4100 C   0  0  0  0  0  0  0  0  0  0  0  0
  -21.9910   -9.0590   20.4760 C   0  0  0  0  0  3  0  0  0  0  0  0
  -22.7180  -10.2460   20.2900 C   0  0  0  0  0  3  0  0  0  0  0  0
  -21.6600   -6.9530   21.5030 O   0  0  0  0  0  0  0  0  0  0  0  0
  -21.6360   -6.1970   22.6480 C   0  0  0  0  0  0  0  0  0  0  0  0
  -21.2540   -6.7450   23.8920 C   0  0  0  0  0  3  0  0  0  0  0  0
  -21.1760   -5.9160   25.0310 C   0  0  0  0  0  3  0  0  0  0  0  0
  -21.4700   -4.5430   24.9240 C   0  0  0  0  0  0  0  0  0  0  0  0
  -21.8450   -3.9970   23.6850 C   0  0  0  0  0  3  0  0  0  0  0  0
  -21.9250   -4.8220   22.5480 C   0  0  0  0  0  0  0  0  0  0  0  0
  -22.2660   -4.2860   21.3520 F   0  0  0  0  0  0  0  0  0  0  0  0
  -21.3880   -3.7450   26.0150 F   0  0  0  0  0  0  0  0  0  0  0  0
  -22.7540  -13.5910   21.1450 C   0  0  0  0  0  0  0  0  0  0  0  0
  -22.0280  -12.9010   22.0180 N   0  0  0  0  0  0  0  0  0  0  0  0
  -22.3150  -14.6140   20.6210 O   0  0  0  0  0  0  0  0  0  0  0  0
  -22.3950  -12.0740   22.4670 H   0  0  0  0  0  0  0  0  0  0  0  0
  -21.0910  -13.2070   22.2430 H   0  0  0  0  0  0  0  0  0  0  0  0
  -25.3870  -15.2520   20.3200 N   0  0  0  0  0  0  0  0  0  0  0  0
  -24.6280  -15.9150   20.4370 H   0  0  0  0  0  0  0  0  0  0  0  0
  -26.2470  -15.6880   20.0130 H   0  0  0  0  0  0  0  0  0  0  0  0
  -28.8250  -22.3800   20.4430 C   0  0  0  0  0  3  0  0  0  0  0  0
  -29.0020  -23.7100   20.0750 C   0  0  0  0  0  3  0  0  0  0  0  0
  -27.9590  -24.8860   20.3260 C   0  0  0  0  0  2  0  0  0  0  0  0
  -28.2920  -26.3550   20.2000 O   0  0  0  0  0  0  0  0  0  0  0  0
  -24.6150  -31.8890   23.2290 C   0  0  0  0  0  0  0  0  0  0  0  0
  -27.2000  -27.2680   20.1660 C   0  0  0  0  0  0  0  0  0  0  0  0
  -23.4050  -30.4920   21.5980 C   0  0  0  0  0  3  0  0  0  0  0  0
  -24.8480  -28.9380   20.1670 C   0  0  0  0  0  0  0  0  0  0  0  0
  -25.9520  -30.7840   21.4180 C   0  0  0  0  0  2  0  0  0  0  0  0
  -26.0250  -29.4020   20.7690 C   0  0  0  0  0  0  0  0  0  0  0  0
  -27.2020  -28.5800   20.7620 C   0  0  0  0  0  3  0  0  0  0  0  0
  -25.9980  -26.8930   19.5200 C   0  0  0  0  0  3  0  0  0  0  0  0
  -24.8420  -27.6910   19.5320 C   0  0  0  0  0  3  0  0  0  0  0  0
  -23.6160  -29.8210   20.2170 C   0  0  0  0  0  2  0  0  0  0  0  0
  -24.6760  -31.0740   22.1360 N   0  0  0  0  0  0  0  0  0  0  0  0
  -23.5340  -32.1730   23.7620 O   0  0  0  0  0  0  0  0  0  0  0  0
  -22.7400  -29.4760   22.5590 C   0  0  0  0  0  0  0  0  0  0  0  0
  -21.4140  -29.3000   22.4340 N   0  0  0  0  0  0  0  0  0  0  0  0
  -23.4180  -28.8530   23.3810 O   0  0  0  0  0  0  0  0  0  0  0  0
  -20.9250  -29.8550   21.7440 H   0  0  0  0  0  0  0  0  0  0  0  0
  -18.0380  -28.0980   22.9330 C   0  0  0  0  0  0  0  0  0  0  0  0
  -20.5940  -28.3670   23.2090 C   0  0  0  0  0  3  0  0  0  0  0  0
  -20.7020  -26.9300   22.6460 C   0  0  0  0  0  2  0  0  0  0  0  0
  -19.6050  -26.5960   21.6310 C   0  0  0  0  0  2  0  0  0  0  0  0
  -18.2210  -26.7430   22.2690 C   0  0  0  0  0  2  0  0  0  0  0  0
  -19.1520  -28.8660   23.3610 C   0  0  0  0  0  0  0  0  0  0  0  0
  -18.9260  -30.1330   23.9410 C   0  0  0  0  0  3  0  0  0  0  0  0
  -17.6180  -30.6300   24.1020 C   0  0  0  0  0  3  0  0  0  0  0  0
  -16.5190  -29.8570   23.6910 C   0  0  0  0  0  3  0  0  0  0  0  0
  -16.7290  -28.5940   23.1110 C   0  0  0  0  0  3  0  0  0  0  0  0
  -25.9000  -32.5230   23.8460 C   0  0  0  0  0  3  0  0  0  0  0  0
  -26.4220  -31.7500   25.1190 C   0  0  1  0  0  0  0  0  0  0  0  0
  -25.3330  -31.5130   26.1920 C   0  0  0  0  0  1  0  0  0  0  0  0
  -27.0010  -30.3710   24.7280 C   0  0  0  0  0  1  0  0  0  0  0  0
  -27.5770  -32.5420   25.7760 C   0  0  0  0  0  1  0  0  0  0  0  0
  -25.5880  -33.9190   24.1810 N   0  0  0  0  0  0  0  0  0  0  0  0
  -25.9120  -34.9770   23.4250 C   0  0  0  0  0  0  0  0  0  0  0  0
  -26.5730  -34.8780   22.3880 O   0  0  0  0  0  0  0  0  0  0  0  0
  -24.9970  -34.0700   24.9860 H   0  0  0  0  0  0  0  0  0  0  0  0
  -24.1770  -36.7700   23.0960 C   0  0  0  0  0  1  0  0  0  0  0  0
  -25.4260  -36.3620   23.8920 C   0  0  0  0  0  3  0  0  0  0  0  0
  -27.5680  -37.2480   24.7030 C   0  0  0  0  0  1  0  0  0  0  0  0
  -26.4550  -37.4170   23.7740 N   0  0  0  0  0  0  0  0  0  0  0  0
  -26.0470  -38.3360   23.9320 H   0  0  0  0  0  0  0  0  0  0  0  0
  2  4  2  0
  3  5  1  0
  4  1  1  0
  4  8  1  0
  5 46  1  0
  5  1  2  0
  6  3  2  0
  6  2  1  0
  7  6  1  0
  8  9  2  0
 10  9  1  0
 11 16  1  0
 12 13  1  0
 12 11  1  0
 14 13  1  0
 14 21  1  0
 14 15  1  0
 16 10  1  0
 16 15  1  0
 17 10  2  0
 18 19  2  0
 19 38  1  0
 20 19  1  0
 20 23  1  0
 21 18  1  0
 21 22  1  0
 22 20  2  0
 23 24  1  0
 24 25  2  0
 26 29  1  0
 26 25  1  0
 27 26  2  0
 28 27  1  0
 28 23  2  0
 29 30  1  0
 30 31  1  0
 31 32  2  0
 33 32  1  0
 33 37  1  0
 34 33  2  0
 35 30  2  0
 35 34  1  0
 36 35  1  0
 38 39  1  0
 39 42  1  0
 39 41  1  0
 40 38  2  0
 43 44  1  0
 43 18  1  0
 45 43  1  0
 47 48  1  0
 47 46  2  0
 49 48  1  0
 50 61  2  0
 51 49  1  0
 51 56  1  0
 52 60  1  0
 52 62  1  0
 53 59  1  0
 53 55  1  0
 54 60  1  0
 55 54  1  0
 56 55  2  0
 57 58  1  0
 57 51  2  0
 58 53  2  0
 59 52  1  0
 60 50  1  0
 62 64  2  0
 63 62  1  0
 65 63  1  0
 66 75  2  0
 66 71  1  0
 67 63  1  0
 67 71  1  0
 68 67  1  0
 69 70  1  0
 69 68  1  0
 70 66  1  0
 71 72  2  0
 72 73  1  0
 74 73  2  0
 75 74  1  0
 76 50  1  0
 76 81  1  0
 76 77  1  0
 77 80  1  1
 77 78  1  0
 79 77  1  0
 81 84  1  0
 82 86  1  0
 82 81  1  0
 83 82  2  0
 86 85  1  0
 88 86  1  0
 88 89  1  0
 88 87  1  0
M  ISO  4   9 100  10 100  48 101  49 101
M  END
>  <TORSDO>  (54) 
F 19

>  <SCORE>  (54) 
-14.287

>  <name>  (54) 
53

>  <ligand_id>  (54) 
53

>  <original_smiles>  (54) 
[H]C(C(=O)N1C([H])([H])C([H])([H])C([H])([H])C([H])(n2nc(-c3c([H])c([H])c(Oc4c([H])c([H])c(F)c([H])c4F)c([H])c3[H])c(C(=O)N([H])[H])c2N([H])[H])C1([H])[H])=C([H])c1c([H])c(C([H])=C([H])C([H])([H])Oc2c([H])c([H])c3c(c2[H])C([H])([H])N(C(=O)C([H])(N([H])C(=O)C([H])(N([H])C([H])([H])[H])C([H])([H])[H])C(C([H])([H])[H])(C([H])([H])[H])C([H])([H])[H])C([H])(C(=O)N([H])C2([H])c4c([H])c([H])c([H])c([H])c4C([H])([H])C([H])([H])C2([H])[H])C3([H])[H])c([H])c(C([H])([H])[H])c1[H]

>  <smiles>  (54) 
[H]C(C(=O)N1C([H])([H])C([H])([H])C([H])([H])C([H])(n2nc(-c3c([H])c([H])c(Oc4c([H])c([H])c(F)c([H])c4F)c([H])c3[H])c(C(=O)N([H])[H])c2N([H])[H])C1([H])[H])=C([H])c1c([H])c(C([H])=C([H])C([H])([H])Oc2c([H])c([H])c3c(c2[H])C([H])([H])N(C(=O)C([H])(N([H])C(=O)C([H])(N([H])C([H])([H])[H])C([H])([H])[H])C(C([H])([H])[H])(C([H])([H])[H])C([H])([H])[H])C([H])(C(=O)N([H])C2([H])c4c([H])c([H])c([H])c([H])c4C([H])([H])C([H])([H])C2([H])[H])C3([H])[H])c([H])c(C([H])([H])[H])c1[H]

$$$$
54:0:0
     RDKit          3D

 90 90  0  0  1  0  0  0  0  0999 V2000
  -23.5220  -24.8010   22.5740 C   0  0  0  0  0  3  0  0  0  0  0  0
  -23.8900  -23.6750   21.7500 C   0  0  0  0  0  3  0  0  0  0  0  0
  -25.8650  -25.0230   22.7430 C   0  0  0  0  0  3  0  0  0  0  0  0
  -24.3790  -25.7310   23.2270 C   0  0  0  0  0  3  0  0  0  0  0  0
  -25.1870  -23.1600   21.3720 C   0  0  0  0  0  0  0  0  0  0  0  0
  -26.4350  -23.7140   21.7810 C   0  0  0  0  0  0  0  0  0  0  0  0
  -25.1930  -21.9020   20.5220 C   0  0  0  0  0  1  0  0  0  0  0  0
  -23.3370  -27.1000   24.3860 C   0  0  0  0  0 15  0  0  0  0  0  0
  -22.0690  -29.0140   24.1780 C   0  0  0  0  0 15  0  0  0  0  0  0
  -21.5480  -29.7550   21.7980 C   0  0  0  0  0 15  0  0  0  0  0  0
  -22.9110  -28.9180   20.3010 O   0  0  0  0  0  1  0  0  0  0  0  0
  -24.6620  -32.2590   23.6060 C   0  0  0  0  0  0  0  0  0  0  0  0
  -24.4400  -28.4820   19.9610 C   0  0  0  0  0  3  0  0  0  0  0  0
  -23.6760  -30.6060   22.1230 C   0  0  0  0  0  3  0  0  0  0  0  0
  -24.3210  -30.8690   19.5720 C   0  0  0  0  0  3  0  0  0  0  0  0
  -25.8080  -31.4810   21.4980 C   0  0  0  0  0  2  0  0  0  0  0  0
  -25.4680  -30.5820   20.3090 C   0  0  0  0  0  3  0  0  0  0  0  0
  -25.6600  -29.1980   20.3690 C   0  0  0  0  0  2  0  0  0  0  0  0
  -24.4740  -28.5930   18.6020 C   0  0  0  0  0  2  0  0  0  0  0  0
  -24.0030  -29.9260   18.5010 C   0  0  0  0  0  2  0  0  0  0  0  0
  -23.2940  -31.3100   20.6200 C   0  0  0  0  0  2  0  0  0  0  0  0
  -24.7500  -31.4420   22.5250 N   0  0  0  0  0  0  0  0  0  0  0  0
  -23.6240  -32.4930   24.2610 O   0  0  0  0  0  0  0  0  0  0  0  0
  -23.7240  -28.8190   22.4870 C   0  0  0  0  0  0  0  0  0  0  0  0
  -22.5690  -27.6480   22.0230 N   0  0  0  0  0  2  0  0  0  0  0  0
  -24.4110  -28.6360   23.4370 O   0  0  0  0  0  0  0  0  0  0  0  0
  -22.9590  -26.7210   22.1290 H   0  0  0  0  0  0  0  0  0  0  0  0
  -17.8500  -28.2660   22.6620 C   0  0  0  0  0  0  0  0  0  0  0  0
  -20.6180  -27.5490   22.2910 C   0  0  0  0  0  2  0  0  0  0  0  0
  -20.1290  -26.8580   21.1340 C   0  0  0  0  0  2  0  0  0  0  0  0
  -18.7820  -27.3020   20.6450 C   0  0  0  0  0  2  0  0  0  0  0  0
  -17.6960  -27.1550   21.6940 C   0  0  0  0  0  2  0  0  0  0  0  0
  -19.2210  -28.6380   22.9560 C   0  0  0  0  0  0  0  0  0  0  0  0
  -19.0800  -29.8630   23.8040 C   0  0  0  0  0  3  0  0  0  0  0  0
  -17.8490  -30.4770   24.2890 C   0  0  0  0  0  3  0  0  0  0  0  0
  -16.5850  -29.9710   23.9450 C   0  0  0  0  0  3  0  0  0  0  0  0
  -16.6140  -28.8570   23.1080 C   0  0  0  0  0  3  0  0  0  0  0  0
  -25.9880  -32.7880   24.1350 C   0  0  0  0  0  3  0  0  0  0  0  0
  -25.7870  -34.1750   24.5520 N   0  0  0  0  0  0  0  0  0  0  0  0
  -26.0950  -35.2290   23.7940 C   0  0  0  0  0  0  0  0  0  0  0  0
  -26.6260  -35.1230   22.6850 O   0  0  0  0  0  0  0  0  0  0  0  0
  -25.3290  -34.3290   25.4390 H   0  0  0  0  0  0  0  0  0  0  0  0
  -24.5320  -37.1960   23.7040 C   0  0  0  0  0  1  0  0  0  0  0  0
  -25.7910  -36.6220   24.3710 C   0  0  0  0  0  3  0  0  0  0  0  0
  -28.0710  -37.2200   25.0490 C   0  0  0  0  0  1  0  0  0  0  0  0
  -26.9160  -37.5690   24.2260 N   0  0  0  0  0  0  0  0  0  0  0  0
  -26.6260  -38.5110   24.4720 H   0  0  0  0  0  0  0  0  0  0  0  0
  -26.4860  -31.8840   25.3200 C   0  0  1  0  0  0  0  0  0  0  0  0
  -25.4170  -31.6120   26.4060 C   0  0  0  0  0  1  0  0  0  0  0  0
  -27.0200  -30.5160   24.8300 C   0  0  0  0  0  1  0  0  0  0  0  0
  -27.6910  -32.5730   25.9790 C   0  0  0  0  0  1  0  0  0  0  0  0
  -27.8570  -22.8580   21.2620 O   0  0  0  0  0  1  0  0  0  0  0  0
  -28.6850  -21.2040   20.6770 C   0  0  0  0  0 15  0  0  0  0  0  0
  -29.9720  -19.5100   21.0400 C   0  0  0  0  0 15  0  0  0  0  0  0
  -31.1940  -17.9420   20.4950 C   0  0  0  0  0  2  0  0  0  0  0  0
  -32.0970  -15.3520   19.8040 C   0  0  0  0  0  2  0  0  0  0  0  0
  -31.5230  -14.5770   18.5490 C   0  0  0  0  0  2  0  0  0  0  0  0
  -30.1040  -14.0540   18.8130 C   0  0  0  0  0  2  0  0  0  0  0  0
  -29.3490  -15.1230   19.6240 C   0  0  0  0  0  3  0  0  0  0  0  0
  -30.0680  -15.5880   20.8970 C   0  0  0  0  0  2  0  0  0  0  0  0
  -31.1400  -16.4430   20.4320 N   0  0  0  0  0  0  0  0  0  0  0  0
  -32.4210  -18.0800   20.1890 O   0  0  0  0  0  1  0  0  0  0  0  0
  -26.9630  -15.6640   20.1380 C   0  0  0  0  0  0  0  0  0  0  0  0
  -25.8890  -14.8840   20.4440 C   0  0  0  0  0  0  0  0  0  0  0  0
  -26.3670  -13.5360   20.4630 C   0  0  0  0  0  0  0  0  0  0  0  0
  -28.0050  -14.7800   19.9650 N   0  0  0  0  0  0  0  0  0  0  0  0
  -27.6730  -13.4990   20.2360 N   0  0  0  0  0  0  0  0  0  0  0  0
  -25.6450  -12.2750   20.6190 C   0  0  0  0  0  0  0  0  0  0  0  0
  -25.8960  -11.4050   21.7020 C   0  0  0  0  0  3  0  0  0  0  0  0
  -25.1690  -10.2040   21.8340 C   0  0  0  0  0  3  0  0  0  0  0  0
  -24.1780   -9.8680   20.8800 C   0  0  0  0  0  0  0  0  0  0  0  0
  -23.9510  -10.7270   19.7910 C   0  0  0  0  0  3  0  0  0  0  0  0
  -24.6790  -11.9180   19.6580 C   0  0  0  0  0  3  0  0  0  0  0  0
  -23.4370   -8.7130   20.9130 O   0  0  0  0  0  0  0  0  0  0  0  0
  -22.9310   -8.2170   22.0880 C   0  0  0  0  0  0  0  0  0  0  0  0
  -22.1530   -9.0090   22.9590 C   0  0  0  0  0  3  0  0  0  0  0  0
  -21.5980   -8.4370   24.1210 C   0  0  0  0  0  3  0  0  0  0  0  0
  -21.8090   -7.0750   24.4070 C   0  0  0  0  0  0  0  0  0  0  0  0
  -22.5810   -6.2840   23.5370 C   0  0  0  0  0  3  0  0  0  0  0  0
  -23.1390   -6.8540   22.3800 C   0  0  0  0  0  0  0  0  0  0  0  0
  -23.8640   -6.0830   21.5330 F   0  0  0  0  0  0  0  0  0  0  0  0
  -21.2680   -6.5240   25.5170 F   0  0  0  0  0  0  0  0  0  0  0  0
  -24.4810  -15.3620   20.6090 C   0  0  0  0  0  0  0  0  0  0  0  0
  -23.7190  -14.7210   21.4860 N   0  0  0  0  0  0  0  0  0  0  0  0
  -24.0700  -16.3440   19.9930 O   0  0  0  0  0  0  0  0  0  0  0  0
  -24.0710  -13.9320   22.0070 H   0  0  0  0  0  0  0  0  0  0  0  0
  -22.7680  -15.0260   21.6420 H   0  0  0  0  0  0  0  0  0  0  0  0
  -27.1460  -17.0350   19.9700 N   0  0  0  0  0  0  0  0  0  0  0  0
  -26.3680  -17.6850   20.0050 H   0  0  0  0  0  0  0  0  0  0  0  0
  -28.0060  -17.4570   19.6470 H   0  0  0  0  0  0  0  0  0  0  0  0
  1  4  1  0
  2  1  2  0
  3  4  2  0
  5  2  1  0
  5  6  2  0
  6  3  1  0
  7  5  1  0
 12 23  2  0
 13 11  1  0
 13 18  1  0
 14 24  1  0
 14 22  1  0
 15 20  1  0
 15 17  1  0
 15 21  1  0
 16 22  1  0
 17 18  1  0
 17 16  1  0
 19 13  1  0
 20 19  1  0
 21 14  1  0
 22 12  1  0
 24 26  2  0
 25 27  1  0
 25 24  1  0
 28 33  2  0
 28 37  1  0
 29 33  1  0
 30 29  1  0
 31 30  1  0
 31 32  1  0
 32 28  1  0
 33 34  1  0
 34 35  2  0
 36 35  1  0
 37 36  2  0
 38 12  1  0
 38 39  1  0
 38 48  1  0
 39 42  1  0
 40 44  1  0
 40 39  1  0
 41 40  2  0
 44 43  1  0
 46 44  1  0
 46 47  1  0
 46 45  1  0
 48 51  1  1
 48 49  1  0
 50 48  1  0
 52  6  1  0
 56 61  1  0
 57 58  1  0
 57 56  1  0
 59 58  1  0
 59 66  1  0
 59 60  1  0
 61 55  1  0
 61 60  1  0
 62 55  1  0
 63 64  2  0
 64 65  1  0
 64 83  1  0
 65 68  1  0
 66 63  1  0
 66 67  1  0
 67 65  2  0
 68 69  1  0
 69 70  2  0
 71 74  1  0
 71 70  1  0
 72 71  2  0
 73 72  1  0
 73 68  2  0
 74 75  1  0
 75 80  2  0
 75 76  1  0
 76 77  2  0
 77 78  1  0
 78 82  1  0
 79 78  2  0
 80 79  1  0
 81 80  1  0
 83 84  1  0
 84 87  1  0
 84 86  1  0
 85 83  2  0
 88 89  1  0
 88 63  1  0
 90 88  1  0
M  ISO  4  10 101  11 101  54 100  55 100
M  END
>  <TORSDO>  (55) 
F 22

>  <SCORE>  (55) 
-7.321

>  <name>  (55) 
54

>  <ligand_id>  (55) 
54

>  <original_smiles>  (55) 
[H]c1c([H])c([H])c2c(c1[H])C([H])([H])C([H])([H])C([H])([H])C2([H])N([H])C(=O)C1([H])N(C(=O)C([H])(N([H])C(=O)C([H])(N([H])C([H])([H])[H])C([H])([H])[H])C(C([H])([H])[H])(C([H])([H])[H])C([H])([H])[H])C([H])([H])c2c([H])c(OC([H])([H])C([H])([H])C([H])([H])c3c([H])c([H])c(C([H])([H])[H])c(OC([H])([H])C([H])([H])C(=O)N4C([H])([H])C([H])([H])C([H])([H])C([H])(n5nc(-c6c([H])c([H])c(Oc7c([H])c([H])c(F)c([H])c7F)c([H])c6[H])c(C(=O)N([H])[H])c5N([H])[H])C4([H])[H])c3[H])c([H])c([H])c2C1([H])[H]

>  <smiles>  (55) 
[H]c1c([H])c([H])c2c(c1[H])C([H])([H])C([H])([H])C([H])([H])C2([H])N([H])C(=O)C1([H])N(C(=O)C([H])(N([H])C(=O)C([H])(N([H])C([H])([H])[H])C([H])([H])[H])C(C([H])([H])[H])(C([H])([H])[H])C([H])([H])[H])C([H])([H])c2c([H])c(OC([H])([H])C([H])([H])C([H])([H])c3c([H])c([H])c(C([H])([H])[H])c(OC([H])([H])C([H])([H])C(=O)N4C([H])([H])C([H])([H])C([H])([H])C([H])(n5nc(-c6c([H])c([H])c(Oc7c([H])c([H])c(F)c([H])c7F)c([H])c6[H])c(C(=O)N([H])[H])c5N([H])[H])C4([H])[H])c3[H])c([H])c([H])c2C1([H])[H]

$$$$
55:0:0
     RDKit          3D

 90 98  0  0  1  0  0  0  0  0999 V2000
  -30.9260  -19.1060   21.6340 C   0  0  0  0  0  3  0  0  0  0  0  0
  -28.9860  -19.8790   20.4090 C   0  0  0  0  0  3  0  0  0  0  0  0
  -29.8550  -18.7640   20.7860 C   0  0  0  0  0  0  0  0  0  0  0  0
  -31.1870  -20.4300   22.0410 C   0  0  0  0  0  0  0  0  0  0  0  0
  -29.1850  -21.2630   20.8600 C   0  0  0  0  0  0  0  0  0  0  0  0
  -30.3400  -21.5020   21.6550 C   0  0  0  0  0  0  0  0  0  0  0  0
  -32.4080  -20.6740   22.9150 C   0  0  0  0  0  1  0  0  0  0  0  0
  -30.6370  -22.9100   22.1660 C   0  0  0  0  0  1  0  0  0  0  0  0
  -29.9520  -17.2970   20.2680 C   0  0  0  0  0  2  0  0  0  0  0  0
  -29.9960  -16.0690   20.9290 C   0  0  0  0  0  2  0  0  0  0  0  0
  -30.6070  -14.8070   20.3480 C   0  0  0  0  0  0  0  0  0  0  0  0
  -30.3700  -12.5170   19.3700 C   0  0  0  0  0  2  0  0  0  0  0  0
  -29.4520  -12.6010   18.1320 C   0  0  0  0  0  2  0  0  0  0  0  0
  -27.9800  -12.4320   18.5470 C   0  0  0  0  0  2  0  0  0  0  0  0
  -27.6020  -13.3050   19.7730 C   0  0  0  0  0  3  0  0  0  0  0  0
  -28.6560  -13.2410   20.9020 C   0  0  0  0  0  2  0  0  0  0  0  0
  -29.9560  -13.5870   20.3190 N   0  0  0  0  0  0  0  0  0  0  0  0
  -31.7390  -14.8630   19.8620 O   0  0  0  0  0  0  0  0  0  0  0  0
  -25.2100  -13.8670   20.5020 C   0  0  0  0  0  0  0  0  0  0  0  0
  -24.1520  -13.0830   20.8710 C   0  0  0  0  0  0  0  0  0  0  0  0
  -24.6270  -11.7350   20.8390 C   0  0  0  0  0  0  0  0  0  0  0  0
  -26.2610  -12.9980   20.2620 N   0  0  0  0  0  0  0  0  0  0  0  0
  -25.9180  -11.7110   20.5280 N   0  0  0  0  0  0  0  0  0  0  0  0
  -23.9100  -10.4660   21.0300 C   0  0  0  0  0  0  0  0  0  0  0  0
  -24.3530   -9.4990   21.9570 C   0  0  0  0  0  3  0  0  0  0  0  0
  -23.6360   -8.2960   22.1370 C   0  0  0  0  0  3  0  0  0  0  0  0
  -22.4600   -8.0530   21.3890 C   0  0  0  0  0  0  0  0  0  0  0  0
  -22.0350   -9.0090   20.4500 C   0  0  0  0  0  3  0  0  0  0  0  0
  -22.7530  -10.2030   20.2690 C   0  0  0  0  0  3  0  0  0  0  0  0
  -21.7130   -6.9020   21.4770 O   0  0  0  0  0  0  0  0  0  0  0  0
  -21.6750   -6.1550   22.6270 C   0  0  0  0  0  0  0  0  0  0  0  0
  -21.2490   -6.7010   23.8570 C   0  0  0  0  0  3  0  0  0  0  0  0
  -21.1600   -5.8790   24.9970 C   0  0  0  0  0  3  0  0  0  0  0  0
  -21.4860   -4.5120   24.9100 C   0  0  0  0  0  0  0  0  0  0  0  0
  -21.9050   -3.9660   23.6840 C   0  0  0  0  0  3  0  0  0  0  0  0
  -21.9970   -4.7850   22.5460 C   0  0  0  0  0  0  0  0  0  0  0  0
  -22.3800   -4.2480   21.3610 F   0  0  0  0  0  0  0  0  0  0  0  0
  -21.3920   -3.7220   26.0040 F   0  0  0  0  0  0  0  0  0  0  0  0
  -22.7510  -13.5480   21.1450 C   0  0  0  0  0  0  0  0  0  0  0  0
  -22.0290  -12.8480   22.0110 N   0  0  0  0  0  0  0  0  0  0  0  0
  -22.3060  -14.5700   20.6240 O   0  0  0  0  0  0  0  0  0  0  0  0
  -22.4010  -12.0230   22.4580 H   0  0  0  0  0  0  0  0  0  0  0  0
  -21.0880  -13.1440   22.2330 H   0  0  0  0  0  0  0  0  0  0  0  0
  -25.3630  -15.2390   20.3270 N   0  0  0  0  0  0  0  0  0  0  0  0
  -24.5970  -15.8920   20.4540 H   0  0  0  0  0  0  0  0  0  0  0  0
  -26.2210  -15.6880   20.0270 H   0  0  0  0  0  0  0  0  0  0  0  0
  -28.1080  -22.4550   20.7800 C   0  0  0  0  0  2  0  0  0  0  0  0
  -27.9720  -23.6550   19.6870 C   0  0  0  0  0  2  0  0  0  0  0  0
  -28.6070  -25.1600   19.6100 C   0  0  0  0  0  2  0  0  0  0  0  0
  -28.3230  -26.4370   20.3470 O   0  0  0  0  0  0  0  0  0  0  0  0
  -24.6090  -31.9100   23.2280 C   0  0  0  0  0  0  0  0  0  0  0  0
  -27.2190  -27.3010   20.1880 C   0  0  0  0  0  0  0  0  0  0  0  0
  -23.4050  -30.4990   21.5960 C   0  0  0  0  0  3  0  0  0  0  0  0
  -24.8570  -28.9400   20.1600 C   0  0  0  0  0  0  0  0  0  0  0  0
  -25.9450  -30.8080   21.4150 C   0  0  0  0  0  2  0  0  0  0  0  0
  -26.0230  -29.4250   20.7630 C   0  0  0  0  0  0  0  0  0  0  0  0
  -27.1990  -28.6140   20.7710 C   0  0  0  0  0  3  0  0  0  0  0  0
  -26.0400  -26.8810   19.5410 C   0  0  0  0  0  3  0  0  0  0  0  0
  -24.8720  -27.6790   19.5360 C   0  0  0  0  0  3  0  0  0  0  0  0
  -23.6170  -29.8140   20.2170 C   0  0  0  0  0  2  0  0  0  0  0  0
  -24.6710  -31.0940   22.1340 N   0  0  0  0  0  0  0  0  0  0  0  0
  -23.5280  -32.1890   23.7660 O   0  0  0  0  0  0  0  0  0  0  0  0
  -22.7470  -29.4890   22.5660 C   0  0  0  0  0  0  0  0  0  0  0  0
  -21.4220  -29.3000   22.4390 N   0  0  0  0  0  0  0  0  0  0  0  0
  -23.4270  -28.8780   23.3940 O   0  0  0  0  0  0  0  0  0  0  0  0
  -20.9310  -29.8410   21.7420 H   0  0  0  0  0  0  0  0  0  0  0  0
  -18.0580  -28.0690   22.9400 C   0  0  0  0  0  0  0  0  0  0  0  0
  -20.6110  -28.3610   23.2160 C   0  0  0  0  0  3  0  0  0  0  0  0
  -20.7320  -26.9250   22.6560 C   0  0  0  0  0  2  0  0  0  0  0  0
  -19.6390  -26.5800   21.6410 C   0  0  0  0  0  2  0  0  0  0  0  0
  -18.2540  -26.7150   22.2770 C   0  0  0  0  0  2  0  0  0  0  0  0
  -19.1650  -28.8480   23.3660 C   0  0  0  0  0  0  0  0  0  0  0  0
  -18.9280  -30.1150   23.9440 C   0  0  0  0  0  3  0  0  0  0  0  0
  -17.6170  -30.6010   24.1010 C   0  0  0  0  0  3  0  0  0  0  0  0
  -16.5230  -29.8180   23.6910 C   0  0  0  0  0  3  0  0  0  0  0  0
  -16.7440  -28.5540   23.1160 C   0  0  0  0  0  3  0  0  0  0  0  0
  -25.8930  -32.5500   23.8450 C   0  0  0  0  0  3  0  0  0  0  0  0
  -26.4140  -31.7880   25.1250 C   0  0  1  0  0  0  0  0  0  0  0  0
  -25.3240  -31.5540   26.1970 C   0  0  0  0  0  1  0  0  0  0  0  0
  -27.0020  -30.4090   24.7460 C   0  0  0  0  0  1  0  0  0  0  0  0
  -27.5640  -32.5880   25.7790 C   0  0  0  0  0  1  0  0  0  0  0  0
  -25.5790  -33.9500   24.1710 N   0  0  0  0  0  0  0  0  0  0  0  0
  -25.9070  -35.0030   23.4110 C   0  0  0  0  0  0  0  0  0  0  0  0
  -26.5740  -34.9000   22.3790 O   0  0  0  0  0  0  0  0  0  0  0  0
  -24.9880  -34.1040   24.9760 H   0  0  0  0  0  0  0  0  0  0  0  0
  -24.1790  -36.7960   23.0530 C   0  0  0  0  0  1  0  0  0  0  0  0
  -25.4180  -36.3920   23.8690 C   0  0  0  0  0  3  0  0  0  0  0  0
  -27.5480  -37.2800   24.7070 C   0  0  0  0  0  1  0  0  0  0  0  0
  -26.4500  -37.4450   23.7580 N   0  0  0  0  0  0  0  0  0  0  0  0
  -26.0430  -38.3650   23.9010 H   0  0  0  0  0  0  0  0  0  0  0  0
  1  4  1  0
  2  3  1  0
  2  5  2  0
  3  1  2  0
  4  7  1  0
  5  6  1  0
  6  4  2  0
  6  8  1  0
  9  3  1  0
  9 10  1  0
 11 10  1  0
 12 17  1  0
 13 14  1  0
 13 12  1  0
 15 14  1  0
 15 22  1  0
 15 16  1  0
 17 11  1  0
 17 16  1  0
 18 11  2  0
 19 20  2  0
 20 39  1  0
 21 20  1  0
 21 24  1  0
 22 19  1  0
 22 23  1  0
 23 21  2  0
 24 25  1  0
 25 26  2  0
 27 30  1  0
 27 26  1  0
 28 27  2  0
 29 28  1  0
 29 24  2  0
 30 31  1  0
 31 32  1  0
 32 33  2  0
 34 33  1  0
 34 38  1  0
 35 34  2  0
 36 31  2  0
 36 35  1  0
 37 36  1  0
 39 40  1  0
 40 43  1  0
 40 42  1  0
 41 39  2  0
 44 45  1  0
 44 19  1  0
 46 44  1  0
 47  5  1  0
 48 47  1  0
 49 48  1  0
 49 50  1  0
 51 62  2  0
 52 50  1  0
 52 57  1  0
 53 61  1  0
 53 63  1  0
 54 60  1  0
 54 56  1  0
 55 61  1  0
 56 57  2  0
 56 55  1  0
 58 52  2  0
 59 58  1  0
 59 54  2  0
 60 53  1  0
 61 51  1  0
 63 65  2  0
 64 63  1  0
 66 64  1  0
 67 76  2  0
 67 72  1  0
 68 64  1  0
 68 72  1  0
 69 68  1  0
 70 71  1  0
 70 69  1  0
 71 67  1  0
 72 73  2  0
 73 74  1  0
 75 74  2  0
 76 75  1  0
 77 51  1  0
 77 82  1  0
 77 78  1  0
 78 81  1  1
 78 79  1  0
 80 78  1  0
 82 85  1  0
 83 87  1  0
 83 82  1  0
 84 83  2  0
 87 86  1  0
 89 87  1  0
 89 90  1  0
 89 88  1  0
M  ISO  4  10 100  11 100  49 101  50 101
M  END
>  <TORSDO>  (56) 
F 20

>  <SCORE>  (56) 
-14.286

>  <name>  (56) 
55

>  <ligand_id>  (56) 
55

>  <original_smiles>  (56) 
[H]C(C(=O)N1C([H])([H])C([H])([H])C([H])([H])C([H])(n2nc(-c3c([H])c([H])c(Oc4c([H])c([H])c(F)c([H])c4F)c([H])c3[H])c(C(=O)N([H])[H])c2N([H])[H])C1([H])[H])=C([H])c1c([H])c(C([H])([H])[H])c(C([H])([H])[H])c(C([H])([H])C([H])([H])C([H])([H])Oc2c([H])c([H])c3c(c2[H])C([H])([H])N(C(=O)C([H])(N([H])C(=O)C([H])(N([H])C([H])([H])[H])C([H])([H])[H])C(C([H])([H])[H])(C([H])([H])[H])C([H])([H])[H])C([H])(C(=O)N([H])C2([H])c4c([H])c([H])c([H])c([H])c4C([H])([H])C([H])([H])C2([H])[H])C3([H])[H])c1[H]

>  <smiles>  (56) 
[H]C(C(=O)N1C([H])([H])C([H])([H])C([H])([H])C([H])(n2nc(-c3c([H])c([H])c(Oc4c([H])c([H])c(F)c([H])c4F)c([H])c3[H])c(C(=O)N([H])[H])c2N([H])[H])C1([H])[H])=C([H])c1c([H])c(C([H])([H])[H])c(C([H])([H])[H])c(C([H])([H])C([H])([H])C([H])([H])Oc2c([H])c([H])c3c(c2[H])C([H])([H])N(C(=O)C([H])(N([H])C(=O)C([H])(N([H])C([H])([H])[H])C([H])([H])[H])C(C([H])([H])[H])(C([H])([H])[H])C([H])([H])[H])C([H])(C(=O)N([H])C2([H])c4c([H])c([H])c([H])c([H])c4C([H])([H])C([H])([H])C2([H])[H])C3([H])[H])c1[H]

$$$$
56:0:0
     RDKit          3D

 93101  0  0  1  0  0  0  0  0999 V2000
  -32.2670  -18.4270   21.8030 C   0  0  0  0  0  3  0  0  0  0  0  0
  -31.7600  -17.1570   21.5130 C   0  0  0  0  0  3  0  0  0  0  0  0
  -30.1050  -19.4670   21.2640 C   0  0  0  0  0  0  0  0  0  0  0  0
  -31.4620  -19.5740   21.6930 C   0  0  0  0  0  0  0  0  0  0  0  0
  -29.5950  -18.1530   20.9630 C   0  0  0  0  0  0  0  0  0  0  0  0
  -30.4290  -16.9900   21.0740 C   0  0  0  0  0  0  0  0  0  0  0  0
  -32.1000  -20.8880   22.1230 C   0  0  0  0  0  1  0  0  0  0  0  0
  -30.5710  -14.6510   20.1540 C   0  0  0  0  0  0  0  0  0  0  0  0
  -30.1910  -12.5480   18.9140 C   0  0  0  0  0  2  0  0  0  0  0  0
  -29.1800  -12.8010   17.7770 C   0  0  0  0  0  2  0  0  0  0  0  0
  -27.7380  -12.6220   18.2890 C   0  0  0  0  0  2  0  0  0  0  0  0
  -27.4710  -13.3950   19.6090 C   0  0  0  0  0  3  0  0  0  0  0  0
  -28.5940  -13.1470   20.6410 C   0  0  0  0  0  2  0  0  0  0  0  0
  -29.8760  -13.4890   20.0040 N   0  0  0  0  0  0  0  0  0  0  0  0
  -31.6600  -14.8280   19.6020 O   0  0  0  0  0  0  0  0  0  0  0  0
  -29.9370  -15.6580   20.8060 N   0  0  0  0  0  0  0  0  0  0  0  0
  -28.9870  -15.4630   21.0800 H   0  0  0  0  0  0  0  0  0  0  0  0
  -25.1040  -13.9340   20.4570 C   0  0  0  0  0  0  0  0  0  0  0  0
  -24.0740  -13.1320   20.8680 C   0  0  0  0  0  0  0  0  0  0  0  0
  -24.5590  -11.7910   20.7840 C   0  0  0  0  0  0  0  0  0  0  0  0
  -26.1520  -13.0800   20.1530 N   0  0  0  0  0  0  0  0  0  0  0  0
  -25.8310  -11.7850   20.4070 N   0  0  0  0  0  0  0  0  0  0  0  0
  -23.8680  -10.5110   20.9830 C   0  0  0  0  0  0  0  0  0  0  0  0
  -24.3430   -9.5500   21.9030 C   0  0  0  0  0  3  0  0  0  0  0  0
  -23.6500   -8.3340   22.0910 C   0  0  0  0  0  3  0  0  0  0  0  0
  -22.4680   -8.0710   21.3600 C   0  0  0  0  0  0  0  0  0  0  0  0
  -22.0110   -9.0200   20.4300 C   0  0  0  0  0  3  0  0  0  0  0  0
  -22.7050  -10.2270   20.2380 C   0  0  0  0  0  3  0  0  0  0  0  0
  -21.7430   -6.9080   21.4590 O   0  0  0  0  0  0  0  0  0  0  0  0
  -21.7050   -6.1800   22.6210 C   0  0  0  0  0  0  0  0  0  0  0  0
  -21.2490   -6.7370   23.8350 C   0  0  0  0  0  3  0  0  0  0  0  0
  -21.1620   -5.9330   24.9900 C   0  0  0  0  0  3  0  0  0  0  0  0
  -21.5200   -4.5730   24.9310 C   0  0  0  0  0  0  0  0  0  0  0  0
  -21.9700   -4.0150   23.7200 C   0  0  0  0  0  3  0  0  0  0  0  0
  -22.0590   -4.8150   22.5680 C   0  0  0  0  0  0  0  0  0  0  0  0
  -22.4720   -4.2680   21.4000 F   0  0  0  0  0  0  0  0  0  0  0  0
  -21.4290   -3.7990   26.0360 F   0  0  0  0  0  0  0  0  0  0  0  0
  -22.6840  -13.5760   21.2240 C   0  0  0  0  0  0  0  0  0  0  0  0
  -22.0150  -12.8440   22.1080 N   0  0  0  0  0  0  0  0  0  0  0  0
  -22.2010  -14.6060   20.7540 O   0  0  0  0  0  0  0  0  0  0  0  0
  -22.4190  -12.0110   22.5090 H   0  0  0  0  0  0  0  0  0  0  0  0
  -21.0850  -13.1220   22.3880 H   0  0  0  0  0  0  0  0  0  0  0  0
  -25.2320  -15.3100   20.2960 N   0  0  0  0  0  0  0  0  0  0  0  0
  -24.4490  -15.9390   20.4360 H   0  0  0  0  0  0  0  0  0  0  0  0
  -26.0330  -15.7610   19.8750 H   0  0  0  0  0  0  0  0  0  0  0  0
  -29.2420  -20.6970   21.1900 C   0  0  0  0  0  3  0  0  0  0  0  0
  -29.5800  -21.9460   20.7740 C   0  0  0  0  0  3  0  0  0  0  0  0
  -28.7110  -23.1180   20.9150 C   0  0  0  0  0  3  0  0  0  0  0  0
  -29.0860  -24.4030   20.6950 C   0  0  0  0  0  3  0  0  0  0  0  0
  -28.1940  -25.6200   20.9790 C   0  0  0  0  0  2  0  0  0  0  0  0
  -28.3410  -26.7370   20.0730 O   0  0  0  0  0  0  0  0  0  0  0  0
  -24.5010  -31.9170   23.1520 C   0  0  0  0  0  0  0  0  0  0  0  0
  -27.2130  -27.5330   20.0370 C   0  0  0  0  0  0  0  0  0  0  0  0
  -23.3290  -30.5340   21.4710 C   0  0  0  0  0  3  0  0  0  0  0  0
  -24.8150  -29.0360   20.0340 C   0  0  0  0  0  0  0  0  0  0  0  0
  -25.8560  -30.9150   21.3120 C   0  0  0  0  0  2  0  0  0  0  0  0
  -25.9630  -29.5550   20.6470 C   0  0  0  0  0  0  0  0  0  0  0  0
  -27.1700  -28.8130   20.6430 C   0  0  0  0  0  3  0  0  0  0  0  0
  -26.0530  -27.0390   19.4050 C   0  0  0  0  0  3  0  0  0  0  0  0
  -24.8550  -27.7790   19.4070 C   0  0  0  0  0  3  0  0  0  0  0  0
  -23.5620  -29.8820   20.0820 C   0  0  0  0  0  2  0  0  0  0  0  0
  -24.5790  -31.1350   22.0370 N   0  0  0  0  0  0  0  0  0  0  0  0
  -23.4110  -32.1700   23.6830 O   0  0  0  0  0  0  0  0  0  0  0  0
  -22.6730  -29.4910   22.4050 C   0  0  0  0  0  0  0  0  0  0  0  0
  -21.3490  -29.3090   22.2650 N   0  0  0  0  0  0  0  0  0  0  0  0
  -23.3520  -28.8500   23.2110 O   0  0  0  0  0  0  0  0  0  0  0  0
  -20.8620  -29.8780   21.5880 H   0  0  0  0  0  0  0  0  0  0  0  0
  -17.9680  -28.1250   22.7440 C   0  0  0  0  0  0  0  0  0  0  0  0
  -20.5300  -28.3530   23.0100 C   0  0  0  0  0  3  0  0  0  0  0  0
  -20.6170  -26.9410   22.3890 C   0  0  0  0  0  2  0  0  0  0  0  0
  -19.5070  -26.6610   21.3690 C   0  0  0  0  0  2  0  0  0  0  0  0
  -18.1300  -26.7970   22.0250 C   0  0  0  0  0  2  0  0  0  0  0  0
  -19.0950  -28.8630   23.1940 C   0  0  0  0  0  0  0  0  0  0  0  0
  -18.8910  -30.1090   23.8250 C   0  0  0  0  0  3  0  0  0  0  0  0
  -17.5910  -30.6160   24.0140 C   0  0  0  0  0  3  0  0  0  0  0  0
  -16.4780  -29.8730   23.5830 C   0  0  0  0  0  3  0  0  0  0  0  0
  -16.6680  -28.6310   22.9530 C   0  0  0  0  0  3  0  0  0  0  0  0
  -25.7740  -32.5480   23.7990 C   0  0  0  0  0  3  0  0  0  0  0  0
  -26.2730  -31.7680   25.0760 C   0  0  1  0  0  0  0  0  0  0  0  0
  -25.1630  -31.5110   26.1200 C   0  0  0  0  0  1  0  0  0  0  0  0
  -26.8740  -30.3990   24.6790 C   0  0  0  0  0  1  0  0  0  0  0  0
  -27.4050  -32.5640   25.7670 C   0  0  0  0  0  1  0  0  0  0  0  0
  -25.4560  -33.9430   24.1320 N   0  0  0  0  0  0  0  0  0  0  0  0
  -25.8040  -35.0010   23.3870 C   0  0  0  0  0  0  0  0  0  0  0  0
  -26.4970  -34.9060   22.3700 O   0  0  0  0  0  0  0  0  0  0  0  0
  -24.8450  -34.0910   24.9210 H   0  0  0  0  0  0  0  0  0  0  0  0
  -24.0890  -36.7970   22.9950 C   0  0  0  0  0  1  0  0  0  0  0  0
  -25.3030  -36.3840   23.8420 C   0  0  0  0  0  3  0  0  0  0  0  0
  -27.4100  -37.2610   24.7490 C   0  0  0  0  0  1  0  0  0  0  0  0
  -26.3390  -37.4380   23.7720 N   0  0  0  0  0  0  0  0  0  0  0  0
  -25.9290  -38.3560   23.9150 H   0  0  0  0  0  0  0  0  0  0  0  0
  -28.0170  -18.0640   18.9720 C   0  0  0  0  0  1  0  0  0  0  0  0
  -28.1490  -17.9740   20.4970 C   0  0  0  0  0  2  0  0  0  0  0  0
  2  1  2  0
  3  4  2  0
  4  1  1  0
  4  7  1  0
  5  6  2  0
  5  3  1  0
  6  2  1  0
  8 16  1  0
  9 14  1  0
 10 11  1  0
 10  9  1  0
 12 11  1  0
 12 21  1  0
 12 13  1  0
 14  8  1  0
 14 13  1  0
 15  8  2  0
 16  6  1  0
 16 17  1  0
 18 19  2  0
 19 38  1  0
 20 19  1  0
 20 23  1  0
 21 22  1  0
 21 18  1  0
 22 20  2  0
 23 24  1  0
 24 25  2  0
 26 29  1  0
 26 25  1  0
 27 26  2  0
 28 27  1  0
 28 23  2  0
 29 30  1  0
 30 31  1  0
 31 32  2  0
 33 32  1  0
 33 37  1  0
 34 33  2  0
 35 30  2  0
 35 34  1  0
 36 35  1  0
 38 39  1  0
 39 42  1  0
 39 41  1  0
 40 38  2  0
 43 44  1  0
 43 18  1  0
 45 43  1  0
 46  3  1  0
 47 48  1  0
 47 46  2  0
 49 48  2  0
 49 50  1  0
 51 50  1  0
 52 63  2  0
 53 51  1  0
 53 58  1  0
 54 62  1  0
 54 64  1  0
 55 61  1  0
 55 57  1  0
 56 62  1  0
 57 56  1  0
 58 57  2  0
 59 60  1  0
 59 53  2  0
 60 55  2  0
 61 54  1  0
 62 52  1  0
 64 66  2  0
 65 64  1  0
 67 65  1  0
 68 77  2  0
 68 73  1  0
 69 65  1  0
 69 73  1  0
 70 69  1  0
 71 72  1  0
 71 70  1  0
 72 68  1  0
 73 74  2  0
 74 75  1  0
 76 75  2  0
 77 76  1  0
 78 52  1  0
 78 83  1  0
 78 79  1  0
 79 82  1  1
 79 80  1  0
 81 79  1  0
 83 86  1  0
 84 88  1  0
 84 83  1  0
 85 84  2  0
 88 87  1  0
 90 88  1  0
 90 91  1  0
 90 89  1  0
 92 93  1  0
 93  5  1  0
M  ISO  4   8 100  16 100  50 101  51 101
M  END
>  <TORSDO>  (57) 
F 20

>  <SCORE>  (57) 
-13.560

>  <name>  (57) 
56

>  <ligand_id>  (57) 
56

>  <original_smiles>  (57) 
[H]C(C([H])=C([H])C([H])([H])Oc1c([H])c([H])c2c(c1[H])C([H])([H])N(C(=O)C([H])(N([H])C(=O)C([H])(N([H])C([H])([H])[H])C([H])([H])[H])C(C([H])([H])[H])(C([H])([H])[H])C([H])([H])[H])C([H])(C(=O)N([H])C1([H])c3c([H])c([H])c([H])c([H])c3C([H])([H])C([H])([H])C1([H])[H])C2([H])[H])=C([H])c1c(C([H])([H])[H])c([H])c([H])c(N([H])C(=O)N2C([H])([H])C([H])([H])C([H])([H])C([H])(n3nc(-c4c([H])c([H])c(Oc5c([H])c([H])c(F)c([H])c5F)c([H])c4[H])c(C(=O)N([H])[H])c3N([H])[H])C2([H])[H])c1C([H])([H])C([H])([H])[H]

>  <smiles>  (57) 
[H]C(C([H])=C([H])C([H])([H])Oc1c([H])c([H])c2c(c1[H])C([H])([H])N(C(=O)C([H])(N([H])C(=O)C([H])(N([H])C([H])([H])[H])C([H])([H])[H])C(C([H])([H])[H])(C([H])([H])[H])C([H])([H])[H])C([H])(C(=O)N([H])C1([H])c3c([H])c([H])c([H])c([H])c3C([H])([H])C([H])([H])C1([H])[H])C2([H])[H])=C([H])c1c(C([H])([H])[H])c([H])c([H])c(N([H])C(=O)N2C([H])([H])C([H])([H])C([H])([H])C([H])(n3nc(-c4c([H])c([H])c(Oc5c([H])c([H])c(F)c([H])c5F)c([H])c4[H])c(C(=O)N([H])[H])c3N([H])[H])C2([H])[H])c1C([H])([H])C([H])([H])[H]

$$$$
57:0:0
     RDKit          3D

 90 98  0  0  1  0  0  0  0  0999 V2000
  -30.5810  -17.2580   18.7440 C   0  0  0  0  0  3  0  0  0  0  0  0
  -30.7620  -18.4730   18.0680 C   0  0  0  0  0  3  0  0  0  0  0  0
  -29.6200  -18.4970   20.6010 C   0  0  0  0  0  3  0  0  0  0  0  0
  -29.8090  -19.7830   19.9330 C   0  0  0  0  0  0  0  0  0  0  0  0
  -30.0290  -17.2130   20.0410 C   0  0  0  0  0  0  0  0  0  0  0  0
  -30.4100  -19.7080   18.6410 C   0  0  0  0  0  0  0  0  0  0  0  0
  -30.8470  -21.0980   17.7070 Cl  0  0  0  0  0  0  0  0  0  0  0  0
  -30.5930  -14.7240   20.4380 C   0  0  0  0  0  0  0  0  0  0  0  0
  -30.3690  -12.4490   19.4600 C   0  0  0  0  0  2  0  0  0  0  0  0
  -29.4580  -12.5470   18.2160 C   0  0  0  0  0  2  0  0  0  0  0  0
  -27.9790  -12.3920   18.6200 C   0  0  0  0  0  2  0  0  0  0  0  0
  -27.5950  -13.2850   19.8320 C   0  0  0  0  0  3  0  0  0  0  0  0
  -28.6340  -13.1900   20.9730 C   0  0  0  0  0  2  0  0  0  0  0  0
  -29.9480  -13.5100   20.4040 N   0  0  0  0  0  0  0  0  0  0  0  0
  -31.7800  -14.7930   20.1090 O   0  0  0  0  0  0  0  0  0  0  0  0
  -29.8560  -15.8780   20.6650 N   0  0  0  0  0  0  0  0  0  0  0  0
  -28.9810  -15.7370   21.1480 H   0  0  0  0  0  0  0  0  0  0  0  0
  -25.1980  -13.8890   20.5170 C   0  0  0  0  0  0  0  0  0  0  0  0
  -24.1240  -13.1220   20.8760 C   0  0  0  0  0  0  0  0  0  0  0  0
  -24.5810  -11.7680   20.8600 C   0  0  0  0  0  0  0  0  0  0  0  0
  -26.2420  -13.0050   20.3020 N   0  0  0  0  0  0  0  0  0  0  0  0
  -25.8760  -11.7240   20.5710 N   0  0  0  0  0  0  0  0  0  0  0  0
  -23.8460  -10.5100   21.0460 C   0  0  0  0  0  0  0  0  0  0  0  0
  -24.2670   -9.5390   21.9820 C   0  0  0  0  0  3  0  0  0  0  0  0
  -23.5320   -8.3470   22.1550 C   0  0  0  0  0  3  0  0  0  0  0  0
  -22.3620   -8.1160   21.3930 C   0  0  0  0  0  0  0  0  0  0  0  0
  -21.9590   -9.0760   20.4470 C   0  0  0  0  0  3  0  0  0  0  0  0
  -22.6950  -10.2600   20.2720 C   0  0  0  0  0  3  0  0  0  0  0  0
  -21.5980   -6.9780   21.4760 O   0  0  0  0  0  0  0  0  0  0  0  0
  -21.5450   -6.2290   22.6250 C   0  0  0  0  0  0  0  0  0  0  0  0
  -21.1280   -6.7820   23.8560 C   0  0  0  0  0  3  0  0  0  0  0  0
  -21.0200   -5.9610   24.9960 C   0  0  0  0  0  3  0  0  0  0  0  0
  -21.3190   -4.5890   24.9080 C   0  0  0  0  0  0  0  0  0  0  0  0
  -21.7300   -4.0350   23.6810 C   0  0  0  0  0  3  0  0  0  0  0  0
  -21.8390   -4.8530   22.5430 C   0  0  0  0  0  0  0  0  0  0  0  0
  -22.2140   -4.3100   21.3600 F   0  0  0  0  0  0  0  0  0  0  0  0
  -21.2090   -3.7990   26.0010 F   0  0  0  0  0  0  0  0  0  0  0  0
  -22.7250  -13.6070   21.1230 C   0  0  0  0  0  0  0  0  0  0  0  0
  -21.9780  -12.9190   21.9790 N   0  0  0  0  0  0  0  0  0  0  0  0
  -22.3010  -14.6320   20.5900 O   0  0  0  0  0  0  0  0  0  0  0  0
  -22.3340  -12.0900   22.4340 H   0  0  0  0  0  0  0  0  0  0  0  0
  -21.0390  -13.2270   22.1870 H   0  0  0  0  0  0  0  0  0  0  0  0
  -25.3700  -15.2580   20.3350 N   0  0  0  0  0  0  0  0  0  0  0  0
  -24.6020  -15.9140   20.4250 H   0  0  0  0  0  0  0  0  0  0  0  0
  -26.2230  -15.6910   20.0040 H   0  0  0  0  0  0  0  0  0  0  0  0
  -29.4690  -21.1620   20.5620 C   0  0  0  0  0  3  0  0  0  0  0  0
  -29.1630  -22.3870   19.9820 C   0  0  0  0  0  3  0  0  0  0  0  0
  -29.0710  -23.8320   20.6280 C   0  0  0  0  0  3  0  0  0  0  0  0
  -28.1130  -24.9480   19.9770 C   0  0  0  0  0  3  0  0  0  0  0  0
  -28.3020  -26.4080   20.2670 O   0  0  0  0  0  0  0  0  0  0  0  0
  -24.6120  -31.8810   23.2440 C   0  0  0  0  0  0  0  0  0  0  0  0
  -27.2020  -27.2920   20.1830 C   0  0  0  0  0  0  0  0  0  0  0  0
  -23.4030  -30.4860   21.6060 C   0  0  0  0  0  3  0  0  0  0  0  0
  -24.8480  -28.9360   20.1690 C   0  0  0  0  0  0  0  0  0  0  0  0
  -25.9450  -30.7910   21.4210 C   0  0  0  0  0  2  0  0  0  0  0  0
  -26.0200  -29.4110   20.7710 C   0  0  0  0  0  0  0  0  0  0  0  0
  -27.1980  -28.6000   20.7720 C   0  0  0  0  0  3  0  0  0  0  0  0
  -26.0110  -26.8910   19.5340 C   0  0  0  0  0  3  0  0  0  0  0  0
  -24.8480  -27.6840   19.5400 C   0  0  0  0  0  3  0  0  0  0  0  0
  -23.6140  -29.8150   20.2230 C   0  0  0  0  0  2  0  0  0  0  0  0
  -24.6720  -31.0710   22.1460 N   0  0  0  0  0  0  0  0  0  0  0  0
  -23.5310  -32.1600   23.7810 O   0  0  0  0  0  0  0  0  0  0  0  0
  -22.7420  -29.4680   22.5670 C   0  0  0  0  0  0  0  0  0  0  0  0
  -21.4160  -29.2890   22.4400 N   0  0  0  0  0  0  0  0  0  0  0  0
  -23.4210  -28.8440   23.3860 O   0  0  0  0  0  0  0  0  0  0  0  0
  -20.9260  -29.8440   21.7520 H   0  0  0  0  0  0  0  0  0  0  0  0
  -18.0390  -28.0870   22.9430 C   0  0  0  0  0  0  0  0  0  0  0  0
  -20.5980  -28.3510   23.2130 C   0  0  0  0  0  3  0  0  0  0  0  0
  -20.7020  -26.9190   22.6410 C   0  0  0  0  0  2  0  0  0  0  0  0
  -19.6010  -26.5920   21.6270 C   0  0  0  0  0  2  0  0  0  0  0  0
  -18.2190  -26.7360   22.2700 C   0  0  0  0  0  2  0  0  0  0  0  0
  -19.1570  -28.8520   23.3710 C   0  0  0  0  0  0  0  0  0  0  0  0
  -18.9350  -30.1150   23.9610 C   0  0  0  0  0  3  0  0  0  0  0  0
  -17.6280  -30.6140   24.1260 C   0  0  0  0  0  3  0  0  0  0  0  0
  -16.5270  -29.8460   23.7140 C   0  0  0  0  0  3  0  0  0  0  0  0
  -16.7330  -28.5840   23.1280 C   0  0  0  0  0  3  0  0  0  0  0  0
  -25.8980  -32.5120   23.8630 C   0  0  0  0  0  3  0  0  0  0  0  0
  -26.4160  -31.7400   25.1380 C   0  0  1  0  0  0  0  0  0  0  0  0
  -25.3260  -31.5050   26.2090 C   0  0  0  0  0  1  0  0  0  0  0  0
  -26.9950  -30.3610   24.7470 C   0  0  0  0  0  1  0  0  0  0  0  0
  -27.5700  -32.5330   25.7950 C   0  0  0  0  0  1  0  0  0  0  0  0
  -25.5890  -33.9100   24.1960 N   0  0  0  0  0  0  0  0  0  0  0  0
  -25.9140  -34.9640   23.4340 C   0  0  0  0  0  0  0  0  0  0  0  0
  -26.5740  -34.8610   22.3980 O   0  0  0  0  0  0  0  0  0  0  0  0
  -25.0010  -34.0640   25.0020 H   0  0  0  0  0  0  0  0  0  0  0  0
  -24.1820  -36.7570   23.0980 C   0  0  0  0  0  1  0  0  0  0  0  0
  -25.4310  -36.3530   23.8970 C   0  0  0  0  0  3  0  0  0  0  0  0
  -27.5730  -37.2390   24.7070 C   0  0  0  0  0  1  0  0  0  0  0  0
  -26.4620  -37.4060   23.7750 N   0  0  0  0  0  0  0  0  0  0  0  0
  -26.0570  -38.3260   23.9250 H   0  0  0  0  0  0  0  0  0  0  0  0
  1  5  1  0
  2  6  1  0
  2  1  2  0
  4 46  1  0
  4  3  1  0
  5  3  2  0
  5 16  1  0
  6  4  2  0
  7  6  1  0
  8 16  1  0
  9 14  1  0
 10 11  1  0
 10  9  1  0
 12 11  1  0
 12 21  1  0
 12 13  1  0
 14  8  1  0
 14 13  1  0
 15  8  2  0
 16 17  1  0
 18 19  2  0
 19 38  1  0
 20 19  1  0
 20 23  1  0
 21 18  1  0
 21 22  1  0
 22 20  2  0
 23 24  1  0
 24 25  2  0
 26 29  1  0
 26 25  1  0
 27 26  2  0
 28 27  1  0
 28 23  2  0
 29 30  1  0
 30 31  1  0
 31 32  2  0
 33 32  1  0
 33 37  1  0
 34 33  2  0
 35 30  2  0
 35 34  1  0
 36 35  1  0
 38 39  1  0
 39 42  1  0
 39 41  1  0
 40 38  2  0
 43 44  1  0
 43 18  1  0
 45 43  1  0
 47 46  2  0
 47 48  1  0
 49 50  1  0
 49 48  2  0
 51 62  2  0
 52 50  1  0
 52 57  1  0
 53 61  1  0
 53 63  1  0
 54 60  1  0
 54 56  1  0
 55 61  1  0
 56 57  2  0
 56 55  1  0
 58 59  1  0
 58 52  2  0
 59 54  2  0
 60 53  1  0
 61 51  1  0
 63 65  2  0
 64 63  1  0
 66 64  1  0
 67 76  2  0
 67 72  1  0
 68 64  1  0
 68 72  1  0
 69 68  1  0
 70 71  1  0
 70 69  1  0
 71 67  1  0
 72 73  2  0
 73 74  1  0
 75 74  2  0
 76 75  1  0
 77 51  1  0
 77 82  1  0
 77 78  1  0
 78 81  1  1
 78 79  1  0
 80 78  1  0
 82 85  1  0
 83 87  1  0
 83 82  1  0
 84 83  2  0
 87 86  1  0
 89 87  1  0
 89 90  1  0
 89 88  1  0
M  ISO  4   8 100  16 100  49 101  50 101
M  END
>  <TORSDO>  (58) 
F 19

>  <SCORE>  (58) 
-14.149

>  <name>  (58) 
57

>  <ligand_id>  (58) 
57

>  <original_smiles>  (58) 
[H]C(=C([H])C([H])([H])C([H])([H])Oc1c([H])c([H])c2c(c1[H])C([H])([H])N(C(=O)C([H])(N([H])C(=O)C([H])(N([H])C([H])([H])[H])C([H])([H])[H])C(C([H])([H])[H])(C([H])([H])[H])C([H])([H])[H])C([H])(C(=O)N([H])C1([H])c3c([H])c([H])c([H])c([H])c3C([H])([H])C([H])([H])C1([H])[H])C2([H])[H])c1c([H])c(N([H])C(=O)N2C([H])([H])C([H])([H])C([H])([H])C([H])(n3nc(-c4c([H])c([H])c(Oc5c([H])c([H])c(F)c([H])c5F)c([H])c4[H])c(C(=O)N([H])[H])c3N([H])[H])C2([H])[H])c([H])c([H])c1Cl

>  <smiles>  (58) 
[H]C(=C([H])C([H])([H])C([H])([H])Oc1c([H])c([H])c2c(c1[H])C([H])([H])N(C(=O)C([H])(N([H])C(=O)C([H])(N([H])C([H])([H])[H])C([H])([H])[H])C(C([H])([H])[H])(C([H])([H])[H])C([H])([H])[H])C([H])(C(=O)N([H])C1([H])c3c([H])c([H])c([H])c([H])c3C([H])([H])C([H])([H])C1([H])[H])C2([H])[H])c1c([H])c(N([H])C(=O)N2C([H])([H])C([H])([H])C([H])([H])C([H])(n3nc(-c4c([H])c([H])c(Oc5c([H])c([H])c(F)c([H])c5F)c([H])c4[H])c(C(=O)N([H])[H])c3N([H])[H])C2([H])[H])c([H])c([H])c1Cl

$$$$
58:0:0
     RDKit          3D

 91 99  0  0  1  0  0  0  0  0999 V2000
  -29.4910  -20.4360   20.8660 C   0  0  0  0  0  3  0  0  0  0  0  0
  -29.3110  -21.4890   20.0140 C   0  0  0  0  0  3  0  0  0  0  0  0
  -30.4830  -16.7930   21.6050 C   0  0  0  0  0  3  0  0  0  0  0  0
  -30.2010  -18.1840   21.6990 C   0  0  0  0  0  3  0  0  0  0  0  0
  -29.4570  -16.7520   19.4420 C   0  0  0  0  0  3  0  0  0  0  0  0
  -30.1340  -16.0310   20.4630 C   0  0  0  0  0  0  0  0  0  0  0  0
  -29.5570  -18.9230   20.6690 C   0  0  0  0  0  0  0  0  0  0  0  0
  -29.1450  -18.1490   19.5370 C   0  0  0  0  0  0  0  0  0  0  0  0
  -30.7620  -14.6440   20.2160 C   0  0  0  0  0  0  0  0  0  0  0  0
  -30.4460  -12.3680   19.2820 C   0  0  0  0  0  2  0  0  0  0  0  0
  -29.5050  -12.4470   18.0640 C   0  0  0  0  0  2  0  0  0  0  0  0
  -28.0490  -12.2670   18.5270 C   0  0  0  0  0  2  0  0  0  0  0  0
  -27.6880  -13.1950   19.7180 C   0  0  0  0  0  3  0  0  0  0  0  0
  -28.7670  -13.1880   20.8220 C   0  0  0  0  0  2  0  0  0  0  0  0
  -30.0620  -13.4640   20.1960 N   0  0  0  0  0  0  0  0  0  0  0  0
  -31.9320  -14.6730   19.8350 O   0  0  0  0  0  0  0  0  0  0  0  0
  -25.3290  -13.7730   20.5300 C   0  0  0  0  0  0  0  0  0  0  0  0
  -24.2730  -13.0060   20.9240 C   0  0  0  0  0  0  0  0  0  0  0  0
  -24.7290  -11.6540   20.8640 C   0  0  0  0  0  0  0  0  0  0  0  0
  -26.3630  -12.8990   20.2520 N   0  0  0  0  0  0  0  0  0  0  0  0
  -26.0100  -11.6140   20.5150 N   0  0  0  0  0  0  0  0  0  0  0  0
  -24.0030  -10.3960   21.0580 C   0  0  0  0  0  0  0  0  0  0  0  0
  -24.4530   -9.4190   21.9730 C   0  0  0  0  0  3  0  0  0  0  0  0
  -23.7290   -8.2230   22.1560 C   0  0  0  0  0  3  0  0  0  0  0  0
  -22.5380   -7.9960   21.4260 C   0  0  0  0  0  0  0  0  0  0  0  0
  -22.1050   -8.9630   20.5020 C   0  0  0  0  0  3  0  0  0  0  0  0
  -22.8310  -10.1510   20.3170 C   0  0  0  0  0  3  0  0  0  0  0  0
  -21.7820   -6.8530   21.5210 O   0  0  0  0  0  0  0  0  0  0  0  0
  -21.7460   -6.1070   22.6710 C   0  0  0  0  0  0  0  0  0  0  0  0
  -21.3160   -6.6540   23.8990 C   0  0  0  0  0  3  0  0  0  0  0  0
  -21.2260   -5.8340   25.0420 C   0  0  0  0  0  3  0  0  0  0  0  0
  -21.5550   -4.4680   24.9570 C   0  0  0  0  0  0  0  0  0  0  0  0
  -21.9790   -3.9200   23.7330 C   0  0  0  0  0  3  0  0  0  0  0  0
  -22.0690   -4.7370   22.5920 C   0  0  0  0  0  0  0  0  0  0  0  0
  -22.4580   -4.2000   21.4110 F   0  0  0  0  0  0  0  0  0  0  0  0
  -21.4620   -3.6790   26.0520 F   0  0  0  0  0  0  0  0  0  0  0  0
  -22.8880  -13.4900   21.2450 C   0  0  0  0  0  0  0  0  0  0  0  0
  -22.1910  -12.8000   22.1390 N   0  0  0  0  0  0  0  0  0  0  0  0
  -22.4360  -14.5190   20.7430 O   0  0  0  0  0  0  0  0  0  0  0  0
  -22.5720  -11.9690   22.5660 H   0  0  0  0  0  0  0  0  0  0  0  0
  -21.2650  -13.1070   22.4000 H   0  0  0  0  0  0  0  0  0  0  0  0
  -25.4960  -15.1380   20.3580 N   0  0  0  0  0  0  0  0  0  0  0  0
  -24.7380  -15.8000   20.4720 H   0  0  0  0  0  0  0  0  0  0  0  0
  -26.3620  -15.5700   20.0670 H   0  0  0  0  0  0  0  0  0  0  0  0
  -28.4570  -18.6840   18.4710 O   0  0  0  0  0  0  0  0  0  0  0  0
  -26.2500  -18.1470   19.5530 C   0  0  0  0  0  1  0  0  0  0  0  0
  -27.0900  -19.0720   18.6590 C   0  0  0  0  0  2  0  0  0  0  0  0
  -29.4290  -23.0040   20.3930 C   0  0  0  0  0  2  0  0  0  0  0  0
  -28.3250  -24.0300   19.9130 C   0  0  0  0  0  2  0  0  0  0  0  0
  -28.7970  -25.4760   19.4630 C   0  0  0  0  0  2  0  0  0  0  0  0
  -28.5700  -26.6460   20.3080 O   0  0  0  0  0  0  0  0  0  0  0  0
  -24.6340  -31.8700   23.2510 C   0  0  0  0  0  0  0  0  0  0  0  0
  -27.3980  -27.3990   20.2300 C   0  0  0  0  0  0  0  0  0  0  0  0
  -23.4850  -30.4560   21.5780 C   0  0  0  0  0  3  0  0  0  0  0  0
  -24.9880  -28.9250   20.1890 C   0  0  0  0  0  0  0  0  0  0  0  0
  -26.0170  -30.8240   21.4460 C   0  0  0  0  0  2  0  0  0  0  0  0
  -26.1300  -29.4480   20.8070 C   0  0  0  0  0  0  0  0  0  0  0  0
  -27.3340  -28.6920   20.8230 C   0  0  0  0  0  3  0  0  0  0  0  0
  -26.2290  -26.9070   19.6050 C   0  0  0  0  0  3  0  0  0  0  0  0
  -25.0360  -27.6570   19.5860 C   0  0  0  0  0  3  0  0  0  0  0  0
  -23.7350  -29.7740   20.2070 C   0  0  0  0  0  2  0  0  0  0  0  0
  -24.7290  -31.0670   22.1510 N   0  0  0  0  0  0  0  0  0  0  0  0
  -23.5360  -32.1330   23.7630 O   0  0  0  0  0  0  0  0  0  0  0  0
  -22.8190  -29.4320   22.5260 C   0  0  0  0  0  0  0  0  0  0  0  0
  -21.4930  -29.2610   22.3920 N   0  0  0  0  0  0  0  0  0  0  0  0
  -23.4920  -28.7920   23.3380 O   0  0  0  0  0  0  0  0  0  0  0  0
  -21.0080  -29.8330   21.7120 H   0  0  0  0  0  0  0  0  0  0  0  0
  -18.1020  -28.1180   22.8860 C   0  0  0  0  0  0  0  0  0  0  0  0
  -20.6660  -28.3180   23.1430 C   0  0  0  0  0  3  0  0  0  0  0  0
  -20.7350  -26.9010   22.5270 C   0  0  0  0  0  2  0  0  0  0  0  0
  -19.6190  -26.6270   21.5140 C   0  0  0  0  0  2  0  0  0  0  0  0
  -18.2460  -26.7830   22.1740 C   0  0  0  0  0  2  0  0  0  0  0  0
  -19.2380  -28.8450   23.3270 C   0  0  0  0  0  0  0  0  0  0  0  0
  -19.0500  -30.0970   23.9520 C   0  0  0  0  0  3  0  0  0  0  0  0
  -17.7590  -30.6190   24.1460 C   0  0  0  0  0  3  0  0  0  0  0  0
  -16.6340  -29.8850   23.7250 C   0  0  0  0  0  3  0  0  0  0  0  0
  -16.8070  -28.6380   23.0990 C   0  0  0  0  0  3  0  0  0  0  0  0
  -25.8960  -32.5150   23.9040 C   0  0  0  0  0  3  0  0  0  0  0  0
  -25.5710  -33.9140   24.2120 N   0  0  0  0  0  0  0  0  0  0  0  0
  -25.9120  -34.9620   23.4510 C   0  0  0  0  0  0  0  0  0  0  0  0
  -26.6030  -34.8530   22.4350 O   0  0  0  0  0  0  0  0  0  0  0  0
  -24.9600  -34.0720   25.0000 H   0  0  0  0  0  0  0  0  0  0  0  0
  -24.1690  -36.7310   23.0540 C   0  0  0  0  0  1  0  0  0  0  0  0
  -25.4040  -36.3500   23.8850 C   0  0  0  0  0  3  0  0  0  0  0  0
  -27.5140  -37.2720   24.7370 C   0  0  0  0  0  1  0  0  0  0  0  0
  -26.4260  -37.4130   23.7730 N   0  0  0  0  0  0  0  0  0  0  0  0
  -26.0070  -38.3300   23.9000 H   0  0  0  0  0  0  0  0  0  0  0  0
  -26.3790  -31.7590   25.2020 C   0  0  1  0  0  0  0  0  0  0  0  0
  -25.2570  -31.5260   26.2410 C   0  0  0  0  0  1  0  0  0  0  0  0
  -26.9830  -30.3830   24.8380 C   0  0  0  0  0  1  0  0  0  0  0  0
  -27.5010  -32.5680   25.8940 C   0  0  0  0  0  1  0  0  0  0  0  0
  2 48  1  0
  2  1  2  0
  3  4  1  0
  5  8  2  0
  5  6  1  0
  6  3  2  0
  7  1  1  0
  7  4  2  0
  8  7  1  0
  9  6  1  0
 10 15  1  0
 11 12  1  0
 11 10  1  0
 13 12  1  0
 13 20  1  0
 13 14  1  0
 15  9  1  0
 15 14  1  0
 16  9  2  0
 17 18  2  0
 18 37  1  0
 19 18  1  0
 19 22  1  0
 20 21  1  0
 20 17  1  0
 21 19  2  0
 22 23  1  0
 23 24  2  0
 25 28  1  0
 25 24  1  0
 26 25  2  0
 27 26  1  0
 27 22  2  0
 28 29  1  0
 29 30  1  0
 30 31  2  0
 32 31  1  0
 32 36  1  0
 33 32  2  0
 34 29  2  0
 34 33  1  0
 35 34  1  0
 37 38  1  0
 38 41  1  0
 38 40  1  0
 39 37  2  0
 42 43  1  0
 42 17  1  0
 44 42  1  0
 45 47  1  0
 45  8  1  0
 47 46  1  0
 49 48  1  0
 50 49  1  0
 50 51  1  0
 52 63  2  0
 53 51  1  0
 53 58  1  0
 54 62  1  0
 54 64  1  0
 55 61  1  0
 55 57  1  0
 56 62  1  0
 57 58  2  0
 57 56  1  0
 59 53  2  0
 60 59  1  0
 60 55  2  0
 61 54  1  0
 62 52  1  0
 64 66  2  0
 65 64  1  0
 67 65  1  0
 68 77  2  0
 68 73  1  0
 69 65  1  0
 69 73  1  0
 70 69  1  0
 71 72  1  0
 71 70  1  0
 72 68  1  0
 73 74  2  0
 74 75  1  0
 76 75  2  0
 77 76  1  0
 78 52  1  0
 78 79  1  0
 78 88  1  0
 79 82  1  0
 80 84  1  0
 80 79  1  0
 81 80  2  0
 84 83  1  0
 86 84  1  0
 86 87  1  0
 86 85  1  0
 88 91  1  1
 88 89  1  0
 90 88  1  0
M  ISO  4   6 100   9 100  50 101  51 101
M  END
>  <TORSDO>  (59) 
F 22

>  <SCORE>  (59) 
-12.956

>  <name>  (59) 
58

>  <ligand_id>  (59) 
58

>  <original_smiles>  (59) 
[H]C(=C([H])C([H])([H])C([H])([H])C([H])([H])Oc1c([H])c([H])c2c(c1[H])C([H])([H])N(C(=O)C([H])(N([H])C(=O)C([H])(N([H])C([H])([H])[H])C([H])([H])[H])C(C([H])([H])[H])(C([H])([H])[H])C([H])([H])[H])C([H])(C(=O)N([H])C1([H])c3c([H])c([H])c([H])c([H])c3C([H])([H])C([H])([H])C1([H])[H])C2([H])[H])c1c([H])c([H])c(C(=O)N2C([H])([H])C([H])([H])C([H])([H])C([H])(n3nc(-c4c([H])c([H])c(Oc5c([H])c([H])c(F)c([H])c5F)c([H])c4[H])c(C(=O)N([H])[H])c3N([H])[H])C2([H])[H])c([H])c1OC([H])([H])C([H])([H])[H]

>  <smiles>  (59) 
[H]C(=C([H])C([H])([H])C([H])([H])C([H])([H])Oc1c([H])c([H])c2c(c1[H])C([H])([H])N(C(=O)C([H])(N([H])C(=O)C([H])(N([H])C([H])([H])[H])C([H])([H])[H])C(C([H])([H])[H])(C([H])([H])[H])C([H])([H])[H])C([H])(C(=O)N([H])C1([H])c3c([H])c([H])c([H])c([H])c3C([H])([H])C([H])([H])C1([H])[H])C2([H])[H])c1c([H])c([H])c(C(=O)N2C([H])([H])C([H])([H])C([H])([H])C([H])(n3nc(-c4c([H])c([H])c(Oc5c([H])c([H])c(F)c([H])c5F)c([H])c4[H])c(C(=O)N([H])[H])c3N([H])[H])C2([H])[H])c([H])c1OC([H])([H])C([H])([H])[H]

$$$$
59:0:0
     RDKit          3D

 87 95  0  0  1  0  0  0  0  0999 V2000
  -28.8700  -23.1700   20.1990 C   0  0  0  0  0  0  0  0  0  0  0  0
  -29.8520  -23.3760   20.9190 O   0  0  0  0  0  0  0  0  0  0  0  0
  -28.9800  -20.2870   19.6330 C   0  0  0  0  0  3  0  0  0  0  0  0
  -28.6590  -21.7000   19.5450 C   0  0  0  0  0  3  0  0  0  0  0  0
  -30.3780  -18.8190   21.4460 C   0  0  0  0  0  3  0  0  0  0  0  0
  -30.6890  -17.4040   21.5980 C   0  0  0  0  0  3  0  0  0  0  0  0
  -29.6370  -19.0400   20.3090 C   0  0  0  0  0  0  0  0  0  0  0  0
  -30.1900  -16.6290   20.5690 C   0  0  0  0  0  0  0  0  0  0  0  0
  -29.5590  -17.6740   19.7520 O   0  0  0  0  0  0  0  0  0  0  0  0
  -30.6520  -15.0930   20.1890 C   0  0  0  0  0  0  0  0  0  0  0  0
  -30.4160  -12.7040   19.3450 C   0  0  0  0  0  2  0  0  0  0  0  0
  -29.4920  -12.6490   18.1130 C   0  0  0  0  0  2  0  0  0  0  0  0
  -28.0410  -12.4240   18.5650 C   0  0  0  0  0  2  0  0  0  0  0  0
  -27.6360  -13.3760   19.7220 C   0  0  0  0  0  3  0  0  0  0  0  0
  -28.7050  -13.4900   20.8360 C   0  0  0  0  0  2  0  0  0  0  0  0
  -29.9760  -13.8570   20.1950 N   0  0  0  0  0  0  0  0  0  0  0  0
  -31.8260  -15.0010   19.8080 O   0  0  0  0  0  0  0  0  0  0  0  0
  -25.2740  -13.9420   20.5150 C   0  0  0  0  0  0  0  0  0  0  0  0
  -24.2120  -13.1650   20.8960 C   0  0  0  0  0  0  0  0  0  0  0  0
  -24.6680  -11.8160   20.8440 C   0  0  0  0  0  0  0  0  0  0  0  0
  -26.3090  -13.0640   20.2480 N   0  0  0  0  0  0  0  0  0  0  0  0
  -25.9560  -11.7770   20.5120 N   0  0  0  0  0  0  0  0  0  0  0  0
  -23.9320  -10.5580   21.0450 C   0  0  0  0  0  0  0  0  0  0  0  0
  -24.3660   -9.5760   21.9590 C   0  0  0  0  0  3  0  0  0  0  0  0
  -23.6230   -8.3890   22.1420 C   0  0  0  0  0  3  0  0  0  0  0  0
  -22.4290   -8.1760   21.4110 C   0  0  0  0  0  0  0  0  0  0  0  0
  -22.0160   -9.1490   20.4840 C   0  0  0  0  0  3  0  0  0  0  0  0
  -22.7620  -10.3250   20.2980 C   0  0  0  0  0  3  0  0  0  0  0  0
  -21.6560   -7.0450   21.5070 O   0  0  0  0  0  0  0  0  0  0  0  0
  -21.6210   -6.2920   22.6530 C   0  0  0  0  0  0  0  0  0  0  0  0
  -21.2320   -6.8430   23.8950 C   0  0  0  0  0  3  0  0  0  0  0  0
  -21.1400   -6.0160   25.0340 C   0  0  0  0  0  3  0  0  0  0  0  0
  -21.4280   -4.6420   24.9310 C   0  0  0  0  0  0  0  0  0  0  0  0
  -21.8120   -4.0940   23.6960 C   0  0  0  0  0  3  0  0  0  0  0  0
  -21.9030   -4.9140   22.5590 C   0  0  0  0  0  0  0  0  0  0  0  0
  -22.2530   -4.3760   21.3690 F   0  0  0  0  0  0  0  0  0  0  0  0
  -21.3310   -3.8450   26.0230 F   0  0  0  0  0  0  0  0  0  0  0  0
  -22.8240  -13.6570   21.1850 C   0  0  0  0  0  0  0  0  0  0  0  0
  -22.1020  -12.9720   22.0680 N   0  0  0  0  0  0  0  0  0  0  0  0
  -22.3930  -14.6910   20.6800 O   0  0  0  0  0  0  0  0  0  0  0  0
  -22.4610  -12.1360   22.5020 H   0  0  0  0  0  0  0  0  0  0  0  0
  -21.1760  -13.2970   22.3100 H   0  0  0  0  0  0  0  0  0  0  0  0
  -25.4320  -15.3120   20.3460 N   0  0  0  0  0  0  0  0  0  0  0  0
  -24.6650  -15.9540   20.5220 H   0  0  0  0  0  0  0  0  0  0  0  0
  -26.2650  -15.7740   20.0030 H   0  0  0  0  0  0  0  0  0  0  0  0
  -27.8720  -24.5080   19.8940 C   0  0  0  0  0  2  0  0  0  0  0  0
  -28.1870  -26.0310   20.2310 O   0  0  0  0  0  0  0  0  0  0  0  0
  -24.6330  -31.8530   23.2280 C   0  0  0  0  0  0  0  0  0  0  0  0
  -27.1670  -27.0730   20.1830 C   0  0  0  0  0  0  0  0  0  0  0  0
  -23.4260  -30.4620   21.5920 C   0  0  0  0  0  3  0  0  0  0  0  0
  -24.8610  -28.8790   20.1640 C   0  0  0  0  0  0  0  0  0  0  0  0
  -25.9810  -30.7000   21.4220 C   0  0  0  0  0  2  0  0  0  0  0  0
  -26.0490  -29.2980   20.7780 C   0  0  0  0  0  0  0  0  0  0  0  0
  -27.2000  -28.4120   20.7750 C   0  0  0  0  0  3  0  0  0  0  0  0
  -25.9490  -26.7730   19.5350 C   0  0  0  0  0  3  0  0  0  0  0  0
  -24.8250  -27.6290   19.5340 C   0  0  0  0  0  3  0  0  0  0  0  0
  -23.6540  -29.8070   20.2050 C   0  0  0  0  0  2  0  0  0  0  0  0
  -24.7010  -31.0260   22.1390 N   0  0  0  0  0  0  0  0  0  0  0  0
  -23.5510  -32.1390   23.7610 O   0  0  0  0  0  0  0  0  0  0  0  0
  -22.7440  -29.4490   22.5510 C   0  0  0  0  0  0  0  0  0  0  0  0
  -21.4110  -29.2900   22.4450 N   0  0  0  0  0  0  0  0  0  0  0  0
  -23.4160  -28.8120   23.3670 O   0  0  0  0  0  0  0  0  0  0  0  0
  -20.9140  -29.8750   21.7880 H   0  0  0  0  0  0  0  0  0  0  0  0
  -18.0370  -28.0790   22.9580 C   0  0  0  0  0  0  0  0  0  0  0  0
  -20.5930  -28.3510   23.2210 C   0  0  0  0  0  3  0  0  0  0  0  0
  -20.6960  -26.9120   22.6580 C   0  0  0  0  0  2  0  0  0  0  0  0
  -19.5940  -26.5800   21.6460 C   0  0  0  0  0  2  0  0  0  0  0  0
  -18.2140  -26.7260   22.2900 C   0  0  0  0  0  2  0  0  0  0  0  0
  -19.1530  -28.8480   23.3820 C   0  0  0  0  0  0  0  0  0  0  0  0
  -18.9270  -30.1100   23.9730 C   0  0  0  0  0  3  0  0  0  0  0  0
  -17.6200  -30.6040   24.1420 C   0  0  0  0  0  3  0  0  0  0  0  0
  -16.5190  -29.8370   23.7260 C   0  0  0  0  0  3  0  0  0  0  0  0
  -16.7280  -28.5740   23.1420 C   0  0  0  0  0  3  0  0  0  0  0  0
  -25.9120  -32.4940   23.8480 C   0  0  0  0  0  3  0  0  0  0  0  0
  -26.4310  -31.7260   25.1260 C   0  0  1  0  0  0  0  0  0  0  0  0
  -25.3490  -31.4970   26.2070 C   0  0  0  0  0  1  0  0  0  0  0  0
  -27.0120  -30.3490   24.7340 C   0  0  0  0  0  1  0  0  0  0  0  0
  -27.5750  -32.5260   25.7910 C   0  0  0  0  0  1  0  0  0  0  0  0
  -25.5990  -33.8930   24.1880 N   0  0  0  0  0  0  0  0  0  0  0  0
  -25.9090  -34.9540   23.4290 C   0  0  0  0  0  0  0  0  0  0  0  0
  -26.5570  -34.8580   22.3830 O   0  0  0  0  0  0  0  0  0  0  0  0
  -25.0430  -34.0380   25.0160 H   0  0  0  0  0  0  0  0  0  0  0  0
  -24.1730  -36.7540   23.1150 C   0  0  0  0  0  1  0  0  0  0  0  0
  -25.4270  -36.3390   23.9030 C   0  0  0  0  0  3  0  0  0  0  0  0
  -27.5730  -37.2330   24.7000 C   0  0  0  0  0  1  0  0  0  0  0  0
  -26.4530  -37.3970   23.7790 N   0  0  0  0  0  0  0  0  0  0  0  0
  -26.0450  -38.3130   23.9420 H   0  0  0  0  0  0  0  0  0  0  0  0
  1  2  2  0
  3  7  1  0
  4  3  2  0
  4  1  1  0
  5  6  1  0
  7  5  2  0
  8  6  2  0
  9  7  1  0
  9  8  1  0
 10 16  1  0
 10  8  1  0
 11 16  1  0
 12 13  1  0
 12 11  1  0
 14 13  1  0
 14 21  1  0
 14 15  1  0
 16 15  1  0
 17 10  2  0
 18 19  2  0
 19 38  1  0
 20 19  1  0
 20 23  1  0
 21 22  1  0
 21 18  1  0
 22 20  2  0
 23 24  1  0
 24 25  2  0
 26 29  1  0
 26 25  1  0
 27 26  2  0
 28 27  1  0
 28 23  2  0
 29 30  1  0
 30 31  1  0
 31 32  2  0
 33 32  1  0
 33 37  1  0
 34 33  2  0
 35 30  2  0
 35 34  1  0
 36 35  1  0
 38 39  1  0
 39 42  1  0
 39 41  1  0
 40 38  2  0
 43 18  1  0
 43 44  1  0
 45 43  1  0
 46  1  1  0
 46 47  1  0
 48 59  2  0
 49 47  1  0
 49 54  1  0
 50 58  1  0
 50 60  1  0
 51 57  1  0
 51 53  1  0
 52 58  1  0
 53 52  1  0
 54 53  2  0
 55 49  2  0
 56 55  1  0
 56 51  2  0
 57 50  1  0
 58 48  1  0
 60 62  2  0
 61 60  1  0
 63 61  1  0
 64 73  2  0
 64 69  1  0
 65 61  1  0
 65 69  1  0
 66 65  1  0
 67 68  1  0
 67 66  1  0
 68 64  1  0
 69 70  2  0
 70 71  1  0
 72 71  2  0
 73 72  1  0
 74 48  1  0
 74 79  1  0
 74 75  1  0
 75 78  1  1
 75 76  1  0
 77 75  1  0
 79 82  1  0
 80 84  1  0
 80 79  1  0
 81 80  2  0
 84 83  1  0
 86 84  1  0
 86 87  1  0
 86 85  1  0
M  ISO  4   8 100  10 100  46 101  47 101
M  END
>  <TORSDO>  (60) 
F 19

>  <SCORE>  (60) 
-14.702

>  <name>  (60) 
59

>  <ligand_id>  (60) 
59

>  <original_smiles>  (60) 
[H]C(C(=O)C([H])([H])Oc1c([H])c([H])c2c(c1[H])C([H])([H])N(C(=O)C([H])(N([H])C(=O)C([H])(N([H])C([H])([H])[H])C([H])([H])[H])C(C([H])([H])[H])(C([H])([H])[H])C([H])([H])[H])C([H])(C(=O)N([H])C1([H])c3c([H])c([H])c([H])c([H])c3C([H])([H])C([H])([H])C1([H])[H])C2([H])[H])=C([H])c1oc(C(=O)N2C([H])([H])C([H])([H])C([H])([H])C([H])(n3nc(-c4c([H])c([H])c(Oc5c([H])c([H])c(F)c([H])c5F)c([H])c4[H])c(C(=O)N([H])[H])c3N([H])[H])C2([H])[H])c([H])c1[H]

>  <smiles>  (60) 
[H]C(C(=O)C([H])([H])Oc1c([H])c([H])c2c(c1[H])C([H])([H])N(C(=O)C([H])(N([H])C(=O)C([H])(N([H])C([H])([H])[H])C([H])([H])[H])C(C([H])([H])[H])(C([H])([H])[H])C([H])([H])[H])C([H])(C(=O)N([H])C1([H])c3c([H])c([H])c([H])c([H])c3C([H])([H])C([H])([H])C1([H])[H])C2([H])[H])=C([H])c1oc(C(=O)N2C([H])([H])C([H])([H])C([H])([H])C([H])(n3nc(-c4c([H])c([H])c(Oc5c([H])c([H])c(F)c([H])c5F)c([H])c4[H])c(C(=O)N([H])[H])c3N([H])[H])C2([H])[H])c([H])c1[H]

$$$$
60:0:0
     RDKit          3D

 90 98  0  0  1  0  0  0  0  0999 V2000
  -30.0770  -19.7710   21.7320 C   0  0  0  0  0  3  0  0  0  0  0  0
  -30.2570  -18.3340   21.6540 C   0  0  0  0  0  3  0  0  0  0  0  0
  -29.0350  -18.3380   19.6360 C   0  0  0  0  0  3  0  0  0  0  0  0
  -28.8430  -19.7810   19.7040 C   0  0  0  0  0  0  0  0  0  0  0  0
  -29.3590  -20.5790   20.7800 C   0  0  0  0  0  0  0  0  0  0  0  0
  -29.7390  -17.5240   20.5940 C   0  0  0  0  0  0  0  0  0  0  0  0
  -30.5310  -14.8970   20.4630 C   0  0  0  0  0  0  0  0  0  0  0  0
  -30.4500  -12.5560   19.4800 C   0  0  0  0  0  2  0  0  0  0  0  0
  -29.5240  -12.5390   18.2400 C   0  0  0  0  0  2  0  0  0  0  0  0
  -28.0500  -12.3290   18.6520 C   0  0  0  0  0  2  0  0  0  0  0  0
  -27.6390  -13.2350   19.8430 C   0  0  0  0  0  3  0  0  0  0  0  0
  -28.6920  -13.1990   20.9740 C   0  0  0  0  0  2  0  0  0  0  0  0
  -29.9660  -13.6300   20.3880 N   0  0  0  0  0  0  0  0  0  0  0  0
  -31.7300  -15.0220   20.1940 O   0  0  0  0  0  0  0  0  0  0  0  0
  -29.6620  -16.0020   20.6070 N   0  0  0  0  0  0  0  0  0  0  0  0
  -28.7090  -15.6780   20.6160 H   0  0  0  0  0  0  0  0  0  0  0  0
  -25.2550  -13.8150   20.5710 C   0  0  0  0  0  0  0  0  0  0  0  0
  -24.1850  -13.0430   20.9200 C   0  0  0  0  0  0  0  0  0  0  0  0
  -24.6400  -11.6870   20.8670 C   0  0  0  0  0  0  0  0  0  0  0  0
  -26.2950  -12.9360   20.3230 N   0  0  0  0  0  0  0  0  0  0  0  0
  -25.9330  -11.6480   20.5630 N   0  0  0  0  0  0  0  0  0  0  0  0
  -23.9070  -10.4270   21.0350 C   0  0  0  0  0  0  0  0  0  0  0  0
  -24.3640   -9.4190   21.9120 C   0  0  0  0  0  3  0  0  0  0  0  0
  -23.6320   -8.2230   22.0730 C   0  0  0  0  0  3  0  0  0  0  0  0
  -22.4290   -8.0270   21.3550 C   0  0  0  0  0  0  0  0  0  0  0  0
  -21.9930   -9.0220   20.4630 C   0  0  0  0  0  3  0  0  0  0  0  0
  -22.7250  -10.2090   20.3000 C   0  0  0  0  0  3  0  0  0  0  0  0
  -21.6650   -6.8880   21.4230 O   0  0  0  0  0  0  0  0  0  0  0  0
  -21.6850   -6.0740   22.5270 C   0  0  0  0  0  0  0  0  0  0  0  0
  -21.3990   -6.5640   23.8200 C   0  0  0  0  0  3  0  0  0  0  0  0
  -21.3660   -5.6780   24.9160 C   0  0  0  0  0  3  0  0  0  0  0  0
  -21.6060   -4.3050   24.7200 C   0  0  0  0  0  0  0  0  0  0  0  0
  -21.8830   -3.8160   23.4310 C   0  0  0  0  0  3  0  0  0  0  0  0
  -21.9200   -4.6980   22.3380 C   0  0  0  0  0  0  0  0  0  0  0  0
  -22.1670   -4.2160   21.0960 F   0  0  0  0  0  0  0  0  0  0  0  0
  -21.5660   -3.4540   25.7720 F   0  0  0  0  0  0  0  0  0  0  0  0
  -22.7860  -13.5170   21.1900 C   0  0  0  0  0  0  0  0  0  0  0  0
  -22.0560  -12.8110   22.0410 N   0  0  0  0  0  0  0  0  0  0  0  0
  -22.3520  -14.5480   20.6780 O   0  0  0  0  0  0  0  0  0  0  0  0
  -22.4240  -11.9740   22.4720 H   0  0  0  0  0  0  0  0  0  0  0  0
  -21.1140  -13.1010   22.2580 H   0  0  0  0  0  0  0  0  0  0  0  0
  -25.4290  -15.1890   20.4220 N   0  0  0  0  0  0  0  0  0  0  0  0
  -24.6690  -15.8460   20.5610 H   0  0  0  0  0  0  0  0  0  0  0  0
  -26.2710  -15.6320   20.0850 H   0  0  0  0  0  0  0  0  0  0  0  0
  -26.8380  -20.7370   18.5930 C   0  0  0  0  0  2  0  0  0  0  0  0
  -28.1460  -20.4240   18.5840 C   0  0  0  0  0  3  0  0  0  0  0  0
  -29.1830  -22.1910   21.0590 C   0  0  0  0  0  3  0  0  0  0  0  0
  -28.5770  -23.4090   20.0940 C   0  0  0  0  0  3  0  0  0  0  0  0
  -28.2030  -24.8790   20.7670 C   0  0  0  0  0  2  0  0  0  0  0  0
  -28.3080  -26.2760   20.1540 O   0  0  0  0  0  0  0  0  0  0  0  0
  -24.6340  -31.8480   23.1990 C   0  0  0  0  0  0  0  0  0  0  0  0
  -27.2140  -27.1900   20.1740 C   0  0  0  0  0  0  0  0  0  0  0  0
  -23.4370  -30.4680   21.5420 C   0  0  0  0  0  3  0  0  0  0  0  0
  -24.8860  -28.8910   20.1280 C   0  0  0  0  0  0  0  0  0  0  0  0
  -25.9850  -30.7360   21.3930 C   0  0  0  0  0  2  0  0  0  0  0  0
  -26.0620  -29.3570   20.7270 C   0  0  0  0  0  0  0  0  0  0  0  0
  -27.2320  -28.5200   20.7260 C   0  0  0  0  0  3  0  0  0  0  0  0
  -26.0030  -26.7820   19.5760 C   0  0  0  0  0  3  0  0  0  0  0  0
  -24.8590  -27.6120   19.5480 C   0  0  0  0  0  3  0  0  0  0  0  0
  -23.6660  -29.7960   20.1630 C   0  0  0  0  0  2  0  0  0  0  0  0
  -24.7030  -31.0380   22.0990 N   0  0  0  0  0  0  0  0  0  0  0  0
  -23.5470  -32.1440   23.7210 O   0  0  0  0  0  0  0  0  0  0  0  0
  -22.7500  -29.4590   22.4920 C   0  0  0  0  0  0  0  0  0  0  0  0
  -21.4210  -29.3000   22.3580 N   0  0  0  0  0  0  0  0  0  0  0  0
  -23.4110  -28.8170   23.3140 O   0  0  0  0  0  0  0  0  0  0  0  0
  -20.9360  -29.8750   21.6820 H   0  0  0  0  0  0  0  0  0  0  0  0
  -18.0300  -28.1400   22.8420 C   0  0  0  0  0  0  0  0  0  0  0  0
  -20.5930  -28.3630   23.1230 C   0  0  0  0  0  3  0  0  0  0  0  0
  -20.6780  -26.9340   22.5380 C   0  0  0  0  0  2  0  0  0  0  0  0
  -19.5780  -26.6360   21.5170 C   0  0  0  0  0  2  0  0  0  0  0  0
  -18.1970  -26.7960   22.1580 C   0  0  0  0  0  2  0  0  0  0  0  0
  -19.1570  -28.8840   23.2840 C   0  0  0  0  0  0  0  0  0  0  0  0
  -18.9520  -30.1410   23.8880 C   0  0  0  0  0  3  0  0  0  0  0  0
  -17.6550  -30.6610   24.0490 C   0  0  0  0  0  3  0  0  0  0  0  0
  -16.5410  -29.9110   23.6310 C   0  0  0  0  0  3  0  0  0  0  0  0
  -16.7310  -28.6530   23.0360 C   0  0  0  0  0  3  0  0  0  0  0  0
  -25.9140  -32.4690   23.8360 C   0  0  0  0  0  3  0  0  0  0  0  0
  -26.4550  -31.6580   25.0770 C   0  0  1  0  0  0  0  0  0  0  0  0
  -25.3740  -31.3770   26.1450 C   0  0  0  0  0  1  0  0  0  0  0  0
  -27.0470  -30.3050   24.6310 C   0  0  0  0  0  1  0  0  0  0  0  0
  -27.6110  -32.4350   25.7510 C   0  0  0  0  0  1  0  0  0  0  0  0
  -25.6010  -33.8480   24.2300 N   0  0  0  0  0  0  0  0  0  0  0  0
  -25.9060  -34.9370   23.5100 C   0  0  0  0  0  0  0  0  0  0  0  0
  -26.5500  -34.8830   22.4560 O   0  0  0  0  0  0  0  0  0  0  0  0
  -25.0230  -33.9680   25.0490 H   0  0  0  0  0  0  0  0  0  0  0  0
  -24.1530  -36.7170   23.2680 C   0  0  0  0  0  1  0  0  0  0  0  0
  -25.4160  -36.2970   24.0370 C   0  0  0  0  0  3  0  0  0  0  0  0
  -27.5600  -37.1760   24.8480 C   0  0  0  0  0  1  0  0  0  0  0  0
  -26.4320  -37.3690   23.9390 N   0  0  0  0  0  0  0  0  0  0  0  0
  -26.0170  -38.2750   24.1420 H   0  0  0  0  0  0  0  0  0  0  0  0
  2  1  1  0
  3  4  2  0
  3  6  1  0
  4  5  1  0
  5 47  1  0
  5  1  2  0
  6 15  1  0
  6  2  2  0
  7 15  1  0
  8 13  1  0
  9 10  1  0
  9  8  1  0
 11 10  1  0
 11 20  1  0
 11 12  1  0
 13  7  1  0
 13 12  1  0
 14  7  2  0
 15 16  1  0
 17 18  2  0
 18 37  1  0
 19 18  1  0
 19 22  1  0
 20 21  1  0
 20 17  1  0
 21 19  2  0
 22 23  1  0
 23 24  2  0
 25 28  1  0
 25 24  1  0
 26 25  2  0
 27 26  1  0
 27 22  2  0
 28 29  1  0
 29 30  1  0
 30 31  2  0
 32 31  1  0
 32 36  1  0
 33 32  2  0
 34 29  2  0
 34 33  1  0
 35 34  1  0
 37 38  1  0
 38 41  1  0
 38 40  1  0
 39 37  2  0
 42 43  1  0
 42 17  1  0
 44 42  1  0
 46 45  2  0
 46  4  1  0
 48 49  1  0
 48 47  2  0
 50 52  1  0
 50 49  1  0
 51 62  2  0
 52 57  1  0
 53 61  1  0
 53 63  1  0
 54 60  1  0
 54 56  1  0
 55 61  1  0
 56 55  1  0
 57 56  2  0
 58 52  2  0
 59 58  1  0
 59 54  2  0
 60 53  1  0
 61 51  1  0
 63 65  2  0
 64 63  1  0
 66 64  1  0
 67 76  2  0
 67 72  1  0
 68 64  1  0
 68 72  1  0
 69 68  1  0
 70 71  1  0
 70 69  1  0
 71 67  1  0
 72 73  2  0
 73 74  1  0
 75 74  2  0
 76 75  1  0
 77 51  1  0
 77 82  1  0
 77 78  1  0
 78 81  1  1
 78 79  1  0
 80 78  1  0
 82 85  1  0
 83 87  1  0
 83 82  1  0
 84 83  2  0
 87 86  1  0
 89 87  1  0
 89 90  1  0
 89 88  1  0
M  ISO  4   7 100  15 100  49 101  50 101
M  END
>  <TORSDO>  (61) 
F 20

>  <SCORE>  (61) 
-13.511

>  <name>  (61) 
60

>  <ligand_id>  (61) 
60

>  <original_smiles>  (61) 
[H]C([H])=C([H])c1c([H])c(N([H])C(=O)N2C([H])([H])C([H])([H])C([H])([H])C([H])(n3nc(-c4c([H])c([H])c(Oc5c([H])c([H])c(F)c([H])c5F)c([H])c4[H])c(C(=O)N([H])[H])c3N([H])[H])C2([H])[H])c([H])c([H])c1C([H])([H])C([H])([H])C([H])([H])Oc1c([H])c([H])c2c(c1[H])C([H])([H])N(C(=O)C([H])(N([H])C(=O)C([H])(N([H])C([H])([H])[H])C([H])([H])[H])C(C([H])([H])[H])(C([H])([H])[H])C([H])([H])[H])C([H])(C(=O)N([H])C1([H])c3c([H])c([H])c([H])c([H])c3C([H])([H])C([H])([H])C1([H])[H])C2([H])[H]

>  <smiles>  (61) 
[H]C([H])=C([H])c1c([H])c(N([H])C(=O)N2C([H])([H])C([H])([H])C([H])([H])C([H])(n3nc(-c4c([H])c([H])c(Oc5c([H])c([H])c(F)c([H])c5F)c([H])c4[H])c(C(=O)N([H])[H])c3N([H])[H])C2([H])[H])c([H])c([H])c1C([H])([H])C([H])([H])C([H])([H])Oc1c([H])c([H])c2c(c1[H])C([H])([H])N(C(=O)C([H])(N([H])C(=O)C([H])(N([H])C([H])([H])[H])C([H])([H])[H])C(C([H])([H])[H])(C([H])([H])[H])C([H])([H])[H])C([H])(C(=O)N([H])C1([H])c3c([H])c([H])c([H])c([H])c3C([H])([H])C([H])([H])C1([H])[H])C2([H])[H]

$$$$
61:0:0
     RDKit          3D

 89 97  0  0  1  0  0  0  0  0999 V2000
  -30.0820  -20.2000   17.6780 C   0  0  0  0  0  3  0  0  0  0  0  0
  -30.3740  -20.8470   18.8980 C   0  0  0  0  0  3  0  0  0  0  0  0
  -28.5210  -18.7260   18.8500 C   0  0  0  0  0  3  0  0  0  0  0  0
  -29.2020  -19.0510   20.0430 C   0  0  0  0  0  0  0  0  0  0  0  0
  -29.0670  -19.2130   17.6380 C   0  0  0  0  0  0  0  0  0  0  0  0
  -29.6320  -20.4950   20.0460 C   0  0  0  0  0  0  0  0  0  0  0  0
  -28.6640  -18.5880   16.3120 C   0  0  0  0  0  1  0  0  0  0  0  0
  -30.0160  -17.7130   20.4080 C   0  0  0  0  0  3  0  0  0  0  0  0
  -29.6860  -16.3350   20.2560 C   0  0  0  0  0  3  0  0  0  0  0  0
  -30.5480  -15.0440   20.3200 C   0  0  0  0  0  0  0  0  0  0  0  0
  -30.4040  -12.6990   19.3680 C   0  0  0  0  0  2  0  0  0  0  0  0
  -29.4650  -12.7020   18.1400 C   0  0  0  0  0  2  0  0  0  0  0  0
  -28.0010  -12.4850   18.5750 C   0  0  0  0  0  2  0  0  0  0  0  0
  -27.6050  -13.3910   19.7670 C   0  0  0  0  0  3  0  0  0  0  0  0
  -28.6670  -13.3930   20.8830 C   0  0  0  0  0  2  0  0  0  0  0  0
  -29.9480  -13.7860   20.2820 N   0  0  0  0  0  0  0  0  0  0  0  0
  -31.7670  -15.0680   20.1200 O   0  0  0  0  0  0  0  0  0  0  0  0
  -25.2350  -13.9560   20.5530 C   0  0  0  0  0  0  0  0  0  0  0  0
  -24.1750  -13.1760   20.9160 C   0  0  0  0  0  0  0  0  0  0  0  0
  -24.6390  -11.8240   20.8590 C   0  0  0  0  0  0  0  0  0  0  0  0
  -26.2750  -13.0810   20.2810 N   0  0  0  0  0  0  0  0  0  0  0  0
  -25.9290  -11.7920   20.5360 N   0  0  0  0  0  0  0  0  0  0  0  0
  -23.9110  -10.5610   21.0330 C   0  0  0  0  0  0  0  0  0  0  0  0
  -24.3370   -9.5810   21.9570 C   0  0  0  0  0  3  0  0  0  0  0  0
  -23.6070   -8.3830   22.1180 C   0  0  0  0  0  3  0  0  0  0  0  0
  -22.4350   -8.1550   21.3570 C   0  0  0  0  0  0  0  0  0  0  0  0
  -22.0280   -9.1230   20.4200 C   0  0  0  0  0  3  0  0  0  0  0  0
  -22.7590  -10.3110   20.2570 C   0  0  0  0  0  3  0  0  0  0  0  0
  -21.6780   -7.0110   21.4300 O   0  0  0  0  0  0  0  0  0  0  0  0
  -21.6140   -6.2620   22.5780 C   0  0  0  0  0  0  0  0  0  0  0  0
  -21.1440   -6.8010   23.7950 C   0  0  0  0  0  3  0  0  0  0  0  0
  -21.0280   -5.9770   24.9330 C   0  0  0  0  0  3  0  0  0  0  0  0
  -21.3760   -4.6150   24.8550 C   0  0  0  0  0  0  0  0  0  0  0  0
  -21.8410   -4.0750   23.6420 C   0  0  0  0  0  3  0  0  0  0  0  0
  -21.9560   -4.8960   22.5070 C   0  0  0  0  0  0  0  0  0  0  0  0
  -22.3840   -4.3680   21.3360 F   0  0  0  0  0  0  0  0  0  0  0  0
  -21.2590   -3.8210   25.9440 F   0  0  0  0  0  0  0  0  0  0  0  0
  -22.7790  -13.6460   21.2070 C   0  0  0  0  0  0  0  0  0  0  0  0
  -22.0580  -12.9320   22.0620 N   0  0  0  0  0  0  0  0  0  0  0  0
  -22.3400  -14.6850   20.7130 O   0  0  0  0  0  0  0  0  0  0  0  0
  -22.4260  -12.0940   22.4890 H   0  0  0  0  0  0  0  0  0  0  0  0
  -21.1190  -13.2220   22.3000 H   0  0  0  0  0  0  0  0  0  0  0  0
  -25.3970  -15.3300   20.4010 N   0  0  0  0  0  0  0  0  0  0  0  0
  -24.6290  -15.9800   20.5280 H   0  0  0  0  0  0  0  0  0  0  0  0
  -26.2510  -15.7780   20.0970 H   0  0  0  0  0  0  0  0  0  0  0  0
  -28.7680  -21.8050   20.5700 C   0  0  0  0  0  2  0  0  0  0  0  0
  -29.1330  -23.4420   20.3150 C   0  0  0  0  0  3  0  0  0  0  0  0
  -28.0330  -24.7220   20.3570 C   0  0  0  0  0  3  0  0  0  0  0  0
  -28.3030  -26.2620   20.2930 O   0  0  0  0  0  0  0  0  0  0  0  0
  -24.6220  -31.9410   23.2490 C   0  0  0  0  0  0  0  0  0  0  0  0
  -27.2330  -27.2300   20.2340 C   0  0  0  0  0  0  0  0  0  0  0  0
  -23.4330  -30.5380   21.6080 C   0  0  0  0  0  3  0  0  0  0  0  0
  -24.8940  -28.9630   20.1890 C   0  0  0  0  0  0  0  0  0  0  0  0
  -25.9850  -30.8130   21.4480 C   0  0  0  0  0  2  0  0  0  0  0  0
  -26.0690  -29.4170   20.8010 C   0  0  0  0  0  0  0  0  0  0  0  0
  -27.2390  -28.5660   20.8070 C   0  0  0  0  0  3  0  0  0  0  0  0
  -26.0300  -26.8800   19.5820 C   0  0  0  0  0  3  0  0  0  0  0  0
  -24.8890  -27.7090   19.5650 C   0  0  0  0  0  3  0  0  0  0  0  0
  -23.6640  -29.8590   20.2300 C   0  0  0  0  0  2  0  0  0  0  0  0
  -24.7010  -31.1200   22.1570 N   0  0  0  0  0  0  0  0  0  0  0  0
  -23.5330  -32.2250   23.7710 O   0  0  0  0  0  0  0  0  0  0  0  0
  -22.7540  -29.5300   22.5700 C   0  0  0  0  0  0  0  0  0  0  0  0
  -21.4280  -29.3510   22.4370 N   0  0  0  0  0  0  0  0  0  0  0  0
  -23.4260  -28.9100   23.4000 O   0  0  0  0  0  0  0  0  0  0  0  0
  -20.9480  -29.9060   21.7420 H   0  0  0  0  0  0  0  0  0  0  0  0
  -18.0470  -28.1460   22.9390 C   0  0  0  0  0  0  0  0  0  0  0  0
  -20.6060  -28.4130   23.2070 C   0  0  0  0  0  3  0  0  0  0  0  0
  -20.7100  -26.9810   22.6350 C   0  0  0  0  0  2  0  0  0  0  0  0
  -19.6090  -26.6560   21.6210 C   0  0  0  0  0  2  0  0  0  0  0  0
  -18.2260  -26.7980   22.2610 C   0  0  0  0  0  2  0  0  0  0  0  0
  -19.1650  -28.9110   23.3690 C   0  0  0  0  0  0  0  0  0  0  0  0
  -18.9420  -30.1700   23.9690 C   0  0  0  0  0  3  0  0  0  0  0  0
  -17.6360  -30.6670   24.1370 C   0  0  0  0  0  3  0  0  0  0  0  0
  -16.5330  -29.9010   23.7180 C   0  0  0  0  0  3  0  0  0  0  0  0
  -16.7410  -28.6410   23.1280 C   0  0  0  0  0  3  0  0  0  0  0  0
  -25.8970  -32.5820   23.8770 C   0  0  0  0  0  3  0  0  0  0  0  0
  -26.4000  -31.8170   25.1620 C   0  0  1  0  0  0  0  0  0  0  0  0
  -25.2940  -31.5780   26.2180 C   0  0  0  0  0  1  0  0  0  0  0  0
  -26.9900  -30.4390   24.7830 C   0  0  0  0  0  1  0  0  0  0  0  0
  -27.5450  -32.6160   25.8290 C   0  0  0  0  0  1  0  0  0  0  0  0
  -25.5770  -33.9810   24.2040 N   0  0  0  0  0  0  0  0  0  0  0  0
  -25.8980  -35.0350   23.4430 C   0  0  0  0  0  0  0  0  0  0  0  0
  -26.5590  -34.9320   22.4070 O   0  0  0  0  0  0  0  0  0  0  0  0
  -24.9800  -34.1300   25.0060 H   0  0  0  0  0  0  0  0  0  0  0  0
  -24.1580  -36.8240   23.1090 C   0  0  0  0  0  1  0  0  0  0  0  0
  -25.4110  -36.4240   23.9030 C   0  0  0  0  0  3  0  0  0  0  0  0
  -27.5500  -37.3250   24.7060 C   0  0  0  0  0  1  0  0  0  0  0  0
  -26.4380  -37.4820   23.7720 N   0  0  0  0  0  0  0  0  0  0  0  0
  -26.0310  -38.4020   23.9130 H   0  0  0  0  0  0  0  0  0  0  0  0
  1  2  1  0
  2  6  2  0
  3  4  2  0
  4  6  1  0
  4  8  1  0
  5  1  2  0
  5  3  1  0
  6 46  1  0
  7  5  1  0
  9 10  1  0
  9  8  2  0
 11 16  1  0
 12 13  1  0
 12 11  1  0
 14 13  1  0
 14 21  1  0
 14 15  1  0
 16 10  1  0
 16 15  1  0
 17 10  2  0
 18 19  2  0
 19 38  1  0
 20 19  1  0
 20 23  1  0
 21 22  1  0
 21 18  1  0
 22 20  2  0
 23 24  1  0
 24 25  2  0
 26 29  1  0
 26 25  1  0
 27 26  2  0
 28 27  1  0
 28 23  2  0
 29 30  1  0
 30 31  1  0
 31 32  2  0
 33 32  1  0
 33 37  1  0
 34 33  2  0
 35 30  2  0
 35 34  1  0
 36 35  1  0
 38 39  1  0
 39 42  1  0
 39 41  1  0
 40 38  2  0
 43 44  1  0
 43 18  1  0
 45 43  1  0
 47 48  2  0
 47 46  1  0
 49 48  1  0
 50 61  2  0
 51 49  1  0
 51 56  1  0
 52 60  1  0
 52 62  1  0
 53 59  1  0
 53 55  1  0
 54 60  1  0
 55 56  2  0
 55 54  1  0
 57 51  2  0
 58 57  1  0
 58 53  2  0
 59 52  1  0
 60 50  1  0
 62 64  2  0
 63 62  1  0
 65 63  1  0
 66 75  2  0
 66 71  1  0
 67 63  1  0
 67 71  1  0
 68 67  1  0
 69 70  1  0
 69 68  1  0
 70 66  1  0
 71 72  2  0
 72 73  1  0
 74 73  2  0
 75 74  1  0
 76 50  1  0
 76 81  1  0
 76 77  1  0
 77 80  1  1
 77 78  1  0
 79 77  1  0
 81 84  1  0
 82 86  1  0
 82 81  1  0
 83 82  2  0
 86 85  1  0
 88 86  1  0
 88 89  1  0
 88 87  1  0
M  ISO  4   9 100  10 100  48 101  49 101
M  END
>  <TORSDO>  (62) 
F 20

>  <SCORE>  (62) 
-14.733

>  <name>  (62) 
61

>  <ligand_id>  (62) 
61

>  <original_smiles>  (62) 
[H]C(C(=O)N1C([H])([H])C([H])([H])C([H])([H])C([H])(n2nc(-c3c([H])c([H])c(Oc4c([H])c([H])c(F)c([H])c4F)c([H])c3[H])c(C(=O)N([H])[H])c2N([H])[H])C1([H])[H])=C([H])c1c([H])c(C([H])([H])[H])c([H])c([H])c1C([H])([H])C([H])([H])C([H])([H])Oc1c([H])c([H])c2c(c1[H])C([H])([H])N(C(=O)C([H])(N([H])C(=O)C([H])(N([H])C([H])([H])[H])C([H])([H])[H])C(C([H])([H])[H])(C([H])([H])[H])C([H])([H])[H])C([H])(C(=O)N([H])C1([H])c3c([H])c([H])c([H])c([H])c3C([H])([H])C([H])([H])C1([H])[H])C2([H])[H]

>  <smiles>  (62) 
[H]C(C(=O)N1C([H])([H])C([H])([H])C([H])([H])C([H])(n2nc(-c3c([H])c([H])c(Oc4c([H])c([H])c(F)c([H])c4F)c([H])c3[H])c(C(=O)N([H])[H])c2N([H])[H])C1([H])[H])=C([H])c1c([H])c(C([H])([H])[H])c([H])c([H])c1C([H])([H])C([H])([H])C([H])([H])Oc1c([H])c([H])c2c(c1[H])C([H])([H])N(C(=O)C([H])(N([H])C(=O)C([H])(N([H])C([H])([H])[H])C([H])([H])[H])C(C([H])([H])[H])(C([H])([H])[H])C([H])([H])[H])C([H])(C(=O)N([H])C1([H])c3c([H])c([H])c([H])c([H])c3C([H])([H])C([H])([H])C1([H])[H])C2([H])[H]

$$$$
62:0:0
     RDKit          3D

 92100  0  0  1  0  0  0  0  0999 V2000
  -28.1400  -18.9210   20.7450 C   0  0  0  0  0  3  0  0  0  0  0  0
  -28.6090  -17.5820   20.8220 C   0  0  0  0  0  3  0  0  0  0  0  0
  -30.2930  -19.6390   19.9880 C   0  0  0  0  0  3  0  0  0  0  0  0
  -28.9730  -20.0040   20.3680 C   0  0  0  0  0  0  0  0  0  0  0  0
  -29.9500  -17.2110   20.5380 C   0  0  0  0  0  0  0  0  0  0  0  0
  -30.7850  -18.2910   20.0930 C   0  0  0  0  0  0  0  0  0  0  0  0
  -32.2570  -18.0630   19.7930 C   0  0  0  0  0  1  0  0  0  0  0  0
  -30.3910  -15.7890   20.9550 C   0  0  0  0  0  0  0  0  0  0  0  0
  -30.3360  -15.5160   22.1940 N   0  0  0  0  0  0  0  0  0  0  0  0
  -29.9990  -16.3140   22.7200 H   0  0  0  0  0  0  0  0  0  0  0  0
  -30.9050  -14.7010   19.9420 C   0  0  0  0  0  0  0  0  0  0  0  0
  -30.5750  -12.5110   18.7950 C   0  0  0  0  0  2  0  0  0  0  0  0
  -29.5420  -12.6680   17.6570 C   0  0  0  0  0  2  0  0  0  0  0  0
  -28.1050  -12.4950   18.1840 C   0  0  0  0  0  2  0  0  0  0  0  0
  -27.8460  -13.3200   19.4710 C   0  0  0  0  0  3  0  0  0  0  0  0
  -28.9780  -13.1090   20.4990 C   0  0  0  0  0  2  0  0  0  0  0  0
  -30.2510  -13.4910   19.8580 N   0  0  0  0  0  0  0  0  0  0  0  0
  -31.9250  -14.9160   19.2770 O   0  0  0  0  0  0  0  0  0  0  0  0
  -25.5220  -13.9100   20.3950 C   0  0  0  0  0  0  0  0  0  0  0  0
  -24.4810  -13.1310   20.8230 C   0  0  0  0  0  0  0  0  0  0  0  0
  -24.9250  -11.7790   20.7050 C   0  0  0  0  0  0  0  0  0  0  0  0
  -26.5350  -13.0320   20.0460 N   0  0  0  0  0  0  0  0  0  0  0  0
  -26.1860  -11.7430   20.2880 N   0  0  0  0  0  0  0  0  0  0  0  0
  -24.2040  -10.5150   20.9070 C   0  0  0  0  0  0  0  0  0  0  0  0
  -24.6470   -9.5530   21.8400 C   0  0  0  0  0  3  0  0  0  0  0  0
  -23.9260   -8.3550   22.0300 C   0  0  0  0  0  3  0  0  0  0  0  0
  -22.7480   -8.1090   21.2840 C   0  0  0  0  0  0  0  0  0  0  0  0
  -22.3240   -9.0610   20.3390 C   0  0  0  0  0  3  0  0  0  0  0  0
  -23.0460  -10.2500   20.1480 C   0  0  0  0  0  3  0  0  0  0  0  0
  -21.9970   -6.9630   21.3830 O   0  0  0  0  0  0  0  0  0  0  0  0
  -21.8800   -6.2780   22.5650 C   0  0  0  0  0  0  0  0  0  0  0  0
  -21.3670   -6.8870   23.7310 C   0  0  0  0  0  3  0  0  0  0  0  0
  -21.1990   -6.1270   24.9070 C   0  0  0  0  0  3  0  0  0  0  0  0
  -21.5340   -4.7600   24.9150 C   0  0  0  0  0  0  0  0  0  0  0  0
  -22.0400   -4.1500   23.7540 C   0  0  0  0  0  3  0  0  0  0  0  0
  -22.2090   -4.9070   22.5810 C   0  0  0  0  0  0  0  0  0  0  0  0
  -22.6770   -4.3100   21.4590 F   0  0  0  0  0  0  0  0  0  0  0  0
  -21.3660   -4.0290   26.0420 F   0  0  0  0  0  0  0  0  0  0  0  0
  -23.1150  -13.6080   21.2250 C   0  0  0  0  0  0  0  0  0  0  0  0
  -22.4600  -12.8940   22.1350 N   0  0  0  0  0  0  0  0  0  0  0  0
  -22.6380  -14.6460   20.7680 O   0  0  0  0  0  0  0  0  0  0  0  0
  -22.8590  -12.0520   22.5250 H   0  0  0  0  0  0  0  0  0  0  0  0
  -21.5470  -13.1930   22.4470 H   0  0  0  0  0  0  0  0  0  0  0  0
  -25.6840  -15.2850   20.2530 N   0  0  0  0  0  0  0  0  0  0  0  0
  -24.9340  -15.9400   20.4440 H   0  0  0  0  0  0  0  0  0  0  0  0
  -26.4930  -15.7220   19.8310 H   0  0  0  0  0  0  0  0  0  0  0  0
  -28.4130  -21.4210   20.4430 C   0  0  0  0  0  3  0  0  0  0  0  0
  -28.8200  -22.6230   19.9180 C   0  0  0  0  0  3  0  0  0  0  0  0
  -28.1230  -23.9500   20.2180 C   0  0  0  0  0  0  0  0  0  0  0  0
  -27.3570  -24.0600   21.1830 O   0  0  0  0  0  0  0  0  0  0  0  0
  -28.3360  -25.2210   19.3070 C   0  0  0  0  0  2  0  0  0  0  0  0
  -28.2370  -26.5430   19.9650 O   0  0  0  0  0  0  0  0  0  0  0  0
  -24.5820  -31.8420   23.1560 C   0  0  0  0  0  0  0  0  0  0  0  0
  -27.0810  -27.3300   19.9500 C   0  0  0  0  0  0  0  0  0  0  0  0
  -23.3120  -30.4540   21.5540 C   0  0  0  0  0  3  0  0  0  0  0  0
  -24.7050  -28.9160   20.0560 C   0  0  0  0  0  0  0  0  0  0  0  0
  -25.8380  -30.7850   21.2670 C   0  0  0  0  0  2  0  0  0  0  0  0
  -25.8930  -29.4120   20.6060 C   0  0  0  0  0  0  0  0  0  0  0  0
  -27.0790  -28.6290   20.5440 C   0  0  0  0  0  3  0  0  0  0  0  0
  -25.8660  -26.8730   19.3920 C   0  0  0  0  0  3  0  0  0  0  0  0
  -24.6920  -27.6510   19.4440 C   0  0  0  0  0  3  0  0  0  0  0  0
  -23.4690  -29.7860   20.1610 C   0  0  0  0  0  2  0  0  0  0  0  0
  -24.5980  -31.0440   22.0470 N   0  0  0  0  0  0  0  0  0  0  0  0
  -23.5200  -32.1110   23.7380 O   0  0  0  0  0  0  0  0  0  0  0  0
  -22.6930  -29.4290   22.5330 C   0  0  0  0  0  0  0  0  0  0  0  0
  -21.3690  -29.2230   22.4340 N   0  0  0  0  0  0  0  0  0  0  0  0
  -23.4020  -28.8210   23.3390 O   0  0  0  0  0  0  0  0  0  0  0  0
  -20.8550  -29.7650   21.7530 H   0  0  0  0  0  0  0  0  0  0  0  0
  -18.0330  -27.9440   22.9880 C   0  0  0  0  0  0  0  0  0  0  0  0
  -20.5860  -28.2750   23.2260 C   0  0  0  0  0  3  0  0  0  0  0  0
  -20.7210  -26.8390   22.6660 C   0  0  0  0  0  2  0  0  0  0  0  0
  -19.6160  -26.4750   21.6700 C   0  0  0  0  0  2  0  0  0  0  0  0
  -18.2370  -26.5910   22.3250 C   0  0  0  0  0  2  0  0  0  0  0  0
  -19.1340  -28.7400   23.3950 C   0  0  0  0  0  0  0  0  0  0  0  0
  -18.8870  -30.0050   23.9730 C   0  0  0  0  0  3  0  0  0  0  0  0
  -17.5710  -30.4740   24.1460 C   0  0  0  0  0  3  0  0  0  0  0  0
  -16.4840  -29.6730   23.7570 C   0  0  0  0  0  3  0  0  0  0  0  0
  -16.7150  -28.4100   23.1820 C   0  0  0  0  0  3  0  0  0  0  0  0
  -25.8890  -32.4700   23.7300 C   0  0  0  0  0  3  0  0  0  0  0  0
  -26.4710  -31.6770   24.9640 C   0  0  1  0  0  0  0  0  0  0  0  0
  -25.4310  -31.4030   26.0750 C   0  0  0  0  0  1  0  0  0  0  0  0
  -27.0500  -30.3140   24.5150 C   0  0  0  0  0  1  0  0  0  0  0  0
  -27.6420  -32.4690   25.5890 C   0  0  0  0  0  1  0  0  0  0  0  0
  -25.5880  -33.8580   24.1050 N   0  0  0  0  0  0  0  0  0  0  0  0
  -25.8860  -34.9300   23.3600 C   0  0  0  0  0  0  0  0  0  0  0  0
  -26.5150  -34.8550   22.3020 O   0  0  0  0  0  0  0  0  0  0  0  0
  -25.0290  -33.9890   24.9350 H   0  0  0  0  0  0  0  0  0  0  0  0
  -24.1460  -36.7290   23.1060 C   0  0  0  0  0  1  0  0  0  0  0  0
  -25.4110  -36.3050   23.8690 C   0  0  0  0  0  3  0  0  0  0  0  0
  -27.5660  -37.1730   24.6630 C   0  0  0  0  0  1  0  0  0  0  0  0
  -26.4380  -37.3630   23.7560 N   0  0  0  0  0  0  0  0  0  0  0  0
  -26.0360  -38.2780   23.9400 H   0  0  0  0  0  0  0  0  0  0  0  0
  1  2  1  0
  3  6  2  0
  3  4  1  0
  4 47  1  0
  4  1  2  0
  5  2  2  0
  5  8  1  0
  6  5  1  0
  7  6  1  0
  8  9  2  0
  9 10  1  0
 11  8  1  0
 12 17  1  0
 13 14  1  0
 13 12  1  0
 15 14  1  0
 15 22  1  0
 15 16  1  0
 17 11  1  0
 17 16  1  0
 18 11  2  0
 19 20  2  0
 20 39  1  0
 21 20  1  0
 21 24  1  0
 22 23  1  0
 22 19  1  0
 23 21  2  0
 24 25  1  0
 25 26  2  0
 27 30  1  0
 27 26  1  0
 28 27  2  0
 29 28  1  0
 29 24  2  0
 30 31  1  0
 31 36  2  0
 31 32  1  0
 32 33  2  0
 33 34  1  0
 34 38  1  0
 35 34  2  0
 36 35  1  0
 37 36  1  0
 39 40  1  0
 40 43  1  0
 40 42  1  0
 41 39  2  0
 44 19  1  0
 44 45  1  0
 46 44  1  0
 48 49  1  0
 48 47  2  0
 49 50  2  0
 51 52  1  0
 51 49  1  0
 53 64  2  0
 54 52  1  0
 54 59  1  0
 55 63  1  0
 55 65  1  0
 56 62  1  0
 56 58  1  0
 57 63  1  0
 58 57  1  0
 59 58  2  0
 60 61  1  0
 60 54  2  0
 61 56  2  0
 62 55  1  0
 63 53  1  0
 65 67  2  0
 66 65  1  0
 68 66  1  0
 69 78  2  0
 69 74  1  0
 70 66  1  0
 70 74  1  0
 71 70  1  0
 72 73  1  0
 72 71  1  0
 73 69  1  0
 74 75  2  0
 75 76  1  0
 77 76  2  0
 78 77  1  0
 79 53  1  0
 79 84  1  0
 79 80  1  0
 80 83  1  1
 80 81  1  0
 82 80  1  0
 84 87  1  0
 85 89  1  0
 85 84  1  0
 86 85  2  0
 89 88  1  0
 91 89  1  0
 91 92  1  0
 91 90  1  0
M  ISO  4   8 100  11 100  51 101  52 101
M  END
>  <TORSDO>  (63) 
F 20

>  <SCORE>  (63) 
-13.108

>  <name>  (63) 
62

>  <ligand_id>  (63) 
62

>  <original_smiles>  (63) 
[H]N=C(C(=O)N1C([H])([H])C([H])([H])C([H])([H])C([H])(n2nc(-c3c([H])c([H])c(Oc4c([H])c([H])c(F)c([H])c4F)c([H])c3[H])c(C(=O)N([H])[H])c2N([H])[H])C1([H])[H])c1c([H])c([H])c(C([H])=C([H])C(=O)C([H])([H])Oc2c([H])c([H])c3c(c2[H])C([H])([H])N(C(=O)C([H])(N([H])C(=O)C([H])(N([H])C([H])([H])[H])C([H])([H])[H])C(C([H])([H])[H])(C([H])([H])[H])C([H])([H])[H])C([H])(C(=O)N([H])C2([H])c4c([H])c([H])c([H])c([H])c4C([H])([H])C([H])([H])C2([H])[H])C3([H])[H])c([H])c1C([H])([H])[H]

>  <smiles>  (63) 
[H]N=C(C(=O)N1C([H])([H])C([H])([H])C([H])([H])C([H])(n2nc(-c3c([H])c([H])c(Oc4c([H])c([H])c(F)c([H])c4F)c([H])c3[H])c(C(=O)N([H])[H])c2N([H])[H])C1([H])[H])c1c([H])c([H])c(C([H])=C([H])C(=O)C([H])([H])Oc2c([H])c([H])c3c(c2[H])C([H])([H])N(C(=O)C([H])(N([H])C(=O)C([H])(N([H])C([H])([H])[H])C([H])([H])[H])C(C([H])([H])[H])(C([H])([H])[H])C([H])([H])[H])C([H])(C(=O)N([H])C2([H])c4c([H])c([H])c([H])c([H])c4C([H])([H])C([H])([H])C2([H])[H])C3([H])[H])c([H])c1C([H])([H])[H]

$$$$
63:0:0
     RDKit          3D

 90 98  0  0  1  0  0  0  0  0999 V2000
  -29.6600  -18.9380   21.6310 C   0  0  0  0  0  3  0  0  0  0  0  0
  -29.3860  -20.2010   22.1930 C   0  0  0  0  0  3  0  0  0  0  0  0
  -29.9660  -18.7810   20.2610 C   0  0  0  0  0  0  0  0  0  0  0  0
  -29.8980  -20.0020   19.4510 C   0  0  0  0  0  0  0  0  0  0  0  0
  -29.6200  -21.3240   20.0260 C   0  0  0  0  0  0  0  0  0  0  0  0
  -29.3810  -21.3680   21.4140 C   0  0  0  0  0  0  0  0  0  0  0  0
  -30.1530  -19.8780   17.9540 C   0  0  0  0  0  1  0  0  0  0  0  0
  -29.1760  -22.5610   22.0240 F   0  0  0  0  0  0  0  0  0  0  0  0
  -30.4030  -17.3700   19.7920 C   0  0  0  0  0  3  0  0  0  0  0  0
  -30.3310  -16.1340   20.4190 C   0  0  0  0  0  3  0  0  0  0  0  0
  -30.9980  -14.8880   19.9000 C   0  0  0  0  0  0  0  0  0  0  0  0
  -30.6670  -12.6140   18.9310 C   0  0  0  0  0  2  0  0  0  0  0  0
  -29.6950  -12.7660   17.7410 C   0  0  0  0  0  2  0  0  0  0  0  0
  -28.2330  -12.6680   18.2160 C   0  0  0  0  0  2  0  0  0  0  0  0
  -27.9500  -13.5200   19.4850 C   0  0  0  0  0  3  0  0  0  0  0  0
  -29.0550  -13.3670   20.5550 C   0  0  0  0  0  2  0  0  0  0  0  0
  -30.3390  -13.6760   19.9120 N   0  0  0  0  0  0  0  0  0  0  0  0
  -32.1220  -14.9440   19.3930 O   0  0  0  0  0  0  0  0  0  0  0  0
  -25.6030  -14.1530   20.3060 C   0  0  0  0  0  0  0  0  0  0  0  0
  -24.5360  -13.4000   20.7160 C   0  0  0  0  0  0  0  0  0  0  0  0
  -24.9640  -12.0390   20.6570 C   0  0  0  0  0  0  0  0  0  0  0  0
  -26.6190  -13.2550   20.0240 N   0  0  0  0  0  0  0  0  0  0  0  0
  -26.2430  -11.9770   20.2910 N   0  0  0  0  0  0  0  0  0  0  0  0
  -24.2130  -10.7940   20.8670 C   0  0  0  0  0  0  0  0  0  0  0  0
  -24.6340   -9.8260   21.8060 C   0  0  0  0  0  3  0  0  0  0  0  0
  -23.8800   -8.6490   22.0080 C   0  0  0  0  0  3  0  0  0  0  0  0
  -22.6920   -8.4310   21.2720 C   0  0  0  0  0  0  0  0  0  0  0  0
  -22.2880   -9.3870   20.3230 C   0  0  0  0  0  3  0  0  0  0  0  0
  -23.0420  -10.5540   20.1180 C   0  0  0  0  0  3  0  0  0  0  0  0
  -21.9120   -7.3040   21.3800 O   0  0  0  0  0  0  0  0  0  0  0  0
  -21.8430   -6.5830   22.5460 C   0  0  0  0  0  0  0  0  0  0  0  0
  -21.3890   -7.1610   23.7510 C   0  0  0  0  0  3  0  0  0  0  0  0
  -21.2690   -6.3700   24.9110 C   0  0  0  0  0  3  0  0  0  0  0  0
  -21.5940   -5.0000   24.8660 C   0  0  0  0  0  0  0  0  0  0  0  0
  -22.0410   -4.4210   23.6650 C   0  0  0  0  0  3  0  0  0  0  0  0
  -22.1640   -5.2110   22.5080 C   0  0  0  0  0  0  0  0  0  0  0  0
  -22.5750   -4.6430   21.3470 F   0  0  0  0  0  0  0  0  0  0  0  0
  -21.4710   -4.2370   25.9770 F   0  0  0  0  0  0  0  0  0  0  0  0
  -23.1640  -13.9120   21.0520 C   0  0  0  0  0  0  0  0  0  0  0  0
  -22.4650  -13.2370   21.9560 N   0  0  0  0  0  0  0  0  0  0  0  0
  -22.7260  -14.9450   20.5460 O   0  0  0  0  0  0  0  0  0  0  0  0
  -22.8320  -12.4020   22.3860 H   0  0  0  0  0  0  0  0  0  0  0  0
  -21.5500  -13.5670   22.2310 H   0  0  0  0  0  0  0  0  0  0  0  0
  -25.7860  -15.5210   20.1340 N   0  0  0  0  0  0  0  0  0  0  0  0
  -25.0320  -16.1850   20.2820 H   0  0  0  0  0  0  0  0  0  0  0  0
  -26.6290  -15.9540   19.7780 H   0  0  0  0  0  0  0  0  0  0  0  0
  -29.7300  -22.7380   19.2940 C   0  0  0  0  0  2  0  0  0  0  0  0
  -28.5870  -23.8890   19.4080 C   0  0  0  0  0  2  0  0  0  0  0  0
  -28.8560  -25.2950   20.1710 C   0  0  0  0  0  2  0  0  0  0  0  0
  -28.6910  -26.6650   19.6010 O   0  0  0  0  0  0  0  0  0  0  0  0
  -24.7330  -31.6670   23.1160 C   0  0  0  0  0  0  0  0  0  0  0  0
  -27.5110  -27.4150   19.7440 C   0  0  0  0  0  0  0  0  0  0  0  0
  -23.5720  -30.3180   21.4010 C   0  0  0  0  0  3  0  0  0  0  0  0
  -25.0710  -28.9120   19.8720 C   0  0  0  0  0  0  0  0  0  0  0  0
  -26.0920  -30.7600   21.2120 C   0  0  0  0  0  2  0  0  0  0  0  0
  -26.2250  -29.4230   20.4820 C   0  0  0  0  0  0  0  0  0  0  0  0
  -27.4510  -28.6880   20.3980 C   0  0  0  0  0  3  0  0  0  0  0  0
  -26.3330  -26.9470   19.1340 C   0  0  0  0  0  3  0  0  0  0  0  0
  -25.1300  -27.6860   19.1890 C   0  0  0  0  0  3  0  0  0  0  0  0
  -23.7970  -29.7290   19.9830 C   0  0  0  0  0  2  0  0  0  0  0  0
  -24.8180  -30.9320   21.9660 N   0  0  0  0  0  0  0  0  0  0  0  0
  -23.6440  -31.8600   23.6810 O   0  0  0  0  0  0  0  0  0  0  0  0
  -22.9740  -29.2140   22.3040 C   0  0  0  0  0  0  0  0  0  0  0  0
  -21.6570  -28.9740   22.1780 N   0  0  0  0  0  0  0  0  0  0  0  0
  -23.6920  -28.5780   23.0770 O   0  0  0  0  0  0  0  0  0  0  0  0
  -21.1310  -29.5510   21.5380 H   0  0  0  0  0  0  0  0  0  0  0  0
  -18.3510  -27.5720   22.6350 C   0  0  0  0  0  0  0  0  0  0  0  0
  -20.8960  -27.9470   22.8920 C   0  0  0  0  0  3  0  0  0  0  0  0
  -21.0620  -26.5570   22.2420 C   0  0  0  0  0  2  0  0  0  0  0  0
  -19.9650  -26.2260   21.2200 C   0  0  0  0  0  2  0  0  0  0  0  0
  -18.5890  -26.2700   21.8880 C   0  0  0  0  0  2  0  0  0  0  0  0
  -19.4350  -28.3670   23.0920 C   0  0  0  0  0  0  0  0  0  0  0  0
  -19.1620  -29.5800   23.7600 C   0  0  0  0  0  3  0  0  0  0  0  0
  -17.8350  -30.0020   23.9670 C   0  0  0  0  0  3  0  0  0  0  0  0
  -16.7650  -29.2040   23.5300 C   0  0  0  0  0  3  0  0  0  0  0  0
  -17.0260  -27.9880   22.8760 C   0  0  0  0  0  3  0  0  0  0  0  0
  -25.9930  -32.3160   23.7650 C   0  0  0  0  0  3  0  0  0  0  0  0
  -26.5280  -31.5270   25.0240 C   0  0  1  0  0  0  0  0  0  0  0  0
  -25.4370  -31.2290   26.0800 C   0  0  0  0  0  1  0  0  0  0  0  0
  -27.1510  -30.1770   24.6010 C   0  0  0  0  0  1  0  0  0  0  0  0
  -27.6510  -32.3360   25.7120 C   0  0  0  0  0  1  0  0  0  0  0  0
  -25.6380  -33.6960   24.1330 N   0  0  0  0  0  0  0  0  0  0  0  0
  -25.9480  -34.7810   23.4130 C   0  0  0  0  0  0  0  0  0  0  0  0
  -26.6350  -34.7280   22.3870 O   0  0  0  0  0  0  0  0  0  0  0  0
  -25.0260  -33.8110   24.9270 H   0  0  0  0  0  0  0  0  0  0  0  0
  -24.1720  -36.5350   23.0950 C   0  0  0  0  0  1  0  0  0  0  0  0
  -25.4160  -36.1390   23.9090 C   0  0  0  0  0  3  0  0  0  0  0  0
  -27.5100  -37.0630   24.8010 C   0  0  0  0  0  1  0  0  0  0  0  0
  -26.4180  -37.2240   23.8400 N   0  0  0  0  0  0  0  0  0  0  0  0
  -25.9850  -38.1300   23.9940 H   0  0  0  0  0  0  0  0  0  0  0  0
  1  2  1  0
  3  1  2  0
  4  5  2  0
  4  3  1  0
  5  6  1  0
  6  8  1  0
  6  2  2  0
  7  4  1  0
  9  3  1  0
  9 10  2  0
 11 17  1  0
 11 10  1  0
 12 17  1  0
 13 14  1  0
 13 12  1  0
 15 14  1  0
 15 22  1  0
 15 16  1  0
 17 16  1  0
 18 11  2  0
 19 20  2  0
 20 39  1  0
 21 20  1  0
 21 24  1  0
 22 23  1  0
 22 19  1  0
 23 21  2  0
 24 25  1  0
 25 26  2  0
 27 30  1  0
 27 26  1  0
 28 27  2  0
 29 28  1  0
 29 24  2  0
 30 31  1  0
 31 32  1  0
 32 33  2  0
 34 33  1  0
 34 38  1  0
 35 34  2  0
 36 31  2  0
 36 35  1  0
 37 36  1  0
 39 40  1  0
 40 43  1  0
 40 42  1  0
 41 39  2  0
 44 45  1  0
 44 19  1  0
 46 44  1  0
 47 48  1  0
 47  5  1  0
 48 49  1  0
 50 52  1  0
 50 49  1  0
 51 62  2  0
 52 57  1  0
 53 61  1  0
 53 63  1  0
 54 60  1  0
 54 56  1  0
 55 61  1  0
 56 55  1  0
 57 56  2  0
 58 59  1  0
 58 52  2  0
 59 54  2  0
 60 53  1  0
 61 51  1  0
 63 65  2  0
 64 63  1  0
 66 64  1  0
 67 76  2  0
 67 72  1  0
 68 64  1  0
 68 72  1  0
 69 68  1  0
 70 71  1  0
 70 69  1  0
 71 67  1  0
 72 73  2  0
 73 74  1  0
 75 74  2  0
 76 75  1  0
 77 51  1  0
 77 82  1  0
 77 78  1  0
 78 81  1  1
 78 79  1  0
 80 78  1  0
 82 85  1  0
 83 87  1  0
 83 82  1  0
 84 83  2  0
 87 86  1  0
 89 87  1  0
 89 90  1  0
 89 88  1  0
M  ISO  4  10 100  11 100  49 101  50 101
M  END
>  <TORSDO>  (64) 
F 20

>  <SCORE>  (64) 
-11.664

>  <name>  (64) 
63

>  <ligand_id>  (64) 
63

>  <original_smiles>  (64) 
[H]C(C(=O)N1C([H])([H])C([H])([H])C([H])([H])C([H])(n2nc(-c3c([H])c([H])c(Oc4c([H])c([H])c(F)c([H])c4F)c([H])c3[H])c(C(=O)N([H])[H])c2N([H])[H])C1([H])[H])=C([H])c1c([H])c([H])c(F)c(C([H])([H])C([H])([H])C([H])([H])Oc2c([H])c([H])c3c(c2[H])C([H])([H])N(C(=O)C([H])(N([H])C(=O)C([H])(N([H])C([H])([H])[H])C([H])([H])[H])C(C([H])([H])[H])(C([H])([H])[H])C([H])([H])[H])C([H])(C(=O)N([H])C2([H])c4c([H])c([H])c([H])c([H])c4C([H])([H])C([H])([H])C2([H])[H])C3([H])[H])c1C([H])([H])[H]

>  <smiles>  (64) 
[H]C(C(=O)N1C([H])([H])C([H])([H])C([H])([H])C([H])(n2nc(-c3c([H])c([H])c(Oc4c([H])c([H])c(F)c([H])c4F)c([H])c3[H])c(C(=O)N([H])[H])c2N([H])[H])C1([H])[H])=C([H])c1c([H])c([H])c(F)c(C([H])([H])C([H])([H])C([H])([H])Oc2c([H])c([H])c3c(c2[H])C([H])([H])N(C(=O)C([H])(N([H])C(=O)C([H])(N([H])C([H])([H])[H])C([H])([H])[H])C(C([H])([H])[H])(C([H])([H])[H])C([H])([H])[H])C([H])(C(=O)N([H])C2([H])c4c([H])c([H])c([H])c([H])c4C([H])([H])C([H])([H])C2([H])[H])C3([H])[H])c1C([H])([H])[H]

$$$$
64:0:0
     RDKit          3D

 89 97  0  0  1  0  0  0  0  0999 V2000
  -31.6920  -19.1360   20.8590 C   0  0  0  0  0  2  0  0  0  0  0  0
  -32.0300  -20.4920   20.9860 C   0  0  0  0  0  3  0  0  0  0  0  0
  -29.3580  -19.7680   20.6490 C   0  0  0  0  0  3  0  0  0  0  0  0
  -30.3560  -18.7090   20.7430 C   0  0  0  0  0  0  0  0  0  0  0  0
  -29.6860  -21.1860   20.7410 C   0  0  0  0  0  0  0  0  0  0  0  0
  -31.0520  -21.5000   20.9780 C   0  0  0  0  0  0  0  0  0  0  0  0
  -31.6550  -23.2540   21.4230 Br  0  0  0  0  0  0  0  0  0  0  0  0
  -30.2620  -17.1720   20.7670 C   0  0  0  0  0  0  0  0  0  0  0  0
  -29.7530  -15.8850   20.8760 C   0  0  0  0  0  3  0  0  0  0  0  0
  -30.6000  -14.6650   20.6350 C   0  0  0  0  0  0  0  0  0  0  0  0
  -30.4550  -12.3860   19.6370 C   0  0  0  0  0  2  0  0  0  0  0  0
  -29.5690  -12.4650   18.3730 C   0  0  0  0  0  2  0  0  0  0  0  0
  -28.0810  -12.2890   18.7360 C   0  0  0  0  0  2  0  0  0  0  0  0
  -27.6520  -13.1750   19.9350 C   0  0  0  0  0  3  0  0  0  0  0  0
  -28.6620  -13.0740   21.0990 C   0  0  0  0  0  2  0  0  0  0  0  0
  -29.9860  -13.4330   20.5720 N   0  0  0  0  0  0  0  0  0  0  0  0
  -31.7940  -14.7550   20.3330 O   0  0  0  0  0  0  0  0  0  0  0  0
  -25.2270  -13.7540   20.5480 C   0  0  0  0  0  0  0  0  0  0  0  0
  -24.1550  -12.9750   20.8840 C   0  0  0  0  0  0  0  0  0  0  0  0
  -24.6330  -11.6280   20.8930 C   0  0  0  0  0  0  0  0  0  0  0  0
  -26.2890  -12.8830   20.3700 N   0  0  0  0  0  0  0  0  0  0  0  0
  -25.9360  -11.6000   20.6400 N   0  0  0  0  0  0  0  0  0  0  0  0
  -23.9130  -10.3600   21.0710 C   0  0  0  0  0  0  0  0  0  0  0  0
  -24.3160   -9.4100   22.0350 C   0  0  0  0  0  3  0  0  0  0  0  0
  -23.5960   -8.2070   22.1990 C   0  0  0  0  0  3  0  0  0  0  0  0
  -22.4580   -7.9470   21.4000 C   0  0  0  0  0  0  0  0  0  0  0  0
  -22.0740   -8.8860   20.4260 C   0  0  0  0  0  3  0  0  0  0  0  0
  -22.7950  -10.0800   20.2600 C   0  0  0  0  0  3  0  0  0  0  0  0
  -21.7120   -6.7950   21.4710 O   0  0  0  0  0  0  0  0  0  0  0  0
  -21.6200   -6.0680   22.6320 C   0  0  0  0  0  0  0  0  0  0  0  0
  -21.1140   -6.6300   23.8240 C   0  0  0  0  0  3  0  0  0  0  0  0
  -20.9720   -5.8290   24.9740 C   0  0  0  0  0  3  0  0  0  0  0  0
  -21.3250   -4.4660   24.9320 C   0  0  0  0  0  0  0  0  0  0  0  0
  -21.8220   -3.9040   23.7440 C   0  0  0  0  0  3  0  0  0  0  0  0
  -21.9660   -4.7020   22.5960 C   0  0  0  0  0  0  0  0  0  0  0  0
  -22.4270   -4.1510   21.4480 F   0  0  0  0  0  0  0  0  0  0  0  0
  -21.1800   -3.6940   26.0340 F   0  0  0  0  0  0  0  0  0  0  0  0
  -22.7430  -13.4390   21.0880 C   0  0  0  0  0  0  0  0  0  0  0  0
  -21.9860  -12.7510   21.9350 N   0  0  0  0  0  0  0  0  0  0  0  0
  -22.3160  -14.4500   20.5300 O   0  0  0  0  0  0  0  0  0  0  0  0
  -22.3430  -11.9350   22.4100 H   0  0  0  0  0  0  0  0  0  0  0  0
  -21.0360  -13.0450   22.1130 H   0  0  0  0  0  0  0  0  0  0  0  0
  -25.3850  -15.1250   20.3560 N   0  0  0  0  0  0  0  0  0  0  0  0
  -24.6060  -15.7710   20.4240 H   0  0  0  0  0  0  0  0  0  0  0  0
  -26.2390  -15.5670   20.0440 H   0  0  0  0  0  0  0  0  0  0  0  0
  -28.5990  -22.3430   20.7850 C   0  0  0  0  0  2  0  0  0  0  0  0
  -28.7360  -23.7340   19.9730 C   0  0  0  0  0  3  0  0  0  0  0  0
  -27.9240  -24.9960   20.5360 C   0  0  0  0  0  3  0  0  0  0  0  0
  -28.1410  -26.3700   20.0020 O   0  0  0  0  0  0  0  0  0  0  0  0
  -24.5480  -31.7950   23.1710 C   0  0  0  0  0  0  0  0  0  0  0  0
  -27.0460  -27.2480   20.0120 C   0  0  0  0  0  0  0  0  0  0  0  0
  -23.2990  -30.4380   21.5300 C   0  0  0  0  0  3  0  0  0  0  0  0
  -24.7050  -28.8910   20.0560 C   0  0  0  0  0  0  0  0  0  0  0  0
  -25.8390  -30.7280   21.3090 C   0  0  0  0  0  2  0  0  0  0  0  0
  -25.8910  -29.3570   20.6410 C   0  0  0  0  0  0  0  0  0  0  0  0
  -27.0670  -28.5480   20.6060 C   0  0  0  0  0  3  0  0  0  0  0  0
  -25.8430  -26.8410   19.3960 C   0  0  0  0  0  3  0  0  0  0  0  0
  -24.6840  -27.6390   19.4230 C   0  0  0  0  0  3  0  0  0  0  0  0
  -23.4820  -29.7810   20.1360 C   0  0  0  0  0  2  0  0  0  0  0  0
  -24.5820  -31.0040   22.0590 N   0  0  0  0  0  0  0  0  0  0  0  0
  -23.4770  -32.0780   23.7280 O   0  0  0  0  0  0  0  0  0  0  0  0
  -22.6390  -29.4150   22.4860 C   0  0  0  0  0  0  0  0  0  0  0  0
  -21.3090  -29.2560   22.3760 N   0  0  0  0  0  0  0  0  0  0  0  0
  -23.3230  -28.7690   23.2840 O   0  0  0  0  0  0  0  0  0  0  0  0
  -20.8170  -29.8300   21.7060 H   0  0  0  0  0  0  0  0  0  0  0  0
  -17.9240  -28.0960   22.9110 C   0  0  0  0  0  0  0  0  0  0  0  0
  -20.4890  -28.3180   23.1460 C   0  0  0  0  0  3  0  0  0  0  0  0
  -20.5640  -26.8940   22.5490 C   0  0  0  0  0  2  0  0  0  0  0  0
  -19.4440  -26.6000   21.5470 C   0  0  0  0  0  2  0  0  0  0  0  0
  -18.0740  -26.7540   22.2130 C   0  0  0  0  0  2  0  0  0  0  0  0
  -19.0600  -28.8380   23.3340 C   0  0  0  0  0  0  0  0  0  0  0  0
  -18.8660  -30.0940   23.9480 C   0  0  0  0  0  3  0  0  0  0  0  0
  -17.5700  -30.6090   24.1410 C   0  0  0  0  0  3  0  0  0  0  0  0
  -16.4500  -29.8640   23.7330 C   0  0  0  0  0  3  0  0  0  0  0  0
  -16.6280  -28.6100   23.1230 C   0  0  0  0  0  3  0  0  0  0  0  0
  -25.8490  -32.4020   23.7820 C   0  0  0  0  0  3  0  0  0  0  0  0
  -26.3730  -31.6080   25.0410 C   0  0  1  0  0  0  0  0  0  0  0  0
  -25.2920  -31.3750   26.1240 C   0  0  0  0  0  1  0  0  0  0  0  0
  -26.9290  -30.2260   24.6260 C   0  0  0  0  0  1  0  0  0  0  0  0
  -27.5450  -32.3760   25.6950 C   0  0  0  0  0  1  0  0  0  0  0  0
  -25.5650  -33.8000   24.1340 N   0  0  0  0  0  0  0  0  0  0  0  0
  -25.9090  -34.8590   23.3890 C   0  0  0  0  0  0  0  0  0  0  0  0
  -26.5690  -34.7600   22.3510 O   0  0  0  0  0  0  0  0  0  0  0  0
  -24.9790  -33.9520   24.9410 H   0  0  0  0  0  0  0  0  0  0  0  0
  -24.2200  -36.6950   23.0640 C   0  0  0  0  0  1  0  0  0  0  0  0
  -25.4490  -36.2480   23.8710 C   0  0  0  0  0  3  0  0  0  0  0  0
  -27.5960  -37.0760   24.7290 C   0  0  0  0  0  1  0  0  0  0  0  0
  -26.5040  -37.2820   23.7820 N   0  0  0  0  0  0  0  0  0  0  0  0
  -26.1160  -38.2070   23.9420 H   0  0  0  0  0  0  0  0  0  0  0  0
  1  2  1  0
  3  5  2  0
  3  4  1  0
  4  8  2  0
  4  1  1  0
  5 46  1  0
  5  6  1  0
  6  2  2  0
  6  7  1  0
  8  9  2  0
 10  9  1  0
 11 16  1  0
 12 13  1  0
 12 11  1  0
 14 13  1  0
 14 21  1  0
 14 15  1  0
 16 10  1  0
 16 15  1  0
 17 10  2  0
 18 19  2  0
 19 20  1  0
 19 38  1  0
 20 23  1  0
 21 18  1  0
 21 22  1  0
 22 20  2  0
 23 24  1  0
 24 25  2  0
 26 29  1  0
 26 25  1  0
 27 26  2  0
 28 27  1  0
 28 23  2  0
 29 30  1  0
 30 31  1  0
 31 32  2  0
 33 32  1  0
 33 37  1  0
 34 33  2  0
 35 30  2  0
 35 34  1  0
 36 35  1  0
 38 39  1  0
 39 42  1  0
 39 41  1  0
 40 38  2  0
 43 44  1  0
 43 18  1  0
 45 43  1  0
 47 48  2  0
 47 46  1  0
 49 51  1  0
 49 48  1  0
 50 61  2  0
 51 56  1  0
 52 60  1  0
 52 62  1  0
 53 59  1  0
 53 55  1  0
 54 60  1  0
 55 54  1  0
 56 55  2  0
 57 58  1  0
 57 51  2  0
 58 53  2  0
 59 52  1  0
 60 50  1  0
 62 64  2  0
 63 62  1  0
 65 63  1  0
 66 75  2  0
 66 71  1  0
 67 63  1  0
 67 71  1  0
 68 67  1  0
 69 70  1  0
 69 68  1  0
 70 66  1  0
 71 72  2  0
 72 73  1  0
 74 73  2  0
 75 74  1  0
 76 50  1  0
 76 81  1  0
 76 77  1  0
 77 80  1  1
 77 78  1  0
 79 77  1  0
 81 84  1  0
 82 86  1  0
 82 81  1  0
 83 82  2  0
 86 85  1  0
 88 86  1  0
 88 89  1  0
 88 87  1  0
M  ISO  4   9 100  10 100  48 101  49 101
M  END
>  <TORSDO>  (65) 
F 20

>  <SCORE>  (65) 
-13.088

>  <name>  (65) 
64

>  <ligand_id>  (65) 
64

>  <original_smiles>  (65) 
[H]C(C(=O)N1C([H])([H])C([H])([H])C([H])([H])C([H])(n2nc(-c3c([H])c([H])c(Oc4c([H])c([H])c(F)c([H])c4F)c([H])c3[H])c(C(=O)N([H])[H])c2N([H])[H])C1([H])[H])=C([H])c1c([H])c([H])c(Br)c(C([H])([H])C([H])([H])C([H])([H])Oc2c([H])c([H])c3c(c2[H])C([H])([H])N(C(=O)C([H])(N([H])C(=O)C([H])(N([H])C([H])([H])[H])C([H])([H])[H])C(C([H])([H])[H])(C([H])([H])[H])C([H])([H])[H])C([H])(C(=O)N([H])C2([H])c4c([H])c([H])c([H])c([H])c4C([H])([H])C([H])([H])C2([H])[H])C3([H])[H])c1[H]

>  <smiles>  (65) 
[H]C(C(=O)N1C([H])([H])C([H])([H])C([H])([H])C([H])(n2nc(-c3c([H])c([H])c(Oc4c([H])c([H])c(F)c([H])c4F)c([H])c3[H])c(C(=O)N([H])[H])c2N([H])[H])C1([H])[H])=C([H])c1c([H])c([H])c(Br)c(C([H])([H])C([H])([H])C([H])([H])Oc2c([H])c([H])c3c(c2[H])C([H])([H])N(C(=O)C([H])(N([H])C(=O)C([H])(N([H])C([H])([H])[H])C([H])([H])[H])C(C([H])([H])[H])(C([H])([H])[H])C([H])([H])[H])C([H])(C(=O)N([H])C2([H])c4c([H])c([H])c([H])c([H])c4C([H])([H])C([H])([H])C2([H])[H])C3([H])[H])c1[H]

$$$$
65:0:0
     RDKit          3D

 89 97  0  0  1  0  0  0  0  0999 V2000
  -30.7890  -19.5430   20.5410 C   0  0  0  0  0  3  0  0  0  0  0  0
  -30.3950  -20.9000   20.3760 C   0  0  0  0  0  3  0  0  0  0  0  0
  -28.2430  -20.1340   19.6090 C   0  0  0  0  0  3  0  0  0  0  0  0
  -29.9380  -18.4500   20.2180 C   0  0  0  0  0  0  0  0  0  0  0  0
  -29.1060  -21.2190   19.8940 C   0  0  0  0  0  0  0  0  0  0  0  0
  -28.6380  -18.7790   19.7440 C   0  0  0  0  0  0  0  0  0  0  0  0
  -27.6650  -17.7150   19.2730 C   0  0  0  0  0  1  0  0  0  0  0  0
  -30.4940  -17.0530   20.3220 C   0  0  0  0  0  3  0  0  0  0  0  0
  -29.9110  -15.8380   20.5610 C   0  0  0  0  0  3  0  0  0  0  0  0
  -30.6950  -14.5900   20.4210 C   0  0  0  0  0  0  0  0  0  0  0  0
  -30.3860  -12.3650   19.4080 C   0  0  0  0  0  2  0  0  0  0  0  0
  -29.4700  -12.5370   18.1780 C   0  0  0  0  0  2  0  0  0  0  0  0
  -27.9920  -12.4010   18.5920 C   0  0  0  0  0  2  0  0  0  0  0  0
  -27.6290  -13.2710   19.8290 C   0  0  0  0  0  3  0  0  0  0  0  0
  -28.6810  -13.1270   20.9520 C   0  0  0  0  0  2  0  0  0  0  0  0
  -30.0060  -13.4070   20.3810 N   0  0  0  0  0  0  0  0  0  0  0  0
  -31.8880  -14.6250   20.1150 O   0  0  0  0  0  0  0  0  0  0  0  0
  -25.2300  -13.8670   20.5410 C   0  0  0  0  0  0  0  0  0  0  0  0
  -24.1630  -13.0960   20.9080 C   0  0  0  0  0  0  0  0  0  0  0  0
  -24.6250  -11.7440   20.8780 C   0  0  0  0  0  0  0  0  0  0  0  0
  -26.2770  -12.9900   20.3090 N   0  0  0  0  0  0  0  0  0  0  0  0
  -25.9190  -11.7070   20.5770 N   0  0  0  0  0  0  0  0  0  0  0  0
  -23.8970  -10.4840   21.0670 C   0  0  0  0  0  0  0  0  0  0  0  0
  -24.3260   -9.5130   21.9980 C   0  0  0  0  0  3  0  0  0  0  0  0
  -23.5990   -8.3160   22.1720 C   0  0  0  0  0  3  0  0  0  0  0  0
  -22.4280   -8.0820   21.4140 C   0  0  0  0  0  0  0  0  0  0  0  0
  -22.0170   -9.0410   20.4720 C   0  0  0  0  0  3  0  0  0  0  0  0
  -22.7460  -10.2290   20.2960 C   0  0  0  0  0  3  0  0  0  0  0  0
  -21.6710   -6.9380   21.4970 O   0  0  0  0  0  0  0  0  0  0  0  0
  -21.6200   -6.1930   22.6480 C   0  0  0  0  0  0  0  0  0  0  0  0
  -21.1810   -6.7430   23.8730 C   0  0  0  0  0  3  0  0  0  0  0  0
  -21.0740   -5.9230   25.0140 C   0  0  0  0  0  3  0  0  0  0  0  0
  -21.3970   -4.5540   24.9350 C   0  0  0  0  0  0  0  0  0  0  0  0
  -21.8280   -4.0060   23.7130 C   0  0  0  0  0  3  0  0  0  0  0  0
  -21.9370   -4.8220   22.5740 C   0  0  0  0  0  0  0  0  0  0  0  0
  -22.3330   -4.2810   21.3960 F   0  0  0  0  0  0  0  0  0  0  0  0
  -21.2870   -3.7660   26.0290 F   0  0  0  0  0  0  0  0  0  0  0  0
  -22.7650  -13.5740   21.1700 C   0  0  0  0  0  0  0  0  0  0  0  0
  -22.0270  -12.8810   22.0310 N   0  0  0  0  0  0  0  0  0  0  0  0
  -22.3320  -14.6000   20.6440 O   0  0  0  0  0  0  0  0  0  0  0  0
  -22.3890  -12.0530   22.4830 H   0  0  0  0  0  0  0  0  0  0  0  0
  -21.0900  -13.1870   22.2480 H   0  0  0  0  0  0  0  0  0  0  0  0
  -25.3840  -15.2370   20.3660 N   0  0  0  0  0  0  0  0  0  0  0  0
  -24.6040  -15.8790   20.4640 H   0  0  0  0  0  0  0  0  0  0  0  0
  -26.2230  -15.6770   20.0180 H   0  0  0  0  0  0  0  0  0  0  0  0
  -28.6090  -22.6440   19.5270 C   0  0  0  0  0  2  0  0  0  0  0  0
  -29.0720  -23.9580   20.2580 C   0  0  0  0  0  2  0  0  0  0  0  0
  -28.0670  -25.1230   19.9290 C   0  0  0  0  0  2  0  0  0  0  0  0
  -28.3050  -26.5280   20.2820 O   0  0  0  0  0  0  0  0  0  0  0  0
  -24.5760  -31.9070   23.2810 C   0  0  0  0  0  0  0  0  0  0  0  0
  -27.1870  -27.3710   20.2180 C   0  0  0  0  0  0  0  0  0  0  0  0
  -23.3730  -30.5130   21.6360 C   0  0  0  0  0  3  0  0  0  0  0  0
  -24.8240  -28.9750   20.2110 C   0  0  0  0  0  0  0  0  0  0  0  0
  -25.9140  -30.8260   21.4700 C   0  0  0  0  0  2  0  0  0  0  0  0
  -25.9890  -29.4540   20.8210 C   0  0  0  0  0  0  0  0  0  0  0  0
  -27.1720  -28.6600   20.8280 C   0  0  0  0  0  3  0  0  0  0  0  0
  -25.9980  -26.9540   19.5660 C   0  0  0  0  0  3  0  0  0  0  0  0
  -24.8300  -27.7270   19.5760 C   0  0  0  0  0  3  0  0  0  0  0  0
  -23.5890  -29.8440   20.2540 C   0  0  0  0  0  2  0  0  0  0  0  0
  -24.6390  -31.1000   22.1840 N   0  0  0  0  0  0  0  0  0  0  0  0
  -23.4920  -32.1880   23.8120 O   0  0  0  0  0  0  0  0  0  0  0  0
  -22.7080  -29.4940   22.5910 C   0  0  0  0  0  0  0  0  0  0  0  0
  -21.3830  -29.3170   22.4590 N   0  0  0  0  0  0  0  0  0  0  0  0
  -23.3830  -28.8670   23.4110 O   0  0  0  0  0  0  0  0  0  0  0  0
  -20.8980  -29.8710   21.7680 H   0  0  0  0  0  0  0  0  0  0  0  0
  -18.0000  -28.1420   22.9540 C   0  0  0  0  0  0  0  0  0  0  0  0
  -20.5590  -28.3830   23.2270 C   0  0  0  0  0  3  0  0  0  0  0  0
  -20.6530  -26.9520   22.6510 C   0  0  0  0  0  2  0  0  0  0  0  0
  -19.5510  -26.6370   21.6350 C   0  0  0  0  0  2  0  0  0  0  0  0
  -18.1690  -26.7910   22.2770 C   0  0  0  0  0  2  0  0  0  0  0  0
  -19.1230  -28.8960   23.3860 C   0  0  0  0  0  0  0  0  0  0  0  0
  -18.9110  -30.1600   23.9780 C   0  0  0  0  0  3  0  0  0  0  0  0
  -17.6090  -30.6700   24.1420 C   0  0  0  0  0  3  0  0  0  0  0  0
  -16.5000  -29.9120   23.7260 C   0  0  0  0  0  3  0  0  0  0  0  0
  -16.6960  -28.6490   23.1390 C   0  0  0  0  0  3  0  0  0  0  0  0
  -25.8610  -32.5350   23.9040 C   0  0  0  0  0  3  0  0  0  0  0  0
  -26.3690  -31.7670   25.1870 C   0  0  1  0  0  0  0  0  0  0  0  0
  -25.2690  -31.5410   26.2500 C   0  0  0  0  0  1  0  0  0  0  0  0
  -26.9490  -30.3850   24.8080 C   0  0  0  0  0  1  0  0  0  0  0  0
  -27.5180  -32.5620   25.8500 C   0  0  0  0  0  1  0  0  0  0  0  0
  -25.5570  -33.9350   24.2240 N   0  0  0  0  0  0  0  0  0  0  0  0
  -25.8920  -34.9810   23.4580 C   0  0  0  0  0  0  0  0  0  0  0  0
  -26.5620  -34.8710   22.4270 O   0  0  0  0  0  0  0  0  0  0  0  0
  -24.9610  -34.0970   25.0230 H   0  0  0  0  0  0  0  0  0  0  0  0
  -24.1730  -36.7820   23.0930 C   0  0  0  0  0  1  0  0  0  0  0  0
  -25.4100  -36.3750   23.9080 C   0  0  0  0  0  3  0  0  0  0  0  0
  -27.5460  -37.2550   24.7420 C   0  0  0  0  0  1  0  0  0  0  0  0
  -26.4470  -37.4230   23.7950 N   0  0  0  0  0  0  0  0  0  0  0  0
  -26.0430  -38.3450   23.9390 H   0  0  0  0  0  0  0  0  0  0  0  0
  2  1  1  0
  3  6  2  0
  3  5  1  0
  4  8  1  0
  4  1  2  0
  5  2  2  0
  6  4  1  0
  7  6  1  0
  8  9  2  0
 10  9  1  0
 11 16  1  0
 12 13  1  0
 12 11  1  0
 14 13  1  0
 14 21  1  0
 14 15  1  0
 16 10  1  0
 16 15  1  0
 17 10  2  0
 18 19  2  0
 19 38  1  0
 20 19  1  0
 20 23  1  0
 21 18  1  0
 21 22  1  0
 22 20  2  0
 23 24  1  0
 24 25  2  0
 26 29  1  0
 26 25  1  0
 27 26  2  0
 28 27  1  0
 28 23  2  0
 29 30  1  0
 30 31  1  0
 31 32  2  0
 33 32  1  0
 33 37  1  0
 34 33  2  0
 35 30  2  0
 35 34  1  0
 36 35  1  0
 38 39  1  0
 39 42  1  0
 39 41  1  0
 40 38  2  0
 43 44  1  0
 43 18  1  0
 45 43  1  0
 46  5  1  0
 46 47  1  0
 48 47  1  0
 48 49  1  0
 50 61  2  0
 51 49  1  0
 51 56  1  0
 52 60  1  0
 52 62  1  0
 53 59  1  0
 53 55  1  0
 54 60  1  0
 55 56  2  0
 55 54  1  0
 57 58  1  0
 57 51  2  0
 58 53  2  0
 59 52  1  0
 60 50  1  0
 62 64  2  0
 63 62  1  0
 65 63  1  0
 66 75  2  0
 66 71  1  0
 67 63  1  0
 67 71  1  0
 68 67  1  0
 69 70  1  0
 69 68  1  0
 70 66  1  0
 71 72  2  0
 72 73  1  0
 74 73  2  0
 75 74  1  0
 76 50  1  0
 76 81  1  0
 76 77  1  0
 77 80  1  1
 77 78  1  0
 79 77  1  0
 81 84  1  0
 82 86  1  0
 82 81  1  0
 83 82  2  0
 86 85  1  0
 88 86  1  0
 88 89  1  0
 88 87  1  0
M  ISO  4   9 100  10 100  48 101  49 101
M  END
>  <TORSDO>  (66) 
F 20

>  <SCORE>  (66) 
-14.035

>  <name>  (66) 
65

>  <ligand_id>  (66) 
65

>  <original_smiles>  (66) 
[H]C(C(=O)N1C([H])([H])C([H])([H])C([H])([H])C([H])(n2nc(-c3c([H])c([H])c(Oc4c([H])c([H])c(F)c([H])c4F)c([H])c3[H])c(C(=O)N([H])[H])c2N([H])[H])C1([H])[H])=C([H])c1c([H])c([H])c(C([H])([H])C([H])([H])C([H])([H])Oc2c([H])c([H])c3c(c2[H])C([H])([H])N(C(=O)C([H])(N([H])C(=O)C([H])(N([H])C([H])([H])[H])C([H])([H])[H])C(C([H])([H])[H])(C([H])([H])[H])C([H])([H])[H])C([H])(C(=O)N([H])C2([H])c4c([H])c([H])c([H])c([H])c4C([H])([H])C([H])([H])C2([H])[H])C3([H])[H])c([H])c1C([H])([H])[H]

>  <smiles>  (66) 
[H]C(C(=O)N1C([H])([H])C([H])([H])C([H])([H])C([H])(n2nc(-c3c([H])c([H])c(Oc4c([H])c([H])c(F)c([H])c4F)c([H])c3[H])c(C(=O)N([H])[H])c2N([H])[H])C1([H])[H])=C([H])c1c([H])c([H])c(C([H])([H])C([H])([H])C([H])([H])Oc2c([H])c([H])c3c(c2[H])C([H])([H])N(C(=O)C([H])(N([H])C(=O)C([H])(N([H])C([H])([H])[H])C([H])([H])[H])C(C([H])([H])[H])(C([H])([H])[H])C([H])([H])[H])C([H])(C(=O)N([H])C2([H])c4c([H])c([H])c([H])c([H])c4C([H])([H])C([H])([H])C2([H])[H])C3([H])[H])c([H])c1C([H])([H])[H]

$$$$
66:0:0
     RDKit          3D

 91 99  0  0  1  0  0  0  0  0999 V2000
  -30.8590  -18.8510   22.2590 C   0  0  0  0  0  3  0  0  0  0  0  0
  -30.9390  -20.2120   21.9010 C   0  0  0  0  0  3  0  0  0  0  0  0
  -30.0530  -19.6660   19.7210 C   0  0  0  0  0  3  0  0  0  0  0  0
  -30.3540  -17.8640   21.3800 C   0  0  0  0  0  0  0  0  0  0  0  0
  -30.5410  -20.6450   20.6230 C   0  0  0  0  0  0  0  0  0  0  0  0
  -29.9290  -18.2900   20.0880 C   0  0  0  0  0  0  0  0  0  0  0  0
  -30.2320  -16.5100   22.0030 C   0  0  0  0  0  3  0  0  0  0  0  0
  -30.3660  -15.1950   21.6680 C   0  0  0  0  0  3  0  0  0  0  0  0
  -30.7870  -14.5330   20.4310 C   0  0  0  0  0  0  0  0  0  0  0  0
  -30.4320  -12.4950   19.0390 C   0  0  0  0  0  2  0  0  0  0  0  0
  -29.4380  -12.7420   17.8870 C   0  0  0  0  0  2  0  0  0  0  0  0
  -27.9810  -12.5570   18.3560 C   0  0  0  0  0  2  0  0  0  0  0  0
  -27.6890  -13.3280   19.6660 C   0  0  0  0  0  3  0  0  0  0  0  0
  -28.7700  -13.0250   20.7220 C   0  0  0  0  0  2  0  0  0  0  0  0
  -30.0860  -13.3910   20.1570 N   0  0  0  0  0  0  0  0  0  0  0  0
  -31.7620  -14.8830   19.7580 O   0  0  0  0  0  0  0  0  0  0  0  0
  -25.3020  -13.9280   20.4240 C   0  0  0  0  0  0  0  0  0  0  0  0
  -24.2450  -13.1510   20.8150 C   0  0  0  0  0  0  0  0  0  0  0  0
  -24.7120  -11.8010   20.7740 C   0  0  0  0  0  0  0  0  0  0  0  0
  -26.3460  -13.0500   20.1700 N   0  0  0  0  0  0  0  0  0  0  0  0
  -25.9950  -11.7670   20.4360 N   0  0  0  0  0  0  0  0  0  0  0  0
  -23.9980  -10.5350   20.9800 C   0  0  0  0  0  0  0  0  0  0  0  0
  -24.4480   -9.5750   21.9140 C   0  0  0  0  0  3  0  0  0  0  0  0
  -23.7340   -8.3720   22.1050 C   0  0  0  0  0  3  0  0  0  0  0  0
  -22.5550   -8.1220   21.3630 C   0  0  0  0  0  0  0  0  0  0  0  0
  -22.1230   -9.0700   20.4190 C   0  0  0  0  0  3  0  0  0  0  0  0
  -22.8380  -10.2640   20.2260 C   0  0  0  0  0  3  0  0  0  0  0  0
  -21.8110   -6.9700   21.4630 O   0  0  0  0  0  0  0  0  0  0  0  0
  -21.7650   -6.2420   22.6250 C   0  0  0  0  0  0  0  0  0  0  0  0
  -21.3330   -6.8100   23.8430 C   0  0  0  0  0  3  0  0  0  0  0  0
  -21.2380   -6.0070   24.9980 C   0  0  0  0  0  3  0  0  0  0  0  0
  -21.5620   -4.6390   24.9330 C   0  0  0  0  0  0  0  0  0  0  0  0
  -21.9870   -4.0710   23.7200 C   0  0  0  0  0  3  0  0  0  0  0  0
  -22.0860   -4.8700   22.5680 C   0  0  0  0  0  0  0  0  0  0  0  0
  -22.4760   -4.3140   21.3950 F   0  0  0  0  0  0  0  0  0  0  0  0
  -21.4630   -3.8670   26.0410 F   0  0  0  0  0  0  0  0  0  0  0  0
  -22.8510  -13.6200   21.1190 C   0  0  0  0  0  0  0  0  0  0  0  0
  -22.1450  -12.9220   22.0030 N   0  0  0  0  0  0  0  0  0  0  0  0
  -22.3950  -14.6420   20.6090 O   0  0  0  0  0  0  0  0  0  0  0  0
  -22.5230  -12.0950   22.4400 H   0  0  0  0  0  0  0  0  0  0  0  0
  -21.2130  -13.2240   22.2500 H   0  0  0  0  0  0  0  0  0  0  0  0
  -25.4580  -15.2990   20.2460 N   0  0  0  0  0  0  0  0  0  0  0  0
  -24.6970  -15.9550   20.3900 H   0  0  0  0  0  0  0  0  0  0  0  0
  -26.3130  -15.7450   19.9410 H   0  0  0  0  0  0  0  0  0  0  0  0
  -27.9960  -17.8470   18.4570 C   0  0  0  0  0  1  0  0  0  0  0  0
  -29.2830  -17.3150   19.1050 C   0  0  0  0  0  2  0  0  0  0  0  0
  -30.7450  -22.1220   20.2190 C   0  0  0  0  0  2  0  0  0  0  0  0
  -29.5260  -23.0580   20.1660 C   0  0  0  0  0  3  0  0  0  0  0  0
  -29.5680  -24.3940   19.9090 C   0  0  0  0  0  3  0  0  0  0  0  0
  -28.3360  -25.2970   19.7420 C   0  0  0  0  0  2  0  0  0  0  0  0
  -28.4630  -26.6780   20.1760 O   0  0  0  0  0  0  0  0  0  0  0  0
  -24.6700  -31.9280   23.2780 C   0  0  0  0  0  0  0  0  0  0  0  0
  -27.2980  -27.4490   20.1660 C   0  0  0  0  0  0  0  0  0  0  0  0
  -23.4550  -30.5210   21.6510 C   0  0  0  0  0  3  0  0  0  0  0  0
  -24.9010  -28.9920   20.2120 C   0  0  0  0  0  0  0  0  0  0  0  0
  -25.9870  -30.8720   21.4380 C   0  0  0  0  0  2  0  0  0  0  0  0
  -26.0700  -29.5020   20.7880 C   0  0  0  0  0  0  0  0  0  0  0  0
  -27.2700  -28.7410   20.7610 C   0  0  0  0  0  3  0  0  0  0  0  0
  -26.0950  -26.9750   19.5800 C   0  0  0  0  0  3  0  0  0  0  0  0
  -24.9100  -27.7270   19.6070 C   0  0  0  0  0  3  0  0  0  0  0  0
  -23.6560  -29.8490   20.2690 C   0  0  0  0  0  2  0  0  0  0  0  0
  -24.7230  -31.1230   22.1780 N   0  0  0  0  0  0  0  0  0  0  0  0
  -23.5920  -32.1970   23.8260 O   0  0  0  0  0  0  0  0  0  0  0  0
  -22.8150  -29.4970   22.6160 C   0  0  0  0  0  0  0  0  0  0  0  0
  -21.4920  -29.2940   22.4900 N   0  0  0  0  0  0  0  0  0  0  0  0
  -23.5050  -28.8860   23.4370 O   0  0  0  0  0  0  0  0  0  0  0  0
  -20.9950  -29.8360   21.7960 H   0  0  0  0  0  0  0  0  0  0  0  0
  -18.1360  -28.0510   22.9900 C   0  0  0  0  0  0  0  0  0  0  0  0
  -20.6880  -28.3530   23.2690 C   0  0  0  0  0  3  0  0  0  0  0  0
  -20.8160  -26.9170   22.7080 C   0  0  0  0  0  2  0  0  0  0  0  0
  -19.7240  -26.5660   21.6930 C   0  0  0  0  0  2  0  0  0  0  0  0
  -18.3360  -26.6980   22.3290 C   0  0  0  0  0  2  0  0  0  0  0  0
  -19.2400  -28.8350   23.4170 C   0  0  0  0  0  0  0  0  0  0  0  0
  -18.9990  -30.1020   23.9910 C   0  0  0  0  0  3  0  0  0  0  0  0
  -17.6870  -30.5850   24.1460 C   0  0  0  0  0  3  0  0  0  0  0  0
  -16.5970  -29.7980   23.7390 C   0  0  0  0  0  3  0  0  0  0  0  0
  -16.8210  -28.5330   23.1650 C   0  0  0  0  0  3  0  0  0  0  0  0
  -25.9570  -32.5660   23.8830 C   0  0  0  0  0  3  0  0  0  0  0  0
  -25.6470  -33.9650   24.2060 N   0  0  0  0  0  0  0  0  0  0  0  0
  -25.9790  -35.0140   23.4420 C   0  0  0  0  0  0  0  0  0  0  0  0
  -26.6470  -34.9070   22.4100 O   0  0  0  0  0  0  0  0  0  0  0  0
  -25.0500  -34.1230   25.0050 H   0  0  0  0  0  0  0  0  0  0  0  0
  -24.2510  -36.8060   23.0750 C   0  0  0  0  0  1  0  0  0  0  0  0
  -25.4880  -36.4030   23.8930 C   0  0  0  0  0  3  0  0  0  0  0  0
  -27.6190  -37.2870   24.7330 C   0  0  0  0  0  1  0  0  0  0  0  0
  -26.5220  -37.4570   23.7850 N   0  0  0  0  0  0  0  0  0  0  0  0
  -26.1160  -38.3770   23.9320 H   0  0  0  0  0  0  0  0  0  0  0  0
  -26.4890  -31.8050   25.1580 C   0  0  1  0  0  0  0  0  0  0  0  0
  -25.4070  -31.5690   26.2370 C   0  0  0  0  0  1  0  0  0  0  0  0
  -27.0750  -30.4270   24.7700 C   0  0  0  0  0  1  0  0  0  0  0  0
  -27.6410  -32.6080   25.8050 C   0  0  0  0  0  1  0  0  0  0  0  0
  2  1  1  0
  3  6  2  0
  3  5  1  0
  4  7  1  0
  4  1  2  0
  5  2  2  0
  6  4  1  0
  8  7  2  0
  9  8  1  0
 10 15  1  0
 11 12  1  0
 11 10  1  0
 13 12  1  0
 13 20  1  0
 13 14  1  0
 15  9  1  0
 15 14  1  0
 16  9  2  0
 17 18  2  0
 18 37  1  0
 19 18  1  0
 19 22  1  0
 20 17  1  0
 20 21  1  0
 21 19  2  0
 22 23  1  0
 23 24  2  0
 25 28  1  0
 25 24  1  0
 26 25  2  0
 27 26  1  0
 27 22  2  0
 28 29  1  0
 29 30  1  0
 30 31  2  0
 32 31  1  0
 32 36  1  0
 33 32  2  0
 34 29  2  0
 34 33  1  0
 35 34  1  0
 37 38  1  0
 38 41  1  0
 38 40  1  0
 39 37  2  0
 42 43  1  0
 42 17  1  0
 44 42  1  0
 45 46  1  0
 46  6  1  0
 47  5  1  0
 48 47  1  0
 49 48  2  0
 50 49  1  0
 50 51  1  0
 52 63  2  0
 53 51  1  0
 53 58  1  0
 54 62  1  0
 54 64  1  0
 55 61  1  0
 55 57  1  0
 56 62  1  0
 57 56  1  0
 58 57  2  0
 59 60  1  0
 59 53  2  0
 60 55  2  0
 61 54  1  0
 62 52  1  0
 64 66  2  0
 65 64  1  0
 67 65  1  0
 68 77  2  0
 68 73  1  0
 69 65  1  0
 69 73  1  0
 70 69  1  0
 71 72  1  0
 71 70  1  0
 72 68  1  0
 73 74  2  0
 74 75  1  0
 76 75  2  0
 77 76  1  0
 78 52  1  0
 78 79  1  0
 78 88  1  0
 79 82  1  0
 80 84  1  0
 80 79  1  0
 81 80  2  0
 84 83  1  0
 86 84  1  0
 86 87  1  0
 86 85  1  0
 88 91  1  1
 88 89  1  0
 90 88  1  0
M  ISO  4   8 100   9 100  50 101  51 101
M  END
>  <TORSDO>  (67) 
F 21

>  <SCORE>  (67) 
-13.475

>  <name>  (67) 
66

>  <ligand_id>  (67) 
66

>  <original_smiles>  (67) 
[H]C(C(=O)N1C([H])([H])C([H])([H])C([H])([H])C([H])(n2nc(-c3c([H])c([H])c(Oc4c([H])c([H])c(F)c([H])c4F)c([H])c3[H])c(C(=O)N([H])[H])c2N([H])[H])C1([H])[H])=C([H])c1c([H])c([H])c(C([H])([H])C([H])=C([H])C([H])([H])Oc2c([H])c([H])c3c(c2[H])C([H])([H])N(C(=O)C([H])(N([H])C(=O)C([H])(N([H])C([H])([H])[H])C([H])([H])[H])C(C([H])([H])[H])(C([H])([H])[H])C([H])([H])[H])C([H])(C(=O)N([H])C2([H])c4c([H])c([H])c([H])c([H])c4C([H])([H])C([H])([H])C2([H])[H])C3([H])[H])c([H])c1C([H])([H])C([H])([H])[H]

>  <smiles>  (67) 
[H]C(C(=O)N1C([H])([H])C([H])([H])C([H])([H])C([H])(n2nc(-c3c([H])c([H])c(Oc4c([H])c([H])c(F)c([H])c4F)c([H])c3[H])c(C(=O)N([H])[H])c2N([H])[H])C1([H])[H])=C([H])c1c([H])c([H])c(C([H])([H])C([H])=C([H])C([H])([H])Oc2c([H])c([H])c3c(c2[H])C([H])([H])N(C(=O)C([H])(N([H])C(=O)C([H])(N([H])C([H])([H])[H])C([H])([H])[H])C(C([H])([H])[H])(C([H])([H])[H])C([H])([H])[H])C([H])(C(=O)N([H])C2([H])c4c([H])c([H])c([H])c([H])c4C([H])([H])C([H])([H])C2([H])[H])C3([H])[H])c([H])c1C([H])([H])C([H])([H])[H]

$$$$
67:0:0
     RDKit          3D

 91100  0  0  1  0  0  0  0  0999 V2000
  -28.0310  -19.1230   20.3530 C   0  0  0  0  0  3  0  0  0  0  0  0
  -28.3160  -17.7230   20.3560 C   0  0  0  0  0  3  0  0  0  0  0  0
  -30.7160  -18.0650   20.7400 C   0  0  0  0  0  3  0  0  0  0  0  0
  -30.4600  -19.4740   20.7860 C   0  0  0  0  0  0  0  0  0  0  0  0
  -29.1060  -19.9950   20.5700 C   0  0  0  0  0  0  0  0  0  0  0  0
  -29.6200  -17.1540   20.5550 C   0  0  0  0  0  0  0  0  0  0  0  0
  -30.8340  -20.9300   20.9960 C   0  0  0  0  0  0  0  0  0  0  0  0
  -31.9490  -21.6360   21.2420 C   0  0  0  0  0  2  0  0  0  0  0  0
  -29.3660  -21.4910   20.8760 C   0  0  0  0  0  3  0  0  0  0  0  0
  -30.5390  -14.6780   20.3690 C   0  0  0  0  0  0  0  0  0  0  0  0
  -30.3630  -12.4300   19.3030 C   0  0  0  0  0  2  0  0  0  0  0  0
  -29.3940  -12.5530   18.1030 C   0  0  0  0  0  2  0  0  0  0  0  0
  -27.9260  -12.3880   18.5490 C   0  0  0  0  0  2  0  0  0  0  0  0
  -27.5830  -13.2450   19.7950 C   0  0  0  0  0  3  0  0  0  0  0  0
  -28.6570  -13.0730   20.8940 C   0  0  0  0  0  2  0  0  0  0  0  0
  -29.9580  -13.4360   20.3050 N   0  0  0  0  0  0  0  0  0  0  0  0
  -31.7010  -14.8680   19.9960 O   0  0  0  0  0  0  0  0  0  0  0  0
  -29.6650  -15.6900   20.6900 N   0  0  0  0  0  0  0  0  0  0  0  0
  -28.7690  -15.2940   20.9240 H   0  0  0  0  0  0  0  0  0  0  0  0
  -25.2040  -13.8570   20.5520 C   0  0  0  0  0  0  0  0  0  0  0  0
  -24.1380  -13.0890   20.9370 C   0  0  0  0  0  0  0  0  0  0  0  0
  -24.5890  -11.7360   20.8850 C   0  0  0  0  0  0  0  0  0  0  0  0
  -26.2380  -12.9710   20.2950 N   0  0  0  0  0  0  0  0  0  0  0  0
  -25.8740  -11.6890   20.5550 N   0  0  0  0  0  0  0  0  0  0  0  0
  -23.8560  -10.4780   21.0710 C   0  0  0  0  0  0  0  0  0  0  0  0
  -24.2950   -9.4980   21.9880 C   0  0  0  0  0  3  0  0  0  0  0  0
  -23.5650   -8.3030   22.1620 C   0  0  0  0  0  3  0  0  0  0  0  0
  -22.3820   -8.0810   21.4190 C   0  0  0  0  0  0  0  0  0  0  0  0
  -21.9610   -9.0490   20.4910 C   0  0  0  0  0  3  0  0  0  0  0  0
  -22.6910  -10.2360   20.3150 C   0  0  0  0  0  3  0  0  0  0  0  0
  -21.6200   -6.9390   21.5050 O   0  0  0  0  0  0  0  0  0  0  0  0
  -21.5780   -6.1870   22.6510 C   0  0  0  0  0  0  0  0  0  0  0  0
  -21.1560   -6.7290   23.8840 C   0  0  0  0  0  3  0  0  0  0  0  0
  -21.0640   -5.9020   25.0220 C   0  0  0  0  0  3  0  0  0  0  0  0
  -21.3820   -4.5340   24.9250 C   0  0  0  0  0  0  0  0  0  0  0  0
  -21.7960   -3.9910   23.6970 C   0  0  0  0  0  3  0  0  0  0  0  0
  -21.8920   -4.8150   22.5620 C   0  0  0  0  0  0  0  0  0  0  0  0
  -22.2720   -4.2820   21.3760 F   0  0  0  0  0  0  0  0  0  0  0  0
  -21.2830   -3.7370   26.0160 F   0  0  0  0  0  0  0  0  0  0  0  0
  -22.7470  -13.5760   21.2300 C   0  0  0  0  0  0  0  0  0  0  0  0
  -22.0220  -12.8750   22.0940 N   0  0  0  0  0  0  0  0  0  0  0  0
  -22.3140  -14.6120   20.7290 O   0  0  0  0  0  0  0  0  0  0  0  0
  -22.3850  -12.0380   22.5240 H   0  0  0  0  0  0  0  0  0  0  0  0
  -21.0880  -13.1820   22.3300 H   0  0  0  0  0  0  0  0  0  0  0  0
  -25.3690  -15.2260   20.3710 N   0  0  0  0  0  0  0  0  0  0  0  0
  -24.5750  -15.8540   20.4330 H   0  0  0  0  0  0  0  0  0  0  0  0
  -26.1420  -15.6190   19.8540 H   0  0  0  0  0  0  0  0  0  0  0  0
  -29.1810  -22.6320   19.7800 C   0  0  0  0  0  2  0  0  0  0  0  0
  -28.1510  -23.8610   19.9670 C   0  0  0  0  0  2  0  0  0  0  0  0
  -28.5000  -25.1940   20.7750 C   0  0  0  0  0  2  0  0  0  0  0  0
  -28.4240  -26.5440   20.1650 O   0  0  0  0  0  0  0  0  0  0  0  0
  -24.5980  -31.8730   23.2400 C   0  0  0  0  0  0  0  0  0  0  0  0
  -27.2610  -27.3210   20.2230 C   0  0  0  0  0  0  0  0  0  0  0  0
  -23.4110  -30.4650   21.5930 C   0  0  0  0  0  3  0  0  0  0  0  0
  -24.8780  -28.9030   20.1930 C   0  0  0  0  0  0  0  0  0  0  0  0
  -25.9480  -30.7950   21.4250 C   0  0  0  0  0  2  0  0  0  0  0  0
  -26.0390  -29.4120   20.7890 C   0  0  0  0  0  0  0  0  0  0  0  0
  -27.2370  -28.6370   20.7830 C   0  0  0  0  0  3  0  0  0  0  0  0
  -26.0760  -26.8480   19.6260 C   0  0  0  0  0  3  0  0  0  0  0  0
  -24.8980  -27.6260   19.6040 C   0  0  0  0  0  3  0  0  0  0  0  0
  -23.6380  -29.7750   20.2220 C   0  0  0  0  0  2  0  0  0  0  0  0
  -24.6720  -31.0630   22.1440 N   0  0  0  0  0  0  0  0  0  0  0  0
  -23.5110  -32.1480   23.7670 O   0  0  0  0  0  0  0  0  0  0  0  0
  -22.7420  -29.4530   22.5530 C   0  0  0  0  0  0  0  0  0  0  0  0
  -21.4150  -29.2830   22.4220 N   0  0  0  0  0  0  0  0  0  0  0  0
  -23.4150  -28.8230   23.3730 O   0  0  0  0  0  0  0  0  0  0  0  0
  -20.9330  -29.8410   21.7320 H   0  0  0  0  0  0  0  0  0  0  0  0
  -18.0250  -28.1240   22.9300 C   0  0  0  0  0  0  0  0  0  0  0  0
  -20.5880  -28.3490   23.1890 C   0  0  0  0  0  3  0  0  0  0  0  0
  -20.6700  -26.9230   22.5980 C   0  0  0  0  0  2  0  0  0  0  0  0
  -19.5580  -26.6240   21.5870 C   0  0  0  0  0  2  0  0  0  0  0  0
  -18.1820  -26.7800   22.2390 C   0  0  0  0  0  2  0  0  0  0  0  0
  -19.1560  -28.8680   23.3600 C   0  0  0  0  0  0  0  0  0  0  0  0
  -18.9550  -30.1290   23.9660 C   0  0  0  0  0  3  0  0  0  0  0  0
  -17.6580  -30.6440   24.1420 C   0  0  0  0  0  3  0  0  0  0  0  0
  -16.5430  -29.8970   23.7290 C   0  0  0  0  0  3  0  0  0  0  0  0
  -16.7270  -28.6380   23.1290 C   0  0  0  0  0  3  0  0  0  0  0  0
  -25.8750  -32.5080   23.8730 C   0  0  0  0  0  3  0  0  0  0  0  0
  -26.3760  -31.7450   25.1600 C   0  0  1  0  0  0  0  0  0  0  0  0
  -25.2700  -31.5170   26.2170 C   0  0  0  0  0  1  0  0  0  0  0  0
  -26.9610  -30.3640   24.7840 C   0  0  0  0  0  1  0  0  0  0  0  0
  -27.5220  -32.5400   25.8290 C   0  0  0  0  0  1  0  0  0  0  0  0
  -25.5640  -33.9100   24.1910 N   0  0  0  0  0  0  0  0  0  0  0  0
  -25.9070  -34.9580   23.4300 C   0  0  0  0  0  0  0  0  0  0  0  0
  -26.5870  -34.8480   22.4060 O   0  0  0  0  0  0  0  0  0  0  0  0
  -24.9600  -34.0690   24.9840 H   0  0  0  0  0  0  0  0  0  0  0  0
  -24.1860  -36.7520   23.0450 C   0  0  0  0  0  1  0  0  0  0  0  0
  -25.4170  -36.3500   23.8750 C   0  0  0  0  0  3  0  0  0  0  0  0
  -27.5460  -37.2300   24.7270 C   0  0  0  0  0  1  0  0  0  0  0  0
  -26.4520  -37.4010   23.7720 N   0  0  0  0  0  0  0  0  0  0  0  0
  -26.0460  -38.3220   23.9220 H   0  0  0  0  0  0  0  0  0  0  0  0
  1  2  2  0
  1  5  1  0
  2  6  1  0
  3  4  1  0
  4  7  1  0
  5  4  2  0
  5  9  1  0
  6 18  1  0
  6  3  2  0
  7  8  2  0
  9 48  1  0
  9  7  1  0
 10 18  1  0
 11 16  1  0
 12 13  1  0
 12 11  1  0
 14 13  1  0
 14 23  1  0
 14 15  1  0
 16 10  1  0
 16 15  1  0
 17 10  2  0
 18 19  1  0
 20 21  2  0
 21 40  1  0
 22 21  1  0
 22 25  1  0
 23 20  1  0
 23 24  1  0
 24 22  2  0
 25 26  1  0
 26 27  2  0
 28 31  1  0
 28 27  1  0
 29 28  2  0
 30 29  1  0
 30 25  2  0
 31 32  1  0
 32 33  1  0
 33 34  2  0
 35 34  1  0
 35 39  1  0
 36 35  2  0
 37 32  2  0
 37 36  1  0
 38 37  1  0
 40 41  1  0
 41 44  1  0
 41 43  1  0
 42 40  2  0
 45 46  1  0
 45 20  1  0
 47 45  1  0
 48 49  1  0
 49 50  1  0
 51 53  1  0
 51 50  1  0
 52 63  2  0
 53 58  1  0
 54 62  1  0
 54 64  1  0
 55 61  1  0
 55 57  1  0
 56 62  1  0
 57 56  1  0
 58 57  2  0
 59 53  2  0
 60 59  1  0
 60 55  2  0
 61 54  1  0
 62 52  1  0
 64 66  2  0
 65 64  1  0
 67 65  1  0
 68 77  2  0
 68 73  1  0
 69 65  1  0
 69 73  1  0
 70 69  1  0
 71 72  1  0
 71 70  1  0
 72 68  1  0
 73 74  2  0
 74 75  1  0
 76 75  2  0
 77 76  1  0
 78 52  1  0
 78 83  1  0
 78 79  1  0
 79 82  1  1
 79 80  1  0
 81 79  1  0
 83 86  1  0
 84 88  1  0
 84 83  1  0
 85 84  2  0
 88 87  1  0
 90 88  1  0
 90 91  1  0
 90 89  1  0
M  ISO  4  10 100  18 100  50 101  51 101
M  END
>  <TORSDO>  (68) 
F 19

>  <SCORE>  (68) 
-14.530

>  <name>  (68) 
67

>  <ligand_id>  (68) 
67

>  <original_smiles>  (68) 
[H]C([H])=C1c2c([H])c(N([H])C(=O)N3C([H])([H])C([H])([H])C([H])([H])C([H])(n4nc(-c5c([H])c([H])c(Oc6c([H])c([H])c(F)c([H])c6F)c([H])c5[H])c(C(=O)N([H])[H])c4N([H])[H])C3([H])[H])c([H])c([H])c2C1([H])C([H])([H])C([H])([H])C([H])([H])Oc1c([H])c([H])c2c(c1[H])C([H])([H])N(C(=O)C([H])(N([H])C(=O)C([H])(N([H])C([H])([H])[H])C([H])([H])[H])C(C([H])([H])[H])(C([H])([H])[H])C([H])([H])[H])C([H])(C(=O)N([H])C1([H])c3c([H])c([H])c([H])c([H])c3C([H])([H])C([H])([H])C1([H])[H])C2([H])[H]

>  <smiles>  (68) 
[H]C([H])=C1c2c([H])c(N([H])C(=O)N3C([H])([H])C([H])([H])C([H])([H])C([H])(n4nc(-c5c([H])c([H])c(Oc6c([H])c([H])c(F)c([H])c6F)c([H])c5[H])c(C(=O)N([H])[H])c4N([H])[H])C3([H])[H])c([H])c([H])c2C1([H])C([H])([H])C([H])([H])C([H])([H])Oc1c([H])c([H])c2c(c1[H])C([H])([H])N(C(=O)C([H])(N([H])C(=O)C([H])(N([H])C([H])([H])[H])C([H])([H])[H])C(C([H])([H])[H])(C([H])([H])[H])C([H])([H])[H])C([H])(C(=O)N([H])C1([H])c3c([H])c([H])c([H])c([H])c3C([H])([H])C([H])([H])C1([H])[H])C2([H])[H]

$$$$
68:0:0
     RDKit          3D

 88 96  0  0  1  0  0  0  0  0999 V2000
  -28.0970  -19.5420   20.3910 C   0  0  0  0  0  3  0  0  0  0  0  0
  -30.4270  -19.8620   20.6350 C   0  0  0  0  0  3  0  0  0  0  0  0
  -28.3060  -18.1170   20.3390 C   0  0  0  0  0  3  0  0  0  0  0  0
  -30.6410  -18.4200   20.5650 C   0  0  0  0  0  3  0  0  0  0  0  0
  -29.1380  -20.5020   20.5700 C   0  0  0  0  0  0  0  0  0  0  0  0
  -29.5770  -17.4660   20.4440 C   0  0  0  0  0  0  0  0  0  0  0  0
  -30.4940  -14.8790   20.2750 C   0  0  0  0  0  0  0  0  0  0  0  0
  -30.3770  -12.5700   19.2630 C   0  0  0  0  0  2  0  0  0  0  0  0
  -29.4130  -12.6010   18.0520 C   0  0  0  0  0  2  0  0  0  0  0  0
  -27.9510  -12.4030   18.5010 C   0  0  0  0  0  2  0  0  0  0  0  0
  -27.5800  -13.2870   19.7190 C   0  0  0  0  0  3  0  0  0  0  0  0
  -28.6550  -13.2060   20.8260 C   0  0  0  0  0  2  0  0  0  0  0  0
  -29.9320  -13.6130   20.2220 N   0  0  0  0  0  0  0  0  0  0  0  0
  -31.6790  -15.0240   19.9500 O   0  0  0  0  0  0  0  0  0  0  0  0
  -29.6140  -15.9500   20.5050 N   0  0  0  0  0  0  0  0  0  0  0  0
  -28.7020  -15.5660   20.6950 H   0  0  0  0  0  0  0  0  0  0  0  0
  -25.2030  -13.8760   20.4760 C   0  0  0  0  0  0  0  0  0  0  0  0
  -24.1430  -13.1030   20.8610 C   0  0  0  0  0  0  0  0  0  0  0  0
  -24.6060  -11.7510   20.8230 C   0  0  0  0  0  0  0  0  0  0  0  0
  -26.2440  -12.9970   20.2260 N   0  0  0  0  0  0  0  0  0  0  0  0
  -25.8920  -11.7140   20.4990 N   0  0  0  0  0  0  0  0  0  0  0  0
  -23.8810  -10.4890   21.0190 C   0  0  0  0  0  0  0  0  0  0  0  0
  -24.3210   -9.5210   21.9470 C   0  0  0  0  0  3  0  0  0  0  0  0
  -23.5960   -8.3230   22.1310 C   0  0  0  0  0  3  0  0  0  0  0  0
  -22.4160   -8.0870   21.3850 C   0  0  0  0  0  0  0  0  0  0  0  0
  -21.9950   -9.0430   20.4460 C   0  0  0  0  0  3  0  0  0  0  0  0
  -22.7210  -10.2320   20.2600 C   0  0  0  0  0  3  0  0  0  0  0  0
  -21.6630   -6.9420   21.4790 O   0  0  0  0  0  0  0  0  0  0  0  0
  -21.6220   -6.1990   22.6320 C   0  0  0  0  0  0  0  0  0  0  0  0
  -21.2020   -6.7540   23.8610 C   0  0  0  0  0  3  0  0  0  0  0  0
  -21.1090   -5.9370   25.0060 C   0  0  0  0  0  3  0  0  0  0  0  0
  -21.4240   -4.5680   24.9230 C   0  0  0  0  0  0  0  0  0  0  0  0
  -21.8380   -4.0130   23.6990 C   0  0  0  0  0  3  0  0  0  0  0  0
  -21.9330   -4.8260   22.5560 C   0  0  0  0  0  0  0  0  0  0  0  0
  -22.3110   -4.2830   21.3740 F   0  0  0  0  0  0  0  0  0  0  0  0
  -21.3280   -3.7820   26.0210 F   0  0  0  0  0  0  0  0  0  0  0  0
  -22.7480  -13.5790   21.1460 C   0  0  0  0  0  0  0  0  0  0  0  0
  -22.0270  -12.8830   22.0170 N   0  0  0  0  0  0  0  0  0  0  0  0
  -22.3060  -14.6060   20.6300 O   0  0  0  0  0  0  0  0  0  0  0  0
  -22.3980  -12.0530   22.4560 H   0  0  0  0  0  0  0  0  0  0  0  0
  -21.0920  -13.1850   22.2520 H   0  0  0  0  0  0  0  0  0  0  0  0
  -25.3620  -15.2460   20.2900 N   0  0  0  0  0  0  0  0  0  0  0  0
  -24.5790  -15.8860   20.3790 H   0  0  0  0  0  0  0  0  0  0  0  0
  -26.1620  -15.6650   19.8370 H   0  0  0  0  0  0  0  0  0  0  0  0
  -28.8030  -22.0490   20.9900 C   0  0  0  0  0  2  0  0  0  0  0  0
  -28.8480  -23.4550   20.1150 C   0  0  0  0  0  3  0  0  0  0  0  0
  -28.1340  -24.8380   20.7090 C   0  0  0  0  0  3  0  0  0  0  0  0
  -28.3370  -26.2920   20.2590 O   0  0  0  0  0  0  0  0  0  0  0  0
  -24.6250  -31.8740   23.2560 C   0  0  0  0  0  0  0  0  0  0  0  0
  -27.2480  -27.2160   20.2480 C   0  0  0  0  0  0  0  0  0  0  0  0
  -23.4340  -30.4650   21.6160 C   0  0  0  0  0  3  0  0  0  0  0  0
  -24.8960  -28.8990   20.2050 C   0  0  0  0  0  0  0  0  0  0  0  0
  -25.9820  -30.7630   21.4500 C   0  0  0  0  0  2  0  0  0  0  0  0
  -26.0680  -29.3730   20.8080 C   0  0  0  0  0  0  0  0  0  0  0  0
  -27.2480  -28.5480   20.8100 C   0  0  0  0  0  3  0  0  0  0  0  0
  -26.0500  -26.8240   19.6120 C   0  0  0  0  0  3  0  0  0  0  0  0
  -24.8960  -27.6350   19.5920 C   0  0  0  0  0  3  0  0  0  0  0  0
  -23.6600  -29.7830   20.2410 C   0  0  0  0  0  2  0  0  0  0  0  0
  -24.7000  -31.0550   22.1630 N   0  0  0  0  0  0  0  0  0  0  0  0
  -23.5370  -32.1520   23.7820 O   0  0  0  0  0  0  0  0  0  0  0  0
  -22.7620  -29.4570   22.5800 C   0  0  0  0  0  0  0  0  0  0  0  0
  -21.4360  -29.2780   22.4490 N   0  0  0  0  0  0  0  0  0  0  0  0
  -23.4350  -28.8370   23.4070 O   0  0  0  0  0  0  0  0  0  0  0  0
  -20.9500  -29.8290   21.7560 H   0  0  0  0  0  0  0  0  0  0  0  0
  -18.0600  -28.0640   22.9400 C   0  0  0  0  0  0  0  0  0  0  0  0
  -20.6160  -28.3410   23.2210 C   0  0  0  0  0  3  0  0  0  0  0  0
  -20.7280  -26.9060   22.6540 C   0  0  0  0  0  2  0  0  0  0  0  0
  -19.6340  -26.5720   21.6350 C   0  0  0  0  0  2  0  0  0  0  0  0
  -18.2480  -26.7120   22.2720 C   0  0  0  0  0  2  0  0  0  0  0  0
  -19.1720  -28.8350   23.3710 C   0  0  0  0  0  0  0  0  0  0  0  0
  -18.9420  -30.0990   23.9570 C   0  0  0  0  0  3  0  0  0  0  0  0
  -17.6330  -30.5920   24.1160 C   0  0  0  0  0  3  0  0  0  0  0  0
  -16.5350  -29.8180   23.6990 C   0  0  0  0  0  3  0  0  0  0  0  0
  -16.7500  -28.5560   23.1170 C   0  0  0  0  0  3  0  0  0  0  0  0
  -25.9000  -32.5150   23.8830 C   0  0  0  0  0  3  0  0  0  0  0  0
  -26.4050  -31.7570   25.1720 C   0  0  1  0  0  0  0  0  0  0  0  0
  -25.3030  -31.5310   26.2340 C   0  0  0  0  0  1  0  0  0  0  0  0
  -26.9910  -30.3750   24.8020 C   0  0  0  0  0  1  0  0  0  0  0  0
  -27.5510  -32.5580   25.8360 C   0  0  0  0  0  1  0  0  0  0  0  0
  -25.5850  -33.9150   24.2020 N   0  0  0  0  0  0  0  0  0  0  0  0
  -25.9190  -34.9660   23.4400 C   0  0  0  0  0  0  0  0  0  0  0  0
  -26.5920  -34.8580   22.4120 O   0  0  0  0  0  0  0  0  0  0  0  0
  -24.9860  -34.0740   24.9990 H   0  0  0  0  0  0  0  0  0  0  0  0
  -24.1920  -36.7590   23.0720 C   0  0  0  0  0  1  0  0  0  0  0  0
  -25.4300  -36.3580   23.8900 C   0  0  0  0  0  3  0  0  0  0  0  0
  -27.5620  -37.2480   24.7230 C   0  0  0  0  0  1  0  0  0  0  0  0
  -26.4630  -37.4110   23.7750 N   0  0  0  0  0  0  0  0  0  0  0  0
  -26.0560  -38.3320   23.9150 H   0  0  0  0  0  0  0  0  0  0  0  0
  1  5  1  0
  3  1  2  0
  3  6  1  0
  4  2  1  0
  5  2  2  0
  5 45  1  0
  6 15  1  0
  6  4  2  0
  7 15  1  0
  8 13  1  0
  9 10  1  0
  9  8  1  0
 11 10  1  0
 11 20  1  0
 11 12  1  0
 13  7  1  0
 13 12  1  0
 14  7  2  0
 15 16  1  0
 17 18  2  0
 18 37  1  0
 19 18  1  0
 19 22  1  0
 20 17  1  0
 20 21  1  0
 21 19  2  0
 22 23  1  0
 23 24  2  0
 25 28  1  0
 25 24  1  0
 26 25  2  0
 27 26  1  0
 27 22  2  0
 28 29  1  0
 29 30  1  0
 30 31  2  0
 32 31  1  0
 32 36  1  0
 33 32  2  0
 34 29  2  0
 34 33  1  0
 35 34  1  0
 37 38  1  0
 38 41  1  0
 38 40  1  0
 39 37  2  0
 42 43  1  0
 42 17  1  0
 44 42  1  0
 46 47  2  0
 46 45  1  0
 48 47  1  0
 49 60  2  0
 50 48  1  0
 50 55  1  0
 51 59  1  0
 51 61  1  0
 52 58  1  0
 52 54  1  0
 53 59  1  0
 54 55  2  0
 54 53  1  0
 56 50  2  0
 57 56  1  0
 57 52  2  0
 58 51  1  0
 59 49  1  0
 61 63  2  0
 62 61  1  0
 64 62  1  0
 65 74  2  0
 65 70  1  0
 66 62  1  0
 66 70  1  0
 67 66  1  0
 68 69  1  0
 68 67  1  0
 69 65  1  0
 70 71  2  0
 71 72  1  0
 73 72  2  0
 74 73  1  0
 75 49  1  0
 75 80  1  0
 75 76  1  0
 76 79  1  1
 76 77  1  0
 78 76  1  0
 80 83  1  0
 81 85  1  0
 81 80  1  0
 82 81  2  0
 85 84  1  0
 87 85  1  0
 87 88  1  0
 87 86  1  0
M  ISO  4   7 100  15 100  47 101  48 101
M  END
>  <TORSDO>  (69) 
F 19

>  <SCORE>  (69) 
-14.303

>  <name>  (69) 
68

>  <ligand_id>  (69) 
68

>  <original_smiles>  (69) 
[H]c1c([H])c([H])c2c(c1[H])C([H])([H])C([H])([H])C([H])([H])C2([H])N([H])C(=O)C1([H])N(C(=O)C([H])(N([H])C(=O)C([H])(N([H])C([H])([H])[H])C([H])([H])[H])C(C([H])([H])[H])(C([H])([H])[H])C([H])([H])[H])C([H])([H])c2c([H])c(OC([H])([H])C([H])([H])C([H])([H])c3c([H])c([H])c(N([H])C(=O)N4C([H])([H])C([H])([H])C([H])([H])C([H])(n5nc(-c6c([H])c([H])c(Oc7c([H])c([H])c(F)c([H])c7F)c([H])c6[H])c(C(=O)N([H])[H])c5N([H])[H])C4([H])[H])c([H])c3[H])c([H])c([H])c2C1([H])[H]

>  <smiles>  (69) 
[H]c1c([H])c([H])c2c(c1[H])C([H])([H])C([H])([H])C([H])([H])C2([H])N([H])C(=O)C1([H])N(C(=O)C([H])(N([H])C(=O)C([H])(N([H])C([H])([H])[H])C([H])([H])[H])C(C([H])([H])[H])(C([H])([H])[H])C([H])([H])[H])C([H])([H])c2c([H])c(OC([H])([H])C([H])([H])C([H])([H])c3c([H])c([H])c(N([H])C(=O)N4C([H])([H])C([H])([H])C([H])([H])C([H])(n5nc(-c6c([H])c([H])c(Oc7c([H])c([H])c(F)c([H])c7F)c([H])c6[H])c(C(=O)N([H])[H])c5N([H])[H])C4([H])[H])c([H])c3[H])c([H])c([H])c2C1([H])[H]

$$$$
69:0:0
     RDKit          3D

 94103  0  0  1  0  0  0  0  0999 V2000
  -31.6730  -22.7270   19.3760 C   0  0  0  0  0  3  0  0  0  0  0  0
  -30.3990  -22.3710   19.6380 C   0  0  0  0  0  0  0  0  0  0  0  0
  -29.3280  -23.3750   19.5120 C   0  0  0  0  0  0  0  0  0  0  0  0
  -29.6460  -24.6920   19.3410 C   0  0  0  0  0  0  0  0  0  0  0  0
  -32.1190  -24.1250   19.0140 C   0  0  0  0  0  2  0  0  0  0  0  0
  -31.0820  -25.1940   19.3910 C   0  0  0  0  0  2  0  0  0  0  0  0
  -27.8720  -22.9220   19.4620 C   0  0  0  0  0  1  0  0  0  0  0  0
  -29.6010  -20.4780   21.1350 C   0  0  0  0  0  3  0  0  0  0  0  0
  -30.6120  -19.9800   18.9780 C   0  0  0  0  0  3  0  0  0  0  0  0
  -29.5870  -19.0940   21.4440 C   0  0  0  0  0  3  0  0  0  0  0  0
  -30.5650  -18.6060   19.2740 C   0  0  0  0  0  3  0  0  0  0  0  0
  -30.1620  -20.9300   19.9180 C   0  0  0  0  0  0  0  0  0  0  0  0
  -30.1010  -18.1480   20.5270 C   0  0  0  0  0  0  0  0  0  0  0  0
  -29.9670  -15.7360   20.0350 C   0  0  0  0  0  2  0  0  0  0  0  0
  -30.3740  -16.7340   20.8600 C   0  0  0  0  0  3  0  0  0  0  0  0
  -31.3010  -16.5400   22.0560 C   0  0  0  0  0  1  0  0  0  0  0  0
  -30.6670  -14.4600   19.9540 C   0  0  0  0  0  0  0  0  0  0  0  0
  -30.2180  -12.2800   18.9360 C   0  0  0  0  0  2  0  0  0  0  0  0
  -29.2270  -12.4750   17.7740 C   0  0  0  0  0  2  0  0  0  0  0  0
  -27.7800  -12.3560   18.2880 C   0  0  0  0  0  2  0  0  0  0  0  0
  -27.5110  -13.2370   19.5380 C   0  0  0  0  0  3  0  0  0  0  0  0
  -28.6330  -13.1080   20.5900 C   0  0  0  0  0  2  0  0  0  0  0  0
  -29.9230  -13.3260   19.9260 N   0  0  0  0  0  0  0  0  0  0  0  0
  -31.8400  -14.4770   19.5780 O   0  0  0  0  0  0  0  0  0  0  0  0
  -25.1810  -13.8470   20.4340 C   0  0  0  0  0  0  0  0  0  0  0  0
  -24.1320  -13.0770   20.8580 C   0  0  0  0  0  0  0  0  0  0  0  0
  -24.5750  -11.7230   20.7750 C   0  0  0  0  0  0  0  0  0  0  0  0
  -26.1970  -12.9610   20.1140 N   0  0  0  0  0  0  0  0  0  0  0  0
  -25.8420  -11.6770   20.3810 N   0  0  0  0  0  0  0  0  0  0  0  0
  -23.8490  -10.4640   20.9920 C   0  0  0  0  0  0  0  0  0  0  0  0
  -24.3240   -9.4810   21.8880 C   0  0  0  0  0  3  0  0  0  0  0  0
  -23.5960   -8.2890   22.0930 C   0  0  0  0  0  3  0  0  0  0  0  0
  -22.3790   -8.0710   21.4030 C   0  0  0  0  0  0  0  0  0  0  0  0
  -21.9230   -9.0430   20.4970 C   0  0  0  0  0  3  0  0  0  0  0  0
  -22.6510  -10.2270   20.2890 C   0  0  0  0  0  3  0  0  0  0  0  0
  -21.6200   -6.9330   21.5210 O   0  0  0  0  0  0  0  0  0  0  0  0
  -21.6340   -6.1720   22.6630 C   0  0  0  0  0  0  0  0  0  0  0  0
  -21.2880   -6.7120   23.9210 C   0  0  0  0  0  3  0  0  0  0  0  0
  -21.2470   -5.8790   25.0570 C   0  0  0  0  0  3  0  0  0  0  0  0
  -21.5440   -4.5080   24.9360 C   0  0  0  0  0  0  0  0  0  0  0  0
  -21.8830   -3.9680   23.6830 C   0  0  0  0  0  3  0  0  0  0  0  0
  -21.9250   -4.7980   22.5490 C   0  0  0  0  0  0  0  0  0  0  0  0
  -22.2320   -4.2690   21.3390 F   0  0  0  0  0  0  0  0  0  0  0  0
  -21.4960   -3.7050   26.0250 F   0  0  0  0  0  0  0  0  0  0  0  0
  -22.7610  -13.5640   21.2300 C   0  0  0  0  0  0  0  0  0  0  0  0
  -22.0830  -12.8570   22.1260 N   0  0  0  0  0  0  0  0  0  0  0  0
  -22.3040  -14.6070   20.7640 O   0  0  0  0  0  0  0  0  0  0  0  0
  -22.4660  -12.0120   22.5250 H   0  0  0  0  0  0  0  0  0  0  0  0
  -21.1670  -13.1660   22.4210 H   0  0  0  0  0  0  0  0  0  0  0  0
  -25.3490  -15.2190   20.2720 N   0  0  0  0  0  0  0  0  0  0  0  0
  -24.6010  -15.8810   20.4480 H   0  0  0  0  0  0  0  0  0  0  0  0
  -26.1930  -15.6610   19.9290 H   0  0  0  0  0  0  0  0  0  0  0  0
  -28.6330  -25.7870   18.9970 C   0  0  0  0  0  2  0  0  0  0  0  0
  -28.4230  -26.7410   20.0520 O   0  0  0  0  0  0  0  0  0  0  0  0
  -24.6140  -31.8850   23.2130 C   0  0  0  0  0  0  0  0  0  0  0  0
  -27.2390  -27.4600   20.0630 C   0  0  0  0  0  0  0  0  0  0  0  0
  -23.4000  -30.4980   21.5680 C   0  0  0  0  0  3  0  0  0  0  0  0
  -24.8420  -28.9790   20.1250 C   0  0  0  0  0  0  0  0  0  0  0  0
  -25.9290  -30.8510   21.3660 C   0  0  0  0  0  2  0  0  0  0  0  0
  -26.0080  -29.4870   20.7100 C   0  0  0  0  0  0  0  0  0  0  0  0
  -27.2050  -28.7320   20.6850 C   0  0  0  0  0  3  0  0  0  0  0  0
  -26.0350  -26.9630   19.5020 C   0  0  0  0  0  3  0  0  0  0  0  0
  -24.8500  -27.7140   19.5270 C   0  0  0  0  0  3  0  0  0  0  0  0
  -23.6020  -29.8380   20.1820 C   0  0  0  0  0  2  0  0  0  0  0  0
  -24.6660  -31.0930   22.1060 N   0  0  0  0  0  0  0  0  0  0  0  0
  -23.5340  -32.1530   23.7580 O   0  0  0  0  0  0  0  0  0  0  0  0
  -22.7550  -29.4640   22.5200 C   0  0  0  0  0  0  0  0  0  0  0  0
  -21.4300  -29.2800   22.3960 N   0  0  0  0  0  0  0  0  0  0  0  0
  -23.4430  -28.8320   23.3260 O   0  0  0  0  0  0  0  0  0  0  0  0
  -20.9370  -29.8420   21.7160 H   0  0  0  0  0  0  0  0  0  0  0  0
  -18.0570  -28.0840   22.8940 C   0  0  0  0  0  0  0  0  0  0  0  0
  -20.6160  -28.3370   23.1610 C   0  0  0  0  0  3  0  0  0  0  0  0
  -20.7150  -26.9110   22.5720 C   0  0  0  0  0  2  0  0  0  0  0  0
  -19.6090  -26.5980   21.5590 C   0  0  0  0  0  2  0  0  0  0  0  0
  -18.2300  -26.7400   22.2070 C   0  0  0  0  0  2  0  0  0  0  0  0
  -19.1780  -28.8410   23.3280 C   0  0  0  0  0  0  0  0  0  0  0  0
  -18.9630  -30.1010   23.9280 C   0  0  0  0  0  3  0  0  0  0  0  0
  -17.6600  -30.6020   24.1020 C   0  0  0  0  0  3  0  0  0  0  0  0
  -16.5530  -29.8420   23.6870 C   0  0  0  0  0  3  0  0  0  0  0  0
  -16.7530  -28.5860   23.0880 C   0  0  0  0  0  3  0  0  0  0  0  0
  -25.9020  -32.5100   23.8320 C   0  0  0  0  0  3  0  0  0  0  0  0
  -26.4260  -31.7280   25.0970 C   0  0  1  0  0  0  0  0  0  0  0  0
  -25.3400  -31.4780   26.1690 C   0  0  0  0  0  1  0  0  0  0  0  0
  -27.0080  -30.3550   24.6870 C   0  0  0  0  0  1  0  0  0  0  0  0
  -27.5800  -32.5180   25.7590 C   0  0  0  0  0  1  0  0  0  0  0  0
  -25.5930  -33.9050   24.1730 N   0  0  0  0  0  0  0  0  0  0  0  0
  -25.9150  -34.9620   23.4170 C   0  0  0  0  0  0  0  0  0  0  0  0
  -26.5770  -34.8680   22.3800 O   0  0  0  0  0  0  0  0  0  0  0  0
  -25.0070  -34.0530   24.9820 H   0  0  0  0  0  0  0  0  0  0  0  0
  -24.1760  -36.7490   23.0890 C   0  0  0  0  0  1  0  0  0  0  0  0
  -25.4260  -36.3460   23.8870 C   0  0  0  0  0  3  0  0  0  0  0  0
  -27.5660  -37.2330   24.7020 C   0  0  0  0  0  1  0  0  0  0  0  0
  -26.4540  -37.4040   23.7710 N   0  0  0  0  0  0  0  0  0  0  0  0
  -26.0460  -38.3210   23.9290 H   0  0  0  0  0  0  0  0  0  0  0  0
  1  2  2  0
  2 12  1  0
  3  2  1  0
  4  6  1  0
  4  3  2  0
  5  1  1  0
  5  6  1  0
  7  3  1  0
  8 10  1  0
  9 11  2  0
  9 12  1  0
 11 13  1  0
 12  8  2  0
 13 15  1  0
 13 10  2  0
 14 15  1  0
 15 16  1  0
 17 14  1  0
 18 23  1  0
 19 20  1  0
 19 18  1  0
 21 20  1  0
 21 28  1  0
 21 22  1  0
 23 17  1  0
 23 22  1  0
 24 17  2  0
 25 26  2  0
 26 45  1  0
 27 26  1  0
 27 30  1  0
 28 29  1  0
 28 25  1  0
 29 27  2  0
 30 31  1  0
 31 32  2  0
 33 36  1  0
 33 32  1  0
 34 33  2  0
 35 34  1  0
 35 30  2  0
 36 37  1  0
 37 38  1  0
 38 39  2  0
 40 39  1  0
 40 44  1  0
 41 40  2  0
 42 37  2  0
 42 41  1  0
 43 42  1  0
 45 46  1  0
 46 49  1  0
 46 48  1  0
 47 45  2  0
 50 25  1  0
 50 51  1  0
 52 50  1  0
 53  4  1  0
 53 54  1  0
 54 56  1  0
 55 66  2  0
 56 61  1  0
 57 65  1  0
 57 67  1  0
 58 64  1  0
 58 60  1  0
 59 65  1  0
 60 59  1  0
 61 60  2  0
 62 63  1  0
 62 56  2  0
 63 58  2  0
 64 57  1  0
 65 55  1  0
 67 69  2  0
 68 67  1  0
 70 68  1  0
 71 80  2  0
 71 76  1  0
 72 68  1  0
 72 76  1  0
 73 72  1  0
 74 75  1  0
 74 73  1  0
 75 71  1  0
 76 77  2  0
 77 78  1  0
 79 78  2  0
 80 79  1  0
 81 55  1  0
 81 86  1  0
 81 82  1  0
 82 85  1  1
 82 83  1  0
 84 82  1  0
 86 89  1  0
 87 91  1  0
 87 86  1  0
 88 87  2  0
 91 90  1  0
 93 91  1  0
 93 94  1  0
 93 92  1  0
M  ISO  4  14 100  17 100  53 101  54 101
M  END
>  <TORSDO>  (70) 
F 19

>  <SCORE>  (70) 
-13.630

>  <name>  (70) 
69

>  <ligand_id>  (70) 
69

>  <original_smiles>  (70) 
[H]C(C(=O)N1C([H])([H])C([H])([H])C([H])([H])C([H])(n2nc(-c3c([H])c([H])c(Oc4c([H])c([H])c(F)c([H])c4F)c([H])c3[H])c(C(=O)N([H])[H])c2N([H])[H])C1([H])[H])=C(c1c([H])c([H])c(C2=C([H])C([H])([H])C([H])([H])C(C([H])([H])Oc3c([H])c([H])c4c(c3[H])C([H])([H])N(C(=O)C([H])(N([H])C(=O)C([H])(N([H])C([H])([H])[H])C([H])([H])[H])C(C([H])([H])[H])(C([H])([H])[H])C([H])([H])[H])C([H])(C(=O)N([H])C3([H])c5c([H])c([H])c([H])c([H])c5C([H])([H])C([H])([H])C3([H])[H])C4([H])[H])=C2C([H])([H])[H])c([H])c1[H])C([H])([H])[H]

>  <smiles>  (70) 
[H]C(C(=O)N1C([H])([H])C([H])([H])C([H])([H])C([H])(n2nc(-c3c([H])c([H])c(Oc4c([H])c([H])c(F)c([H])c4F)c([H])c3[H])c(C(=O)N([H])[H])c2N([H])[H])C1([H])[H])=C(c1c([H])c([H])c(C2=C([H])C([H])([H])C([H])([H])C(C([H])([H])Oc3c([H])c([H])c4c(c3[H])C([H])([H])N(C(=O)C([H])(N([H])C(=O)C([H])(N([H])C([H])([H])[H])C([H])([H])[H])C(C([H])([H])[H])(C([H])([H])[H])C([H])([H])[H])C([H])(C(=O)N([H])C3([H])c5c([H])c([H])c([H])c([H])c5C([H])([H])C([H])([H])C3([H])[H])C4([H])[H])=C2C([H])([H])[H])c([H])c1[H])C([H])([H])[H]

$$$$
70:0:0
     RDKit          3D

 89 97  0  0  1  0  0  0  0  0999 V2000
  -27.9100  -21.1190   19.8920 C   0  0  0  0  0  3  0  0  0  0  0  0
  -27.3850  -19.8750   19.5060 C   0  0  0  0  0  3  0  0  0  0  0  0
  -29.9800  -19.9740   20.4800 C   0  0  0  0  0  3  0  0  0  0  0  0
  -29.4600  -18.6630   20.1270 C   0  0  0  0  0  0  0  0  0  0  0  0
  -29.2380  -21.2180   20.3250 C   0  0  0  0  0  0  0  0  0  0  0  0
  -28.1540  -18.6900   19.5560 C   0  0  0  0  0  0  0  0  0  0  0  0
  -27.5690  -17.4810   18.8600 C   0  0  0  0  0  1  0  0  0  0  0  0
  -30.2520  -17.3310   20.2470 C   0  0  0  0  0  3  0  0  0  0  0  0
  -29.8390  -16.0340   20.5410 C   0  0  0  0  0  3  0  0  0  0  0  0
  -30.6850  -14.7870   20.4490 C   0  0  0  0  0  0  0  0  0  0  0  0
  -30.5030  -12.4890   19.5070 C   0  0  0  0  0  2  0  0  0  0  0  0
  -29.6030  -12.5610   18.2550 C   0  0  0  0  0  2  0  0  0  0  0  0
  -28.1200  -12.3930   18.6380 C   0  0  0  0  0  2  0  0  0  0  0  0
  -27.7030  -13.2930   19.8330 C   0  0  0  0  0  3  0  0  0  0  0  0
  -28.7330  -13.2210   20.9820 C   0  0  0  0  0  2  0  0  0  0  0  0
  -30.0570  -13.5580   20.4310 N   0  0  0  0  0  0  0  0  0  0  0  0
  -31.8900  -14.8390   20.1920 O   0  0  0  0  0  0  0  0  0  0  0  0
  -25.2770  -13.8680   20.4810 C   0  0  0  0  0  0  0  0  0  0  0  0
  -24.2080  -13.0940   20.8240 C   0  0  0  0  0  0  0  0  0  0  0  0
  -24.6830  -11.7490   20.8220 C   0  0  0  0  0  0  0  0  0  0  0  0
  -26.3420  -13.0010   20.2850 N   0  0  0  0  0  0  0  0  0  0  0  0
  -25.9850  -11.7180   20.5530 N   0  0  0  0  0  0  0  0  0  0  0  0
  -23.9550  -10.4880   21.0040 C   0  0  0  0  0  0  0  0  0  0  0  0
  -24.3600   -9.5330   21.9620 C   0  0  0  0  0  3  0  0  0  0  0  0
  -23.6290   -8.3380   22.1310 C   0  0  0  0  0  3  0  0  0  0  0  0
  -22.4830   -8.0900   21.3410 C   0  0  0  0  0  0  0  0  0  0  0  0
  -22.0980   -9.0320   20.3720 C   0  0  0  0  0  3  0  0  0  0  0  0
  -22.8290  -10.2190   20.2010 C   0  0  0  0  0  3  0  0  0  0  0  0
  -21.7260   -6.9450   21.4170 O   0  0  0  0  0  0  0  0  0  0  0  0
  -21.6370   -6.2200   22.5770 C   0  0  0  0  0  0  0  0  0  0  0  0
  -21.1460   -6.7870   23.7750 C   0  0  0  0  0  3  0  0  0  0  0  0
  -21.0060   -5.9870   24.9260 C   0  0  0  0  0  3  0  0  0  0  0  0
  -21.3480   -4.6230   24.8830 C   0  0  0  0  0  0  0  0  0  0  0  0
  -21.8330   -4.0560   23.6920 C   0  0  0  0  0  3  0  0  0  0  0  0
  -21.9750   -4.8520   22.5420 C   0  0  0  0  0  0  0  0  0  0  0  0
  -22.4220   -4.2980   21.3900 F   0  0  0  0  0  0  0  0  0  0  0  0
  -21.2070   -3.8530   25.9870 F   0  0  0  0  0  0  0  0  0  0  0  0
  -22.8010  -13.5680   21.0470 C   0  0  0  0  0  0  0  0  0  0  0  0
  -22.0510  -12.8810   21.9010 N   0  0  0  0  0  0  0  0  0  0  0  0
  -22.3740  -14.5850   20.4990 O   0  0  0  0  0  0  0  0  0  0  0  0
  -22.4060  -12.0590   22.3680 H   0  0  0  0  0  0  0  0  0  0  0  0
  -21.1050  -13.1790   22.0930 H   0  0  0  0  0  0  0  0  0  0  0  0
  -25.4120  -15.2370   20.3040 N   0  0  0  0  0  0  0  0  0  0  0  0
  -24.6260  -15.8690   20.4050 H   0  0  0  0  0  0  0  0  0  0  0  0
  -26.2640  -15.7000   20.0290 H   0  0  0  0  0  0  0  0  0  0  0  0
  -29.8490  -22.6640   20.4790 C   0  0  0  0  0  2  0  0  0  0  0  0
  -29.0090  -23.9400   20.9980 C   0  0  0  0  0  2  0  0  0  0  0  0
  -28.3620  -25.0190   20.0040 C   0  0  0  0  0  2  0  0  0  0  0  0
  -28.3800  -26.4720   20.3720 O   0  0  0  0  0  0  0  0  0  0  0  0
  -24.6010  -31.9090   23.2630 C   0  0  0  0  0  0  0  0  0  0  0  0
  -27.2470  -27.3090   20.2670 C   0  0  0  0  0  0  0  0  0  0  0  0
  -23.4130  -30.4960   21.6210 C   0  0  0  0  0  3  0  0  0  0  0  0
  -24.8750  -28.9330   20.2200 C   0  0  0  0  0  0  0  0  0  0  0  0
  -25.9540  -30.8090   21.4590 C   0  0  0  0  0  2  0  0  0  0  0  0
  -26.0380  -29.4240   20.8260 C   0  0  0  0  0  0  0  0  0  0  0  0
  -27.2220  -28.6230   20.8400 C   0  0  0  0  0  3  0  0  0  0  0  0
  -26.0630  -26.8870   19.6160 C   0  0  0  0  0  3  0  0  0  0  0  0
  -24.8920  -27.6710   19.6070 C   0  0  0  0  0  3  0  0  0  0  0  0
  -23.6380  -29.8090   20.2480 C   0  0  0  0  0  2  0  0  0  0  0  0
  -24.6740  -31.0920   22.1700 N   0  0  0  0  0  0  0  0  0  0  0  0
  -23.5140  -32.1890   23.7880 O   0  0  0  0  0  0  0  0  0  0  0  0
  -22.7440  -29.4880   22.5870 C   0  0  0  0  0  0  0  0  0  0  0  0
  -21.4160  -29.3180   22.4610 N   0  0  0  0  0  0  0  0  0  0  0  0
  -23.4190  -28.8650   23.4110 O   0  0  0  0  0  0  0  0  0  0  0  0
  -20.9290  -29.8810   21.7770 H   0  0  0  0  0  0  0  0  0  0  0  0
  -18.0370  -28.1330   22.9730 C   0  0  0  0  0  0  0  0  0  0  0  0
  -20.5950  -28.3840   23.2340 C   0  0  0  0  0  3  0  0  0  0  0  0
  -20.6890  -26.9510   22.6640 C   0  0  0  0  0  2  0  0  0  0  0  0
  -19.5880  -26.6320   21.6480 C   0  0  0  0  0  2  0  0  0  0  0  0
  -18.2070  -26.7830   22.2980 C   0  0  0  0  0  2  0  0  0  0  0  0
  -19.1600  -28.8910   23.3970 C   0  0  0  0  0  0  0  0  0  0  0  0
  -18.9490  -30.1570   23.9860 C   0  0  0  0  0  3  0  0  0  0  0  0
  -17.6490  -30.6680   24.1510 C   0  0  0  0  0  3  0  0  0  0  0  0
  -16.5410  -29.9060   23.7430 C   0  0  0  0  0  3  0  0  0  0  0  0
  -16.7340  -28.6400   23.1630 C   0  0  0  0  0  3  0  0  0  0  0  0
  -25.8790  -32.5480   23.8870 C   0  0  0  0  0  3  0  0  0  0  0  0
  -26.3830  -31.7970   25.1810 C   0  0  1  0  0  0  0  0  0  0  0  0
  -25.2800  -31.5770   26.2420 C   0  0  0  0  0  1  0  0  0  0  0  0
  -26.9680  -30.4140   24.8180 C   0  0  0  0  0  1  0  0  0  0  0  0
  -27.5270  -32.6020   25.8430 C   0  0  0  0  0  1  0  0  0  0  0  0
  -25.5680  -33.9510   24.1920 N   0  0  0  0  0  0  0  0  0  0  0  0
  -25.9110  -34.9940   23.4230 C   0  0  0  0  0  0  0  0  0  0  0  0
  -26.5940  -34.8750   22.4020 O   0  0  0  0  0  0  0  0  0  0  0  0
  -24.9590  -34.1160   24.9800 H   0  0  0  0  0  0  0  0  0  0  0  0
  -24.2000  -36.7950   23.0190 C   0  0  0  0  0  1  0  0  0  0  0  0
  -25.4220  -36.3890   23.8560 C   0  0  0  0  0  3  0  0  0  0  0  0
  -27.5420  -37.2770   24.7240 C   0  0  0  0  0  1  0  0  0  0  0  0
  -26.4630  -37.4350   23.7530 N   0  0  0  0  0  0  0  0  0  0  0  0
  -26.0570  -38.3590   23.8790 H   0  0  0  0  0  0  0  0  0  0  0  0
  1  5  1  0
  2  6  1  0
  2  1  2  0
  4  8  1  0
  4  3  1  0
  5 46  1  0
  5  3  2  0
  6  4  2  0
  7  6  1  0
  8  9  2  0
 10  9  1  0
 11 16  1  0
 12 13  1  0
 12 11  1  0
 14 13  1  0
 14 21  1  0
 14 15  1  0
 16 10  1  0
 16 15  1  0
 17 10  2  0
 18 19  2  0
 19 38  1  0
 20 19  1  0
 20 23  1  0
 21 18  1  0
 21 22  1  0
 22 20  2  0
 23 24  1  0
 24 25  2  0
 26 29  1  0
 26 25  1  0
 27 26  2  0
 28 27  1  0
 28 23  2  0
 29 30  1  0
 30 31  1  0
 31 32  2  0
 33 32  1  0
 33 37  1  0
 34 33  2  0
 35 30  2  0
 35 34  1  0
 36 35  1  0
 38 39  1  0
 39 42  1  0
 39 41  1  0
 40 38  2  0
 43 44  1  0
 43 18  1  0
 45 43  1  0
 46 47  1  0
 48 49  1  0
 48 47  1  0
 50 61  2  0
 51 49  1  0
 51 56  1  0
 52 60  1  0
 52 62  1  0
 53 59  1  0
 53 55  1  0
 54 60  1  0
 55 56  2  0
 55 54  1  0
 57 51  2  0
 58 57  1  0
 58 53  2  0
 59 52  1  0
 60 50  1  0
 62 64  2  0
 63 62  1  0
 65 63  1  0
 66 75  2  0
 66 71  1  0
 67 63  1  0
 67 71  1  0
 68 67  1  0
 69 70  1  0
 69 68  1  0
 70 66  1  0
 71 72  2  0
 72 73  1  0
 74 73  2  0
 75 74  1  0
 76 50  1  0
 76 81  1  0
 76 77  1  0
 77 80  1  1
 77 78  1  0
 79 77  1  0
 81 84  1  0
 82 86  1  0
 82 81  1  0
 83 82  2  0
 86 85  1  0
 88 86  1  0
 88 89  1  0
 88 87  1  0
M  ISO  4   9 100  10 100  48 101  49 101
M  END
>  <TORSDO>  (71) 
F 20

>  <SCORE>  (71) 
-13.775

>  <name>  (71) 
70

>  <ligand_id>  (71) 
70

>  <original_smiles>  (71) 
[H]C(C(=O)N1C([H])([H])C([H])([H])C([H])([H])C([H])(n2nc(-c3c([H])c([H])c(Oc4c([H])c([H])c(F)c([H])c4F)c([H])c3[H])c(C(=O)N([H])[H])c2N([H])[H])C1([H])[H])=C([H])c1c([H])c(C([H])([H])C([H])([H])C([H])([H])Oc2c([H])c([H])c3c(c2[H])C([H])([H])N(C(=O)C([H])(N([H])C(=O)C([H])(N([H])C([H])([H])[H])C([H])([H])[H])C(C([H])([H])[H])(C([H])([H])[H])C([H])([H])[H])C([H])(C(=O)N([H])C2([H])c4c([H])c([H])c([H])c([H])c4C([H])([H])C([H])([H])C2([H])[H])C3([H])[H])c([H])c([H])c1C([H])([H])[H]

>  <smiles>  (71) 
[H]C(C(=O)N1C([H])([H])C([H])([H])C([H])([H])C([H])(n2nc(-c3c([H])c([H])c(Oc4c([H])c([H])c(F)c([H])c4F)c([H])c3[H])c(C(=O)N([H])[H])c2N([H])[H])C1([H])[H])=C([H])c1c([H])c(C([H])([H])C([H])([H])C([H])([H])Oc2c([H])c([H])c3c(c2[H])C([H])([H])N(C(=O)C([H])(N([H])C(=O)C([H])(N([H])C([H])([H])[H])C([H])([H])[H])C(C([H])([H])[H])(C([H])([H])[H])C([H])([H])[H])C([H])(C(=O)N([H])C2([H])c4c([H])c([H])c([H])c([H])c4C([H])([H])C([H])([H])C2([H])[H])C3([H])[H])c([H])c([H])c1C([H])([H])[H]

$$$$
71:0:0
     RDKit          3D

 89 97  0  0  1  0  0  0  0  0999 V2000
  -27.9100  -21.1190   19.8920 C   0  0  0  0  0  3  0  0  0  0  0  0
  -27.3850  -19.8750   19.5060 C   0  0  0  0  0  3  0  0  0  0  0  0
  -29.9800  -19.9740   20.4800 C   0  0  0  0  0  3  0  0  0  0  0  0
  -29.4600  -18.6630   20.1270 C   0  0  0  0  0  0  0  0  0  0  0  0
  -29.2380  -21.2180   20.3250 C   0  0  0  0  0  0  0  0  0  0  0  0
  -28.1540  -18.6900   19.5560 C   0  0  0  0  0  0  0  0  0  0  0  0
  -27.5690  -17.4810   18.8600 C   0  0  0  0  0  1  0  0  0  0  0  0
  -30.2520  -17.3310   20.2470 C   0  0  0  0  0  3  0  0  0  0  0  0
  -29.8390  -16.0340   20.5410 C   0  0  0  0  0  3  0  0  0  0  0  0
  -30.6850  -14.7870   20.4490 C   0  0  0  0  0  0  0  0  0  0  0  0
  -30.5030  -12.4890   19.5070 C   0  0  0  0  0  2  0  0  0  0  0  0
  -29.6030  -12.5610   18.2550 C   0  0  0  0  0  2  0  0  0  0  0  0
  -28.1200  -12.3930   18.6380 C   0  0  0  0  0  2  0  0  0  0  0  0
  -27.7030  -13.2930   19.8330 C   0  0  0  0  0  3  0  0  0  0  0  0
  -28.7330  -13.2210   20.9820 C   0  0  0  0  0  2  0  0  0  0  0  0
  -30.0570  -13.5580   20.4310 N   0  0  0  0  0  0  0  0  0  0  0  0
  -31.8900  -14.8390   20.1920 O   0  0  0  0  0  0  0  0  0  0  0  0
  -25.2770  -13.8680   20.4810 C   0  0  0  0  0  0  0  0  0  0  0  0
  -24.2080  -13.0940   20.8240 C   0  0  0  0  0  0  0  0  0  0  0  0
  -24.6830  -11.7490   20.8220 C   0  0  0  0  0  0  0  0  0  0  0  0
  -26.3420  -13.0010   20.2850 N   0  0  0  0  0  0  0  0  0  0  0  0
  -25.9850  -11.7180   20.5530 N   0  0  0  0  0  0  0  0  0  0  0  0
  -23.9550  -10.4880   21.0040 C   0  0  0  0  0  0  0  0  0  0  0  0
  -24.3600   -9.5330   21.9620 C   0  0  0  0  0  3  0  0  0  0  0  0
  -23.6290   -8.3380   22.1310 C   0  0  0  0  0  3  0  0  0  0  0  0
  -22.4830   -8.0900   21.3410 C   0  0  0  0  0  0  0  0  0  0  0  0
  -22.0980   -9.0320   20.3720 C   0  0  0  0  0  3  0  0  0  0  0  0
  -22.8290  -10.2190   20.2010 C   0  0  0  0  0  3  0  0  0  0  0  0
  -21.7260   -6.9450   21.4170 O   0  0  0  0  0  0  0  0  0  0  0  0
  -21.6370   -6.2200   22.5770 C   0  0  0  0  0  0  0  0  0  0  0  0
  -21.1460   -6.7870   23.7750 C   0  0  0  0  0  3  0  0  0  0  0  0
  -21.0060   -5.9870   24.9260 C   0  0  0  0  0  3  0  0  0  0  0  0
  -21.3480   -4.6230   24.8830 C   0  0  0  0  0  0  0  0  0  0  0  0
  -21.8330   -4.0560   23.6920 C   0  0  0  0  0  3  0  0  0  0  0  0
  -21.9750   -4.8520   22.5420 C   0  0  0  0  0  0  0  0  0  0  0  0
  -22.4220   -4.2980   21.3900 F   0  0  0  0  0  0  0  0  0  0  0  0
  -21.2070   -3.8530   25.9870 F   0  0  0  0  0  0  0  0  0  0  0  0
  -22.8010  -13.5680   21.0470 C   0  0  0  0  0  0  0  0  0  0  0  0
  -22.0510  -12.8810   21.9010 N   0  0  0  0  0  0  0  0  0  0  0  0
  -22.3740  -14.5850   20.4990 O   0  0  0  0  0  0  0  0  0  0  0  0
  -22.4060  -12.0590   22.3680 H   0  0  0  0  0  0  0  0  0  0  0  0
  -21.1050  -13.1790   22.0930 H   0  0  0  0  0  0  0  0  0  0  0  0
  -25.4120  -15.2370   20.3040 N   0  0  0  0  0  0  0  0  0  0  0  0
  -24.6260  -15.8690   20.4050 H   0  0  0  0  0  0  0  0  0  0  0  0
  -26.2640  -15.7000   20.0290 H   0  0  0  0  0  0  0  0  0  0  0  0
  -29.8490  -22.6640   20.4790 C   0  0  0  0  0  2  0  0  0  0  0  0
  -29.0090  -23.9400   20.9980 C   0  0  0  0  0  2  0  0  0  0  0  0
  -28.3620  -25.0190   20.0040 C   0  0  0  0  0  2  0  0  0  0  0  0
  -28.3800  -26.4720   20.3720 O   0  0  0  0  0  0  0  0  0  0  0  0
  -24.6010  -31.9090   23.2630 C   0  0  0  0  0  0  0  0  0  0  0  0
  -27.2470  -27.3090   20.2670 C   0  0  0  0  0  0  0  0  0  0  0  0
  -23.4130  -30.4960   21.6210 C   0  0  0  0  0  3  0  0  0  0  0  0
  -24.8750  -28.9330   20.2200 C   0  0  0  0  0  0  0  0  0  0  0  0
  -25.9540  -30.8090   21.4590 C   0  0  0  0  0  2  0  0  0  0  0  0
  -26.0380  -29.4240   20.8260 C   0  0  0  0  0  0  0  0  0  0  0  0
  -27.2220  -28.6230   20.8400 C   0  0  0  0  0  3  0  0  0  0  0  0
  -26.0630  -26.8870   19.6160 C   0  0  0  0  0  3  0  0  0  0  0  0
  -24.8920  -27.6710   19.6070 C   0  0  0  0  0  3  0  0  0  0  0  0
  -23.6380  -29.8090   20.2480 C   0  0  0  0  0  2  0  0  0  0  0  0
  -24.6740  -31.0920   22.1700 N   0  0  0  0  0  0  0  0  0  0  0  0
  -23.5140  -32.1890   23.7880 O   0  0  0  0  0  0  0  0  0  0  0  0
  -22.7440  -29.4880   22.5870 C   0  0  0  0  0  0  0  0  0  0  0  0
  -21.4160  -29.3180   22.4610 N   0  0  0  0  0  0  0  0  0  0  0  0
  -23.4190  -28.8650   23.4110 O   0  0  0  0  0  0  0  0  0  0  0  0
  -20.9290  -29.8810   21.7770 H   0  0  0  0  0  0  0  0  0  0  0  0
  -18.0370  -28.1330   22.9730 C   0  0  0  0  0  0  0  0  0  0  0  0
  -20.5950  -28.3840   23.2340 C   0  0  0  0  0  3  0  0  0  0  0  0
  -20.6890  -26.9510   22.6640 C   0  0  0  0  0  2  0  0  0  0  0  0
  -19.5880  -26.6320   21.6480 C   0  0  0  0  0  2  0  0  0  0  0  0
  -18.2070  -26.7830   22.2980 C   0  0  0  0  0  2  0  0  0  0  0  0
  -19.1600  -28.8910   23.3970 C   0  0  0  0  0  0  0  0  0  0  0  0
  -18.9490  -30.1570   23.9860 C   0  0  0  0  0  3  0  0  0  0  0  0
  -17.6490  -30.6680   24.1510 C   0  0  0  0  0  3  0  0  0  0  0  0
  -16.5410  -29.9060   23.7430 C   0  0  0  0  0  3  0  0  0  0  0  0
  -16.7340  -28.6400   23.1630 C   0  0  0  0  0  3  0  0  0  0  0  0
  -25.8790  -32.5480   23.8870 C   0  0  0  0  0  3  0  0  0  0  0  0
  -26.3830  -31.7970   25.1810 C   0  0  1  0  0  0  0  0  0  0  0  0
  -25.2800  -31.5770   26.2420 C   0  0  0  0  0  1  0  0  0  0  0  0
  -26.9680  -30.4140   24.8180 C   0  0  0  0  0  1  0  0  0  0  0  0
  -27.5270  -32.6020   25.8430 C   0  0  0  0  0  1  0  0  0  0  0  0
  -25.5680  -33.9510   24.1920 N   0  0  0  0  0  0  0  0  0  0  0  0
  -25.9110  -34.9940   23.4230 C   0  0  0  0  0  0  0  0  0  0  0  0
  -26.5940  -34.8750   22.4020 O   0  0  0  0  0  0  0  0  0  0  0  0
  -24.9590  -34.1160   24.9800 H   0  0  0  0  0  0  0  0  0  0  0  0
  -24.2000  -36.7950   23.0190 C   0  0  0  0  0  1  0  0  0  0  0  0
  -25.4220  -36.3890   23.8560 C   0  0  0  0  0  3  0  0  0  0  0  0
  -27.5420  -37.2770   24.7240 C   0  0  0  0  0  1  0  0  0  0  0  0
  -26.4630  -37.4350   23.7530 N   0  0  0  0  0  0  0  0  0  0  0  0
  -26.0570  -38.3590   23.8790 H   0  0  0  0  0  0  0  0  0  0  0  0
  1  5  1  0
  2  6  1  0
  2  1  2  0
  4  8  1  0
  4  3  1  0
  5 46  1  0
  5  3  2  0
  6  4  2  0
  7  6  1  0
  8  9  2  0
 10  9  1  0
 11 16  1  0
 12 13  1  0
 12 11  1  0
 14 13  1  0
 14 21  1  0
 14 15  1  0
 16 10  1  0
 16 15  1  0
 17 10  2  0
 18 19  2  0
 19 38  1  0
 20 19  1  0
 20 23  1  0
 21 18  1  0
 21 22  1  0
 22 20  2  0
 23 24  1  0
 24 25  2  0
 26 29  1  0
 26 25  1  0
 27 26  2  0
 28 27  1  0
 28 23  2  0
 29 30  1  0
 30 31  1  0
 31 32  2  0
 33 32  1  0
 33 37  1  0
 34 33  2  0
 35 30  2  0
 35 34  1  0
 36 35  1  0
 38 39  1  0
 39 42  1  0
 39 41  1  0
 40 38  2  0
 43 44  1  0
 43 18  1  0
 45 43  1  0
 46 47  1  0
 48 49  1  0
 48 47  1  0
 50 61  2  0
 51 49  1  0
 51 56  1  0
 52 60  1  0
 52 62  1  0
 53 59  1  0
 53 55  1  0
 54 60  1  0
 55 56  2  0
 55 54  1  0
 57 51  2  0
 58 57  1  0
 58 53  2  0
 59 52  1  0
 60 50  1  0
 62 64  2  0
 63 62  1  0
 65 63  1  0
 66 75  2  0
 66 71  1  0
 67 63  1  0
 67 71  1  0
 68 67  1  0
 69 70  1  0
 69 68  1  0
 70 66  1  0
 71 72  2  0
 72 73  1  0
 74 73  2  0
 75 74  1  0
 76 50  1  0
 76 81  1  0
 76 77  1  0
 77 80  1  1
 77 78  1  0
 79 77  1  0
 81 84  1  0
 82 86  1  0
 82 81  1  0
 83 82  2  0
 86 85  1  0
 88 86  1  0
 88 89  1  0
 88 87  1  0
M  ISO  4   9 100  10 100  48 101  49 101
M  END
>  <TORSDO>  (72) 
F 20

>  <SCORE>  (72) 
-13.775

>  <name>  (72) 
71

>  <ligand_id>  (72) 
71

>  <original_smiles>  (72) 
[H]C(C(=O)N1C([H])([H])C([H])([H])C([H])([H])C([H])(n2nc(-c3c([H])c([H])c(Oc4c([H])c([H])c(F)c([H])c4F)c([H])c3[H])c(C(=O)N([H])[H])c2N([H])[H])C1([H])[H])=C([H])c1c([H])c(C([H])([H])C([H])([H])C([H])([H])Oc2c([H])c([H])c3c(c2[H])C([H])([H])N(C(=O)C([H])(N([H])C(=O)C([H])(N([H])C([H])([H])[H])C([H])([H])[H])C(C([H])([H])[H])(C([H])([H])[H])C([H])([H])[H])C([H])(C(=O)N([H])C2([H])c4c([H])c([H])c([H])c([H])c4C([H])([H])C([H])([H])C2([H])[H])C3([H])[H])c([H])c([H])c1C([H])([H])[H]

>  <smiles>  (72) 
[H]C(C(=O)N1C([H])([H])C([H])([H])C([H])([H])C([H])(n2nc(-c3c([H])c([H])c(Oc4c([H])c([H])c(F)c([H])c4F)c([H])c3[H])c(C(=O)N([H])[H])c2N([H])[H])C1([H])[H])=C([H])c1c([H])c(C([H])([H])C([H])([H])C([H])([H])Oc2c([H])c([H])c3c(c2[H])C([H])([H])N(C(=O)C([H])(N([H])C(=O)C([H])(N([H])C([H])([H])[H])C([H])([H])[H])C(C([H])([H])[H])(C([H])([H])[H])C([H])([H])[H])C([H])(C(=O)N([H])C2([H])c4c([H])c([H])c([H])c([H])c4C([H])([H])C([H])([H])C2([H])[H])C3([H])[H])c([H])c([H])c1C([H])([H])[H]

$$$$
72:0:0
     RDKit          3D

 92100  0  0  1  0  0  0  0  0999 V2000
  -29.4820  -17.2570   18.6520 C   0  0  0  0  0  3  0  0  0  0  0  0
  -29.2420  -19.7000   18.5730 C   0  0  0  0  0  3  0  0  0  0  0  0
  -30.0310  -18.6090   20.6060 C   0  0  0  0  0  0  0  0  0  0  0  0
  -29.9250  -17.2860   19.9920 C   0  0  0  0  0  0  0  0  0  0  0  0
  -29.6920  -19.8490   19.9050 C   0  0  0  0  0  0  0  0  0  0  0  0
  -29.1460  -18.4360   17.9600 C   0  0  0  0  0  0  0  0  0  0  0  0
  -28.7020  -18.3540   16.6830 F   0  0  0  0  0  0  0  0  0  0  0  0
  -30.8300  -14.8690   20.2840 C   0  0  0  0  0  0  0  0  0  0  0  0
  -30.6370  -12.5810   19.3130 C   0  0  0  0  0  2  0  0  0  0  0  0
  -29.6850  -12.6620   18.0980 C   0  0  0  0  0  2  0  0  0  0  0  0
  -28.2160  -12.4980   18.5380 C   0  0  0  0  0  2  0  0  0  0  0  0
  -27.8610  -13.3730   19.7700 C   0  0  0  0  0  3  0  0  0  0  0  0
  -28.9340  -13.2750   20.8780 C   0  0  0  0  0  2  0  0  0  0  0  0
  -30.2270  -13.6310   20.2770 N   0  0  0  0  0  0  0  0  0  0  0  0
  -31.9760  -14.9990   19.8440 O   0  0  0  0  0  0  0  0  0  0  0  0
  -30.0910  -15.9750   20.6740 N   0  0  0  0  0  0  0  0  0  0  0  0
  -29.3190  -15.7330   21.2760 H   0  0  0  0  0  0  0  0  0  0  0  0
  -25.4890  -13.9540   20.5520 C   0  0  0  0  0  0  0  0  0  0  0  0
  -24.4270  -13.1750   20.9240 C   0  0  0  0  0  0  0  0  0  0  0  0
  -24.8830  -11.8240   20.8530 C   0  0  0  0  0  0  0  0  0  0  0  0
  -26.5240  -13.0760   20.2750 N   0  0  0  0  0  0  0  0  0  0  0  0
  -26.1680  -11.7870   20.5160 N   0  0  0  0  0  0  0  0  0  0  0  0
  -24.1550  -10.5600   21.0300 C   0  0  0  0  0  0  0  0  0  0  0  0
  -24.5720   -9.5920   21.9710 C   0  0  0  0  0  3  0  0  0  0  0  0
  -23.8450   -8.3940   22.1370 C   0  0  0  0  0  3  0  0  0  0  0  0
  -22.6850   -8.1550   21.3610 C   0  0  0  0  0  0  0  0  0  0  0  0
  -22.2870   -9.1100   20.4100 C   0  0  0  0  0  3  0  0  0  0  0  0
  -23.0150  -10.3000   20.2430 C   0  0  0  0  0  3  0  0  0  0  0  0
  -21.9300   -7.0090   21.4360 O   0  0  0  0  0  0  0  0  0  0  0  0
  -21.8170   -6.2950   22.6020 C   0  0  0  0  0  0  0  0  0  0  0  0
  -21.2560   -6.8580   23.7690 C   0  0  0  0  0  3  0  0  0  0  0  0
  -21.0970   -6.0690   24.9260 C   0  0  0  0  0  3  0  0  0  0  0  0
  -21.4860   -4.7160   24.9150 C   0  0  0  0  0  0  0  0  0  0  0  0
  -22.0380   -4.1520   23.7510 C   0  0  0  0  0  3  0  0  0  0  0  0
  -22.1990   -4.9380   22.5980 C   0  0  0  0  0  0  0  0  0  0  0  0
  -22.7140   -4.3840   21.4730 F   0  0  0  0  0  0  0  0  0  0  0  0
  -21.3250   -3.9540   26.0220 F   0  0  0  0  0  0  0  0  0  0  0  0
  -23.0380  -13.6510   21.2350 C   0  0  0  0  0  0  0  0  0  0  0  0
  -22.3280  -12.9370   22.1010 N   0  0  0  0  0  0  0  0  0  0  0  0
  -22.5920  -14.6880   20.7480 O   0  0  0  0  0  0  0  0  0  0  0  0
  -22.7040  -12.0980   22.5180 H   0  0  0  0  0  0  0  0  0  0  0  0
  -21.3930  -13.2290   22.3510 H   0  0  0  0  0  0  0  0  0  0  0  0
  -25.6570  -15.3270   20.4010 N   0  0  0  0  0  0  0  0  0  0  0  0
  -24.8990  -15.9870   20.5410 H   0  0  0  0  0  0  0  0  0  0  0  0
  -26.5030  -15.7630   20.0570 H   0  0  0  0  0  0  0  0  0  0  0  0
  -32.0580  -18.8990   22.0910 C   0  0  0  0  0  1  0  0  0  0  0  0
  -30.5350  -18.7130   22.0360 C   0  0  0  0  0  2  0  0  0  0  0  0
  -29.8080  -21.1560   20.4800 O   0  0  0  0  0  0  0  0  0  0  0  0
  -29.2090  -22.3740   19.8460 C   0  0  0  0  0  3  0  0  0  0  0  0
  -29.3530  -23.8480   20.5050 C   0  0  0  0  0  3  0  0  0  0  0  0
  -28.4570  -25.0610   19.9160 C   0  0  0  0  0  2  0  0  0  0  0  0
  -28.5720  -26.4960   20.3630 O   0  0  0  0  0  0  0  0  0  0  0  0
  -24.6460  -31.8350   23.3100 C   0  0  0  0  0  0  0  0  0  0  0  0
  -27.4600  -27.3690   20.2520 C   0  0  0  0  0  0  0  0  0  0  0  0
  -23.5350  -30.4510   21.5960 C   0  0  0  0  0  3  0  0  0  0  0  0
  -25.0710  -28.9700   20.1820 C   0  0  0  0  0  0  0  0  0  0  0  0
  -26.0750  -30.8160   21.5190 C   0  0  0  0  0  2  0  0  0  0  0  0
  -26.2070  -29.4530   20.8430 C   0  0  0  0  0  0  0  0  0  0  0  0
  -27.4010  -28.6630   20.8730 C   0  0  0  0  0  3  0  0  0  0  0  0
  -26.3050  -26.9700   19.5370 C   0  0  0  0  0  3  0  0  0  0  0  0
  -25.1260  -27.7370   19.5180 C   0  0  0  0  0  3  0  0  0  0  0  0
  -23.8140  -29.8190   20.2070 C   0  0  0  0  0  2  0  0  0  0  0  0
  -24.7680  -31.0510   22.1990 N   0  0  0  0  0  0  0  0  0  0  0  0
  -23.5380  -32.0770   23.8110 O   0  0  0  0  0  0  0  0  0  0  0  0
  -22.8610  -29.3960   22.5060 C   0  0  0  0  0  0  0  0  0  0  0  0
  -21.5460  -29.1840   22.3220 N   0  0  0  0  0  0  0  0  0  0  0  0
  -23.5220  -28.7730   23.3420 O   0  0  0  0  0  0  0  0  0  0  0  0
  -21.0700  -29.7420   21.6260 H   0  0  0  0  0  0  0  0  0  0  0  0
  -18.1840  -27.8940   22.6730 C   0  0  0  0  0  0  0  0  0  0  0  0
  -20.7240  -28.2100   23.0420 C   0  0  0  0  0  3  0  0  0  0  0  0
  -20.8810  -26.7940   22.4390 C   0  0  0  0  0  2  0  0  0  0  0  0
  -19.8250  -26.4690   21.3770 C   0  0  0  0  0  2  0  0  0  0  0  0
  -18.4180  -26.5660   21.9740 C   0  0  0  0  0  2  0  0  0  0  0  0
  -19.2670  -28.6730   23.1610 C   0  0  0  0  0  0  0  0  0  0  0  0
  -18.9960  -29.9160   23.7740 C   0  0  0  0  0  3  0  0  0  0  0  0
  -17.6740  -30.3820   23.9030 C   0  0  0  0  0  3  0  0  0  0  0  0
  -16.6040  -29.6000   23.4310 C   0  0  0  0  0  3  0  0  0  0  0  0
  -16.8610  -28.3590   22.8220 C   0  0  0  0  0  3  0  0  0  0  0  0
  -25.8910  -32.4820   23.9910 C   0  0  0  0  0  3  0  0  0  0  0  0
  -25.5670  -33.8910   24.2640 N   0  0  0  0  0  0  0  0  0  0  0  0
  -25.9200  -34.9190   23.4820 C   0  0  0  0  0  0  0  0  0  0  0  0
  -26.6230  -34.7840   22.4770 O   0  0  0  0  0  0  0  0  0  0  0  0
  -24.9480  -34.0690   25.0410 H   0  0  0  0  0  0  0  0  0  0  0  0
  -24.1940  -36.6910   23.0190 C   0  0  0  0  0  1  0  0  0  0  0  0
  -25.4150  -36.3200   23.8760 C   0  0  0  0  0  3  0  0  0  0  0  0
  -27.5140  -37.2570   24.7410 C   0  0  0  0  0  1  0  0  0  0  0  0
  -26.4450  -37.3750   23.7530 N   0  0  0  0  0  0  0  0  0  0  0  0
  -26.0280  -38.2970   23.8440 H   0  0  0  0  0  0  0  0  0  0  0  0
  -26.3240  -31.7460   25.3200 C   0  0  1  0  0  0  0  0  0  0  0  0
  -25.1640  -31.5400   26.3220 C   0  0  0  0  0  1  0  0  0  0  0  0
  -26.9280  -30.3570   25.0070 C   0  0  0  0  0  1  0  0  0  0  0  0
  -27.4310  -32.5580   26.0330 C   0  0  0  0  0  1  0  0  0  0  0  0
  1  4  1  0
  2  5  2  0
  3 47  1  0
  4  3  2  0
  4 16  1  0
  5 48  1  0
  5  3  1  0
  6  2  1  0
  6  1  2  0
  7  6  1  0
  8 16  1  0
  9 14  1  0
 10 11  1  0
 10  9  1  0
 12 11  1  0
 12 21  1  0
 12 13  1  0
 14  8  1  0
 14 13  1  0
 15  8  2  0
 16 17  1  0
 18 19  2  0
 19 38  1  0
 20 19  1  0
 20 23  1  0
 21 22  1  0
 21 18  1  0
 22 20  2  0
 23 24  1  0
 24 25  2  0
 26 29  1  0
 26 25  1  0
 27 26  2  0
 28 27  1  0
 28 23  2  0
 29 30  1  0
 30 31  1  0
 31 32  2  0
 33 32  1  0
 33 37  1  0
 34 33  2  0
 35 30  2  0
 35 34  1  0
 36 35  1  0
 38 39  1  0
 39 42  1  0
 39 41  1  0
 40 38  2  0
 43 44  1  0
 43 18  1  0
 45 43  1  0
 47 46  1  0
 49 48  1  0
 49 50  2  0
 51 52  1  0
 51 50  1  0
 53 64  2  0
 54 52  1  0
 54 59  1  0
 55 63  1  0
 55 65  1  0
 56 62  1  0
 56 58  1  0
 57 63  1  0
 58 59  2  0
 58 57  1  0
 60 54  2  0
 61 60  1  0
 61 56  2  0
 62 55  1  0
 63 53  1  0
 65 67  2  0
 66 65  1  0
 68 66  1  0
 69 78  2  0
 69 74  1  0
 70 66  1  0
 70 74  1  0
 71 70  1  0
 72 73  1  0
 72 71  1  0
 73 69  1  0
 74 75  2  0
 75 76  1  0
 77 76  2  0
 78 77  1  0
 79 53  1  0
 79 80  1  0
 79 89  1  0
 80 83  1  0
 81 85  1  0
 81 80  1  0
 82 81  2  0
 85 84  1  0
 87 88  1  0
 87 85  1  0
 87 86  1  0
 89 92  1  1
 89 90  1  0
 91 89  1  0
M  ISO  4   8 100  16 100  51 101  52 101
M  END
>  <TORSDO>  (73) 
F 21

>  <SCORE>  (73) 
-13.135

>  <name>  (73) 
72

>  <ligand_id>  (73) 
72

>  <original_smiles>  (73) 
[H]c1c([H])c([H])c2c(c1[H])C([H])([H])C([H])([H])C([H])([H])C2([H])N([H])C(=O)C1([H])N(C(=O)C([H])(N([H])C(=O)C([H])(N([H])C([H])([H])[H])C([H])([H])[H])C(C([H])([H])[H])(C([H])([H])[H])C([H])([H])[H])C([H])([H])c2c([H])c(OC([H])([H])C([H])([H])C([H])([H])Oc3c([H])c(F)c([H])c(N([H])C(=O)N4C([H])([H])C([H])([H])C([H])([H])C([H])(n5nc(-c6c([H])c([H])c(Oc7c([H])c([H])c(F)c([H])c7F)c([H])c6[H])c(C(=O)N([H])[H])c5N([H])[H])C4([H])[H])c3C([H])([H])C([H])([H])[H])c([H])c([H])c2C1([H])[H]

>  <smiles>  (73) 
[H]c1c([H])c([H])c2c(c1[H])C([H])([H])C([H])([H])C([H])([H])C2([H])N([H])C(=O)C1([H])N(C(=O)C([H])(N([H])C(=O)C([H])(N([H])C([H])([H])[H])C([H])([H])[H])C(C([H])([H])[H])(C([H])([H])[H])C([H])([H])[H])C([H])([H])c2c([H])c(OC([H])([H])C([H])([H])C([H])([H])Oc3c([H])c(F)c([H])c(N([H])C(=O)N4C([H])([H])C([H])([H])C([H])([H])C([H])(n5nc(-c6c([H])c([H])c(Oc7c([H])c([H])c(F)c([H])c7F)c([H])c6[H])c(C(=O)N([H])[H])c5N([H])[H])C4([H])[H])c3C([H])([H])C([H])([H])[H])c([H])c([H])c2C1([H])[H]

$$$$
73:0:0
     RDKit          3D

 90 98  0  0  1  0  0  0  0  0999 V2000
  -29.7210  -19.0780   18.5310 C   0  0  0  0  0  3  0  0  0  0  0  0
  -30.0210  -19.4830   19.8120 C   0  0  0  0  0  0  0  0  0  0  0  0
  -30.4630  -18.3000   20.6090 C   0  0  0  0  0  0  0  0  0  0  0  0
  -30.3880  -17.0450   19.9270 C   0  0  0  0  0  0  0  0  0  0  0  0
  -29.8720  -17.3590   18.2830 S   0  0  0  0  0  0  0  0  0  0  0  0
  -31.1640  -14.6360   19.6280 C   0  0  0  0  0  0  0  0  0  0  0  0
  -30.7970  -12.4380   18.4780 C   0  0  0  0  0  2  0  0  0  0  0  0
  -29.7110  -12.5950   17.3880 C   0  0  0  0  0  2  0  0  0  0  0  0
  -28.2960  -12.4490   17.9780 C   0  0  0  0  0  2  0  0  0  0  0  0
  -28.1100  -13.2700   19.2850 C   0  0  0  0  0  3  0  0  0  0  0  0
  -29.2830  -13.0410   20.2660 C   0  0  0  0  0  2  0  0  0  0  0  0
  -30.5210  -13.4140   19.5680 N   0  0  0  0  0  0  0  0  0  0  0  0
  -32.2300  -14.7740   19.0200 O   0  0  0  0  0  0  0  0  0  0  0  0
  -30.5720  -15.7000   20.3220 N   0  0  0  0  0  0  0  0  0  0  0  0
  -29.9970  -15.4100   21.0990 H   0  0  0  0  0  0  0  0  0  0  0  0
  -25.8680  -13.9160   20.3530 C   0  0  0  0  0  0  0  0  0  0  0  0
  -24.8190  -13.1640   20.8110 C   0  0  0  0  0  0  0  0  0  0  0  0
  -25.1980  -11.8020   20.6240 C   0  0  0  0  0  0  0  0  0  0  0  0
  -26.8210  -13.0080   19.9160 N   0  0  0  0  0  0  0  0  0  0  0  0
  -26.4320  -11.7250   20.1370 N   0  0  0  0  0  0  0  0  0  0  0  0
  -24.4350  -10.5620   20.8320 C   0  0  0  0  0  0  0  0  0  0  0  0
  -24.8430   -9.5850   21.7670 C   0  0  0  0  0  3  0  0  0  0  0  0
  -24.0790   -8.4120   21.9560 C   0  0  0  0  0  3  0  0  0  0  0  0
  -22.8940   -8.2100   21.2090 C   0  0  0  0  0  0  0  0  0  0  0  0
  -22.5090   -9.1730   20.2590 C   0  0  0  0  0  3  0  0  0  0  0  0
  -23.2720  -10.3350   20.0690 C   0  0  0  0  0  3  0  0  0  0  0  0
  -22.1040   -7.0900   21.3070 O   0  0  0  0  0  0  0  0  0  0  0  0
  -21.8980   -6.4560   22.5060 C   0  0  0  0  0  0  0  0  0  0  0  0
  -21.3160   -7.1220   23.6070 C   0  0  0  0  0  3  0  0  0  0  0  0
  -21.0550   -6.4150   24.7990 C   0  0  0  0  0  3  0  0  0  0  0  0
  -21.3680   -5.0460   24.8880 C   0  0  0  0  0  0  0  0  0  0  0  0
  -21.9420   -4.3810   23.7920 C   0  0  0  0  0  3  0  0  0  0  0  0
  -22.2030   -5.0830   22.6020 C   0  0  0  0  0  0  0  0  0  0  0  0
  -22.7370   -4.4330   21.5400 F   0  0  0  0  0  0  0  0  0  0  0  0
  -21.1110   -4.3640   26.0300 F   0  0  0  0  0  0  0  0  0  0  0  0
  -23.5010  -13.6860   21.3090 C   0  0  0  0  0  0  0  0  0  0  0  0
  -22.8750  -12.9740   22.2410 N   0  0  0  0  0  0  0  0  0  0  0  0
  -23.0430  -14.7570   20.9100 O   0  0  0  0  0  0  0  0  0  0  0  0
  -23.2580  -12.1080   22.5880 H   0  0  0  0  0  0  0  0  0  0  0  0
  -21.9960  -13.3040   22.6160 H   0  0  0  0  0  0  0  0  0  0  0  0
  -26.0830  -15.2850   20.2460 N   0  0  0  0  0  0  0  0  0  0  0  0
  -25.3870  -15.9710   20.5220 H   0  0  0  0  0  0  0  0  0  0  0  0
  -26.9020  -15.7070   19.8280 H   0  0  0  0  0  0  0  0  0  0  0  0
  -29.9780  -18.8010   23.1580 C   0  0  0  0  0  1  0  0  0  0  0  0
  -31.0030  -18.5000   22.0290 C   0  0  0  0  0  2  0  0  0  0  0  0
  -29.7200  -20.9890   20.2440 C   0  0  0  0  0  2  0  0  0  0  0  0
  -30.6190  -22.2760   19.8370 C   0  0  0  0  0  2  0  0  0  0  0  0
  -29.8970  -23.6960   19.4690 C   0  0  0  0  0  2  0  0  0  0  0  0
  -29.9150  -24.9690   20.4560 C   0  0  0  0  0  2  0  0  0  0  0  0
  -29.8450  -26.3790   19.9610 O   0  0  0  0  0  0  0  0  0  0  0  0
  -25.1710  -30.9950   23.0340 C   0  0  0  0  0  0  0  0  0  0  0  0
  -28.6220  -27.0660   19.9270 C   0  0  0  0  0  0  0  0  0  0  0  0
  -24.3130  -29.6100   21.1810 C   0  0  0  0  0  3  0  0  0  0  0  0
  -26.0730  -28.3740   19.7950 C   0  0  0  0  0  0  0  0  0  0  0  0
  -26.7980  -30.2560   21.2690 C   0  0  0  0  0  2  0  0  0  0  0  0
  -27.1120  -28.9580   20.5340 C   0  0  0  0  0  0  0  0  0  0  0  0
  -28.3890  -28.3210   20.5790 C   0  0  0  0  0  3  0  0  0  0  0  0
  -27.5530  -26.5350   19.1760 C   0  0  0  0  0  3  0  0  0  0  0  0
  -26.3030  -27.1740   19.1000 C   0  0  0  0  0  3  0  0  0  0  0  0
  -24.7360  -29.0830   19.7810 C   0  0  0  0  0  2  0  0  0  0  0  0
  -25.4390  -30.3010   21.8890 N   0  0  0  0  0  0  0  0  0  0  0  0
  -24.0170  -31.0810   23.4810 O   0  0  0  0  0  0  0  0  0  0  0  0
  -23.7140  -28.4350   21.9900 C   0  0  0  0  0  0  0  0  0  0  0  0
  -22.4420  -28.0940   21.7200 N   0  0  0  0  0  0  0  0  0  0  0  0
  -24.3960  -27.8390   22.8280 O   0  0  0  0  0  0  0  0  0  0  0  0
  -21.9460  -28.6240   21.0160 H   0  0  0  0  0  0  0  0  0  0  0  0
  -19.2560  -26.3890   21.7580 C   0  0  0  0  0  0  0  0  0  0  0  0
  -21.7020  -26.9930   22.3410 C   0  0  0  0  0  3  0  0  0  0  0  0
  -22.0880  -25.6380   21.7000 C   0  0  0  0  0  2  0  0  0  0  0  0
  -21.1640  -25.2330   20.5510 C   0  0  0  0  0  2  0  0  0  0  0  0
  -19.7090  -25.1350   21.0310 C   0  0  0  0  0  2  0  0  0  0  0  0
  -20.1940  -27.2670   22.3660 C   0  0  0  0  0  0  0  0  0  0  0  0
  -19.7250  -28.4370   23.0050 C   0  0  0  0  0  3  0  0  0  0  0  0
  -18.3510  -28.7300   23.0490 C   0  0  0  0  0  3  0  0  0  0  0  0
  -17.4230  -27.8500   22.4650 C   0  0  0  0  0  3  0  0  0  0  0  0
  -17.8780  -26.6830   21.8220 C   0  0  0  0  0  3  0  0  0  0  0  0
  -26.2980  -31.7290   23.8230 C   0  0  0  0  0  3  0  0  0  0  0  0
  -25.8000  -33.0650   24.1740 N   0  0  0  0  0  0  0  0  0  0  0  0
  -26.0530  -34.1820   23.4770 C   0  0  0  0  0  0  0  0  0  0  0  0
  -26.7930  -34.1990   22.4920 O   0  0  0  0  0  0  0  0  0  0  0  0
  -25.1520  -33.1260   24.9450 H   0  0  0  0  0  0  0  0  0  0  0  0
  -24.1430  -35.7640   23.0730 C   0  0  0  0  0  1  0  0  0  0  0  0
  -25.3680  -35.4780   23.9480 C   0  0  0  0  0  3  0  0  0  0  0  0
  -27.3180  -36.5970   24.9370 C   0  0  0  0  0  1  0  0  0  0  0  0
  -26.2660  -36.6540   23.9280 N   0  0  0  0  0  0  0  0  0  0  0  0
  -25.7410  -37.5090   24.0700 H   0  0  0  0  0  0  0  0  0  0  0  0
  -26.7520  -30.9570   25.1230 C   0  0  1  0  0  0  0  0  0  0  0  0
  -25.5780  -30.5610   26.0500 C   0  0  0  0  0  1  0  0  0  0  0  0
  -27.5200  -29.6660   24.7460 C   0  0  0  0  0  1  0  0  0  0  0  0
  -27.7320  -31.8320   25.9380 C   0  0  0  0  0  1  0  0  0  0  0  0
  1  2  2  0
  2 46  1  0
  2  3  1  0
  3 45  1  0
  4 14  1  0
  4  3  2  0
  5  1  1  0
  5  4  1  0
  6 14  1  0
  7 12  1  0
  8  9  1  0
  8  7  1  0
 10  9  1  0
 10 19  1  0
 10 11  1  0
 12  6  1  0
 12 11  1  0
 13  6  2  0
 14 15  1  0
 16 17  2  0
 17 36  1  0
 18 17  1  0
 18 21  1  0
 19 20  1  0
 19 16  1  0
 20 18  2  0
 21 22  1  0
 22 23  2  0
 24 27  1  0
 24 23  1  0
 25 24  2  0
 26 25  1  0
 26 21  2  0
 27 28  1  0
 28 33  2  0
 28 29  1  0
 29 30  2  0
 30 31  1  0
 31 35  1  0
 32 31  2  0
 33 32  1  0
 34 33  1  0
 36 37  1  0
 37 39  1  0
 37 40  1  0
 38 36  2  0
 41 16  1  0
 41 42  1  0
 43 41  1  0
 45 44  1  0
 47 46  1  0
 48 47  1  0
 48 49  1  0
 50 49  1  0
 51 62  2  0
 52 50  1  0
 52 57  1  0
 53 61  1  0
 53 63  1  0
 54 56  1  0
 55 61  1  0
 56 57  2  0
 56 55  1  0
 58 52  2  0
 59 58  1  0
 59 54  2  0
 60 54  1  0
 60 53  1  0
 61 51  1  0
 63 65  2  0
 64 63  1  0
 66 64  1  0
 67 76  2  0
 67 72  1  0
 68 64  1  0
 68 72  1  0
 69 68  1  0
 70 71  1  0
 70 69  1  0
 71 67  1  0
 72 73  2  0
 73 74  1  0
 75 74  2  0
 76 75  1  0
 77 51  1  0
 77 78  1  0
 77 87  1  0
 78 81  1  0
 79 83  1  0
 79 78  1  0
 80 79  2  0
 83 82  1  0
 85 83  1  0
 85 86  1  0
 85 84  1  0
 87 90  1  1
 87 88  1  0
 89 87  1  0
M  ISO  4   6 100  14 100  49 101  50 101
M  END
>  <TORSDO>  (74) 
F 21

>  <SCORE>  (74) 
-8.370

>  <name>  (74) 
73

>  <ligand_id>  (74) 
73

>  <original_smiles>  (74) 
[H]c1sc(N([H])C(=O)N2C([H])([H])C([H])([H])C([H])([H])C([H])(n3nc(-c4c([H])c([H])c(Oc5c([H])c([H])c(F)c([H])c5F)c([H])c4[H])c(C(=O)N([H])[H])c3N([H])[H])C2([H])[H])c(C([H])([H])C([H])([H])[H])c1C([H])([H])C([H])([H])C([H])([H])C([H])([H])Oc1c([H])c([H])c2c(c1[H])C([H])([H])N(C(=O)C([H])(N([H])C(=O)C([H])(N([H])C([H])([H])[H])C([H])([H])[H])C(C([H])([H])[H])(C([H])([H])[H])C([H])([H])[H])C([H])(C(=O)N([H])C1([H])c3c([H])c([H])c([H])c([H])c3C([H])([H])C([H])([H])C1([H])[H])C2([H])[H]

>  <smiles>  (74) 
[H]c1sc(N([H])C(=O)N2C([H])([H])C([H])([H])C([H])([H])C([H])(n3nc(-c4c([H])c([H])c(Oc5c([H])c([H])c(F)c([H])c5F)c([H])c4[H])c(C(=O)N([H])[H])c3N([H])[H])C2([H])[H])c(C([H])([H])C([H])([H])[H])c1C([H])([H])C([H])([H])C([H])([H])C([H])([H])Oc1c([H])c([H])c2c(c1[H])C([H])([H])N(C(=O)C([H])(N([H])C(=O)C([H])(N([H])C([H])([H])[H])C([H])([H])[H])C(C([H])([H])[H])(C([H])([H])[H])C([H])([H])[H])C([H])(C(=O)N([H])C1([H])c3c([H])c([H])c([H])c([H])c3C([H])([H])C([H])([H])C1([H])[H])C2([H])[H]

$$$$
74:0:0
     RDKit          3D

 89 97  0  0  1  0  0  0  0  0999 V2000
  -29.9540  -21.8750   20.4210 C   0  0  0  0  0  3  0  0  0  0  0  0
  -29.2530  -23.0410   20.3120 C   0  0  0  0  0  3  0  0  0  0  0  0
  -28.2590  -20.0150   21.0590 C   0  0  0  0  0  3  0  0  0  0  0  0
  -28.3860  -18.5920   21.0850 C   0  0  0  0  0  3  0  0  0  0  0  0
  -29.4850  -20.5290   20.7200 C   0  0  0  0  0  0  0  0  0  0  0  0
  -29.6960  -18.2830   20.8180 C   0  0  0  0  0  0  0  0  0  0  0  0
  -30.3690  -19.4750   20.5970 O   0  0  0  0  0  0  0  0  0  0  0  0
  -30.4140  -17.0420   20.5650 C   0  0  0  0  0  3  0  0  0  0  0  0
  -29.9240  -15.7850   20.3480 C   0  0  0  0  0  3  0  0  0  0  0  0
  -30.7650  -14.6320   19.9410 C   0  0  0  0  0  0  0  0  0  0  0  0
  -30.5370  -12.3730   18.9160 C   0  0  0  0  0  2  0  0  0  0  0  0
  -29.5500  -12.4840   17.7340 C   0  0  0  0  0  2  0  0  0  0  0  0
  -28.0890  -12.3180   18.2030 C   0  0  0  0  0  2  0  0  0  0  0  0
  -27.7610  -13.1770   19.4550 C   0  0  0  0  0  3  0  0  0  0  0  0
  -28.8700  -13.0550   20.5280 C   0  0  0  0  0  2  0  0  0  0  0  0
  -30.1540  -13.4040   19.9030 N   0  0  0  0  0  0  0  0  0  0  0  0
  -31.8930  -14.7860   19.4560 O   0  0  0  0  0  0  0  0  0  0  0  0
  -25.4180  -13.7610   20.3330 C   0  0  0  0  0  0  0  0  0  0  0  0
  -24.3780  -12.9800   20.7590 C   0  0  0  0  0  0  0  0  0  0  0  0
  -24.8260  -11.6300   20.6480 C   0  0  0  0  0  0  0  0  0  0  0  0
  -26.4410  -12.8840   20.0030 N   0  0  0  0  0  0  0  0  0  0  0  0
  -26.0910  -11.5950   20.2460 N   0  0  0  0  0  0  0  0  0  0  0  0
  -24.1000  -10.3680   20.8460 C   0  0  0  0  0  0  0  0  0  0  0  0
  -24.4980   -9.4360   21.8300 C   0  0  0  0  0  3  0  0  0  0  0  0
  -23.7710   -8.2410   22.0200 C   0  0  0  0  0  3  0  0  0  0  0  0
  -22.6330   -7.9680   21.2240 C   0  0  0  0  0  0  0  0  0  0  0  0
  -22.2510   -8.8910   20.2350 C   0  0  0  0  0  3  0  0  0  0  0  0
  -22.9790  -10.0780   20.0430 C   0  0  0  0  0  3  0  0  0  0  0  0
  -21.8810   -6.8220   21.3140 O   0  0  0  0  0  0  0  0  0  0  0  0
  -21.6690   -6.1930   22.5140 C   0  0  0  0  0  0  0  0  0  0  0  0
  -21.0420   -6.8500   23.5960 C   0  0  0  0  0  3  0  0  0  0  0  0
  -20.7810   -6.1460   24.7900 C   0  0  0  0  0  3  0  0  0  0  0  0
  -21.1390   -4.7890   24.8990 C   0  0  0  0  0  0  0  0  0  0  0  0
  -21.7570   -4.1320   23.8230 C   0  0  0  0  0  3  0  0  0  0  0  0
  -22.0210   -4.8330   22.6310 C   0  0  0  0  0  0  0  0  0  0  0  0
  -22.5980   -4.1920   21.5870 F   0  0  0  0  0  0  0  0  0  0  0  0
  -20.8840   -4.1110   26.0440 F   0  0  0  0  0  0  0  0  0  0  0  0
  -23.0040  -13.4550   21.1370 C   0  0  0  0  0  0  0  0  0  0  0  0
  -22.3280  -12.7480   22.0400 N   0  0  0  0  0  0  0  0  0  0  0  0
  -22.5310  -14.4900   20.6650 O   0  0  0  0  0  0  0  0  0  0  0  0
  -22.7070  -11.9060   22.4540 H   0  0  0  0  0  0  0  0  0  0  0  0
  -21.4060  -13.0510   22.3270 H   0  0  0  0  0  0  0  0  0  0  0  0
  -25.5690  -15.1350   20.1680 N   0  0  0  0  0  0  0  0  0  0  0  0
  -24.7890  -15.7780   20.2680 H   0  0  0  0  0  0  0  0  0  0  0  0
  -26.3800  -15.5760   19.7440 H   0  0  0  0  0  0  0  0  0  0  0  0
  -29.8630  -24.3850   20.0220 C   0  0  0  0  0  0  0  0  0  0  0  0
  -31.0380  -24.6440   20.3080 O   0  0  0  0  0  0  0  0  0  0  0  0
  -29.0140  -25.4580   19.2730 C   0  0  0  0  0  2  0  0  0  0  0  0
  -28.9520  -26.7760   19.9160 O   0  0  0  0  0  0  0  0  0  0  0  0
  -24.7890  -31.6820   23.1520 C   0  0  0  0  0  0  0  0  0  0  0  0
  -27.7460  -27.4900   19.8930 C   0  0  0  0  0  0  0  0  0  0  0  0
  -23.6990  -30.2970   21.4250 C   0  0  0  0  0  3  0  0  0  0  0  0
  -25.2640  -28.9150   19.9410 C   0  0  0  0  0  0  0  0  0  0  0  0
  -26.2160  -30.7760   21.3130 C   0  0  0  0  0  2  0  0  0  0  0  0
  -26.3870  -29.4490   20.5870 C   0  0  0  0  0  0  0  0  0  0  0  0
  -27.6250  -28.7450   20.5600 C   0  0  0  0  0  3  0  0  0  0  0  0
  -26.5930  -26.9990   19.2310 C   0  0  0  0  0  3  0  0  0  0  0  0
  -25.3690  -27.6950   19.2560 C   0  0  0  0  0  3  0  0  0  0  0  0
  -23.9700  -29.7050   20.0130 C   0  0  0  0  0  2  0  0  0  0  0  0
  -24.9180  -30.9300   22.0200 N   0  0  0  0  0  0  0  0  0  0  0  0
  -23.6810  -31.8760   23.6730 O   0  0  0  0  0  0  0  0  0  0  0  0
  -23.0830  -29.1950   22.3150 C   0  0  0  0  0  0  0  0  0  0  0  0
  -21.7750  -28.9460   22.1450 N   0  0  0  0  0  0  0  0  0  0  0  0
  -23.7810  -28.5730   23.1190 O   0  0  0  0  0  0  0  0  0  0  0  0
  -21.2690  -29.4970   21.4640 H   0  0  0  0  0  0  0  0  0  0  0  0
  -18.4580  -27.5710   22.5360 C   0  0  0  0  0  0  0  0  0  0  0  0
  -21.0000  -27.9300   22.8510 C   0  0  0  0  0  3  0  0  0  0  0  0
  -21.1750  -26.5450   22.1880 C   0  0  0  0  0  2  0  0  0  0  0  0
  -20.0950  -26.2330   21.1460 C   0  0  0  0  0  2  0  0  0  0  0  0
  -18.7040  -26.2770   21.7820 C   0  0  0  0  0  2  0  0  0  0  0  0
  -19.5360  -28.3570   23.0240 C   0  0  0  0  0  0  0  0  0  0  0  0
  -19.2540  -29.5740   23.6840 C   0  0  0  0  0  3  0  0  0  0  0  0
  -17.9260  -30.0010   23.8670 C   0  0  0  0  0  3  0  0  0  0  0  0
  -16.8620  -29.2120   23.4000 C   0  0  0  0  0  3  0  0  0  0  0  0
  -17.1290  -28.0000   22.7380 C   0  0  0  0  0  3  0  0  0  0  0  0
  -26.0240  -32.3580   23.8250 C   0  0  0  0  0  3  0  0  0  0  0  0
  -26.5190  -31.5960   25.1150 C   0  0  1  0  0  0  0  0  0  0  0  0
  -25.3870  -31.3030   26.1260 C   0  0  0  0  0  1  0  0  0  0  0  0
  -27.1750  -30.2480   24.7390 C   0  0  0  0  0  1  0  0  0  0  0  0
  -27.6020  -32.4310   25.8360 C   0  0  0  0  0  1  0  0  0  0  0  0
  -25.6450  -33.7390   24.1550 N   0  0  0  0  0  0  0  0  0  0  0  0
  -25.9560  -34.8120   23.4190 C   0  0  0  0  0  0  0  0  0  0  0  0
  -26.6620  -34.7520   22.4070 O   0  0  0  0  0  0  0  0  0  0  0  0
  -25.0150  -33.8620   24.9350 H   0  0  0  0  0  0  0  0  0  0  0  0
  -24.1510  -36.5210   23.0440 C   0  0  0  0  0  1  0  0  0  0  0  0
  -25.3950  -36.1740   23.8740 C   0  0  0  0  0  3  0  0  0  0  0  0
  -27.4620  -37.1540   24.7620 C   0  0  0  0  0  1  0  0  0  0  0  0
  -26.3780  -37.2740   23.7920 N   0  0  0  0  0  0  0  0  0  0  0  0
  -25.9240  -38.1720   23.9330 H   0  0  0  0  0  0  0  0  0  0  0  0
  1  5  1  0
  2  1  2  0
  3  4  1  0
  5  3  2  0
  6  4  2  0
  7  5  1  0
  7  6  1  0
  8  6  1  0
  9  8  2  0
 10  9  1  0
 11 16  1  0
 12 13  1  0
 12 11  1  0
 14 13  1  0
 14 21  1  0
 14 15  1  0
 16 10  1  0
 16 15  1  0
 17 10  2  0
 18 19  2  0
 19 38  1  0
 20 19  1  0
 20 23  1  0
 21 22  1  0
 21 18  1  0
 22 20  2  0
 23 24  1  0
 24 25  2  0
 26 29  1  0
 26 25  1  0
 27 26  2  0
 28 27  1  0
 28 23  2  0
 29 30  1  0
 30 35  2  0
 30 31  1  0
 31 32  2  0
 32 33  1  0
 33 37  1  0
 34 33  2  0
 35 34  1  0
 36 35  1  0
 38 39  1  0
 39 42  1  0
 39 41  1  0
 40 38  2  0
 43 44  1  0
 43 18  1  0
 45 43  1  0
 46 47  2  0
 46  2  1  0
 48 49  1  0
 48 46  1  0
 50 61  2  0
 51 49  1  0
 51 56  1  0
 52 60  1  0
 52 62  1  0
 53 59  1  0
 53 55  1  0
 54 60  1  0
 55 54  1  0
 56 55  2  0
 57 58  1  0
 57 51  2  0
 58 53  2  0
 59 52  1  0
 60 50  1  0
 62 64  2  0
 63 62  1  0
 65 63  1  0
 66 75  2  0
 66 71  1  0
 67 63  1  0
 67 71  1  0
 68 67  1  0
 69 70  1  0
 69 68  1  0
 70 66  1  0
 71 72  2  0
 72 73  1  0
 74 73  2  0
 75 74  1  0
 76 50  1  0
 76 81  1  0
 76 77  1  0
 77 80  1  1
 77 78  1  0
 79 77  1  0
 81 84  1  0
 82 86  1  0
 82 81  1  0
 83 82  2  0
 86 85  1  0
 88 86  1  0
 88 89  1  0
 88 87  1  0
M  ISO  4   9 100  10 100  48 101  49 101
M  END
>  <TORSDO>  (75) 
F 20

>  <SCORE>  (75) 
-11.721

>  <name>  (75) 
74

>  <ligand_id>  (75) 
74

>  <original_smiles>  (75) 
[H]C(C(=O)N1C([H])([H])C([H])([H])C([H])([H])C([H])(n2nc(-c3c([H])c([H])c(Oc4c([H])c([H])c(F)c([H])c4F)c([H])c3[H])c(C(=O)N([H])[H])c2N([H])[H])C1([H])[H])=C([H])c1oc(C([H])=C([H])C(=O)C([H])([H])Oc2c([H])c([H])c3c(c2[H])C([H])([H])N(C(=O)C([H])(N([H])C(=O)C([H])(N([H])C([H])([H])[H])C([H])([H])[H])C(C([H])([H])[H])(C([H])([H])[H])C([H])([H])[H])C([H])(C(=O)N([H])C2([H])c4c([H])c([H])c([H])c([H])c4C([H])([H])C([H])([H])C2([H])[H])C3([H])[H])c([H])c1[H]

>  <smiles>  (75) 
[H]C(C(=O)N1C([H])([H])C([H])([H])C([H])([H])C([H])(n2nc(-c3c([H])c([H])c(Oc4c([H])c([H])c(F)c([H])c4F)c([H])c3[H])c(C(=O)N([H])[H])c2N([H])[H])C1([H])[H])=C([H])c1oc(C([H])=C([H])C(=O)C([H])([H])Oc2c([H])c([H])c3c(c2[H])C([H])([H])N(C(=O)C([H])(N([H])C(=O)C([H])(N([H])C([H])([H])[H])C([H])([H])[H])C(C([H])([H])[H])(C([H])([H])[H])C([H])([H])[H])C([H])(C(=O)N([H])C2([H])c4c([H])c([H])c([H])c([H])c4C([H])([H])C([H])([H])C2([H])[H])C3([H])[H])c([H])c1[H]

$$$$
75:0:0
     RDKit          3D

 93102  0  0  1  0  0  0  0  0999 V2000
  -28.6220  -23.7090   20.1350 C   0  0  0  0  0  3  0  0  0  0  0  0
  -29.7010  -22.9210   19.8900 C   0  0  0  0  0  3  0  0  0  0  0  0
  -27.7800  -22.4730   20.5320 C   0  0  0  0  0  2  0  0  0  0  0  0
  -29.1310  -21.6760   20.6380 C   0  0  0  0  0  3  0  0  0  0  0  0
  -30.5040  -19.5210   19.6970 C   0  0  0  0  0  3  0  0  0  0  0  0
  -30.6680  -18.0870   19.6080 C   0  0  0  0  0  3  0  0  0  0  0  0
  -28.4320  -19.2030   20.8320 C   0  0  0  0  0  3  0  0  0  0  0  0
  -29.3710  -20.1300   20.3160 C   0  0  0  0  0  0  0  0  0  0  0  0
  -28.5890  -17.7860   20.7700 C   0  0  0  0  0  0  0  0  0  0  0  0
  -29.7150  -17.1650   20.1450 C   0  0  0  0  0  0  0  0  0  0  0  0
  -27.4950  -16.9540   21.4260 C   0  0  0  0  0  1  0  0  0  0  0  0
  -30.4930  -14.6910   19.4780 C   0  0  0  0  0  0  0  0  0  0  0  0
  -30.1570  -12.4940   18.3230 C   0  0  0  0  0  2  0  0  0  0  0  0
  -29.0620  -12.6760   17.2460 C   0  0  0  0  0  2  0  0  0  0  0  0
  -27.6540  -12.5010   17.8490 C   0  0  0  0  0  2  0  0  0  0  0  0
  -27.4690  -13.3000   19.1660 C   0  0  0  0  0  3  0  0  0  0  0  0
  -28.6570  -13.0660   20.1260 C   0  0  0  0  0  2  0  0  0  0  0  0
  -29.8860  -13.4560   19.4120 N   0  0  0  0  0  0  0  0  0  0  0  0
  -31.5840  -14.8870   18.9320 O   0  0  0  0  0  0  0  0  0  0  0  0
  -29.7410  -15.6830   20.0740 N   0  0  0  0  0  0  0  0  0  0  0  0
  -28.9480  -15.2710   20.5380 H   0  0  0  0  0  0  0  0  0  0  0  0
  -25.1920  -13.9020   20.1890 C   0  0  0  0  0  0  0  0  0  0  0  0
  -24.1670  -13.1300   20.6660 C   0  0  0  0  0  0  0  0  0  0  0  0
  -24.5970  -11.7750   20.5290 C   0  0  0  0  0  0  0  0  0  0  0  0
  -26.1860  -13.0170   19.8000 N   0  0  0  0  0  0  0  0  0  0  0  0
  -25.8400  -11.7310   20.0620 N   0  0  0  0  0  0  0  0  0  0  0  0
  -23.8760  -10.5180   20.7590 C   0  0  0  0  0  0  0  0  0  0  0  0
  -24.3350   -9.5650   21.6950 C   0  0  0  0  0  3  0  0  0  0  0  0
  -23.6130   -8.3710   21.9130 C   0  0  0  0  0  3  0  0  0  0  0  0
  -22.4200   -8.1220   21.1940 C   0  0  0  0  0  0  0  0  0  0  0  0
  -21.9800   -9.0640   20.2480 C   0  0  0  0  0  3  0  0  0  0  0  0
  -22.7020  -10.2490   20.0290 C   0  0  0  0  0  3  0  0  0  0  0  0
  -21.6680   -6.9790   21.3220 O   0  0  0  0  0  0  0  0  0  0  0  0
  -21.5760   -6.3070   22.5150 C   0  0  0  0  0  0  0  0  0  0  0  0
  -21.0960   -6.9330   23.6860 C   0  0  0  0  0  3  0  0  0  0  0  0
  -20.9520   -6.1860   24.8730 C   0  0  0  0  0  3  0  0  0  0  0  0
  -21.2770   -4.8170   24.8880 C   0  0  0  0  0  0  0  0  0  0  0  0
  -21.7510   -4.1920   23.7210 C   0  0  0  0  0  3  0  0  0  0  0  0
  -21.8960   -4.9350   22.5370 C   0  0  0  0  0  0  0  0  0  0  0  0
  -22.3320   -4.3230   21.4100 F   0  0  0  0  0  0  0  0  0  0  0  0
  -21.1320   -4.0980   26.0270 F   0  0  0  0  0  0  0  0  0  0  0  0
  -22.8240  -13.6170   21.1280 C   0  0  0  0  0  0  0  0  0  0  0  0
  -22.2150  -12.9220   22.0830 N   0  0  0  0  0  0  0  0  0  0  0  0
  -22.3270  -14.6480   20.6770 O   0  0  0  0  0  0  0  0  0  0  0  0
  -22.6330  -12.0880   22.4680 H   0  0  0  0  0  0  0  0  0  0  0  0
  -21.3200  -13.2310   22.4350 H   0  0  0  0  0  0  0  0  0  0  0  0
  -25.3480  -15.2730   20.0280 N   0  0  0  0  0  0  0  0  0  0  0  0
  -24.5920  -15.9210   20.2210 H   0  0  0  0  0  0  0  0  0  0  0  0
  -26.1270  -15.7070   19.5490 H   0  0  0  0  0  0  0  0  0  0  0  0
  -31.8790  -23.2080   21.1700 C   0  0  0  0  0  1  0  0  0  0  0  0
  -31.1680  -23.2940   19.8150 C   0  0  0  0  0  2  0  0  0  0  0  0
  -28.4270  -25.1870   20.6920 C   0  0  0  0  0  2  0  0  0  0  0  0
  -28.4420  -26.4030   19.8360 O   0  0  0  0  0  0  0  0  0  0  0  0
  -24.5570  -31.7090   22.9440 C   0  0  0  0  0  0  0  0  0  0  0  0
  -27.3130  -27.2400   19.8690 C   0  0  0  0  0  0  0  0  0  0  0  0
  -23.4000  -30.2900   21.2870 C   0  0  0  0  0  3  0  0  0  0  0  0
  -24.9020  -28.7850   19.8590 C   0  0  0  0  0  0  0  0  0  0  0  0
  -25.9300  -30.6800   21.1160 C   0  0  0  0  0  2  0  0  0  0  0  0
  -26.0550  -29.3060   20.4630 C   0  0  0  0  0  0  0  0  0  0  0  0
  -27.2660  -28.5450   20.4560 C   0  0  0  0  0  3  0  0  0  0  0  0
  -26.1370  -26.7700   19.2500 C   0  0  0  0  0  3  0  0  0  0  0  0
  -24.9450  -27.5230   19.2440 C   0  0  0  0  0  3  0  0  0  0  0  0
  -23.6400  -29.6270   19.9050 C   0  0  0  0  0  2  0  0  0  0  0  0
  -24.6480  -30.9110   21.8390 N   0  0  0  0  0  0  0  0  0  0  0  0
  -23.4650  -31.9510   23.4770 O   0  0  0  0  0  0  0  0  0  0  0  0
  -22.7620  -29.2500   22.2390 C   0  0  0  0  0  0  0  0  0  0  0  0
  -21.4350  -29.0630   22.1290 N   0  0  0  0  0  0  0  0  0  0  0  0
  -23.4580  -28.6140   23.0340 O   0  0  0  0  0  0  0  0  0  0  0  0
  -20.9310  -29.6290   21.4610 H   0  0  0  0  0  0  0  0  0  0  0  0
  -18.0710  -27.8520   22.6850 C   0  0  0  0  0  0  0  0  0  0  0  0
  -20.6360  -28.1030   22.8920 C   0  0  0  0  0  3  0  0  0  0  0  0
  -20.7210  -26.6890   22.2700 C   0  0  0  0  0  2  0  0  0  0  0  0
  -19.5910  -26.3980   21.2770 C   0  0  0  0  0  2  0  0  0  0  0  0
  -18.2280  -26.5240   21.9630 C   0  0  0  0  0  2  0  0  0  0  0  0
  -19.2010  -28.6000   23.1080 C   0  0  0  0  0  0  0  0  0  0  0  0
  -19.0010  -29.8430   23.7450 C   0  0  0  0  0  3  0  0  0  0  0  0
  -17.7010  -30.3390   23.9630 C   0  0  0  0  0  3  0  0  0  0  0  0
  -16.5850  -29.5860   23.5570 C   0  0  0  0  0  3  0  0  0  0  0  0
  -16.7710  -28.3450   22.9240 C   0  0  0  0  0  3  0  0  0  0  0  0
  -25.8200  -32.3720   23.5780 C   0  0  0  0  0  3  0  0  0  0  0  0
  -26.4050  -31.5560   24.7950 C   0  0  1  0  0  0  0  0  0  0  0  0
  -25.3490  -31.1920   25.8660 C   0  0  0  0  0  1  0  0  0  0  0  0
  -27.0570  -30.2410   24.3100 C   0  0  0  0  0  1  0  0  0  0  0  0
  -27.5220  -32.3730   25.4850 C   0  0  0  0  0  1  0  0  0  0  0  0
  -25.4450  -33.7300   24.0000 N   0  0  0  0  0  0  0  0  0  0  0  0
  -25.6870  -34.8420   23.2930 C   0  0  0  0  0  0  0  0  0  0  0  0
  -26.3210  -34.8360   22.2350 O   0  0  0  0  0  0  0  0  0  0  0  0
  -24.8740  -33.8030   24.8300 H   0  0  0  0  0  0  0  0  0  0  0  0
  -23.8530  -36.5530   23.1060 C   0  0  0  0  0  1  0  0  0  0  0  0
  -25.1430  -36.1720   23.8490 C   0  0  0  0  0  3  0  0  0  0  0  0
  -27.2540  -37.1280   24.6630 C   0  0  0  0  0  1  0  0  0  0  0  0
  -26.1120  -37.2860   23.7660 N   0  0  0  0  0  0  0  0  0  0  0  0
  -25.6620  -38.1720   23.9780 H   0  0  0  0  0  0  0  0  0  0  0  0
  1  3  1  0
  1 52  1  0
  2 51  1  0
  2  1  1  0
  2  4  1  0
  3  4  1  0
  4  8  1  0
  5  8  1  0
  6  5  2  0
  6 10  1  0
  8  7  2  0
  9  7  1  0
  9 11  1  0
 10  9  2  0
 12 20  1  0
 13 18  1  0
 14 15  1  0
 14 13  1  0
 16 15  1  0
 16 25  1  0
 16 17  1  0
 18 12  1  0
 18 17  1  0
 19 12  2  0
 20 10  1  0
 20 21  1  0
 22 23  2  0
 23 42  1  0
 24 23  1  0
 24 27  1  0
 25 26  1  0
 25 22  1  0
 26 24  2  0
 27 28  1  0
 28 29  2  0
 30 33  1  0
 30 29  1  0
 31 30  2  0
 32 31  1  0
 32 27  2  0
 33 34  1  0
 34 39  2  0
 34 35  1  0
 35 36  2  0
 36 37  1  0
 37 41  1  0
 38 37  2  0
 39 38  1  0
 40 39  1  0
 42 43  1  0
 43 46  1  0
 43 45  1  0
 44 42  2  0
 47 22  1  0
 47 48  1  0
 49 47  1  0
 51 50  1  0
 53 55  1  0
 53 52  1  0
 54 65  2  0
 55 60  1  0
 56 64  1  0
 56 66  1  0
 57 63  1  0
 57 59  1  0
 58 64  1  0
 59 58  1  0
 60 59  2  0
 61 55  2  0
 62 61  1  0
 62 57  2  0
 63 56  1  0
 64 54  1  0
 66 68  2  0
 67 66  1  0
 69 67  1  0
 70 79  2  0
 70 75  1  0
 71 67  1  0
 71 75  1  0
 72 71  1  0
 73 74  1  0
 73 72  1  0
 74 70  1  0
 75 76  2  0
 76 77  1  0
 78 77  2  0
 79 78  1  0
 80 54  1  0
 80 85  1  0
 80 81  1  0
 81 84  1  1
 81 82  1  0
 83 81  1  0
 85 88  1  0
 86 90  1  0
 86 85  1  0
 87 86  2  0
 90 89  1  0
 92 90  1  0
 92 93  1  0
 92 91  1  0
M  ISO  4  12 100  20 100  52 101  53 101
M  END
>  <TORSDO>  (76) 
F 19

>  <SCORE>  (76) 
-10.264

>  <name>  (76) 
75

>  <ligand_id>  (76) 
75

>  <original_smiles>  (76) 
[H]c1c([H])c([H])c2c(c1[H])C([H])([H])C([H])([H])C([H])([H])C2([H])N([H])C(=O)C1([H])N(C(=O)C([H])(N([H])C(=O)C([H])(N([H])C([H])([H])[H])C([H])([H])[H])C(C([H])([H])[H])(C([H])([H])[H])C([H])([H])[H])C([H])([H])c2c([H])c(OC([H])([H])C3=C(C([H])([H])C([H])([H])[H])C([H])(c4c([H])c([H])c(N([H])C(=O)N5C([H])([H])C([H])([H])C([H])([H])C([H])(n6nc(-c7c([H])c([H])c(Oc8c([H])c([H])c(F)c([H])c8F)c([H])c7[H])c(C(=O)N([H])[H])c6N([H])[H])C5([H])[H])c(C([H])([H])[H])c4[H])C3([H])[H])c([H])c([H])c2C1([H])[H]

>  <smiles>  (76) 
[H]c1c([H])c([H])c2c(c1[H])C([H])([H])C([H])([H])C([H])([H])C2([H])N([H])C(=O)C1([H])N(C(=O)C([H])(N([H])C(=O)C([H])(N([H])C([H])([H])[H])C([H])([H])[H])C(C([H])([H])[H])(C([H])([H])[H])C([H])([H])[H])C([H])([H])c2c([H])c(OC([H])([H])C3=C(C([H])([H])C([H])([H])[H])C([H])(c4c([H])c([H])c(N([H])C(=O)N5C([H])([H])C([H])([H])C([H])([H])C([H])(n6nc(-c7c([H])c([H])c(Oc8c([H])c([H])c(F)c([H])c8F)c([H])c7[H])c(C(=O)N([H])[H])c6N([H])[H])C5([H])[H])c(C([H])([H])[H])c4[H])C3([H])[H])c([H])c([H])c2C1([H])[H]

$$$$
76:0:0
     RDKit          3D

 90 98  0  0  1  0  0  0  0  0999 V2000
  -29.7830  -19.4800   19.9840 C   0  0  0  0  0  3  0  0  0  0  0  0
  -30.5870  -18.0640   21.7930 C   0  0  0  0  0  3  0  0  0  0  0  0
  -30.6270  -20.5150   21.9940 C   0  0  0  0  0  3  0  0  0  0  0  0
  -30.0130  -18.1750   20.5080 C   0  0  0  0  0  0  0  0  0  0  0  0
  -30.0810  -20.6650   20.7010 C   0  0  0  0  0  0  0  0  0  0  0  0
  -30.8800  -19.2340   22.5360 C   0  0  0  0  0  0  0  0  0  0  0  0
  -31.4670  -19.1390   23.9310 C   0  0  0  0  0  1  0  0  0  0  0  0
  -29.5860  -17.0360   19.6490 C   0  0  0  0  0  3  0  0  0  0  0  0
  -29.7860  -15.6960   19.5160 C   0  0  0  0  0  3  0  0  0  0  0  0
  -30.6570  -14.6940   20.1510 C   0  0  0  0  0  0  0  0  0  0  0  0
  -30.4250  -12.4500   19.1810 C   0  0  0  0  0  2  0  0  0  0  0  0
  -29.4600  -12.5850   17.9800 C   0  0  0  0  0  2  0  0  0  0  0  0
  -27.9940  -12.4390   18.4350 C   0  0  0  0  0  2  0  0  0  0  0  0
  -27.6450  -13.3050   19.6730 C   0  0  0  0  0  3  0  0  0  0  0  0
  -28.7350  -13.1860   20.7660 C   0  0  0  0  0  2  0  0  0  0  0  0
  -30.0550  -13.4680   20.1760 N   0  0  0  0  0  0  0  0  0  0  0  0
  -31.8780  -14.8270   20.0870 O   0  0  0  0  0  0  0  0  0  0  0  0
  -25.2640  -13.9040   20.4230 C   0  0  0  0  0  0  0  0  0  0  0  0
  -24.2030  -13.1290   20.7980 C   0  0  0  0  0  0  0  0  0  0  0  0
  -24.6750  -11.7790   20.7720 C   0  0  0  0  0  0  0  0  0  0  0  0
  -26.3100  -13.0250   20.1840 N   0  0  0  0  0  0  0  0  0  0  0  0
  -25.9630  -11.7440   20.4580 N   0  0  0  0  0  0  0  0  0  0  0  0
  -23.9620  -10.5140   20.9680 C   0  0  0  0  0  0  0  0  0  0  0  0
  -24.3980   -9.5640   21.9170 C   0  0  0  0  0  3  0  0  0  0  0  0
  -23.6850   -8.3610   22.1030 C   0  0  0  0  0  3  0  0  0  0  0  0
  -22.5240   -8.0990   21.3380 C   0  0  0  0  0  0  0  0  0  0  0  0
  -22.1080   -9.0380   20.3770 C   0  0  0  0  0  3  0  0  0  0  0  0
  -22.8220  -10.2320   20.1900 C   0  0  0  0  0  3  0  0  0  0  0  0
  -21.7800   -6.9480   21.4340 O   0  0  0  0  0  0  0  0  0  0  0  0
  -21.7140   -6.2300   22.6010 C   0  0  0  0  0  0  0  0  0  0  0  0
  -21.2240   -6.7980   23.7980 C   0  0  0  0  0  3  0  0  0  0  0  0
  -21.1080   -6.0050   24.9570 C   0  0  0  0  0  3  0  0  0  0  0  0
  -21.4740   -4.6460   24.9210 C   0  0  0  0  0  0  0  0  0  0  0  0
  -21.9560   -4.0780   23.7280 C   0  0  0  0  0  3  0  0  0  0  0  0
  -22.0730   -4.8680   22.5720 C   0  0  0  0  0  0  0  0  0  0  0  0
  -22.5210   -4.3100   21.4200 F   0  0  0  0  0  0  0  0  0  0  0  0
  -21.3540   -3.8830   26.0320 F   0  0  0  0  0  0  0  0  0  0  0  0
  -22.8010  -13.5940   21.0700 C   0  0  0  0  0  0  0  0  0  0  0  0
  -22.0810  -12.8940   21.9390 N   0  0  0  0  0  0  0  0  0  0  0  0
  -22.3530  -14.6160   20.5490 O   0  0  0  0  0  0  0  0  0  0  0  0
  -22.4550  -12.0670   22.3790 H   0  0  0  0  0  0  0  0  0  0  0  0
  -21.1410  -13.1840   22.1670 H   0  0  0  0  0  0  0  0  0  0  0  0
  -25.4190  -15.2760   20.2400 N   0  0  0  0  0  0  0  0  0  0  0  0
  -24.6550  -15.9310   20.3660 H   0  0  0  0  0  0  0  0  0  0  0  0
  -26.2780  -15.7210   19.9390 H   0  0  0  0  0  0  0  0  0  0  0  0
  -29.8220  -22.0080   20.0990 C   0  0  0  0  0  3  0  0  0  0  0  0
  -29.7710  -23.2030   20.7410 C   0  0  0  0  0  3  0  0  0  0  0  0
  -29.6330  -24.5910   20.0860 C   0  0  0  0  0  2  0  0  0  0  0  0
  -28.3050  -25.3420   20.3730 C   0  0  0  0  0  2  0  0  0  0  0  0
  -28.4080  -26.7600   20.1050 O   0  0  0  0  0  0  0  0  0  0  0  0
  -24.5650  -31.9300   23.2170 C   0  0  0  0  0  0  0  0  0  0  0  0
  -27.2340  -27.4970   20.1120 C   0  0  0  0  0  0  0  0  0  0  0  0
  -23.3720  -30.5400   21.5560 C   0  0  0  0  0  3  0  0  0  0  0  0
  -24.8350  -29.0170   20.1270 C   0  0  0  0  0  0  0  0  0  0  0  0
  -25.9000  -30.8960   21.3820 C   0  0  0  0  0  2  0  0  0  0  0  0
  -25.9900  -29.5290   20.7310 C   0  0  0  0  0  0  0  0  0  0  0  0
  -27.1900  -28.7760   20.7220 C   0  0  0  0  0  3  0  0  0  0  0  0
  -26.0590  -27.0140   19.4900 C   0  0  0  0  0  3  0  0  0  0  0  0
  -24.8640  -27.7590   19.5050 C   0  0  0  0  0  3  0  0  0  0  0  0
  -23.5950  -29.8810   20.1700 C   0  0  0  0  0  2  0  0  0  0  0  0
  -24.6300  -31.1370   22.1090 N   0  0  0  0  0  0  0  0  0  0  0  0
  -23.4820  -32.1920   23.7560 O   0  0  0  0  0  0  0  0  0  0  0  0
  -22.7190  -29.5050   22.5030 C   0  0  0  0  0  0  0  0  0  0  0  0
  -21.3940  -29.3220   22.3740 N   0  0  0  0  0  0  0  0  0  0  0  0
  -23.4030  -28.8730   23.3120 O   0  0  0  0  0  0  0  0  0  0  0  0
  -20.8990  -29.8900   21.7010 H   0  0  0  0  0  0  0  0  0  0  0  0
  -18.0240  -28.1180   22.8700 C   0  0  0  0  0  0  0  0  0  0  0  0
  -20.5820  -28.3720   23.1350 C   0  0  0  0  0  3  0  0  0  0  0  0
  -20.6810  -26.9470   22.5410 C   0  0  0  0  0  2  0  0  0  0  0  0
  -19.5770  -26.6390   21.5260 C   0  0  0  0  0  2  0  0  0  0  0  0
  -18.1970  -26.7770   22.1770 C   0  0  0  0  0  2  0  0  0  0  0  0
  -19.1430  -28.8740   23.3070 C   0  0  0  0  0  0  0  0  0  0  0  0
  -18.9280  -30.1300   23.9150 C   0  0  0  0  0  3  0  0  0  0  0  0
  -17.6240  -30.6300   24.0900 C   0  0  0  0  0  3  0  0  0  0  0  0
  -16.5190  -29.8720   23.6690 C   0  0  0  0  0  3  0  0  0  0  0  0
  -16.7180  -28.6170   23.0660 C   0  0  0  0  0  3  0  0  0  0  0  0
  -25.8470  -32.5640   23.8430 C   0  0  0  0  0  3  0  0  0  0  0  0
  -26.3580  -31.7950   25.1230 C   0  0  1  0  0  0  0  0  0  0  0  0
  -25.2610  -31.5500   26.1830 C   0  0  0  0  0  1  0  0  0  0  0  0
  -26.9510  -30.4200   24.7370 C   0  0  0  0  0  1  0  0  0  0  0  0
  -27.5030  -32.5900   25.7930 C   0  0  0  0  0  1  0  0  0  0  0  0
  -25.5400  -33.9650   24.1640 N   0  0  0  0  0  0  0  0  0  0  0  0
  -25.8840  -35.0130   23.4040 C   0  0  0  0  0  0  0  0  0  0  0  0
  -26.5670  -34.9020   22.3820 O   0  0  0  0  0  0  0  0  0  0  0  0
  -24.9410  -34.1240   24.9610 H   0  0  0  0  0  0  0  0  0  0  0  0
  -24.1870  -36.8210   22.9890 C   0  0  0  0  0  1  0  0  0  0  0  0
  -25.3940  -36.4050   23.8450 C   0  0  0  0  0  3  0  0  0  0  0  0
  -27.5040  -37.2730   24.7530 C   0  0  0  0  0  1  0  0  0  0  0  0
  -26.4380  -37.4490   23.7710 N   0  0  0  0  0  0  0  0  0  0  0  0
  -26.0360  -38.3720   23.9030 H   0  0  0  0  0  0  0  0  0  0  0  0
  1  4  2  0
  1  5  1  0
  2  6  2  0
  3  6  1  0
  4  2  1  0
  5  3  2  0
  6  7  1  0
  8  4  1  0
  9  8  2  0
  9 10  1  0
 10 16  1  0
 11 16  1  0
 12 13  1  0
 12 11  1  0
 14 13  1  0
 14 21  1  0
 14 15  1  0
 16 15  1  0
 17 10  2  0
 18 19  2  0
 19 38  1  0
 20 19  1  0
 20 23  1  0
 21 18  1  0
 21 22  1  0
 22 20  2  0
 23 24  1  0
 24 25  2  0
 26 29  1  0
 26 25  1  0
 27 26  2  0
 28 27  1  0
 28 23  2  0
 29 30  1  0
 30 31  1  0
 31 32  2  0
 33 32  1  0
 33 37  1  0
 34 33  2  0
 35 30  2  0
 35 34  1  0
 36 35  1  0
 38 39  1  0
 39 42  1  0
 39 41  1  0
 40 38  2  0
 43 44  1  0
 43 18  1  0
 45 43  1  0
 46  5  1  0
 46 47  2  0
 48 49  1  0
 48 47  1  0
 50 52  1  0
 50 49  1  0
 51 62  2  0
 52 57  1  0
 53 61  1  0
 53 63  1  0
 54 60  1  0
 54 56  1  0
 55 61  1  0
 56 55  1  0
 57 56  2  0
 58 59  1  0
 58 52  2  0
 59 54  2  0
 60 53  1  0
 61 51  1  0
 63 65  2  0
 64 63  1  0
 66 64  1  0
 67 76  2  0
 67 72  1  0
 68 64  1  0
 68 72  1  0
 69 68  1  0
 70 71  1  0
 70 69  1  0
 71 67  1  0
 72 73  2  0
 73 74  1  0
 75 74  2  0
 76 75  1  0
 77 51  1  0
 77 82  1  0
 77 78  1  0
 78 81  1  1
 78 79  1  0
 80 78  1  0
 82 85  1  0
 83 87  1  0
 83 82  1  0
 84 83  2  0
 87 86  1  0
 89 87  1  0
 89 90  1  0
 89 88  1  0
M  ISO  4   9 100  10 100  49 101  50 101
M  END
>  <TORSDO>  (77) 
F 20

>  <SCORE>  (77) 
-13.369

>  <name>  (77) 
76

>  <ligand_id>  (77) 
76

>  <original_smiles>  (77) 
[H]C(C(=O)N1C([H])([H])C([H])([H])C([H])([H])C([H])(n2nc(-c3c([H])c([H])c(Oc4c([H])c([H])c(F)c([H])c4F)c([H])c3[H])c(C(=O)N([H])[H])c2N([H])[H])C1([H])[H])=C([H])c1c([H])c(C([H])=C([H])C([H])([H])C([H])([H])Oc2c([H])c([H])c3c(c2[H])C([H])([H])N(C(=O)C([H])(N([H])C(=O)C([H])(N([H])C([H])([H])[H])C([H])([H])[H])C(C([H])([H])[H])(C([H])([H])[H])C([H])([H])[H])C([H])(C(=O)N([H])C2([H])c4c([H])c([H])c([H])c([H])c4C([H])([H])C([H])([H])C2([H])[H])C3([H])[H])c([H])c(C([H])([H])[H])c1[H]

>  <smiles>  (77) 
[H]C(C(=O)N1C([H])([H])C([H])([H])C([H])([H])C([H])(n2nc(-c3c([H])c([H])c(Oc4c([H])c([H])c(F)c([H])c4F)c([H])c3[H])c(C(=O)N([H])[H])c2N([H])[H])C1([H])[H])=C([H])c1c([H])c(C([H])=C([H])C([H])([H])C([H])([H])Oc2c([H])c([H])c3c(c2[H])C([H])([H])N(C(=O)C([H])(N([H])C(=O)C([H])(N([H])C([H])([H])[H])C([H])([H])[H])C(C([H])([H])[H])(C([H])([H])[H])C([H])([H])[H])C([H])(C(=O)N([H])C2([H])c4c([H])c([H])c([H])c([H])c4C([H])([H])C([H])([H])C2([H])[H])C3([H])[H])c([H])c(C([H])([H])[H])c1[H]

$$$$
77:0:0
     RDKit          3D

 90 98  0  0  1  0  0  0  0  0999 V2000
  -28.4190  -20.8630   20.3230 C   0  0  0  0  0  3  0  0  0  0  0  0
  -28.7830  -19.5070   20.4940 C   0  0  0  0  0  3  0  0  0  0  0  0
  -31.1080  -20.1180   20.2470 C   0  0  0  0  0  3  0  0  0  0  0  0
  -29.3880  -21.8720   20.1050 C   0  0  0  0  0  0  0  0  0  0  0  0
  -30.7530  -21.4800   20.0770 C   0  0  0  0  0  0  0  0  0  0  0  0
  -30.1420  -19.1100   20.4560 C   0  0  0  0  0  0  0  0  0  0  0  0
  -31.8680  -22.4890   19.8660 C   0  0  0  0  0  1  0  0  0  0  0  0
  -28.9140  -23.3200   19.8400 C   0  0  0  0  0  2  0  0  0  0  0  0
  -29.3340  -24.3980   20.8790 C   0  0  0  0  0  2  0  0  0  0  0  0
  -28.3170  -25.5530   21.1210 C   0  0  0  0  0  2  0  0  0  0  0  0
  -28.3880  -26.6680   20.2120 O   0  0  0  0  0  0  0  0  0  0  0  0
  -24.5770  -31.9000   23.2410 C   0  0  0  0  0  0  0  0  0  0  0  0
  -27.2420  -27.4390   20.2020 C   0  0  0  0  0  0  0  0  0  0  0  0
  -23.3800  -30.4900   21.5960 C   0  0  0  0  0  3  0  0  0  0  0  0
  -24.8450  -28.9450   20.1870 C   0  0  0  0  0  0  0  0  0  0  0  0
  -25.9080  -30.8490   21.4130 C   0  0  0  0  0  2  0  0  0  0  0  0
  -26.0010  -29.4760   20.7760 C   0  0  0  0  0  0  0  0  0  0  0  0
  -27.2060  -28.7310   20.7770 C   0  0  0  0  0  3  0  0  0  0  0  0
  -26.0710  -26.9230   19.6080 C   0  0  0  0  0  3  0  0  0  0  0  0
  -24.8760  -27.6690   19.5980 C   0  0  0  0  0  3  0  0  0  0  0  0
  -23.5990  -29.8030   20.2220 C   0  0  0  0  0  2  0  0  0  0  0  0
  -24.6390  -31.0950   22.1410 N   0  0  0  0  0  0  0  0  0  0  0  0
  -23.4920  -32.1740   23.7740 O   0  0  0  0  0  0  0  0  0  0  0  0
  -22.7210  -29.4750   22.5590 C   0  0  0  0  0  0  0  0  0  0  0  0
  -21.3980  -29.2930   22.4250 N   0  0  0  0  0  0  0  0  0  0  0  0
  -23.3990  -28.8540   23.3820 O   0  0  0  0  0  0  0  0  0  0  0  0
  -20.9120  -29.8490   21.7360 H   0  0  0  0  0  0  0  0  0  0  0  0
  -18.0200  -28.0970   22.9030 C   0  0  0  0  0  0  0  0  0  0  0  0
  -20.5750  -28.3590   23.1940 C   0  0  0  0  0  3  0  0  0  0  0  0
  -20.6830  -26.9240   22.6280 C   0  0  0  0  0  2  0  0  0  0  0  0
  -19.5910  -26.5950   21.6060 C   0  0  0  0  0  2  0  0  0  0  0  0
  -18.2040  -26.7430   22.2380 C   0  0  0  0  0  2  0  0  0  0  0  0
  -19.1350  -28.8630   23.3380 C   0  0  0  0  0  0  0  0  0  0  0  0
  -18.9120  -30.1290   23.9190 C   0  0  0  0  0  3  0  0  0  0  0  0
  -17.6050  -30.6310   24.0700 C   0  0  0  0  0  3  0  0  0  0  0  0
  -16.5050  -29.8630   23.6530 C   0  0  0  0  0  3  0  0  0  0  0  0
  -16.7140  -28.5970   23.0760 C   0  0  0  0  0  3  0  0  0  0  0  0
  -25.8590  -32.5340   23.8660 C   0  0  0  0  0  3  0  0  0  0  0  0
  -25.5480  -33.9320   24.1900 N   0  0  0  0  0  0  0  0  0  0  0  0
  -25.8890  -34.9840   23.4310 C   0  0  0  0  0  0  0  0  0  0  0  0
  -26.5670  -34.8770   22.4060 O   0  0  0  0  0  0  0  0  0  0  0  0
  -24.9460  -34.0890   24.9850 H   0  0  0  0  0  0  0  0  0  0  0  0
  -24.1650  -36.7770   23.0560 C   0  0  0  0  0  1  0  0  0  0  0  0
  -25.3980  -36.3740   23.8810 C   0  0  0  0  0  3  0  0  0  0  0  0
  -27.5260  -37.2570   24.7280 C   0  0  0  0  0  1  0  0  0  0  0  0
  -26.4320  -37.4250   23.7740 N   0  0  0  0  0  0  0  0  0  0  0  0
  -26.0260  -38.3460   23.9160 H   0  0  0  0  0  0  0  0  0  0  0  0
  -26.3730  -31.7650   25.1440 C   0  0  1  0  0  0  0  0  0  0  0  0
  -25.2800  -31.5280   26.2110 C   0  0  0  0  0  1  0  0  0  0  0  0
  -26.9590  -30.3880   24.7550 C   0  0  0  0  0  1  0  0  0  0  0  0
  -27.5210  -32.5600   25.8080 C   0  0  0  0  0  1  0  0  0  0  0  0
  -30.5940  -17.8050   20.6060 O   0  0  0  0  0  0  0  0  0  0  0  0
  -29.6830  -16.7930   21.0610 C   0  0  0  0  0  2  0  0  0  0  0  0
  -30.3850  -15.4770   21.5080 C   0  0  0  0  0  2  0  0  0  0  0  0
  -30.7600  -14.4640   20.3940 C   0  0  0  0  0  0  0  0  0  0  0  0
  -30.3750  -12.3810   19.0950 C   0  0  0  0  0  2  0  0  0  0  0  0
  -29.4090  -12.6260   17.9200 C   0  0  0  0  0  2  0  0  0  0  0  0
  -27.9470  -12.4740   18.3750 C   0  0  0  0  0  2  0  0  0  0  0  0
  -27.6450  -13.2780   19.6660 C   0  0  0  0  0  3  0  0  0  0  0  0
  -28.7140  -13.0070   20.7460 C   0  0  0  0  0  2  0  0  0  0  0  0
  -30.0360  -13.3240   20.1770 N   0  0  0  0  0  0  0  0  0  0  0  0
  -31.7770  -14.7090   19.7380 O   0  0  0  0  0  0  0  0  0  0  0  0
  -25.2620  -13.8970   20.4150 C   0  0  0  0  0  0  0  0  0  0  0  0
  -24.1970  -13.1310   20.8060 C   0  0  0  0  0  0  0  0  0  0  0  0
  -24.6520  -11.7760   20.7690 C   0  0  0  0  0  0  0  0  0  0  0  0
  -26.2980  -13.0100   20.1660 N   0  0  0  0  0  0  0  0  0  0  0  0
  -25.9360  -11.7300   20.4350 N   0  0  0  0  0  0  0  0  0  0  0  0
  -23.9250  -10.5180   20.9800 C   0  0  0  0  0  0  0  0  0  0  0  0
  -24.3740   -9.5500   21.9060 C   0  0  0  0  0  3  0  0  0  0  0  0
  -23.6470   -8.3570   22.1020 C   0  0  0  0  0  3  0  0  0  0  0  0
  -22.4580   -8.1210   21.3720 C   0  0  0  0  0  0  0  0  0  0  0  0
  -22.0300   -9.0770   20.4340 C   0  0  0  0  0  3  0  0  0  0  0  0
  -22.7560  -10.2630   20.2370 C   0  0  0  0  0  3  0  0  0  0  0  0
  -21.7030   -6.9780   21.4750 O   0  0  0  0  0  0  0  0  0  0  0  0
  -21.6740   -6.2360   22.6290 C   0  0  0  0  0  0  0  0  0  0  0  0
  -21.2870   -6.7980   23.8650 C   0  0  0  0  0  3  0  0  0  0  0  0
  -21.2040   -5.9850   25.0130 C   0  0  0  0  0  3  0  0  0  0  0  0
  -21.4990   -4.6120   24.9250 C   0  0  0  0  0  0  0  0  0  0  0  0
  -21.8800   -4.0480   23.6940 C   0  0  0  0  0  3  0  0  0  0  0  0
  -21.9640   -4.8590   22.5470 C   0  0  0  0  0  0  0  0  0  0  0  0
  -22.3110   -4.3080   21.3590 F   0  0  0  0  0  0  0  0  0  0  0  0
  -21.4110   -3.8280   26.0240 F   0  0  0  0  0  0  0  0  0  0  0  0
  -22.8080  -13.6140   21.1040 C   0  0  0  0  0  0  0  0  0  0  0  0
  -22.0950  -12.9230   21.9850 N   0  0  0  0  0  0  0  0  0  0  0  0
  -22.3620  -14.6380   20.5880 O   0  0  0  0  0  0  0  0  0  0  0  0
  -22.4720  -12.0950   22.4210 H   0  0  0  0  0  0  0  0  0  0  0  0
  -21.1620  -13.2260   22.2290 H   0  0  0  0  0  0  0  0  0  0  0  0
  -25.4310  -15.2670   20.2330 N   0  0  0  0  0  0  0  0  0  0  0  0
  -24.6700  -15.9270   20.3480 H   0  0  0  0  0  0  0  0  0  0  0  0
  -26.2770  -15.6940   19.8770 H   0  0  0  0  0  0  0  0  0  0  0  0
  1  2  1  0
  3  6  1  0
  4  1  2  0
  5  4  1  0
  5  3  2  0
  6  2  2  0
  6 52  1  0
  7  5  1  0
  8  4  1  0
  8  9  1  0
  9 10  1  0
 11 10  1  0
 12 23  2  0
 13 11  1  0
 13 18  1  0
 14 22  1  0
 14 24  1  0
 15 21  1  0
 15 17  1  0
 16 22  1  0
 17 18  2  0
 17 16  1  0
 19 13  2  0
 20 19  1  0
 20 15  2  0
 21 14  1  0
 22 12  1  0
 24 26  2  0
 25 24  1  0
 27 25  1  0
 28 37  2  0
 28 33  1  0
 29 25  1  0
 29 33  1  0
 30 29  1  0
 31 32  1  0
 31 30  1  0
 32 28  1  0
 33 34  2  0
 34 35  1  0
 36 35  2  0
 37 36  1  0
 38 12  1  0
 38 39  1  0
 38 48  1  0
 39 42  1  0
 40 44  1  0
 40 39  1  0
 41 40  2  0
 44 43  1  0
 46 44  1  0
 46 47  1  0
 46 45  1  0
 48 51  1  1
 48 49  1  0
 50 48  1  0
 52 53  1  0
 53 54  1  0
 55 54  1  0
 56 61  1  0
 57 58  1  0
 57 56  1  0
 59 58  1  0
 59 66  1  0
 59 60  1  0
 61 55  1  0
 61 60  1  0
 62 55  2  0
 63 64  2  0
 64 83  1  0
 65 64  1  0
 65 68  1  0
 66 63  1  0
 66 67  1  0
 67 65  2  0
 68 69  1  0
 69 70  2  0
 71 74  1  0
 71 70  1  0
 72 71  2  0
 73 72  1  0
 73 68  2  0
 74 75  1  0
 75 76  1  0
 76 77  2  0
 78 77  1  0
 78 82  1  0
 79 78  2  0
 80 75  2  0
 80 79  1  0
 81 80  1  0
 83 84  1  0
 84 87  1  0
 84 86  1  0
 85 83  2  0
 88 89  1  0
 88 63  1  0
 90 88  1  0
M  ISO  4  10 101  11 101  54 100  55 100
M  END
>  <TORSDO>  (78) 
F 22

>  <SCORE>  (78) 
-13.327

>  <name>  (78) 
77

>  <ligand_id>  (78) 
77

>  <original_smiles>  (78) 
[H]c1c([H])c([H])c2c(c1[H])C([H])([H])C([H])([H])C([H])([H])C2([H])N([H])C(=O)C1([H])N(C(=O)C([H])(N([H])C(=O)C([H])(N([H])C([H])([H])[H])C([H])([H])[H])C(C([H])([H])[H])(C([H])([H])[H])C([H])([H])[H])C([H])([H])c2c([H])c(OC([H])([H])C([H])([H])C([H])([H])c3c([H])c([H])c(OC([H])([H])C([H])([H])C(=O)N4C([H])([H])C([H])([H])C([H])([H])C([H])(n5nc(-c6c([H])c([H])c(Oc7c([H])c([H])c(F)c([H])c7F)c([H])c6[H])c(C(=O)N([H])[H])c5N([H])[H])C4([H])[H])c([H])c3C([H])([H])[H])c([H])c([H])c2C1([H])[H]

>  <smiles>  (78) 
[H]c1c([H])c([H])c2c(c1[H])C([H])([H])C([H])([H])C([H])([H])C2([H])N([H])C(=O)C1([H])N(C(=O)C([H])(N([H])C(=O)C([H])(N([H])C([H])([H])[H])C([H])([H])[H])C(C([H])([H])[H])(C([H])([H])[H])C([H])([H])[H])C([H])([H])c2c([H])c(OC([H])([H])C([H])([H])C([H])([H])c3c([H])c([H])c(OC([H])([H])C([H])([H])C(=O)N4C([H])([H])C([H])([H])C([H])([H])C([H])(n5nc(-c6c([H])c([H])c(Oc7c([H])c([H])c(F)c([H])c7F)c([H])c6[H])c(C(=O)N([H])[H])c5N([H])[H])C4([H])[H])c([H])c3C([H])([H])[H])c([H])c([H])c2C1([H])[H]

$$$$
78:0:0
     RDKit          3D

 89 97  0  0  1  0  0  0  0  0999 V2000
  -28.8220  -21.0060   20.0660 C   0  0  0  0  0  3  0  0  0  0  0  0
  -29.2150  -22.3200   20.3080 C   0  0  0  0  0  3  0  0  0  0  0  0
  -30.8030  -19.3450   20.5900 C   0  0  0  0  0  3  0  0  0  0  0  0
  -29.4820  -19.6140   20.3260 C   0  0  0  0  0  0  0  0  0  0  0  0
  -28.8660  -18.2860   20.3070 C   0  0  0  0  0  0  0  0  0  0  0  0
  -29.8710  -17.3220   20.4790 C   0  0  0  0  0  0  0  0  0  0  0  0
  -27.4000  -18.0110   20.1160 C   0  0  0  0  0  1  0  0  0  0  0  0
  -31.0600  -17.9790   20.6560 O   0  0  0  0  0  0  0  0  0  0  0  0
  -30.5460  -14.8270   20.3010 C   0  0  0  0  0  0  0  0  0  0  0  0
  -30.3810  -12.5490   19.2600 C   0  0  0  0  0  2  0  0  0  0  0  0
  -29.4120  -12.6170   18.0570 C   0  0  0  0  0  2  0  0  0  0  0  0
  -27.9540  -12.4180   18.5170 C   0  0  0  0  0  2  0  0  0  0  0  0
  -27.5960  -13.2870   19.7510 C   0  0  0  0  0  3  0  0  0  0  0  0
  -28.6790  -13.1920   20.8470 C   0  0  0  0  0  2  0  0  0  0  0  0
  -29.9550  -13.5810   20.2350 N   0  0  0  0  0  0  0  0  0  0  0  0
  -31.7310  -14.9530   19.9730 O   0  0  0  0  0  0  0  0  0  0  0  0
  -29.7050  -15.9200   20.5160 N   0  0  0  0  0  0  0  0  0  0  0  0
  -28.7520  -15.6320   20.6700 H   0  0  0  0  0  0  0  0  0  0  0  0
  -25.2160  -13.8560   20.5220 C   0  0  0  0  0  0  0  0  0  0  0  0
  -24.1650  -13.0740   20.9120 C   0  0  0  0  0  0  0  0  0  0  0  0
  -24.6370  -11.7260   20.8650 C   0  0  0  0  0  0  0  0  0  0  0  0
  -26.2630  -12.9860   20.2640 N   0  0  0  0  0  0  0  0  0  0  0  0
  -25.9230  -11.7000   20.5320 N   0  0  0  0  0  0  0  0  0  0  0  0
  -23.9220  -10.4600   21.0570 C   0  0  0  0  0  0  0  0  0  0  0  0
  -24.3730   -9.4890   21.9770 C   0  0  0  0  0  3  0  0  0  0  0  0
  -23.6560   -8.2870   22.1580 C   0  0  0  0  0  3  0  0  0  0  0  0
  -22.4740   -8.0480   21.4190 C   0  0  0  0  0  0  0  0  0  0  0  0
  -22.0410   -9.0080   20.4880 C   0  0  0  0  0  3  0  0  0  0  0  0
  -22.7580  -10.2020   20.3050 C   0  0  0  0  0  3  0  0  0  0  0  0
  -21.7260   -6.8990   21.5110 O   0  0  0  0  0  0  0  0  0  0  0  0
  -21.6990   -6.1490   22.6590 C   0  0  0  0  0  0  0  0  0  0  0  0
  -21.2760   -6.6910   23.8930 C   0  0  0  0  0  3  0  0  0  0  0  0
  -21.1960   -5.8670   25.0330 C   0  0  0  0  0  3  0  0  0  0  0  0
  -21.5290   -4.5020   24.9420 C   0  0  0  0  0  0  0  0  0  0  0  0
  -21.9440   -3.9600   23.7130 C   0  0  0  0  0  3  0  0  0  0  0  0
  -22.0260   -4.7810   22.5740 C   0  0  0  0  0  0  0  0  0  0  0  0
  -22.4070   -4.2480   21.3880 F   0  0  0  0  0  0  0  0  0  0  0  0
  -21.4440   -3.7090   26.0340 F   0  0  0  0  0  0  0  0  0  0  0  0
  -22.7700  -13.5430   21.2080 C   0  0  0  0  0  0  0  0  0  0  0  0
  -22.0600  -12.8380   22.0820 N   0  0  0  0  0  0  0  0  0  0  0  0
  -22.3200  -14.5710   20.7030 O   0  0  0  0  0  0  0  0  0  0  0  0
  -22.4360  -12.0070   22.5100 H   0  0  0  0  0  0  0  0  0  0  0  0
  -21.1260  -13.1360   22.3250 H   0  0  0  0  0  0  0  0  0  0  0  0
  -25.3560  -15.2250   20.3350 N   0  0  0  0  0  0  0  0  0  0  0  0
  -24.5560  -15.8440   20.4140 H   0  0  0  0  0  0  0  0  0  0  0  0
  -26.1360  -15.6470   19.8500 H   0  0  0  0  0  0  0  0  0  0  0  0
  -28.5650  -23.6950   19.7810 C   0  0  0  0  0  2  0  0  0  0  0  0
  -28.2830  -25.0020   20.7110 C   0  0  0  0  0  2  0  0  0  0  0  0
  -28.3620  -26.4220   20.2010 O   0  0  0  0  0  0  0  0  0  0  0  0
  -24.6160  -31.9030   23.2090 C   0  0  0  0  0  0  0  0  0  0  0  0
  -27.2390  -27.2810   20.2080 C   0  0  0  0  0  0  0  0  0  0  0  0
  -23.4190  -30.4920   21.5750 C   0  0  0  0  0  3  0  0  0  0  0  0
  -24.8770  -28.9190   20.1700 C   0  0  0  0  0  0  0  0  0  0  0  0
  -25.9620  -30.8020   21.3960 C   0  0  0  0  0  2  0  0  0  0  0  0
  -26.0470  -29.4120   20.7610 C   0  0  0  0  0  0  0  0  0  0  0  0
  -27.2330  -28.6100   20.7590 C   0  0  0  0  0  3  0  0  0  0  0  0
  -26.0460  -26.8460   19.5980 C   0  0  0  0  0  3  0  0  0  0  0  0
  -24.8820  -27.6450   19.5770 C   0  0  0  0  0  3  0  0  0  0  0  0
  -23.6420  -29.8010   20.2040 C   0  0  0  0  0  2  0  0  0  0  0  0
  -24.6850  -31.0840   22.1170 N   0  0  0  0  0  0  0  0  0  0  0  0
  -23.5310  -32.1850   23.7380 O   0  0  0  0  0  0  0  0  0  0  0  0
  -22.7510  -29.4850   22.5430 C   0  0  0  0  0  0  0  0  0  0  0  0
  -21.4240  -29.3120   22.4190 N   0  0  0  0  0  0  0  0  0  0  0  0
  -23.4280  -28.8610   23.3650 O   0  0  0  0  0  0  0  0  0  0  0  0
  -20.9390  -29.8630   21.7250 H   0  0  0  0  0  0  0  0  0  0  0  0
  -18.0410  -28.1390   22.9360 C   0  0  0  0  0  0  0  0  0  0  0  0
  -20.6030  -28.3800   23.1930 C   0  0  0  0  0  3  0  0  0  0  0  0
  -20.6930  -26.9490   22.6140 C   0  0  0  0  0  2  0  0  0  0  0  0
  -19.5840  -26.6350   21.6060 C   0  0  0  0  0  2  0  0  0  0  0  0
  -18.2050  -26.7880   22.2580 C   0  0  0  0  0  2  0  0  0  0  0  0
  -19.1670  -28.8930   23.3600 C   0  0  0  0  0  0  0  0  0  0  0  0
  -18.9600  -30.1550   23.9580 C   0  0  0  0  0  3  0  0  0  0  0  0
  -17.6600  -30.6640   24.1340 C   0  0  0  0  0  3  0  0  0  0  0  0
  -16.5480  -29.9070   23.7270 C   0  0  0  0  0  3  0  0  0  0  0  0
  -16.7390  -28.6470   23.1320 C   0  0  0  0  0  3  0  0  0  0  0  0
  -25.8950  -32.5420   23.8320 C   0  0  0  0  0  3  0  0  0  0  0  0
  -26.4050  -31.7830   25.1200 C   0  0  1  0  0  0  0  0  0  0  0  0
  -25.3050  -31.5570   26.1820 C   0  0  0  0  0  1  0  0  0  0  0  0
  -26.9880  -30.4010   24.7420 C   0  0  0  0  0  1  0  0  0  0  0  0
  -27.5520  -32.5840   25.7810 C   0  0  0  0  0  1  0  0  0  0  0  0
  -25.5830  -33.9430   24.1510 N   0  0  0  0  0  0  0  0  0  0  0  0
  -25.9200  -34.9920   23.3890 C   0  0  0  0  0  0  0  0  0  0  0  0
  -26.5920  -34.8830   22.3610 O   0  0  0  0  0  0  0  0  0  0  0  0
  -24.9840  -34.1050   24.9480 H   0  0  0  0  0  0  0  0  0  0  0  0
  -24.1980  -36.7900   23.0140 C   0  0  0  0  0  1  0  0  0  0  0  0
  -25.4310  -36.3850   23.8370 C   0  0  0  0  0  3  0  0  0  0  0  0
  -27.5590  -37.2700   24.6850 C   0  0  0  0  0  1  0  0  0  0  0  0
  -26.4660  -37.4340   23.7290 N   0  0  0  0  0  0  0  0  0  0  0  0
  -26.0610  -38.3560   23.8690 H   0  0  0  0  0  0  0  0  0  0  0  0
  1  2  2  0
  1  4  1  0
  3  8  1  0
  4  3  2  0
  5  4  1  0
  5  6  2  0
  6 17  1  0
  6  8  1  0
  7  5  1  0
  9 17  1  0
 10 15  1  0
 11 12  1  0
 11 10  1  0
 13 12  1  0
 13 22  1  0
 13 14  1  0
 15  9  1  0
 15 14  1  0
 16  9  2  0
 17 18  1  0
 19 20  2  0
 20 39  1  0
 21 20  1  0
 21 24  1  0
 22 19  1  0
 22 23  1  0
 23 21  2  0
 24 25  1  0
 25 26  2  0
 27 30  1  0
 27 26  1  0
 28 27  2  0
 29 28  1  0
 29 24  2  0
 30 31  1  0
 31 32  1  0
 32 33  2  0
 34 33  1  0
 34 38  1  0
 35 34  2  0
 36 31  2  0
 36 35  1  0
 37 36  1  0
 39 40  1  0
 40 43  1  0
 40 42  1  0
 41 39  2  0
 44 45  1  0
 44 19  1  0
 46 44  1  0
 47  2  1  0
 47 48  1  0
 49 51  1  0
 49 48  1  0
 50 61  2  0
 51 56  1  0
 52 60  1  0
 52 62  1  0
 53 59  1  0
 53 55  1  0
 54 60  1  0
 55 54  1  0
 56 55  2  0
 57 51  2  0
 58 57  1  0
 58 53  2  0
 59 52  1  0
 60 50  1  0
 62 64  2  0
 63 62  1  0
 65 63  1  0
 66 75  2  0
 66 71  1  0
 67 63  1  0
 67 71  1  0
 68 67  1  0
 69 70  1  0
 69 68  1  0
 70 66  1  0
 71 72  2  0
 72 73  1  0
 74 73  2  0
 75 74  1  0
 76 50  1  0
 76 81  1  0
 76 77  1  0
 77 80  1  1
 77 78  1  0
 79 77  1  0
 81 84  1  0
 82 86  1  0
 82 81  1  0
 83 82  2  0
 86 85  1  0
 88 86  1  0
 88 89  1  0
 88 87  1  0
M  ISO  4   9 100  17 100  48 101  49 101
M  END
>  <TORSDO>  (79) 
F 19

>  <SCORE>  (79) 
-14.435

>  <name>  (79) 
78

>  <ligand_id>  (79) 
78

>  <original_smiles>  (79) 
[H]C(=C([H])C([H])([H])C([H])([H])Oc1c([H])c([H])c2c(c1[H])C([H])([H])N(C(=O)C([H])(N([H])C(=O)C([H])(N([H])C([H])([H])[H])C([H])([H])[H])C(C([H])([H])[H])(C([H])([H])[H])C([H])([H])[H])C([H])(C(=O)N([H])C1([H])c3c([H])c([H])c([H])c([H])c3C([H])([H])C([H])([H])C1([H])[H])C2([H])[H])c1c([H])oc(N([H])C(=O)N2C([H])([H])C([H])([H])C([H])([H])C([H])(n3nc(-c4c([H])c([H])c(Oc5c([H])c([H])c(F)c([H])c5F)c([H])c4[H])c(C(=O)N([H])[H])c3N([H])[H])C2([H])[H])c1C([H])([H])[H]

>  <smiles>  (79) 
[H]C(=C([H])C([H])([H])C([H])([H])Oc1c([H])c([H])c2c(c1[H])C([H])([H])N(C(=O)C([H])(N([H])C(=O)C([H])(N([H])C([H])([H])[H])C([H])([H])[H])C(C([H])([H])[H])(C([H])([H])[H])C([H])([H])[H])C([H])(C(=O)N([H])C1([H])c3c([H])c([H])c([H])c([H])c3C([H])([H])C([H])([H])C1([H])[H])C2([H])[H])c1c([H])oc(N([H])C(=O)N2C([H])([H])C([H])([H])C([H])([H])C([H])(n3nc(-c4c([H])c([H])c(Oc5c([H])c([H])c(F)c([H])c5F)c([H])c4[H])c(C(=O)N([H])[H])c3N([H])[H])C2([H])[H])c1C([H])([H])[H]

$$$$
79:0:0
     RDKit          3D

 91 99  0  0  1  0  0  0  0  0999 V2000
  -30.8500  -18.4820   20.0800 C   0  0  0  0  0  3  0  0  0  0  0  0
  -30.7470  -19.9180   19.8930 C   0  0  0  0  0  3  0  0  0  0  0  0
  -28.4340  -19.7060   19.4910 C   0  0  0  0  0  3  0  0  0  0  0  0
  -29.7510  -17.5630   19.9770 C   0  0  0  0  0  0  0  0  0  0  0  0
  -29.5260  -20.6070   19.5880 C   0  0  0  0  0  0  0  0  0  0  0  0
  -28.5210  -18.2760   19.6770 C   0  0  0  0  0  0  0  0  0  0  0  0
  -29.7900  -16.0030   20.3560 C   0  0  0  0  0  0  0  0  0  0  0  0
  -29.3480  -15.7180   21.5110 N   0  0  0  0  0  0  0  0  0  0  0  0
  -29.0200  -16.5540   21.9780 H   0  0  0  0  0  0  0  0  0  0  0  0
  -30.3850  -14.7610   19.4820 C   0  0  0  0  0  0  0  0  0  0  0  0
  -30.1680  -12.4290   18.5340 C   0  0  0  0  0  2  0  0  0  0  0  0
  -29.0790  -12.3940   17.4360 C   0  0  0  0  0  2  0  0  0  0  0  0
  -27.6880  -12.1540   18.0500 C   0  0  0  0  0  2  0  0  0  0  0  0
  -27.4280  -13.0660   19.2750 C   0  0  0  0  0  3  0  0  0  0  0  0
  -28.6170  -13.0450   20.2590 C   0  0  0  0  0  2  0  0  0  0  0  0
  -29.8170  -13.4880   19.5260 N   0  0  0  0  0  0  0  0  0  0  0  0
  -31.4080  -14.9260   18.8060 O   0  0  0  0  0  0  0  0  0  0  0  0
  -25.1720  -13.6040   20.3750 C   0  0  0  0  0  0  0  0  0  0  0  0
  -24.1720  -12.8080   20.8610 C   0  0  0  0  0  0  0  0  0  0  0  0
  -24.6140  -11.4640   20.6750 C   0  0  0  0  0  0  0  0  0  0  0  0
  -26.1660  -12.7440   19.9370 N   0  0  0  0  0  0  0  0  0  0  0  0
  -25.8430  -11.4460   20.1730 N   0  0  0  0  0  0  0  0  0  0  0  0
  -23.9100  -10.1930   20.8890 C   0  0  0  0  0  0  0  0  0  0  0  0
  -24.3860   -9.2300   21.8050 C   0  0  0  0  0  3  0  0  0  0  0  0
  -23.6810   -8.0250   22.0090 C   0  0  0  0  0  3  0  0  0  0  0  0
  -22.4850   -7.7730   21.2960 C   0  0  0  0  0  0  0  0  0  0  0  0
  -22.0260   -8.7260   20.3700 C   0  0  0  0  0  3  0  0  0  0  0  0
  -22.7320   -9.9220   20.1630 C   0  0  0  0  0  3  0  0  0  0  0  0
  -21.7470   -6.6200   21.4110 O   0  0  0  0  0  0  0  0  0  0  0  0
  -21.6410   -5.9490   22.6020 C   0  0  0  0  0  0  0  0  0  0  0  0
  -21.1080   -6.5610   23.7570 C   0  0  0  0  0  3  0  0  0  0  0  0
  -20.9520   -5.8150   24.9420 C   0  0  0  0  0  3  0  0  0  0  0  0
  -21.3190   -4.4560   24.9720 C   0  0  0  0  0  0  0  0  0  0  0  0
  -21.8440   -3.8420   23.8210 C   0  0  0  0  0  3  0  0  0  0  0  0
  -22.0010   -4.5870   22.6390 C   0  0  0  0  0  0  0  0  0  0  0  0
  -22.4890   -3.9850   21.5270 F   0  0  0  0  0  0  0  0  0  0  0  0
  -21.1630   -3.7360   26.1080 F   0  0  0  0  0  0  0  0  0  0  0  0
  -22.8380  -13.2690   21.3720 C   0  0  0  0  0  0  0  0  0  0  0  0
  -22.2480  -12.5260   22.3020 N   0  0  0  0  0  0  0  0  0  0  0  0
  -22.3330  -14.3230   20.9850 O   0  0  0  0  0  0  0  0  0  0  0  0
  -22.6700  -11.6720   22.6340 H   0  0  0  0  0  0  0  0  0  0  0  0
  -21.3620  -12.8170   22.6880 H   0  0  0  0  0  0  0  0  0  0  0  0
  -25.3010  -14.9810   20.2390 N   0  0  0  0  0  0  0  0  0  0  0  0
  -24.5390  -15.6100   20.4650 H   0  0  0  0  0  0  0  0  0  0  0  0
  -26.0560  -15.4350   19.7440 H   0  0  0  0  0  0  0  0  0  0  0  0
  -26.2090  -17.8410   20.6590 C   0  0  0  0  0  1  0  0  0  0  0  0
  -27.1890  -17.5530   19.5130 C   0  0  0  0  0  2  0  0  0  0  0  0
  -29.4160  -22.1540   19.1020 C   0  0  0  0  0  2  0  0  0  0  0  0
  -29.1790  -23.5220   19.9890 C   0  0  0  0  0  3  0  0  0  0  0  0
  -28.5240  -24.8530   19.2590 C   0  0  0  0  0  3  0  0  0  0  0  0
  -28.5810  -26.3040   19.7420 O   0  0  0  0  0  0  0  0  0  0  0  0
  -24.6830  -31.5970   22.9250 C   0  0  0  0  0  0  0  0  0  0  0  0
  -27.4590  -27.1910   19.6800 C   0  0  0  0  0  0  0  0  0  0  0  0
  -23.5400  -30.2410   21.2120 C   0  0  0  0  0  3  0  0  0  0  0  0
  -25.0510  -28.8000   19.7250 C   0  0  0  0  0  0  0  0  0  0  0  0
  -26.0780  -30.6210   21.0760 C   0  0  0  0  0  2  0  0  0  0  0  0
  -26.2060  -29.2720   20.3580 C   0  0  0  0  0  0  0  0  0  0  0  0
  -27.4070  -28.4830   20.3240 C   0  0  0  0  0  3  0  0  0  0  0  0
  -26.2760  -26.8100   19.0020 C   0  0  0  0  0  3  0  0  0  0  0  0
  -25.0930  -27.5770   19.0370 C   0  0  0  0  0  3  0  0  0  0  0  0
  -23.7920  -29.6410   19.8040 C   0  0  0  0  0  2  0  0  0  0  0  0
  -24.7860  -30.8370   21.7940 N   0  0  0  0  0  0  0  0  0  0  0  0
  -23.5840  -31.8170   23.4590 O   0  0  0  0  0  0  0  0  0  0  0  0
  -22.8950  -29.1620   22.1170 C   0  0  0  0  0  0  0  0  0  0  0  0
  -21.5610  -29.0140   22.0320 N   0  0  0  0  0  0  0  0  0  0  0  0
  -23.5940  -28.4650   22.8580 O   0  0  0  0  0  0  0  0  0  0  0  0
  -21.0570  -29.6290   21.4100 H   0  0  0  0  0  0  0  0  0  0  0  0
  -18.1800  -27.8650   22.6360 C   0  0  0  0  0  0  0  0  0  0  0  0
  -20.7580  -28.0280   22.7600 C   0  0  0  0  0  3  0  0  0  0  0  0
  -20.7760  -26.6570   22.0440 C   0  0  0  0  0  2  0  0  0  0  0  0
  -19.6030  -26.4670   21.0780 C   0  0  0  0  0  2  0  0  0  0  0  0
  -18.2690  -26.5840   21.8220 C   0  0  0  0  0  2  0  0  0  0  0  0
  -19.3480  -28.5510   23.0630 C   0  0  0  0  0  0  0  0  0  0  0  0
  -19.2080  -29.7530   23.7880 C   0  0  0  0  0  3  0  0  0  0  0  0
  -17.9340  -30.2690   24.0900 C   0  0  0  0  0  3  0  0  0  0  0  0
  -16.7800  -29.5770   23.6780 C   0  0  0  0  0  3  0  0  0  0  0  0
  -16.9050  -28.3770   22.9560 C   0  0  0  0  0  3  0  0  0  0  0  0
  -25.9360  -32.2420   23.5910 C   0  0  0  0  0  3  0  0  0  0  0  0
  -25.5680  -33.6030   24.0070 N   0  0  0  0  0  0  0  0  0  0  0  0
  -25.8750  -34.7190   23.3330 C   0  0  0  0  0  0  0  0  0  0  0  0
  -26.5670  -34.7120   22.3100 O   0  0  0  0  0  0  0  0  0  0  0  0
  -24.9520  -33.6790   24.8030 H   0  0  0  0  0  0  0  0  0  0  0  0
  -24.0930  -36.4760   23.0700 C   0  0  0  0  0  1  0  0  0  0  0  0
  -25.3320  -36.0550   23.8760 C   0  0  0  0  0  3  0  0  0  0  0  0
  -27.4180  -36.9520   24.8130 C   0  0  0  0  0  1  0  0  0  0  0  0
  -26.3290  -37.1490   23.8580 N   0  0  0  0  0  0  0  0  0  0  0  0
  -25.8890  -38.0420   24.0630 H   0  0  0  0  0  0  0  0  0  0  0  0
  -26.4770  -31.4170   24.8230 C   0  0  1  0  0  0  0  0  0  0  0  0
  -25.3960  -31.0940   25.8810 C   0  0  0  0  0  1  0  0  0  0  0  0
  -27.0950  -30.0780   24.3580 C   0  0  0  0  0  1  0  0  0  0  0  0
  -27.6080  -32.2060   25.5230 C   0  0  0  0  0  1  0  0  0  0  0  0
  2  1  2  0
  3  5  2  0
  3  6  1  0
  4  1  1  0
  4  7  1  0
  5  2  1  0
  6  4  2  0
  7  8  2  0
  8  9  1  0
 10 16  1  0
 10  7  1  0
 11 16  1  0
 12 13  1  0
 12 11  1  0
 14 13  1  0
 14 21  1  0
 14 15  1  0
 16 15  1  0
 17 10  2  0
 18 19  2  0
 19 38  1  0
 20 19  1  0
 20 23  1  0
 21 22  1  0
 21 18  1  0
 22 20  2  0
 23 24  1  0
 24 25  2  0
 26 29  1  0
 26 25  1  0
 27 26  2  0
 28 27  1  0
 28 23  2  0
 29 30  1  0
 30 35  2  0
 30 31  1  0
 31 32  2  0
 32 33  1  0
 33 37  1  0
 34 33  2  0
 35 34  1  0
 36 35  1  0
 38 39  1  0
 39 41  1  0
 39 42  1  0
 40 38  2  0
 43 18  1  0
 43 44  1  0
 45 43  1  0
 47  6  1  0
 47 46  1  0
 48  5  1  0
 48 49  1  0
 50 51  1  0
 50 49  2  0
 52 63  2  0
 53 51  1  0
 53 58  1  0
 54 62  1  0
 54 64  1  0
 55 61  1  0
 55 57  1  0
 56 62  1  0
 57 56  1  0
 58 57  2  0
 59 60  1  0
 59 53  2  0
 60 55  2  0
 61 54  1  0
 62 52  1  0
 64 66  2  0
 65 64  1  0
 67 65  1  0
 68 77  2  0
 68 73  1  0
 69 65  1  0
 69 73  1  0
 70 69  1  0
 71 72  1  0
 71 70  1  0
 72 68  1  0
 73 74  2  0
 74 75  1  0
 76 75  2  0
 77 76  1  0
 78 52  1  0
 78 79  1  0
 78 88  1  0
 79 82  1  0
 80 84  1  0
 80 79  1  0
 81 80  2  0
 84 83  1  0
 86 84  1  0
 86 87  1  0
 86 85  1  0
 88 91  1  1
 88 89  1  0
 90 88  1  0
M  ISO  4   7 100  10 100  50 101  51 101
M  END
>  <TORSDO>  (80) 
F 21

>  <SCORE>  (80) 
-11.517

>  <name>  (80) 
79

>  <ligand_id>  (80) 
79

>  <original_smiles>  (80) 
[H]N=C(C(=O)N1C([H])([H])C([H])([H])C([H])([H])C([H])(n2nc(-c3c([H])c([H])c(Oc4c([H])c([H])c(F)c([H])c4F)c([H])c3[H])c(C(=O)N([H])[H])c2N([H])[H])C1([H])[H])c1c([H])c([H])c(C([H])([H])C([H])([H])C([H])([H])Oc2c([H])c([H])c3c(c2[H])C([H])([H])N(C(=O)C([H])(N([H])C(=O)C([H])(N([H])C([H])([H])[H])C([H])([H])[H])C(C([H])([H])[H])(C([H])([H])[H])C([H])([H])[H])C([H])(C(=O)N([H])C2([H])c4c([H])c([H])c([H])c([H])c4C([H])([H])C([H])([H])C2([H])[H])C3([H])[H])c([H])c1C([H])([H])C([H])([H])[H]

>  <smiles>  (80) 
[H]N=C(C(=O)N1C([H])([H])C([H])([H])C([H])([H])C([H])(n2nc(-c3c([H])c([H])c(Oc4c([H])c([H])c(F)c([H])c4F)c([H])c3[H])c(C(=O)N([H])[H])c2N([H])[H])C1([H])[H])c1c([H])c([H])c(C([H])([H])C([H])([H])C([H])([H])Oc2c([H])c([H])c3c(c2[H])C([H])([H])N(C(=O)C([H])(N([H])C(=O)C([H])(N([H])C([H])([H])[H])C([H])([H])[H])C(C([H])([H])[H])(C([H])([H])[H])C([H])([H])[H])C([H])(C(=O)N([H])C2([H])c4c([H])c([H])c([H])c([H])c4C([H])([H])C([H])([H])C2([H])[H])C3([H])[H])c([H])c1C([H])([H])C([H])([H])[H]

$$$$
80:0:0
     RDKit          3D

 92101  0  0  1  0  0  0  0  0999 V2000
  -30.1190  -21.2240   20.3650 C   0  0  0  0  0  2  0  0  0  0  0  0
  -28.4990  -19.8620   17.3980 C   0  0  0  0  0  3  0  0  0  0  0  0
  -27.6610  -18.9400   18.0490 C   0  0  0  0  0  3  0  0  0  0  0  0
  -29.5640  -20.4200   18.1160 C   0  0  0  0  0  3  0  0  0  0  0  0
  -29.3320  -18.6740   19.8300 C   0  0  0  0  0  0  0  0  0  0  0  0
  -28.0390  -18.4240   19.3110 C   0  0  0  0  0  0  0  0  0  0  0  0
  -29.8350  -19.9840   19.4310 C   0  0  0  0  0  0  0  0  0  0  0  0
  -27.0050  -17.7610   20.1890 C   0  0  0  0  0  1  0  0  0  0  0  0
  -30.1750  -17.3980   20.1550 C   0  0  0  0  0  3  0  0  0  0  0  0
  -29.8240  -16.0610   19.9550 C   0  0  0  0  0  3  0  0  0  0  0  0
  -30.6610  -14.8030   20.0840 C   0  0  0  0  0  0  0  0  0  0  0  0
  -30.3950  -12.4780   19.1970 C   0  0  0  0  0  2  0  0  0  0  0  0
  -29.4280  -12.4790   17.9890 C   0  0  0  0  0  2  0  0  0  0  0  0
  -27.9690  -12.3210   18.4520 C   0  0  0  0  0  2  0  0  0  0  0  0
  -27.6160  -13.2770   19.6190 C   0  0  0  0  0  3  0  0  0  0  0  0
  -28.7000  -13.2960   20.7220 C   0  0  0  0  0  2  0  0  0  0  0  0
  -29.9990  -13.5870   20.0970 N   0  0  0  0  0  0  0  0  0  0  0  0
  -31.8780  -14.8170   19.8840 O   0  0  0  0  0  0  0  0  0  0  0  0
  -25.2660  -13.9080   20.4160 C   0  0  0  0  0  0  0  0  0  0  0  0
  -24.1910  -13.1660   20.8110 C   0  0  0  0  0  0  0  0  0  0  0  0
  -24.6250  -11.8100   20.7740 C   0  0  0  0  0  0  0  0  0  0  0  0
  -26.2850  -13.0100   20.1580 N   0  0  0  0  0  0  0  0  0  0  0  0
  -25.9090  -11.7390   20.4450 N   0  0  0  0  0  0  0  0  0  0  0  0
  -23.8700  -10.5670   20.9830 C   0  0  0  0  0  0  0  0  0  0  0  0
  -24.3040   -9.5910   21.9050 C   0  0  0  0  0  3  0  0  0  0  0  0
  -23.5580   -8.4110   22.0990 C   0  0  0  0  0  3  0  0  0  0  0  0
  -22.3630   -8.1990   21.3730 C   0  0  0  0  0  0  0  0  0  0  0  0
  -21.9430   -9.1640   20.4430 C   0  0  0  0  0  3  0  0  0  0  0  0
  -22.6900  -10.3380   20.2480 C   0  0  0  0  0  3  0  0  0  0  0  0
  -21.5830   -7.0760   21.4780 O   0  0  0  0  0  0  0  0  0  0  0  0
  -21.5560   -6.3260   22.6250 C   0  0  0  0  0  0  0  0  0  0  0  0
  -21.1880   -6.8840   23.8680 C   0  0  0  0  0  3  0  0  0  0  0  0
  -21.1070   -6.0620   25.0090 C   0  0  0  0  0  3  0  0  0  0  0  0
  -21.3840   -4.6860   24.9080 C   0  0  0  0  0  0  0  0  0  0  0  0
  -21.7470   -4.1280   23.6690 C   0  0  0  0  0  3  0  0  0  0  0  0
  -21.8280   -4.9470   22.5290 C   0  0  0  0  0  0  0  0  0  0  0  0
  -22.1580   -4.4040   21.3320 F   0  0  0  0  0  0  0  0  0  0  0  0
  -21.2950   -3.8930   26.0010 F   0  0  0  0  0  0  0  0  0  0  0  0
  -22.8160  -13.6830   21.1020 C   0  0  0  0  0  0  0  0  0  0  0  0
  -22.0890  -13.0100   21.9900 N   0  0  0  0  0  0  0  0  0  0  0  0
  -22.3930  -14.7140   20.5770 O   0  0  0  0  0  0  0  0  0  0  0  0
  -22.4530  -12.1720   22.4230 H   0  0  0  0  0  0  0  0  0  0  0  0
  -21.1670  -13.3350   22.2440 H   0  0  0  0  0  0  0  0  0  0  0  0
  -25.4520  -15.2640   20.2130 N   0  0  0  0  0  0  0  0  0  0  0  0
  -24.6960  -15.9320   20.3160 H   0  0  0  0  0  0  0  0  0  0  0  0
  -26.2810  -15.6650   19.8010 H   0  0  0  0  0  0  0  0  0  0  0  0
  -29.0300  -22.4320   20.3150 C   0  0  0  0  0  2  0  0  0  0  0  0
  -30.3350  -24.3770   21.6030 C   0  0  0  0  0  2  0  0  0  0  0  0
  -30.8070  -24.4710   20.1750 C   0  0  0  0  0  2  0  0  0  0  0  0
  -29.3990  -23.9770   20.4730 C   0  0  1  0  0  0  0  0  0  0  0  0
  -28.2170  -24.9720   20.0860 C   0  0  0  0  0  2  0  0  0  0  0  0
  -28.3560  -26.4480   20.2690 O   0  0  0  0  0  0  0  0  0  0  0  0
  -24.5950  -31.8740   23.2030 C   0  0  0  0  0  0  0  0  0  0  0  0
  -27.2200  -27.2820   20.1980 C   0  0  0  0  0  0  0  0  0  0  0  0
  -23.3900  -30.4560   21.5770 C   0  0  0  0  0  3  0  0  0  0  0  0
  -24.8440  -28.8920   20.1650 C   0  0  0  0  0  0  0  0  0  0  0  0
  -25.9290  -30.7800   21.3910 C   0  0  0  0  0  2  0  0  0  0  0  0
  -26.0130  -29.3960   20.7500 C   0  0  0  0  0  0  0  0  0  0  0  0
  -27.2000  -28.6040   20.7520 C   0  0  0  0  0  3  0  0  0  0  0  0
  -26.0240  -26.8360   19.5880 C   0  0  0  0  0  3  0  0  0  0  0  0
  -24.8550  -27.6230   19.5690 C   0  0  0  0  0  3  0  0  0  0  0  0
  -23.6060  -29.7640   20.2060 C   0  0  0  0  0  2  0  0  0  0  0  0
  -24.6550  -31.0550   22.1120 N   0  0  0  0  0  0  0  0  0  0  0  0
  -23.5110  -32.1550   23.7360 O   0  0  0  0  0  0  0  0  0  0  0  0
  -22.7280  -29.4530   22.5530 C   0  0  0  0  0  0  0  0  0  0  0  0
  -21.4010  -29.2790   22.4340 N   0  0  0  0  0  0  0  0  0  0  0  0
  -23.4080  -28.8320   23.3740 O   0  0  0  0  0  0  0  0  0  0  0  0
  -20.9090  -29.8250   21.7390 H   0  0  0  0  0  0  0  0  0  0  0  0
  -18.0190  -28.1090   22.9770 C   0  0  0  0  0  0  0  0  0  0  0  0
  -20.5800  -28.3520   23.2190 C   0  0  0  0  0  3  0  0  0  0  0  0
  -20.6690  -26.9170   22.6490 C   0  0  0  0  0  2  0  0  0  0  0  0
  -19.5550  -26.5990   21.6470 C   0  0  0  0  0  2  0  0  0  0  0  0
  -18.1800  -26.7560   22.3030 C   0  0  0  0  0  2  0  0  0  0  0  0
  -19.1460  -28.8660   23.3910 C   0  0  0  0  0  0  0  0  0  0  0  0
  -18.9400  -30.1360   23.9770 C   0  0  0  0  0  3  0  0  0  0  0  0
  -17.6400  -30.6450   24.1540 C   0  0  0  0  0  3  0  0  0  0  0  0
  -16.5280  -29.8830   23.7560 C   0  0  0  0  0  3  0  0  0  0  0  0
  -16.7180  -28.6170   23.1740 C   0  0  0  0  0  3  0  0  0  0  0  0
  -25.8780  -32.5140   23.8170 C   0  0  0  0  0  3  0  0  0  0  0  0
  -25.5670  -33.9130   24.1460 N   0  0  0  0  0  0  0  0  0  0  0  0
  -25.9000  -34.9660   23.3860 C   0  0  0  0  0  0  0  0  0  0  0  0
  -26.5670  -34.8600   22.3530 O   0  0  0  0  0  0  0  0  0  0  0  0
  -24.9850  -34.0680   24.9560 H   0  0  0  0  0  0  0  0  0  0  0  0
  -24.1750  -36.7560   23.0280 C   0  0  0  0  0  1  0  0  0  0  0  0
  -25.4170  -36.3540   23.8420 C   0  0  0  0  0  3  0  0  0  0  0  0
  -27.5520  -37.2350   24.6750 C   0  0  0  0  0  1  0  0  0  0  0  0
  -26.4510  -37.4070   23.7300 N   0  0  0  0  0  0  0  0  0  0  0  0
  -26.0480  -38.3270   23.8820 H   0  0  0  0  0  0  0  0  0  0  0  0
  -26.4060  -31.7480   25.0930 C   0  0  1  0  0  0  0  0  0  0  0  0
  -25.3240  -31.5080   26.1720 C   0  0  0  0  0  1  0  0  0  0  0  0
  -26.9900  -30.3700   24.7060 C   0  0  0  0  0  1  0  0  0  0  0  0
  -27.5610  -32.5500   25.7410 C   0  0  0  0  0  1  0  0  0  0  0  0
  2  3  2  0
  2  4  1  0
  3  6  1  0
  4  7  2  0
  5  9  1  0
  6  5  2  0
  6  8  1  0
  7  5  1  0
  7  1  1  0
 10 11  1  0
 10  9  2  0
 11 17  1  0
 12 17  1  0
 13 14  1  0
 13 12  1  0
 15 14  1  0
 15 22  1  0
 15 16  1  0
 17 16  1  0
 18 11  2  0
 19 20  2  0
 20 39  1  0
 21 20  1  0
 21 24  1  0
 22 19  1  0
 22 23  1  0
 23 21  2  0
 24 25  1  0
 25 26  2  0
 27 30  1  0
 27 26  1  0
 28 27  2  0
 29 28  1  0
 29 24  2  0
 30 31  1  0
 31 32  1  0
 32 33  2  0
 34 33  1  0
 34 38  1  0
 35 34  2  0
 36 31  2  0
 36 35  1  0
 37 36  1  0
 39 40  1  0
 40 43  1  0
 40 42  1  0
 41 39  2  0
 44 45  1  0
 44 19  1  0
 46 44  1  0
 47  1  1  0
 50 47  1  1
 49 50  1  0
 49 48  1  0
 50 48  1  0
 51 52  1  0
 51 50  1  0
 53 64  2  0
 54 52  1  0
 54 59  1  0
 55 63  1  0
 55 65  1  0
 56 62  1  0
 56 58  1  0
 57 63  1  0
 58 59  2  0
 58 57  1  0
 60 54  2  0
 61 60  1  0
 61 56  2  0
 62 55  1  0
 63 53  1  0
 65 67  2  0
 66 65  1  0
 68 66  1  0
 69 78  2  0
 69 74  1  0
 70 66  1  0
 70 74  1  0
 71 70  1  0
 72 73  1  0
 72 71  1  0
 73 69  1  0
 74 75  2  0
 75 76  1  0
 77 76  2  0
 78 77  1  0
 79 53  1  0
 79 80  1  0
 79 89  1  0
 80 83  1  0
 81 85  1  0
 81 80  1  0
 82 81  2  0
 85 84  1  0
 87 85  1  0
 87 88  1  0
 87 86  1  0
 89 92  1  1
 89 90  1  0
 91 89  1  0
M  ISO  4  10 100  11 100  51 101  52 101
M  END
>  <TORSDO>  (81) 
F 21

>  <SCORE>  (81) 
-13.734

>  <name>  (81) 
80

>  <ligand_id>  (81) 
80

>  <original_smiles>  (81) 
[H]C(C(=O)N1C([H])([H])C([H])([H])C([H])([H])C([H])(n2nc(-c3c([H])c([H])c(Oc4c([H])c([H])c(F)c([H])c4F)c([H])c3[H])c(C(=O)N([H])[H])c2N([H])[H])C1([H])[H])=C([H])c1c(C([H])([H])[H])c([H])c([H])c([H])c1C([H])([H])C([H])([H])C1(C([H])([H])Oc2c([H])c([H])c3c(c2[H])C([H])([H])N(C(=O)C([H])(N([H])C(=O)C([H])(N([H])C([H])([H])[H])C([H])([H])[H])C(C([H])([H])[H])(C([H])([H])[H])C([H])([H])[H])C([H])(C(=O)N([H])C2([H])c4c([H])c([H])c([H])c([H])c4C([H])([H])C([H])([H])C2([H])[H])C3([H])[H])C([H])([H])C1([H])[H]

>  <smiles>  (81) 
[H]C(C(=O)N1C([H])([H])C([H])([H])C([H])([H])C([H])(n2nc(-c3c([H])c([H])c(Oc4c([H])c([H])c(F)c([H])c4F)c([H])c3[H])c(C(=O)N([H])[H])c2N([H])[H])C1([H])[H])=C([H])c1c(C([H])([H])[H])c([H])c([H])c([H])c1C([H])([H])C([H])([H])C1(C([H])([H])Oc2c([H])c([H])c3c(c2[H])C([H])([H])N(C(=O)C([H])(N([H])C(=O)C([H])(N([H])C([H])([H])[H])C([H])([H])[H])C(C([H])([H])[H])(C([H])([H])[H])C([H])([H])[H])C([H])(C(=O)N([H])C2([H])c4c([H])c([H])c([H])c([H])c4C([H])([H])C([H])([H])C2([H])[H])C3([H])[H])C([H])([H])C1([H])[H]

$$$$
81:0:0
     RDKit          3D

 90 98  0  0  1  0  0  0  0  0999 V2000
  -28.6850  -21.0900   21.4700 C   0  0  0  0  0  3  0  0  0  0  0  0
  -28.3990  -22.5110   21.3400 C   0  0  0  0  0  3  0  0  0  0  0  0
  -29.1380  -22.4240   19.1140 C   0  0  0  0  0  3  0  0  0  0  0  0
  -29.1900  -20.2220   20.4350 C   0  0  0  0  0  0  0  0  0  0  0  0
  -28.5850  -23.2710   20.1440 C   0  0  0  0  0  0  0  0  0  0  0  0
  -29.4200  -20.9920   19.2320 C   0  0  0  0  0  0  0  0  0  0  0  0
  -29.2930  -18.6340   20.6990 C   0  0  0  0  0  3  0  0  0  0  0  0
  -30.0150  -17.6180   20.1930 N   0  0  0  0  0  0  0  0  0  0  0  0
  -30.5700  -15.0110   20.2780 C   0  0  0  0  0  0  0  0  0  0  0  0
  -30.4330  -12.6590   19.3500 C   0  0  0  0  0  2  0  0  0  0  0  0
  -29.4990  -12.6640   18.1180 C   0  0  0  0  0  2  0  0  0  0  0  0
  -28.0320  -12.4620   18.5500 C   0  0  0  0  0  2  0  0  0  0  0  0
  -27.6400  -13.3610   19.7520 C   0  0  0  0  0  3  0  0  0  0  0  0
  -28.7040  -13.3430   20.8710 C   0  0  0  0  0  2  0  0  0  0  0  0
  -29.9800  -13.7470   20.2640 N   0  0  0  0  0  0  0  0  0  0  0  0
  -31.7490  -15.0920   19.9180 O   0  0  0  0  0  0  0  0  0  0  0  0
  -29.7980  -16.1780   20.5340 N   0  0  0  0  0  0  0  0  0  0  0  0
  -28.8860  -15.9940   20.9330 H   0  0  0  0  0  0  0  0  0  0  0  0
  -25.2640  -13.9290   20.5220 C   0  0  0  0  0  0  0  0  0  0  0  0
  -24.2050  -13.1510   20.8980 C   0  0  0  0  0  0  0  0  0  0  0  0
  -24.6670  -11.8000   20.8420 C   0  0  0  0  0  0  0  0  0  0  0  0
  -26.3050  -13.0550   20.2580 N   0  0  0  0  0  0  0  0  0  0  0  0
  -25.9550  -11.7660   20.5150 N   0  0  0  0  0  0  0  0  0  0  0  0
  -23.9380  -10.5370   21.0260 C   0  0  0  0  0  0  0  0  0  0  0  0
  -24.3610   -9.5700   21.9650 C   0  0  0  0  0  3  0  0  0  0  0  0
  -23.6340   -8.3720   22.1380 C   0  0  0  0  0  3  0  0  0  0  0  0
  -22.4700   -8.1330   21.3690 C   0  0  0  0  0  0  0  0  0  0  0  0
  -22.0650   -9.0870   20.4210 C   0  0  0  0  0  3  0  0  0  0  0  0
  -22.7930  -10.2770   20.2470 C   0  0  0  0  0  3  0  0  0  0  0  0
  -21.7160   -6.9870   21.4500 O   0  0  0  0  0  0  0  0  0  0  0  0
  -21.6270   -6.2630   22.6110 C   0  0  0  0  0  0  0  0  0  0  0  0
  -21.1300   -6.8280   23.8060 C   0  0  0  0  0  3  0  0  0  0  0  0
  -20.9900   -6.0300   24.9580 C   0  0  0  0  0  3  0  0  0  0  0  0
  -21.3370   -4.6660   24.9170 C   0  0  0  0  0  0  0  0  0  0  0  0
  -21.8260   -4.1000   23.7270 C   0  0  0  0  0  3  0  0  0  0  0  0
  -21.9680   -4.8950   22.5760 C   0  0  0  0  0  0  0  0  0  0  0  0
  -22.4190   -4.3400   21.4260 F   0  0  0  0  0  0  0  0  0  0  0  0
  -21.1940   -3.8960   26.0210 F   0  0  0  0  0  0  0  0  0  0  0  0
  -22.8130  -13.6280   21.1940 C   0  0  0  0  0  0  0  0  0  0  0  0
  -22.0890  -12.9230   22.0560 N   0  0  0  0  0  0  0  0  0  0  0  0
  -22.3740  -14.6640   20.6950 O   0  0  0  0  0  0  0  0  0  0  0  0
  -22.4490  -12.0830   22.4810 H   0  0  0  0  0  0  0  0  0  0  0  0
  -21.1580  -13.2350   22.2980 H   0  0  0  0  0  0  0  0  0  0  0  0
  -25.4230  -15.3020   20.3580 N   0  0  0  0  0  0  0  0  0  0  0  0
  -24.6380  -15.9380   20.4430 H   0  0  0  0  0  0  0  0  0  0  0  0
  -26.2500  -15.7440   19.9750 H   0  0  0  0  0  0  0  0  0  0  0  0
  -31.4070  -20.2560   17.8190 C   0  0  0  0  0  1  0  0  0  0  0  0
  -29.8820  -20.2850   17.9630 C   0  0  0  0  0  2  0  0  0  0  0  0
  -27.8590  -24.7270   19.8420 C   0  0  0  0  0  2  0  0  0  0  0  0
  -28.2240  -26.1930   20.2160 O   0  0  0  0  0  0  0  0  0  0  0  0
  -24.6460  -31.9140   23.2300 C   0  0  0  0  0  0  0  0  0  0  0  0
  -27.1970  -27.2120   20.1410 C   0  0  0  0  0  0  0  0  0  0  0  0
  -23.4350  -30.5230   21.5990 C   0  0  0  0  0  3  0  0  0  0  0  0
  -24.8720  -28.9670   20.1470 C   0  0  0  0  0  0  0  0  0  0  0  0
  -25.9900  -30.7870   21.4180 C   0  0  0  0  0  2  0  0  0  0  0  0
  -26.0580  -29.4020   20.7520 C   0  0  0  0  0  0  0  0  0  0  0  0
  -27.2210  -28.5390   20.7370 C   0  0  0  0  0  3  0  0  0  0  0  0
  -25.9860  -26.8990   19.4790 C   0  0  0  0  0  3  0  0  0  0  0  0
  -24.8490  -27.7310   19.4930 C   0  0  0  0  0  3  0  0  0  0  0  0
  -23.6420  -29.8590   20.2140 C   0  0  0  0  0  2  0  0  0  0  0  0
  -24.7120  -31.0970   22.1350 N   0  0  0  0  0  0  0  0  0  0  0  0
  -23.5630  -32.1960   23.7670 O   0  0  0  0  0  0  0  0  0  0  0  0
  -22.7680  -29.5090   22.5620 C   0  0  0  0  0  0  0  0  0  0  0  0
  -21.4410  -29.3250   22.4370 N   0  0  0  0  0  0  0  0  0  0  0  0
  -23.4460  -28.8910   23.3870 O   0  0  0  0  0  0  0  0  0  0  0  0
  -20.9540  -29.8680   21.7370 H   0  0  0  0  0  0  0  0  0  0  0  0
  -18.0690  -28.1000   22.9550 C   0  0  0  0  0  0  0  0  0  0  0  0
  -20.6280  -28.3850   23.2120 C   0  0  0  0  0  3  0  0  0  0  0  0
  -20.7410  -26.9520   22.6400 C   0  0  0  0  0  2  0  0  0  0  0  0
  -19.6360  -26.6180   21.6320 C   0  0  0  0  0  2  0  0  0  0  0  0
  -18.2560  -26.7520   22.2810 C   0  0  0  0  0  2  0  0  0  0  0  0
  -19.1830  -28.8740   23.3790 C   0  0  0  0  0  0  0  0  0  0  0  0
  -18.9550  -30.1330   23.9740 C   0  0  0  0  0  3  0  0  0  0  0  0
  -17.6450  -30.6200   24.1480 C   0  0  0  0  0  3  0  0  0  0  0  0
  -16.5460  -29.8450   23.7390 C   0  0  0  0  0  3  0  0  0  0  0  0
  -16.7600  -28.5870   23.1490 C   0  0  0  0  0  3  0  0  0  0  0  0
  -25.9280  -32.5500   23.8500 C   0  0  0  0  0  3  0  0  0  0  0  0
  -26.4540  -31.7740   25.1200 C   0  0  1  0  0  0  0  0  0  0  0  0
  -25.3660  -31.5270   26.1930 C   0  0  0  0  0  1  0  0  0  0  0  0
  -27.0390  -30.3990   24.7250 C   0  0  0  0  0  1  0  0  0  0  0  0
  -27.6090  -32.5680   25.7750 C   0  0  0  0  0  1  0  0  0  0  0  0
  -25.6140  -33.9450   24.1940 N   0  0  0  0  0  0  0  0  0  0  0  0
  -25.9150  -35.0060   23.4340 C   0  0  0  0  0  0  0  0  0  0  0  0
  -26.5550  -34.9140   22.3840 O   0  0  0  0  0  0  0  0  0  0  0  0
  -25.0390  -34.0910   25.0110 H   0  0  0  0  0  0  0  0  0  0  0  0
  -24.1590  -36.7880   23.1510 C   0  0  0  0  0  1  0  0  0  0  0  0
  -25.4320  -36.3900   23.9150 C   0  0  0  0  0  3  0  0  0  0  0  0
  -27.5830  -37.2940   24.6790 C   0  0  0  0  0  1  0  0  0  0  0  0
  -26.4510  -37.4520   23.7710 N   0  0  0  0  0  0  0  0  0  0  0  0
  -26.0420  -38.3700   23.9280 H   0  0  0  0  0  0  0  0  0  0  0  0
  2  1  1  0
  3  6  2  0
  3  5  1  0
  4  7  1  0
  4  1  2  0
  5  2  2  0
  6  4  1  0
  8 17  1  0
  8  7  2  0
  9 17  1  0
 10 15  1  0
 11 12  1  0
 11 10  1  0
 13 12  1  0
 13 22  1  0
 13 14  1  0
 15  9  1  0
 15 14  1  0
 16  9  2  0
 17 18  1  0
 19 20  2  0
 20 39  1  0
 21 20  1  0
 21 24  1  0
 22 23  1  0
 22 19  1  0
 23 21  2  0
 24 25  1  0
 25 26  2  0
 27 30  1  0
 27 26  1  0
 28 27  2  0
 29 28  1  0
 29 24  2  0
 30 31  1  0
 31 32  1  0
 32 33  2  0
 34 33  1  0
 34 38  1  0
 35 34  2  0
 36 31  2  0
 36 35  1  0
 37 36  1  0
 39 40  1  0
 40 43  1  0
 40 42  1  0
 41 39  2  0
 44 45  1  0
 44 19  1  0
 46 44  1  0
 47 48  1  0
 48  6  1  0
 49  5  1  0
 49 50  1  0
 51 62  2  0
 52 50  1  0
 52 57  1  0
 53 61  1  0
 53 63  1  0
 54 60  1  0
 54 56  1  0
 55 61  1  0
 56 55  1  0
 57 56  2  0
 58 59  1  0
 58 52  2  0
 59 54  2  0
 60 53  1  0
 61 51  1  0
 63 65  2  0
 64 63  1  0
 66 64  1  0
 67 76  2  0
 67 72  1  0
 68 64  1  0
 68 72  1  0
 69 68  1  0
 70 71  1  0
 70 69  1  0
 71 67  1  0
 72 73  2  0
 73 74  1  0
 75 74  2  0
 76 75  1  0
 77 51  1  0
 77 82  1  0
 77 78  1  0
 78 81  1  1
 78 79  1  0
 80 78  1  0
 82 85  1  0
 83 87  1  0
 83 82  1  0
 84 83  2  0
 87 86  1  0
 89 87  1  0
 89 90  1  0
 89 88  1  0
M  ISO  4   9 100  17 100  49 101  50 101
M  END
>  <TORSDO>  (82) 
F 19

>  <SCORE>  (82) 
-14.207

>  <name>  (82) 
81

>  <ligand_id>  (82) 
81

>  <original_smiles>  (82) 
[H]C(=NN([H])C(=O)N1C([H])([H])C([H])([H])C([H])([H])C([H])(n2nc(-c3c([H])c([H])c(Oc4c([H])c([H])c(F)c([H])c4F)c([H])c3[H])c(C(=O)N([H])[H])c2N([H])[H])C1([H])[H])c1c([H])c([H])c(C([H])([H])Oc2c([H])c([H])c3c(c2[H])C([H])([H])N(C(=O)C([H])(N([H])C(=O)C([H])(N([H])C([H])([H])[H])C([H])([H])[H])C(C([H])([H])[H])(C([H])([H])[H])C([H])([H])[H])C([H])(C(=O)N([H])C2([H])c4c([H])c([H])c([H])c([H])c4C([H])([H])C([H])([H])C2([H])[H])C3([H])[H])c([H])c1C([H])([H])C([H])([H])[H]

>  <smiles>  (82) 
[H]C(=NN([H])C(=O)N1C([H])([H])C([H])([H])C([H])([H])C([H])(n2nc(-c3c([H])c([H])c(Oc4c([H])c([H])c(F)c([H])c4F)c([H])c3[H])c(C(=O)N([H])[H])c2N([H])[H])C1([H])[H])c1c([H])c([H])c(C([H])([H])Oc2c([H])c([H])c3c(c2[H])C([H])([H])N(C(=O)C([H])(N([H])C(=O)C([H])(N([H])C([H])([H])[H])C([H])([H])[H])C(C([H])([H])[H])(C([H])([H])[H])C([H])([H])[H])C([H])(C(=O)N([H])C2([H])c4c([H])c([H])c([H])c([H])c4C([H])([H])C([H])([H])C2([H])[H])C3([H])[H])c([H])c1C([H])([H])C([H])([H])[H]

$$$$
82:0:0
     RDKit          3D

 91 99  0  0  1  0  0  0  0  0999 V2000
  -28.7970  -19.3470   20.6470 C   0  0  0  0  0  3  0  0  0  0  0  0
  -31.0980  -17.8900   19.9990 C   0  0  0  0  0  3  0  0  0  0  0  0
  -29.9570  -20.0880   20.3150 C   0  0  0  0  0  0  0  0  0  0  0  0
  -28.7870  -17.9210   20.6920 C   0  0  0  0  0  0  0  0  0  0  0  0
  -29.9460  -17.1440   20.3700 C   0  0  0  0  0  0  0  0  0  0  0  0
  -31.1040  -19.3150   19.9800 C   0  0  0  0  0  0  0  0  0  0  0  0
  -27.4830  -17.2720   21.1310 C   0  0  0  0  0  1  0  0  0  0  0  0
  -32.2520  -19.9530   19.6410 F   0  0  0  0  0  0  0  0  0  0  0  0
  -30.6650  -14.6670   19.9160 C   0  0  0  0  0  0  0  0  0  0  0  0
  -30.3800  -12.4860   18.7560 C   0  0  0  0  0  2  0  0  0  0  0  0
  -29.3560  -12.6760   17.6130 C   0  0  0  0  0  2  0  0  0  0  0  0
  -27.9150  -12.5120   18.1360 C   0  0  0  0  0  2  0  0  0  0  0  0
  -27.6500  -13.3280   19.4270 C   0  0  0  0  0  3  0  0  0  0  0  0
  -28.7710  -13.0890   20.4640 C   0  0  0  0  0  2  0  0  0  0  0  0
  -30.0470  -13.4480   19.8250 N   0  0  0  0  0  0  0  0  0  0  0  0
  -31.7940  -14.8510   19.4460 O   0  0  0  0  0  0  0  0  0  0  0  0
  -29.8830  -15.6790   20.4120 N   0  0  0  0  0  0  0  0  0  0  0  0
  -29.0170  -15.3270   20.7930 H   0  0  0  0  0  0  0  0  0  0  0  0
  -25.3030  -13.9350   20.2800 C   0  0  0  0  0  0  0  0  0  0  0  0
  -24.2570  -13.1670   20.7110 C   0  0  0  0  0  0  0  0  0  0  0  0
  -24.7060  -11.8140   20.6340 C   0  0  0  0  0  0  0  0  0  0  0  0
  -26.3280  -13.0520   19.9800 N   0  0  0  0  0  0  0  0  0  0  0  0
  -25.9760  -11.7700   20.2520 N   0  0  0  0  0  0  0  0  0  0  0  0
  -23.9820  -10.5550   20.8420 C   0  0  0  0  0  0  0  0  0  0  0  0
  -24.4040   -9.6140   21.8070 C   0  0  0  0  0  3  0  0  0  0  0  0
  -23.6810   -8.4160   22.0000 C   0  0  0  0  0  3  0  0  0  0  0  0
  -22.5240   -8.1530   21.2300 C   0  0  0  0  0  0  0  0  0  0  0  0
  -22.1220   -9.0830   20.2550 C   0  0  0  0  0  3  0  0  0  0  0  0
  -22.8440  -10.2710   20.0600 C   0  0  0  0  0  3  0  0  0  0  0  0
  -21.7740   -7.0060   21.3330 O   0  0  0  0  0  0  0  0  0  0  0  0
  -21.6190   -6.3520   22.5290 C   0  0  0  0  0  0  0  0  0  0  0  0
  -21.0540   -6.9850   23.6570 C   0  0  0  0  0  3  0  0  0  0  0  0
  -20.8530   -6.2540   24.8450 C   0  0  0  0  0  3  0  0  0  0  0  0
  -21.2050   -4.8920   24.9040 C   0  0  0  0  0  0  0  0  0  0  0  0
  -21.7630   -4.2590   23.7790 C   0  0  0  0  0  3  0  0  0  0  0  0
  -21.9660   -4.9870   22.5940 C   0  0  0  0  0  0  0  0  0  0  0  0
  -22.4850   -4.3680   21.5060 F   0  0  0  0  0  0  0  0  0  0  0  0
  -21.0050   -4.1880   26.0420 F   0  0  0  0  0  0  0  0  0  0  0  0
  -22.8820  -13.6510   21.0720 C   0  0  0  0  0  0  0  0  0  0  0  0
  -22.2050  -12.9480   21.9740 N   0  0  0  0  0  0  0  0  0  0  0  0
  -22.4200  -14.6860   20.5930 O   0  0  0  0  0  0  0  0  0  0  0  0
  -22.5960  -12.1140   22.3850 H   0  0  0  0  0  0  0  0  0  0  0  0
  -21.2860  -13.2530   22.2630 H   0  0  0  0  0  0  0  0  0  0  0  0
  -25.4540  -15.3030   20.0880 N   0  0  0  0  0  0  0  0  0  0  0  0
  -24.6530  -15.9180   20.1600 H   0  0  0  0  0  0  0  0  0  0  0  0
  -26.2190  -15.7050   19.5630 H   0  0  0  0  0  0  0  0  0  0  0  0
  -30.0280  -21.6040   20.3490 C   0  0  0  0  0  3  0  0  0  0  0  0
  -29.0530  -22.5590   20.4450 C   0  0  0  0  0  3  0  0  0  0  0  0
  -29.2970  -24.0910   20.6310 C   0  0  0  0  0  3  0  0  0  0  0  0
  -28.3940  -25.1060   19.8340 C   0  0  0  0  0  3  0  0  0  0  0  0
  -28.5150  -26.5340   20.1900 O   0  0  0  0  0  0  0  0  0  0  0  0
  -24.5270  -31.6730   23.2470 C   0  0  0  0  0  0  0  0  0  0  0  0
  -27.3700  -27.3380   20.1100 C   0  0  0  0  0  0  0  0  0  0  0  0
  -23.4150  -30.2940   21.5280 C   0  0  0  0  0  3  0  0  0  0  0  0
  -24.9530  -28.8530   20.0860 C   0  0  0  0  0  0  0  0  0  0  0  0
  -25.9430  -30.7110   21.4220 C   0  0  0  0  0  2  0  0  0  0  0  0
  -26.0870  -29.3630   20.7320 C   0  0  0  0  0  0  0  0  0  0  0  0
  -27.2980  -28.6150   20.7360 C   0  0  0  0  0  3  0  0  0  0  0  0
  -26.2180  -26.8850   19.4230 C   0  0  0  0  0  3  0  0  0  0  0  0
  -25.0190  -27.6190   19.4230 C   0  0  0  0  0  3  0  0  0  0  0  0
  -23.6870  -29.6820   20.1290 C   0  0  0  0  0  2  0  0  0  0  0  0
  -24.6450  -30.9070   22.1240 N   0  0  0  0  0  0  0  0  0  0  0  0
  -23.4200  -31.8900   23.7640 O   0  0  0  0  0  0  0  0  0  0  0  0
  -22.7670  -29.2170   22.4310 C   0  0  0  0  0  0  0  0  0  0  0  0
  -21.4510  -29.0000   22.2660 N   0  0  0  0  0  0  0  0  0  0  0  0
  -23.4490  -28.5820   23.2390 O   0  0  0  0  0  0  0  0  0  0  0  0
  -20.9590  -29.5730   21.5950 H   0  0  0  0  0  0  0  0  0  0  0  0
  -18.0970  -27.7050   22.6620 C   0  0  0  0  0  0  0  0  0  0  0  0
  -20.6440  -28.0100   22.9820 C   0  0  0  0  0  3  0  0  0  0  0  0
  -20.7880  -26.6080   22.3450 C   0  0  0  0  0  2  0  0  0  0  0  0
  -19.7080  -26.3040   21.3030 C   0  0  0  0  0  2  0  0  0  0  0  0
  -18.3130  -26.3920   21.9310 C   0  0  0  0  0  2  0  0  0  0  0  0
  -19.1910  -28.4730   23.1410 C   0  0  0  0  0  0  0  0  0  0  0  0
  -18.9330  -29.7040   23.7810 C   0  0  0  0  0  3  0  0  0  0  0  0
  -17.6140  -30.1670   23.9520 C   0  0  0  0  0  3  0  0  0  0  0  0
  -16.5340  -29.3960   23.4880 C   0  0  0  0  0  3  0  0  0  0  0  0
  -16.7770  -28.1680   22.8480 C   0  0  0  0  0  3  0  0  0  0  0  0
  -25.7690  -32.3280   23.9230 C   0  0  0  0  0  3  0  0  0  0  0  0
  -26.2330  -31.5760   25.2290 C   0  0  1  0  0  0  0  0  0  0  0  0
  -25.0960  -31.3310   26.2470 C   0  0  0  0  0  1  0  0  0  0  0  0
  -26.8570  -30.2060   24.8770 C   0  0  0  0  0  1  0  0  0  0  0  0
  -27.3360  -32.3960   25.9400 C   0  0  0  0  0  1  0  0  0  0  0  0
  -25.4260  -33.7240   24.2250 N   0  0  0  0  0  0  0  0  0  0  0  0
  -25.7550  -34.7720   23.4580 C   0  0  0  0  0  0  0  0  0  0  0  0
  -26.4470  -34.6670   22.4420 O   0  0  0  0  0  0  0  0  0  0  0  0
  -24.8230  -33.8780   25.0200 H   0  0  0  0  0  0  0  0  0  0  0  0
  -23.9880  -36.5150   23.0540 C   0  0  0  0  0  1  0  0  0  0  0  0
  -25.2310  -36.1560   23.8860 C   0  0  0  0  0  3  0  0  0  0  0  0
  -27.3320  -37.1120   24.7240 C   0  0  0  0  0  1  0  0  0  0  0  0
  -26.2390  -37.2320   23.7630 N   0  0  0  0  0  0  0  0  0  0  0  0
  -25.8080  -38.1440   23.8860 H   0  0  0  0  0  0  0  0  0  0  0  0
  1  4  1  0
  2  5  1  0
  3 47  1  0
  3  1  2  0
  4  7  1  0
  5 17  1  0
  5  4  2  0
  6  2  2  0
  6  3  1  0
  8  6  1  0
  9 17  1  0
 10 15  1  0
 11 12  1  0
 11 10  1  0
 13 12  1  0
 13 22  1  0
 13 14  1  0
 15  9  1  0
 15 14  1  0
 16  9  2  0
 17 18  1  0
 19 20  2  0
 20 39  1  0
 21 20  1  0
 21 24  1  0
 22 23  1  0
 22 19  1  0
 23 21  2  0
 24 25  1  0
 25 26  2  0
 27 30  1  0
 27 26  1  0
 28 27  2  0
 29 28  1  0
 29 24  2  0
 30 31  1  0
 31 36  2  0
 31 32  1  0
 32 33  2  0
 33 34  1  0
 34 38  1  0
 35 34  2  0
 36 35  1  0
 37 36  1  0
 39 40  1  0
 40 43  1  0
 40 42  1  0
 41 39  2  0
 44 45  1  0
 44 19  1  0
 46 44  1  0
 47 48  2  0
 48 49  1  0
 50 51  1  0
 50 49  2  0
 52 63  2  0
 53 51  1  0
 53 58  1  0
 54 62  1  0
 54 64  1  0
 55 61  1  0
 55 57  1  0
 56 62  1  0
 57 58  2  0
 57 56  1  0
 59 53  2  0
 60 59  1  0
 60 55  2  0
 61 54  1  0
 62 52  1  0
 64 66  2  0
 65 64  1  0
 67 65  1  0
 68 77  2  0
 68 73  1  0
 69 65  1  0
 69 73  1  0
 70 69  1  0
 71 72  1  0
 71 70  1  0
 72 68  1  0
 73 74  2  0
 74 75  1  0
 76 75  2  0
 77 76  1  0
 78 52  1  0
 78 83  1  0
 78 79  1  0
 79 82  1  1
 79 80  1  0
 81 79  1  0
 83 86  1  0
 84 88  1  0
 84 83  1  0
 85 84  2  0
 88 87  1  0
 90 91  1  0
 90 88  1  0
 90 89  1  0
M  ISO  4   9 100  17 100  50 101  51 101
M  END
>  <TORSDO>  (83) 
F 19

>  <SCORE>  (83) 
-12.446

>  <name>  (83) 
82

>  <ligand_id>  (83) 
82

>  <original_smiles>  (83) 
[H]C(=C([H])C([H])([H])C([H])([H])Oc1c([H])c([H])c2c(c1[H])C([H])([H])N(C(=O)C([H])(N([H])C(=O)C([H])(N([H])C([H])([H])[H])C([H])([H])[H])C(C([H])([H])[H])(C([H])([H])[H])C([H])([H])[H])C([H])(C(=O)N([H])C1([H])c3c([H])c([H])c([H])c([H])c3C([H])([H])C([H])([H])C1([H])[H])C2([H])[H])c1c([H])c(C([H])([H])[H])c(N([H])C(=O)N2C([H])([H])C([H])([H])C([H])([H])C([H])(n3nc(-c4c([H])c([H])c(Oc5c([H])c([H])c(F)c([H])c5F)c([H])c4[H])c(C(=O)N([H])[H])c3N([H])[H])C2([H])[H])c([H])c1F

>  <smiles>  (83) 
[H]C(=C([H])C([H])([H])C([H])([H])Oc1c([H])c([H])c2c(c1[H])C([H])([H])N(C(=O)C([H])(N([H])C(=O)C([H])(N([H])C([H])([H])[H])C([H])([H])[H])C(C([H])([H])[H])(C([H])([H])[H])C([H])([H])[H])C([H])(C(=O)N([H])C1([H])c3c([H])c([H])c([H])c([H])c3C([H])([H])C([H])([H])C1([H])[H])C2([H])[H])c1c([H])c(C([H])([H])[H])c(N([H])C(=O)N2C([H])([H])C([H])([H])C([H])([H])C([H])(n3nc(-c4c([H])c([H])c(Oc5c([H])c([H])c(F)c([H])c5F)c([H])c4[H])c(C(=O)N([H])[H])c3N([H])[H])C2([H])[H])c([H])c1F

$$$$
83:0:0
     RDKit          3D

 92100  0  0  1  0  0  0  0  0999 V2000
  -29.8420  -19.4640   20.2030 C   0  0  0  0  0  3  0  0  0  0  0  0
  -32.6030  -19.5330   20.5250 C   0  0  0  0  0  3  0  0  0  0  0  0
  -30.5170  -18.2510   20.5710 C   0  0  0  0  0  0  0  0  0  0  0  0
  -31.9230  -18.3160   20.7490 C   0  0  0  0  0  0  0  0  0  0  0  0
  -31.9240  -20.7130   20.1580 C   0  0  0  0  0  0  0  0  0  0  0  0
  -30.5200  -20.7040   20.0040 C   0  0  0  0  0  0  0  0  0  0  0  0
  -32.7490  -17.1480   21.2580 C   0  0  0  0  0  1  0  0  0  0  0  0
  -29.6720  -17.0480   20.8900 C   0  0  0  0  0  3  0  0  0  0  0  0
  -29.6560  -15.6800   20.7750 C   0  0  0  0  0  3  0  0  0  0  0  0
  -30.5220  -14.6530   20.1280 C   0  0  0  0  0  0  0  0  0  0  0  0
  -30.3080  -12.4860   18.9140 C   0  0  0  0  0  2  0  0  0  0  0  0
  -29.2770  -12.6710   17.7740 C   0  0  0  0  0  2  0  0  0  0  0  0
  -27.8280  -12.4840   18.2770 C   0  0  0  0  0  2  0  0  0  0  0  0
  -27.5500  -13.2560   19.5930 C   0  0  0  0  0  3  0  0  0  0  0  0
  -28.6740  -12.9560   20.6110 C   0  0  0  0  0  2  0  0  0  0  0  0
  -29.9440  -13.4090   20.0080 N   0  0  0  0  0  0  0  0  0  0  0  0
  -31.6180  -14.8820   19.6070 O   0  0  0  0  0  0  0  0  0  0  0  0
  -25.1800  -13.8310   20.4160 C   0  0  0  0  0  0  0  0  0  0  0  0
  -24.1390  -13.0420   20.8270 C   0  0  0  0  0  0  0  0  0  0  0  0
  -24.6130  -11.6970   20.7580 C   0  0  0  0  0  0  0  0  0  0  0  0
  -26.2230  -12.9630   20.1280 N   0  0  0  0  0  0  0  0  0  0  0  0
  -25.8870  -11.6740   20.3870 N   0  0  0  0  0  0  0  0  0  0  0  0
  -23.9110  -10.4250   20.9710 C   0  0  0  0  0  0  0  0  0  0  0  0
  -24.3720   -9.4760   21.9100 C   0  0  0  0  0  3  0  0  0  0  0  0
  -23.6710   -8.2670   22.1080 C   0  0  0  0  0  3  0  0  0  0  0  0
  -22.4960   -7.9980   21.3660 C   0  0  0  0  0  0  0  0  0  0  0  0
  -22.0550   -8.9360   20.4160 C   0  0  0  0  0  3  0  0  0  0  0  0
  -22.7570  -10.1380   20.2170 C   0  0  0  0  0  3  0  0  0  0  0  0
  -21.7660   -6.8400   21.4730 O   0  0  0  0  0  0  0  0  0  0  0  0
  -21.7130   -6.1290   22.6450 C   0  0  0  0  0  0  0  0  0  0  0  0
  -21.2320   -6.7030   23.8420 C   0  0  0  0  0  3  0  0  0  0  0  0
  -21.1280   -5.9160   25.0080 C   0  0  0  0  0  3  0  0  0  0  0  0
  -21.4960   -4.5580   24.9760 C   0  0  0  0  0  0  0  0  0  0  0  0
  -21.9690   -3.9840   23.7840 C   0  0  0  0  0  3  0  0  0  0  0  0
  -22.0760   -4.7670   22.6210 C   0  0  0  0  0  0  0  0  0  0  0  0
  -22.5140   -4.2030   21.4700 F   0  0  0  0  0  0  0  0  0  0  0  0
  -21.3880   -3.8010   26.0930 F   0  0  0  0  0  0  0  0  0  0  0  0
  -22.7500  -13.5000   21.1730 C   0  0  0  0  0  0  0  0  0  0  0  0
  -22.0710  -12.7820   22.0610 N   0  0  0  0  0  0  0  0  0  0  0  0
  -22.2770  -14.5300   20.6940 O   0  0  0  0  0  0  0  0  0  0  0  0
  -22.4650  -11.9470   22.4710 H   0  0  0  0  0  0  0  0  0  0  0  0
  -21.1430  -13.0710   22.3350 H   0  0  0  0  0  0  0  0  0  0  0  0
  -25.3180  -15.2050   20.2460 N   0  0  0  0  0  0  0  0  0  0  0  0
  -24.5520  -15.8490   20.4080 H   0  0  0  0  0  0  0  0  0  0  0  0
  -26.1470  -15.6610   19.8870 H   0  0  0  0  0  0  0  0  0  0  0  0
  -33.5140  -21.9360   18.6120 C   0  0  0  0  0  1  0  0  0  0  0  0
  -32.7320  -21.9820   19.9280 C   0  0  0  0  0  2  0  0  0  0  0  0
  -29.8990  -21.8640   19.5360 O   0  0  0  0  0  0  0  0  0  0  0  0
  -29.1090  -22.6890   20.4230 C   0  0  0  0  0  2  0  0  0  0  0  0
  -29.3770  -24.2400   20.2570 C   0  0  0  0  0  3  0  0  0  0  0  0
  -28.1100  -25.1670   20.2620 C   0  0  0  0  0  3  0  0  0  0  0  0
  -28.3040  -26.6210   20.3300 O   0  0  0  0  0  0  0  0  0  0  0  0
  -24.5720  -31.9880   23.3500 C   0  0  0  0  0  0  0  0  0  0  0  0
  -27.1600  -27.4270   20.3060 C   0  0  0  0  0  0  0  0  0  0  0  0
  -23.3540  -30.5850   21.7240 C   0  0  0  0  0  3  0  0  0  0  0  0
  -24.7900  -29.0200   20.3090 C   0  0  0  0  0  0  0  0  0  0  0  0
  -25.8930  -30.8950   21.5300 C   0  0  0  0  0  2  0  0  0  0  0  0
  -25.9640  -29.5160   20.8910 C   0  0  0  0  0  0  0  0  0  0  0  0
  -27.1510  -28.7320   20.8760 C   0  0  0  0  0  3  0  0  0  0  0  0
  -25.9560  -26.9710   19.7150 C   0  0  0  0  0  3  0  0  0  0  0  0
  -24.7870  -27.7490   19.7170 C   0  0  0  0  0  3  0  0  0  0  0  0
  -23.5580  -29.8970   20.3500 C   0  0  0  0  0  2  0  0  0  0  0  0
  -24.6260  -31.1720   22.2580 N   0  0  0  0  0  0  0  0  0  0  0  0
  -23.4920  -32.2780   23.8830 O   0  0  0  0  0  0  0  0  0  0  0  0
  -22.6900  -29.5780   22.6930 C   0  0  0  0  0  0  0  0  0  0  0  0
  -21.3690  -29.3810   22.5420 N   0  0  0  0  0  0  0  0  0  0  0  0
  -23.3600  -28.9770   23.5370 O   0  0  0  0  0  0  0  0  0  0  0  0
  -20.8890  -29.9150   21.8330 H   0  0  0  0  0  0  0  0  0  0  0  0
  -18.0000  -28.1400   22.9820 C   0  0  0  0  0  0  0  0  0  0  0  0
  -20.5450  -28.4510   23.3170 C   0  0  0  0  0  3  0  0  0  0  0  0
  -20.6870  -27.0050   22.7860 C   0  0  0  0  0  2  0  0  0  0  0  0
  -19.6200  -26.6340   21.7520 C   0  0  0  0  0  2  0  0  0  0  0  0
  -18.2180  -26.7730   22.3520 C   0  0  0  0  0  2  0  0  0  0  0  0
  -19.0930  -28.9340   23.4190 C   0  0  0  0  0  0  0  0  0  0  0  0
  -18.8360  -30.2100   23.9660 C   0  0  0  0  0  3  0  0  0  0  0  0
  -17.5190  -30.6940   24.0780 C   0  0  0  0  0  3  0  0  0  0  0  0
  -16.4410  -29.8980   23.6560 C   0  0  0  0  0  3  0  0  0  0  0  0
  -16.6810  -28.6220   23.1150 C   0  0  0  0  0  3  0  0  0  0  0  0
  -25.8620  -32.6130   23.9650 C   0  0  0  0  0  3  0  0  0  0  0  0
  -25.5630  -34.0170   24.2810 N   0  0  0  0  0  0  0  0  0  0  0  0
  -25.9100  -35.0600   23.5130 C   0  0  0  0  0  0  0  0  0  0  0  0
  -26.5840  -34.9400   22.4860 O   0  0  0  0  0  0  0  0  0  0  0  0
  -24.9640  -34.1850   25.0750 H   0  0  0  0  0  0  0  0  0  0  0  0
  -24.2060  -36.8700   23.1260 C   0  0  0  0  0  1  0  0  0  0  0  0
  -25.4320  -36.4560   23.9550 C   0  0  0  0  0  3  0  0  0  0  0  0
  -27.5670  -37.3230   24.8080 C   0  0  0  0  0  1  0  0  0  0  0  0
  -26.4800  -37.4960   23.8480 N   0  0  0  0  0  0  0  0  0  0  0  0
  -26.0830  -38.4220   23.9810 H   0  0  0  0  0  0  0  0  0  0  0  0
  -26.3720  -31.8490   25.2490 C   0  0  1  0  0  0  0  0  0  0  0  0
  -25.2740  -31.6180   26.3130 C   0  0  0  0  0  1  0  0  0  0  0  0
  -26.9570  -30.4690   24.8680 C   0  0  0  0  0  1  0  0  0  0  0  0
  -27.5210  -32.6470   25.9090 C   0  0  0  0  0  1  0  0  0  0  0  0
  1  3  1  0
  2  4  1  0
  3  4  2  0
  3  8  1  0
  4  7  1  0
  5  2  2  0
  6  5  1  0
  6  1  2  0
  9  8  2  0
 10  9  1  0
 11 16  1  0
 12 13  1  0
 12 11  1  0
 14 13  1  0
 14 21  1  0
 14 15  1  0
 16 10  1  0
 16 15  1  0
 17 10  2  0
 18 19  2  0
 19 38  1  0
 20 19  1  0
 20 23  1  0
 21 22  1  0
 21 18  1  0
 22 20  2  0
 23 24  1  0
 24 25  2  0
 26 29  1  0
 26 25  1  0
 27 26  2  0
 28 27  1  0
 28 23  2  0
 29 30  1  0
 30 31  1  0
 31 32  2  0
 33 32  1  0
 33 37  1  0
 34 33  2  0
 35 30  2  0
 35 34  1  0
 36 35  1  0
 38 39  1  0
 39 42  1  0
 39 41  1  0
 40 38  2  0
 43 44  1  0
 43 18  1  0
 45 43  1  0
 46 47  1  0
 47  5  1  0
 48  6  1  0
 48 49  1  0
 50 51  2  0
 50 49  1  0
 51 52  1  0
 53 64  2  0
 54 52  1  0
 54 59  1  0
 55 63  1  0
 55 65  1  0
 56 62  1  0
 56 58  1  0
 57 63  1  0
 58 57  1  0
 59 58  2  0
 60 61  1  0
 60 54  2  0
 61 56  2  0
 62 55  1  0
 63 53  1  0
 65 67  2  0
 66 65  1  0
 68 66  1  0
 69 78  2  0
 69 74  1  0
 70 66  1  0
 70 74  1  0
 71 70  1  0
 72 73  1  0
 72 71  1  0
 73 69  1  0
 74 75  2  0
 75 76  1  0
 77 76  2  0
 78 77  1  0
 79 53  1  0
 79 80  1  0
 79 89  1  0
 80 83  1  0
 81 85  1  0
 81 80  1  0
 82 81  2  0
 85 84  1  0
 87 85  1  0
 87 88  1  0
 87 86  1  0
 89 92  1  1
 89 90  1  0
 91 89  1  0
M  ISO  4   9 100  10 100  51 101  52 101
M  END
>  <TORSDO>  (84) 
F 22

>  <SCORE>  (84) 
-12.112

>  <name>  (84) 
83

>  <ligand_id>  (84) 
83

>  <original_smiles>  (84) 
[H]C(C(=O)N1C([H])([H])C([H])([H])C([H])([H])C([H])(n2nc(-c3c([H])c([H])c(Oc4c([H])c([H])c(F)c([H])c4F)c([H])c3[H])c(C(=O)N([H])[H])c2N([H])[H])C1([H])[H])=C([H])c1c([H])c(OC([H])([H])C([H])([H])C([H])([H])Oc2c([H])c([H])c3c(c2[H])C([H])([H])N(C(=O)C([H])(N([H])C(=O)C([H])(N([H])C([H])([H])[H])C([H])([H])[H])C(C([H])([H])[H])(C([H])([H])[H])C([H])([H])[H])C([H])(C(=O)N([H])C2([H])c4c([H])c([H])c([H])c([H])c4C([H])([H])C([H])([H])C2([H])[H])C3([H])[H])c(C([H])([H])C([H])([H])[H])c([H])c1C([H])([H])[H]

>  <smiles>  (84) 
[H]C(C(=O)N1C([H])([H])C([H])([H])C([H])([H])C([H])(n2nc(-c3c([H])c([H])c(Oc4c([H])c([H])c(F)c([H])c4F)c([H])c3[H])c(C(=O)N([H])[H])c2N([H])[H])C1([H])[H])=C([H])c1c([H])c(OC([H])([H])C([H])([H])C([H])([H])Oc2c([H])c([H])c3c(c2[H])C([H])([H])N(C(=O)C([H])(N([H])C(=O)C([H])(N([H])C([H])([H])[H])C([H])([H])[H])C(C([H])([H])[H])(C([H])([H])[H])C([H])([H])[H])C([H])(C(=O)N([H])C2([H])c4c([H])c([H])c([H])c([H])c4C([H])([H])C([H])([H])C2([H])[H])C3([H])[H])c(C([H])([H])C([H])([H])[H])c([H])c1C([H])([H])[H]

$$$$
84:0:0
     RDKit          3D

 92100  0  0  1  0  0  0  0  0999 V2000
  -32.0890  -19.6450   18.4220 C   0  0  0  0  0  3  0  0  0  0  0  0
  -31.0550  -20.5910   18.3090 C   0  0  0  0  0  3  0  0  0  0  0  0
  -31.8880  -18.4680   19.1640 C   0  0  0  0  0  3  0  0  0  0  0  0
  -29.7820  -20.3690   18.8830 C   0  0  0  0  0  0  0  0  0  0  0  0
  -29.5710  -19.1440   19.6040 C   0  0  0  0  0  0  0  0  0  0  0  0
  -30.6460  -18.2050   19.7810 C   0  0  0  0  0  0  0  0  0  0  0  0
  -27.9320  -18.9520   21.4710 C   0  0  0  0  0  2  0  0  0  0  0  0
  -28.2360  -18.8680   20.1630 C   0  0  0  0  0  3  0  0  0  0  0  0
  -28.7550  -21.4680   18.7930 C   0  0  0  0  0  3  0  0  0  0  0  0
  -28.9990  -22.7890   19.0100 C   0  0  0  0  0  3  0  0  0  0  0  0
  -28.0070  -23.9770   18.9500 C   0  0  0  0  0  2  0  0  0  0  0  0
  -28.5960  -25.2980   18.3370 C   0  0  0  0  0  2  0  0  0  0  0  0
  -28.4780  -26.5040   19.1380 O   0  0  0  0  0  0  0  0  0  0  0  0
  -24.7530  -31.3190   22.8890 C   0  0  0  0  0  0  0  0  0  0  0  0
  -27.2920  -27.2180   19.2360 C   0  0  0  0  0  0  0  0  0  0  0  0
  -23.4970  -30.0940   21.1470 C   0  0  0  0  0  3  0  0  0  0  0  0
  -24.9010  -28.7260   19.5130 C   0  0  0  0  0  0  0  0  0  0  0  0
  -26.0200  -30.4770   20.9060 C   0  0  0  0  0  2  0  0  0  0  0  0
  -26.0780  -29.1830   20.1120 C   0  0  0  0  0  0  0  0  0  0  0  0
  -27.2740  -28.4310   19.9770 C   0  0  0  0  0  3  0  0  0  0  0  0
  -26.0880  -26.7810   18.6440 C   0  0  0  0  0  3  0  0  0  0  0  0
  -24.8990  -27.5210   18.7840 C   0  0  0  0  0  3  0  0  0  0  0  0
  -23.6580  -29.5710   19.6950 C   0  0  0  0  0  2  0  0  0  0  0  0
  -24.7760  -30.6420   21.7040 N   0  0  0  0  0  0  0  0  0  0  0  0
  -23.6900  -31.5260   23.4910 O   0  0  0  0  0  0  0  0  0  0  0  0
  -22.8810  -28.9700   22.0160 C   0  0  0  0  0  0  0  0  0  0  0  0
  -21.5470  -28.8300   21.9560 N   0  0  0  0  0  0  0  0  0  0  0  0
  -23.5990  -28.2370   22.7020 O   0  0  0  0  0  0  0  0  0  0  0  0
  -21.0310  -29.4870   21.3870 H   0  0  0  0  0  0  0  0  0  0  0  0
  -18.1730  -27.6850   22.5680 C   0  0  0  0  0  0  0  0  0  0  0  0
  -20.7530  -27.8160   22.6500 C   0  0  0  0  0  3  0  0  0  0  0  0
  -20.7450  -26.4840   21.8690 C   0  0  0  0  0  2  0  0  0  0  0  0
  -19.5500  -26.3500   20.9210 C   0  0  0  0  0  2  0  0  0  0  0  0
  -18.2310  -26.4410   21.6960 C   0  0  0  0  0  2  0  0  0  0  0  0
  -19.3570  -28.3390   23.0020 C   0  0  0  0  0  0  0  0  0  0  0  0
  -19.2500  -29.5060   23.7860 C   0  0  0  0  0  3  0  0  0  0  0  0
  -17.9890  -30.0200   24.1420 C   0  0  0  0  0  3  0  0  0  0  0  0
  -16.8180  -29.3600   23.7290 C   0  0  0  0  0  3  0  0  0  0  0  0
  -16.9140  -28.1950   22.9470 C   0  0  0  0  0  3  0  0  0  0  0  0
  -26.0570  -31.8880   23.5330 C   0  0  0  0  0  3  0  0  0  0  0  0
  -25.7730  -33.2610   23.9730 N   0  0  0  0  0  0  0  0  0  0  0  0
  -26.1220  -34.3660   23.3010 C   0  0  0  0  0  0  0  0  0  0  0  0
  -26.7870  -34.3360   22.2610 O   0  0  0  0  0  0  0  0  0  0  0  0
  -25.1730  -33.3580   24.7770 H   0  0  0  0  0  0  0  0  0  0  0  0
  -24.4090  -36.2050   23.1090 C   0  0  0  0  0  1  0  0  0  0  0  0
  -25.6550  -35.7200   23.8680 C   0  0  0  0  0  3  0  0  0  0  0  0
  -27.8040  -36.5210   24.7440 C   0  0  0  0  0  1  0  0  0  0  0  0
  -26.6960  -36.7680   23.8270 N   0  0  0  0  0  0  0  0  0  0  0  0
  -26.3050  -37.6820   24.0360 H   0  0  0  0  0  0  0  0  0  0  0  0
  -26.5920  -31.0150   24.7360 C   0  0  1  0  0  0  0  0  0  0  0  0
  -25.5220  -30.7200   25.8130 C   0  0  0  0  0  1  0  0  0  0  0  0
  -27.1390  -29.6610   24.2260 C   0  0  0  0  0  1  0  0  0  0  0  0
  -27.7700  -31.7440   25.4270 C   0  0  0  0  0  1  0  0  0  0  0  0
  -30.5960  -16.9930   20.7490 C   0  0  0  0  0  2  0  0  0  0  0  0
  -30.7670  -14.6880   19.7090 C   0  0  0  0  0  0  0  0  0  0  0  0
  -30.4160  -12.5260   18.5630 C   0  0  0  0  0  2  0  0  0  0  0  0
  -29.3390  -12.6970   17.4720 C   0  0  0  0  0  2  0  0  0  0  0  0
  -27.9230  -12.5200   18.0600 C   0  0  0  0  0  2  0  0  0  0  0  0
  -27.7040  -13.3330   19.3630 C   0  0  0  0  0  3  0  0  0  0  0  0
  -28.8800  -13.1380   20.3440 C   0  0  0  0  0  2  0  0  0  0  0  0
  -30.1150  -13.4960   19.6270 N   0  0  0  0  0  0  0  0  0  0  0  0
  -31.8650  -14.8830   19.1830 O   0  0  0  0  0  0  0  0  0  0  0  0
  -30.0720  -15.6930   20.2800 N   0  0  0  0  0  0  0  0  0  0  0  0
  -29.1490  -15.4500   20.6090 H   0  0  0  0  0  0  0  0  0  0  0  0
  -25.4120  -13.8850   20.3940 C   0  0  0  0  0  0  0  0  0  0  0  0
  -24.3900  -13.0890   20.8340 C   0  0  0  0  0  0  0  0  0  0  0  0
  -24.8380  -11.7430   20.6620 C   0  0  0  0  0  0  0  0  0  0  0  0
  -26.4180  -13.0230   19.9840 N   0  0  0  0  0  0  0  0  0  0  0  0
  -26.0840  -11.7240   20.2030 N   0  0  0  0  0  0  0  0  0  0  0  0
  -24.1310  -10.4700   20.8520 C   0  0  0  0  0  0  0  0  0  0  0  0
  -24.5900   -9.4980   21.7690 C   0  0  0  0  0  3  0  0  0  0  0  0
  -23.8830   -8.2900   21.9490 C   0  0  0  0  0  3  0  0  0  0  0  0
  -22.7020   -8.0440   21.2090 C   0  0  0  0  0  0  0  0  0  0  0  0
  -22.2620   -9.0020   20.2800 C   0  0  0  0  0  3  0  0  0  0  0  0
  -22.9700  -10.2030   20.1000 C   0  0  0  0  0  3  0  0  0  0  0  0
  -21.9660   -6.8870   21.2940 O   0  0  0  0  0  0  0  0  0  0  0  0
  -21.8630   -6.1840   22.4670 C   0  0  0  0  0  0  0  0  0  0  0  0
  -21.3190   -6.7600   23.6340 C   0  0  0  0  0  3  0  0  0  0  0  0
  -21.1670   -5.9810   24.7970 C   0  0  0  0  0  3  0  0  0  0  0  0
  -21.5500   -4.6270   24.7960 C   0  0  0  0  0  0  0  0  0  0  0  0
  -22.0870   -4.0490   23.6300 C   0  0  0  0  0  3  0  0  0  0  0  0
  -22.2390   -4.8250   22.4680 C   0  0  0  0  0  0  0  0  0  0  0  0
  -22.7360   -4.2570   21.3440 F   0  0  0  0  0  0  0  0  0  0  0  0
  -21.3970   -3.8770   25.9110 F   0  0  0  0  0  0  0  0  0  0  0  0
  -23.0380  -13.5470   21.2970 C   0  0  0  0  0  0  0  0  0  0  0  0
  -22.4140  -12.7960   22.1980 N   0  0  0  0  0  0  0  0  0  0  0  0
  -22.5470  -14.6010   20.8970 O   0  0  0  0  0  0  0  0  0  0  0  0
  -22.8270  -11.9410   22.5390 H   0  0  0  0  0  0  0  0  0  0  0  0
  -21.5110  -13.0820   22.5490 H   0  0  0  0  0  0  0  0  0  0  0  0
  -25.5670  -15.2630   20.2850 N   0  0  0  0  0  0  0  0  0  0  0  0
  -24.8300  -15.9190   20.5140 H   0  0  0  0  0  0  0  0  0  0  0  0
  -26.3730  -15.7130   19.8690 H   0  0  0  0  0  0  0  0  0  0  0  0
  1  3  1  0
  2  1  2  0
  2  4  1  0
  3  6  2  0
  4  5  2  0
  5  6  1  0
  5  8  1  0
  6 54  1  0
  8  7  2  0
  9  4  1  0
  9 10  2  0
 11 10  1  0
 12 11  1  0
 12 13  1  0
 13 15  1  0
 14 25  2  0
 15 20  1  0
 16 24  1  0
 16 26  1  0
 17 23  1  0
 17 19  1  0
 18 24  1  0
 19 18  1  0
 20 19  2  0
 21 22  1  0
 21 15  2  0
 22 17  2  0
 23 16  1  0
 24 14  1  0
 26 28  2  0
 27 26  1  0
 29 27  1  0
 30 39  2  0
 30 35  1  0
 31 27  1  0
 31 35  1  0
 32 31  1  0
 33 34  1  0
 33 32  1  0
 34 30  1  0
 35 36  2  0
 36 37  1  0
 38 37  2  0
 39 38  1  0
 40 14  1  0
 40 41  1  0
 40 50  1  0
 41 44  1  0
 42 46  1  0
 42 41  1  0
 43 42  2  0
 46 45  1  0
 48 46  1  0
 48 49  1  0
 48 47  1  0
 50 53  1  1
 50 51  1  0
 52 50  1  0
 55 63  1  0
 56 61  1  0
 57 58  1  0
 57 56  1  0
 59 58  1  0
 59 68  1  0
 59 60  1  0
 61 55  1  0
 61 60  1  0
 62 55  2  0
 63 64  1  0
 63 54  1  0
 65 66  2  0
 66 85  1  0
 67 66  1  0
 67 70  1  0
 68 69  1  0
 68 65  1  0
 69 67  2  0
 70 71  1  0
 71 72  2  0
 73 76  1  0
 73 72  1  0
 74 73  2  0
 75 74  1  0
 75 70  2  0
 76 77  1  0
 77 82  2  0
 77 78  1  0
 78 79  2  0
 80 79  1  0
 80 84  1  0
 81 80  2  0
 82 81  1  0
 83 82  1  0
 85 86  1  0
 86 88  1  0
 86 89  1  0
 87 85  2  0
 90 65  1  0
 90 91  1  0
 92 90  1  0
M  ISO  4  12 101  13 101  55 100  63 100
M  END
>  <TORSDO>  (85) 
F 21

>  <SCORE>  (85) 
-9.660

>  <name>  (85) 
84

>  <ligand_id>  (85) 
84

>  <original_smiles>  (85) 
[H]C([H])=C([H])c1c(C([H])=C([H])C([H])([H])C([H])([H])Oc2c([H])c([H])c3c(c2[H])C([H])([H])N(C(=O)C([H])(N([H])C(=O)C([H])(N([H])C([H])([H])[H])C([H])([H])[H])C(C([H])([H])[H])(C([H])([H])[H])C([H])([H])[H])C([H])(C(=O)N([H])C2([H])c4c([H])c([H])c([H])c([H])c4C([H])([H])C([H])([H])C2([H])[H])C3([H])[H])c([H])c([H])c([H])c1C([H])([H])N([H])C(=O)N1C([H])([H])C([H])([H])C([H])([H])C([H])(n2nc(-c3c([H])c([H])c(Oc4c([H])c([H])c(F)c([H])c4F)c([H])c3[H])c(C(=O)N([H])[H])c2N([H])[H])C1([H])[H]

>  <smiles>  (85) 
[H]C([H])=C([H])c1c(C([H])=C([H])C([H])([H])C([H])([H])Oc2c([H])c([H])c3c(c2[H])C([H])([H])N(C(=O)C([H])(N([H])C(=O)C([H])(N([H])C([H])([H])[H])C([H])([H])[H])C(C([H])([H])[H])(C([H])([H])[H])C([H])([H])[H])C([H])(C(=O)N([H])C2([H])c4c([H])c([H])c([H])c([H])c4C([H])([H])C([H])([H])C2([H])[H])C3([H])[H])c([H])c([H])c([H])c1C([H])([H])N([H])C(=O)N1C([H])([H])C([H])([H])C([H])([H])C([H])(n2nc(-c3c([H])c([H])c(Oc4c([H])c([H])c(F)c([H])c4F)c([H])c3[H])c(C(=O)N([H])[H])c2N([H])[H])C1([H])[H]

$$$$
85:0:0
     RDKit          3D

 92100  0  0  1  0  0  0  0  0999 V2000
  -30.8490  -20.0740   21.2910 C   0  0  0  0  0  3  0  0  0  0  0  0
  -31.3050  -17.6740   21.4890 C   0  0  0  0  0  3  0  0  0  0  0  0
  -31.6450  -19.0130   21.7690 C   0  0  0  0  0  0  0  0  0  0  0  0
  -29.6920  -19.8510   20.5130 C   0  0  0  0  0  0  0  0  0  0  0  0
  -29.3490  -18.4560   20.2460 C   0  0  0  0  0  0  0  0  0  0  0  0
  -30.1590  -17.3460   20.7320 C   0  0  0  0  0  0  0  0  0  0  0  0
  -32.8900  -19.3250   22.5780 C   0  0  0  0  0  1  0  0  0  0  0  0
  -30.6270  -14.8090   20.3780 C   0  0  0  0  0  0  0  0  0  0  0  0
  -30.4360  -12.5500   19.3360 C   0  0  0  0  0  2  0  0  0  0  0  0
  -29.4860  -12.6340   18.1220 C   0  0  0  0  0  2  0  0  0  0  0  0
  -28.0200  -12.4460   18.5590 C   0  0  0  0  0  2  0  0  0  0  0  0
  -27.6460  -13.3190   19.7860 C   0  0  0  0  0  3  0  0  0  0  0  0
  -28.7150  -13.2270   20.8970 C   0  0  0  0  0  2  0  0  0  0  0  0
  -30.0050  -13.5890   20.2950 N   0  0  0  0  0  0  0  0  0  0  0  0
  -31.8160  -14.9220   20.0670 O   0  0  0  0  0  0  0  0  0  0  0  0
  -29.8240  -15.9190   20.5460 N   0  0  0  0  0  0  0  0  0  0  0  0
  -28.8390  -15.7120   20.5390 H   0  0  0  0  0  0  0  0  0  0  0  0
  -25.2530  -13.8770   20.5270 C   0  0  0  0  0  0  0  0  0  0  0  0
  -24.2000  -13.0880   20.9020 C   0  0  0  0  0  0  0  0  0  0  0  0
  -24.6810  -11.7440   20.8630 C   0  0  0  0  0  0  0  0  0  0  0  0
  -26.3080  -13.0130   20.2820 N   0  0  0  0  0  0  0  0  0  0  0  0
  -25.9720  -11.7240   20.5470 N   0  0  0  0  0  0  0  0  0  0  0  0
  -23.9730  -10.4710   21.0480 C   0  0  0  0  0  0  0  0  0  0  0  0
  -24.4180   -9.5050   21.9780 C   0  0  0  0  0  3  0  0  0  0  0  0
  -23.7080   -8.2980   22.1520 C   0  0  0  0  0  3  0  0  0  0  0  0
  -22.5380   -8.0480   21.3960 C   0  0  0  0  0  0  0  0  0  0  0  0
  -22.1130   -9.0020   20.4550 C   0  0  0  0  0  3  0  0  0  0  0  0
  -22.8240  -10.2010   20.2790 C   0  0  0  0  0  3  0  0  0  0  0  0
  -21.7980   -6.8930   21.4810 O   0  0  0  0  0  0  0  0  0  0  0  0
  -21.7530   -6.1490   22.6320 C   0  0  0  0  0  0  0  0  0  0  0  0
  -21.3080   -6.6960   23.8570 C   0  0  0  0  0  3  0  0  0  0  0  0
  -21.2130   -5.8760   25.0000 C   0  0  0  0  0  3  0  0  0  0  0  0
  -21.5530   -4.5120   24.9190 C   0  0  0  0  0  0  0  0  0  0  0  0
  -21.9910   -3.9660   23.6990 C   0  0  0  0  0  3  0  0  0  0  0  0
  -22.0880   -4.7820   22.5590 C   0  0  0  0  0  0  0  0  0  0  0  0
  -22.4910   -4.2450   21.3820 F   0  0  0  0  0  0  0  0  0  0  0  0
  -21.4540   -3.7230   26.0150 F   0  0  0  0  0  0  0  0  0  0  0  0
  -22.7980  -13.5450   21.1810 C   0  0  0  0  0  0  0  0  0  0  0  0
  -22.0800  -12.8310   22.0400 N   0  0  0  0  0  0  0  0  0  0  0  0
  -22.3470  -14.5700   20.6710 O   0  0  0  0  0  0  0  0  0  0  0  0
  -22.4570  -12.0010   22.4730 H   0  0  0  0  0  0  0  0  0  0  0  0
  -21.1390  -13.1180   22.2700 H   0  0  0  0  0  0  0  0  0  0  0  0
  -25.3920  -15.2490   20.3490 N   0  0  0  0  0  0  0  0  0  0  0  0
  -24.6040  -15.8790   20.4420 H   0  0  0  0  0  0  0  0  0  0  0  0
  -26.2050  -15.6940   19.9430 H   0  0  0  0  0  0  0  0  0  0  0  0
  -28.5140  -17.9770   17.9010 C   0  0  0  0  0  1  0  0  0  0  0  0
  -28.1400  -18.1140   19.3840 C   0  0  0  0  0  2  0  0  0  0  0  0
  -28.9890  -21.1420   19.8980 C   0  0  0  0  0  3  0  0  0  0  0  0
  -28.8350  -22.5130   20.7340 C   0  0  0  0  0  3  0  0  0  0  0  0
  -28.4700  -23.8870   19.9700 C   0  0  0  0  0  3  0  0  0  0  0  0
  -28.2260  -25.2260   20.8240 C   0  0  0  0  0  3  0  0  0  0  0  0
  -28.2960  -26.5790   20.2100 O   0  0  0  0  0  0  0  0  0  0  0  0
  -24.5440  -31.9790   23.2470 C   0  0  0  0  0  0  0  0  0  0  0  0
  -27.1640  -27.4080   20.2260 C   0  0  0  0  0  0  0  0  0  0  0  0
  -23.3420  -30.5720   21.6100 C   0  0  0  0  0  3  0  0  0  0  0  0
  -24.7950  -29.0100   20.1970 C   0  0  0  0  0  0  0  0  0  0  0  0
  -25.8780  -30.8980   21.4200 C   0  0  0  0  0  2  0  0  0  0  0  0
  -25.9620  -29.5130   20.7850 C   0  0  0  0  0  0  0  0  0  0  0  0
  -27.1520  -28.7250   20.7830 C   0  0  0  0  0  3  0  0  0  0  0  0
  -25.9730  -26.9480   19.6290 C   0  0  0  0  0  3  0  0  0  0  0  0
  -24.8030  -27.7330   19.6100 C   0  0  0  0  0  3  0  0  0  0  0  0
  -23.5560  -29.8850   20.2360 C   0  0  0  0  0  2  0  0  0  0  0  0
  -24.6080  -31.1680   22.1500 N   0  0  0  0  0  0  0  0  0  0  0  0
  -23.4610  -32.2570   23.7820 O   0  0  0  0  0  0  0  0  0  0  0  0
  -22.6810  -29.5600   22.5760 C   0  0  0  0  0  0  0  0  0  0  0  0
  -21.3560  -29.3750   22.4440 N   0  0  0  0  0  0  0  0  0  0  0  0
  -23.3580  -28.9440   23.4010 O   0  0  0  0  0  0  0  0  0  0  0  0
  -20.8690  -29.9220   21.7480 H   0  0  0  0  0  0  0  0  0  0  0  0
  -17.9810  -28.1710   22.9280 C   0  0  0  0  0  0  0  0  0  0  0  0
  -20.5370  -28.4390   23.2150 C   0  0  0  0  0  3  0  0  0  0  0  0
  -20.6490  -27.0040   22.6500 C   0  0  0  0  0  2  0  0  0  0  0  0
  -19.5540  -26.6730   21.6300 C   0  0  0  0  0  2  0  0  0  0  0  0
  -18.1670  -26.8180   22.2620 C   0  0  0  0  0  2  0  0  0  0  0  0
  -19.0950  -28.9390   23.3610 C   0  0  0  0  0  0  0  0  0  0  0  0
  -18.8670  -30.2060   23.9420 C   0  0  0  0  0  3  0  0  0  0  0  0
  -17.5600  -30.7010   24.0980 C   0  0  0  0  0  3  0  0  0  0  0  0
  -16.4610  -29.9290   23.6840 C   0  0  0  0  0  3  0  0  0  0  0  0
  -16.6730  -28.6680   23.1020 C   0  0  0  0  0  3  0  0  0  0  0  0
  -25.8270  -32.6150   23.8670 C   0  0  0  0  0  3  0  0  0  0  0  0
  -25.5160  -34.0150   24.1890 N   0  0  0  0  0  0  0  0  0  0  0  0
  -25.8600  -35.0640   23.4320 C   0  0  0  0  0  0  0  0  0  0  0  0
  -26.5380  -34.9550   22.4060 O   0  0  0  0  0  0  0  0  0  0  0  0
  -24.9150  -34.1720   24.9860 H   0  0  0  0  0  0  0  0  0  0  0  0
  -24.1460  -36.8660   23.0490 C   0  0  0  0  0  1  0  0  0  0  0  0
  -25.3730  -36.4560   23.8810 C   0  0  0  0  0  3  0  0  0  0  0  0
  -27.4970  -37.3330   24.7440 C   0  0  0  0  0  1  0  0  0  0  0  0
  -26.4120  -37.5040   23.7820 N   0  0  0  0  0  0  0  0  0  0  0  0
  -26.0080  -38.4270   23.9180 H   0  0  0  0  0  0  0  0  0  0  0  0
  -26.3380  -31.8510   25.1500 C   0  0  1  0  0  0  0  0  0  0  0  0
  -25.2380  -31.6160   26.2130 C   0  0  0  0  0  1  0  0  0  0  0  0
  -26.9300  -30.4760   24.7670 C   0  0  0  0  0  1  0  0  0  0  0  0
  -27.4820  -32.6510   25.8170 C   0  0  0  0  0  1  0  0  0  0  0  0
  1  3  1  0
  2  3  2  0
  3  7  1  0
  4  1  2  0
  5  4  1  0
  5  6  2  0
  6  2  1  0
  8 16  1  0
  9 14  1  0
 10 11  1  0
 10  9  1  0
 12 11  1  0
 12 21  1  0
 12 13  1  0
 14  8  1  0
 14 13  1  0
 15  8  2  0
 16  6  1  0
 17 16  1  0
 18 19  2  0
 19 38  1  0
 20 19  1  0
 20 23  1  0
 21 18  1  0
 21 22  1  0
 22 20  2  0
 23 24  1  0
 24 25  2  0
 26 29  1  0
 26 25  1  0
 27 26  2  0
 28 27  1  0
 28 23  2  0
 29 30  1  0
 30 31  1  0
 31 32  2  0
 33 32  1  0
 33 37  1  0
 34 33  2  0
 35 30  2  0
 35 34  1  0
 36 35  1  0
 38 39  1  0
 39 42  1  0
 39 41  1  0
 40 38  2  0
 43 44  1  0
 43 18  1  0
 45 43  1  0
 46 47  1  0
 47  5  1  0
 48  4  1  0
 48 49  2  0
 50 49  1  0
 50 51  2  0
 52 54  1  0
 52 51  1  0
 53 64  2  0
 54 59  1  0
 55 63  1  0
 55 65  1  0
 56 62  1  0
 56 58  1  0
 57 63  1  0
 58 57  1  0
 59 58  2  0
 60 54  2  0
 61 60  1  0
 61 56  2  0
 62 55  1  0
 63 53  1  0
 65 67  2  0
 66 65  1  0
 68 66  1  0
 69 78  2  0
 69 74  1  0
 70 66  1  0
 70 74  1  0
 71 70  1  0
 72 73  1  0
 72 71  1  0
 73 69  1  0
 74 75  2  0
 75 76  1  0
 77 76  2  0
 78 77  1  0
 79 53  1  0
 79 80  1  0
 79 89  1  0
 80 83  1  0
 81 85  1  0
 81 80  1  0
 82 81  2  0
 85 84  1  0
 87 85  1  0
 87 88  1  0
 87 86  1  0
 89 92  1  1
 89 90  1  0
 91 89  1  0
M  ISO  4   8 100  16 100  51 101  52 101
M  END
>  <TORSDO>  (86) 
F 21

>  <SCORE>  (86) 
-13.599

>  <name>  (86) 
85

>  <ligand_id>  (86) 
85

>  <original_smiles>  (86) 
[H]c1c([H])c([H])c2c(c1[H])C([H])([H])C([H])([H])C([H])([H])C2([H])N([H])C(=O)C1([H])N(C(=O)C([H])(N([H])C(=O)C([H])(N([H])C([H])([H])[H])C([H])([H])[H])C(C([H])([H])[H])(C([H])([H])[H])C([H])([H])[H])C([H])([H])c2c([H])c(OC([H])([H])C([H])([H])C([H])([H])C([H])([H])c3c([H])c(C([H])([H])[H])c([H])c(N([H])C(=O)N4C([H])([H])C([H])([H])C([H])([H])C([H])(n5nc(-c6c([H])c([H])c(Oc7c([H])c([H])c(F)c([H])c7F)c([H])c6[H])c(C(=O)N([H])[H])c5N([H])[H])C4([H])[H])c3C([H])([H])C([H])([H])[H])c([H])c([H])c2C1([H])[H]

>  <smiles>  (86) 
[H]c1c([H])c([H])c2c(c1[H])C([H])([H])C([H])([H])C([H])([H])C2([H])N([H])C(=O)C1([H])N(C(=O)C([H])(N([H])C(=O)C([H])(N([H])C([H])([H])[H])C([H])([H])[H])C(C([H])([H])[H])(C([H])([H])[H])C([H])([H])[H])C([H])([H])c2c([H])c(OC([H])([H])C([H])([H])C([H])([H])C([H])([H])c3c([H])c(C([H])([H])[H])c([H])c(N([H])C(=O)N4C([H])([H])C([H])([H])C([H])([H])C([H])(n5nc(-c6c([H])c([H])c(Oc7c([H])c([H])c(F)c([H])c7F)c([H])c6[H])c(C(=O)N([H])[H])c5N([H])[H])C4([H])[H])c3C([H])([H])C([H])([H])[H])c([H])c([H])c2C1([H])[H]

$$$$
86:0:0
     RDKit          3D

 92 99  0  0  1  0  0  0  0  0999 V2000
  -29.8190  -19.6450   19.7620 C   0  0  0  0  0  3  0  0  0  0  0  0
  -27.2280  -19.3320   18.8570 C   0  0  0  0  0  3  0  0  0  0  0  0
  -29.3780  -18.2990   19.5000 C   0  0  0  0  0  0  0  0  0  0  0  0
  -28.0070  -18.1680   19.0930 C   0  0  0  0  0  0  0  0  0  0  0  0
  -29.0210  -20.8280   19.5850 C   0  0  0  0  0  0  0  0  0  0  0  0
  -27.7080  -20.6380   19.0910 C   0  0  0  0  0  0  0  0  0  0  0  0
  -26.8800  -21.6890   18.8510 F   0  0  0  0  0  0  0  0  0  0  0  0
  -30.3770  -17.1450   19.6200 C   0  0  0  0  0  3  0  0  0  0  0  0
  -30.1590  -15.7960   19.5010 C   0  0  0  0  0  3  0  0  0  0  0  0
  -31.1600  -14.7020   19.6200 C   0  0  0  0  0  0  0  0  0  0  0  0
  -31.1260  -12.2420   19.3870 C   0  0  0  0  0  2  0  0  0  0  0  0
  -30.1960  -11.8210   18.2180 C   0  0  0  0  0  2  0  0  0  0  0  0
  -28.7240  -11.7480   18.6670 C   0  0  0  0  0  2  0  0  0  0  0  0
  -28.2900  -13.0000   19.4670 C   0  0  0  0  0  3  0  0  0  0  0  0
  -29.3090  -13.2680   20.5940 C   0  0  0  0  0  2  0  0  0  0  0  0
  -30.6250  -13.4920   19.9690 N   0  0  0  0  0  0  0  0  0  0  0  0
  -32.3430  -14.7950   19.2640 O   0  0  0  0  0  0  0  0  0  0  0  0
  -25.9940  -13.8740   20.2310 C   0  0  0  0  0  3  0  0  0  0  0  0
  -24.8560  -13.2220   20.6400 C   0  0  0  0  0  0  0  0  0  0  0  0
  -25.1700  -11.8330   20.6070 C   0  0  0  0  0  0  0  0  0  0  0  0
  -26.9280  -12.8810   19.9810 N   0  0  0  0  0  0  0  0  0  0  0  0
  -26.4390  -11.6500   20.2680 N   0  0  0  0  0  0  0  0  0  0  0  0
  -24.3200  -10.6560   20.8230 C   0  0  0  0  0  0  0  0  0  0  0  0
  -24.6760   -9.6490   21.7490 C   0  0  0  0  0  3  0  0  0  0  0  0
  -23.8370   -8.5300   21.9440 C   0  0  0  0  0  3  0  0  0  0  0  0
  -22.6250   -8.4180   21.2200 C   0  0  0  0  0  0  0  0  0  0  0  0
  -22.2840   -9.4140   20.2900 C   0  0  0  0  0  3  0  0  0  0  0  0
  -23.1220  -10.5250   20.0920 C   0  0  0  0  0  3  0  0  0  0  0  0
  -21.7590   -7.3580   21.3310 O   0  0  0  0  0  0  0  0  0  0  0  0
  -21.6600   -6.6240   22.4860 C   0  0  0  0  0  0  0  0  0  0  0  0
  -21.3110   -7.2200   23.7170 C   0  0  0  0  0  3  0  0  0  0  0  0
  -21.1590   -6.4210   24.8680 C   0  0  0  0  0  3  0  0  0  0  0  0
  -21.3380   -5.0270   24.7860 C   0  0  0  0  0  0  0  0  0  0  0  0
  -21.6790   -4.4320   23.5590 C   0  0  0  0  0  3  0  0  0  0  0  0
  -21.8350   -5.2280   22.4120 C   0  0  0  0  0  0  0  0  0  0  0  0
  -22.1450   -4.6470   21.2280 F   0  0  0  0  0  0  0  0  0  0  0  0
  -21.1830   -4.2590   25.8890 F   0  0  0  0  0  0  0  0  0  0  0  0
  -23.5280  -13.8510   20.9400 C   0  0  0  0  0  0  0  0  0  0  0  0
  -22.7650  -13.2610   21.8560 N   0  0  0  0  0  0  0  0  0  0  0  0
  -23.1740  -14.8950   20.3990 O   0  0  0  0  0  0  0  0  0  0  0  0
  -23.0520  -12.4090   22.3170 H   0  0  0  0  0  0  0  0  0  0  0  0
  -21.8750  -13.6730   22.0950 H   0  0  0  0  0  0  0  0  0  0  0  0
  -26.3010  -15.2090   20.0170 N   0  0  0  0  0  1  0  0  0  0  0  0
  -25.5930  -15.9290   20.0740 H   0  0  0  0  0  0  0  0  0  0  0  0
  -27.1020  -15.4950   19.4700 H   0  0  0  0  0  0  0  0  0  0  0  0
  -26.2530  -16.5620   20.0530 C   0  0  0  0  0  2  0  0  0  0  0  0
  -27.2570  -16.8380   18.9330 C   0  0  0  0  0  2  0  0  0  0  0  0
  -29.5730  -22.0800   19.9250 O   0  0  0  0  0  0  0  0  0  0  0  0
  -29.0030  -23.3720   19.5320 C   0  0  0  0  0  2  0  0  0  0  0  0
  -28.4100  -24.2930   20.6590 C   0  0  0  0  0  2  0  0  0  0  0  0
  -29.0840  -25.6730   21.0330 C   0  0  0  0  0  2  0  0  0  0  0  0
  -28.9150  -26.8940   20.2660 O   0  0  0  0  0  0  0  0  0  0  0  0
  -24.7540  -31.9370   23.3310 C   0  0  0  0  0  0  0  0  0  0  0  0
  -27.7350  -27.6150   20.3440 C   0  0  0  0  0  0  0  0  0  0  0  0
  -23.7080  -30.5270   21.5930 C   0  0  0  0  0  3  0  0  0  0  0  0
  -25.3030  -29.0730   20.2330 C   0  0  0  0  0  0  0  0  0  0  0  0
  -26.2340  -30.9760   21.5600 C   0  0  0  0  0  2  0  0  0  0  0  0
  -26.4080  -29.6140   20.9030 C   0  0  0  0  0  0  0  0  0  0  0  0
  -27.6330  -28.8950   20.9510 C   0  0  0  0  0  3  0  0  0  0  0  0
  -26.6140  -27.1020   19.6630 C   0  0  0  0  0  3  0  0  0  0  0  0
  -25.4020  -27.8160   19.6100 C   0  0  0  0  0  3  0  0  0  0  0  0
  -24.0300  -29.8910   20.2170 C   0  0  0  0  0  2  0  0  0  0  0  0
  -24.9120  -31.1650   22.2190 N   0  0  0  0  0  0  0  0  0  0  0  0
  -23.6320  -32.1490   23.8110 O   0  0  0  0  0  0  0  0  0  0  0  0
  -23.0430  -29.4570   22.4900 C   0  0  0  0  0  0  0  0  0  0  0  0
  -21.7240  -29.2720   22.3270 N   0  0  0  0  0  0  0  0  0  0  0  0
  -23.7130  -28.7940   23.2870 O   0  0  0  0  0  0  0  0  0  0  0  0
  -21.2430  -29.8690   21.6690 H   0  0  0  0  0  0  0  0  0  0  0  0
  -18.3310  -28.0950   22.7790 C   0  0  0  0  0  0  0  0  0  0  0  0
  -20.9000  -28.2840   23.0200 C   0  0  0  0  0  3  0  0  0  0  0  0
  -20.9650  -26.9140   22.2990 C   0  0  0  0  0  2  0  0  0  0  0  0
  -19.8280  -26.7060   21.2930 C   0  0  0  0  0  2  0  0  0  0  0  0
  -18.4710  -26.7990   21.9970 C   0  0  0  0  0  2  0  0  0  0  0  0
  -19.4730  -28.8000   23.2440 C   0  0  0  0  0  0  0  0  0  0  0  0
  -19.2900  -30.0160   23.9360 C   0  0  0  0  0  3  0  0  0  0  0  0
  -18.0000  -30.5300   24.1620 C   0  0  0  0  0  3  0  0  0  0  0  0
  -16.8740  -29.8230   23.7120 C   0  0  0  0  0  3  0  0  0  0  0  0
  -17.0400  -28.6070   23.0260 C   0  0  0  0  0  3  0  0  0  0  0  0
  -25.9690  -32.6050   24.0440 C   0  0  0  0  0  3  0  0  0  0  0  0
  -25.6090  -34.0060   24.3070 N   0  0  0  0  0  0  0  0  0  0  0  0
  -25.9780  -35.0410   23.5420 C   0  0  0  0  0  0  0  0  0  0  0  0
  -26.7260  -34.9230   22.5670 O   0  0  0  0  0  0  0  0  0  0  0  0
  -24.9510  -34.1710   25.0560 H   0  0  0  0  0  0  0  0  0  0  0  0
  -24.2400  -36.7810   23.0130 C   0  0  0  0  0  1  0  0  0  0  0  0
  -25.4320  -36.4340   23.9180 C   0  0  0  0  0  3  0  0  0  0  0  0
  -27.4890  -37.3900   24.8570 C   0  0  0  0  0  1  0  0  0  0  0  0
  -26.4490  -37.5030   23.8370 N   0  0  0  0  0  0  0  0  0  0  0  0
  -26.0180  -38.4180   23.9230 H   0  0  0  0  0  0  0  0  0  0  0  0
  -26.3820  -31.8770   25.3810 C   0  0  1  0  0  0  0  0  0  0  0  0
  -25.2000  -31.6380   26.3510 C   0  0  0  0  0  1  0  0  0  0  0  0
  -27.0290  -30.5050   25.0810 C   0  0  0  0  0  1  0  0  0  0  0  0
  -27.4480  -32.7160   26.1270 C   0  0  0  0  0  1  0  0  0  0  0  0
  2  6  1  0
  2  4  2  0
  3  8  1  0
  3  1  2  0
  4  3  1  0
  5  1  1  0
  5 48  1  0
  6  5  2  0
  7  6  1  0
  9 10  1  0
  9  8  2  0
 10 16  1  0
 11 16  1  0
 12 13  1  0
 12 11  1  0
 14 13  1  0
 14 21  1  0
 14 15  1  0
 16 15  1  0
 17 10  2  0
 18 19  2  0
 19 38  1  0
 20 19  1  0
 20 23  1  0
 21 18  1  0
 21 22  1  0
 22 20  2  0
 23 24  1  0
 24 25  2  0
 26 29  1  0
 26 25  1  0
 27 26  2  0
 28 27  1  0
 28 23  2  0
 29 30  1  0
 30 31  1  0
 31 32  2  0
 33 32  1  0
 33 37  1  0
 34 33  2  0
 35 30  2  0
 35 34  1  0
 36 35  1  0
 38 39  1  0
 39 42  1  0
 39 41  1  0
 40 38  2  0
 45 43  1  0
 46 44  1  0
 47  4  1  0
 47 46  1  0
 49 48  1  0
 49 50  1  0
 50 51  1  0
 52 54  1  0
 52 51  1  0
 53 64  2  0
 54 59  1  0
 55 63  1  0
 55 65  1  0
 56 58  1  0
 57 63  1  0
 58 59  2  0
 58 57  1  0
 60 54  2  0
 61 60  1  0
 61 56  2  0
 62 56  1  0
 62 55  1  0
 63 53  1  0
 65 67  2  0
 66 65  1  0
 68 66  1  0
 69 78  2  0
 69 74  1  0
 70 66  1  0
 70 74  1  0
 71 70  1  0
 72 73  1  0
 72 71  1  0
 73 69  1  0
 74 75  2  0
 75 76  1  0
 77 76  2  0
 78 77  1  0
 79 53  1  0
 79 80  1  0
 79 89  1  0
 80 83  1  0
 81 85  1  0
 81 80  1  0
 82 81  2  0
 85 84  1  0
 87 85  1  0
 87 88  1  0
 87 86  1  0
 89 92  1  1
 89 90  1  0
 91 89  1  0
M  ISO  4   9 100  10 100  51 101  52 101
M  END
>  <TORSDO>  (87) 
F 22

>  <SCORE>  (87) 
-12.919

>  <name>  (87) 
86

>  <ligand_id>  (87) 
86

>  <original_smiles>  (87) 
[H]C(C(=O)N1C([H])([H])C([H])([H])C([H])([H])C([H])(n2nc(-c3c([H])c([H])c(Oc4c([H])c([H])c(F)c([H])c4F)c([H])c3[H])c(C(=O)N([H])[H])c2N([H])[H])C1([H])[H])=C([H])c1c([H])c(OC([H])([H])C([H])([H])C([H])([H])Oc2c([H])c([H])c3c(c2[H])C([H])([H])N(C(=O)C([H])(N([H])C(=O)C([H])(N([H])C([H])([H])[H])C([H])([H])[H])C(C([H])([H])[H])(C([H])([H])[H])C([H])([H])[H])C([H])(C(=O)N([H])C2([H])c4c([H])c([H])c([H])c([H])c4C([H])([H])C([H])([H])C2([H])[H])C3([H])[H])c(F)c([H])c1C([H])([H])C([H])([H])[H]

>  <smiles>  (87) 
[H]C(C(=O)N1C([H])([H])C([H])([H])C([H])([H])C([H])(n2nc(-c3c([H])c([H])c(Oc4c([H])c([H])c(F)c([H])c4F)c([H])c3[H])c(C(=O)N([H])[H])c2N([H])[H])C1([H])[H])=C([H])c1c([H])c(OC([H])([H])C([H])([H])C([H])([H])Oc2c([H])c([H])c3c(c2[H])C([H])([H])N(C(=O)C([H])(N([H])C(=O)C([H])(N([H])C([H])([H])[H])C([H])([H])[H])C(C([H])([H])[H])(C([H])([H])[H])C([H])([H])[H])C([H])(C(=O)N([H])C2([H])c4c([H])c([H])c([H])c([H])c4C([H])([H])C([H])([H])C2([H])[H])C3([H])[H])c(F)c([H])c1C([H])([H])C([H])([H])[H]

$$$$
87:0:0
     RDKit          3D

 88 96  0  0  1  0  0  0  0  0999 V2000
  -30.2040  -21.9990   20.4170 C   0  0  0  0  0  2  0  0  0  0  0  0
  -30.7470  -19.4510   20.2110 C   0  0  0  0  0  3  0  0  0  0  0  0
  -28.7730  -19.8970   21.0850 C   0  0  0  0  0  3  0  0  0  0  0  0
  -29.8860  -20.5220   20.5830 C   0  0  0  0  0  0  0  0  0  0  0  0
  -30.1110  -18.2730   20.4910 C   0  0  0  0  0  0  0  0  0  0  0  0
  -28.8900  -18.5310   21.0320 O   0  0  0  0  0  0  0  0  0  0  0  0
  -30.5300  -16.9240   20.2610 C   0  0  0  0  0  3  0  0  0  0  0  0
  -29.9750  -15.7140   20.5220 C   0  0  0  0  0  3  0  0  0  0  0  0
  -30.6960  -14.5120   20.0820 C   0  0  0  0  0  0  0  0  0  0  0  0
  -30.3320  -12.3470   18.9820 C   0  0  0  0  0  2  0  0  0  0  0  0
  -29.3540  -12.5650   17.8080 C   0  0  0  0  0  2  0  0  0  0  0  0
  -27.8970  -12.4210   18.2870 C   0  0  0  0  0  2  0  0  0  0  0  0
  -27.6020  -13.2460   19.5690 C   0  0  0  0  0  3  0  0  0  0  0  0
  -28.7010  -13.0390   20.6340 C   0  0  0  0  0  2  0  0  0  0  0  0
  -30.0010  -13.3410   20.0180 N   0  0  0  0  0  0  0  0  0  0  0  0
  -31.8380  -14.5930   19.6190 O   0  0  0  0  0  0  0  0  0  0  0  0
  -25.2250  -13.8160   20.3690 C   0  0  0  0  0  0  0  0  0  0  0  0
  -24.1820  -13.0280   20.7770 C   0  0  0  0  0  0  0  0  0  0  0  0
  -24.6620  -11.6830   20.7300 C   0  0  0  0  0  0  0  0  0  0  0  0
  -26.2730  -12.9500   20.0990 N   0  0  0  0  0  0  0  0  0  0  0  0
  -25.9410  -11.6620   20.3750 N   0  0  0  0  0  0  0  0  0  0  0  0
  -23.9620  -10.4110   20.9470 C   0  0  0  0  0  0  0  0  0  0  0  0
  -24.4150   -9.4700   21.8980 C   0  0  0  0  0  3  0  0  0  0  0  0
  -23.7130   -8.2610   22.1010 C   0  0  0  0  0  3  0  0  0  0  0  0
  -22.5440   -7.9860   21.3530 C   0  0  0  0  0  0  0  0  0  0  0  0
  -22.1100   -8.9160   20.3910 C   0  0  0  0  0  3  0  0  0  0  0  0
  -22.8130  -10.1140   20.1860 C   0  0  0  0  0  3  0  0  0  0  0  0
  -21.8120   -6.8280   21.4650 O   0  0  0  0  0  0  0  0  0  0  0  0
  -21.7440   -6.1300   22.6430 C   0  0  0  0  0  0  0  0  0  0  0  0
  -21.2640   -6.7210   23.8330 C   0  0  0  0  0  3  0  0  0  0  0  0
  -21.1470   -5.9480   25.0050 C   0  0  0  0  0  3  0  0  0  0  0  0
  -21.4980   -4.5850   24.9880 C   0  0  0  0  0  0  0  0  0  0  0  0
  -21.9710   -3.9930   23.8040 C   0  0  0  0  0  3  0  0  0  0  0  0
  -22.0910   -4.7640   22.6330 C   0  0  0  0  0  0  0  0  0  0  0  0
  -22.5270   -4.1840   21.4890 F   0  0  0  0  0  0  0  0  0  0  0  0
  -21.3780   -3.8390   26.1120 F   0  0  0  0  0  0  0  0  0  0  0  0
  -22.7890  -13.4860   21.1020 C   0  0  0  0  0  0  0  0  0  0  0  0
  -22.1050  -12.7790   21.9950 N   0  0  0  0  0  0  0  0  0  0  0  0
  -22.3170  -14.5030   20.5980 O   0  0  0  0  0  0  0  0  0  0  0  0
  -22.5000  -11.9550   22.4240 H   0  0  0  0  0  0  0  0  0  0  0  0
  -21.1730  -13.0670   22.2560 H   0  0  0  0  0  0  0  0  0  0  0  0
  -25.3650  -15.1880   20.1860 N   0  0  0  0  0  0  0  0  0  0  0  0
  -24.5980  -15.8370   20.3280 H   0  0  0  0  0  0  0  0  0  0  0  0
  -26.2050  -15.6390   19.8470 H   0  0  0  0  0  0  0  0  0  0  0  0
  -29.0710  -22.9800   20.7750 C   0  0  0  0  0  2  0  0  0  0  0  0
  -29.3960  -24.4460   20.3930 C   0  0  0  0  0  2  0  0  0  0  0  0
  -28.2670  -25.4180   20.7740 C   0  0  0  0  0  2  0  0  0  0  0  0
  -28.4460  -26.7300   20.2100 O   0  0  0  0  0  0  0  0  0  0  0  0
  -24.6180  -31.8990   23.2580 C   0  0  0  0  0  0  0  0  0  0  0  0
  -27.2930  -27.4850   20.1790 C   0  0  0  0  0  0  0  0  0  0  0  0
  -23.4280  -30.5010   21.6020 C   0  0  0  0  0  3  0  0  0  0  0  0
  -24.8960  -28.9840   20.1740 C   0  0  0  0  0  0  0  0  0  0  0  0
  -25.9530  -30.8740   21.4210 C   0  0  0  0  0  2  0  0  0  0  0  0
  -26.0490  -29.5070   20.7740 C   0  0  0  0  0  0  0  0  0  0  0  0
  -27.2530  -28.7670   20.7720 C   0  0  0  0  0  3  0  0  0  0  0  0
  -26.1290  -26.9860   19.5530 C   0  0  0  0  0  3  0  0  0  0  0  0
  -24.9320  -27.7220   19.5580 C   0  0  0  0  0  3  0  0  0  0  0  0
  -23.6480  -29.8330   20.2190 C   0  0  0  0  0  2  0  0  0  0  0  0
  -24.6850  -31.1060   22.1530 N   0  0  0  0  0  0  0  0  0  0  0  0
  -23.5330  -32.1640   23.7930 O   0  0  0  0  0  0  0  0  0  0  0  0
  -22.7770  -29.4700   22.5520 C   0  0  0  0  0  0  0  0  0  0  0  0
  -21.4530  -29.2830   22.4150 N   0  0  0  0  0  0  0  0  0  0  0  0
  -23.4580  -28.8430   23.3670 O   0  0  0  0  0  0  0  0  0  0  0  0
  -20.9660  -29.8400   21.7280 H   0  0  0  0  0  0  0  0  0  0  0  0
  -18.0800  -28.0810   22.8910 C   0  0  0  0  0  0  0  0  0  0  0  0
  -20.6360  -28.3390   23.1760 C   0  0  0  0  0  3  0  0  0  0  0  0
  -20.7430  -26.9120   22.5880 C   0  0  0  0  0  2  0  0  0  0  0  0
  -19.6450  -26.5960   21.5680 C   0  0  0  0  0  2  0  0  0  0  0  0
  -18.2610  -26.7350   22.2070 C   0  0  0  0  0  2  0  0  0  0  0  0
  -19.1960  -28.8400   23.3320 C   0  0  0  0  0  0  0  0  0  0  0  0
  -18.9740  -30.0990   23.9300 C   0  0  0  0  0  3  0  0  0  0  0  0
  -17.6690  -30.6000   24.0920 C   0  0  0  0  0  3  0  0  0  0  0  0
  -16.5670  -29.8370   23.6680 C   0  0  0  0  0  3  0  0  0  0  0  0
  -16.7730  -28.5790   23.0740 C   0  0  0  0  0  3  0  0  0  0  0  0
  -25.8980  -32.5320   23.8880 C   0  0  0  0  0  3  0  0  0  0  0  0
  -25.5850  -33.9300   24.2150 N   0  0  0  0  0  0  0  0  0  0  0  0
  -25.9160  -34.9810   23.4550 C   0  0  0  0  0  0  0  0  0  0  0  0
  -26.5910  -34.8780   22.4250 O   0  0  0  0  0  0  0  0  0  0  0  0
  -24.9880  -34.0830   25.0130 H   0  0  0  0  0  0  0  0  0  0  0  0
  -24.1830  -36.7650   23.0880 C   0  0  0  0  0  1  0  0  0  0  0  0
  -25.4220  -36.3680   23.9060 C   0  0  0  0  0  3  0  0  0  0  0  0
  -27.5490  -37.2620   24.7440 C   0  0  0  0  0  1  0  0  0  0  0  0
  -26.4520  -37.4250   23.7950 N   0  0  0  0  0  0  0  0  0  0  0  0
  -26.0410  -38.3440   23.9390 H   0  0  0  0  0  0  0  0  0  0  0  0
  -26.4100  -31.7600   25.1650 C   0  0  1  0  0  0  0  0  0  0  0  0
  -25.3110  -31.5150   26.2250 C   0  0  0  0  0  1  0  0  0  0  0  0
  -27.0010  -30.3850   24.7720 C   0  0  0  0  0  1  0  0  0  0  0  0
  -27.5540  -32.5550   25.8370 C   0  0  0  0  0  1  0  0  0  0  0  0
  1  4  1  0
  1 45  1  0
  2  5  2  0
  2  4  1  0
  4  3  2  0
  5  6  1  0
  6  3  1  0
  7  5  1  0
  7  8  2  0
  9  8  1  0
 10 15  1  0
 11 12  1  0
 11 10  1  0
 13 12  1  0
 13 20  1  0
 13 14  1  0
 15  9  1  0
 15 14  1  0
 16  9  2  0
 17 18  2  0
 18 37  1  0
 19 18  1  0
 19 22  1  0
 20 17  1  0
 20 21  1  0
 21 19  2  0
 22 23  1  0
 23 24  2  0
 25 28  1  0
 25 24  1  0
 26 25  2  0
 27 26  1  0
 27 22  2  0
 28 29  1  0
 29 30  1  0
 30 31  2  0
 32 31  1  0
 32 36  1  0
 33 32  2  0
 34 29  2  0
 34 33  1  0
 35 34  1  0
 37 38  1  0
 38 41  1  0
 38 40  1  0
 39 37  2  0
 42 43  1  0
 42 17  1  0
 44 42  1  0
 46 47  1  0
 46 45  1  0
 48 47  1  0
 49 60  2  0
 50 48  1  0
 50 55  1  0
 51 59  1  0
 51 61  1  0
 52 58  1  0
 52 54  1  0
 53 59  1  0
 54 53  1  0
 55 54  2  0
 56 57  1  0
 56 50  2  0
 57 52  2  0
 58 51  1  0
 59 49  1  0
 61 63  2  0
 62 61  1  0
 64 62  1  0
 65 74  2  0
 65 70  1  0
 66 62  1  0
 66 70  1  0
 67 66  1  0
 68 69  1  0
 68 67  1  0
 69 65  1  0
 70 71  2  0
 71 72  1  0
 73 72  2  0
 74 73  1  0
 75 49  1  0
 75 76  1  0
 75 85  1  0
 76 79  1  0
 77 81  1  0
 77 76  1  0
 78 77  2  0
 81 80  1  0
 83 81  1  0
 83 84  1  0
 83 82  1  0
 85 88  1  1
 85 86  1  0
 87 85  1  0
M  ISO  4   8 100   9 100  47 101  48 101
M  END
>  <TORSDO>  (88) 
F 21

>  <SCORE>  (88) 
-12.946

>  <name>  (88) 
87

>  <ligand_id>  (88) 
87

>  <original_smiles>  (88) 
[H]C(C(=O)N1C([H])([H])C([H])([H])C([H])([H])C([H])(n2nc(-c3c([H])c([H])c(Oc4c([H])c([H])c(F)c([H])c4F)c([H])c3[H])c(C(=O)N([H])[H])c2N([H])[H])C1([H])[H])=C([H])c1oc([H])c(C([H])([H])C([H])([H])C([H])([H])C([H])([H])Oc2c([H])c([H])c3c(c2[H])C([H])([H])N(C(=O)C([H])(N([H])C(=O)C([H])(N([H])C([H])([H])[H])C([H])([H])[H])C(C([H])([H])[H])(C([H])([H])[H])C([H])([H])[H])C([H])(C(=O)N([H])C2([H])c4c([H])c([H])c([H])c([H])c4C([H])([H])C([H])([H])C2([H])[H])C3([H])[H])c1[H]

>  <smiles>  (88) 
[H]C(C(=O)N1C([H])([H])C([H])([H])C([H])([H])C([H])(n2nc(-c3c([H])c([H])c(Oc4c([H])c([H])c(F)c([H])c4F)c([H])c3[H])c(C(=O)N([H])[H])c2N([H])[H])C1([H])[H])=C([H])c1oc([H])c(C([H])([H])C([H])([H])C([H])([H])C([H])([H])Oc2c([H])c([H])c3c(c2[H])C([H])([H])N(C(=O)C([H])(N([H])C(=O)C([H])(N([H])C([H])([H])[H])C([H])([H])[H])C(C([H])([H])[H])(C([H])([H])[H])C([H])([H])[H])C([H])(C(=O)N([H])C2([H])c4c([H])c([H])c([H])c([H])c4C([H])([H])C([H])([H])C2([H])[H])C3([H])[H])c1[H]

$$$$
