0:0:0
     RDKit          3D

 92100  0  0  1  0  0  0  0  0999 V2000
  -31.3600  -20.3970   18.7820 C   0  0  0  0  0  3  0  0  0  0  0  0
  -30.5380  -21.2330   19.5420 C   0  0  0  0  0  3  0  0  0  0  0  0
  -29.7660  -19.2940   20.8140 C   0  0  0  0  0  3  0  0  0  0  0  0
  -31.3990  -19.0080   19.0110 C   0  0  0  0  0  0  0  0  0  0  0  0
  -30.6180  -18.4300   20.0600 C   0  0  0  0  0  0  0  0  0  0  0  0
  -29.7230  -20.7040   20.5620 C   0  0  0  0  0  0  0  0  0  0  0  0
  -33.4540  -18.6290   17.6070 C   0  0  0  0  0  2  0  0  0  0  0  0
  -32.3150  -18.1960   18.1760 C   0  0  0  0  0  3  0  0  0  0  0  0
  -30.8480  -16.9660   20.2990 C   0  0  0  0  0  3  0  0  0  0  0  0
  -30.0630  -15.8590   20.4780 C   0  0  0  0  0  3  0  0  0  0  0  0
  -30.7400  -14.5400   20.4050 C   0  0  0  0  0  0  0  0  0  0  0  0
  -30.3460  -12.3400   19.3790 C   0  0  0  0  0  2  0  0  0  0  0  0
  -29.4410  -12.5400   18.1470 C   0  0  0  0  0  2  0  0  0  0  0  0
  -27.9640  -12.4040   18.5630 C   0  0  0  0  0  2  0  0  0  0  0  0
  -27.6110  -13.2720   19.8020 C   0  0  0  0  0  3  0  0  0  0  0  0
  -28.6650  -13.1530   20.9240 C   0  0  0  0  0  2  0  0  0  0  0  0
  -29.9910  -13.3970   20.3460 N   0  0  0  0  0  0  0  0  0  0  0  0
  -31.9370  -14.4860   20.1210 O   0  0  0  0  0  0  0  0  0  0  0  0
  -25.2180  -13.8610   20.5240 C   0  0  0  0  0  0  0  0  0  0  0  0
  -24.1520  -13.0870   20.8920 C   0  0  0  0  0  0  0  0  0  0  0  0
  -24.6160  -11.7350   20.8660 C   0  0  0  0  0  0  0  0  0  0  0  0
  -26.2640  -12.9840   20.2920 N   0  0  0  0  0  0  0  0  0  0  0  0
  -25.9080  -11.6990   20.5610 N   0  0  0  0  0  0  0  0  0  0  0  0
  -23.8900  -10.4730   21.0580 C   0  0  0  0  0  0  0  0  0  0  0  0
  -24.3260   -9.5000   21.9840 C   0  0  0  0  0  3  0  0  0  0  0  0
  -23.5980   -8.3040   22.1640 C   0  0  0  0  0  3  0  0  0  0  0  0
  -22.4170   -8.0720   21.4180 C   0  0  0  0  0  0  0  0  0  0  0  0
  -21.9980   -9.0340   20.4820 C   0  0  0  0  0  3  0  0  0  0  0  0
  -22.7280  -10.2210   20.2990 C   0  0  0  0  0  3  0  0  0  0  0  0
  -21.6590   -6.9290   21.5070 O   0  0  0  0  0  0  0  0  0  0  0  0
  -21.6290   -6.1740   22.6530 C   0  0  0  0  0  0  0  0  0  0  0  0
  -21.2350   -6.7190   23.8950 C   0  0  0  0  0  3  0  0  0  0  0  0
  -21.1520   -5.8910   25.0310 C   0  0  0  0  0  3  0  0  0  0  0  0
  -21.4510   -4.5190   24.9280 C   0  0  0  0  0  0  0  0  0  0  0  0
  -21.8390   -3.9740   23.6910 C   0  0  0  0  0  3  0  0  0  0  0  0
  -21.9250   -4.7990   22.5560 C   0  0  0  0  0  0  0  0  0  0  0  0
  -22.2780   -4.2650   21.3620 F   0  0  0  0  0  0  0  0  0  0  0  0
  -21.3620   -3.7210   26.0170 F   0  0  0  0  0  0  0  0  0  0  0  0
  -22.7530  -13.5640   21.1570 C   0  0  0  0  0  0  0  0  0  0  0  0
  -22.0220  -12.8700   22.0230 N   0  0  0  0  0  0  0  0  0  0  0  0
  -22.3170  -14.5880   20.6330 O   0  0  0  0  0  0  0  0  0  0  0  0
  -22.3860  -12.0430   22.4720 H   0  0  0  0  0  0  0  0  0  0  0  0
  -21.0830  -13.1740   22.2440 H   0  0  0  0  0  0  0  0  0  0  0  0
  -25.3790  -15.2320   20.3440 N   0  0  0  0  0  0  0  0  0  0  0  0
  -24.6070  -15.8810   20.4480 H   0  0  0  0  0  0  0  0  0  0  0  0
  -26.2340  -15.6820   20.0390 H   0  0  0  0  0  0  0  0  0  0  0  0
  -28.9490  -21.5660   21.3250 O   0  0  0  0  0  0  0  0  0  0  0  0
  -28.2450  -22.6270   20.6240 C   0  0  0  0  0  2  0  0  0  0  0  0
  -28.8180  -24.0690   20.7920 C   0  0  0  0  0  0  0  0  0  0  0  0
  -29.7170  -24.3390   21.5970 O   0  0  0  0  0  0  0  0  0  0  0  0
  -28.1670  -25.1400   19.8780 C   0  0  0  0  0  2  0  0  0  0  0  0
  -28.3340  -26.5400   20.2750 O   0  0  0  0  0  0  0  0  0  0  0  0
  -24.5890  -31.8820   23.2400 C   0  0  0  0  0  0  0  0  0  0  0  0
  -27.2120  -27.3640   20.1850 C   0  0  0  0  0  0  0  0  0  0  0  0
  -23.3900  -30.4820   21.5990 C   0  0  0  0  0  3  0  0  0  0  0  0
  -24.8440  -28.9490   20.1730 C   0  0  0  0  0  0  0  0  0  0  0  0
  -25.9290  -30.8100   21.4270 C   0  0  0  0  0  2  0  0  0  0  0  0
  -26.0070  -29.4390   20.7800 C   0  0  0  0  0  0  0  0  0  0  0  0
  -27.1920  -28.6520   20.7880 C   0  0  0  0  0  3  0  0  0  0  0  0
  -26.0330  -26.9420   19.5190 C   0  0  0  0  0  3  0  0  0  0  0  0
  -24.8560  -27.7030   19.5380 C   0  0  0  0  0  3  0  0  0  0  0  0
  -23.6060  -29.8160   20.2170 C   0  0  0  0  0  2  0  0  0  0  0  0
  -24.6530  -31.0750   22.1440 N   0  0  0  0  0  0  0  0  0  0  0  0
  -23.5050  -32.1600   23.7710 O   0  0  0  0  0  0  0  0  0  0  0  0
  -22.7330  -29.4570   22.5530 C   0  0  0  0  0  0  0  0  0  0  0  0
  -21.4100  -29.2730   22.4180 N   0  0  0  0  0  0  0  0  0  0  0  0
  -23.4110  -28.8350   23.3750 O   0  0  0  0  0  0  0  0  0  0  0  0
  -20.9220  -29.8260   21.7270 H   0  0  0  0  0  0  0  0  0  0  0  0
  -18.0340  -28.0690   22.8950 C   0  0  0  0  0  0  0  0  0  0  0  0
  -20.5890  -28.3360   23.1850 C   0  0  0  0  0  3  0  0  0  0  0  0
  -20.6990  -26.9010   22.6180 C   0  0  0  0  0  2  0  0  0  0  0  0
  -19.6060  -26.5700   21.5970 C   0  0  0  0  0  2  0  0  0  0  0  0
  -18.2190  -26.7160   22.2290 C   0  0  0  0  0  2  0  0  0  0  0  0
  -19.1460  -28.8360   23.3300 C   0  0  0  0  0  0  0  0  0  0  0  0
  -18.9210  -30.1010   23.9130 C   0  0  0  0  0  3  0  0  0  0  0  0
  -17.6120  -30.6010   24.0650 C   0  0  0  0  0  3  0  0  0  0  0  0
  -16.5140  -29.8310   23.6450 C   0  0  0  0  0  3  0  0  0  0  0  0
  -16.7250  -28.5670   23.0670 C   0  0  0  0  0  3  0  0  0  0  0  0
  -25.8720  -32.5130   23.8640 C   0  0  0  0  0  3  0  0  0  0  0  0
  -25.5610  -33.9110   24.1910 N   0  0  0  0  0  0  0  0  0  0  0  0
  -25.8910  -34.9620   23.4280 C   0  0  0  0  0  0  0  0  0  0  0  0
  -26.5640  -34.8580   22.3980 O   0  0  0  0  0  0  0  0  0  0  0  0
  -24.9640  -34.0670   24.9900 H   0  0  0  0  0  0  0  0  0  0  0  0
  -24.1600  -36.7490   23.0670 C   0  0  0  0  0  1  0  0  0  0  0  0
  -25.4000  -36.3500   23.8820 C   0  0  0  0  0  3  0  0  0  0  0  0
  -27.5330  -37.2380   24.7130 C   0  0  0  0  0  1  0  0  0  0  0  0
  -26.4310  -37.4050   23.7700 N   0  0  0  0  0  0  0  0  0  0  0  0
  -26.0240  -38.3240   23.9170 H   0  0  0  0  0  0  0  0  0  0  0  0
  -26.3860  -31.7440   25.1430 C   0  0  1  0  0  0  0  0  0  0  0  0
  -25.2890  -31.5090   26.2080 C   0  0  0  0  0  1  0  0  0  0  0  0
  -26.9700  -30.3650   24.7550 C   0  0  0  0  0  1  0  0  0  0  0  0
  -27.5330  -32.5420   25.8060 C   0  0  0  0  0  1  0  0  0  0  0  0
  1  4  2  0
  1  2  1  0
  2  6  2  0
  4  5  1  0
  5  9  1  0
  5  3  2  0
  6  3  1  0
  6 47  1  0
  7  8  2  0
  8  4  1  0
  9 10  2  0
 11 10  1  0
 12 17  1  0
 13 14  1  0
 13 12  1  0
 15 14  1  0
 15 22  1  0
 15 16  1  0
 17 11  1  0
 17 16  1  0
 18 11  2  0
 19 20  2  0
 20 39  1  0
 21 20  1  0
 21 24  1  0
 22 19  1  0
 22 23  1  0
 23 21  2  0
 24 25  1  0
 25 26  2  0
 27 30  1  0
 27 26  1  0
 28 27  2  0
 29 28  1  0
 29 24  2  0
 30 31  1  0
 31 32  1  0
 32 33  2  0
 34 33  1  0
 34 38  1  0
 35 34  2  0
 36 31  2  0
 36 35  1  0
 37 36  1  0
 39 40  1  0
 40 43  1  0
 40 42  1  0
 41 39  2  0
 44 45  1  0
 44 19  1  0
 46 44  1  0
 48 49  1  0
 48 47  1  0
 49 50  2  0
 51 52  1  0
 51 49  1  0
 53 64  2  0
 54 52  1  0
 54 59  1  0
 55 63  1  0
 55 65  1  0
 56 62  1  0
 56 58  1  0
 57 63  1  0
 58 59  2  0
 58 57  1  0
 60 61  1  0
 60 54  2  0
 61 56  2  0
 62 55  1  0
 63 53  1  0
 65 67  2  0
 66 65  1  0
 68 66  1  0
 69 78  2  0
 69 74  1  0
 70 66  1  0
 70 74  1  0
 71 70  1  0
 72 73  1  0
 72 71  1  0
 73 69  1  0
 74 75  2  0
 75 76  1  0
 77 76  2  0
 78 77  1  0
 79 53  1  0
 79 80  1  0
 79 89  1  0
 80 83  1  0
 81 85  1  0
 81 80  1  0
 82 81  2  0
 85 84  1  0
 87 85  1  0
 87 88  1  0
 87 86  1  0
 89 92  1  1
 89 90  1  0
 91 89  1  0
M  ISO  4  10 100  11 100  51 101  52 101
M  END
>  <TORSDO>  (1) 
F 22

>  <SCORE>  (1) 
-13.284

>  <name>  (1) 
0

>  <ligand_id>  (1) 
0

>  <original_smiles>  (1) 
[H]C([H])=C([H])c1c([H])c([H])c(OC([H])([H])C(=O)C([H])([H])Oc2c([H])c([H])c3c(c2[H])C([H])([H])N(C(=O)C([H])(N([H])C(=O)C([H])(N([H])C([H])([H])[H])C([H])([H])[H])C(C([H])([H])[H])(C([H])([H])[H])C([H])([H])[H])C([H])(C(=O)N([H])C2([H])c4c([H])c([H])c([H])c([H])c4C([H])([H])C([H])([H])C2([H])[H])C3([H])[H])c([H])c1C([H])=C([H])C(=O)N1C([H])([H])C([H])([H])C([H])([H])C([H])(n2nc(-c3c([H])c([H])c(Oc4c([H])c([H])c(F)c([H])c4F)c([H])c3[H])c(C(=O)N([H])[H])c2N([H])[H])C1([H])[H]

>  <smiles>  (1) 
[H]C([H])=C([H])c1c([H])c([H])c(OC([H])([H])C(=O)C([H])([H])Oc2c([H])c([H])c3c(c2[H])C([H])([H])N(C(=O)C([H])(N([H])C(=O)C([H])(N([H])C([H])([H])[H])C([H])([H])[H])C(C([H])([H])[H])(C([H])([H])[H])C([H])([H])[H])C([H])(C(=O)N([H])C2([H])c4c([H])c([H])c([H])c([H])c4C([H])([H])C([H])([H])C2([H])[H])C3([H])[H])c([H])c1C([H])=C([H])C(=O)N1C([H])([H])C([H])([H])C([H])([H])C([H])(n2nc(-c3c([H])c([H])c(Oc4c([H])c([H])c(F)c([H])c4F)c([H])c3[H])c(C(=O)N([H])[H])c2N([H])[H])C1([H])[H]

$$$$
1:0:0
     RDKit          3D

 92101  0  0  1  0  0  0  0  0999 V2000
  -28.3440  -24.0750   21.0110 C   0  0  0  0  0  0  0  0  0  0  0  0
  -27.9770  -25.3960   20.9980 C   0  0  0  0  0  3  0  0  0  0  0  0
  -27.6470  -23.1330   21.9710 C   0  0  0  0  0  2  0  0  0  0  0  0
  -29.3230  -23.1850   20.2050 C   0  0  0  0  0  2  0  0  0  0  0  0
  -27.8250  -21.7350   21.3940 C   0  0  0  0  0  2  0  0  0  0  0  0
  -29.0820  -21.7850   20.6670 N   0  0  0  0  0  0  0  0  0  0  0  0
  -31.0760  -18.1710   19.4440 C   0  0  0  0  0  3  0  0  0  0  0  0
  -29.5170  -19.3090   20.9100 C   0  0  0  0  0  3  0  0  0  0  0  0
  -30.6870  -20.5940   19.2240 C   0  0  0  0  0  3  0  0  0  0  0  0
  -30.1870  -18.0990   20.5330 C   0  0  0  0  0  0  0  0  0  0  0  0
  -31.3300  -19.4070   18.8070 C   0  0  0  0  0  0  0  0  0  0  0  0
  -29.7470  -20.5780   20.2770 C   0  0  0  0  0  0  0  0  0  0  0  0
  -32.3170  -19.4710   17.6640 C   0  0  0  0  0  1  0  0  0  0  0  0
  -29.9330  -16.8460   21.3290 C   0  0  0  0  0  3  0  0  0  0  0  0
  -30.1400  -15.4920   21.2430 C   0  0  0  0  0  3  0  0  0  0  0  0
  -30.7340  -14.6140   20.2110 C   0  0  0  0  0  0  0  0  0  0  0  0
  -30.4240  -12.4870   18.9270 C   0  0  0  0  0  2  0  0  0  0  0  0
  -29.4180  -12.6960   17.7740 C   0  0  0  0  0  2  0  0  0  0  0  0
  -27.9610  -12.5370   18.2520 C   0  0  0  0  0  2  0  0  0  0  0  0
  -27.6850  -13.3390   19.5500 C   0  0  0  0  0  3  0  0  0  0  0  0
  -28.7750  -13.0380   20.5970 C   0  0  0  0  0  2  0  0  0  0  0  0
  -30.0780  -13.4230   20.0200 N   0  0  0  0  0  0  0  0  0  0  0  0
  -31.7740  -14.8730   19.5940 O   0  0  0  0  0  0  0  0  0  0  0  0
  -25.3300  -13.9640   20.3780 C   0  0  0  0  0  0  0  0  0  0  0  0
  -24.2750  -13.1970   20.7930 C   0  0  0  0  0  0  0  0  0  0  0  0
  -24.7250  -11.8430   20.7310 C   0  0  0  0  0  0  0  0  0  0  0  0
  -26.3520  -13.0750   20.0840 N   0  0  0  0  0  0  0  0  0  0  0  0
  -25.9940  -11.7950   20.3550 N   0  0  0  0  0  0  0  0  0  0  0  0
  -24.0010  -10.5830   20.9400 C   0  0  0  0  0  0  0  0  0  0  0  0
  -24.4590   -9.6120   21.8590 C   0  0  0  0  0  3  0  0  0  0  0  0
  -23.7370   -8.4150   22.0540 C   0  0  0  0  0  3  0  0  0  0  0  0
  -22.5420   -8.1830   21.3330 C   0  0  0  0  0  0  0  0  0  0  0  0
  -22.1040   -9.1400   20.4020 C   0  0  0  0  0  3  0  0  0  0  0  0
  -22.8250  -10.3280   20.2020 C   0  0  0  0  0  3  0  0  0  0  0  0
  -21.7870   -7.0400   21.4390 O   0  0  0  0  0  0  0  0  0  0  0  0
  -21.7460   -6.3100   22.6000 C   0  0  0  0  0  0  0  0  0  0  0  0
  -21.3410   -6.8810   23.8270 C   0  0  0  0  0  3  0  0  0  0  0  0
  -21.2480   -6.0770   24.9810 C   0  0  0  0  0  3  0  0  0  0  0  0
  -21.5470   -4.7030   24.9080 C   0  0  0  0  0  0  0  0  0  0  0  0
  -21.9430   -4.1320   23.6880 C   0  0  0  0  0  3  0  0  0  0  0  0
  -22.0390   -4.9330   22.5360 C   0  0  0  0  0  0  0  0  0  0  0  0
  -22.4020   -4.3730   21.3580 F   0  0  0  0  0  0  0  0  0  0  0  0
  -21.4500   -3.9290   26.0150 F   0  0  0  0  0  0  0  0  0  0  0  0
  -22.8940  -13.6790   21.1360 C   0  0  0  0  0  0  0  0  0  0  0  0
  -22.2050  -12.9840   22.0330 N   0  0  0  0  0  0  0  0  0  0  0  0
  -22.4360  -14.7100   20.6410 O   0  0  0  0  0  0  0  0  0  0  0  0
  -22.5800  -12.1460   22.4530 H   0  0  0  0  0  0  0  0  0  0  0  0
  -21.2830  -13.2950   22.3000 H   0  0  0  0  0  0  0  0  0  0  0  0
  -25.5040  -15.3350   20.2010 N   0  0  0  0  0  0  0  0  0  0  0  0
  -24.7670  -16.0160   20.3430 H   0  0  0  0  0  0  0  0  0  0  0  0
  -26.3520  -15.7450   19.8320 H   0  0  0  0  0  0  0  0  0  0  0  0
  -28.3400  -26.5150   20.2350 O   0  0  0  0  0  0  0  0  0  0  0  0
  -24.6240  -31.9020   23.2110 C   0  0  0  0  0  0  0  0  0  0  0  0
  -27.2910  -27.4270   20.1170 C   0  0  0  0  0  0  0  0  0  0  0  0
  -23.4370  -30.5080   21.5500 C   0  0  0  0  0  3  0  0  0  0  0  0
  -24.9110  -28.9900   20.1100 C   0  0  0  0  0  0  0  0  0  0  0  0
  -25.9710  -30.8540   21.3870 C   0  0  0  0  0  2  0  0  0  0  0  0
  -26.0720  -29.4880   20.7190 C   0  0  0  0  0  0  0  0  0  0  0  0
  -27.2670  -28.7130   20.7270 C   0  0  0  0  0  3  0  0  0  0  0  0
  -26.1180  -26.9770   19.4770 C   0  0  0  0  0  3  0  0  0  0  0  0
  -24.9300  -27.7300   19.4880 C   0  0  0  0  0  3  0  0  0  0  0  0
  -23.6670  -29.8530   20.1620 C   0  0  0  0  0  2  0  0  0  0  0  0
  -24.6950  -31.1030   22.1070 N   0  0  0  0  0  0  0  0  0  0  0  0
  -23.5370  -32.1700   23.7430 O   0  0  0  0  0  0  0  0  0  0  0  0
  -22.7820  -29.4760   22.4980 C   0  0  0  0  0  0  0  0  0  0  0  0
  -21.4570  -29.2900   22.3690 N   0  0  0  0  0  0  0  0  0  0  0  0
  -23.4630  -28.8500   23.3150 O   0  0  0  0  0  0  0  0  0  0  0  0
  -20.9640  -29.8540   21.6910 H   0  0  0  0  0  0  0  0  0  0  0  0
  -18.0880  -28.0610   22.8340 C   0  0  0  0  0  0  0  0  0  0  0  0
  -20.6420  -28.3430   23.1280 C   0  0  0  0  0  3  0  0  0  0  0  0
  -20.7640  -26.9120   22.5510 C   0  0  0  0  0  2  0  0  0  0  0  0
  -19.6740  -26.5810   21.5270 C   0  0  0  0  0  2  0  0  0  0  0  0
  -18.2850  -26.7130   22.1580 C   0  0  0  0  0  2  0  0  0  0  0  0
  -19.1960  -28.8310   23.2750 C   0  0  0  0  0  0  0  0  0  0  0  0
  -18.9610  -30.0920   23.8650 C   0  0  0  0  0  3  0  0  0  0  0  0
  -17.6500  -30.5800   24.0230 C   0  0  0  0  0  3  0  0  0  0  0  0
  -16.5560  -29.8040   23.5990 C   0  0  0  0  0  3  0  0  0  0  0  0
  -16.7770  -28.5470   23.0080 C   0  0  0  0  0  3  0  0  0  0  0  0
  -25.9020  -32.5370   23.8390 C   0  0  0  0  0  3  0  0  0  0  0  0
  -25.5850  -33.9320   24.1760 N   0  0  0  0  0  0  0  0  0  0  0  0
  -25.9180  -34.9900   23.4230 C   0  0  0  0  0  0  0  0  0  0  0  0
  -26.5930  -34.8950   22.3940 O   0  0  0  0  0  0  0  0  0  0  0  0
  -24.9830  -34.0830   24.9720 H   0  0  0  0  0  0  0  0  0  0  0  0
  -24.1810  -36.7730   23.0700 C   0  0  0  0  0  1  0  0  0  0  0  0
  -25.4220  -36.3740   23.8840 C   0  0  0  0  0  3  0  0  0  0  0  0
  -27.5510  -37.2640   24.7220 C   0  0  0  0  0  1  0  0  0  0  0  0
  -26.4500  -37.4320   23.7770 N   0  0  0  0  0  0  0  0  0  0  0  0
  -26.0400  -38.3480   23.9290 H   0  0  0  0  0  0  0  0  0  0  0  0
  -26.4220  -31.7600   25.1110 C   0  0  1  0  0  0  0  0  0  0  0  0
  -25.3300  -31.5110   26.1780 C   0  0  0  0  0  1  0  0  0  0  0  0
  -27.0130  -30.3860   24.7170 C   0  0  0  0  0  1  0  0  0  0  0  0
  -27.5710  -32.5530   25.7780 C   0  0  0  0  0  1  0  0  0  0  0  0
  1  3  1  0
  2  1  2  0
  4  6  1  0
  4  1  1  0
  5  3  1  0
  6  5  1  0
  7 10  1  0
  9 12  2  0
 10  8  2  0
 10 14  1  0
 11  9  1  0
 11  7  2  0
 12  6  1  0
 12  8  1  0
 13 11  1  0
 15 14  2  0
 16 15  1  0
 17 22  1  0
 18 19  1  0
 18 17  1  0
 20 19  1  0
 20 27  1  0
 20 21  1  0
 22 16  1  0
 22 21  1  0
 23 16  2  0
 24 25  2  0
 25 44  1  0
 26 25  1  0
 26 29  1  0
 27 28  1  0
 27 24  1  0
 28 26  2  0
 29 30  1  0
 30 31  2  0
 32 35  1  0
 32 31  1  0
 33 32  2  0
 34 33  1  0
 34 29  2  0
 35 36  1  0
 36 37  1  0
 37 38  2  0
 39 38  1  0
 39 43  1  0
 40 39  2  0
 41 36  2  0
 41 40  1  0
 42 41  1  0
 44 45  1  0
 45 48  1  0
 45 47  1  0
 46 44  2  0
 49 50  1  0
 49 24  1  0
 51 49  1  0
 52  2  1  0
 53 64  2  0
 54 52  1  0
 54 59  1  0
 55 63  1  0
 55 65  1  0
 56 62  1  0
 56 58  1  0
 57 63  1  0
 58 59  2  0
 58 57  1  0
 60 61  1  0
 60 54  2  0
 61 56  2  0
 62 55  1  0
 63 53  1  0
 65 67  2  0
 66 65  1  0
 68 66  1  0
 69 78  2  0
 69 74  1  0
 70 66  1  0
 70 74  1  0
 71 70  1  0
 72 73  1  0
 72 71  1  0
 73 69  1  0
 74 75  2  0
 75 76  1  0
 77 76  2  0
 78 77  1  0
 79 53  1  0
 79 80  1  0
 79 89  1  0
 80 83  1  0
 81 85  1  0
 81 80  1  0
 82 81  2  0
 85 84  1  0
 87 85  1  0
 87 88  1  0
 87 86  1  0
 89 92  1  1
 89 90  1  0
 91 89  1  0
M  ISO  4   2 101  15 100  16 100  52 101
M  END
>  <TORSDO>  (2) 
F 18

>  <SCORE>  (2) 
-14.559

>  <name>  (2) 
1

>  <ligand_id>  (2) 
1

>  <original_smiles>  (2) 
[H]C(Oc1c([H])c([H])c2c(c1[H])C([H])([H])N(C(=O)C([H])(N([H])C(=O)C([H])(N([H])C([H])([H])[H])C([H])([H])[H])C(C([H])([H])[H])(C([H])([H])[H])C([H])([H])[H])C([H])(C(=O)N([H])C1([H])c3c([H])c([H])c([H])c([H])c3C([H])([H])C([H])([H])C1([H])[H])C2([H])[H])=C1C([H])([H])N(c2c([H])c(C([H])=C([H])C(=O)N3C([H])([H])C([H])([H])C([H])([H])C([H])(n4nc(-c5c([H])c([H])c(Oc6c([H])c([H])c(F)c([H])c6F)c([H])c5[H])c(C(=O)N([H])[H])c4N([H])[H])C3([H])[H])c([H])c(C([H])([H])[H])c2[H])C([H])([H])C1([H])[H]

>  <smiles>  (2) 
[H]C(Oc1c([H])c([H])c2c(c1[H])C([H])([H])N(C(=O)C([H])(N([H])C(=O)C([H])(N([H])C([H])([H])[H])C([H])([H])[H])C(C([H])([H])[H])(C([H])([H])[H])C([H])([H])[H])C([H])(C(=O)N([H])C1([H])c3c([H])c([H])c([H])c([H])c3C([H])([H])C([H])([H])C1([H])[H])C2([H])[H])=C1C([H])([H])N(c2c([H])c(C([H])=C([H])C(=O)N3C([H])([H])C([H])([H])C([H])([H])C([H])(n4nc(-c5c([H])c([H])c(Oc6c([H])c([H])c(F)c([H])c6F)c([H])c5[H])c(C(=O)N([H])[H])c4N([H])[H])C3([H])[H])c([H])c(C([H])([H])[H])c2[H])C([H])([H])C1([H])[H]

$$$$
2:0:0
     RDKit          3D

 94102  0  0  1  0  0  0  0  0999 V2000
  -29.6830  -19.0590   18.9250 C   0  0  0  0  0  3  0  0  0  0  0  0
  -30.5340  -19.9760   19.5520 C   0  0  0  0  0  3  0  0  0  0  0  0
  -31.3390  -18.2100   21.0120 C   0  0  0  0  0  3  0  0  0  0  0  0
  -30.4680  -17.2630   20.4100 C   0  0  0  0  0  0  0  0  0  0  0  0
  -29.6220  -17.7090   19.3440 C   0  0  0  0  0  0  0  0  0  0  0  0
  -31.3650  -19.5630   20.6090 C   0  0  0  0  0  0  0  0  0  0  0  0
  -30.3890  -15.8930   21.0250 C   0  0  0  0  0  0  0  0  0  0  0  0
  -29.8080  -15.7820   22.1460 N   0  0  0  0  0  0  0  0  0  0  0  0
  -29.4440  -16.6760   22.4530 H   0  0  0  0  0  0  0  0  0  0  0  0
  -31.0870  -14.7300   20.2670 C   0  0  0  0  0  0  0  0  0  0  0  0
  -30.7290  -12.6740   18.9490 C   0  0  0  0  0  2  0  0  0  0  0  0
  -29.7440  -12.9910   17.7990 C   0  0  0  0  0  2  0  0  0  0  0  0
  -28.2670  -12.9120   18.2510 C   0  0  0  0  0  2  0  0  0  0  0  0
  -28.0090  -13.5750   19.6280 C   0  0  0  0  0  3  0  0  0  0  0  0
  -29.0920  -13.1580   20.6400 C   0  0  0  0  0  2  0  0  0  0  0  0
  -30.4020  -13.5540   20.0890 N   0  0  0  0  0  0  0  0  0  0  0  0
  -32.1920  -14.9280   19.7470 O   0  0  0  0  0  0  0  0  0  0  0  0
  -25.6220  -14.1970   20.3590 C   0  0  0  0  0  0  0  0  0  0  0  0
  -24.5540  -13.4280   20.7360 C   0  0  0  0  0  0  0  0  0  0  0  0
  -25.0110  -12.0750   20.6910 C   0  0  0  0  0  0  0  0  0  0  0  0
  -26.6630  -13.3090   20.1190 N   0  0  0  0  0  0  0  0  0  0  0  0
  -26.2970  -12.0280   20.3680 N   0  0  0  0  0  0  0  0  0  0  0  0
  -24.2820  -10.8170   20.8790 C   0  0  0  0  0  0  0  0  0  0  0  0
  -24.6890   -9.8670   21.8410 C   0  0  0  0  0  3  0  0  0  0  0  0
  -23.9590   -8.6720   22.0170 C   0  0  0  0  0  3  0  0  0  0  0  0
  -22.8120   -8.4190   21.2280 C   0  0  0  0  0  0  0  0  0  0  0  0
  -22.4270   -9.3560   20.2540 C   0  0  0  0  0  3  0  0  0  0  0  0
  -23.1560  -10.5440   20.0770 C   0  0  0  0  0  3  0  0  0  0  0  0
  -22.0600   -7.2720   21.3110 O   0  0  0  0  0  0  0  0  0  0  0  0
  -21.9270   -6.5810   22.4900 C   0  0  0  0  0  0  0  0  0  0  0  0
  -21.3880   -7.1820   23.6490 C   0  0  0  0  0  3  0  0  0  0  0  0
  -21.2050   -6.4190   24.8190 C   0  0  0  0  0  3  0  0  0  0  0  0
  -21.5470   -5.0530   24.8290 C   0  0  0  0  0  0  0  0  0  0  0  0
  -22.0770   -4.4500   23.6740 C   0  0  0  0  0  3  0  0  0  0  0  0
  -22.2640   -5.2110   22.5080 C   0  0  0  0  0  0  0  0  0  0  0  0
  -22.7520   -4.6190   21.3920 F   0  0  0  0  0  0  0  0  0  0  0  0
  -21.3650   -4.3190   25.9510 F   0  0  0  0  0  0  0  0  0  0  0  0
  -23.1630  -13.9100   21.0320 C   0  0  0  0  0  0  0  0  0  0  0  0
  -22.4430  -13.2160   21.9060 N   0  0  0  0  0  0  0  0  0  0  0  0
  -22.7240  -14.9420   20.5250 O   0  0  0  0  0  0  0  0  0  0  0  0
  -22.8080  -12.3800   22.3380 H   0  0  0  0  0  0  0  0  0  0  0  0
  -21.5130  -13.5260   22.1520 H   0  0  0  0  0  0  0  0  0  0  0  0
  -25.7910  -15.5670   20.1820 N   0  0  0  0  0  0  0  0  0  0  0  0
  -25.0210  -16.2260   20.2510 H   0  0  0  0  0  0  0  0  0  0  0  0
  -26.6750  -16.0120   19.9770 H   0  0  0  0  0  0  0  0  0  0  0  0
  -27.7720  -17.3800   17.5270 C   0  0  0  0  0  1  0  0  0  0  0  0
  -28.5940  -16.7920   18.6890 C   0  0  0  0  0  2  0  0  0  0  0  0
  -32.1820  -20.4500   21.2740 O   0  0  0  0  0  0  0  0  0  0  0  0
  -31.5480  -21.6530   21.7190 C   0  0  0  0  0  2  0  0  0  0  0  0
  -31.7140  -22.8510   20.7520 C   0  0  0  0  0  2  0  0  0  0  0  0
  -30.3840  -23.5350   20.4650 C   0  0  0  0  0  3  0  0  0  0  0  0
  -30.2030  -24.8240   20.1320 C   0  0  0  0  0  3  0  0  0  0  0  0
  -28.8400  -25.4300   19.8550 C   0  0  0  0  0  2  0  0  0  0  0  0
  -28.7670  -26.7800   20.3040 O   0  0  0  0  0  0  0  0  0  0  0  0
  -24.7010  -31.7740   23.2690 C   0  0  0  0  0  0  0  0  0  0  0  0
  -27.5490  -27.4230   20.2530 C   0  0  0  0  0  0  0  0  0  0  0  0
  -23.5730  -30.3350   21.6030 C   0  0  0  0  0  3  0  0  0  0  0  0
  -25.1000  -28.8400   20.2160 C   0  0  0  0  0  0  0  0  0  0  0  0
  -26.0900  -30.7730   21.4590 C   0  0  0  0  0  2  0  0  0  0  0  0
  -26.2280  -29.4060   20.8210 C   0  0  0  0  0  0  0  0  0  0  0  0
  -27.4550  -28.7080   20.8300 C   0  0  0  0  0  3  0  0  0  0  0  0
  -26.3950  -26.8620   19.6520 C   0  0  0  0  0  3  0  0  0  0  0  0
  -25.1780  -27.5670   19.6280 C   0  0  0  0  0  3  0  0  0  0  0  0
  -23.8320  -29.6620   20.2290 C   0  0  0  0  0  2  0  0  0  0  0  0
  -24.8040  -30.9770   22.1680 N   0  0  0  0  0  0  0  0  0  0  0  0
  -23.6000  -32.0140   23.7840 O   0  0  0  0  0  0  0  0  0  0  0  0
  -22.9300  -29.2970   22.5500 C   0  0  0  0  0  0  0  0  0  0  0  0
  -21.6200  -29.0590   22.3760 N   0  0  0  0  0  0  0  0  0  0  0  0
  -23.6080  -28.7080   23.3950 O   0  0  0  0  0  0  0  0  0  0  0  0
  -21.1360  -29.5890   21.6660 H   0  0  0  0  0  0  0  0  0  0  0  0
  -18.2830  -27.7200   22.7450 C   0  0  0  0  0  0  0  0  0  0  0  0
  -20.8130  -28.0960   23.1230 C   0  0  0  0  0  3  0  0  0  0  0  0
  -21.0040  -26.6630   22.5760 C   0  0  0  0  0  2  0  0  0  0  0  0
  -19.9630  -26.2750   21.5220 C   0  0  0  0  0  2  0  0  0  0  0  0
  -18.5500  -26.3690   22.1020 C   0  0  0  0  0  2  0  0  0  0  0  0
  -19.3470  -28.5380   23.2110 C   0  0  0  0  0  0  0  0  0  0  0  0
  -19.0470  -29.7990   23.7700 C   0  0  0  0  0  3  0  0  0  0  0  0
  -17.7150  -30.2440   23.8690 C   0  0  0  0  0  3  0  0  0  0  0  0
  -16.6650  -29.4240   23.4190 C   0  0  0  0  0  3  0  0  0  0  0  0
  -16.9500  -28.1630   22.8640 C   0  0  0  0  0  3  0  0  0  0  0  0
  -25.9530  -32.4410   23.9180 C   0  0  0  0  0  3  0  0  0  0  0  0
  -25.6040  -33.8370   24.2150 N   0  0  0  0  0  0  0  0  0  0  0  0
  -25.9290  -34.8820   23.4420 C   0  0  0  0  0  0  0  0  0  0  0  0
  -26.6230  -34.7760   22.4270 O   0  0  0  0  0  0  0  0  0  0  0  0
  -24.9880  -33.9930   24.9980 H   0  0  0  0  0  0  0  0  0  0  0  0
  -24.1610  -36.6220   23.0220 C   0  0  0  0  0  1  0  0  0  0  0  0
  -25.4000  -36.2680   23.8610 C   0  0  0  0  0  3  0  0  0  0  0  0
  -27.4950  -37.2270   24.7080 C   0  0  0  0  0  1  0  0  0  0  0  0
  -26.4070  -37.3440   23.7410 N   0  0  0  0  0  0  0  0  0  0  0  0
  -25.9750  -38.2570   23.8550 H   0  0  0  0  0  0  0  0  0  0  0  0
  -26.4510  -31.7010   25.2190 C   0  0  1  0  0  0  0  0  0  0  0  0
  -25.3340  -31.4510   26.2590 C   0  0  0  0  0  1  0  0  0  0  0  0
  -27.0760  -30.3310   24.8620 C   0  0  0  0  0  1  0  0  0  0  0  0
  -27.5620  -32.5320   25.9040 C   0  0  0  0  0  1  0  0  0  0  0  0
  1  5  2  0
  1  2  1  0
  2  6  2  0
  4  3  2  0
  4  7  1  0
  5  4  1  0
  6  3  1  0
  6 48  1  0
  7  8  2  0
  8  9  1  0
 10  7  1  0
 11 16  1  0
 12 13  1  0
 12 11  1  0
 14 13  1  0
 14 21  1  0
 14 15  1  0
 16 10  1  0
 16 15  1  0
 17 10  2  0
 18 19  2  0
 19 38  1  0
 20 19  1  0
 20 23  1  0
 21 18  1  0
 21 22  1  0
 22 20  2  0
 23 24  1  0
 24 25  2  0
 26 29  1  0
 26 25  1  0
 27 26  2  0
 28 27  1  0
 28 23  2  0
 29 30  1  0
 30 35  2  0
 30 31  1  0
 31 32  2  0
 32 33  1  0
 33 37  1  0
 34 33  2  0
 35 34  1  0
 36 35  1  0
 38 39  1  0
 39 42  1  0
 39 41  1  0
 40 38  2  0
 43 44  1  0
 43 18  1  0
 45 43  1  0
 46 47  1  0
 47  5  1  0
 48 49  1  0
 50 49  1  0
 51 50  1  0
 52 51  2  0
 53 52  1  0
 53 54  1  0
 55 66  2  0
 56 54  1  0
 56 61  1  0
 57 65  1  0
 57 67  1  0
 58 64  1  0
 58 60  1  0
 59 65  1  0
 60 61  2  0
 60 59  1  0
 62 56  2  0
 63 62  1  0
 63 58  2  0
 64 57  1  0
 65 55  1  0
 67 69  2  0
 68 67  1  0
 70 68  1  0
 71 80  2  0
 71 76  1  0
 72 68  1  0
 72 76  1  0
 73 72  1  0
 74 75  1  0
 74 73  1  0
 75 71  1  0
 76 77  2  0
 77 78  1  0
 79 78  2  0
 80 79  1  0
 81 55  1  0
 81 82  1  0
 81 91  1  0
 82 85  1  0
 83 87  1  0
 83 82  1  0
 84 83  2  0
 87 86  1  0
 89 90  1  0
 89 87  1  0
 89 88  1  0
 91 94  1  1
 91 92  1  0
 93 91  1  0
M  ISO  4   7 100  10 100  53 101  54 101
M  END
>  <TORSDO>  (3) 
F 23

>  <SCORE>  (3) 
-11.149

>  <name>  (3) 
2

>  <ligand_id>  (3) 
2

>  <original_smiles>  (3) 
[H]N=C(C(=O)N1C([H])([H])C([H])([H])C([H])([H])C([H])(n2nc(-c3c([H])c([H])c(Oc4c([H])c([H])c(F)c([H])c4F)c([H])c3[H])c(C(=O)N([H])[H])c2N([H])[H])C1([H])[H])c1c([H])c(OC([H])([H])C([H])([H])C([H])=C([H])C([H])([H])Oc2c([H])c([H])c3c(c2[H])C([H])([H])N(C(=O)C([H])(N([H])C(=O)C([H])(N([H])C([H])([H])[H])C([H])([H])[H])C(C([H])([H])[H])(C([H])([H])[H])C([H])([H])[H])C([H])(C(=O)N([H])C2([H])c4c([H])c([H])c([H])c([H])c4C([H])([H])C([H])([H])C2([H])[H])C3([H])[H])c([H])c([H])c1C([H])([H])C([H])([H])[H]

>  <smiles>  (3) 
[H]N=C(C(=O)N1C([H])([H])C([H])([H])C([H])([H])C([H])(n2nc(-c3c([H])c([H])c(Oc4c([H])c([H])c(F)c([H])c4F)c([H])c3[H])c(C(=O)N([H])[H])c2N([H])[H])C1([H])[H])c1c([H])c(OC([H])([H])C([H])([H])C([H])=C([H])C([H])([H])Oc2c([H])c([H])c3c(c2[H])C([H])([H])N(C(=O)C([H])(N([H])C(=O)C([H])(N([H])C([H])([H])[H])C([H])([H])[H])C(C([H])([H])[H])(C([H])([H])[H])C([H])([H])[H])C([H])(C(=O)N([H])C2([H])c4c([H])c([H])c([H])c([H])c4C([H])([H])C([H])([H])C2([H])[H])C3([H])[H])c([H])c([H])c1C([H])([H])C([H])([H])[H]

$$$$
3:0:0
     RDKit          3D

 93 95  0  0  1  0  0  0  0  0999 V2000
  -25.6860  -22.9850   20.2290 C   0  0  0  0  0  3  0  0  0  0  0  0
  -24.3410  -21.9470   19.2100 C   0  0  0  0  0  3  0  0  0  0  0  0
  -25.8360  -21.5270   19.6150 C   0  0  0  0  0  3  0  0  0  0  0  0
  -24.6420  -24.2580   20.3910 C   0  0  0  0  0  0  0  0  0  0  0  0
  -23.2530  -23.2060   19.3250 C   0  0  0  0  0  0  0  0  0  0  0  0
  -23.1680  -24.6880   19.9350 C   0  0  0  0  0  3  0  0  0  0  0  0
  -21.9080  -22.8510   18.7030 C   0  0  0  0  0  1  0  0  0  0  0  0
  -27.3700  -20.0090   19.5310 C   0  0  0  0  0  1  0  0  0  0  0  0
  -28.1120  -18.4400   19.5390 C   0  0  0  0  0  1  0  0  0  0  0  0
  -29.6340  -17.1740   19.4190 C   0  0  0  0  0  2  0  0  0  0  0  0
  -30.8670  -14.5540   19.1420 C   0  0  0  0  0  2  0  0  0  0  0  0
  -30.2620  -13.4610   18.1620 C   0  0  0  0  0  2  0  0  0  0  0  0
  -28.9180  -12.9310   18.6750 C   0  0  0  0  0  2  0  0  0  0  0  0
  -28.2140  -14.1010   19.3740 C   0  0  0  0  0  3  0  0  0  0  0  0
  -29.0260  -14.7930   20.4600 C   0  0  0  0  0  2  0  0  0  0  0  0
  -29.8430  -15.6720   19.6710 N   0  0  0  0  0  0  0  0  0  0  0  0
  -30.8660  -17.3170   19.0600 O   0  0  0  0  0  1  0  0  0  0  0  0
  -26.1140  -14.8100   20.4620 C   0  0  0  0  0  0  0  0  0  0  0  0
  -25.0310  -14.1240   20.8930 C   0  0  0  0  0  0  0  0  0  0  0  0
  -25.2950  -12.7500   20.6000 C   0  0  0  0  0  0  0  0  0  0  0  0
  -26.9430  -13.8540   19.9270 N   0  0  0  0  0  0  0  0  0  0  0  0
  -26.5010  -12.5920   20.0840 N   0  0  0  0  0  0  0  0  0  0  0  0
  -24.4310  -11.5850   20.6950 C   0  0  0  0  0  0  0  0  0  0  0  0
  -24.8660  -10.3890   21.3030 C   0  0  0  0  0  3  0  0  0  0  0  0
  -23.9950   -9.2850   21.3930 C   0  0  0  0  0  3  0  0  0  0  0  0
  -22.6810   -9.3790   20.8760 C   0  0  0  0  0  0  0  0  0  0  0  0
  -22.2670  -10.5650   20.2440 C   0  0  0  0  0  3  0  0  0  0  0  0
  -23.1370  -11.6600   20.1490 C   0  0  0  0  0  3  0  0  0  0  0  0
  -21.7710   -8.3540   20.8990 O   0  0  0  0  0  0  0  0  0  0  0  0
  -21.8750   -7.3290   21.8010 C   0  0  0  0  0  0  0  0  0  0  0  0
  -21.8890   -7.5580   23.1940 C   0  0  0  0  0  3  0  0  0  0  0  0
  -21.9260   -6.4680   24.0850 C   0  0  0  0  0  3  0  0  0  0  0  0
  -21.9410   -5.1510   23.5870 C   0  0  0  0  0  0  0  0  0  0  0  0
  -21.9230   -4.9220   22.1990 C   0  0  0  0  0  3  0  0  0  0  0  0
  -21.8870   -6.0090   21.3090 C   0  0  0  0  0  0  0  0  0  0  0  0
  -21.8500   -5.7850   19.9740 F   0  0  0  0  0  0  0  0  0  0  0  0
  -21.9660   -4.1030   24.4430 F   0  0  0  0  0  0  0  0  0  0  0  0
  -23.7770  -14.7390   21.4250 C   0  0  0  0  0  0  0  0  0  0  0  0
  -23.0750  -14.0270   22.2950 N   0  0  0  0  0  0  0  0  0  0  0  0
  -23.4460  -15.8810   21.1060 O   0  0  0  0  0  0  0  0  0  0  0  0
  -23.3680  -13.1000   22.5650 H   0  0  0  0  0  0  0  0  0  0  0  0
  -22.2320  -14.4110   22.6960 H   0  0  0  0  0  0  0  0  0  0  0  0
  -26.4410  -16.1620   20.4430 N   0  0  0  0  0  0  0  0  0  0  0  0
  -25.7360  -16.8480   20.6910 H   0  0  0  0  0  0  0  0  0  0  0  0
  -27.1720  -16.5460   19.8600 H   0  0  0  0  0  0  0  0  0  0  0  0
  -25.3000  -25.2580   21.2400 C   0  0  0  0  0  3  0  0  0  0  0  0
  -25.9950  -24.9560   22.3520 C   0  0  0  0  0  3  0  0  0  0  0  0
  -26.8270  -25.9500   23.1360 C   0  0  0  0  0  2  0  0  0  0  0  0
  -28.3330  -25.6490   22.9560 C   0  0  0  0  0  2  0  0  0  0  0  0
  -29.1910  -26.8230   22.4360 C   0  0  0  0  0  2  0  0  0  0  0  0
  -28.9020  -27.0990   21.0560 O   0  0  0  0  0  0  0  0  0  0  0  0
  -24.6980  -32.2660   23.4680 C   0  0  0  0  0  0  0  0  0  0  0  0
  -27.7820  -27.8600   20.8410 C   0  0  0  0  0  0  0  0  0  0  0  0
  -23.7750  -30.8720   21.6660 C   0  0  0  0  0  3  0  0  0  0  0  0
  -25.4140  -29.3430   20.4500 C   0  0  0  0  0  0  0  0  0  0  0  0
  -26.2830  -31.2550   21.8220 C   0  0  0  0  0  2  0  0  0  0  0  0
  -26.4600  -29.8790   21.2130 C   0  0  0  0  0  0  0  0  0  0  0  0
  -27.6450  -29.1470   21.4050 C   0  0  0  0  0  3  0  0  0  0  0  0
  -26.7350  -27.3320   20.0590 C   0  0  0  0  0  3  0  0  0  0  0  0
  -25.5480  -28.0680   19.8630 C   0  0  0  0  0  3  0  0  0  0  0  0
  -24.1790  -30.2080   20.3150 C   0  0  0  0  0  2  0  0  0  0  0  0
  -24.9310  -31.4980   22.3680 N   0  0  0  0  0  0  0  0  0  0  0  0
  -23.5430  -32.5240   23.8370 O   0  0  0  0  0  0  0  0  0  0  0  0
  -23.1410  -29.8080   22.5670 C   0  0  0  0  0  0  0  0  0  0  0  0
  -21.8410  -29.6410   22.4930 N   0  0  0  0  0  0  0  0  0  0  0  0
  -23.8170  -29.0840   23.2940 O   0  0  0  0  0  0  0  0  0  0  0  0
  -21.2740  -30.2850   21.9540 H   0  0  0  0  0  0  0  0  0  0  0  0
  -18.3680  -28.1420   23.1570 C   0  0  0  0  0  0  0  0  0  0  0  0
  -21.2680  -28.3410   22.8290 C   0  0  0  0  0  2  0  0  0  0  0  0
  -21.5760  -27.3180   21.1000 C   0  0  0  0  0  3  0  0  0  0  0  0
  -19.6600  -26.3080   20.4830 C   0  0  0  0  0 15  0  0  0  0  0  0
  -18.2780  -26.7280   21.9850 C   0  0  0  0  0  1  0  0  0  0  0  0
  -19.6980  -28.8000   23.5620 C   0  0  0  0  0  0  0  0  0  0  0  0
  -19.6010  -30.1450   24.1580 C   0  0  0  0  0  3  0  0  0  0  0  0
  -18.4080  -30.9020   24.3590 C   0  0  0  0  0  3  0  0  0  0  0  0
  -17.1970  -30.3370   23.9390 C   0  0  0  0  0  3  0  0  0  0  0  0
  -17.2030  -29.0250   23.3550 C   0  0  0  0  0  3  0  0  0  0  0  0
  -25.8680  -32.8670   24.2990 C   0  0  0  0  0  3  0  0  0  0  0  0
  -25.5510  -34.2810   24.5270 N   0  0  0  0  0  0  0  0  0  0  0  0
  -26.0240  -35.2890   23.7820 C   0  0  0  0  0  0  0  0  0  0  0  0
  -26.8440  -35.1200   22.8750 O   0  0  0  0  0  0  0  0  0  0  0  0
  -24.8440  -34.4840   25.2190 H   0  0  0  0  0  0  0  0  0  0  0  0
  -24.4190  -37.0930   23.0880 C   0  0  0  0  0  1  0  0  0  0  0  0
  -25.5110  -36.7040   24.0960 C   0  0  0  0  0  3  0  0  0  0  0  0
  -27.5520  -37.5510   25.1660 C   0  0  0  0  0  1  0  0  0  0  0  0
  -26.5780  -37.7290   24.0920 N   0  0  0  0  0  0  0  0  0  0  0  0
  -26.1820  -38.6620   24.1740 H   0  0  0  0  0  0  0  0  0  0  0  0
  -26.1140  -32.1140   25.6630 C   0  0  1  0  0  0  0  0  0  0  0  0
  -24.8270  -31.8300   26.4700 C   0  0  0  0  0  1  0  0  0  0  0  0
  -26.8230  -30.7610   25.4140 C   0  0  0  0  0  1  0  0  0  0  0  0
  -27.0590  -32.9540   26.5530 C   0  0  0  0  0  1  0  0  0  0  0  0
  -21.2000  -29.0550   18.7630 C   0  0  0  0  0 15  0  0  0  0  0  0
  -21.6820  -26.3370   20.1860 C   0  0  0  0  0  3  0  0  0  0  0  0
  1  4  1  0
  2  5  2  0
  2  3  1  0
  3  1  2  0
  4 46  1  0
  5  6  1  0
  6  4  2  0
  7  5  1  0
  8  9  1  0
 10 16  1  0
 11 16  1  0
 12 13  1  0
 12 11  1  0
 14 13  1  0
 14 21  1  0
 14 15  1  0
 16 15  1  0
 17 10  1  0
 18 19  2  0
 19 38  1  0
 20 23  1  0
 20 19  1  0
 21 22  1  0
 21 18  1  0
 22 20  2  0
 23 24  1  0
 24 25  2  0
 26 29  1  0
 26 25  1  0
 27 26  2  0
 28 27  1  0
 28 23  2  0
 29 30  1  0
 30 31  1  0
 31 32  2  0
 33 32  1  0
 33 37  1  0
 34 33  2  0
 35 30  2  0
 35 34  1  0
 36 35  1  0
 38 39  1  0
 39 41  1  0
 39 42  1  0
 40 38  2  0
 43 18  1  0
 43 44  1  0
 45 43  1  0
 46 47  2  0
 47 48  1  0
 49 48  1  0
 50 49  1  0
 51 50  1  0
 52 63  2  0
 53 51  1  0
 53 58  1  0
 54 62  1  0
 54 64  1  0
 55 57  1  0
 56 62  1  0
 57 58  2  0
 57 56  1  0
 59 53  2  0
 60 59  1  0
 60 55  2  0
 61 55  1  0
 61 54  1  0
 62 52  1  0
 64 66  2  0
 65 64  1  0
 65 69  1  0
 67 65  1  0
 68 77  2  0
 68 73  1  0
 69 73  1  0
 72 68  1  0
 73 74  2  0
 74 75  1  0
 76 75  2  0
 77 76  1  0
 78 52  1  0
 78 79  1  0
 78 88  1  0
 79 82  1  0
 80 84  1  0
 80 79  1  0
 81 80  2  0
 84 83  1  0
 86 84  1  0
 86 87  1  0
 86 85  1  0
 88 89  1  1
 88 91  1  0
 90 88  1  0
 93 70  3  0
M  ISO  4   9 100  10 100  50 101  51 101
M  END
>  <TORSDO>  (4) 
F 22

>  <SCORE>  (4) 
-7.428

>  <name>  (4) 
3

>  <ligand_id>  (4) 
3

>  <original_smiles>  (4) 
[H]C(C(=O)N1C([H])([H])C([H])([H])C([H])([H])C([H])(n2nc(-c3c([H])c([H])c(Oc4c([H])c([H])c(F)c([H])c4F)c([H])c3[H])c(C(=O)N([H])[H])c2N([H])[H])C1([H])[H])=C([H])c1c([H])c(C([H])=C([H])C([H])([H])C([H])([H])C([H])([H])Oc2c([H])c([H])c3c(c2[H])C([H])([H])N(C(=O)C([H])(N([H])C(=O)C([H])(N([H])C([H])([H])[H])C([H])([H])[H])C(C([H])([H])[H])(C([H])([H])[H])C([H])([H])[H])C([H])(C(=O)N([H])C2([H])c4c([H])c([H])c([H])c([H])c4C([H])([H])C([H])([H])C2([H])[H])C3([H])[H])c(C([H])([H])C([H])([H])[H])c(C([H])([H])[H])c1[H]

>  <smiles>  (4) 
[H]C(C(=O)N1C([H])([H])C([H])([H])C([H])([H])C([H])(n2nc(-c3c([H])c([H])c(Oc4c([H])c([H])c(F)c([H])c4F)c([H])c3[H])c(C(=O)N([H])[H])c2N([H])[H])C1([H])[H])=C([H])c1c([H])c(C([H])=C([H])C([H])([H])C([H])([H])C([H])([H])Oc2c([H])c([H])c3c(c2[H])C([H])([H])N(C(=O)C([H])(N([H])C(=O)C([H])(N([H])C([H])([H])[H])C([H])([H])[H])C(C([H])([H])[H])(C([H])([H])[H])C([H])([H])[H])C([H])(C(=O)N([H])C2([H])c4c([H])c([H])c([H])c([H])c4C([H])([H])C([H])([H])C2([H])[H])C3([H])[H])c(C([H])([H])C([H])([H])[H])c(C([H])([H])[H])c1[H]

$$$$
4:0:0
     RDKit          3D

 95103  0  0  1  0  0  0  0  0999 V2000
  -29.9440  -21.0000   20.8060 O   0  0  0  0  0  0  0  0  0  0  0  0
  -29.2550  -18.8420   19.9640 C   0  0  0  0  0  3  0  0  0  0  0  0
  -30.9440  -17.6070   21.8460 C   0  0  0  0  0  3  0  0  0  0  0  0
  -29.3190  -17.4330   20.0160 C   0  0  0  0  0  0  0  0  0  0  0  0
  -30.1440  -16.8160   20.9960 C   0  0  0  0  0  0  0  0  0  0  0  0
  -30.0300  -19.6320   20.8350 C   0  0  0  0  0  0  0  0  0  0  0  0
  -30.8980  -19.0120   21.7540 C   0  0  0  0  0  0  0  0  0  0  0  0
  -31.6530  -19.7680   22.5860 F   0  0  0  0  0  0  0  0  0  0  0  0
  -30.7570  -14.4870   20.5580 C   0  0  0  0  0  0  0  0  0  0  0  0
  -30.4550  -12.3700   19.3470 C   0  0  0  0  0  2  0  0  0  0  0  0
  -29.5090  -12.6210   18.1520 C   0  0  0  0  0  2  0  0  0  0  0  0
  -28.0370  -12.4680   18.5840 C   0  0  0  0  0  2  0  0  0  0  0  0
  -27.7020  -13.2640   19.8720 C   0  0  0  0  0  3  0  0  0  0  0  0
  -28.7580  -13.0060   20.9710 C   0  0  0  0  0  2  0  0  0  0  0  0
  -30.0910  -13.3120   20.4110 N   0  0  0  0  0  0  0  0  0  0  0  0
  -31.8560  -14.7230   20.0440 O   0  0  0  0  0  0  0  0  0  0  0  0
  -30.0750  -15.4190   21.2300 N   0  0  0  0  0  0  0  0  0  0  0  0
  -29.2050  -15.0860   21.6170 H   0  0  0  0  0  0  0  0  0  0  0  0
  -25.3030  -13.8930   20.5730 C   0  0  0  0  0  0  0  0  0  0  0  0
  -24.2300  -13.1260   20.9310 C   0  0  0  0  0  0  0  0  0  0  0  0
  -24.6810  -11.7710   20.8820 C   0  0  0  0  0  0  0  0  0  0  0  0
  -26.3430  -13.0040   20.3360 N   0  0  0  0  0  0  0  0  0  0  0  0
  -25.9700  -11.7240   20.5740 N   0  0  0  0  0  0  0  0  0  0  0  0
  -23.9510  -10.5120   21.0590 C   0  0  0  0  0  0  0  0  0  0  0  0
  -24.3720   -9.5380   21.9910 C   0  0  0  0  0  3  0  0  0  0  0  0
  -23.6450   -8.3410   22.1530 C   0  0  0  0  0  3  0  0  0  0  0  0
  -22.4830   -8.1070   21.3800 C   0  0  0  0  0  0  0  0  0  0  0  0
  -22.0820   -9.0690   20.4360 C   0  0  0  0  0  3  0  0  0  0  0  0
  -22.8100  -10.2580   20.2730 C   0  0  0  0  0  3  0  0  0  0  0  0
  -21.7280   -6.9610   21.4480 O   0  0  0  0  0  0  0  0  0  0  0  0
  -21.6450   -6.2240   22.6000 C   0  0  0  0  0  0  0  0  0  0  0  0
  -21.1500   -6.7720   23.8010 C   0  0  0  0  0  3  0  0  0  0  0  0
  -21.0190   -5.9620   24.9460 C   0  0  0  0  0  3  0  0  0  0  0  0
  -21.3710   -4.6000   24.8900 C   0  0  0  0  0  0  0  0  0  0  0  0
  -21.8570   -4.0480   23.6910 C   0  0  0  0  0  3  0  0  0  0  0  0
  -21.9920   -4.8580   22.5490 C   0  0  0  0  0  0  0  0  0  0  0  0
  -22.4420   -4.3170   21.3910 F   0  0  0  0  0  0  0  0  0  0  0  0
  -21.2380   -3.8170   25.9860 F   0  0  0  0  0  0  0  0  0  0  0  0
  -22.8360  -13.6090   21.2130 C   0  0  0  0  0  0  0  0  0  0  0  0
  -22.1040  -12.8990   22.0640 N   0  0  0  0  0  0  0  0  0  0  0  0
  -22.4070  -14.6500   20.7160 O   0  0  0  0  0  0  0  0  0  0  0  0
  -22.4670  -12.0580   22.4850 H   0  0  0  0  0  0  0  0  0  0  0  0
  -21.1680  -13.2000   22.2940 H   0  0  0  0  0  0  0  0  0  0  0  0
  -25.4750  -15.2640   20.4140 N   0  0  0  0  0  0  0  0  0  0  0  0
  -24.7120  -15.9200   20.5270 H   0  0  0  0  0  0  0  0  0  0  0  0
  -26.3180  -15.6930   20.0500 H   0  0  0  0  0  0  0  0  0  0  0  0
  -27.2830  -16.9790   18.6210 C   0  0  0  0  0  2  0  0  0  0  0  0
  -28.4960  -16.6420   19.0850 C   0  0  0  0  0  3  0  0  0  0  0  0
  -28.7220  -21.5140   21.3210 C   0  0  0  0  0  2  0  0  0  0  0  0
  -27.8360  -22.0450   20.1810 C   0  0  0  0  0  2  0  0  0  0  0  0
  -28.4280  -23.2590   19.4410 C   0  0  0  0  0  2  0  0  0  0  0  0
  -28.3470  -24.5680   20.2220 C   0  0  0  0  0  0  0  0  0  0  0  0
  -27.9570  -24.6100   21.3950 O   0  0  0  0  0  0  0  0  0  0  0  0
  -28.7430  -25.8280   19.4500 C   0  0  0  0  0  2  0  0  0  0  0  0
  -28.5290  -26.9880   20.2420 O   0  0  0  0  0  0  0  0  0  0  0  0
  -24.5790  -31.9810   23.3000 C   0  0  0  0  0  0  0  0  0  0  0  0
  -27.2950  -27.5980   20.2330 C   0  0  0  0  0  0  0  0  0  0  0  0
  -23.3930  -30.5650   21.6560 C   0  0  0  0  0  3  0  0  0  0  0  0
  -24.8640  -29.0320   20.2480 C   0  0  0  0  0  0  0  0  0  0  0  0
  -25.9100  -30.9550   21.4620 C   0  0  0  0  0  2  0  0  0  0  0  0
  -26.0090  -29.5850   20.8300 C   0  0  0  0  0  0  0  0  0  0  0  0
  -27.2200  -28.8690   20.8280 C   0  0  0  0  0  3  0  0  0  0  0  0
  -26.1250  -27.0340   19.6670 C   0  0  0  0  0  3  0  0  0  0  0  0
  -24.9110  -27.7490   19.6740 C   0  0  0  0  0  3  0  0  0  0  0  0
  -23.6100  -29.8750   20.2810 C   0  0  0  0  0  2  0  0  0  0  0  0
  -24.6450  -31.1820   22.1980 N   0  0  0  0  0  0  0  0  0  0  0  0
  -23.4940  -32.2400   23.8380 O   0  0  0  0  0  0  0  0  0  0  0  0
  -22.7540  -29.5400   22.6190 C   0  0  0  0  0  0  0  0  0  0  0  0
  -21.4350  -29.3350   22.4760 N   0  0  0  0  0  0  0  0  0  0  0  0
  -23.4400  -28.9300   23.4440 O   0  0  0  0  0  0  0  0  0  0  0  0
  -20.9480  -29.8860   21.7830 H   0  0  0  0  0  0  0  0  0  0  0  0
  -18.0750  -28.0830   22.9330 C   0  0  0  0  0  0  0  0  0  0  0  0
  -20.6260  -28.3830   23.2340 C   0  0  0  0  0  3  0  0  0  0  0  0
  -20.7640  -26.9550   22.6540 C   0  0  0  0  0  2  0  0  0  0  0  0
  -19.6690  -26.6040   21.6400 C   0  0  0  0  0  2  0  0  0  0  0  0
  -18.2850  -26.7270   22.2780 C   0  0  0  0  0  2  0  0  0  0  0  0
  -19.1780  -28.8630   23.3720 C   0  0  0  0  0  0  0  0  0  0  0  0
  -18.9330  -30.1240   23.9550 C   0  0  0  0  0  3  0  0  0  0  0  0
  -17.6210  -30.6090   24.1060 C   0  0  0  0  0  3  0  0  0  0  0  0
  -16.5320  -29.8260   23.6850 C   0  0  0  0  0  3  0  0  0  0  0  0
  -16.7610  -28.5680   23.1010 C   0  0  0  0  0  3  0  0  0  0  0  0
  -25.8590  -32.6240   23.9220 C   0  0  0  0  0  3  0  0  0  0  0  0
  -25.5460  -34.0260   24.2220 N   0  0  0  0  0  0  0  0  0  0  0  0
  -25.8940  -35.0630   23.4490 C   0  0  0  0  0  0  0  0  0  0  0  0
  -26.5840  -34.9390   22.4310 O   0  0  0  0  0  0  0  0  0  0  0  0
  -24.9400  -34.1920   25.0110 H   0  0  0  0  0  0  0  0  0  0  0  0
  -24.1850  -36.8540   23.0120 C   0  0  0  0  0  1  0  0  0  0  0  0
  -25.3990  -36.4590   23.8690 C   0  0  0  0  0  3  0  0  0  0  0  0
  -27.5090  -37.3500   24.7540 C   0  0  0  0  0  1  0  0  0  0  0  0
  -26.4390  -37.5070   23.7730 N   0  0  0  0  0  0  0  0  0  0  0  0
  -26.0330  -38.4330   23.8900 H   0  0  0  0  0  0  0  0  0  0  0  0
  -26.3670  -31.8750   25.2150 C   0  0  1  0  0  0  0  0  0  0  0  0
  -25.2680  -31.6420   26.2790 C   0  0  0  0  0  1  0  0  0  0  0  0
  -26.9620  -30.4990   24.8420 C   0  0  0  0  0  1  0  0  0  0  0  0
  -27.5070  -32.6870   25.8750 C   0  0  0  0  0  1  0  0  0  0  0  0
  1  6  1  0
  1 49  1  0
  2  4  2  0
  2  6  1  0
  4  5  1  0
  5 17  1  0
  5  3  2  0
  6  7  2  0
  7  3  1  0
  7  8  1  0
  9 17  1  0
 10 15  1  0
 11 12  1  0
 11 10  1  0
 13 12  1  0
 13 22  1  0
 13 14  1  0
 15  9  1  0
 15 14  1  0
 16  9  2  0
 17 18  1  0
 19 20  2  0
 20 39  1  0
 21 20  1  0
 21 24  1  0
 22 19  1  0
 22 23  1  0
 23 21  2  0
 24 25  1  0
 25 26  2  0
 27 30  1  0
 27 26  1  0
 28 27  2  0
 29 28  1  0
 29 24  2  0
 30 31  1  0
 31 32  1  0
 32 33  2  0
 34 33  1  0
 34 38  1  0
 35 34  2  0
 36 31  2  0
 36 35  1  0
 37 36  1  0
 39 40  1  0
 40 43  1  0
 40 42  1  0
 41 39  2  0
 44 45  1  0
 44 19  1  0
 46 44  1  0
 47 48  2  0
 48  4  1  0
 50 49  1  0
 51 50  1  0
 51 52  1  0
 52 53  2  0
 54 52  1  0
 54 55  1  0
 56 67  2  0
 57 55  1  0
 57 62  1  0
 58 66  1  0
 58 68  1  0
 59 65  1  0
 59 61  1  0
 60 66  1  0
 61 60  1  0
 62 61  2  0
 63 64  1  0
 63 57  2  0
 64 59  2  0
 65 58  1  0
 66 56  1  0
 68 70  2  0
 69 68  1  0
 71 69  1  0
 72 81  2  0
 72 77  1  0
 73 69  1  0
 73 77  1  0
 74 73  1  0
 75 76  1  0
 75 74  1  0
 76 72  1  0
 77 78  2  0
 78 79  1  0
 80 79  2  0
 81 80  1  0
 82 56  1  0
 82 83  1  0
 82 92  1  0
 83 86  1  0
 84 88  1  0
 84 83  1  0
 85 84  2  0
 88 87  1  0
 90 88  1  0
 90 91  1  0
 90 89  1  0
 92 95  1  1
 92 93  1  0
 94 92  1  0
M  ISO  4   9 100  17 100  54 101  55 101
M  END
>  <TORSDO>  (5) 
F 23

>  <SCORE>  (5) 
-13.160

>  <name>  (5) 
4

>  <ligand_id>  (5) 
4

>  <original_smiles>  (5) 
[H]C([H])=C([H])c1c([H])c(OC([H])([H])C([H])([H])C([H])([H])C(=O)C([H])([H])Oc2c([H])c([H])c3c(c2[H])C([H])([H])N(C(=O)C([H])(N([H])C(=O)C([H])(N([H])C([H])([H])[H])C([H])([H])[H])C(C([H])([H])[H])(C([H])([H])[H])C([H])([H])[H])C([H])(C(=O)N([H])C2([H])c4c([H])c([H])c([H])c([H])c4C([H])([H])C([H])([H])C2([H])[H])C3([H])[H])c(F)c([H])c1N([H])C(=O)N1C([H])([H])C([H])([H])C([H])([H])C([H])(n2nc(-c3c([H])c([H])c(Oc4c([H])c([H])c(F)c([H])c4F)c([H])c3[H])c(C(=O)N([H])[H])c2N([H])[H])C1([H])[H]

>  <smiles>  (5) 
[H]C([H])=C([H])c1c([H])c(OC([H])([H])C([H])([H])C([H])([H])C(=O)C([H])([H])Oc2c([H])c([H])c3c(c2[H])C([H])([H])N(C(=O)C([H])(N([H])C(=O)C([H])(N([H])C([H])([H])[H])C([H])([H])[H])C(C([H])([H])[H])(C([H])([H])[H])C([H])([H])[H])C([H])(C(=O)N([H])C2([H])c4c([H])c([H])c([H])c([H])c4C([H])([H])C([H])([H])C2([H])[H])C3([H])[H])c(F)c([H])c1N([H])C(=O)N1C([H])([H])C([H])([H])C([H])([H])C([H])(n2nc(-c3c([H])c([H])c(Oc4c([H])c([H])c(F)c([H])c4F)c([H])c3[H])c(C(=O)N([H])[H])c2N([H])[H])C1([H])[H]

$$$$
5:0:0
     RDKit          3D

 92100  0  0  1  0  0  0  0  0999 V2000
  -31.1280  -22.7210   21.2700 C   0  0  0  0  0  2  0  0  0  0  0  0
  -29.8410  -23.5260   21.1010 C   0  0  0  0  0  3  0  0  0  0  0  0
  -29.7080  -24.6900   20.4250 C   0  0  0  0  0  0  0  0  0  0  0  0
  -30.8740  -25.4250   19.7850 C   0  0  0  0  0  1  0  0  0  0  0  0
  -28.3420  -25.3470   20.2320 C   0  0  0  0  0  2  0  0  0  0  0  0
  -28.4160  -26.7730   20.1710 O   0  0  0  0  0  0  0  0  0  0  0  0
  -24.5950  -31.9010   23.2300 C   0  0  0  0  0  0  0  0  0  0  0  0
  -27.2220  -27.4660   20.1500 C   0  0  0  0  0  0  0  0  0  0  0  0
  -23.3740  -30.5010   21.5950 C   0  0  0  0  0  3  0  0  0  0  0  0
  -24.8180  -28.9600   20.1640 C   0  0  0  0  0  0  0  0  0  0  0  0
  -25.8970  -30.8650   21.3740 C   0  0  0  0  0  2  0  0  0  0  0  0
  -25.9780  -29.4930   20.7400 C   0  0  0  0  0  0  0  0  0  0  0  0
  -27.1820  -28.7550   20.7240 C   0  0  0  0  0  3  0  0  0  0  0  0
  -26.0420  -26.9400   19.5710 C   0  0  0  0  0  3  0  0  0  0  0  0
  -24.8450  -27.6830   19.5770 C   0  0  0  0  0  3  0  0  0  0  0  0
  -23.5720  -29.8150   20.2150 C   0  0  0  0  0  2  0  0  0  0  0  0
  -24.6410  -31.1030   22.1270 N   0  0  0  0  0  0  0  0  0  0  0  0
  -23.5180  -32.1760   23.7760 O   0  0  0  0  0  0  0  0  0  0  0  0
  -22.7250  -29.4850   22.5600 C   0  0  0  0  0  0  0  0  0  0  0  0
  -21.3990  -29.3070   22.4400 N   0  0  0  0  0  0  0  0  0  0  0  0
  -23.4120  -28.8570   23.3710 O   0  0  0  0  0  0  0  0  0  0  0  0
  -20.9070  -29.8660   21.7570 H   0  0  0  0  0  0  0  0  0  0  0  0
  -18.0260  -28.1250   22.9530 C   0  0  0  0  0  0  0  0  0  0  0  0
  -20.5840  -28.3730   23.2140 C   0  0  0  0  0  3  0  0  0  0  0  0
  -20.6800  -26.9420   22.6370 C   0  0  0  0  0  2  0  0  0  0  0  0
  -19.5740  -26.6240   21.6270 C   0  0  0  0  0  2  0  0  0  0  0  0
  -18.1940  -26.7750   22.2770 C   0  0  0  0  0  2  0  0  0  0  0  0
  -19.1490  -28.8830   23.3790 C   0  0  0  0  0  0  0  0  0  0  0  0
  -18.9370  -30.1470   23.9690 C   0  0  0  0  0  3  0  0  0  0  0  0
  -17.6350  -30.6560   24.1370 C   0  0  0  0  0  3  0  0  0  0  0  0
  -16.5270  -29.8950   23.7280 C   0  0  0  0  0  3  0  0  0  0  0  0
  -16.7230  -28.6310   23.1430 C   0  0  0  0  0  3  0  0  0  0  0  0
  -25.8880  -32.5260   23.8420 C   0  0  0  0  0  3  0  0  0  0  0  0
  -25.5850  -33.9230   24.1850 N   0  0  0  0  0  0  0  0  0  0  0  0
  -25.9100  -34.9790   23.4270 C   0  0  0  0  0  0  0  0  0  0  0  0
  -26.5710  -34.8790   22.3890 O   0  0  0  0  0  0  0  0  0  0  0  0
  -25.0000  -34.0740   24.9940 H   0  0  0  0  0  0  0  0  0  0  0  0
  -24.1790  -36.7720   23.0940 C   0  0  0  0  0  1  0  0  0  0  0  0
  -25.4260  -36.3640   23.8950 C   0  0  0  0  0  3  0  0  0  0  0  0
  -27.5710  -37.2420   24.7080 C   0  0  0  0  0  1  0  0  0  0  0  0
  -26.4580  -37.4160   23.7750 N   0  0  0  0  0  0  0  0  0  0  0  0
  -26.0560  -38.3370   23.9320 H   0  0  0  0  0  0  0  0  0  0  0  0
  -26.4190  -31.7440   25.1050 C   0  0  1  0  0  0  0  0  0  0  0  0
  -25.3370  -31.5000   26.1820 C   0  0  0  0  0  1  0  0  0  0  0  0
  -26.9920  -30.3690   24.6900 C   0  0  0  0  0  1  0  0  0  0  0  0
  -27.5800  -32.5280   25.7610 C   0  0  0  0  0  1  0  0  0  0  0  0
  -31.0750  -21.6200   22.2420 N   0  0  0  0  0  0  0  0  0  0  0  0
  -31.9230  -21.5640   22.8020 H   0  0  0  0  0  0  0  0  0  0  0  0
  -29.1070  -19.0310   20.4340 C   0  0  0  0  0  3  0  0  0  0  0  0
  -31.1570  -18.0050   21.2330 C   0  0  0  0  0  3  0  0  0  0  0  0
  -29.4540  -20.2430   21.0460 C   0  0  0  0  0  3  0  0  0  0  0  0
  -31.5060  -19.2290   21.8560 C   0  0  0  0  0  3  0  0  0  0  0  0
  -29.9740  -17.9210   20.4680 C   0  0  0  0  0  0  0  0  0  0  0  0
  -30.6790  -20.3730   21.7260 C   0  0  0  0  0  0  0  0  0  0  0  0
  -29.5570  -16.7950   19.6180 C   0  0  0  0  0  3  0  0  0  0  0  0
  -29.8240  -15.4800   19.4970 C   0  0  0  0  0  3  0  0  0  0  0  0
  -30.6710  -14.5540   20.2400 C   0  0  0  0  0  0  0  0  0  0  0  0
  -30.4270  -12.3080   19.3350 C   0  0  0  0  0  2  0  0  0  0  0  0
  -29.4850  -12.4320   18.1130 C   0  0  0  0  0  2  0  0  0  0  0  0
  -27.9980  -12.3660   18.5300 C   0  0  0  0  0  2  0  0  0  0  0  0
  -27.6430  -13.2460   19.7600 C   0  0  0  0  0  3  0  0  0  0  0  0
  -28.7130  -13.1190   20.8750 C   0  0  0  0  0  2  0  0  0  0  0  0
  -30.0600  -13.3400   20.3140 N   0  0  0  0  0  0  0  0  0  0  0  0
  -31.8930  -14.6950   20.2300 O   0  0  0  0  0  0  0  0  0  0  0  0
  -25.2540  -13.8980   20.4460 C   0  0  0  0  0  0  0  0  0  0  0  0
  -24.1720  -13.1430   20.8090 C   0  0  0  0  0  0  0  0  0  0  0  0
  -24.6230  -11.7870   20.8110 C   0  0  0  0  0  0  0  0  0  0  0  0
  -26.2920  -12.9970   20.2470 N   0  0  0  0  0  0  0  0  0  0  0  0
  -25.9170  -11.7260   20.5280 N   0  0  0  0  0  0  0  0  0  0  0  0
  -23.8850  -10.5370   21.0090 C   0  0  0  0  0  0  0  0  0  0  0  0
  -24.3080   -9.5730   21.9510 C   0  0  0  0  0  3  0  0  0  0  0  0
  -23.5730   -8.3840   22.1360 C   0  0  0  0  0  3  0  0  0  0  0  0
  -22.3980   -8.1520   21.3810 C   0  0  0  0  0  0  0  0  0  0  0  0
  -21.9950   -9.1030   20.4270 C   0  0  0  0  0  3  0  0  0  0  0  0
  -22.7320  -10.2830   20.2390 C   0  0  0  0  0  3  0  0  0  0  0  0
  -21.6330   -7.0150   21.4780 O   0  0  0  0  0  0  0  0  0  0  0  0
  -21.5880   -6.2750   22.6320 C   0  0  0  0  0  0  0  0  0  0  0  0
  -21.1950   -6.8410   23.8640 C   0  0  0  0  0  3  0  0  0  0  0  0
  -21.0970   -6.0280   25.0120 C   0  0  0  0  0  3  0  0  0  0  0  0
  -21.3800   -4.6530   24.9270 C   0  0  0  0  0  0  0  0  0  0  0  0
  -21.7660   -4.0860   23.6990 C   0  0  0  0  0  3  0  0  0  0  0  0
  -21.8670   -4.8960   22.5540 C   0  0  0  0  0  0  0  0  0  0  0  0
  -22.2190   -4.3410   21.3690 F   0  0  0  0  0  0  0  0  0  0  0  0
  -21.2760   -3.8700   26.0260 F   0  0  0  0  0  0  0  0  0  0  0  0
  -22.7760  -13.6380   21.0470 C   0  0  0  0  0  0  0  0  0  0  0  0
  -22.0300  -12.9630   21.9160 N   0  0  0  0  0  0  0  0  0  0  0  0
  -22.3540  -14.6560   20.5000 O   0  0  0  0  0  0  0  0  0  0  0  0
  -22.3870  -12.1420   22.3820 H   0  0  0  0  0  0  0  0  0  0  0  0
  -21.0890  -13.2720   22.1200 H   0  0  0  0  0  0  0  0  0  0  0  0
  -25.4330  -15.2650   20.2470 N   0  0  0  0  0  0  0  0  0  0  0  0
  -24.6720  -15.9290   20.3400 H   0  0  0  0  0  0  0  0  0  0  0  0
  -26.3060  -15.6990   19.9740 H   0  0  0  0  0  0  0  0  0  0  0  0
  1 47  1  0
  2  1  1  0
  3  2  2  0
  4  3  1  0
  5  3  1  0
  6  5  1  0
  7 18  2  0
  8  6  1  0
  8 13  1  0
  9 17  1  0
  9 19  1  0
 10 16  1  0
 10 12  1  0
 11 17  1  0
 12 11  1  0
 13 12  2  0
 14 15  1  0
 14  8  2  0
 15 10  2  0
 16  9  1  0
 17  7  1  0
 19 21  2  0
 20 19  1  0
 22 20  1  0
 23 32  2  0
 23 28  1  0
 24 20  1  0
 24 28  1  0
 25 24  1  0
 26 27  1  0
 26 25  1  0
 27 23  1  0
 28 29  2  0
 29 30  1  0
 31 30  2  0
 32 31  1  0
 33  7  1  0
 33 34  1  0
 33 43  1  0
 34 37  1  0
 35 39  1  0
 35 34  1  0
 36 35  2  0
 39 38  1  0
 41 39  1  0
 41 42  1  0
 41 40  1  0
 43 46  1  1
 43 44  1  0
 45 43  1  0
 47 48  1  0
 49 53  2  0
 49 51  1  0
 50 52  2  0
 51 54  2  0
 53 50  1  0
 54 52  1  0
 54 47  1  0
 55 53  1  0
 56 55  2  0
 56 57  1  0
 57 63  1  0
 58 63  1  0
 59 60  1  0
 59 58  1  0
 61 60  1  0
 61 68  1  0
 61 62  1  0
 63 62  1  0
 64 57  2  0
 65 66  2  0
 66 67  1  0
 66 85  1  0
 67 70  1  0
 68 65  1  0
 68 69  1  0
 69 67  2  0
 70 71  1  0
 71 72  2  0
 73 76  1  0
 73 72  1  0
 74 73  2  0
 75 74  1  0
 75 70  2  0
 76 77  1  0
 77 78  1  0
 78 79  2  0
 80 79  1  0
 80 84  1  0
 81 80  2  0
 82 77  2  0
 82 81  1  0
 83 82  1  0
 85 86  1  0
 86 89  1  0
 86 88  1  0
 87 85  2  0
 90 91  1  0
 90 65  1  0
 92 90  1  0
M  ISO  4   5 101   6 101  56 100  57 100
M  END
>  <TORSDO>  (6) 
F 21

>  <SCORE>  (6) 
-13.778

>  <name>  (6) 
5

>  <ligand_id>  (6) 
5

>  <original_smiles>  (6) 
[H]C(C(=O)N1C([H])([H])C([H])([H])C([H])([H])C([H])(n2nc(-c3c([H])c([H])c(Oc4c([H])c([H])c(F)c([H])c4F)c([H])c3[H])c(C(=O)N([H])[H])c2N([H])[H])C1([H])[H])=C([H])c1c([H])c([H])c(N([H])C([H])([H])C([H])=C(C([H])([H])[H])C([H])([H])Oc2c([H])c([H])c3c(c2[H])C([H])([H])N(C(=O)C([H])(N([H])C(=O)C([H])(N([H])C([H])([H])[H])C([H])([H])[H])C(C([H])([H])[H])(C([H])([H])[H])C([H])([H])[H])C([H])(C(=O)N([H])C2([H])c4c([H])c([H])c([H])c([H])c4C([H])([H])C([H])([H])C2([H])[H])C3([H])[H])c([H])c1[H]

>  <smiles>  (6) 
[H]C(C(=O)N1C([H])([H])C([H])([H])C([H])([H])C([H])(n2nc(-c3c([H])c([H])c(Oc4c([H])c([H])c(F)c([H])c4F)c([H])c3[H])c(C(=O)N([H])[H])c2N([H])[H])C1([H])[H])=C([H])c1c([H])c([H])c(N([H])C([H])([H])C([H])=C(C([H])([H])[H])C([H])([H])Oc2c([H])c([H])c3c(c2[H])C([H])([H])N(C(=O)C([H])(N([H])C(=O)C([H])(N([H])C([H])([H])[H])C([H])([H])[H])C(C([H])([H])[H])(C([H])([H])[H])C([H])([H])[H])C([H])(C(=O)N([H])C2([H])c4c([H])c([H])c([H])c([H])c4C([H])([H])C([H])([H])C2([H])[H])C3([H])[H])c([H])c1[H]

$$$$
6:0:0
     RDKit          3D

 92100  0  0  1  0  0  0  0  0999 V2000
  -30.9470  -20.1180   19.3670 C   0  0  0  0  0  3  0  0  0  0  0  0
  -31.5200  -17.7280   19.4110 C   0  0  0  0  0  3  0  0  0  0  0  0
  -29.6900  -19.8940   19.9620 C   0  0  0  0  0  0  0  0  0  0  0  0
  -29.3580  -18.4790   20.2360 C   0  0  0  0  0  0  0  0  0  0  0  0
  -30.2790  -17.3570   19.9890 C   0  0  0  0  0  0  0  0  0  0  0  0
  -31.8390  -19.0630   19.1000 C   0  0  0  0  0  0  0  0  0  0  0  0
  -33.0380  -19.3400   18.5350 F   0  0  0  0  0  0  0  0  0  0  0  0
  -30.7050  -14.7290   19.9860 C   0  0  0  0  0  0  0  0  0  0  0  0
  -30.4160  -12.4760   18.9370 C   0  0  0  0  0  2  0  0  0  0  0  0
  -29.4050  -12.5790   17.7740 C   0  0  0  0  0  2  0  0  0  0  0  0
  -27.9680  -12.3890   18.2950 C   0  0  0  0  0  2  0  0  0  0  0  0
  -27.6700  -13.2380   19.5610 C   0  0  0  0  0  3  0  0  0  0  0  0
  -28.8020  -13.1340   20.6070 C   0  0  0  0  0  2  0  0  0  0  0  0
  -30.0520  -13.5120   19.9340 N   0  0  0  0  0  0  0  0  0  0  0  0
  -31.8860  -14.7710   19.6350 O   0  0  0  0  0  0  0  0  0  0  0  0
  -29.9750  -15.8990   20.2380 N   0  0  0  0  0  0  0  0  0  0  0  0
  -29.0400  -15.7190   20.5660 H   0  0  0  0  0  0  0  0  0  0  0  0
  -25.3380  -13.7910   20.4690 C   0  0  0  0  0  0  0  0  0  0  0  0
  -24.2990  -13.0020   20.8810 C   0  0  0  0  0  0  0  0  0  0  0  0
  -24.7590  -11.6530   20.7700 C   0  0  0  0  0  0  0  0  0  0  0  0
  -26.3650  -12.9240   20.1330 N   0  0  0  0  0  0  0  0  0  0  0  0
  -26.0280  -11.6310   20.3780 N   0  0  0  0  0  0  0  0  0  0  0  0
  -24.0450  -10.3840   20.9580 C   0  0  0  0  0  0  0  0  0  0  0  0
  -24.4880   -9.4160   21.8880 C   0  0  0  0  0  3  0  0  0  0  0  0
  -23.7730   -8.2130   22.0640 C   0  0  0  0  0  3  0  0  0  0  0  0
  -22.5990   -7.9670   21.3110 C   0  0  0  0  0  0  0  0  0  0  0  0
  -22.1760   -8.9230   20.3700 C   0  0  0  0  0  3  0  0  0  0  0  0
  -22.8930  -10.1180   20.1930 C   0  0  0  0  0  3  0  0  0  0  0  0
  -21.8540   -6.8160   21.3980 O   0  0  0  0  0  0  0  0  0  0  0  0
  -21.7530   -6.1120   22.5720 C   0  0  0  0  0  0  0  0  0  0  0  0
  -21.2380   -6.6960   23.7510 C   0  0  0  0  0  3  0  0  0  0  0  0
  -21.0850   -5.9160   24.9140 C   0  0  0  0  0  3  0  0  0  0  0  0
  -21.4380   -4.5520   24.9000 C   0  0  0  0  0  0  0  0  0  0  0  0
  -21.9440   -3.9680   23.7270 C   0  0  0  0  0  3  0  0  0  0  0  0
  -22.0970   -4.7450   22.5640 C   0  0  0  0  0  0  0  0  0  0  0  0
  -22.5660   -4.1720   21.4300 F   0  0  0  0  0  0  0  0  0  0  0  0
  -21.2840   -3.8000   26.0160 F   0  0  0  0  0  0  0  0  0  0  0  0
  -22.9220  -13.4670   21.2560 C   0  0  0  0  0  0  0  0  0  0  0  0
  -22.2510  -12.7440   22.1460 N   0  0  0  0  0  0  0  0  0  0  0  0
  -22.4500  -14.5060   20.7940 O   0  0  0  0  0  0  0  0  0  0  0  0
  -22.6440  -11.9040   22.5430 H   0  0  0  0  0  0  0  0  0  0  0  0
  -21.3270  -13.0360   22.4340 H   0  0  0  0  0  0  0  0  0  0  0  0
  -25.4880  -15.1680   20.3300 N   0  0  0  0  0  0  0  0  0  0  0  0
  -24.7180  -15.8060   20.4960 H   0  0  0  0  0  0  0  0  0  0  0  0
  -26.2970  -15.6250   19.9310 H   0  0  0  0  0  0  0  0  0  0  0  0
  -26.8560  -18.4680   20.1750 C   0  0  0  0  0  2  0  0  0  0  0  0
  -28.0220  -18.1110   20.7390 C   0  0  0  0  0  3  0  0  0  0  0  0
  -28.8470  -21.1660   20.3010 C   0  0  0  0  0  3  0  0  0  0  0  0
  -28.9390  -22.5280   19.9790 C   0  0  0  0  0  3  0  0  0  0  0  0
  -28.0220  -23.5830   20.5670 C   0  0  0  0  0  3  0  0  0  0  0  0
  -27.6920  -24.9440   20.5020 C   0  0  0  0  0  3  0  0  0  0  0  0
  -28.0440  -26.1320   19.7940 O   0  0  0  0  0  0  0  0  0  0  0  0
  -24.6280  -31.7170   23.0300 C   0  0  0  0  0  0  0  0  0  0  0  0
  -27.0390  -27.1370   19.7840 C   0  0  0  0  0  0  0  0  0  0  0  0
  -23.3520  -30.3950   21.3850 C   0  0  0  0  0  3  0  0  0  0  0  0
  -24.7300  -28.8520   19.8730 C   0  0  0  0  0  0  0  0  0  0  0  0
  -25.8980  -30.6410   21.1500 C   0  0  0  0  0  2  0  0  0  0  0  0
  -25.9300  -29.2770   20.4620 C   0  0  0  0  0  0  0  0  0  0  0  0
  -27.0910  -28.4310   20.4080 C   0  0  0  0  0  3  0  0  0  0  0  0
  -25.8220  -26.7900   19.1620 C   0  0  0  0  0  3  0  0  0  0  0  0
  -24.6830  -27.6160   19.2100 C   0  0  0  0  0  3  0  0  0  0  0  0
  -23.5160  -29.7580   19.9820 C   0  0  0  0  0  2  0  0  0  0  0  0
  -24.6480  -30.9350   21.9120 N   0  0  0  0  0  0  0  0  0  0  0  0
  -23.5650  -32.0070   23.5980 O   0  0  0  0  0  0  0  0  0  0  0  0
  -22.6840  -29.3730   22.3350 C   0  0  0  0  0  0  0  0  0  0  0  0
  -21.3480  -29.2430   22.2460 N   0  0  0  0  0  0  0  0  0  0  0  0
  -23.3650  -28.6990   23.1120 O   0  0  0  0  0  0  0  0  0  0  0  0
  -20.8570  -29.8330   21.5880 H   0  0  0  0  0  0  0  0  0  0  0  0
  -17.9470  -28.1510   22.8380 C   0  0  0  0  0  0  0  0  0  0  0  0
  -20.5230  -28.3080   23.0140 C   0  0  0  0  0  3  0  0  0  0  0  0
  -20.5470  -26.8970   22.3780 C   0  0  0  0  0  2  0  0  0  0  0  0
  -19.3920  -26.6550   21.3980 C   0  0  0  0  0  2  0  0  0  0  0  0
  -18.0450  -26.8250   22.1030 C   0  0  0  0  0  2  0  0  0  0  0  0
  -19.1100  -28.8530   23.2530 C   0  0  0  0  0  0  0  0  0  0  0  0
  -18.9630  -30.0990   23.9020 C   0  0  0  0  0  3  0  0  0  0  0  0
  -17.6850  -30.6380   24.1440 C   0  0  0  0  0  3  0  0  0  0  0  0
  -16.5380  -29.9320   23.7460 C   0  0  0  0  0  3  0  0  0  0  0  0
  -16.6700  -28.6900   23.0990 C   0  0  0  0  0  3  0  0  0  0  0  0
  -25.9390  -32.3040   23.6400 C   0  0  0  0  0  3  0  0  0  0  0  0
  -26.4820  -31.4680   24.8630 C   0  0  1  0  0  0  0  0  0  0  0  0
  -25.4200  -31.2030   25.9560 C   0  0  0  0  0  1  0  0  0  0  0  0
  -27.0230  -30.0960   24.3930 C   0  0  0  0  0  1  0  0  0  0  0  0
  -27.6700  -32.2110   25.5190 C   0  0  0  0  0  1  0  0  0  0  0  0
  -25.6600  -33.6880   24.0450 N   0  0  0  0  0  0  0  0  0  0  0  0
  -25.9860  -34.7740   23.3270 C   0  0  0  0  0  0  0  0  0  0  0  0
  -26.6200  -34.7110   22.2710 O   0  0  0  0  0  0  0  0  0  0  0  0
  -25.0950  -33.8130   24.8710 H   0  0  0  0  0  0  0  0  0  0  0  0
  -24.2800  -36.6100   23.1150 C   0  0  0  0  0  1  0  0  0  0  0  0
  -25.5370  -36.1450   23.8660 C   0  0  0  0  0  3  0  0  0  0  0  0
  -27.7100  -36.9560   24.6800 C   0  0  0  0  0  1  0  0  0  0  0  0
  -26.5860  -37.1870   23.7760 N   0  0  0  0  0  0  0  0  0  0  0  0
  -26.1990  -38.1050   23.9780 H   0  0  0  0  0  0  0  0  0  0  0  0
  1  3  1  0
  2  5  2  0
  3  4  2  0
  3 48  1  0
  4 47  1  0
  5  4  1  0
  5 16  1  0
  6  1  2  0
  6  2  1  0
  7  6  1  0
  8 16  1  0
  9 14  1  0
 10 11  1  0
 10  9  1  0
 12 11  1  0
 12 21  1  0
 12 13  1  0
 14  8  1  0
 14 13  1  0
 15  8  2  0
 16 17  1  0
 18 19  2  0
 19 38  1  0
 20 19  1  0
 20 23  1  0
 21 22  1  0
 21 18  1  0
 22 20  2  0
 23 24  1  0
 24 25  2  0
 26 29  1  0
 26 25  1  0
 27 26  2  0
 28 27  1  0
 28 23  2  0
 29 30  1  0
 30 31  1  0
 31 32  2  0
 33 32  1  0
 33 37  1  0
 34 33  2  0
 35 30  2  0
 35 34  1  0
 36 35  1  0
 38 39  1  0
 39 42  1  0
 39 41  1  0
 40 38  2  0
 43 18  1  0
 43 44  1  0
 45 43  1  0
 46 47  2  0
 49 48  2  0
 49 50  1  0
 51 50  2  0
 52 51  1  0
 53 64  2  0
 54 52  1  0
 54 59  1  0
 55 63  1  0
 55 65  1  0
 56 62  1  0
 56 58  1  0
 57 63  1  0
 58 57  1  0
 59 58  2  0
 60 61  1  0
 60 54  2  0
 61 56  2  0
 62 55  1  0
 63 53  1  0
 65 67  2  0
 66 65  1  0
 68 66  1  0
 69 78  2  0
 69 74  1  0
 70 66  1  0
 70 74  1  0
 71 70  1  0
 72 73  1  0
 72 71  1  0
 73 69  1  0
 74 75  2  0
 75 76  1  0
 77 76  2  0
 78 77  1  0
 79 53  1  0
 79 84  1  0
 79 80  1  0
 80 83  1  1
 80 81  1  0
 82 80  1  0
 84 87  1  0
 85 89  1  0
 85 84  1  0
 86 85  2  0
 89 88  1  0
 91 89  1  0
 91 92  1  0
 91 90  1  0
M  ISO  4   8 100  16 100  51 101  52 101
M  END
>  <TORSDO>  (7) 
F 19

>  <SCORE>  (7) 
-13.390

>  <name>  (7) 
6

>  <ligand_id>  (7) 
6

>  <original_smiles>  (7) 
[H]C([H])=C([H])c1c(C([H])=C([H])C([H])=C([H])Oc2c([H])c([H])c3c(c2[H])C([H])([H])N(C(=O)C([H])(N([H])C(=O)C([H])(N([H])C([H])([H])[H])C([H])([H])[H])C(C([H])([H])[H])(C([H])([H])[H])C([H])([H])[H])C([H])(C(=O)N([H])C2([H])c4c([H])c([H])c([H])c([H])c4C([H])([H])C([H])([H])C2([H])[H])C3([H])[H])c([H])c(F)c([H])c1N([H])C(=O)N1C([H])([H])C([H])([H])C([H])([H])C([H])(n2nc(-c3c([H])c([H])c(Oc4c([H])c([H])c(F)c([H])c4F)c([H])c3[H])c(C(=O)N([H])[H])c2N([H])[H])C1([H])[H]

>  <smiles>  (7) 
[H]C([H])=C([H])c1c(C([H])=C([H])C([H])=C([H])Oc2c([H])c([H])c3c(c2[H])C([H])([H])N(C(=O)C([H])(N([H])C(=O)C([H])(N([H])C([H])([H])[H])C([H])([H])[H])C(C([H])([H])[H])(C([H])([H])[H])C([H])([H])[H])C([H])(C(=O)N([H])C2([H])c4c([H])c([H])c([H])c([H])c4C([H])([H])C([H])([H])C2([H])[H])C3([H])[H])c([H])c(F)c([H])c1N([H])C(=O)N1C([H])([H])C([H])([H])C([H])([H])C([H])(n2nc(-c3c([H])c([H])c(Oc4c([H])c([H])c(F)c([H])c4F)c([H])c3[H])c(C(=O)N([H])[H])c2N([H])[H])C1([H])[H]

$$$$
7:0:0
     RDKit          3D

 95103  0  0  1  0  0  0  0  0999 V2000
  -29.8290  -19.9130   19.4520 C   0  0  0  0  0  3  0  0  0  0  0  0
  -29.8190  -21.2370   19.1680 C   0  0  0  0  0  3  0  0  0  0  0  0
  -30.6690  -17.8420   20.5400 C   0  0  0  0  0  3  0  0  0  0  0  0
  -31.3060  -17.7420   22.8820 C   0  0  0  0  0  3  0  0  0  0  0  0
  -30.3280  -19.2160   20.6710 C   0  0  0  0  0  0  0  0  0  0  0  0
  -30.9960  -19.1060   23.0420 C   0  0  0  0  0  0  0  0  0  0  0  0
  -30.4630  -19.8440   21.9490 C   0  0  0  0  0  0  0  0  0  0  0  0
  -31.1220  -17.0890   21.6520 C   0  0  0  0  0  0  0  0  0  0  0  0
  -29.9720  -21.2730   22.1780 C   0  0  0  0  0  1  0  0  0  0  0  0
  -31.8050  -14.8520   20.7330 C   0  0  0  0  0  0  0  0  0  0  0  0
  -31.5620  -12.6040   19.7230 C   0  0  0  0  0  2  0  0  0  0  0  0
  -30.7260  -12.6800   18.4290 C   0  0  0  0  0  2  0  0  0  0  0  0
  -29.2160  -12.6230   18.7300 C   0  0  0  0  0  2  0  0  0  0  0  0
  -28.7960  -13.6140   19.8470 C   0  0  0  0  0  3  0  0  0  0  0  0
  -29.7300  -13.4660   21.0690 C   0  0  0  0  0  2  0  0  0  0  0  0
  -31.1260  -13.6780   20.6270 N   0  0  0  0  0  0  0  0  0  0  0  0
  -32.8550  -15.0920   20.1260 O   0  0  0  0  0  0  0  0  0  0  0  0
  -31.3110  -15.6760   21.6680 N   0  0  0  0  0  0  0  0  0  0  0  0
  -30.7170  -15.1940   22.3280 H   0  0  0  0  0  0  0  0  0  0  0  0
  -26.3870  -14.3960   20.3260 C   0  0  0  0  0  0  0  0  0  0  0  0
  -25.2430  -13.7050   20.6260 C   0  0  0  0  0  0  0  0  0  0  0  0
  -25.6160  -12.3260   20.6690 C   0  0  0  0  0  0  0  0  0  0  0  0
  -27.3900  -13.4430   20.2120 N   0  0  0  0  0  0  0  0  0  0  0  0
  -26.9220  -12.1950   20.4700 N   0  0  0  0  0  0  0  0  0  0  0  0
  -24.7960  -11.1180   20.8350 C   0  0  0  0  0  0  0  0  0  0  0  0
  -25.0600  -10.1830   21.8580 C   0  0  0  0  0  3  0  0  0  0  0  0
  -24.2490   -9.0380   22.0090 C   0  0  0  0  0  3  0  0  0  0  0  0
  -23.1590   -8.8220   21.1350 C   0  0  0  0  0  0  0  0  0  0  0  0
  -22.9130   -9.7440   20.1030 C   0  0  0  0  0  3  0  0  0  0  0  0
  -23.7230  -10.8810   19.9510 C   0  0  0  0  0  3  0  0  0  0  0  0
  -22.3320   -7.7250   21.1890 O   0  0  0  0  0  0  0  0  0  0  0  0
  -22.0400   -7.1010   22.3760 C   0  0  0  0  0  0  0  0  0  0  0  0
  -21.4530   -7.7930   23.4570 C   0  0  0  0  0  3  0  0  0  0  0  0
  -21.1070   -7.0990   24.6320 C   0  0  0  0  0  3  0  0  0  0  0  0
  -21.3380   -5.7130   24.7260 C   0  0  0  0  0  0  0  0  0  0  0  0
  -21.9170   -5.0210   23.6480 C   0  0  0  0  0  3  0  0  0  0  0  0
  -22.2650   -5.7130   22.4750 C   0  0  0  0  0  0  0  0  0  0  0  0
  -22.8030   -5.0380   21.4320 F   0  0  0  0  0  0  0  0  0  0  0  0
  -20.9980   -5.0440   25.8530 F   0  0  0  0  0  0  0  0  0  0  0  0
  -23.8620  -14.2760   20.7730 C   0  0  0  0  0  0  0  0  0  0  0  0
  -23.0320  -13.6680   21.6150 N   0  0  0  0  0  0  0  0  0  0  0  0
  -23.5260  -15.2980   20.1760 O   0  0  0  0  0  0  0  0  0  0  0  0
  -23.3150  -12.8430   22.1220 H   0  0  0  0  0  0  0  0  0  0  0  0
  -22.1020  -14.0340   21.7550 H   0  0  0  0  0  0  0  0  0  0  0  0
  -26.6550  -15.7460   20.1260 N   0  0  0  0  0  0  0  0  0  0  0  0
  -25.9310  -16.4560   20.1600 H   0  0  0  0  0  0  0  0  0  0  0  0
  -27.5680  -16.1200   19.8970 H   0  0  0  0  0  0  0  0  0  0  0  0
  -32.0890  -20.9940   24.3620 C   0  0  0  0  0  1  0  0  0  0  0  0
  -31.2320  -19.7220   24.4190 C   0  0  0  0  0  2  0  0  0  0  0  0
  -29.1980  -21.8320   17.9100 C   0  0  0  0  0  2  0  0  0  0  0  0
  -29.3820  -23.3610   17.7180 C   0  0  0  0  0  2  0  0  0  0  0  0
  -28.5010  -24.2910   18.5770 C   0  0  0  0  0  0  0  0  0  0  0  0
  -28.1470  -23.9730   19.7160 O   0  0  0  0  0  0  0  0  0  0  0  0
  -28.0930  -25.6390   17.9450 C   0  0  0  0  0  2  0  0  0  0  0  0
  -27.9850  -26.6860   18.9240 O   0  0  0  0  0  0  0  0  0  0  0  0
  -24.4830  -31.4480   22.8700 C   0  0  0  0  0  0  0  0  0  0  0  0
  -26.7910  -27.3560   19.0940 C   0  0  0  0  0  0  0  0  0  0  0  0
  -23.1040  -30.1910   21.2430 C   0  0  0  0  0  3  0  0  0  0  0  0
  -24.3960  -28.8090   19.5290 C   0  0  0  0  0  0  0  0  0  0  0  0
  -25.5920  -30.5980   20.8050 C   0  0  0  0  0  2  0  0  0  0  0  0
  -25.6090  -29.2920   20.0360 C   0  0  0  0  0  0  0  0  0  0  0  0
  -26.8020  -28.5680   19.8240 C   0  0  0  0  0  3  0  0  0  0  0  0
  -25.5540  -26.8770   18.6010 C   0  0  0  0  0  3  0  0  0  0  0  0
  -24.3630  -27.5970   18.8150 C   0  0  0  0  0  3  0  0  0  0  0  0
  -23.1640  -29.6460   19.7910 C   0  0  0  0  0  2  0  0  0  0  0  0
  -24.4170  -30.7550   21.6960 N   0  0  0  0  0  0  0  0  0  0  0  0
  -23.4680  -31.6530   23.5490 O   0  0  0  0  0  0  0  0  0  0  0  0
  -22.5650  -29.0770   22.1690 C   0  0  0  0  0  0  0  0  0  0  0  0
  -21.2480  -28.8260   22.1010 N   0  0  0  0  0  0  0  0  0  0  0  0
  -23.3260  -28.4420   22.9020 O   0  0  0  0  0  0  0  0  0  0  0  0
  -20.6900  -29.3980   21.4820 H   0  0  0  0  0  0  0  0  0  0  0  0
  -17.9930  -27.3460   22.6190 C   0  0  0  0  0  0  0  0  0  0  0  0
  -20.5280  -27.7970   22.8490 C   0  0  0  0  0  3  0  0  0  0  0  0
  -20.7310  -26.4030   22.2120 C   0  0  0  0  0  2  0  0  0  0  0  0
  -19.6350  -26.0330   21.2080 C   0  0  0  0  0  2  0  0  0  0  0  0
  -18.2610  -26.0420   21.8860 C   0  0  0  0  0  2  0  0  0  0  0  0
  -19.0580  -28.1770   23.0580 C   0  0  0  0  0  0  0  0  0  0  0  0
  -18.7570  -29.3950   23.7040 C   0  0  0  0  0  3  0  0  0  0  0  0
  -17.4220  -29.7860   23.9160 C   0  0  0  0  0  3  0  0  0  0  0  0
  -16.3710  -28.9520   23.4950 C   0  0  0  0  0  3  0  0  0  0  0  0
  -16.6570  -27.7340   22.8520 C   0  0  0  0  0  3  0  0  0  0  0  0
  -25.8280  -32.0310   23.4020 C   0  0  0  0  0  3  0  0  0  0  0  0
  -25.5500  -33.3740   23.9300 N   0  0  0  0  0  0  0  0  0  0  0  0
  -25.8100  -34.5150   23.2790 C   0  0  0  0  0  0  0  0  0  0  0  0
  -26.3810  -34.5470   22.1850 O   0  0  0  0  0  0  0  0  0  0  0  0
  -25.0370  -33.4220   24.7970 H   0  0  0  0  0  0  0  0  0  0  0  0
  -24.0700  -36.3300   23.2870 C   0  0  0  0  0  1  0  0  0  0  0  0
  -25.3640  -35.8290   23.9470 C   0  0  0  0  0  3  0  0  0  0  0  0
  -27.5550  -36.6110   24.7310 C   0  0  0  0  0  1  0  0  0  0  0  0
  -26.3890  -36.8920   23.8960 N   0  0  0  0  0  0  0  0  0  0  0  0
  -25.9980  -37.7840   24.1910 H   0  0  0  0  0  0  0  0  0  0  0  0
  -26.5070  -31.1290   24.5060 C   0  0  1  0  0  0  0  0  0  0  0  0
  -25.5560  -30.7430   25.6630 C   0  0  0  0  0  1  0  0  0  0  0  0
  -27.0490  -29.8230   23.8780 C   0  0  0  0  0  1  0  0  0  0  0  0
  -27.7210  -31.8690   25.1150 C   0  0  0  0  0  1  0  0  0  0  0  0
  1  5  1  0
  2  1  2  0
  3  5  2  0
  3  8  1  0
  4  6  1  0
  5  7  1  0
  6 49  1  0
  7  9  1  0
  7  6  2  0
  8 18  1  0
  8  4  2  0
 10 18  1  0
 11 16  1  0
 12 13  1  0
 12 11  1  0
 14 13  1  0
 14 23  1  0
 14 15  1  0
 16 10  1  0
 16 15  1  0
 17 10  2  0
 18 19  1  0
 20 21  2  0
 21 22  1  0
 21 40  1  0
 22 25  1  0
 23 20  1  0
 23 24  1  0
 24 22  2  0
 25 26  1  0
 26 27  2  0
 28 31  1  0
 28 27  1  0
 29 28  2  0
 30 29  1  0
 30 25  2  0
 31 32  1  0
 32 37  2  0
 32 33  1  0
 33 34  2  0
 34 35  1  0
 35 39  1  0
 36 35  2  0
 37 36  1  0
 38 37  1  0
 40 41  1  0
 41 44  1  0
 41 43  1  0
 42 40  2  0
 45 46  1  0
 45 20  1  0
 47 45  1  0
 48 49  1  0
 50  2  1  0
 51 50  1  0
 51 52  1  0
 52 53  2  0
 54 52  1  0
 54 55  1  0
 55 57  1  0
 56 67  2  0
 57 62  1  0
 58 66  1  0
 58 68  1  0
 59 65  1  0
 59 61  1  0
 60 66  1  0
 61 60  1  0
 62 61  2  0
 63 64  1  0
 63 57  2  0
 64 59  2  0
 65 58  1  0
 66 56  1  0
 68 70  2  0
 69 68  1  0
 71 69  1  0
 72 81  2  0
 72 77  1  0
 73 69  1  0
 73 77  1  0
 74 73  1  0
 75 76  1  0
 75 74  1  0
 76 72  1  0
 77 78  2  0
 78 79  1  0
 80 79  2  0
 81 80  1  0
 82 56  1  0
 82 83  1  0
 82 92  1  0
 83 86  1  0
 84 83  1  0
 84 88  1  0
 85 84  2  0
 88 87  1  0
 90 88  1  0
 90 91  1  0
 90 89  1  0
 92 95  1  1
 92 93  1  0
 94 92  1  0
M  ISO  4  10 100  18 100  54 101  55 101
M  END
>  <TORSDO>  (8) 
F 22

>  <SCORE>  (8) 
-9.847

>  <name>  (8) 
7

>  <ligand_id>  (8) 
7

>  <original_smiles>  (8) 
[H]C(=C([H])C([H])([H])C([H])([H])C(=O)C([H])([H])Oc1c([H])c([H])c2c(c1[H])C([H])([H])N(C(=O)C([H])(N([H])C(=O)C([H])(N([H])C([H])([H])[H])C([H])([H])[H])C(C([H])([H])[H])(C([H])([H])[H])C([H])([H])[H])C([H])(C(=O)N([H])C1([H])c3c([H])c([H])c([H])c([H])c3C([H])([H])C([H])([H])C1([H])[H])C2([H])[H])c1c([H])c(N([H])C(=O)N2C([H])([H])C([H])([H])C([H])([H])C([H])(n3nc(-c4c([H])c([H])c(Oc5c([H])c([H])c(F)c([H])c5F)c([H])c4[H])c(C(=O)N([H])[H])c3N([H])[H])C2([H])[H])c([H])c(C([H])([H])C([H])([H])[H])c1C([H])([H])[H]

>  <smiles>  (8) 
[H]C(=C([H])C([H])([H])C([H])([H])C(=O)C([H])([H])Oc1c([H])c([H])c2c(c1[H])C([H])([H])N(C(=O)C([H])(N([H])C(=O)C([H])(N([H])C([H])([H])[H])C([H])([H])[H])C(C([H])([H])[H])(C([H])([H])[H])C([H])([H])[H])C([H])(C(=O)N([H])C1([H])c3c([H])c([H])c([H])c([H])c3C([H])([H])C([H])([H])C1([H])[H])C2([H])[H])c1c([H])c(N([H])C(=O)N2C([H])([H])C([H])([H])C([H])([H])C([H])(n3nc(-c4c([H])c([H])c(Oc5c([H])c([H])c(F)c([H])c5F)c([H])c4[H])c(C(=O)N([H])[H])c3N([H])[H])C2([H])[H])c([H])c(C([H])([H])C([H])([H])[H])c1C([H])([H])[H]

$$$$
8:0:0
     RDKit          3D

 92100  0  0  1  0  0  0  0  0999 V2000
  -29.7090  -18.9940   20.2660 C   0  0  0  0  0  3  0  0  0  0  0  0
  -30.9950  -17.4580   22.2260 C   0  0  0  0  0  3  0  0  0  0  0  0
  -30.2400  -19.6460   21.4000 C   0  0  0  0  0  0  0  0  0  0  0  0
  -29.7880  -17.5920   20.1130 C   0  0  0  0  0  0  0  0  0  0  0  0
  -30.9280  -18.8630   22.3660 C   0  0  0  0  0  0  0  0  0  0  0  0
  -30.4030  -16.8070   21.1260 C   0  0  0  0  0  0  0  0  0  0  0  0
  -29.1520  -16.9650   18.8840 C   0  0  0  0  0  1  0  0  0  0  0  0
  -31.5520  -19.5070   23.5940 C   0  0  0  0  0  1  0  0  0  0  0  0
  -30.8590  -14.5050   20.3270 C   0  0  0  0  0  0  0  0  0  0  0  0
  -30.4960  -12.4000   19.1030 C   0  0  0  0  0  2  0  0  0  0  0  0
  -29.5100  -12.6340   17.9390 C   0  0  0  0  0  2  0  0  0  0  0  0
  -28.0520  -12.4830   18.4110 C   0  0  0  0  0  2  0  0  0  0  0  0
  -27.7590  -13.2990   19.6960 C   0  0  0  0  0  3  0  0  0  0  0  0
  -28.8420  -13.0460   20.7680 C   0  0  0  0  0  2  0  0  0  0  0  0
  -30.1660  -13.3450   20.1800 N   0  0  0  0  0  0  0  0  0  0  0  0
  -31.9070  -14.7580   19.7230 O   0  0  0  0  0  0  0  0  0  0  0  0
  -30.3000  -15.3880   21.1650 N   0  0  0  0  0  0  0  0  0  0  0  0
  -29.5510  -15.0170   21.7300 H   0  0  0  0  0  0  0  0  0  0  0  0
  -25.3830  -13.9270   20.4720 C   0  0  0  0  0  0  0  0  0  0  0  0
  -24.3180  -13.1590   20.8610 C   0  0  0  0  0  0  0  0  0  0  0  0
  -24.7670  -11.8050   20.8000 C   0  0  0  0  0  0  0  0  0  0  0  0
  -26.4140  -13.0370   20.2050 N   0  0  0  0  0  0  0  0  0  0  0  0
  -26.0460  -11.7560   20.4540 N   0  0  0  0  0  0  0  0  0  0  0  0
  -24.0400  -10.5450   20.9970 C   0  0  0  0  0  0  0  0  0  0  0  0
  -24.4840   -9.5720   21.9200 C   0  0  0  0  0  3  0  0  0  0  0  0
  -23.7580   -8.3740   22.1010 C   0  0  0  0  0  3  0  0  0  0  0  0
  -22.5770   -8.1410   21.3580 C   0  0  0  0  0  0  0  0  0  0  0  0
  -22.1520   -9.1020   20.4230 C   0  0  0  0  0  3  0  0  0  0  0  0
  -22.8780  -10.2920   20.2400 C   0  0  0  0  0  3  0  0  0  0  0  0
  -21.8220   -6.9960   21.4510 O   0  0  0  0  0  0  0  0  0  0  0  0
  -21.7720   -6.2600   22.6070 C   0  0  0  0  0  0  0  0  0  0  0  0
  -21.3080   -6.8090   23.8220 C   0  0  0  0  0  3  0  0  0  0  0  0
  -21.2060   -5.9970   24.9690 C   0  0  0  0  0  3  0  0  0  0  0  0
  -21.5580   -4.6360   24.9030 C   0  0  0  0  0  0  0  0  0  0  0  0
  -22.0150   -4.0860   23.6940 C   0  0  0  0  0  3  0  0  0  0  0  0
  -22.1200   -4.8940   22.5490 C   0  0  0  0  0  0  0  0  0  0  0  0
  -22.5410   -4.3520   21.3800 F   0  0  0  0  0  0  0  0  0  0  0  0
  -21.4520   -3.8550   26.0040 F   0  0  0  0  0  0  0  0  0  0  0  0
  -22.9320  -13.6420   21.1810 C   0  0  0  0  0  0  0  0  0  0  0  0
  -22.2220  -12.9390   22.0570 N   0  0  0  0  0  0  0  0  0  0  0  0
  -22.4870  -14.6780   20.6880 O   0  0  0  0  0  0  0  0  0  0  0  0
  -22.5870  -12.0990   22.4810 H   0  0  0  0  0  0  0  0  0  0  0  0
  -21.2940  -13.2490   22.3110 H   0  0  0  0  0  0  0  0  0  0  0  0
  -25.5590  -15.2990   20.3080 N   0  0  0  0  0  0  0  0  0  0  0  0
  -24.8190  -15.9740   20.4620 H   0  0  0  0  0  0  0  0  0  0  0  0
  -26.4220  -15.7270   19.9960 H   0  0  0  0  0  0  0  0  0  0  0  0
  -29.9640  -21.0790   21.6610 C   0  0  0  0  0  3  0  0  0  0  0  0
  -29.0340  -21.8660   21.0820 C   0  0  0  0  0  3  0  0  0  0  0  0
  -28.7520  -23.2830   21.5630 C   0  0  0  0  0  2  0  0  0  0  0  0
  -28.8430  -24.4020   20.5100 C   0  0  0  0  0  2  0  0  0  0  0  0
  -28.5870  -25.7720   21.1730 C   0  0  0  0  0  2  0  0  0  0  0  0
  -28.5950  -26.8570   20.2440 O   0  0  0  0  0  0  0  0  0  0  0  0
  -24.6500  -31.9550   23.2770 C   0  0  0  0  0  0  0  0  0  0  0  0
  -27.4250  -27.5750   20.2370 C   0  0  0  0  0  0  0  0  0  0  0  0
  -23.4900  -30.5220   21.6240 C   0  0  0  0  0  3  0  0  0  0  0  0
  -24.9950  -29.0060   20.2250 C   0  0  0  0  0  0  0  0  0  0  0  0
  -26.0080  -30.9340   21.4560 C   0  0  0  0  0  2  0  0  0  0  0  0
  -26.1330  -29.5640   20.8230 C   0  0  0  0  0  0  0  0  0  0  0  0
  -27.3540  -28.8540   20.8280 C   0  0  0  0  0  3  0  0  0  0  0  0
  -26.2760  -27.0220   19.6370 C   0  0  0  0  0  3  0  0  0  0  0  0
  -25.0600  -27.7330   19.6310 C   0  0  0  0  0  3  0  0  0  0  0  0
  -23.7300  -29.8350   20.2520 C   0  0  0  0  0  2  0  0  0  0  0  0
  -24.7330  -31.1530   22.1780 N   0  0  0  0  0  0  0  0  0  0  0  0
  -23.5560  -32.2100   23.8020 O   0  0  0  0  0  0  0  0  0  0  0  0
  -22.8480  -29.4940   22.5820 C   0  0  0  0  0  0  0  0  0  0  0  0
  -21.5270  -29.2990   22.4450 N   0  0  0  0  0  0  0  0  0  0  0  0
  -23.5340  -28.8750   23.3980 O   0  0  0  0  0  0  0  0  0  0  0  0
  -21.0310  -29.8570   21.7650 H   0  0  0  0  0  0  0  0  0  0  0  0
  -18.1610  -28.0710   22.9160 C   0  0  0  0  0  0  0  0  0  0  0  0
  -20.7160  -28.3480   23.2040 C   0  0  0  0  0  3  0  0  0  0  0  0
  -20.8330  -26.9210   22.6240 C   0  0  0  0  0  2  0  0  0  0  0  0
  -19.7390  -26.5940   21.6010 C   0  0  0  0  0  2  0  0  0  0  0  0
  -18.3510  -26.7250   22.2380 C   0  0  0  0  0  2  0  0  0  0  0  0
  -19.2710  -28.8400   23.3560 C   0  0  0  0  0  0  0  0  0  0  0  0
  -19.0390  -30.0990   23.9500 C   0  0  0  0  0  3  0  0  0  0  0  0
  -17.7290  -30.5920   24.1070 C   0  0  0  0  0  3  0  0  0  0  0  0
  -16.6330  -29.8190   23.6850 C   0  0  0  0  0  3  0  0  0  0  0  0
  -16.8500  -28.5610   23.0970 C   0  0  0  0  0  3  0  0  0  0  0  0
  -25.9170  -32.6090   23.9100 C   0  0  0  0  0  3  0  0  0  0  0  0
  -26.4160  -31.8680   25.2100 C   0  0  1  0  0  0  0  0  0  0  0  0
  -25.3040  -31.6370   26.2590 C   0  0  0  0  0  1  0  0  0  0  0  0
  -27.0270  -30.4920   24.8530 C   0  0  0  0  0  1  0  0  0  0  0  0
  -27.5420  -32.6900   25.8840 C   0  0  0  0  0  1  0  0  0  0  0  0
  -25.5910  -34.0100   24.2080 N   0  0  0  0  0  0  0  0  0  0  0  0
  -25.9230  -35.0490   23.4300 C   0  0  0  0  0  0  0  0  0  0  0  0
  -26.6100  -34.9310   22.4110 O   0  0  0  0  0  0  0  0  0  0  0  0
  -24.9900  -34.1750   25.0010 H   0  0  0  0  0  0  0  0  0  0  0  0
  -24.1890  -36.8170   22.9940 C   0  0  0  0  0  1  0  0  0  0  0  0
  -25.4100  -36.4400   23.8480 C   0  0  0  0  0  3  0  0  0  0  0  0
  -27.5110  -37.3640   24.7240 C   0  0  0  0  0  1  0  0  0  0  0  0
  -26.4360  -37.5020   23.7440 N   0  0  0  0  0  0  0  0  0  0  0  0
  -26.0170  -38.4210   23.8590 H   0  0  0  0  0  0  0  0  0  0  0  0
  1  3  1  0
  2  5  1  0
  3 47  1  0
  3  5  2  0
  4  1  2  0
  4  6  1  0
  5  8  1  0
  6 17  1  0
  6  2  2  0
  7  4  1  0
  9 17  1  0
 10 15  1  0
 11 12  1  0
 11 10  1  0
 13 12  1  0
 13 22  1  0
 13 14  1  0
 15  9  1  0
 15 14  1  0
 16  9  2  0
 17 18  1  0
 19 20  2  0
 20 39  1  0
 21 20  1  0
 21 24  1  0
 22 23  1  0
 22 19  1  0
 23 21  2  0
 24 25  1  0
 25 26  2  0
 27 30  1  0
 27 26  1  0
 28 27  2  0
 29 28  1  0
 29 24  2  0
 30 31  1  0
 31 32  1  0
 32 33  2  0
 34 33  1  0
 34 38  1  0
 35 34  2  0
 36 31  2  0
 36 35  1  0
 37 36  1  0
 39 40  1  0
 40 43  1  0
 40 42  1  0
 41 39  2  0
 44 45  1  0
 44 19  1  0
 46 44  1  0
 48 49  1  0
 48 47  2  0
 50 51  1  0
 50 49  1  0
 52 51  1  0
 53 64  2  0
 54 52  1  0
 54 59  1  0
 55 63  1  0
 55 65  1  0
 56 62  1  0
 56 58  1  0
 57 63  1  0
 58 59  2  0
 58 57  1  0
 60 54  2  0
 61 60  1  0
 61 56  2  0
 62 55  1  0
 63 53  1  0
 65 67  2  0
 66 65  1  0
 68 66  1  0
 69 78  2  0
 69 74  1  0
 70 66  1  0
 70 74  1  0
 71 70  1  0
 72 73  1  0
 72 71  1  0
 73 69  1  0
 74 75  2  0
 75 76  1  0
 77 76  2  0
 78 77  1  0
 79 53  1  0
 79 84  1  0
 79 80  1  0
 80 83  1  1
 80 81  1  0
 82 80  1  0
 84 87  1  0
 85 89  1  0
 85 84  1  0
 86 85  2  0
 89 88  1  0
 91 89  1  0
 91 92  1  0
 91 90  1  0
M  ISO  4   9 100  17 100  51 101  52 101
M  END
>  <TORSDO>  (9) 
F 20

>  <SCORE>  (9) 
-13.824

>  <name>  (9) 
8

>  <ligand_id>  (9) 
8

>  <original_smiles>  (9) 
[H]C(=C([H])C([H])([H])C([H])([H])C([H])([H])Oc1c([H])c([H])c2c(c1[H])C([H])([H])N(C(=O)C([H])(N([H])C(=O)C([H])(N([H])C([H])([H])[H])C([H])([H])[H])C(C([H])([H])[H])(C([H])([H])[H])C([H])([H])[H])C([H])(C(=O)N([H])C1([H])c3c([H])c([H])c([H])c([H])c3C([H])([H])C([H])([H])C1([H])[H])C2([H])[H])c1c([H])c(C([H])([H])[H])c(N([H])C(=O)N2C([H])([H])C([H])([H])C([H])([H])C([H])(n3nc(-c4c([H])c([H])c(Oc5c([H])c([H])c(F)c([H])c5F)c([H])c4[H])c(C(=O)N([H])[H])c3N([H])[H])C2([H])[H])c([H])c1C([H])([H])[H]

>  <smiles>  (9) 
[H]C(=C([H])C([H])([H])C([H])([H])C([H])([H])Oc1c([H])c([H])c2c(c1[H])C([H])([H])N(C(=O)C([H])(N([H])C(=O)C([H])(N([H])C([H])([H])[H])C([H])([H])[H])C(C([H])([H])[H])(C([H])([H])[H])C([H])([H])[H])C([H])(C(=O)N([H])C1([H])c3c([H])c([H])c([H])c([H])c3C([H])([H])C([H])([H])C1([H])[H])C2([H])[H])c1c([H])c(C([H])([H])[H])c(N([H])C(=O)N2C([H])([H])C([H])([H])C([H])([H])C([H])(n3nc(-c4c([H])c([H])c(Oc5c([H])c([H])c(F)c([H])c5F)c([H])c4[H])c(C(=O)N([H])[H])c3N([H])[H])C2([H])[H])c([H])c1C([H])([H])[H]

$$$$
9:0:0
     RDKit          3D

 95103  0  0  1  0  0  0  0  0999 V2000
  -30.1470  -21.0420   21.8690 O   0  0  0  0  0  0  0  0  0  0  0  0
  -30.6600  -18.8510   22.7870 C   0  0  0  0  0  3  0  0  0  0  0  0
  -30.4670  -17.7580   20.2130 C   0  0  0  0  0  3  0  0  0  0  0  0
  -30.8130  -17.4530   22.6190 C   0  0  0  0  0  0  0  0  0  0  0  0
  -30.6750  -16.8940   21.3170 C   0  0  0  0  0  0  0  0  0  0  0  0
  -30.3680  -19.6940   21.6960 C   0  0  0  0  0  0  0  0  0  0  0  0
  -30.3170  -19.1440   20.4020 C   0  0  0  0  0  0  0  0  0  0  0  0
  -30.0580  -19.9410   19.3340 F   0  0  0  0  0  0  0  0  0  0  0  0
  -31.0090  -14.7040   20.1480 C   0  0  0  0  0  0  0  0  0  0  0  0
  -30.5940  -12.5960   18.9320 C   0  0  0  0  0  2  0  0  0  0  0  0
  -29.6070  -12.8220   17.7700 C   0  0  0  0  0  2  0  0  0  0  0  0
  -28.1520  -12.6750   18.2480 C   0  0  0  0  0  2  0  0  0  0  0  0
  -27.8650  -13.5210   19.5130 C   0  0  0  0  0  3  0  0  0  0  0  0
  -28.9570  -13.3010   20.5890 C   0  0  0  0  0  2  0  0  0  0  0  0
  -30.2860  -13.5600   19.9960 N   0  0  0  0  0  0  0  0  0  0  0  0
  -31.9920  -14.9820   19.4540 O   0  0  0  0  0  0  0  0  0  0  0  0
  -30.6230  -15.4720   21.1770 N   0  0  0  0  0  0  0  0  0  0  0  0
  -29.9940  -15.0140   21.8140 H   0  0  0  0  0  0  0  0  0  0  0  0
  -25.4920  -14.1530   20.3010 C   0  0  0  0  0  0  0  0  0  0  0  0
  -24.4230  -13.3960   20.6890 C   0  0  0  0  0  0  0  0  0  0  0  0
  -24.8560  -12.0360   20.6190 C   0  0  0  0  0  0  0  0  0  0  0  0
  -26.5200  -13.2630   20.0300 N   0  0  0  0  0  0  0  0  0  0  0  0
  -26.1370  -11.9810   20.2720 N   0  0  0  0  0  0  0  0  0  0  0  0
  -24.1120  -10.7830   20.8110 C   0  0  0  0  0  0  0  0  0  0  0  0
  -24.5240   -9.8190   21.7560 C   0  0  0  0  0  3  0  0  0  0  0  0
  -23.7870   -8.6300   21.9340 C   0  0  0  0  0  3  0  0  0  0  0  0
  -22.6220   -8.3940   21.1670 C   0  0  0  0  0  0  0  0  0  0  0  0
  -22.2280   -9.3480   20.2140 C   0  0  0  0  0  3  0  0  0  0  0  0
  -22.9640  -10.5290   20.0330 C   0  0  0  0  0  3  0  0  0  0  0  0
  -21.8580   -7.2550   21.2580 O   0  0  0  0  0  0  0  0  0  0  0  0
  -21.7340   -6.5620   22.4360 C   0  0  0  0  0  0  0  0  0  0  0  0
  -21.2600   -7.1730   23.6170 C   0  0  0  0  0  3  0  0  0  0  0  0
  -21.0820   -6.4050   24.7850 C   0  0  0  0  0  3  0  0  0  0  0  0
  -21.3640   -5.0250   24.7720 C   0  0  0  0  0  0  0  0  0  0  0  0
  -21.8300   -4.4140   23.5940 C   0  0  0  0  0  3  0  0  0  0  0  0
  -22.0100   -5.1790   22.4290 C   0  0  0  0  0  0  0  0  0  0  0  0
  -22.4390   -4.5810   21.2930 F   0  0  0  0  0  0  0  0  0  0  0  0
  -21.1840   -4.2850   25.8910 F   0  0  0  0  0  0  0  0  0  0  0  0
  -23.0450  -13.8900   21.0220 C   0  0  0  0  0  0  0  0  0  0  0  0
  -22.3490  -13.2110   21.9270 N   0  0  0  0  0  0  0  0  0  0  0  0
  -22.5950  -14.9190   20.5150 O   0  0  0  0  0  0  0  0  0  0  0  0
  -22.7140  -12.3700   22.3500 H   0  0  0  0  0  0  0  0  0  0  0  0
  -21.4270  -13.5280   22.1960 H   0  0  0  0  0  0  0  0  0  0  0  0
  -25.6770  -15.5270   20.1420 N   0  0  0  0  0  0  0  0  0  0  0  0
  -24.9290  -16.1980   20.2780 H   0  0  0  0  0  0  0  0  0  0  0  0
  -26.5320  -15.9530   19.8100 H   0  0  0  0  0  0  0  0  0  0  0  0
  -31.7200  -17.0470   24.9270 C   0  0  0  0  0  2  0  0  0  0  0  0
  -31.1460  -16.6120   23.7910 C   0  0  0  0  0  3  0  0  0  0  0  0
  -28.8380  -21.3950   22.3230 C   0  0  0  0  0  2  0  0  0  0  0  0
  -27.8170  -21.3370   21.1580 C   0  0  0  0  0  2  0  0  0  0  0  0
  -28.8670  -23.4260   20.1400 C   0  0  0  0  0  3  0  0  0  0  0  0
  -27.8860  -22.5080   20.1800 C   0  0  0  0  0  3  0  0  0  0  0  0
  -28.8650  -24.7040   19.3300 C   0  0  0  0  0  2  0  0  0  0  0  0
  -28.6950  -25.8480   20.3460 C   0  0  0  0  0  2  0  0  0  0  0  0
  -28.6720  -27.1610   19.7950 O   0  0  0  0  0  0  0  0  0  0  0  0
  -24.6030  -31.8920   23.2300 C   0  0  0  0  0  0  0  0  0  0  0  0
  -27.4580  -27.7960   19.8800 C   0  0  0  0  0  0  0  0  0  0  0  0
  -23.4610  -30.5190   21.5150 C   0  0  0  0  0  3  0  0  0  0  0  0
  -24.9830  -29.1360   20.0130 C   0  0  0  0  0  0  0  0  0  0  0  0
  -25.9640  -31.0280   21.3280 C   0  0  0  0  0  2  0  0  0  0  0  0
  -26.1170  -29.7070   20.6060 C   0  0  0  0  0  0  0  0  0  0  0  0
  -27.3610  -29.0470   20.5260 C   0  0  0  0  0  3  0  0  0  0  0  0
  -26.2980  -27.2130   19.3260 C   0  0  0  0  0  3  0  0  0  0  0  0
  -25.0640  -27.8820   19.3870 C   0  0  0  0  0  3  0  0  0  0  0  0
  -23.6930  -29.9140   20.1050 C   0  0  0  0  0  2  0  0  0  0  0  0
  -24.6940  -31.1600   22.0820 N   0  0  0  0  0  0  0  0  0  0  0  0
  -23.5110  -32.0740   23.7870 O   0  0  0  0  0  0  0  0  0  0  0  0
  -22.8740  -29.4150   22.4230 C   0  0  0  0  0  0  0  0  0  0  0  0
  -21.5650  -29.1520   22.2720 N   0  0  0  0  0  0  0  0  0  0  0  0
  -23.5920  -28.8000   23.2160 O   0  0  0  0  0  0  0  0  0  0  0  0
  -21.0500  -29.6950   21.5940 H   0  0  0  0  0  0  0  0  0  0  0  0
  -18.2800  -27.7020   22.6570 C   0  0  0  0  0  0  0  0  0  0  0  0
  -20.8080  -28.1260   22.9880 C   0  0  0  0  0  3  0  0  0  0  0  0
  -21.0240  -26.7340   22.3540 C   0  0  0  0  0  2  0  0  0  0  0  0
  -19.9640  -26.3770   21.3080 C   0  0  0  0  0  2  0  0  0  0  0  0
  -18.5640  -26.4000   21.9280 C   0  0  0  0  0  2  0  0  0  0  0  0
  -19.3350  -28.5220   23.1380 C   0  0  0  0  0  0  0  0  0  0  0  0
  -19.0180  -29.7440   23.7720 C   0  0  0  0  0  3  0  0  0  0  0  0
  -17.6800  -30.1470   23.9280 C   0  0  0  0  0  3  0  0  0  0  0  0
  -16.6390  -29.3250   23.4630 C   0  0  0  0  0  3  0  0  0  0  0  0
  -16.9400  -28.1020   22.8370 C   0  0  0  0  0  3  0  0  0  0  0  0
  -25.8600  -32.5510   23.8830 C   0  0  0  0  0  3  0  0  0  0  0  0
  -25.4950  -33.9220   24.2680 N   0  0  0  0  0  0  0  0  0  0  0  0
  -25.7800  -35.0150   23.5460 C   0  0  0  0  0  0  0  0  0  0  0  0
  -26.4500  -34.9790   22.5110 O   0  0  0  0  0  0  0  0  0  0  0  0
  -24.9210  -34.0210   25.0920 H   0  0  0  0  0  0  0  0  0  0  0  0
  -23.9620  -36.7240   23.2630 C   0  0  0  0  0  1  0  0  0  0  0  0
  -25.2300  -36.3610   24.0540 C   0  0  0  0  0  3  0  0  0  0  0  0
  -27.3230  -37.3100   24.9060 C   0  0  0  0  0  1  0  0  0  0  0  0
  -26.2070  -37.4700   23.9770 N   0  0  0  0  0  0  0  0  0  0  0  0
  -25.7570  -38.3600   24.1700 H   0  0  0  0  0  0  0  0  0  0  0  0
  -26.4080  -31.7510   25.1260 C   0  0  1  0  0  0  0  0  0  0  0  0
  -25.3270  -31.4060   26.1740 C   0  0  0  0  0  1  0  0  0  0  0  0
  -27.0590  -30.4240   24.6700 C   0  0  0  0  0  1  0  0  0  0  0  0
  -27.5080  -32.5780   25.8350 C   0  0  0  0  0  1  0  0  0  0  0  0
  1 49  1  0
  3  7  2  0
  3  5  1  0
  4  2  1  0
  4 48  1  0
  5  4  2  0
  6  1  1  0
  6  2  2  0
  7  6  1  0
  8  7  1  0
  9 17  1  0
 10 15  1  0
 11 12  1  0
 11 10  1  0
 13 12  1  0
 13 22  1  0
 13 14  1  0
 15  9  1  0
 15 14  1  0
 16  9  2  0
 17  5  1  0
 17 18  1  0
 19 20  2  0
 20 39  1  0
 21 20  1  0
 21 24  1  0
 22 23  1  0
 22 19  1  0
 23 21  2  0
 24 25  1  0
 25 26  2  0
 27 30  1  0
 27 26  1  0
 28 27  2  0
 29 28  1  0
 29 24  2  0
 30 31  1  0
 31 32  1  0
 32 33  2  0
 34 33  1  0
 34 38  1  0
 35 34  2  0
 36 31  2  0
 36 35  1  0
 37 36  1  0
 39 40  1  0
 40 43  1  0
 40 42  1  0
 41 39  2  0
 44 45  1  0
 44 19  1  0
 46 44  1  0
 48 47  2  0
 50 49  1  0
 51 52  2  0
 52 50  1  0
 53 51  1  0
 53 54  1  0
 55 57  1  0
 55 54  1  0
 56 67  2  0
 57 62  1  0
 58 66  1  0
 58 68  1  0
 59 65  1  0
 59 61  1  0
 60 66  1  0
 61 60  1  0
 62 61  2  0
 63 64  1  0
 63 57  2  0
 64 59  2  0
 65 58  1  0
 66 56  1  0
 68 70  2  0
 69 68  1  0
 71 69  1  0
 72 81  2  0
 72 77  1  0
 73 69  1  0
 73 77  1  0
 74 73  1  0
 75 76  1  0
 75 74  1  0
 76 72  1  0
 77 78  2  0
 78 79  1  0
 80 79  2  0
 81 80  1  0
 82 56  1  0
 82 83  1  0
 82 92  1  0
 83 86  1  0
 84 88  1  0
 84 83  1  0
 85 84  2  0
 88 87  1  0
 90 88  1  0
 90 91  1  0
 90 89  1  0
 92 95  1  1
 92 93  1  0
 94 92  1  0
M  ISO  4   9 100  17 100  54 101  55 101
M  END
>  <TORSDO>  (10) 
F 23

>  <SCORE>  (10) 
-5.738

>  <name>  (10) 
9

>  <ligand_id>  (10) 
9

>  <original_smiles>  (10) 
[H]C([H])=C([H])c1c([H])c(OC([H])([H])C([H])([H])C([H])=C([H])C([H])([H])C([H])([H])Oc2c([H])c([H])c3c(c2[H])C([H])([H])N(C(=O)C([H])(N([H])C(=O)C([H])(N([H])C([H])([H])[H])C([H])([H])[H])C(C([H])([H])[H])(C([H])([H])[H])C([H])([H])[H])C([H])(C(=O)N([H])C2([H])c4c([H])c([H])c([H])c([H])c4C([H])([H])C([H])([H])C2([H])[H])C3([H])[H])c(F)c([H])c1N([H])C(=O)N1C([H])([H])C([H])([H])C([H])([H])C([H])(n2nc(-c3c([H])c([H])c(Oc4c([H])c([H])c(F)c([H])c4F)c([H])c3[H])c(C(=O)N([H])[H])c2N([H])[H])C1([H])[H]

>  <smiles>  (10) 
[H]C([H])=C([H])c1c([H])c(OC([H])([H])C([H])([H])C([H])=C([H])C([H])([H])C([H])([H])Oc2c([H])c([H])c3c(c2[H])C([H])([H])N(C(=O)C([H])(N([H])C(=O)C([H])(N([H])C([H])([H])[H])C([H])([H])[H])C(C([H])([H])[H])(C([H])([H])[H])C([H])([H])[H])C([H])(C(=O)N([H])C2([H])c4c([H])c([H])c([H])c([H])c4C([H])([H])C([H])([H])C2([H])[H])C3([H])[H])c(F)c([H])c1N([H])C(=O)N1C([H])([H])C([H])([H])C([H])([H])C([H])(n2nc(-c3c([H])c([H])c(Oc4c([H])c([H])c(F)c([H])c4F)c([H])c3[H])c(C(=O)N([H])[H])c2N([H])[H])C1([H])[H]

$$$$
10:0:0
     RDKit          3D

 94102  0  0  1  0  0  0  0  0999 V2000
  -31.5420  -19.2730   19.5190 C   0  0  0  0  0  3  0  0  0  0  0  0
  -32.1920  -18.0160   19.4480 C   0  0  0  0  0  3  0  0  0  0  0  0
  -30.1220  -18.4070   21.2670 C   0  0  0  0  0  3  0  0  0  0  0  0
  -30.5140  -19.4910   20.4590 C   0  0  0  0  0  0  0  0  0  0  0  0
  -31.8330  -16.9290   20.2900 C   0  0  0  0  0  0  0  0  0  0  0  0
  -30.7510  -17.1460   21.2010 C   0  0  0  0  0  0  0  0  0  0  0  0
  -32.6320  -15.6470   20.2810 C   0  0  0  0  0  0  0  0  0  0  0  0
  -33.3020  -15.2860   21.2970 N   0  0  0  0  0  0  0  0  0  0  0  0
  -33.1970  -15.9630   22.0430 H   0  0  0  0  0  0  0  0  0  0  0  0
  -32.6260  -14.7890   19.0120 C   0  0  0  0  0  0  0  0  0  0  0  0
  -31.8270  -12.7100   17.9290 C   0  0  0  0  0  2  0  0  0  0  0  0
  -30.6850  -12.9770   16.9300 C   0  0  0  0  0  2  0  0  0  0  0  0
  -29.3200  -12.9980   17.6430 C   0  0  0  0  0  2  0  0  0  0  0  0
  -29.3290  -13.9020   18.9030 C   0  0  0  0  0  3  0  0  0  0  0  0
  -30.5420  -13.5680   19.7960 C   0  0  0  0  0  2  0  0  0  0  0  0
  -31.7690  -13.7250   18.9940 N   0  0  0  0  0  0  0  0  0  0  0  0
  -33.4730  -14.9840   18.1310 O   0  0  0  0  0  0  0  0  0  0  0  0
  -27.3090  -14.8070   20.2200 C   0  0  0  0  0  0  0  0  0  0  0  0
  -26.1940  -14.1900   20.7210 C   0  0  0  0  0  0  0  0  0  0  0  0
  -26.3350  -12.8040   20.4050 C   0  0  0  0  0  0  0  0  0  0  0  0
  -28.0710  -13.8040   19.6400 N   0  0  0  0  0  0  0  0  0  0  0  0
  -27.4960  -12.5850   19.8010 N   0  0  0  0  0  0  0  0  0  0  0  0
  -25.4070  -11.6810   20.5900 C   0  0  0  0  0  0  0  0  0  0  0  0
  -25.7550  -10.5560   21.3690 C   0  0  0  0  0  3  0  0  0  0  0  0
  -24.8390   -9.4980   21.5470 C   0  0  0  0  0  3  0  0  0  0  0  0
  -23.5590   -9.5580   20.9470 C   0  0  0  0  0  0  0  0  0  0  0  0
  -23.2260  -10.6700   20.1540 C   0  0  0  0  0  3  0  0  0  0  0  0
  -24.1410  -11.7200   19.9730 C   0  0  0  0  0  3  0  0  0  0  0  0
  -22.6150   -8.5640   21.0430 O   0  0  0  0  0  0  0  0  0  0  0  0
  -22.4540   -7.8330   22.1920 C   0  0  0  0  0  0  0  0  0  0  0  0
  -22.1410   -8.4440   23.4250 C   0  0  0  0  0  3  0  0  0  0  0  0
  -21.9140   -7.6490   24.5680 C   0  0  0  0  0  3  0  0  0  0  0  0
  -21.9920   -6.2470   24.4760 C   0  0  0  0  0  0  0  0  0  0  0  0
  -22.2990   -5.6370   23.2470 C   0  0  0  0  0  3  0  0  0  0  0  0
  -22.5250   -6.4280   22.1080 C   0  0  0  0  0  0  0  0  0  0  0  0
  -22.7990   -5.8350   20.9210 F   0  0  0  0  0  0  0  0  0  0  0  0
  -21.7680   -5.4820   25.5700 F   0  0  0  0  0  0  0  0  0  0  0  0
  -25.0180  -14.8580   21.3760 C   0  0  0  0  0  0  0  0  0  0  0  0
  -24.3620  -14.1690   22.3030 N   0  0  0  0  0  0  0  0  0  0  0  0
  -24.7040  -16.0150   21.1010 O   0  0  0  0  0  0  0  0  0  0  0  0
  -24.6310  -13.2250   22.5410 H   0  0  0  0  0  0  0  0  0  0  0  0
  -23.5800  -14.5900   22.7830 H   0  0  0  0  0  0  0  0  0  0  0  0
  -27.7310  -16.1330   20.1940 N   0  0  0  0  0  0  0  0  0  0  0  0
  -27.1680  -16.8900   20.5660 H   0  0  0  0  0  0  0  0  0  0  0  0
  -28.5850  -16.4550   19.7560 H   0  0  0  0  0  0  0  0  0  0  0  0
  -29.8210  -20.7820   20.6770 C   0  0  0  0  0  3  0  0  0  0  0  0
  -30.0380  -21.9980   20.1210 C   0  0  0  0  0  3  0  0  0  0  0  0
  -29.2200  -23.1620   20.5540 C   0  0  0  0  0  0  0  0  0  0  0  0
  -28.3360  -23.0230   21.4080 O   0  0  0  0  0  0  0  0  0  0  0  0
  -29.4730  -24.4960   19.9550 C   0  0  0  0  0  3  0  0  0  0  0  0
  -28.7370  -25.5590   20.3500 C   0  0  0  0  0  3  0  0  0  0  0  0
  -28.8520  -26.8360   19.8530 O   0  0  0  0  0  0  0  0  0  0  0  0
  -24.7720  -31.6100   23.2150 C   0  0  0  0  0  0  0  0  0  0  0  0
  -27.6760  -27.5490   19.8680 C   0  0  0  0  0  0  0  0  0  0  0  0
  -23.6540  -30.2620   21.4670 C   0  0  0  0  0  3  0  0  0  0  0  0
  -25.2020  -28.9070   19.9570 C   0  0  0  0  0  0  0  0  0  0  0  0
  -26.1580  -30.7730   21.3200 C   0  0  0  0  0  2  0  0  0  0  0  0
  -26.3250  -29.4570   20.5890 C   0  0  0  0  0  0  0  0  0  0  0  0
  -27.5690  -28.7850   20.5420 C   0  0  0  0  0  3  0  0  0  0  0  0
  -26.5390  -27.0100   19.2320 C   0  0  0  0  0  3  0  0  0  0  0  0
  -25.3020  -27.6810   19.2760 C   0  0  0  0  0  3  0  0  0  0  0  0
  -23.9110  -29.6880   20.0480 C   0  0  0  0  0  2  0  0  0  0  0  0
  -24.8790  -30.8930   22.0610 N   0  0  0  0  0  0  0  0  0  0  0  0
  -23.6740  -31.7850   23.7610 O   0  0  0  0  0  0  0  0  0  0  0  0
  -23.0530  -29.1440   22.3500 C   0  0  0  0  0  0  0  0  0  0  0  0
  -21.7480  -28.8810   22.1730 N   0  0  0  0  0  0  0  0  0  0  0  0
  -23.7590  -28.5190   23.1470 O   0  0  0  0  0  0  0  0  0  0  0  0
  -21.2390  -29.4440   21.5070 H   0  0  0  0  0  0  0  0  0  0  0  0
  -18.4580  -27.4180   22.4810 C   0  0  0  0  0  0  0  0  0  0  0  0
  -20.9780  -27.8460   22.8630 C   0  0  0  0  0  3  0  0  0  0  0  0
  -21.2070  -26.4580   22.2210 C   0  0  0  0  0  2  0  0  0  0  0  0
  -20.1690  -26.1110   21.1500 C   0  0  0  0  0  2  0  0  0  0  0  0
  -18.7580  -26.1230   21.7450 C   0  0  0  0  0  2  0  0  0  0  0  0
  -19.5010  -28.2350   22.9920 C   0  0  0  0  0  0  0  0  0  0  0  0
  -19.1690  -29.4480   23.6350 C   0  0  0  0  0  3  0  0  0  0  0  0
  -17.8260  -29.8440   23.7730 C   0  0  0  0  0  3  0  0  0  0  0  0
  -16.7960  -29.0240   23.2800 C   0  0  0  0  0  3  0  0  0  0  0  0
  -17.1120  -27.8110   22.6400 C   0  0  0  0  0  3  0  0  0  0  0  0
  -26.0180  -32.2630   23.8910 C   0  0  0  0  0  3  0  0  0  0  0  0
  -25.6690  -33.6530   24.2140 N   0  0  0  0  0  0  0  0  0  0  0  0
  -26.0200  -34.7160   23.4780 C   0  0  0  0  0  0  0  0  0  0  0  0
  -26.7440  -34.6310   22.4820 O   0  0  0  0  0  0  0  0  0  0  0  0
  -25.0330  -33.7920   24.9860 H   0  0  0  0  0  0  0  0  0  0  0  0
  -24.2730  -36.4720   23.0490 C   0  0  0  0  0  1  0  0  0  0  0  0
  -25.4830  -36.0910   23.9170 C   0  0  0  0  0  3  0  0  0  0  0  0
  -27.5560  -37.0180   24.8510 C   0  0  0  0  0  1  0  0  0  0  0  0
  -26.4970  -37.1660   23.8560 N   0  0  0  0  0  0  0  0  0  0  0  0
  -26.0640  -38.0780   23.9880 H   0  0  0  0  0  0  0  0  0  0  0  0
  -26.5000  -31.4950   25.1830 C   0  0  1  0  0  0  0  0  0  0  0  0
  -25.3680  -31.2130   26.1970 C   0  0  0  0  0  1  0  0  0  0  0  0
  -27.1420  -30.1410   24.8010 C   0  0  0  0  0  1  0  0  0  0  0  0
  -27.5950  -32.3160   25.9030 C   0  0  0  0  0  1  0  0  0  0  0  0
  -30.5770  -16.3620   23.6180 C   0  0  0  0  0  1  0  0  0  0  0  0
  -30.2040  -16.0840   22.1540 C   0  0  0  0  0  2  0  0  0  0  0  0
  1  4  1  0
  2  1  2  0
  2  5  1  0
  4 46  1  0
  4  3  2  0
  5  6  2  0
  6  3  1  0
  6 94  1  0
  7  5  1  0
  7  8  2  0
  8  9  1  0
 10  7  1  0
 11 16  1  0
 12 13  1  0
 12 11  1  0
 14 13  1  0
 14 21  1  0
 14 15  1  0
 16 10  1  0
 16 15  1  0
 17 10  2  0
 18 19  2  0
 19 38  1  0
 20 23  1  0
 20 19  1  0
 21 22  1  0
 21 18  1  0
 22 20  2  0
 23 24  1  0
 24 25  2  0
 26 29  1  0
 26 25  1  0
 27 26  2  0
 28 27  1  0
 28 23  2  0
 29 30  1  0
 30 31  1  0
 31 32  2  0
 33 32  1  0
 33 37  1  0
 34 33  2  0
 35 30  2  0
 35 34  1  0
 36 35  1  0
 38 39  1  0
 39 41  1  0
 39 42  1  0
 40 38  2  0
 43 18  1  0
 43 44  1  0
 45 43  1  0
 47 48  1  0
 47 46  2  0
 48 49  2  0
 50 51  2  0
 50 48  1  0
 52 54  1  0
 52 51  1  0
 53 64  2  0
 54 59  1  0
 55 63  1  0
 55 65  1  0
 56 62  1  0
 56 58  1  0
 57 63  1  0
 58 57  1  0
 59 58  2  0
 60 61  1  0
 60 54  2  0
 61 56  2  0
 62 55  1  0
 63 53  1  0
 65 67  2  0
 66 65  1  0
 68 66  1  0
 69 78  2  0
 69 74  1  0
 70 66  1  0
 70 74  1  0
 71 70  1  0
 72 73  1  0
 72 71  1  0
 73 69  1  0
 74 75  2  0
 75 76  1  0
 77 76  2  0
 78 77  1  0
 79 53  1  0
 79 80  1  0
 79 89  1  0
 80 83  1  0
 81 85  1  0
 81 80  1  0
 82 81  2  0
 85 84  1  0
 87 85  1  0
 87 88  1  0
 87 86  1  0
 89 92  1  1
 89 90  1  0
 91 89  1  0
 94 93  1  0
M  ISO  4   7 100  10 100  51 101  52 101
M  END
>  <TORSDO>  (11) 
F 21

>  <SCORE>  (11) 
-4.758

>  <name>  (11) 
10

>  <ligand_id>  (11) 
10

>  <original_smiles>  (11) 
[H]N=C(C(=O)N1C([H])([H])C([H])([H])C([H])([H])C([H])(n2nc(-c3c([H])c([H])c(Oc4c([H])c([H])c(F)c([H])c4F)c([H])c3[H])c(C(=O)N([H])[H])c2N([H])[H])C1([H])[H])c1c([H])c([H])c(C([H])=C([H])C(=O)C([H])=C([H])Oc2c([H])c([H])c3c(c2[H])C([H])([H])N(C(=O)C([H])(N([H])C(=O)C([H])(N([H])C([H])([H])[H])C([H])([H])[H])C(C([H])([H])[H])(C([H])([H])[H])C([H])([H])[H])C([H])(C(=O)N([H])C2([H])c4c([H])c([H])c([H])c([H])c4C([H])([H])C([H])([H])C2([H])[H])C3([H])[H])c([H])c1C([H])([H])C([H])([H])[H]

>  <smiles>  (11) 
[H]N=C(C(=O)N1C([H])([H])C([H])([H])C([H])([H])C([H])(n2nc(-c3c([H])c([H])c(Oc4c([H])c([H])c(F)c([H])c4F)c([H])c3[H])c(C(=O)N([H])[H])c2N([H])[H])C1([H])[H])c1c([H])c([H])c(C([H])=C([H])C(=O)C([H])=C([H])Oc2c([H])c([H])c3c(c2[H])C([H])([H])N(C(=O)C([H])(N([H])C(=O)C([H])(N([H])C([H])([H])[H])C([H])([H])[H])C(C([H])([H])[H])(C([H])([H])[H])C([H])([H])[H])C([H])(C(=O)N([H])C2([H])c4c([H])c([H])c([H])c([H])c4C([H])([H])C([H])([H])C2([H])[H])C3([H])[H])c([H])c1C([H])([H])C([H])([H])[H]

$$$$
11:0:0
     RDKit          3D

 89 97  0  0  1  0  0  0  0  0999 V2000
  -30.8050  -19.6060   20.5260 C   0  0  0  0  0  3  0  0  0  0  0  0
  -30.3150  -20.9310   20.3660 C   0  0  0  0  0  3  0  0  0  0  0  0
  -28.7900  -18.7140   19.5510 C   0  0  0  0  0  3  0  0  0  0  0  0
  -30.0660  -18.4680   20.1040 C   0  0  0  0  0  0  0  0  0  0  0  0
  -29.0570  -21.1760   19.7690 C   0  0  0  0  0  0  0  0  0  0  0  0
  -28.2970  -20.0340   19.3710 C   0  0  0  0  0  0  0  0  0  0  0  0
  -26.9360  -20.1990   18.7120 C   0  0  0  0  0  1  0  0  0  0  0  0
  -30.6640  -17.0910   20.2080 C   0  0  0  0  0  3  0  0  0  0  0  0
  -30.0630  -15.8650   20.2710 C   0  0  0  0  0  3  0  0  0  0  0  0
  -30.8660  -14.6180   20.2060 C   0  0  0  0  0  0  0  0  0  0  0  0
  -30.6180  -12.2850   19.4350 C   0  0  0  0  0  2  0  0  0  0  0  0
  -29.7080  -12.2810   18.1870 C   0  0  0  0  0  2  0  0  0  0  0  0
  -28.2280  -12.1690   18.5990 C   0  0  0  0  0  2  0  0  0  0  0  0
  -27.8400  -13.1740   19.7160 C   0  0  0  0  0  3  0  0  0  0  0  0
  -28.8760  -13.1790   20.8610 C   0  0  0  0  0  2  0  0  0  0  0  0
  -30.2030  -13.4220   20.2780 N   0  0  0  0  0  0  0  0  0  0  0  0
  -32.0540  -14.6490   19.8760 O   0  0  0  0  0  0  0  0  0  0  0  0
  -25.4770  -13.8500   20.4640 C   0  0  0  0  0  0  0  0  0  0  0  0
  -24.3850  -13.1130   20.8320 C   0  0  0  0  0  0  0  0  0  0  0  0
  -24.7970  -11.7460   20.7800 C   0  0  0  0  0  0  0  0  0  0  0  0
  -26.4860  -12.9360   20.2100 N   0  0  0  0  0  0  0  0  0  0  0  0
  -26.0830  -11.6640   20.4610 N   0  0  0  0  0  0  0  0  0  0  0  0
  -24.0260  -10.5080   20.9580 C   0  0  0  0  0  0  0  0  0  0  0  0
  -24.4290   -9.5120   21.8750 C   0  0  0  0  0  3  0  0  0  0  0  0
  -23.6610   -8.3410   22.0420 C   0  0  0  0  0  3  0  0  0  0  0  0
  -22.4750   -8.1560   21.2940 C   0  0  0  0  0  0  0  0  0  0  0  0
  -22.0890   -9.1400   20.3650 C   0  0  0  0  0  3  0  0  0  0  0  0
  -22.8580  -10.3050   20.1960 C   0  0  0  0  0  3  0  0  0  0  0  0
  -21.6780   -7.0390   21.3710 O   0  0  0  0  0  0  0  0  0  0  0  0
  -21.6100   -6.2830   22.5130 C   0  0  0  0  0  0  0  0  0  0  0  0
  -21.1660   -6.8240   23.7400 C   0  0  0  0  0  3  0  0  0  0  0  0
  -21.0430   -5.9940   24.8720 C   0  0  0  0  0  3  0  0  0  0  0  0
  -21.3540   -4.6240   24.7780 C   0  0  0  0  0  0  0  0  0  0  0  0
  -21.7910   -4.0830   23.5570 C   0  0  0  0  0  3  0  0  0  0  0  0
  -21.9160   -4.9100   22.4270 C   0  0  0  0  0  0  0  0  0  0  0  0
  -22.3170   -4.3780   21.2470 F   0  0  0  0  0  0  0  0  0  0  0  0
  -21.2300   -3.8240   25.8640 F   0  0  0  0  0  0  0  0  0  0  0  0
  -23.0080  -13.6370   21.1190 C   0  0  0  0  0  0  0  0  0  0  0  0
  -22.2640  -12.9620   21.9870 N   0  0  0  0  0  0  0  0  0  0  0  0
  -22.6010  -14.6810   20.6100 O   0  0  0  0  0  0  0  0  0  0  0  0
  -22.6050  -12.1170   22.4220 H   0  0  0  0  0  0  0  0  0  0  0  0
  -21.3380  -13.2930   22.2220 H   0  0  0  0  0  0  0  0  0  0  0  0
  -25.6900  -15.2160   20.3020 N   0  0  0  0  0  0  0  0  0  0  0  0
  -24.9490  -15.8970   20.4220 H   0  0  0  0  0  0  0  0  0  0  0  0
  -26.5520  -15.6240   19.9630 H   0  0  0  0  0  0  0  0  0  0  0  0
  -28.4940  -22.6020   19.4960 C   0  0  0  0  0  2  0  0  0  0  0  0
  -29.2210  -23.9370   19.9140 C   0  0  0  0  0  2  0  0  0  0  0  0
  -28.3470  -25.1640   19.4570 C   0  0  0  0  0  2  0  0  0  0  0  0
  -28.5810  -26.5560   19.8660 O   0  0  0  0  0  0  0  0  0  0  0  0
  -24.6400  -31.6270   23.1100 C   0  0  0  0  0  0  0  0  0  0  0  0
  -27.4460  -27.3800   19.8240 C   0  0  0  0  0  0  0  0  0  0  0  0
  -23.5100  -30.3010   21.3640 C   0  0  0  0  0  3  0  0  0  0  0  0
  -25.0330  -28.9010   19.8730 C   0  0  0  0  0  0  0  0  0  0  0  0
  -26.0410  -30.7110   21.2540 C   0  0  0  0  0  2  0  0  0  0  0  0
  -26.1750  -29.3840   20.5250 C   0  0  0  0  0  0  0  0  0  0  0  0
  -27.3850  -28.6340   20.4970 C   0  0  0  0  0  3  0  0  0  0  0  0
  -26.2800  -26.9610   19.1350 C   0  0  0  0  0  3  0  0  0  0  0  0
  -25.0850  -27.6920   19.1730 C   0  0  0  0  0  3  0  0  0  0  0  0
  -23.7690  -29.7280   19.9480 C   0  0  0  0  0  2  0  0  0  0  0  0
  -24.7480  -30.8920   21.9680 N   0  0  0  0  0  0  0  0  0  0  0  0
  -23.5400  -31.8380   23.6390 O   0  0  0  0  0  0  0  0  0  0  0  0
  -22.8680  -29.2010   22.2420 C   0  0  0  0  0  0  0  0  0  0  0  0
  -21.5430  -29.0190   22.1060 N   0  0  0  0  0  0  0  0  0  0  0  0
  -23.5570  -28.5200   23.0060 O   0  0  0  0  0  0  0  0  0  0  0  0
  -21.0460  -29.6230   21.4660 H   0  0  0  0  0  0  0  0  0  0  0  0
  -18.1690  -27.8140   22.5890 C   0  0  0  0  0  0  0  0  0  0  0  0
  -20.7360  -28.0180   22.8050 C   0  0  0  0  0  3  0  0  0  0  0  0
  -20.8030  -26.6500   22.0890 C   0  0  0  0  0  2  0  0  0  0  0  0
  -19.6660  -26.4400   21.0830 C   0  0  0  0  0  2  0  0  0  0  0  0
  -18.3070  -26.5350   21.7810 C   0  0  0  0  0  2  0  0  0  0  0  0
  -19.3090  -28.5180   23.0560 C   0  0  0  0  0  0  0  0  0  0  0  0
  -19.1250  -29.7210   23.7740 C   0  0  0  0  0  3  0  0  0  0  0  0
  -17.8320  -30.2170   24.0280 C   0  0  0  0  0  3  0  0  0  0  0  0
  -16.7070  -29.5080   23.5750 C   0  0  0  0  0  3  0  0  0  0  0  0
  -16.8760  -28.3080   22.8620 C   0  0  0  0  0  3  0  0  0  0  0  0
  -25.8920  -32.2570   23.7950 C   0  0  0  0  0  3  0  0  0  0  0  0
  -26.3600  -31.4670   25.0800 C   0  0  1  0  0  0  0  0  0  0  0  0
  -25.2260  -31.2090   26.0990 C   0  0  0  0  0  1  0  0  0  0  0  0
  -26.9640  -30.0970   24.6910 C   0  0  0  0  0  1  0  0  0  0  0  0
  -27.4800  -32.2560   25.7990 C   0  0  0  0  0  1  0  0  0  0  0  0
  -25.5600  -33.6470   24.1330 N   0  0  0  0  0  0  0  0  0  0  0  0
  -25.8910  -34.7110   23.3900 C   0  0  0  0  0  0  0  0  0  0  0  0
  -26.5800  -34.6270   22.3700 O   0  0  0  0  0  0  0  0  0  0  0  0
  -24.9490  -33.7860   24.9250 H   0  0  0  0  0  0  0  0  0  0  0  0
  -24.1370  -36.4780   23.0310 C   0  0  0  0  0  1  0  0  0  0  0  0
  -25.3760  -36.0880   23.8520 C   0  0  0  0  0  3  0  0  0  0  0  0
  -27.4810  -37.0080   24.7190 C   0  0  0  0  0  1  0  0  0  0  0  0
  -26.3930  -37.1580   23.7560 N   0  0  0  0  0  0  0  0  0  0  0  0
  -25.9690  -38.0710   23.8950 H   0  0  0  0  0  0  0  0  0  0  0  0
  2  1  1  0
  3  4  1  0
  4  8  1  0
  4  1  2  0
  5  2  2  0
  6  3  2  0
  6  5  1  0
  7  6  1  0
  8  9  2  0
 10  9  1  0
 10 16  1  0
 11 16  1  0
 12 13  1  0
 12 11  1  0
 14 13  1  0
 14 21  1  0
 14 15  1  0
 16 15  1  0
 17 10  2  0
 18 19  2  0
 19 38  1  0
 20 19  1  0
 20 23  1  0
 21 22  1  0
 21 18  1  0
 22 20  2  0
 23 24  1  0
 24 25  2  0
 26 29  1  0
 26 25  1  0
 27 26  2  0
 28 27  1  0
 28 23  2  0
 29 30  1  0
 30 31  1  0
 31 32  2  0
 33 32  1  0
 33 37  1  0
 34 33  2  0
 35 30  2  0
 35 34  1  0
 36 35  1  0
 38 39  1  0
 39 42  1  0
 39 41  1  0
 40 38  2  0
 43 44  1  0
 43 18  1  0
 45 43  1  0
 46  5  1  0
 46 47  1  0
 48 49  1  0
 48 47  1  0
 50 61  2  0
 51 49  1  0
 51 56  1  0
 52 60  1  0
 52 62  1  0
 53 59  1  0
 53 55  1  0
 54 60  1  0
 55 54  1  0
 56 55  2  0
 57 58  1  0
 57 51  2  0
 58 53  2  0
 59 52  1  0
 60 50  1  0
 62 64  2  0
 63 62  1  0
 65 63  1  0
 66 75  2  0
 66 71  1  0
 67 63  1  0
 67 71  1  0
 68 67  1  0
 69 70  1  0
 69 68  1  0
 70 66  1  0
 71 72  2  0
 72 73  1  0
 74 73  2  0
 75 74  1  0
 76 50  1  0
 76 81  1  0
 76 77  1  0
 77 80  1  1
 77 78  1  0
 79 77  1  0
 81 84  1  0
 82 86  1  0
 82 81  1  0
 83 82  2  0
 86 85  1  0
 88 86  1  0
 88 89  1  0
 88 87  1  0
M  ISO  4   9 100  10 100  48 101  49 101
M  END
>  <TORSDO>  (12) 
F 20

>  <SCORE>  (12) 
-13.310

>  <name>  (12) 
11

>  <ligand_id>  (12) 
11

>  <original_smiles>  (12) 
[H]C(C(=O)N1C([H])([H])C([H])([H])C([H])([H])C([H])(n2nc(-c3c([H])c([H])c(Oc4c([H])c([H])c(F)c([H])c4F)c([H])c3[H])c(C(=O)N([H])[H])c2N([H])[H])C1([H])[H])=C([H])c1c([H])c([H])c(C([H])([H])C([H])([H])C([H])([H])Oc2c([H])c([H])c3c(c2[H])C([H])([H])N(C(=O)C([H])(N([H])C(=O)C([H])(N([H])C([H])([H])[H])C([H])([H])[H])C(C([H])([H])[H])(C([H])([H])[H])C([H])([H])[H])C([H])(C(=O)N([H])C2([H])c4c([H])c([H])c([H])c([H])c4C([H])([H])C([H])([H])C2([H])[H])C3([H])[H])c(C([H])([H])[H])c1[H]

>  <smiles>  (12) 
[H]C(C(=O)N1C([H])([H])C([H])([H])C([H])([H])C([H])(n2nc(-c3c([H])c([H])c(Oc4c([H])c([H])c(F)c([H])c4F)c([H])c3[H])c(C(=O)N([H])[H])c2N([H])[H])C1([H])[H])=C([H])c1c([H])c([H])c(C([H])([H])C([H])([H])C([H])([H])Oc2c([H])c([H])c3c(c2[H])C([H])([H])N(C(=O)C([H])(N([H])C(=O)C([H])(N([H])C([H])([H])[H])C([H])([H])[H])C(C([H])([H])[H])(C([H])([H])[H])C([H])([H])[H])C([H])(C(=O)N([H])C2([H])c4c([H])c([H])c([H])c([H])c4C([H])([H])C([H])([H])C2([H])[H])C3([H])[H])c(C([H])([H])[H])c1[H]

$$$$
12:0:0
     RDKit          3D

 95103  0  0  1  0  0  0  0  0999 V2000
  -30.6680  -17.9390   19.6720 C   0  0  0  0  0  3  0  0  0  0  0  0
  -29.1500  -18.9290   21.7850 C   0  0  0  0  0  3  0  0  0  0  0  0
  -30.7880  -17.2910   20.9620 C   0  0  0  0  0  0  0  0  0  0  0  0
  -30.2040  -18.0230   22.0560 C   0  0  0  0  0  0  0  0  0  0  0  0
  -28.9330  -19.4200   20.4940 C   0  0  0  0  0  0  0  0  0  0  0  0
  -29.8310  -19.0900   19.4610 C   0  0  0  0  0  0  0  0  0  0  0  0
  -27.7120  -20.2720   20.2340 C   0  0  0  0  0  1  0  0  0  0  0  0
  -31.5460  -15.9580   21.1910 C   0  0  0  0  0  0  0  0  0  0  0  0
  -32.0000  -15.6500   22.3320 N   0  0  0  0  0  0  0  0  0  0  0  0
  -31.8010  -16.3640   23.0170 H   0  0  0  0  0  0  0  0  0  0  0  0
  -31.8080  -14.9200   20.0550 C   0  0  0  0  0  0  0  0  0  0  0  0
  -31.2870  -12.7320   18.9770 C   0  0  0  0  0  2  0  0  0  0  0  0
  -30.2880  -12.9030   17.8140 C   0  0  0  0  0  2  0  0  0  0  0  0
  -28.8380  -12.8370   18.3240 C   0  0  0  0  0  2  0  0  0  0  0  0
  -28.6140  -13.7590   19.5510 C   0  0  0  0  0  3  0  0  0  0  0  0
  -29.7220  -13.5460   20.6150 C   0  0  0  0  0  2  0  0  0  0  0  0
  -31.0230  -13.7920   19.9730 N   0  0  0  0  0  0  0  0  0  0  0  0
  -32.8340  -15.0400   19.3740 O   0  0  0  0  0  0  0  0  0  0  0  0
  -26.3370  -14.5660   20.4580 C   0  0  0  0  0  0  0  0  0  0  0  0
  -25.2160  -13.8810   20.8350 C   0  0  0  0  0  0  0  0  0  0  0  0
  -25.5200  -12.4940   20.6720 C   0  0  0  0  0  0  0  0  0  0  0  0
  -27.2650  -13.5970   20.1010 N   0  0  0  0  0  0  0  0  0  0  0  0
  -26.7790  -12.3410   20.2780 N   0  0  0  0  0  0  0  0  0  0  0  0
  -24.6740  -11.3050   20.8130 C   0  0  0  0  0  0  0  0  0  0  0  0
  -25.0090  -10.2490   21.6870 C   0  0  0  0  0  3  0  0  0  0  0  0
  -24.1560   -9.1300   21.8240 C   0  0  0  0  0  3  0  0  0  0  0  0
  -22.9540   -9.0630   21.0820 C   0  0  0  0  0  0  0  0  0  0  0  0
  -22.6360  -10.1040   20.1950 C   0  0  0  0  0  3  0  0  0  0  0  0
  -23.4870  -11.2160   20.0580 C   0  0  0  0  0  3  0  0  0  0  0  0
  -22.0770   -8.0070   21.1240 O   0  0  0  0  0  0  0  0  0  0  0  0
  -21.8670   -7.2950   22.2720 C   0  0  0  0  0  0  0  0  0  0  0  0
  -21.4240   -7.9120   23.4630 C   0  0  0  0  0  3  0  0  0  0  0  0
  -21.1600   -7.1310   24.6020 C   0  0  0  0  0  3  0  0  0  0  0  0
  -21.3230   -5.7340   24.5570 C   0  0  0  0  0  0  0  0  0  0  0  0
  -21.7460   -5.1150   23.3650 C   0  0  0  0  0  3  0  0  0  0  0  0
  -22.0150   -5.8930   22.2270 C   0  0  0  0  0  0  0  0  0  0  0  0
  -22.4070   -5.2890   21.0800 F   0  0  0  0  0  0  0  0  0  0  0  0
  -21.0570   -4.9820   25.6500 F   0  0  0  0  0  0  0  0  0  0  0  0
  -23.8990  -14.4870   21.2470 C   0  0  0  0  0  0  0  0  0  0  0  0
  -23.1740  -13.8200   22.1430 N   0  0  0  0  0  0  0  0  0  0  0  0
  -23.5350  -15.5770   20.8220 O   0  0  0  0  0  0  0  0  0  0  0  0
  -23.4810  -12.9330   22.5070 H   0  0  0  0  0  0  0  0  0  0  0  0
  -22.2910  -14.1940   22.4600 H   0  0  0  0  0  0  0  0  0  0  0  0
  -26.6550  -15.9160   20.3700 N   0  0  0  0  0  0  0  0  0  0  0  0
  -26.0150  -16.6550   20.6280 H   0  0  0  0  0  0  0  0  0  0  0  0
  -27.5550  -16.2740   20.0680 H   0  0  0  0  0  0  0  0  0  0  0  0
  -30.6780  -18.0320   23.5320 C   0  0  0  0  0  2  0  0  0  0  0  0
  -32.3000  -19.9600   23.0630 C   0  0  0  0  0  1  0  0  0  0  0  0
  -31.1820  -19.4300   23.9920 C   0  0  0  0  0  2  0  0  0  0  0  0
  -29.7430  -19.7890   18.2610 O   0  0  0  0  0  0  0  0  0  0  0  0
  -30.1350  -21.2070   18.1950 C   0  0  0  0  0  3  0  0  0  0  0  0
  -29.0650  -22.3560   18.4930 C   0  0  0  0  0  3  0  0  0  0  0  0
  -29.4140  -23.9010   18.3730 C   0  0  0  0  0  2  0  0  0  0  0  0
  -28.2640  -24.8320   18.9520 C   0  0  0  0  0  2  0  0  0  0  0  0
  -28.4300  -26.3040   18.8550 O   0  0  0  0  0  0  0  0  0  0  0  0
  -24.8490  -31.1810   22.8170 C   0  0  0  0  0  0  0  0  0  0  0  0
  -27.2900  -27.1120   19.0080 C   0  0  0  0  0  0  0  0  0  0  0  0
  -23.5530  -30.0190   21.0670 C   0  0  0  0  0  3  0  0  0  0  0  0
  -24.9200  -28.6690   19.3800 C   0  0  0  0  0  0  0  0  0  0  0  0
  -26.0840  -30.3540   20.7960 C   0  0  0  0  0  2  0  0  0  0  0  0
  -26.1210  -29.0760   19.9740 C   0  0  0  0  0  0  0  0  0  0  0  0
  -27.3030  -28.2990   19.7970 C   0  0  0  0  0  3  0  0  0  0  0  0
  -26.0670  -26.7750   18.3820 C   0  0  0  0  0  3  0  0  0  0  0  0
  -24.8930  -27.5230   18.5770 C   0  0  0  0  0  3  0  0  0  0  0  0
  -23.6950  -29.5280   19.6040 C   0  0  0  0  0  2  0  0  0  0  0  0
  -24.8510  -30.5270   21.6150 N   0  0  0  0  0  0  0  0  0  0  0  0
  -23.8010  -31.3720   23.4520 O   0  0  0  0  0  0  0  0  0  0  0  0
  -22.9370  -28.8780   21.9200 C   0  0  0  0  0  0  0  0  0  0  0  0
  -21.6100  -28.6830   21.8030 N   0  0  0  0  0  0  0  0  0  0  0  0
  -23.6550  -28.1650   22.6290 O   0  0  0  0  0  0  0  0  0  0  0  0
  -21.0870  -29.2850   21.1730 H   0  0  0  0  0  0  0  0  0  0  0  0
  -18.2750  -27.3660   22.3420 C   0  0  0  0  0  0  0  0  0  0  0  0
  -20.8400  -27.6590   22.5080 C   0  0  0  0  0  3  0  0  0  0  0  0
  -20.9510  -26.2920   21.7830 C   0  0  0  0  0  2  0  0  0  0  0  0
  -19.7930  -26.0200   20.8180 C   0  0  0  0  0  2  0  0  0  0  0  0
  -18.4400  -26.0900   21.5400 C   0  0  0  0  0  2  0  0  0  0  0  0
  -19.4000  -28.1040   22.7940 C   0  0  0  0  0  0  0  0  0  0  0  0
  -19.1790  -29.2920   23.5250 C   0  0  0  0  0  3  0  0  0  0  0  0
  -17.8730  -29.7370   23.8090 C   0  0  0  0  0  3  0  0  0  0  0  0
  -16.7640  -28.9960   23.3610 C   0  0  0  0  0  3  0  0  0  0  0  0
  -16.9720  -27.8120   22.6290 C   0  0  0  0  0  3  0  0  0  0  0  0
  -26.1680  -31.7360   23.4410 C   0  0  0  0  0  3  0  0  0  0  0  0
  -25.8710  -33.0650   23.9900 N   0  0  0  0  0  0  0  0  0  0  0  0
  -26.1740  -34.2200   23.3830 C   0  0  0  0  0  0  0  0  0  0  0  0
  -26.8060  -34.2790   22.3260 O   0  0  0  0  0  0  0  0  0  0  0  0
  -25.3020  -33.0960   24.8240 H   0  0  0  0  0  0  0  0  0  0  0  0
  -24.4530  -36.0580   23.3520 C   0  0  0  0  0  1  0  0  0  0  0  0
  -25.7060  -35.5230   24.0630 C   0  0  0  0  0  3  0  0  0  0  0  0
  -27.8610  -36.2690   24.9760 C   0  0  0  0  0  1  0  0  0  0  0  0
  -26.7410  -36.5790   24.0910 N   0  0  0  0  0  0  0  0  0  0  0  0
  -26.3400  -37.4650   24.3910 H   0  0  0  0  0  0  0  0  0  0  0  0
  -26.7620  -30.7960   24.5570 C   0  0  1  0  0  0  0  0  0  0  0  0
  -25.7420  -30.3960   25.6500 C   0  0  0  0  0  1  0  0  0  0  0  0
  -27.3240  -29.4970   23.9380 C   0  0  0  0  0  1  0  0  0  0  0  0
  -27.9460  -31.5050   25.2530 C   0  0  0  0  0  1  0  0  0  0  0  0
  1  3  1  0
  2  4  1  0
  3  8  1  0
  3  4  2  0
  4 47  1  0
  5  2  2  0
  6  1  2  0
  6  5  1  0
  7  5  1  0
  8  9  2  0
  9 10  1  0
 11  8  1  0
 12 17  1  0
 13 14  1  0
 13 12  1  0
 15 14  1  0
 15 22  1  0
 15 16  1  0
 17 11  1  0
 17 16  1  0
 18 11  2  0
 19 20  2  0
 20 39  1  0
 21 24  1  0
 21 20  1  0
 22 23  1  0
 22 19  1  0
 23 21  2  0
 24 25  1  0
 25 26  2  0
 27 30  1  0
 27 26  1  0
 28 27  2  0
 29 28  1  0
 29 24  2  0
 30 31  1  0
 31 32  1  0
 32 33  2  0
 34 33  1  0
 34 38  1  0
 35 34  2  0
 36 31  2  0
 36 35  1  0
 37 36  1  0
 39 40  1  0
 40 43  1  0
 40 42  1  0
 41 39  2  0
 44 19  1  0
 44 45  1  0
 46 44  1  0
 47 49  1  0
 48 49  1  0
 50  6  1  0
 51 50  1  0
 51 52  2  0
 53 52  1  0
 53 54  1  0
 55 54  1  0
 55 57  1  0
 56 67  2  0
 57 62  1  0
 58 66  1  0
 58 68  1  0
 59 65  1  0
 59 61  1  0
 60 66  1  0
 61 60  1  0
 62 61  2  0
 63 64  1  0
 63 57  2  0
 64 59  2  0
 65 58  1  0
 66 56  1  0
 68 70  2  0
 69 68  1  0
 71 69  1  0
 72 81  2  0
 72 77  1  0
 73 69  1  0
 73 77  1  0
 74 73  1  0
 75 76  1  0
 75 74  1  0
 76 72  1  0
 77 78  2  0
 78 79  1  0
 80 79  2  0
 81 80  1  0
 82 56  1  0
 82 83  1  0
 82 92  1  0
 83 86  1  0
 84 83  1  0
 84 88  1  0
 85 84  2  0
 88 87  1  0
 88 90  1  0
 90 91  1  0
 90 89  1  0
 92 95  1  1
 92 93  1  0
 94 92  1  0
M  ISO  4   8 100  11 100  54 101  55 101
M  END
>  <TORSDO>  (13) 
F 24

>  <SCORE>  (13) 
-6.805

>  <name>  (13) 
12

>  <ligand_id>  (13) 
12

>  <original_smiles>  (13) 
[H]N=C(C(=O)N1C([H])([H])C([H])([H])C([H])([H])C([H])(n2nc(-c3c([H])c([H])c(Oc4c([H])c([H])c(F)c([H])c4F)c([H])c3[H])c(C(=O)N([H])[H])c2N([H])[H])C1([H])[H])c1c([H])c(OC([H])([H])C([H])([H])C([H])([H])C([H])([H])Oc2c([H])c([H])c3c(c2[H])C([H])([H])N(C(=O)C([H])(N([H])C(=O)C([H])(N([H])C([H])([H])[H])C([H])([H])[H])C(C([H])([H])[H])(C([H])([H])[H])C([H])([H])[H])C([H])(C(=O)N([H])C2([H])c4c([H])c([H])c([H])c([H])c4C([H])([H])C([H])([H])C2([H])[H])C3([H])[H])c(C([H])([H])[H])c([H])c1C([H])([H])C([H])([H])C([H])([H])[H]

>  <smiles>  (13) 
[H]N=C(C(=O)N1C([H])([H])C([H])([H])C([H])([H])C([H])(n2nc(-c3c([H])c([H])c(Oc4c([H])c([H])c(F)c([H])c4F)c([H])c3[H])c(C(=O)N([H])[H])c2N([H])[H])C1([H])[H])c1c([H])c(OC([H])([H])C([H])([H])C([H])([H])C([H])([H])Oc2c([H])c([H])c3c(c2[H])C([H])([H])N(C(=O)C([H])(N([H])C(=O)C([H])(N([H])C([H])([H])[H])C([H])([H])[H])C(C([H])([H])[H])(C([H])([H])[H])C([H])([H])[H])C([H])(C(=O)N([H])C2([H])c4c([H])c([H])c([H])c([H])c4C([H])([H])C([H])([H])C2([H])[H])C3([H])[H])c(C([H])([H])[H])c([H])c1C([H])([H])C([H])([H])C([H])([H])[H]

$$$$
13:0:0
     RDKit          3D

 93101  0  0  1  0  0  0  0  0999 V2000
  -30.5990  -20.4350   20.7030 C   0  0  0  0  0  3  0  0  0  0  0  0
  -31.1900  -19.1410   20.4830 C   0  0  0  0  0  0  0  0  0  0  0  0
  -31.2460  -21.4580   20.0470 C   0  0  0  0  0  0  0  0  0  0  0  0
  -32.2660  -19.2130   19.6190 C   0  0  0  0  0  0  0  0  0  0  0  0
  -32.5650  -20.8420   19.0880 S   0  0  0  0  0  0  0  0  0  0  0  0
  -33.2070  -18.2270   19.1810 C   0  0  0  0  0  3  0  0  0  0  0  0
  -33.4380  -16.9890   19.6460 C   0  0  0  0  0  3  0  0  0  0  0  0
  -34.4780  -16.0520   19.0700 C   0  0  0  0  0  1  0  0  0  0  0  0
  -31.0330  -22.9130   19.9890 C   0  0  0  0  0  0  0  0  0  0  0  0
  -32.0000  -23.6650   19.8160 O   0  0  0  0  0  0  0  0  0  0  0  0
  -29.6680  -23.4610   20.1350 C   0  0  0  0  0  3  0  0  0  0  0  0
  -29.3640  -24.6780   19.6300 C   0  0  0  0  0  3  0  0  0  0  0  0
  -28.0040  -25.3420   19.6840 C   0  0  0  0  0  2  0  0  0  0  0  0
  -28.0830  -26.6910   20.1580 O   0  0  0  0  0  0  0  0  0  0  0  0
  -24.5190  -31.9900   23.3190 C   0  0  0  0  0  0  0  0  0  0  0  0
  -26.9160  -27.4310   20.1890 C   0  0  0  0  0  0  0  0  0  0  0  0
  -23.2100  -30.6010   21.7460 C   0  0  0  0  0  3  0  0  0  0  0  0
  -24.5620  -29.0050   20.2930 C   0  0  0  0  0  0  0  0  0  0  0  0
  -25.7370  -30.8830   21.4460 C   0  0  0  0  0  2  0  0  0  0  0  0
  -25.7580  -29.5000   20.8280 C   0  0  0  0  0  0  0  0  0  0  0  0
  -26.9340  -28.7160   20.7820 C   0  0  0  0  0  3  0  0  0  0  0  0
  -25.6950  -26.9560   19.6490 C   0  0  0  0  0  3  0  0  0  0  0  0
  -24.5250  -27.7300   19.7080 C   0  0  0  0  0  3  0  0  0  0  0  0
  -23.3470  -29.8970   20.3710 C   0  0  0  0  0  2  0  0  0  0  0  0
  -24.5100  -31.1740   22.2270 N   0  0  0  0  0  0  0  0  0  0  0  0
  -23.4670  -32.3020   23.8940 O   0  0  0  0  0  0  0  0  0  0  0  0
  -22.5710  -29.6110   22.7450 C   0  0  0  0  0  0  0  0  0  0  0  0
  -21.2580  -29.3710   22.5910 N   0  0  0  0  0  0  0  0  0  0  0  0
  -23.2530  -29.0580   23.6120 O   0  0  0  0  0  0  0  0  0  0  0  0
  -20.7680  -29.8710   21.8610 H   0  0  0  0  0  0  0  0  0  0  0  0
  -17.9480  -27.9760   22.9700 C   0  0  0  0  0  0  0  0  0  0  0  0
  -20.4540  -28.4470   23.3900 C   0  0  0  0  0  3  0  0  0  0  0  0
  -20.6950  -26.9810   22.9610 C   0  0  0  0  0  2  0  0  0  0  0  0
  -19.6960  -26.4870   21.9100 C   0  0  0  0  0  2  0  0  0  0  0  0
  -18.2630  -26.5880   22.4420 C   0  0  0  0  0  2  0  0  0  0  0  0
  -18.9770  -28.8550   23.4010 C   0  0  0  0  0  0  0  0  0  0  0  0
  -18.6310  -30.1480   23.8500 C   0  0  0  0  0  3  0  0  0  0  0  0
  -17.2860  -30.5650   23.8750 C   0  0  0  0  0  3  0  0  0  0  0  0
  -16.2710  -29.6860   23.4630 C   0  0  0  0  0  3  0  0  0  0  0  0
  -16.6010  -28.3950   23.0160 C   0  0  0  0  0  3  0  0  0  0  0  0
  -25.8460  -32.5900   23.8810 C   0  0  0  0  0  3  0  0  0  0  0  0
  -25.5850  -33.9940   24.2220 N   0  0  0  0  0  0  0  0  0  0  0  0
  -25.9000  -35.0370   23.4420 C   0  0  0  0  0  0  0  0  0  0  0  0
  -26.5150  -34.9160   22.3780 O   0  0  0  0  0  0  0  0  0  0  0  0
  -25.0290  -34.1640   25.0480 H   0  0  0  0  0  0  0  0  0  0  0  0
  -24.1860  -36.8580   23.1790 C   0  0  0  0  0  1  0  0  0  0  0  0
  -25.4650  -36.4350   23.9190 C   0  0  0  0  0  3  0  0  0  0  0  0
  -27.6610  -37.2840   24.6170 C   0  0  0  0  0  1  0  0  0  0  0  0
  -26.5090  -37.4690   23.7390 N   0  0  0  0  0  0  0  0  0  0  0  0
  -26.1290  -38.3970   23.9070 H   0  0  0  0  0  0  0  0  0  0  0  0
  -26.4030  -31.8050   25.1300 C   0  0  1  0  0  0  0  0  0  0  0  0
  -25.3460  -31.5600   26.2320 C   0  0  0  0  0  1  0  0  0  0  0  0
  -26.9650  -30.4290   24.7010 C   0  0  0  0  0  1  0  0  0  0  0  0
  -27.5830  -32.5850   25.7590 C   0  0  0  0  0  1  0  0  0  0  0  0
  -30.7690  -18.0020   21.0950 O   0  0  0  0  0  0  0  0  0  0  0  0
  -30.3560  -16.9320   20.2360 C   0  0  0  0  0  2  0  0  0  0  0  0
  -30.2870  -15.5840   21.0070 C   0  0  0  0  0  2  0  0  0  0  0  0
  -30.7610  -14.3770   20.1660 C   0  0  0  0  0  0  0  0  0  0  0  0
  -30.3060  -12.2550   18.9850 C   0  0  0  0  0  2  0  0  0  0  0  0
  -29.3240  -12.5240   17.8280 C   0  0  0  0  0  2  0  0  0  0  0  0
  -27.8690  -12.4270   18.3210 C   0  0  0  0  0  2  0  0  0  0  0  0
  -27.6210  -13.2360   19.6220 C   0  0  0  0  0  3  0  0  0  0  0  0
  -28.7220  -12.9630   20.6720 C   0  0  0  0  0  2  0  0  0  0  0  0
  -30.0230  -13.2370   20.0450 N   0  0  0  0  0  0  0  0  0  0  0  0
  -31.8250  -14.5130   19.5590 O   0  0  0  0  0  0  0  0  0  0  0  0
  -25.2700  -13.8830   20.4450 C   0  0  0  0  0  0  0  0  0  0  0  0
  -24.2010  -13.1260   20.8440 C   0  0  0  0  0  0  0  0  0  0  0  0
  -24.6260  -11.7650   20.7640 C   0  0  0  0  0  0  0  0  0  0  0  0
  -26.2840  -12.9830   20.1540 N   0  0  0  0  0  0  0  0  0  0  0  0
  -25.9010  -11.7040   20.3990 N   0  0  0  0  0  0  0  0  0  0  0  0
  -23.8780  -10.5160   20.9610 C   0  0  0  0  0  0  0  0  0  0  0  0
  -24.3180   -9.5270   21.8690 C   0  0  0  0  0  3  0  0  0  0  0  0
  -23.5700   -8.3430   22.0540 C   0  0  0  0  0  3  0  0  0  0  0  0
  -22.3710   -8.1400   21.3300 C   0  0  0  0  0  0  0  0  0  0  0  0
  -21.9520   -9.1180   20.4100 C   0  0  0  0  0  3  0  0  0  0  0  0
  -22.6980  -10.2930   20.2250 C   0  0  0  0  0  3  0  0  0  0  0  0
  -21.5940   -7.0120   21.4250 O   0  0  0  0  0  0  0  0  0  0  0  0
  -21.5570   -6.2570   22.5710 C   0  0  0  0  0  0  0  0  0  0  0  0
  -21.1830   -6.8120   23.8140 C   0  0  0  0  0  3  0  0  0  0  0  0
  -21.0910   -5.9880   24.9530 C   0  0  0  0  0  3  0  0  0  0  0  0
  -21.3640   -4.6100   24.8500 C   0  0  0  0  0  0  0  0  0  0  0  0
  -21.7330   -4.0550   23.6120 C   0  0  0  0  0  3  0  0  0  0  0  0
  -21.8260   -4.8770   22.4750 C   0  0  0  0  0  0  0  0  0  0  0  0
  -22.1600   -4.3350   21.2790 F   0  0  0  0  0  0  0  0  0  0  0  0
  -21.2670   -3.8150   25.9410 F   0  0  0  0  0  0  0  0  0  0  0  0
  -22.8290  -13.6290   21.1940 C   0  0  0  0  0  0  0  0  0  0  0  0
  -22.1370  -12.9370   22.0930 N   0  0  0  0  0  0  0  0  0  0  0  0
  -22.3840  -14.6670   20.7070 O   0  0  0  0  0  0  0  0  0  0  0  0
  -22.5150  -12.0960   22.5010 H   0  0  0  0  0  0  0  0  0  0  0  0
  -21.2190  -13.2500   22.3720 H   0  0  0  0  0  0  0  0  0  0  0  0
  -25.4590  -15.2520   20.2890 N   0  0  0  0  0  0  0  0  0  0  0  0
  -24.7190  -15.9260   20.4480 H   0  0  0  0  0  0  0  0  0  0  0  0
  -26.3120  -15.6770   19.9430 H   0  0  0  0  0  0  0  0  0  0  0  0
  2  1  1  0
  2 55  1  0
  3  1  2  0
  4  2  2  0
  5  4  1  0
  5  3  1  0
  6  4  1  0
  6  7  2  0
  8  7  1  0
  9  3  1  0
  9 11  1  0
 10  9  2  0
 12 13  1  0
 12 11  2  0
 13 14  1  0
 14 16  1  0
 15 26  2  0
 16 21  1  0
 17 25  1  0
 17 27  1  0
 18 24  1  0
 18 20  1  0
 19 25  1  0
 20 19  1  0
 21 20  2  0
 22 23  1  0
 22 16  2  0
 23 18  2  0
 24 17  1  0
 25 15  1  0
 27 29  2  0
 28 27  1  0
 30 28  1  0
 31 40  2  0
 31 36  1  0
 32 28  1  0
 32 36  1  0
 33 32  1  0
 34 35  1  0
 34 33  1  0
 35 31  1  0
 36 37  2  0
 37 38  1  0
 39 38  2  0
 40 39  1  0
 41 15  1  0
 41 42  1  0
 41 51  1  0
 42 45  1  0
 43 47  1  0
 43 42  1  0
 44 43  2  0
 47 46  1  0
 49 50  1  0
 49 47  1  0
 49 48  1  0
 51 54  1  1
 51 52  1  0
 53 51  1  0
 56 57  1  0
 56 55  1  0
 58 57  1  0
 59 64  1  0
 60 61  1  0
 60 59  1  0
 62 61  1  0
 62 69  1  0
 62 63  1  0
 64 58  1  0
 64 63  1  0
 65 58  2  0
 66 67  2  0
 67 86  1  0
 68 67  1  0
 68 71  1  0
 69 70  1  0
 69 66  1  0
 70 68  2  0
 71 72  1  0
 72 73  2  0
 74 77  1  0
 74 73  1  0
 75 74  2  0
 76 75  1  0
 76 71  2  0
 77 78  1  0
 78 79  1  0
 79 80  2  0
 81 80  1  0
 81 85  1  0
 82 81  2  0
 83 78  2  0
 83 82  1  0
 84 83  1  0
 86 87  1  0
 87 90  1  0
 87 89  1  0
 88 86  2  0
 91 66  1  0
 91 92  1  0
 93 91  1  0
M  ISO  4  13 101  14 101  57 100  58 100
M  END
>  <TORSDO>  (14) 
F 23

>  <SCORE>  (14) 
-12.461

>  <name>  (14) 
13

>  <ligand_id>  (14) 
13

>  <original_smiles>  (14) 
[H]C(C(=O)c1sc(C([H])=C([H])C([H])([H])[H])c(OC([H])([H])C([H])([H])C(=O)N2C([H])([H])C([H])([H])C([H])([H])C([H])(n3nc(-c4c([H])c([H])c(Oc5c([H])c([H])c(F)c([H])c5F)c([H])c4[H])c(C(=O)N([H])[H])c3N([H])[H])C2([H])[H])c1[H])=C([H])C([H])([H])Oc1c([H])c([H])c2c(c1[H])C([H])([H])N(C(=O)C([H])(N([H])C(=O)C([H])(N([H])C([H])([H])[H])C([H])([H])[H])C(C([H])([H])[H])(C([H])([H])[H])C([H])([H])[H])C([H])(C(=O)N([H])C1([H])c3c([H])c([H])c([H])c([H])c3C([H])([H])C([H])([H])C1([H])[H])C2([H])[H]

>  <smiles>  (14) 
[H]C(C(=O)c1sc(C([H])=C([H])C([H])([H])[H])c(OC([H])([H])C([H])([H])C(=O)N2C([H])([H])C([H])([H])C([H])([H])C([H])(n3nc(-c4c([H])c([H])c(Oc5c([H])c([H])c(F)c([H])c5F)c([H])c4[H])c(C(=O)N([H])[H])c3N([H])[H])C2([H])[H])c1[H])=C([H])C([H])([H])Oc1c([H])c([H])c2c(c1[H])C([H])([H])N(C(=O)C([H])(N([H])C(=O)C([H])(N([H])C([H])([H])[H])C([H])([H])[H])C(C([H])([H])[H])(C([H])([H])[H])C([H])([H])[H])C([H])(C(=O)N([H])C1([H])c3c([H])c([H])c([H])c([H])c3C([H])([H])C([H])([H])C1([H])[H])C2([H])[H]

$$$$
14:0:0
     RDKit          3D

 92100  0  0  1  0  0  0  0  0999 V2000
  -31.3540  -18.9530   22.2750 C   0  0  0  0  0  3  0  0  0  0  0  0
  -31.2890  -20.3550   22.1900 C   0  0  0  0  0  3  0  0  0  0  0  0
  -29.6960  -18.7740   20.5130 C   0  0  0  0  0  3  0  0  0  0  0  0
  -30.5990  -18.1520   21.3990 C   0  0  0  0  0  0  0  0  0  0  0  0
  -30.4650  -20.9930   21.2310 C   0  0  0  0  0  0  0  0  0  0  0  0
  -29.6360  -20.1830   20.3970 C   0  0  0  0  0  0  0  0  0  0  0  0
  -30.8990  -16.7170   21.2960 C   0  0  0  0  0  3  0  0  0  0  0  0
  -30.1000  -15.7080   20.8750 C   0  0  0  0  0  3  0  0  0  0  0  0
  -30.7480  -14.4580   20.4920 C   0  0  0  0  0  0  0  0  0  0  0  0
  -30.3380  -12.3170   19.3650 C   0  0  0  0  0  2  0  0  0  0  0  0
  -29.4390  -12.5590   18.1390 C   0  0  0  0  0  2  0  0  0  0  0  0
  -27.9560  -12.4490   18.5410 C   0  0  0  0  0  2  0  0  0  0  0  0
  -27.6070  -13.2860   19.8010 C   0  0  0  0  0  3  0  0  0  0  0  0
  -28.6480  -13.0980   20.9280 C   0  0  0  0  0  2  0  0  0  0  0  0
  -29.9860  -13.3350   20.3700 N   0  0  0  0  0  0  0  0  0  0  0  0
  -31.9060  -14.4910   20.0710 O   0  0  0  0  0  0  0  0  0  0  0  0
  -25.1980  -13.8880   20.4650 C   0  0  0  0  0  0  0  0  0  0  0  0
  -24.1240  -13.1180   20.8230 C   0  0  0  0  0  0  0  0  0  0  0  0
  -24.5880  -11.7660   20.8190 C   0  0  0  0  0  0  0  0  0  0  0  0
  -26.2480  -13.0080   20.2640 N   0  0  0  0  0  0  0  0  0  0  0  0
  -25.8850  -11.7270   20.5320 N   0  0  0  0  0  0  0  0  0  0  0  0
  -23.8590  -10.5040   21.0130 C   0  0  0  0  0  0  0  0  0  0  0  0
  -24.2850   -9.5440   21.9580 C   0  0  0  0  0  3  0  0  0  0  0  0
  -23.5600   -8.3480   22.1400 C   0  0  0  0  0  3  0  0  0  0  0  0
  -22.3930   -8.1020   21.3780 C   0  0  0  0  0  0  0  0  0  0  0  0
  -21.9860   -9.0510   20.4240 C   0  0  0  0  0  3  0  0  0  0  0  0
  -22.7120  -10.2400   20.2390 C   0  0  0  0  0  3  0  0  0  0  0  0
  -21.6380   -6.9580   21.4690 O   0  0  0  0  0  0  0  0  0  0  0  0
  -21.5890   -6.2170   22.6230 C   0  0  0  0  0  0  0  0  0  0  0  0
  -21.1680   -6.7750   23.8490 C   0  0  0  0  0  3  0  0  0  0  0  0
  -21.0670   -5.9610   24.9960 C   0  0  0  0  0  3  0  0  0  0  0  0
  -21.3760   -4.5890   24.9150 C   0  0  0  0  0  0  0  0  0  0  0  0
  -21.7880   -4.0310   23.6930 C   0  0  0  0  0  3  0  0  0  0  0  0
  -21.8930   -4.8420   22.5500 C   0  0  0  0  0  0  0  0  0  0  0  0
  -22.2720   -4.2950   21.3710 F   0  0  0  0  0  0  0  0  0  0  0  0
  -21.2700   -3.8060   26.0130 F   0  0  0  0  0  0  0  0  0  0  0  0
  -22.7220  -13.5980   21.0640 C   0  0  0  0  0  0  0  0  0  0  0  0
  -21.9750  -12.9130   21.9220 N   0  0  0  0  0  0  0  0  0  0  0  0
  -22.2960  -14.6180   20.5240 O   0  0  0  0  0  0  0  0  0  0  0  0
  -22.3300  -12.0890   22.3830 H   0  0  0  0  0  0  0  0  0  0  0  0
  -21.0340  -13.2230   22.1210 H   0  0  0  0  0  0  0  0  0  0  0  0
  -25.3600  -15.2570   20.2730 N   0  0  0  0  0  0  0  0  0  0  0  0
  -24.5860  -15.9060   20.3540 H   0  0  0  0  0  0  0  0  0  0  0  0
  -26.2150  -15.6980   19.9570 H   0  0  0  0  0  0  0  0  0  0  0  0
  -30.6190  -22.4780   21.1130 C   0  0  0  0  0  0  0  0  0  0  0  0
  -31.7490  -22.9740   21.0190 O   0  0  0  0  0  0  0  0  0  0  0  0
  -29.4150  -23.3280   21.1860 C   0  0  0  0  0  3  0  0  0  0  0  0
  -29.4620  -24.6570   20.9440 C   0  0  0  0  0  3  0  0  0  0  0  0
  -28.2640  -25.5800   21.0390 C   0  0  0  0  0  2  0  0  0  0  0  0
  -28.3930  -26.7330   20.2000 O   0  0  0  0  0  0  0  0  0  0  0  0
  -24.5840  -31.9070   23.2480 C   0  0  0  0  0  0  0  0  0  0  0  0
  -27.2460  -27.4880   20.1740 C   0  0  0  0  0  0  0  0  0  0  0  0
  -23.3840  -30.5020   21.6020 C   0  0  0  0  0  3  0  0  0  0  0  0
  -24.8460  -28.9730   20.1790 C   0  0  0  0  0  0  0  0  0  0  0  0
  -25.9080  -30.8750   21.4060 C   0  0  0  0  0  2  0  0  0  0  0  0
  -26.0010  -29.5060   20.7660 C   0  0  0  0  0  0  0  0  0  0  0  0
  -27.2080  -28.7730   20.7580 C   0  0  0  0  0  3  0  0  0  0  0  0
  -26.0800  -26.9670   19.5750 C   0  0  0  0  0  3  0  0  0  0  0  0
  -24.8800  -27.7010   19.5790 C   0  0  0  0  0  3  0  0  0  0  0  0
  -23.5970  -29.8220   20.2230 C   0  0  0  0  0  2  0  0  0  0  0  0
  -24.6440  -31.1080   22.1440 N   0  0  0  0  0  0  0  0  0  0  0  0
  -23.5010  -32.1740   23.7870 O   0  0  0  0  0  0  0  0  0  0  0  0
  -22.7360  -29.4780   22.5610 C   0  0  0  0  0  0  0  0  0  0  0  0
  -21.4110  -29.2970   22.4390 N   0  0  0  0  0  0  0  0  0  0  0  0
  -23.4230  -28.8470   23.3690 O   0  0  0  0  0  0  0  0  0  0  0  0
  -20.9160  -29.8600   21.7620 H   0  0  0  0  0  0  0  0  0  0  0  0
  -18.0370  -28.1070   22.9440 C   0  0  0  0  0  0  0  0  0  0  0  0
  -20.5960  -28.3560   23.2070 C   0  0  0  0  0  3  0  0  0  0  0  0
  -20.6920  -26.9260   22.6250 C   0  0  0  0  0  2  0  0  0  0  0  0
  -19.5850  -26.6100   21.6150 C   0  0  0  0  0  2  0  0  0  0  0  0
  -18.2060  -26.7590   22.2640 C   0  0  0  0  0  2  0  0  0  0  0  0
  -19.1590  -28.8630   23.3740 C   0  0  0  0  0  0  0  0  0  0  0  0
  -18.9470  -30.1260   23.9670 C   0  0  0  0  0  3  0  0  0  0  0  0
  -17.6440  -30.6320   24.1360 C   0  0  0  0  0  3  0  0  0  0  0  0
  -16.5360  -29.8710   23.7260 C   0  0  0  0  0  3  0  0  0  0  0  0
  -16.7330  -28.6110   23.1350 C   0  0  0  0  0  3  0  0  0  0  0  0
  -25.8670  -32.5410   23.8670 C   0  0  0  0  0  3  0  0  0  0  0  0
  -25.5580  -33.9400   24.1920 N   0  0  0  0  0  0  0  0  0  0  0  0
  -25.8980  -34.9880   23.4310 C   0  0  0  0  0  0  0  0  0  0  0  0
  -26.5770  -34.8800   22.4050 O   0  0  0  0  0  0  0  0  0  0  0  0
  -24.9570  -34.0960   24.9870 H   0  0  0  0  0  0  0  0  0  0  0  0
  -24.1810  -36.7830   23.0460 C   0  0  0  0  0  1  0  0  0  0  0  0
  -25.4080  -36.3780   23.8780 C   0  0  0  0  0  3  0  0  0  0  0  0
  -27.5340  -37.2580   24.7360 C   0  0  0  0  0  1  0  0  0  0  0  0
  -26.4440  -37.4290   23.7780 N   0  0  0  0  0  0  0  0  0  0  0  0
  -26.0380  -38.3500   23.9200 H   0  0  0  0  0  0  0  0  0  0  0  0
  -26.3870  -31.7730   25.1460 C   0  0  1  0  0  0  0  0  0  0  0  0
  -25.2970  -31.5380   26.2170 C   0  0  0  0  0  1  0  0  0  0  0  0
  -26.9670  -30.3930   24.7540 C   0  0  0  0  0  1  0  0  0  0  0  0
  -27.5390  -32.5680   25.8040 C   0  0  0  0  0  1  0  0  0  0  0  0
  -29.6010  -21.0940   18.0240 C   0  0  0  0  0  1  0  0  0  0  0  0
  -28.7750  -20.7460   19.2700 C   0  0  0  0  0  2  0  0  0  0  0  0
  2  1  1  0
  3  4  1  0
  4  1  2  0
  5  2  2  0
  6  3  2  0
  6  5  1  0
  7  4  1  0
  8  7  2  0
  9  8  1  0
 10 15  1  0
 11 12  1  0
 11 10  1  0
 13 12  1  0
 13 20  1  0
 13 14  1  0
 15  9  1  0
 15 14  1  0
 16  9  2  0
 17 18  2  0
 18 37  1  0
 19 18  1  0
 19 22  1  0
 20 17  1  0
 20 21  1  0
 21 19  2  0
 22 23  1  0
 23 24  2  0
 25 28  1  0
 25 24  1  0
 26 25  2  0
 27 26  1  0
 27 22  2  0
 28 29  1  0
 29 30  1  0
 30 31  2  0
 32 31  1  0
 32 36  1  0
 33 32  2  0
 34 29  2  0
 34 33  1  0
 35 34  1  0
 37 38  1  0
 38 41  1  0
 38 40  1  0
 39 37  2  0
 42 43  1  0
 42 17  1  0
 44 42  1  0
 45 47  1  0
 45  5  1  0
 46 45  2  0
 48 49  1  0
 48 47  2  0
 50 49  1  0
 51 62  2  0
 52 50  1  0
 52 57  1  0
 53 61  1  0
 53 63  1  0
 54 60  1  0
 54 56  1  0
 55 61  1  0
 56 55  1  0
 57 56  2  0
 58 59  1  0
 58 52  2  0
 59 54  2  0
 60 53  1  0
 61 51  1  0
 63 65  2  0
 64 63  1  0
 66 64  1  0
 67 76  2  0
 67 72  1  0
 68 64  1  0
 68 72  1  0
 69 68  1  0
 70 71  1  0
 70 69  1  0
 71 67  1  0
 72 73  2  0
 73 74  1  0
 75 74  2  0
 76 75  1  0
 77 51  1  0
 77 78  1  0
 77 87  1  0
 78 81  1  0
 79 83  1  0
 79 78  1  0
 80 79  2  0
 83 82  1  0
 85 83  1  0
 85 86  1  0
 85 84  1  0
 87 90  1  1
 87 88  1  0
 89 87  1  0
 91 92  1  0
 92  6  1  0
M  ISO  4   8 100   9 100  49 101  50 101
M  END
>  <TORSDO>  (15) 
F 21

>  <SCORE>  (15) 
-13.778

>  <name>  (15) 
14

>  <ligand_id>  (15) 
14

>  <original_smiles>  (15) 
[H]C(C(=O)N1C([H])([H])C([H])([H])C([H])([H])C([H])(n2nc(-c3c([H])c([H])c(Oc4c([H])c([H])c(F)c([H])c4F)c([H])c3[H])c(C(=O)N([H])[H])c2N([H])[H])C1([H])[H])=C([H])c1c([H])c([H])c(C(=O)C([H])=C([H])C([H])([H])Oc2c([H])c([H])c3c(c2[H])C([H])([H])N(C(=O)C([H])(N([H])C(=O)C([H])(N([H])C([H])([H])[H])C([H])([H])[H])C(C([H])([H])[H])(C([H])([H])[H])C([H])([H])[H])C([H])(C(=O)N([H])C2([H])c4c([H])c([H])c([H])c([H])c4C([H])([H])C([H])([H])C2([H])[H])C3([H])[H])c(C([H])([H])C([H])([H])[H])c1[H]

>  <smiles>  (15) 
[H]C(C(=O)N1C([H])([H])C([H])([H])C([H])([H])C([H])(n2nc(-c3c([H])c([H])c(Oc4c([H])c([H])c(F)c([H])c4F)c([H])c3[H])c(C(=O)N([H])[H])c2N([H])[H])C1([H])[H])=C([H])c1c([H])c([H])c(C(=O)C([H])=C([H])C([H])([H])Oc2c([H])c([H])c3c(c2[H])C([H])([H])N(C(=O)C([H])(N([H])C(=O)C([H])(N([H])C([H])([H])[H])C([H])([H])[H])C(C([H])([H])[H])(C([H])([H])[H])C([H])([H])[H])C([H])(C(=O)N([H])C2([H])c4c([H])c([H])c([H])c([H])c4C([H])([H])C([H])([H])C2([H])[H])C3([H])[H])c(C([H])([H])C([H])([H])[H])c1[H]

$$$$
15:0:0
     RDKit          3D

 93101  0  0  1  0  0  0  0  0999 V2000
  -29.9180  -19.2870   21.3280 C   0  0  0  0  0  3  0  0  0  0  0  0
  -28.0600  -20.5800   20.4760 C   0  0  0  0  0  3  0  0  0  0  0  0
  -29.6320  -18.2600   20.4040 C   0  0  0  0  0  0  0  0  0  0  0  0
  -27.7650  -19.5780   19.5310 C   0  0  0  0  0  0  0  0  0  0  0  0
  -28.5850  -18.4150   19.4440 C   0  0  0  0  0  0  0  0  0  0  0  0
  -29.1760  -20.4830   21.3370 C   0  0  0  0  0  0  0  0  0  0  0  0
  -26.5710  -19.8430   18.6260 C   0  0  0  0  0  1  0  0  0  0  0  0
  -27.0870  -16.7280   18.0310 C   0  0  0  0  0  1  0  0  0  0  0  0
  -28.4580  -17.3620   18.3170 C   0  0  0  0  0  2  0  0  0  0  0  0
  -30.5130  -17.0850   20.3840 C   0  0  0  0  0  3  0  0  0  0  0  0
  -30.4710  -16.0640   21.2640 C   0  0  0  0  0  3  0  0  0  0  0  0
  -31.3530  -14.9260   21.0360 C   0  0  0  0  0  0  0  0  0  0  0  0
  -31.1210  -12.8310   19.8020 C   0  0  0  0  0  2  0  0  0  0  0  0
  -30.2820  -13.1790   18.5520 C   0  0  0  0  0  2  0  0  0  0  0  0
  -28.7740  -13.0440   18.8520 C   0  0  0  0  0  2  0  0  0  0  0  0
  -28.3530  -13.7870   20.1500 C   0  0  0  0  0  3  0  0  0  0  0  0
  -29.3230  -13.4570   21.3080 C   0  0  0  0  0  2  0  0  0  0  0  0
  -30.6990  -13.7470   20.8710 N   0  0  0  0  0  0  0  0  0  0  0  0
  -32.5440  -15.0760   20.7540 O   0  0  0  0  0  0  0  0  0  0  0  0
  -25.9130  -14.3870   20.6950 C   0  0  0  0  0  0  0  0  0  0  0  0
  -24.8160  -13.6120   20.9510 C   0  0  0  0  0  0  0  0  0  0  0  0
  -25.2740  -12.2600   20.9070 C   0  0  0  0  0  0  0  0  0  0  0  0
  -26.9670  -13.5080   20.5070 N   0  0  0  0  0  0  0  0  0  0  0  0
  -26.5820  -12.2210   20.6940 N   0  0  0  0  0  0  0  0  0  0  0  0
  -24.5330  -10.9970   21.0020 C   0  0  0  0  0  0  0  0  0  0  0  0
  -24.8610  -10.0190   21.9660 C   0  0  0  0  0  3  0  0  0  0  0  0
  -24.1180   -8.8220   22.0510 C   0  0  0  0  0  3  0  0  0  0  0  0
  -23.0370   -8.5930   21.1670 C   0  0  0  0  0  0  0  0  0  0  0  0
  -22.7320   -9.5600   20.1930 C   0  0  0  0  0  3  0  0  0  0  0  0
  -23.4740  -10.7490   20.1070 C   0  0  0  0  0  3  0  0  0  0  0  0
  -22.2760   -7.4500   21.1550 O   0  0  0  0  0  0  0  0  0  0  0  0
  -22.0570   -6.7230   22.2960 C   0  0  0  0  0  0  0  0  0  0  0  0
  -21.4210   -7.2810   23.4280 C   0  0  0  0  0  3  0  0  0  0  0  0
  -21.1510   -6.4770   24.5520 C   0  0  0  0  0  3  0  0  0  0  0  0
  -21.5110   -5.1150   24.5480 C   0  0  0  0  0  0  0  0  0  0  0  0
  -22.1420   -4.5580   23.4220 C   0  0  0  0  0  3  0  0  0  0  0  0
  -22.4130   -5.3590   22.3010 C   0  0  0  0  0  0  0  0  0  0  0  0
  -23.0010   -4.8120   21.2110 F   0  0  0  0  0  0  0  0  0  0  0  0
  -21.2470   -4.3410   25.6270 F   0  0  0  0  0  0  0  0  0  0  0  0
  -23.4050  -14.0930   21.1310 C   0  0  0  0  0  0  0  0  0  0  0  0
  -22.6080  -13.3680   21.9090 N   0  0  0  0  0  0  0  0  0  0  0  0
  -23.0160  -15.1420   20.6210 O   0  0  0  0  0  0  0  0  0  0  0  0
  -22.9420  -12.5230   22.3470 H   0  0  0  0  0  0  0  0  0  0  0  0
  -21.6550  -13.6610   22.0700 H   0  0  0  0  0  0  0  0  0  0  0  0
  -26.0880  -15.7630   20.6020 N   0  0  0  0  0  0  0  0  0  0  0  0
  -25.3070  -16.4020   20.7070 H   0  0  0  0  0  0  0  0  0  0  0  0
  -26.9560  -16.2300   20.3680 H   0  0  0  0  0  0  0  0  0  0  0  0
  -29.5820  -21.5100   22.1650 O   0  0  0  0  0  0  0  0  0  0  0  0
  -29.1070  -22.8280   21.8720 C   0  0  0  0  0  2  0  0  0  0  0  0
  -30.0600  -23.8750   22.4700 C   0  0  0  0  0  2  0  0  0  0  0  0
  -29.6310  -25.3430   22.2380 C   0  0  0  0  0  2  0  0  0  0  0  0
  -29.6290  -25.7780   20.7580 C   0  0  0  0  0  2  0  0  0  0  0  0
  -29.4240  -27.1920   20.6400 O   0  0  0  0  0  0  0  0  0  0  0  0
  -24.8340  -31.8940   23.3520 C   0  0  0  0  0  0  0  0  0  0  0  0
  -28.1580  -27.7260   20.5460 C   0  0  0  0  0  0  0  0  0  0  0  0
  -23.9220  -30.4040   21.6020 C   0  0  0  0  0  3  0  0  0  0  0  0
  -25.6340  -29.0010   20.3340 C   0  0  0  0  0  0  0  0  0  0  0  0
  -26.4140  -30.9820   21.6500 C   0  0  0  0  0  2  0  0  0  0  0  0
  -26.6780  -29.6290   21.0210 C   0  0  0  0  0  0  0  0  0  0  0  0
  -27.9370  -29.0000   21.1160 C   0  0  0  0  0  3  0  0  0  0  0  0
  -27.0880  -27.1010   19.8600 C   0  0  0  0  0  3  0  0  0  0  0  0
  -25.8340  -27.7350   19.7520 C   0  0  0  0  0  3  0  0  0  0  0  0
  -24.3200  -29.7440   20.2530 C   0  0  0  0  0  2  0  0  0  0  0  0
  -25.0680  -31.1120   22.2590 N   0  0  0  0  0  0  0  0  0  0  0  0
  -23.6870  -32.0620   23.7870 O   0  0  0  0  0  0  0  0  0  0  0  0
  -23.2710  -29.3240   22.4970 C   0  0  0  0  0  0  0  0  0  0  0  0
  -21.9710  -29.0690   22.2800 N   0  0  0  0  0  0  0  0  0  0  0  0
  -23.9370  -28.7170   23.3400 O   0  0  0  0  0  0  0  0  0  0  0  0
  -21.4910  -29.6210   21.5850 H   0  0  0  0  0  0  0  0  0  0  0  0
  -18.6260  -27.7470   22.6140 C   0  0  0  0  0  0  0  0  0  0  0  0
  -21.1670  -28.0590   22.9690 C   0  0  0  0  0  3  0  0  0  0  0  0
  -21.3260  -26.6690   22.3060 C   0  0  0  0  0  2  0  0  0  0  0  0
  -20.2580  -26.3720   21.2500 C   0  0  0  0  0  2  0  0  0  0  0  0
  -18.8600  -26.4440   21.8690 C   0  0  0  0  0  2  0  0  0  0  0  0
  -19.7100  -28.5130   23.1200 C   0  0  0  0  0  0  0  0  0  0  0  0
  -19.4350  -29.7340   23.7750 C   0  0  0  0  0  3  0  0  0  0  0  0
  -18.1130  -30.1880   23.9310 C   0  0  0  0  0  3  0  0  0  0  0  0
  -17.0430  -29.4170   23.4440 C   0  0  0  0  0  3  0  0  0  0  0  0
  -17.3020  -28.1970   22.7910 C   0  0  0  0  0  3  0  0  0  0  0  0
  -25.9950  -32.6260   24.0970 C   0  0  0  0  0  3  0  0  0  0  0  0
  -25.5590  -34.0060   24.3550 N   0  0  0  0  0  0  0  0  0  0  0  0
  -25.9040  -35.0630   23.6070 C   0  0  0  0  0  0  0  0  0  0  0  0
  -26.6950  -34.9820   22.6610 O   0  0  0  0  0  0  0  0  0  0  0  0
  -24.8690  -34.1350   25.0820 H   0  0  0  0  0  0  0  0  0  0  0  0
  -24.1130  -36.7170   23.0050 C   0  0  0  0  0  1  0  0  0  0  0  0
  -25.2760  -36.4240   23.9650 C   0  0  0  0  0  3  0  0  0  0  0  0
  -27.2430  -37.4670   25.0000 C   0  0  0  0  0  1  0  0  0  0  0  0
  -26.2450  -37.5440   23.9370 N   0  0  0  0  0  0  0  0  0  0  0  0
  -25.7670  -38.4360   24.0170 H   0  0  0  0  0  0  0  0  0  0  0  0
  -26.4160  -31.9120   25.4410 C   0  0  1  0  0  0  0  0  0  0  0  0
  -25.2220  -31.5530   26.3610 C   0  0  0  0  0  1  0  0  0  0  0  0
  -27.1920  -30.6070   25.1430 C   0  0  0  0  0  1  0  0  0  0  0  0
  -27.3770  -32.8230   26.2390 C   0  0  0  0  0  1  0  0  0  0  0  0
  1  6  1  0
  2  6  2  0
  3  1  2  0
  4  2  1  0
  5  4  2  0
  5  3  1  0
  6 48  1  0
  7  4  1  0
  8  9  1  0
  9  5  1  0
 10  3  1  0
 10 11  2  0
 12 11  1  0
 13 18  1  0
 14 15  1  0
 14 13  1  0
 16 15  1  0
 16 23  1  0
 16 17  1  0
 18 12  1  0
 18 17  1  0
 19 12  2  0
 20 21  2  0
 21 40  1  0
 22 21  1  0
 22 25  1  0
 23 24  1  0
 23 20  1  0
 24 22  2  0
 25 26  1  0
 26 27  2  0
 28 27  1  0
 29 28  2  0
 30 29  1  0
 30 25  2  0
 31 28  1  0
 31 32  1  0
 32 37  2  0
 32 33  1  0
 33 34  2  0
 35 34  1  0
 35 39  1  0
 36 35  2  0
 37 36  1  0
 38 37  1  0
 40 41  1  0
 41 44  1  0
 41 43  1  0
 42 40  2  0
 45 20  1  0
 45 46  1  0
 47 45  1  0
 49 48  1  0
 49 50  1  0
 51 50  1  0
 52 51  1  0
 53 52  1  0
 54 65  2  0
 55 53  1  0
 55 60  1  0
 56 64  1  0
 56 66  1  0
 57 59  1  0
 58 64  1  0
 59 60  2  0
 59 58  1  0
 61 55  2  0
 62 61  1  0
 62 57  2  0
 63 57  1  0
 63 56  1  0
 64 54  1  0
 66 68  2  0
 67 66  1  0
 69 67  1  0
 70 79  2  0
 70 75  1  0
 71 67  1  0
 71 75  1  0
 72 71  1  0
 73 74  1  0
 73 72  1  0
 74 70  1  0
 75 76  2  0
 76 77  1  0
 78 77  2  0
 79 78  1  0
 80 54  1  0
 80 81  1  0
 80 90  1  0
 81 84  1  0
 82 86  1  0
 82 81  1  0
 83 82  2  0
 86 85  1  0
 88 86  1  0
 88 89  1  0
 88 87  1  0
 90 93  1  1
 90 91  1  0
 92 90  1  0
M  ISO  4  11 100  12 100  52 101  53 101
M  END
>  <TORSDO>  (16) 
F 23

>  <SCORE>  (16) 
-9.787

>  <name>  (16) 
15

>  <ligand_id>  (16) 
15

>  <original_smiles>  (16) 
[H]C(C(=O)N1C([H])([H])C([H])([H])C([H])([H])C([H])(n2nc(-c3c([H])c([H])c(Oc4c([H])c([H])c(F)c([H])c4F)c([H])c3[H])c(C(=O)N([H])[H])c2N([H])[H])C1([H])[H])=C([H])c1c([H])c(OC([H])([H])C([H])([H])C([H])([H])C([H])([H])Oc2c([H])c([H])c3c(c2[H])C([H])([H])N(C(=O)C([H])(N([H])C(=O)C([H])(N([H])C([H])([H])[H])C([H])([H])[H])C(C([H])([H])[H])(C([H])([H])[H])C([H])([H])[H])C([H])(C(=O)N([H])C2([H])c4c([H])c([H])c([H])c([H])c4C([H])([H])C([H])([H])C2([H])[H])C3([H])[H])c([H])c(C([H])([H])[H])c1C([H])([H])C([H])([H])[H]

>  <smiles>  (16) 
[H]C(C(=O)N1C([H])([H])C([H])([H])C([H])([H])C([H])(n2nc(-c3c([H])c([H])c(Oc4c([H])c([H])c(F)c([H])c4F)c([H])c3[H])c(C(=O)N([H])[H])c2N([H])[H])C1([H])[H])=C([H])c1c([H])c(OC([H])([H])C([H])([H])C([H])([H])C([H])([H])Oc2c([H])c([H])c3c(c2[H])C([H])([H])N(C(=O)C([H])(N([H])C(=O)C([H])(N([H])C([H])([H])[H])C([H])([H])[H])C(C([H])([H])[H])(C([H])([H])[H])C([H])([H])[H])C([H])(C(=O)N([H])C2([H])c4c([H])c([H])c([H])c([H])c4C([H])([H])C([H])([H])C2([H])[H])C3([H])[H])c([H])c(C([H])([H])[H])c1C([H])([H])C([H])([H])[H]

$$$$
16:0:0
     RDKit          3D

 94102  0  0  1  0  0  0  0  0999 V2000
  -28.8630  -20.5750   18.6450 C   0  0  0  0  0  3  0  0  0  0  0  0
  -29.6940  -21.4250   18.0030 C   0  0  0  0  0  3  0  0  0  0  0  0
  -30.5470  -18.7960   19.2370 C   0  0  0  0  0  3  0  0  0  0  0  0
  -30.9120  -17.5360   19.7450 C   0  0  0  0  0  3  0  0  0  0  0  0
  -28.5710  -17.0070   20.0530 C   0  0  0  0  0  3  0  0  0  0  0  0
  -29.1910  -19.2000   19.1290 C   0  0  0  0  0  0  0  0  0  0  0  0
  -28.1850  -18.2670   19.5270 C   0  0  0  0  0  0  0  0  0  0  0  0
  -29.9230  -16.6250   20.1720 C   0  0  0  0  0  0  0  0  0  0  0  0
  -30.8990  -14.3370   20.0720 C   0  0  0  0  0  0  0  0  0  0  0  0
  -30.5550  -12.1810   18.9440 C   0  0  0  0  0  2  0  0  0  0  0  0
  -29.5710  -12.4250   17.7770 C   0  0  0  0  0  2  0  0  0  0  0  0
  -28.1100  -12.3220   18.2590 C   0  0  0  0  0  2  0  0  0  0  0  0
  -27.8420  -13.1620   19.5370 C   0  0  0  0  0  3  0  0  0  0  0  0
  -28.9220  -12.8760   20.6040 C   0  0  0  0  0  2  0  0  0  0  0  0
  -30.2400  -13.1510   20.0010 N   0  0  0  0  0  0  0  0  0  0  0  0
  -32.0060  -14.5290   19.5550 O   0  0  0  0  0  0  0  0  0  0  0  0
  -30.1980  -15.3150   20.6700 N   0  0  0  0  0  0  0  0  0  0  0  0
  -29.4810  -14.9560   21.2820 H   0  0  0  0  0  0  0  0  0  0  0  0
  -25.4930  -13.8460   20.3410 C   0  0  0  0  0  0  0  0  0  0  0  0
  -24.4160  -13.1040   20.7430 C   0  0  0  0  0  0  0  0  0  0  0  0
  -24.8300  -11.7380   20.6790 C   0  0  0  0  0  0  0  0  0  0  0  0
  -26.4980  -12.9330   20.0590 N   0  0  0  0  0  0  0  0  0  0  0  0
  -26.1040  -11.6590   20.3200 N   0  0  0  0  0  0  0  0  0  0  0  0
  -24.0740  -10.4970   20.8860 C   0  0  0  0  0  0  0  0  0  0  0  0
  -24.4670   -9.5450   21.8520 C   0  0  0  0  0  3  0  0  0  0  0  0
  -23.7120   -8.3670   22.0430 C   0  0  0  0  0  3  0  0  0  0  0  0
  -22.5530   -8.1330   21.2670 C   0  0  0  0  0  0  0  0  0  0  0  0
  -22.1770   -9.0770   20.2930 C   0  0  0  0  0  3  0  0  0  0  0  0
  -22.9320  -10.2450   20.1000 C   0  0  0  0  0  3  0  0  0  0  0  0
  -21.7730   -7.0060   21.3640 O   0  0  0  0  0  0  0  0  0  0  0  0
  -21.6210   -6.3370   22.5520 C   0  0  0  0  0  0  0  0  0  0  0  0
  -21.0920   -6.9670   23.7000 C   0  0  0  0  0  3  0  0  0  0  0  0
  -20.8900   -6.2230   24.8800 C   0  0  0  0  0  3  0  0  0  0  0  0
  -21.2050   -4.8510   24.9120 C   0  0  0  0  0  0  0  0  0  0  0  0
  -21.7270   -4.2220   23.7680 C   0  0  0  0  0  3  0  0  0  0  0  0
  -21.9320   -4.9620   22.5910 C   0  0  0  0  0  0  0  0  0  0  0  0
  -22.4150   -4.3460   21.4850 F   0  0  0  0  0  0  0  0  0  0  0  0
  -21.0030   -4.1350   26.0420 F   0  0  0  0  0  0  0  0  0  0  0  0
  -23.0460  -13.6220   21.0790 C   0  0  0  0  0  0  0  0  0  0  0  0
  -22.3430  -12.9520   21.9840 N   0  0  0  0  0  0  0  0  0  0  0  0
  -22.6110  -14.6580   20.5750 O   0  0  0  0  0  0  0  0  0  0  0  0
  -22.7070  -12.1130   22.4100 H   0  0  0  0  0  0  0  0  0  0  0  0
  -21.4300  -13.2830   22.2570 H   0  0  0  0  0  0  0  0  0  0  0  0
  -25.6980  -15.2120   20.1740 N   0  0  0  0  0  0  0  0  0  0  0  0
  -24.9620  -15.8890   20.3340 H   0  0  0  0  0  0  0  0  0  0  0  0
  -26.5500  -15.6300   19.8210 H   0  0  0  0  0  0  0  0  0  0  0  0
  -25.7380  -17.8560   19.9860 C   0  0  0  0  0  2  0  0  0  0  0  0
  -26.7360  -18.5750   19.4410 C   0  0  0  0  0  3  0  0  0  0  0  0
  -29.3270  -22.8210   17.5120 C   0  0  0  0  0  2  0  0  0  0  0  0
  -30.0510  -25.0080   18.6060 C   0  0  0  0  0  3  0  0  0  0  0  0
  -30.3530  -23.8740   17.9370 C   0  0  0  0  0  0  0  0  0  0  0  0
  -31.7850  -23.5710   17.5340 C   0  0  0  0  0  1  0  0  0  0  0  0
  -28.6520  -25.4530   18.9750 C   0  0  0  0  0  2  0  0  0  0  0  0
  -28.6200  -26.6260   19.8010 O   0  0  0  0  0  0  0  0  0  0  0  0
  -24.6440  -31.5980   23.0620 C   0  0  0  0  0  0  0  0  0  0  0  0
  -27.4070  -27.2900   19.8750 C   0  0  0  0  0  0  0  0  0  0  0  0
  -23.4810  -30.2130   21.3810 C   0  0  0  0  0  3  0  0  0  0  0  0
  -24.9730  -28.7410   19.9400 C   0  0  0  0  0  0  0  0  0  0  0  0
  -26.0030  -30.6270   21.2090 C   0  0  0  0  0  2  0  0  0  0  0  0
  -26.1200  -29.2740   20.5400 C   0  0  0  0  0  0  0  0  0  0  0  0
  -27.3410  -28.5550   20.5050 C   0  0  0  0  0  3  0  0  0  0  0  0
  -26.2170  -26.7580   19.3180 C   0  0  0  0  0  3  0  0  0  0  0  0
  -25.0140  -27.4790   19.3350 C   0  0  0  0  0  3  0  0  0  0  0  0
  -23.7140  -29.5750   19.9880 C   0  0  0  0  0  2  0  0  0  0  0  0
  -24.7280  -30.8260   21.9430 N   0  0  0  0  0  0  0  0  0  0  0  0
  -23.5520  -31.8310   23.5990 O   0  0  0  0  0  0  0  0  0  0  0  0
  -22.8490  -29.1510   22.3090 C   0  0  0  0  0  0  0  0  0  0  0  0
  -21.5280  -28.9520   22.1780 N   0  0  0  0  0  0  0  0  0  0  0  0
  -23.5440  -28.5110   23.1020 O   0  0  0  0  0  0  0  0  0  0  0  0
  -21.0260  -29.5280   21.5170 H   0  0  0  0  0  0  0  0  0  0  0  0
  -18.1640  -27.7290   22.6780 C   0  0  0  0  0  0  0  0  0  0  0  0
  -20.7260  -27.9810   22.9230 C   0  0  0  0  0  3  0  0  0  0  0  0
  -20.8230  -26.5750   22.2890 C   0  0  0  0  0  2  0  0  0  0  0  0
  -19.7070  -26.2880   21.2810 C   0  0  0  0  0  2  0  0  0  0  0  0
  -18.3350  -26.4060   21.9490 C   0  0  0  0  0  2  0  0  0  0  0  0
  -19.2870  -28.4750   23.1230 C   0  0  0  0  0  0  0  0  0  0  0  0
  -19.0740  -29.7160   23.7630 C   0  0  0  0  0  3  0  0  0  0  0  0
  -17.7710  -30.2080   23.9650 C   0  0  0  0  0  3  0  0  0  0  0  0
  -16.6630  -29.4580   23.5350 C   0  0  0  0  0  3  0  0  0  0  0  0
  -16.8600  -28.2210   22.8950 C   0  0  0  0  0  3  0  0  0  0  0  0
  -25.9100  -32.2440   23.7060 C   0  0  0  0  0  3  0  0  0  0  0  0
  -25.5620  -33.6240   24.0680 N   0  0  0  0  0  0  0  0  0  0  0  0
  -25.8910  -34.7050   23.3470 C   0  0  0  0  0  0  0  0  0  0  0  0
  -26.5860  -34.6460   22.3290 O   0  0  0  0  0  0  0  0  0  0  0  0
  -24.9470  -33.7440   24.8590 H   0  0  0  0  0  0  0  0  0  0  0  0
  -24.1330  -36.4660   23.0020 C   0  0  0  0  0  1  0  0  0  0  0  0
  -25.3620  -36.0660   23.8330 C   0  0  0  0  0  3  0  0  0  0  0  0
  -27.4560  -36.9680   24.7450 C   0  0  0  0  0  1  0  0  0  0  0  0
  -26.3730  -37.1440   23.7800 N   0  0  0  0  0  0  0  0  0  0  0  0
  -25.9440  -38.0490   23.9500 H   0  0  0  0  0  0  0  0  0  0  0  0
  -26.4380  -31.4540   24.9650 C   0  0  1  0  0  0  0  0  0  0  0  0
  -25.3420  -31.1480   26.0130 C   0  0  0  0  0  1  0  0  0  0  0  0
  -27.0720  -30.1110   24.5310 C   0  0  0  0  0  1  0  0  0  0  0  0
  -27.5540  -32.2660   25.6620 C   0  0  0  0  0  1  0  0  0  0  0  0
  1  6  1  0
  2  1  2  0
  3  4  1  0
  4  8  2  0
  5  8  1  0
  6  3  2  0
  6  7  1  0
  7  5  2  0
  8 17  1  0
  9 17  1  0
 10 15  1  0
 11 12  1  0
 11 10  1  0
 13 12  1  0
 13 22  1  0
 13 14  1  0
 15  9  1  0
 15 14  1  0
 16  9  2  0
 17 18  1  0
 19 20  2  0
 20 39  1  0
 21 20  1  0
 21 24  1  0
 22 23  1  0
 22 19  1  0
 23 21  2  0
 24 25  1  0
 25 26  2  0
 27 30  1  0
 27 26  1  0
 28 27  2  0
 29 28  1  0
 29 24  2  0
 30 31  1  0
 31 36  2  0
 31 32  1  0
 32 33  2  0
 33 34  1  0
 34 38  1  0
 35 34  2  0
 36 35  1  0
 37 36  1  0
 39 40  1  0
 40 43  1  0
 40 42  1  0
 41 39  2  0
 44 45  1  0
 44 19  1  0
 46 44  1  0
 48  7  1  0
 48 47  2  0
 49 51  1  0
 49  2  1  0
 50 53  1  0
 51 50  2  0
 52 51  1  0
 53 54  1  0
 54 56  1  0
 55 66  2  0
 56 61  1  0
 57 65  1  0
 57 67  1  0
 58 64  1  0
 58 60  1  0
 59 65  1  0
 60 59  1  0
 61 60  2  0
 62 63  1  0
 62 56  2  0
 63 58  2  0
 64 57  1  0
 65 55  1  0
 67 69  2  0
 68 67  1  0
 70 68  1  0
 71 80  2  0
 71 76  1  0
 72 68  1  0
 72 76  1  0
 73 72  1  0
 74 75  1  0
 74 73  1  0
 75 71  1  0
 76 77  2  0
 77 78  1  0
 79 78  2  0
 80 79  1  0
 81 55  1  0
 81 82  1  0
 81 91  1  0
 82 85  1  0
 83 87  1  0
 83 82  1  0
 84 83  2  0
 87 86  1  0
 89 87  1  0
 89 90  1  0
 89 88  1  0
 91 94  1  1
 91 92  1  0
 93 91  1  0
M  ISO  4   9 100  17 100  53 101  54 101
M  END
>  <TORSDO>  (17) 
F 21

>  <SCORE>  (17) 
-12.717

>  <name>  (17) 
16

>  <ligand_id>  (17) 
16

>  <original_smiles>  (17) 
[H]C([H])=C([H])c1c([H])c(N([H])C(=O)N2C([H])([H])C([H])([H])C([H])([H])C([H])(n3nc(-c4c([H])c([H])c(Oc5c([H])c([H])c(F)c([H])c5F)c([H])c4[H])c(C(=O)N([H])[H])c3N([H])[H])C2([H])[H])c([H])c([H])c1C([H])=C([H])C([H])([H])C(=C([H])C([H])([H])Oc1c([H])c([H])c2c(c1[H])C([H])([H])N(C(=O)C([H])(N([H])C(=O)C([H])(N([H])C([H])([H])[H])C([H])([H])[H])C(C([H])([H])[H])(C([H])([H])[H])C([H])([H])[H])C([H])(C(=O)N([H])C1([H])c3c([H])c([H])c([H])c([H])c3C([H])([H])C([H])([H])C1([H])[H])C2([H])[H])C([H])([H])[H]

>  <smiles>  (17) 
[H]C([H])=C([H])c1c([H])c(N([H])C(=O)N2C([H])([H])C([H])([H])C([H])([H])C([H])(n3nc(-c4c([H])c([H])c(Oc5c([H])c([H])c(F)c([H])c5F)c([H])c4[H])c(C(=O)N([H])[H])c3N([H])[H])C2([H])[H])c([H])c([H])c1C([H])=C([H])C([H])([H])C(=C([H])C([H])([H])Oc1c([H])c([H])c2c(c1[H])C([H])([H])N(C(=O)C([H])(N([H])C(=O)C([H])(N([H])C([H])([H])[H])C([H])([H])[H])C(C([H])([H])[H])(C([H])([H])[H])C([H])([H])[H])C([H])(C(=O)N([H])C1([H])c3c([H])c([H])c([H])c([H])c3C([H])([H])C([H])([H])C1([H])[H])C2([H])[H])C([H])([H])[H]

$$$$
17:0:0
     RDKit          3D

 92100  0  0  1  0  0  0  0  0999 V2000
  -31.0620  -17.9220   20.0220 C   0  0  0  0  0  3  0  0  0  0  0  0
  -28.6740  -19.3680   20.2110 C   0  0  0  0  0  3  0  0  0  0  0  0
  -31.0570  -19.3460   19.8940 C   0  0  0  0  0  0  0  0  0  0  0  0
  -28.6840  -17.9460   20.3910 C   0  0  0  0  0  0  0  0  0  0  0  0
  -29.8830  -17.1720   20.2670 C   0  0  0  0  0  0  0  0  0  0  0  0
  -29.8580  -20.1130   19.9540 C   0  0  0  0  0  0  0  0  0  0  0  0
  -32.3920  -20.0480   19.7010 C   0  0  0  0  0  1  0  0  0  0  0  0
  -27.3660  -17.2800   20.7680 C   0  0  0  0  0  1  0  0  0  0  0  0
  -30.6030  -14.6770   19.8910 C   0  0  0  0  0  0  0  0  0  0  0  0
  -30.3490  -12.4360   18.8270 C   0  0  0  0  0  2  0  0  0  0  0  0
  -29.3250  -12.5540   17.6770 C   0  0  0  0  0  2  0  0  0  0  0  0
  -27.8840  -12.3820   18.1990 C   0  0  0  0  0  2  0  0  0  0  0  0
  -27.5990  -13.2390   19.4610 C   0  0  0  0  0  3  0  0  0  0  0  0
  -28.7300  -13.0840   20.5050 C   0  0  0  0  0  2  0  0  0  0  0  0
  -29.9960  -13.4450   19.8490 N   0  0  0  0  0  0  0  0  0  0  0  0
  -31.7210  -14.8500   19.3990 O   0  0  0  0  0  0  0  0  0  0  0  0
  -29.8360  -15.7050   20.3890 N   0  0  0  0  0  0  0  0  0  0  0  0
  -28.9890  -15.3620   20.8130 H   0  0  0  0  0  0  0  0  0  0  0  0
  -25.2610  -13.8230   20.3520 C   0  0  0  0  0  0  0  0  0  0  0  0
  -24.2240  -13.0440   20.7890 C   0  0  0  0  0  0  0  0  0  0  0  0
  -24.6780  -11.6920   20.6900 C   0  0  0  0  0  0  0  0  0  0  0  0
  -26.2860  -12.9470   20.0300 N   0  0  0  0  0  0  0  0  0  0  0  0
  -25.9430  -11.6590   20.2890 N   0  0  0  0  0  0  0  0  0  0  0  0
  -23.9610  -10.4270   20.9000 C   0  0  0  0  0  0  0  0  0  0  0  0
  -24.4160   -9.4650   21.8290 C   0  0  0  0  0  3  0  0  0  0  0  0
  -23.7000   -8.2640   22.0250 C   0  0  0  0  0  3  0  0  0  0  0  0
  -22.5130   -8.0180   21.2940 C   0  0  0  0  0  0  0  0  0  0  0  0
  -22.0780   -8.9690   20.3560 C   0  0  0  0  0  3  0  0  0  0  0  0
  -22.7950  -10.1610   20.1560 C   0  0  0  0  0  3  0  0  0  0  0  0
  -21.7670   -6.8680   21.4020 O   0  0  0  0  0  0  0  0  0  0  0  0
  -21.6980   -6.1620   22.5750 C   0  0  0  0  0  0  0  0  0  0  0  0
  -21.2090   -6.7420   23.7670 C   0  0  0  0  0  3  0  0  0  0  0  0
  -21.0880   -5.9610   24.9330 C   0  0  0  0  0  3  0  0  0  0  0  0
  -21.4470   -4.6000   24.9090 C   0  0  0  0  0  0  0  0  0  0  0  0
  -21.9280   -4.0180   23.7220 C   0  0  0  0  0  3  0  0  0  0  0  0
  -22.0510   -4.7970   22.5590 C   0  0  0  0  0  0  0  0  0  0  0  0
  -22.4950   -4.2270   21.4130 F   0  0  0  0  0  0  0  0  0  0  0  0
  -21.3230   -3.8470   26.0270 F   0  0  0  0  0  0  0  0  0  0  0  0
  -22.8510  -13.5180   21.1710 C   0  0  0  0  0  0  0  0  0  0  0  0
  -22.1910  -12.8140   22.0840 N   0  0  0  0  0  0  0  0  0  0  0  0
  -22.3750  -14.5470   20.6940 O   0  0  0  0  0  0  0  0  0  0  0  0
  -22.5880  -11.9800   22.4910 H   0  0  0  0  0  0  0  0  0  0  0  0
  -21.2720  -13.1100   22.3780 H   0  0  0  0  0  0  0  0  0  0  0  0
  -25.4080  -15.1950   20.1730 N   0  0  0  0  0  0  0  0  0  0  0  0
  -24.6390  -15.8390   20.3280 H   0  0  0  0  0  0  0  0  0  0  0  0
  -26.1900  -15.6290   19.6990 H   0  0  0  0  0  0  0  0  0  0  0  0
  -29.9330  -21.5180   19.8060 O   0  0  0  0  0  0  0  0  0  0  0  0
  -28.7580  -22.3990   19.7650 C   0  0  0  0  0  2  0  0  0  0  0  0
  -29.1080  -23.9490   19.8130 C   0  0  0  0  0  0  0  0  0  0  0  0
  -30.2540  -24.3250   20.0890 O   0  0  0  0  0  0  0  0  0  0  0  0
  -27.9780  -25.0060   19.5010 C   0  0  0  0  0  2  0  0  0  0  0  0
  -28.2470  -26.4400   19.7940 O   0  0  0  0  0  0  0  0  0  0  0  0
  -24.4980  -31.6780   23.0710 C   0  0  0  0  0  0  0  0  0  0  0  0
  -27.1300  -27.2960   19.7820 C   0  0  0  0  0  0  0  0  0  0  0  0
  -23.2950  -30.3470   21.3770 C   0  0  0  0  0  3  0  0  0  0  0  0
  -24.7490  -28.8890   19.8660 C   0  0  0  0  0  0  0  0  0  0  0  0
  -25.8300  -30.7030   21.1880 C   0  0  0  0  0  2  0  0  0  0  0  0
  -25.9200  -29.3570   20.4770 C   0  0  0  0  0  0  0  0  0  0  0  0
  -27.1130  -28.5740   20.4260 C   0  0  0  0  0  3  0  0  0  0  0  0
  -25.9330  -26.8910   19.1430 C   0  0  0  0  0  3  0  0  0  0  0  0
  -24.7600  -27.6630   19.1890 C   0  0  0  0  0  3  0  0  0  0  0  0
  -23.5040  -29.7460   19.9640 C   0  0  0  0  0  2  0  0  0  0  0  0
  -24.5610  -30.9240   21.9370 N   0  0  0  0  0  0  0  0  0  0  0  0
  -23.4160  -31.9180   23.6260 O   0  0  0  0  0  0  0  0  0  0  0  0
  -22.6520  -29.2760   22.2920 C   0  0  0  0  0  0  0  0  0  0  0  0
  -21.3250  -29.1030   22.1810 N   0  0  0  0  0  0  0  0  0  0  0  0
  -23.3460  -28.6060   23.0610 O   0  0  0  0  0  0  0  0  0  0  0  0
  -20.8240  -29.6930   21.5310 H   0  0  0  0  0  0  0  0  0  0  0  0
  -17.9500  -27.9040   22.7010 C   0  0  0  0  0  0  0  0  0  0  0  0
  -20.5170  -28.1280   22.9170 C   0  0  0  0  0  3  0  0  0  0  0  0
  -20.5910  -26.7330   22.2540 C   0  0  0  0  0  2  0  0  0  0  0  0
  -19.4590  -26.4820   21.2530 C   0  0  0  0  0  2  0  0  0  0  0  0
  -18.0960  -26.5970   21.9420 C   0  0  0  0  0  2  0  0  0  0  0  0
  -19.0870  -28.6300   23.1460 C   0  0  0  0  0  0  0  0  0  0  0  0
  -18.8950  -29.8570   23.8200 C   0  0  0  0  0  3  0  0  0  0  0  0
  -17.5990  -30.3570   24.0510 C   0  0  0  0  0  3  0  0  0  0  0  0
  -16.4770  -29.6260   23.6210 C   0  0  0  0  0  3  0  0  0  0  0  0
  -16.6540  -28.4020   22.9520 C   0  0  0  0  0  3  0  0  0  0  0  0
  -25.7790  -32.2930   23.7120 C   0  0  0  0  0  3  0  0  0  0  0  0
  -26.2850  -31.4960   24.9770 C   0  0  1  0  0  0  0  0  0  0  0  0
  -25.1870  -31.2550   26.0400 C   0  0  0  0  0  1  0  0  0  0  0  0
  -26.8490  -30.1170   24.5640 C   0  0  0  0  0  1  0  0  0  0  0  0
  -27.4460  -32.2640   25.6500 C   0  0  0  0  0  1  0  0  0  0  0  0
  -25.4710  -33.6860   24.0660 N   0  0  0  0  0  0  0  0  0  0  0  0
  -25.7940  -34.7520   23.3210 C   0  0  0  0  0  0  0  0  0  0  0  0
  -26.4530  -34.6650   22.2810 O   0  0  0  0  0  0  0  0  0  0  0  0
  -24.8820  -33.8270   24.8750 H   0  0  0  0  0  0  0  0  0  0  0  0
  -24.0560  -36.5440   23.0200 C   0  0  0  0  0  1  0  0  0  0  0  0
  -25.3120  -36.1330   23.8050 C   0  0  0  0  0  3  0  0  0  0  0  0
  -27.4520  -37.0140   24.6210 C   0  0  0  0  0  1  0  0  0  0  0  0
  -26.3400  -37.1890   23.6910 N   0  0  0  0  0  0  0  0  0  0  0  0
  -25.9330  -38.1060   23.8500 H   0  0  0  0  0  0  0  0  0  0  0  0
  1  5  1  0
  2  4  1  0
  3  6  1  0
  3  1  2  0
  4  8  1  0
  5 17  1  0
  5  4  2  0
  6  2  2  0
  7  3  1  0
  9 17  1  0
 10 15  1  0
 11 12  1  0
 11 10  1  0
 13 12  1  0
 13 22  1  0
 13 14  1  0
 15  9  1  0
 15 14  1  0
 16  9  2  0
 17 18  1  0
 19 20  2  0
 20 39  1  0
 21 20  1  0
 21 24  1  0
 22 23  1  0
 22 19  1  0
 23 21  2  0
 24 25  1  0
 25 26  2  0
 27 30  1  0
 27 26  1  0
 28 27  2  0
 29 28  1  0
 29 24  2  0
 30 31  1  0
 31 32  1  0
 32 33  2  0
 34 33  1  0
 34 38  1  0
 35 34  2  0
 36 31  2  0
 36 35  1  0
 37 36  1  0
 39 40  1  0
 40 43  1  0
 40 42  1  0
 41 39  2  0
 44 45  1  0
 44 19  1  0
 46 44  1  0
 47  6  1  0
 48 47  1  0
 48 49  1  0
 49 50  2  0
 51 52  1  0
 51 49  1  0
 53 64  2  0
 54 52  1  0
 54 59  1  0
 55 63  1  0
 55 65  1  0
 56 62  1  0
 56 58  1  0
 57 63  1  0
 58 57  1  0
 59 58  2  0
 60 61  1  0
 60 54  2  0
 61 56  2  0
 62 55  1  0
 63 53  1  0
 65 67  2  0
 66 65  1  0
 68 66  1  0
 69 78  2  0
 69 74  1  0
 70 66  1  0
 70 74  1  0
 71 70  1  0
 72 73  1  0
 72 71  1  0
 73 69  1  0
 74 75  2  0
 75 76  1  0
 77 76  2  0
 78 77  1  0
 79 53  1  0
 79 84  1  0
 79 80  1  0
 80 83  1  1
 80 81  1  0
 82 80  1  0
 84 87  1  0
 85 89  1  0
 85 84  1  0
 86 85  2  0
 89 88  1  0
 91 89  1  0
 91 92  1  0
 91 90  1  0
M  ISO  4   9 100  17 100  51 101  52 101
M  END
>  <TORSDO>  (18) 
F 20

>  <SCORE>  (18) 
-13.042

>  <name>  (18) 
17

>  <ligand_id>  (18) 
17

>  <original_smiles>  (18) 
[H]c1c([H])c([H])c2c(c1[H])C([H])([H])C([H])([H])C([H])([H])C2([H])N([H])C(=O)C1([H])N(C(=O)C([H])(N([H])C(=O)C([H])(N([H])C([H])([H])[H])C([H])([H])[H])C(C([H])([H])[H])(C([H])([H])[H])C([H])([H])[H])C([H])([H])c2c([H])c(OC([H])([H])C(=O)C([H])([H])Oc3c([H])c(C([H])([H])[H])c(N([H])C(=O)N4C([H])([H])C([H])([H])C([H])([H])C([H])(n5nc(-c6c([H])c([H])c(Oc7c([H])c([H])c(F)c([H])c7F)c([H])c6[H])c(C(=O)N([H])[H])c5N([H])[H])C4([H])[H])c([H])c3C([H])([H])[H])c([H])c([H])c2C1([H])[H]

>  <smiles>  (18) 
[H]c1c([H])c([H])c2c(c1[H])C([H])([H])C([H])([H])C([H])([H])C2([H])N([H])C(=O)C1([H])N(C(=O)C([H])(N([H])C(=O)C([H])(N([H])C([H])([H])[H])C([H])([H])[H])C(C([H])([H])[H])(C([H])([H])[H])C([H])([H])[H])C([H])([H])c2c([H])c(OC([H])([H])C(=O)C([H])([H])Oc3c([H])c(C([H])([H])[H])c(N([H])C(=O)N4C([H])([H])C([H])([H])C([H])([H])C([H])(n5nc(-c6c([H])c([H])c(Oc7c([H])c([H])c(F)c([H])c7F)c([H])c6[H])c(C(=O)N([H])[H])c5N([H])[H])C4([H])[H])c([H])c3C([H])([H])[H])c([H])c([H])c2C1([H])[H]

$$$$
18:0:0
     RDKit          3D

 92100  0  0  1  0  0  0  0  0999 V2000
  -29.4480  -20.7080   19.9370 C   0  0  0  0  0  3  0  0  0  0  0  0
  -29.7790  -22.0110   19.7560 C   0  0  0  0  0  3  0  0  0  0  0  0
  -31.7110  -19.7720   20.5870 C   0  0  0  0  0  3  0  0  0  0  0  0
  -29.8460  -18.2430   20.2410 C   0  0  0  0  0  3  0  0  0  0  0  0
  -32.0540  -17.3620   20.7790 C   0  0  0  0  0  3  0  0  0  0  0  0
  -30.3440  -19.5730   20.2800 C   0  0  0  0  0  0  0  0  0  0  0  0
  -32.5620  -18.6750   20.8350 C   0  0  0  0  0  0  0  0  0  0  0  0
  -30.6940  -17.1290   20.4750 C   0  0  0  0  0  0  0  0  0  0  0  0
  -34.0330  -18.9040   21.1380 C   0  0  0  0  0  1  0  0  0  0  0  0
  -30.8490  -14.7030   20.0050 C   0  0  0  0  0  0  0  0  0  0  0  0
  -30.5010  -12.4600   19.0510 C   0  0  0  0  0  2  0  0  0  0  0  0
  -29.5250  -12.5610   17.8630 C   0  0  0  0  0  2  0  0  0  0  0  0
  -28.0700  -12.4380   18.3560 C   0  0  0  0  0  2  0  0  0  0  0  0
  -27.7600  -13.3640   19.5650 C   0  0  0  0  0  3  0  0  0  0  0  0
  -28.8620  -13.2790   20.6460 C   0  0  0  0  0  2  0  0  0  0  0  0
  -30.1560  -13.5330   19.9950 N   0  0  0  0  0  0  0  0  0  0  0  0
  -31.9680  -14.8070   19.4990 O   0  0  0  0  0  0  0  0  0  0  0  0
  -30.1770  -15.7950   20.4200 N   0  0  0  0  0  0  0  0  0  0  0  0
  -29.1950  -15.6680   20.6140 H   0  0  0  0  0  0  0  0  0  0  0  0
  -25.4260  -13.9860   20.4470 C   0  0  0  0  0  0  0  0  0  0  0  0
  -24.3610  -13.2200   20.8390 C   0  0  0  0  0  0  0  0  0  0  0  0
  -24.7850  -11.8610   20.7160 C   0  0  0  0  0  0  0  0  0  0  0  0
  -26.4320  -13.0940   20.1130 N   0  0  0  0  0  0  0  0  0  0  0  0
  -26.0550  -11.8080   20.3330 N   0  0  0  0  0  0  0  0  0  0  0  0
  -24.0390  -10.6090   20.8850 C   0  0  0  0  0  0  0  0  0  0  0  0
  -24.4520   -9.6190   21.8050 C   0  0  0  0  0  3  0  0  0  0  0  0
  -23.7060   -8.4320   21.9620 C   0  0  0  0  0  3  0  0  0  0  0  0
  -22.5320   -8.2250   21.2000 C   0  0  0  0  0  0  0  0  0  0  0  0
  -22.1390   -9.2010   20.2680 C   0  0  0  0  0  3  0  0  0  0  0  0
  -22.8850  -10.3810   20.1100 C   0  0  0  0  0  3  0  0  0  0  0  0
  -21.7580   -7.0910   21.2670 O   0  0  0  0  0  0  0  0  0  0  0  0
  -21.6380   -6.3710   22.4290 C   0  0  0  0  0  0  0  0  0  0  0  0
  -21.1060   -6.9400   23.6060 C   0  0  0  0  0  3  0  0  0  0  0  0
  -20.9360   -6.1430   24.7570 C   0  0  0  0  0  3  0  0  0  0  0  0
  -21.2860   -4.7800   24.7290 C   0  0  0  0  0  0  0  0  0  0  0  0
  -21.8090   -4.2120   23.5550 C   0  0  0  0  0  3  0  0  0  0  0  0
  -21.9810   -5.0050   22.4080 C   0  0  0  0  0  0  0  0  0  0  0  0
  -22.4670   -4.4450   21.2720 F   0  0  0  0  0  0  0  0  0  0  0  0
  -21.1150   -4.0140   25.8320 F   0  0  0  0  0  0  0  0  0  0  0  0
  -22.9950  -13.7160   21.2140 C   0  0  0  0  0  0  0  0  0  0  0  0
  -22.3000  -12.9940   22.0870 N   0  0  0  0  0  0  0  0  0  0  0  0
  -22.5540  -14.7760   20.7710 O   0  0  0  0  0  0  0  0  0  0  0  0
  -22.6690  -12.1340   22.4650 H   0  0  0  0  0  0  0  0  0  0  0  0
  -21.3870  -13.3060   22.3830 H   0  0  0  0  0  0  0  0  0  0  0  0
  -25.6130  -15.3600   20.3230 N   0  0  0  0  0  0  0  0  0  0  0  0
  -24.8660  -16.0220   20.5000 H   0  0  0  0  0  0  0  0  0  0  0  0
  -26.4450  -15.7960   19.9460 H   0  0  0  0  0  0  0  0  0  0  0  0
  -28.7760  -23.0840   19.3150 C   0  0  0  0  0  2  0  0  0  0  0  0
  -28.9380  -24.4960   19.9220 C   0  0  0  0  0  0  0  0  0  0  0  0
  -29.8780  -24.7990   20.6650 O   0  0  0  0  0  0  0  0  0  0  0  0
  -27.8310  -25.4980   19.5290 C   0  0  0  0  0  2  0  0  0  0  0  0
  -28.0360  -26.8640   19.9660 O   0  0  0  0  0  0  0  0  0  0  0  0
  -24.5790  -32.0820   23.4270 C   0  0  0  0  0  0  0  0  0  0  0  0
  -26.8990  -27.6640   20.0230 C   0  0  0  0  0  0  0  0  0  0  0  0
  -23.2360  -30.7720   21.8200 C   0  0  0  0  0  3  0  0  0  0  0  0
  -24.5550  -29.2610   20.2440 C   0  0  0  0  0  0  0  0  0  0  0  0
  -25.7580  -31.0640   21.4770 C   0  0  0  0  0  2  0  0  0  0  0  0
  -25.7650  -29.7160   20.7820 C   0  0  0  0  0  0  0  0  0  0  0  0
  -26.9370  -28.9240   20.6730 C   0  0  0  0  0  3  0  0  0  0  0  0
  -25.6640  -27.2510   19.4600 C   0  0  0  0  0  3  0  0  0  0  0  0
  -24.5020  -28.0290   19.5790 C   0  0  0  0  0  3  0  0  0  0  0  0
  -23.3410  -30.1490   20.4040 C   0  0  0  0  0  2  0  0  0  0  0  0
  -24.5470  -31.3170   22.2990 N   0  0  0  0  0  0  0  0  0  0  0  0
  -23.5410  -32.3590   24.0450 O   0  0  0  0  0  0  0  0  0  0  0  0
  -22.6200  -29.7300   22.7790 C   0  0  0  0  0  0  0  0  0  0  0  0
  -21.3160  -29.4590   22.6130 N   0  0  0  0  0  0  0  0  0  0  0  0
  -23.3130  -29.1660   23.6310 O   0  0  0  0  0  0  0  0  0  0  0  0
  -20.8160  -29.9670   21.8980 H   0  0  0  0  0  0  0  0  0  0  0  0
  -18.0450  -27.9490   22.9280 C   0  0  0  0  0  0  0  0  0  0  0  0
  -20.5340  -28.4890   23.3800 C   0  0  0  0  0  3  0  0  0  0  0  0
  -20.8260  -27.0450   22.9090 C   0  0  0  0  0  2  0  0  0  0  0  0
  -19.8500  -26.5500   21.8380 C   0  0  0  0  0  2  0  0  0  0  0  0
  -18.4100  -26.5880   22.3610 C   0  0  0  0  0  2  0  0  0  0  0  0
  -19.0430  -28.8470   23.3920 C   0  0  0  0  0  0  0  0  0  0  0  0
  -18.6520  -30.1130   23.8780 C   0  0  0  0  0  3  0  0  0  0  0  0
  -17.2960  -30.4870   23.9070 C   0  0  0  0  0  3  0  0  0  0  0  0
  -16.3110  -29.5880   23.4620 C   0  0  0  0  0  3  0  0  0  0  0  0
  -16.6860  -28.3220   22.9780 C   0  0  0  0  0  3  0  0  0  0  0  0
  -25.9160  -32.6600   23.9840 C   0  0  0  0  0  3  0  0  0  0  0  0
  -26.4700  -31.8580   25.2260 C   0  0  1  0  0  0  0  0  0  0  0  0
  -25.4110  -31.6070   26.3250 C   0  0  0  0  0  1  0  0  0  0  0  0
  -27.0260  -30.4840   24.7860 C   0  0  0  0  0  1  0  0  0  0  0  0
  -27.6500  -32.6280   25.8630 C   0  0  0  0  0  1  0  0  0  0  0  0
  -25.6790  -34.0650   24.3370 N   0  0  0  0  0  0  0  0  0  0  0  0
  -25.9770  -35.1080   23.5500 C   0  0  0  0  0  0  0  0  0  0  0  0
  -26.5560  -34.9840   22.4670 O   0  0  0  0  0  0  0  0  0  0  0  0
  -25.1580  -34.2380   25.1840 H   0  0  0  0  0  0  0  0  0  0  0  0
  -24.2580  -36.9340   23.3560 C   0  0  0  0  0  1  0  0  0  0  0  0
  -25.5670  -36.5090   24.0410 C   0  0  0  0  0  3  0  0  0  0  0  0
  -27.7870  -37.3580   24.6520 C   0  0  0  0  0  1  0  0  0  0  0  0
  -26.6050  -37.5390   23.8160 N   0  0  0  0  0  0  0  0  0  0  0  0
  -26.2330  -38.4690   23.9900 H   0  0  0  0  0  0  0  0  0  0  0  0
  1  6  1  0
  2  1  2  0
  3  7  1  0
  4  6  1  0
  4  8  2  0
  5  7  2  0
  6  3  2  0
  7  9  1  0
  8  5  1  0
 10 18  1  0
 11 16  1  0
 12 13  1  0
 12 11  1  0
 14 13  1  0
 14 23  1  0
 14 15  1  0
 16 10  1  0
 16 15  1  0
 17 10  2  0
 18  8  1  0
 18 19  1  0
 20 21  2  0
 21 40  1  0
 22 21  1  0
 22 25  1  0
 23 24  1  0
 23 20  1  0
 24 22  2  0
 25 26  1  0
 26 27  2  0
 28 31  1  0
 28 27  1  0
 29 28  2  0
 30 29  1  0
 30 25  2  0
 31 32  1  0
 32 33  1  0
 33 34  2  0
 35 34  1  0
 35 39  1  0
 36 35  2  0
 37 32  2  0
 37 36  1  0
 38 37  1  0
 40 41  1  0
 41 44  1  0
 41 43  1  0
 42 40  2  0
 45 20  1  0
 45 46  1  0
 47 45  1  0
 48  2  1  0
 48 49  1  0
 49 50  2  0
 51 49  1  0
 51 52  1  0
 52 54  1  0
 53 64  2  0
 54 59  1  0
 55 63  1  0
 55 65  1  0
 56 62  1  0
 56 58  1  0
 57 63  1  0
 58 57  1  0
 59 58  2  0
 60 61  1  0
 60 54  2  0
 61 56  2  0
 62 55  1  0
 63 53  1  0
 65 67  2  0
 66 65  1  0
 68 66  1  0
 69 78  2  0
 69 74  1  0
 70 66  1  0
 70 74  1  0
 71 70  1  0
 72 73  1  0
 72 71  1  0
 73 69  1  0
 74 75  2  0
 75 76  1  0
 77 76  2  0
 78 77  1  0
 79 53  1  0
 79 84  1  0
 79 80  1  0
 80 83  1  1
 80 81  1  0
 82 80  1  0
 84 87  1  0
 85 89  1  0
 85 84  1  0
 86 85  2  0
 89 88  1  0
 91 92  1  0
 91 89  1  0
 91 90  1  0
M  ISO  4  10 100  18 100  51 101  52 101
M  END
>  <TORSDO>  (19) 
F 20

>  <SCORE>  (19) 
-13.342

>  <name>  (19) 
18

>  <ligand_id>  (19) 
18

>  <original_smiles>  (19) 
[H]C(=C([H])C([H])([H])C(=O)C([H])([H])Oc1c([H])c([H])c2c(c1[H])C([H])([H])N(C(=O)C([H])(N([H])C(=O)C([H])(N([H])C([H])([H])[H])C([H])([H])[H])C(C([H])([H])[H])(C([H])([H])[H])C([H])([H])[H])C([H])(C(=O)N([H])C1([H])c3c([H])c([H])c([H])c([H])c3C([H])([H])C([H])([H])C1([H])[H])C2([H])[H])c1c([H])c(N([H])C(=O)N2C([H])([H])C([H])([H])C([H])([H])C([H])(n3nc(-c4c([H])c([H])c(Oc5c([H])c([H])c(F)c([H])c5F)c([H])c4[H])c(C(=O)N([H])[H])c3N([H])[H])C2([H])[H])c([H])c(C([H])([H])[H])c1[H]

>  <smiles>  (19) 
[H]C(=C([H])C([H])([H])C(=O)C([H])([H])Oc1c([H])c([H])c2c(c1[H])C([H])([H])N(C(=O)C([H])(N([H])C(=O)C([H])(N([H])C([H])([H])[H])C([H])([H])[H])C(C([H])([H])[H])(C([H])([H])[H])C([H])([H])[H])C([H])(C(=O)N([H])C1([H])c3c([H])c([H])c([H])c([H])c3C([H])([H])C([H])([H])C1([H])[H])C2([H])[H])c1c([H])c(N([H])C(=O)N2C([H])([H])C([H])([H])C([H])([H])C([H])(n3nc(-c4c([H])c([H])c(Oc5c([H])c([H])c(F)c([H])c5F)c([H])c4[H])c(C(=O)N([H])[H])c3N([H])[H])C2([H])[H])c([H])c(C([H])([H])[H])c1[H]

$$$$
19:0:0
     RDKit          3D

 91 99  0  0  1  0  0  0  0  0999 V2000
  -28.9990  -21.1790   20.0990 C   0  0  0  0  0  3  0  0  0  0  0  0
  -29.0950  -22.4820   20.5770 C   0  0  0  0  0  3  0  0  0  0  0  0
  -31.6600  -18.9590   21.7740 C   0  0  0  0  0  3  0  0  0  0  0  0
  -30.8850  -20.0530   21.3440 C   0  0  0  0  0  3  0  0  0  0  0  0
  -31.3020  -17.6340   21.4620 C   0  0  0  0  0  3  0  0  0  0  0  0
  -29.7200  -19.8830   20.5660 C   0  0  0  0  0  0  0  0  0  0  0  0
  -29.3500  -18.4960   20.2770 C   0  0  0  0  0  0  0  0  0  0  0  0
  -30.1420  -17.3410   20.7140 C   0  0  0  0  0  0  0  0  0  0  0  0
  -28.0910  -18.2530   19.4610 C   0  0  0  0  0  1  0  0  0  0  0  0
  -30.5860  -14.7740   20.3700 C   0  0  0  0  0  0  0  0  0  0  0  0
  -30.3900  -12.5020   19.3410 C   0  0  0  0  0  2  0  0  0  0  0  0
  -29.4440  -12.5700   18.1230 C   0  0  0  0  0  2  0  0  0  0  0  0
  -27.9780  -12.3850   18.5630 C   0  0  0  0  0  2  0  0  0  0  0  0
  -27.6040  -13.2710   19.7810 C   0  0  0  0  0  3  0  0  0  0  0  0
  -28.6690  -13.1920   20.8950 C   0  0  0  0  0  2  0  0  0  0  0  0
  -29.9570  -13.5530   20.2890 N   0  0  0  0  0  0  0  0  0  0  0  0
  -31.7820  -14.8640   20.0780 O   0  0  0  0  0  0  0  0  0  0  0  0
  -29.7910  -15.9080   20.5070 N   0  0  0  0  0  0  0  0  0  0  0  0
  -28.8030  -15.7110   20.4880 H   0  0  0  0  0  0  0  0  0  0  0  0
  -25.2180  -13.8470   20.5290 C   0  0  0  0  0  0  0  0  0  0  0  0
  -24.1590  -13.0650   20.9030 C   0  0  0  0  0  0  0  0  0  0  0  0
  -24.6300  -11.7170   20.8650 C   0  0  0  0  0  0  0  0  0  0  0  0
  -26.2650  -12.9740   20.2820 N   0  0  0  0  0  0  0  0  0  0  0  0
  -25.9190  -11.6880   20.5480 N   0  0  0  0  0  0  0  0  0  0  0  0
  -23.9120  -10.4500   21.0520 C   0  0  0  0  0  0  0  0  0  0  0  0
  -24.3540   -9.4790   21.9780 C   0  0  0  0  0  3  0  0  0  0  0  0
  -23.6350   -8.2780   22.1540 C   0  0  0  0  0  3  0  0  0  0  0  0
  -22.4590   -8.0380   21.4030 C   0  0  0  0  0  0  0  0  0  0  0  0
  -22.0370   -8.9970   20.4660 C   0  0  0  0  0  3  0  0  0  0  0  0
  -22.7570  -10.1900   20.2880 C   0  0  0  0  0  3  0  0  0  0  0  0
  -21.7110   -6.8890   21.4880 O   0  0  0  0  0  0  0  0  0  0  0  0
  -21.6730   -6.1390   22.6350 C   0  0  0  0  0  0  0  0  0  0  0  0
  -21.2440   -6.6800   23.8670 C   0  0  0  0  0  3  0  0  0  0  0  0
  -21.1540   -5.8550   25.0060 C   0  0  0  0  0  3  0  0  0  0  0  0
  -21.4830   -4.4900   24.9150 C   0  0  0  0  0  0  0  0  0  0  0  0
  -21.9060   -3.9480   23.6890 C   0  0  0  0  0  3  0  0  0  0  0  0
  -21.9970   -4.7700   22.5510 C   0  0  0  0  0  0  0  0  0  0  0  0
  -22.3850   -4.2380   21.3670 F   0  0  0  0  0  0  0  0  0  0  0  0
  -21.3900   -3.6950   26.0060 F   0  0  0  0  0  0  0  0  0  0  0  0
  -22.7600  -13.5340   21.1810 C   0  0  0  0  0  0  0  0  0  0  0  0
  -22.0360  -12.8280   22.0420 N   0  0  0  0  0  0  0  0  0  0  0  0
  -22.3170  -14.5610   20.6680 O   0  0  0  0  0  0  0  0  0  0  0  0
  -22.4070  -11.9970   22.4790 H   0  0  0  0  0  0  0  0  0  0  0  0
  -21.0980  -13.1250   22.2690 H   0  0  0  0  0  0  0  0  0  0  0  0
  -25.3690  -15.2190   20.3550 N   0  0  0  0  0  0  0  0  0  0  0  0
  -24.5880  -15.8580   20.4640 H   0  0  0  0  0  0  0  0  0  0  0  0
  -26.1940  -15.6660   19.9830 H   0  0  0  0  0  0  0  0  0  0  0  0
  -28.4640  -23.7630   19.9800 C   0  0  0  0  0  0  0  0  0  0  0  0
  -28.1100  -23.7850   18.7970 O   0  0  0  0  0  0  0  0  0  0  0  0
  -28.2190  -25.0930   20.8400 C   0  0  0  0  0  2  0  0  0  0  0  0
  -28.3400  -26.4400   20.1860 O   0  0  0  0  0  0  0  0  0  0  0  0
  -24.6160  -31.9040   23.2230 C   0  0  0  0  0  0  0  0  0  0  0  0
  -27.2290  -27.3060   20.1990 C   0  0  0  0  0  0  0  0  0  0  0  0
  -23.4150  -30.4980   21.5870 C   0  0  0  0  0  3  0  0  0  0  0  0
  -24.8670  -28.9310   20.1750 C   0  0  0  0  0  0  0  0  0  0  0  0
  -25.9550  -30.8100   21.4050 C   0  0  0  0  0  2  0  0  0  0  0  0
  -26.0390  -29.4230   20.7670 C   0  0  0  0  0  0  0  0  0  0  0  0
  -27.2260  -28.6250   20.7630 C   0  0  0  0  0  3  0  0  0  0  0  0
  -26.0370  -26.8680   19.5890 C   0  0  0  0  0  3  0  0  0  0  0  0
  -24.8700  -27.6620   19.5730 C   0  0  0  0  0  3  0  0  0  0  0  0
  -23.6320  -29.8110   20.2120 C   0  0  0  0  0  2  0  0  0  0  0  0
  -24.6810  -31.0890   22.1280 N   0  0  0  0  0  0  0  0  0  0  0  0
  -23.5310  -32.1830   23.7550 O   0  0  0  0  0  0  0  0  0  0  0  0
  -22.7480  -29.4900   22.5530 C   0  0  0  0  0  0  0  0  0  0  0  0
  -21.4220  -29.3130   22.4260 N   0  0  0  0  0  0  0  0  0  0  0  0
  -23.4250  -28.8660   23.3750 O   0  0  0  0  0  0  0  0  0  0  0  0
  -20.9350  -29.8660   21.7350 H   0  0  0  0  0  0  0  0  0  0  0  0
  -18.0420  -28.1290   22.9380 C   0  0  0  0  0  0  0  0  0  0  0  0
  -20.6020  -28.3780   23.1990 C   0  0  0  0  0  3  0  0  0  0  0  0
  -20.6970  -26.9460   22.6240 C   0  0  0  0  0  2  0  0  0  0  0  0
  -19.5900  -26.6280   21.6130 C   0  0  0  0  0  2  0  0  0  0  0  0
  -18.2120  -26.7790   22.2620 C   0  0  0  0  0  2  0  0  0  0  0  0
  -19.1640  -28.8870   23.3640 C   0  0  0  0  0  0  0  0  0  0  0  0
  -18.9510  -30.1500   23.9560 C   0  0  0  0  0  3  0  0  0  0  0  0
  -17.6490  -30.6550   24.1280 C   0  0  0  0  0  3  0  0  0  0  0  0
  -16.5410  -29.8940   23.7170 C   0  0  0  0  0  3  0  0  0  0  0  0
  -16.7370  -28.6330   23.1270 C   0  0  0  0  0  3  0  0  0  0  0  0
  -25.8960  -32.5390   23.8460 C   0  0  0  0  0  3  0  0  0  0  0  0
  -26.4090  -31.7750   25.1280 C   0  0  1  0  0  0  0  0  0  0  0  0
  -25.3130  -31.5440   26.1940 C   0  0  0  0  0  1  0  0  0  0  0  0
  -26.9920  -30.3940   24.7450 C   0  0  0  0  0  1  0  0  0  0  0  0
  -27.5590  -32.5710   25.7880 C   0  0  0  0  0  1  0  0  0  0  0  0
  -25.5850  -33.9390   24.1710 N   0  0  0  0  0  0  0  0  0  0  0  0
  -25.9230  -34.9900   23.4130 C   0  0  0  0  0  0  0  0  0  0  0  0
  -26.5960  -34.8840   22.3840 O   0  0  0  0  0  0  0  0  0  0  0  0
  -24.9880  -34.0950   24.9690 H   0  0  0  0  0  0  0  0  0  0  0  0
  -24.2050  -36.7910   23.0430 C   0  0  0  0  0  1  0  0  0  0  0  0
  -25.4360  -36.3810   23.8660 C   0  0  0  0  0  3  0  0  0  0  0  0
  -27.5660  -37.2580   24.7200 C   0  0  0  0  0  1  0  0  0  0  0  0
  -26.4750  -37.4300   23.7640 N   0  0  0  0  0  0  0  0  0  0  0  0
  -26.0700  -38.3500   23.9080 H   0  0  0  0  0  0  0  0  0  0  0  0
  1  6  1  0
  1  2  2  0
  4  3  2  0
  5  3  1  0
  6  4  1  0
  7  6  2  0
  7  8  1  0
  8  5  2  0
  9  7  1  0
 10 18  1  0
 11 16  1  0
 12 13  1  0
 12 11  1  0
 14 13  1  0
 14 23  1  0
 14 15  1  0
 16 10  1  0
 16 15  1  0
 17 10  2  0
 18  8  1  0
 19 18  1  0
 20 21  2  0
 21 40  1  0
 22 21  1  0
 22 25  1  0
 23 20  1  0
 23 24  1  0
 24 22  2  0
 25 26  1  0
 26 27  2  0
 28 31  1  0
 28 27  1  0
 29 28  2  0
 30 29  1  0
 30 25  2  0
 31 32  1  0
 32 33  1  0
 33 34  2  0
 35 34  1  0
 35 39  1  0
 36 35  2  0
 37 32  2  0
 37 36  1  0
 38 37  1  0
 40 41  1  0
 41 44  1  0
 41 43  1  0
 42 40  2  0
 45 46  1  0
 45 20  1  0
 47 45  1  0
 48  2  1  0
 48 50  1  0
 49 48  2  0
 51 53  1  0
 51 50  1  0
 52 63  2  0
 53 58  1  0
 54 62  1  0
 54 64  1  0
 55 61  1  0
 55 57  1  0
 56 62  1  0
 57 56  1  0
 58 57  2  0
 59 53  2  0
 60 59  1  0
 60 55  2  0
 61 54  1  0
 62 52  1  0
 64 66  2  0
 65 64  1  0
 67 65  1  0
 68 77  2  0
 68 73  1  0
 69 65  1  0
 69 73  1  0
 70 69  1  0
 71 72  1  0
 71 70  1  0
 72 68  1  0
 73 74  2  0
 74 75  1  0
 76 75  2  0
 77 76  1  0
 78 52  1  0
 78 83  1  0
 78 79  1  0
 79 82  1  1
 79 80  1  0
 81 79  1  0
 83 86  1  0
 84 88  1  0
 84 83  1  0
 85 84  2  0
 88 87  1  0
 90 88  1  0
 90 91  1  0
 90 89  1  0
M  ISO  4  10 100  18 100  50 101  51 101
M  END
>  <TORSDO>  (20) 
F 19

>  <SCORE>  (20) 
-14.578

>  <name>  (20) 
19

>  <ligand_id>  (20) 
19

>  <original_smiles>  (20) 
[H]C(C(=O)C([H])([H])Oc1c([H])c([H])c2c(c1[H])C([H])([H])N(C(=O)C([H])(N([H])C(=O)C([H])(N([H])C([H])([H])[H])C([H])([H])[H])C(C([H])([H])[H])(C([H])([H])[H])C([H])([H])[H])C([H])(C(=O)N([H])C1([H])c3c([H])c([H])c([H])c([H])c3C([H])([H])C([H])([H])C1([H])[H])C2([H])[H])=C([H])c1c([H])c([H])c([H])c(N([H])C(=O)N2C([H])([H])C([H])([H])C([H])([H])C([H])(n3nc(-c4c([H])c([H])c(Oc5c([H])c([H])c(F)c([H])c5F)c([H])c4[H])c(C(=O)N([H])[H])c3N([H])[H])C2([H])[H])c1C([H])([H])[H]

>  <smiles>  (20) 
[H]C(C(=O)C([H])([H])Oc1c([H])c([H])c2c(c1[H])C([H])([H])N(C(=O)C([H])(N([H])C(=O)C([H])(N([H])C([H])([H])[H])C([H])([H])[H])C(C([H])([H])[H])(C([H])([H])[H])C([H])([H])[H])C([H])(C(=O)N([H])C1([H])c3c([H])c([H])c([H])c([H])c3C([H])([H])C([H])([H])C1([H])[H])C2([H])[H])=C([H])c1c([H])c([H])c([H])c(N([H])C(=O)N2C([H])([H])C([H])([H])C([H])([H])C([H])(n3nc(-c4c([H])c([H])c(Oc5c([H])c([H])c(F)c([H])c5F)c([H])c4[H])c(C(=O)N([H])[H])c3N([H])[H])C2([H])[H])c1C([H])([H])[H]

$$$$
20:0:0
     RDKit          3D

 91 99  0  0  1  0  0  0  0  0999 V2000
  -30.4250  -22.5440   20.6490 C   0  0  0  0  0  3  0  0  0  0  0  0
  -29.3980  -23.2980   21.0670 C   0  0  0  0  0  3  0  0  0  0  0  0
  -29.5510  -20.2270   21.2380 C   0  0  0  0  0  3  0  0  0  0  0  0
  -29.6680  -18.8260   21.1050 C   0  0  0  0  0  3  0  0  0  0  0  0
  -31.4360  -20.5300   19.7360 C   0  0  0  0  0  3  0  0  0  0  0  0
  -30.4630  -21.0840   20.5800 C   0  0  0  0  0  0  0  0  0  0  0  0
  -30.6900  -18.2710   20.3020 C   0  0  0  0  0  0  0  0  0  0  0  0
  -31.5480  -19.1420   19.5750 C   0  0  0  0  0  0  0  0  0  0  0  0
  -32.6080  -18.6400   18.6010 C   0  0  0  0  0  1  0  0  0  0  0  0
  -30.9090  -16.8240   20.1800 C   0  0  0  0  0  3  0  0  0  0  0  0
  -30.1750  -15.7350   20.5250 C   0  0  0  0  0  3  0  0  0  0  0  0
  -30.7860  -14.4440   20.1940 C   0  0  0  0  0  0  0  0  0  0  0  0
  -30.3070  -12.3140   19.1070 C   0  0  0  0  0  2  0  0  0  0  0  0
  -29.3690  -12.5790   17.9150 C   0  0  0  0  0  2  0  0  0  0  0  0
  -27.9040  -12.4680   18.3730 C   0  0  0  0  0  2  0  0  0  0  0  0
  -27.6070  -13.2970   19.6530 C   0  0  0  0  0  3  0  0  0  0  0  0
  -28.6910  -13.1060   20.7370 C   0  0  0  0  0  2  0  0  0  0  0  0
  -30.0070  -13.3330   20.1270 N   0  0  0  0  0  0  0  0  0  0  0  0
  -31.9480  -14.4020   19.7880 O   0  0  0  0  0  0  0  0  0  0  0  0
  -25.2310  -13.8790   20.4410 C   0  0  0  0  0  0  0  0  0  0  0  0
  -24.1760  -13.0980   20.8310 C   0  0  0  0  0  0  0  0  0  0  0  0
  -24.6420  -11.7480   20.7750 C   0  0  0  0  0  0  0  0  0  0  0  0
  -26.2730  -13.0060   20.1720 N   0  0  0  0  0  0  0  0  0  0  0  0
  -25.9230  -11.7190   20.4330 N   0  0  0  0  0  0  0  0  0  0  0  0
  -23.9230  -10.4810   20.9700 C   0  0  0  0  0  0  0  0  0  0  0  0
  -24.3610   -9.5210   21.9090 C   0  0  0  0  0  3  0  0  0  0  0  0
  -23.6430   -8.3200   22.0930 C   0  0  0  0  0  3  0  0  0  0  0  0
  -22.4720   -8.0700   21.3380 C   0  0  0  0  0  0  0  0  0  0  0  0
  -22.0530   -9.0200   20.3890 C   0  0  0  0  0  3  0  0  0  0  0  0
  -22.7730  -10.2110   20.2040 C   0  0  0  0  0  3  0  0  0  0  0  0
  -21.7250   -6.9200   21.4300 O   0  0  0  0  0  0  0  0  0  0  0  0
  -21.6520   -6.2020   22.5970 C   0  0  0  0  0  0  0  0  0  0  0  0
  -21.1660   -6.7710   23.7940 C   0  0  0  0  0  3  0  0  0  0  0  0
  -21.0410   -5.9780   24.9510 C   0  0  0  0  0  3  0  0  0  0  0  0
  -21.3910   -4.6140   24.9130 C   0  0  0  0  0  0  0  0  0  0  0  0
  -21.8700   -4.0450   23.7200 C   0  0  0  0  0  3  0  0  0  0  0  0
  -21.9960   -4.8360   22.5650 C   0  0  0  0  0  0  0  0  0  0  0  0
  -22.4380   -4.2750   21.4130 F   0  0  0  0  0  0  0  0  0  0  0  0
  -21.2640   -3.8490   26.0220 F   0  0  0  0  0  0  0  0  0  0  0  0
  -22.7850  -13.5680   21.1410 C   0  0  0  0  0  0  0  0  0  0  0  0
  -22.0790  -12.8610   22.0190 N   0  0  0  0  0  0  0  0  0  0  0  0
  -22.3320  -14.5980   20.6440 O   0  0  0  0  0  0  0  0  0  0  0  0
  -22.4580  -12.0290   22.4440 H   0  0  0  0  0  0  0  0  0  0  0  0
  -21.1470  -13.1610   22.2670 H   0  0  0  0  0  0  0  0  0  0  0  0
  -25.3880  -15.2520   20.2750 N   0  0  0  0  0  0  0  0  0  0  0  0
  -24.6230  -15.9050   20.4100 H   0  0  0  0  0  0  0  0  0  0  0  0
  -26.2320  -15.6950   19.9350 H   0  0  0  0  0  0  0  0  0  0  0  0
  -29.5050  -24.7590   21.0330 C   0  0  0  0  0  0  0  0  0  0  0  0
  -30.5760  -25.3710   21.1220 O   0  0  0  0  0  0  0  0  0  0  0  0
  -28.1970  -25.5120   20.8520 C   0  0  0  0  0  2  0  0  0  0  0  0
  -28.4250  -26.7900   20.2650 O   0  0  0  0  0  0  0  0  0  0  0  0
  -24.5600  -31.9050   23.2410 C   0  0  0  0  0  0  0  0  0  0  0  0
  -27.2670  -27.5140   20.1990 C   0  0  0  0  0  0  0  0  0  0  0  0
  -23.3810  -30.4900   21.5890 C   0  0  0  0  0  3  0  0  0  0  0  0
  -24.8610  -28.9710   20.1780 C   0  0  0  0  0  0  0  0  0  0  0  0
  -25.9020  -30.8830   21.4130 C   0  0  0  0  0  2  0  0  0  0  0  0
  -26.0060  -29.5160   20.7730 C   0  0  0  0  0  0  0  0  0  0  0  0
  -27.2170  -28.7960   20.7790 C   0  0  0  0  0  3  0  0  0  0  0  0
  -26.1120  -26.9750   19.5920 C   0  0  0  0  0  3  0  0  0  0  0  0
  -24.9070  -27.6990   19.5840 C   0  0  0  0  0  3  0  0  0  0  0  0
  -23.6080  -29.8130   20.2120 C   0  0  0  0  0  2  0  0  0  0  0  0
  -24.6310  -31.1050   22.1400 N   0  0  0  0  0  0  0  0  0  0  0  0
  -23.4710  -32.1680   23.7700 O   0  0  0  0  0  0  0  0  0  0  0  0
  -22.7330  -29.4610   22.5440 C   0  0  0  0  0  0  0  0  0  0  0  0
  -21.4100  -29.2760   22.4130 N   0  0  0  0  0  0  0  0  0  0  0  0
  -23.4170  -28.8320   23.3570 O   0  0  0  0  0  0  0  0  0  0  0  0
  -20.9200  -29.8370   21.7290 H   0  0  0  0  0  0  0  0  0  0  0  0
  -18.0290  -28.1140   22.9230 C   0  0  0  0  0  0  0  0  0  0  0  0
  -20.5910  -28.3360   23.1770 C   0  0  0  0  0  3  0  0  0  0  0  0
  -20.6720  -26.9130   22.5780 C   0  0  0  0  0  2  0  0  0  0  0  0
  -19.5560  -26.6180   21.5700 C   0  0  0  0  0  2  0  0  0  0  0  0
  -18.1830  -26.7710   22.2290 C   0  0  0  0  0  2  0  0  0  0  0  0
  -19.1600  -28.8550   23.3540 C   0  0  0  0  0  0  0  0  0  0  0  0
  -18.9640  -30.1140   23.9630 C   0  0  0  0  0  3  0  0  0  0  0  0
  -17.6670  -30.6300   24.1470 C   0  0  0  0  0  3  0  0  0  0  0  0
  -16.5490  -29.8840   23.7330 C   0  0  0  0  0  3  0  0  0  0  0  0
  -16.7320  -28.6280   23.1270 C   0  0  0  0  0  3  0  0  0  0  0  0
  -25.8350  -32.5460   23.8720 C   0  0  0  0  0  3  0  0  0  0  0  0
  -26.3520  -31.7780   25.1480 C   0  0  1  0  0  0  0  0  0  0  0  0
  -25.2550  -31.5220   26.2070 C   0  0  0  0  0  1  0  0  0  0  0  0
  -26.9560  -30.4100   24.7530 C   0  0  0  0  0  1  0  0  0  0  0  0
  -27.4870  -32.5850   25.8220 C   0  0  0  0  0  1  0  0  0  0  0  0
  -25.5110  -33.9410   24.1970 N   0  0  0  0  0  0  0  0  0  0  0  0
  -25.8350  -34.9940   23.4360 C   0  0  0  0  0  0  0  0  0  0  0  0
  -26.5120  -34.8960   22.4070 O   0  0  0  0  0  0  0  0  0  0  0  0
  -24.9100  -34.0920   24.9940 H   0  0  0  0  0  0  0  0  0  0  0  0
  -24.0910  -36.7660   23.0630 C   0  0  0  0  0  1  0  0  0  0  0  0
  -25.3300  -36.3780   23.8850 C   0  0  0  0  0  3  0  0  0  0  0  0
  -27.4490  -37.2860   24.7310 C   0  0  0  0  0  1  0  0  0  0  0  0
  -26.3520  -37.4420   23.7790 N   0  0  0  0  0  0  0  0  0  0  0  0
  -25.9360  -38.3580   23.9220 H   0  0  0  0  0  0  0  0  0  0  0  0
  1  2  2  0
  4  3  1  0
  5  6  1  0
  6  1  1  0
  6  3  2  0
  7  4  2  0
  8  5  2  0
  8  7  1  0
  9  8  1  0
 10  7  1  0
 10 11  2  0
 12 11  1  0
 13 18  1  0
 14 15  1  0
 14 13  1  0
 16 15  1  0
 16 23  1  0
 16 17  1  0
 18 12  1  0
 18 17  1  0
 19 12  2  0
 20 21  2  0
 21 40  1  0
 22 21  1  0
 22 25  1  0
 23 24  1  0
 23 20  1  0
 24 22  2  0
 25 26  1  0
 26 27  2  0
 28 31  1  0
 28 27  1  0
 29 28  2  0
 30 29  1  0
 30 25  2  0
 31 32  1  0
 32 33  1  0
 33 34  2  0
 35 34  1  0
 35 39  1  0
 36 35  2  0
 37 32  2  0
 37 36  1  0
 38 37  1  0
 40 41  1  0
 41 44  1  0
 41 43  1  0
 42 40  2  0
 45 46  1  0
 45 20  1  0
 47 45  1  0
 48  2  1  0
 48 49  2  0
 50 48  1  0
 51 50  1  0
 52 63  2  0
 53 51  1  0
 53 58  1  0
 54 62  1  0
 54 64  1  0
 55 61  1  0
 55 57  1  0
 56 62  1  0
 57 58  2  0
 57 56  1  0
 59 53  2  0
 60 59  1  0
 60 55  2  0
 61 54  1  0
 62 52  1  0
 64 66  2  0
 65 64  1  0
 67 65  1  0
 68 77  2  0
 68 73  1  0
 69 65  1  0
 69 73  1  0
 70 69  1  0
 71 72  1  0
 71 70  1  0
 72 68  1  0
 73 74  2  0
 74 75  1  0
 76 75  2  0
 77 76  1  0
 78 52  1  0
 78 83  1  0
 78 79  1  0
 79 82  1  1
 79 80  1  0
 81 79  1  0
 83 86  1  0
 84 88  1  0
 84 83  1  0
 85 84  2  0
 88 87  1  0
 90 88  1  0
 90 91  1  0
 90 89  1  0
M  ISO  4  11 100  12 100  50 101  51 101
M  END
>  <TORSDO>  (21) 
F 20

>  <SCORE>  (21) 
-13.774

>  <name>  (21) 
20

>  <ligand_id>  (21) 
20

>  <original_smiles>  (21) 
[H]C(C(=O)C([H])([H])Oc1c([H])c([H])c2c(c1[H])C([H])([H])N(C(=O)C([H])(N([H])C(=O)C([H])(N([H])C([H])([H])[H])C([H])([H])[H])C(C([H])([H])[H])(C([H])([H])[H])C([H])([H])[H])C([H])(C(=O)N([H])C1([H])c3c([H])c([H])c([H])c([H])c3C([H])([H])C([H])([H])C1([H])[H])C2([H])[H])=C([H])c1c([H])c([H])c(C([H])=C([H])C(=O)N2C([H])([H])C([H])([H])C([H])([H])C([H])(n3nc(-c4c([H])c([H])c(Oc5c([H])c([H])c(F)c([H])c5F)c([H])c4[H])c(C(=O)N([H])[H])c3N([H])[H])C2([H])[H])c(C([H])([H])[H])c1[H]

>  <smiles>  (21) 
[H]C(C(=O)C([H])([H])Oc1c([H])c([H])c2c(c1[H])C([H])([H])N(C(=O)C([H])(N([H])C(=O)C([H])(N([H])C([H])([H])[H])C([H])([H])[H])C(C([H])([H])[H])(C([H])([H])[H])C([H])([H])[H])C([H])(C(=O)N([H])C1([H])c3c([H])c([H])c([H])c([H])c3C([H])([H])C([H])([H])C1([H])[H])C2([H])[H])=C([H])c1c([H])c([H])c(C([H])=C([H])C(=O)N2C([H])([H])C([H])([H])C([H])([H])C([H])(n3nc(-c4c([H])c([H])c(Oc5c([H])c([H])c(F)c([H])c5F)c([H])c4[H])c(C(=O)N([H])[H])c3N([H])[H])C2([H])[H])c(C([H])([H])[H])c1[H]

$$$$
21:0:0
     RDKit          3D

 94102  0  0  1  0  0  0  0  0999 V2000
  -30.1940  -17.6710   22.0150 C   0  0  0  0  0  3  0  0  0  0  0  0
  -30.2930  -19.0140   22.4480 C   0  0  0  0  0  3  0  0  0  0  0  0
  -31.3930  -19.5900   20.3720 C   0  0  0  0  0  3  0  0  0  0  0  0
  -30.6180  -17.2820   20.7230 C   0  0  0  0  0  0  0  0  0  0  0  0
  -31.2810  -18.2560   19.9160 C   0  0  0  0  0  0  0  0  0  0  0  0
  -30.8120  -20.0060   21.5900 C   0  0  0  0  0  0  0  0  0  0  0  0
  -30.0330  -16.0340   20.1460 C   0  0  0  0  0  0  0  0  0  0  0  0
  -28.9080  -16.2170   19.6000 N   0  0  0  0  0  0  0  0  0  0  0  0
  -28.6420  -17.1940   19.6780 H   0  0  0  0  0  0  0  0  0  0  0  0
  -30.8370  -14.6990   20.1310 C   0  0  0  0  0  0  0  0  0  0  0  0
  -30.4740  -12.5210   19.0170 C   0  0  0  0  0  2  0  0  0  0  0  0
  -29.4780  -12.6860   17.8460 C   0  0  0  0  0  2  0  0  0  0  0  0
  -28.0320  -12.4810   18.3380 C   0  0  0  0  0  2  0  0  0  0  0  0
  -27.7180  -13.3250   19.5920 C   0  0  0  0  0  3  0  0  0  0  0  0
  -28.8330  -13.2270   20.6620 C   0  0  0  0  0  2  0  0  0  0  0  0
  -30.1280  -13.5290   20.0330 N   0  0  0  0  0  0  0  0  0  0  0  0
  -32.0400  -14.7550   19.8690 O   0  0  0  0  0  0  0  0  0  0  0  0
  -25.3830  -13.9460   20.4380 C   0  0  0  0  0  0  0  0  0  0  0  0
  -24.3260  -13.1730   20.8350 C   0  0  0  0  0  0  0  0  0  0  0  0
  -24.7830  -11.8210   20.7740 C   0  0  0  0  0  0  0  0  0  0  0  0
  -26.4040  -13.0550   20.1490 N   0  0  0  0  0  0  0  0  0  0  0  0
  -26.0600  -11.7760   20.4230 N   0  0  0  0  0  0  0  0  0  0  0  0
  -24.0690  -10.5570   20.9690 C   0  0  0  0  0  0  0  0  0  0  0  0
  -24.5070   -9.6000   21.9090 C   0  0  0  0  0  3  0  0  0  0  0  0
  -23.7950   -8.3960   22.0860 C   0  0  0  0  0  3  0  0  0  0  0  0
  -22.6340   -8.1410   21.3200 C   0  0  0  0  0  0  0  0  0  0  0  0
  -22.2160   -9.0850   20.3670 C   0  0  0  0  0  3  0  0  0  0  0  0
  -22.9270  -10.2820   20.1900 C   0  0  0  0  0  3  0  0  0  0  0  0
  -21.8920   -6.9880   21.4080 O   0  0  0  0  0  0  0  0  0  0  0  0
  -21.8090   -6.2750   22.5760 C   0  0  0  0  0  0  0  0  0  0  0  0
  -21.2900   -6.8430   23.7600 C   0  0  0  0  0  3  0  0  0  0  0  0
  -21.1620   -6.0550   24.9210 C   0  0  0  0  0  3  0  0  0  0  0  0
  -21.5380   -4.7000   24.8990 C   0  0  0  0  0  0  0  0  0  0  0  0
  -22.0480   -4.1320   23.7180 C   0  0  0  0  0  3  0  0  0  0  0  0
  -22.1830   -4.9170   22.5600 C   0  0  0  0  0  0  0  0  0  0  0  0
  -22.6590   -4.3580   21.4200 F   0  0  0  0  0  0  0  0  0  0  0  0
  -21.4030   -3.9410   26.0110 F   0  0  0  0  0  0  0  0  0  0  0  0
  -22.9400  -13.6490   21.1570 C   0  0  0  0  0  0  0  0  0  0  0  0
  -22.2300  -12.9310   22.0220 N   0  0  0  0  0  0  0  0  0  0  0  0
  -22.4900  -14.6880   20.6760 O   0  0  0  0  0  0  0  0  0  0  0  0
  -22.6040  -12.0870   22.4300 H   0  0  0  0  0  0  0  0  0  0  0  0
  -21.3010  -13.2310   22.2830 H   0  0  0  0  0  0  0  0  0  0  0  0
  -25.5610  -15.3170   20.2700 N   0  0  0  0  0  0  0  0  0  0  0  0
  -24.8180  -15.9920   20.4160 H   0  0  0  0  0  0  0  0  0  0  0  0
  -26.4350  -15.7290   19.9520 H   0  0  0  0  0  0  0  0  0  0  0  0
  -31.7840  -17.9710   18.5050 C   0  0  0  0  0  2  0  0  0  0  0  0
  -31.5330  -18.5240   16.0300 C   0  0  0  0  0  1  0  0  0  0  0  0
  -30.9010  -18.6170   17.4260 C   0  0  0  0  0  2  0  0  0  0  0  0
  -30.6790  -21.3380   21.9420 O   0  0  0  0  0  0  0  0  0  0  0  0
  -30.5560  -22.2800   20.8640 C   0  0  0  0  0  2  0  0  0  0  0  0
  -29.8060  -24.7190   21.1100 C   0  0  0  0  0  3  0  0  0  0  0  0
  -29.5600  -23.3910   21.1750 C   0  0  0  0  0  3  0  0  0  0  0  0
  -28.7670  -25.8090   21.3630 C   0  0  0  0  0  2  0  0  0  0  0  0
  -28.7340  -26.7810   20.3070 O   0  0  0  0  0  0  0  0  0  0  0  0
  -24.6010  -31.8100   23.2090 C   0  0  0  0  0  0  0  0  0  0  0  0
  -27.5600  -27.4950   20.2520 C   0  0  0  0  0  0  0  0  0  0  0  0
  -23.5300  -30.3810   21.4960 C   0  0  0  0  0  3  0  0  0  0  0  0
  -25.1120  -28.9030   20.1390 C   0  0  0  0  0  0  0  0  0  0  0  0
  -26.0470  -30.8290   21.4340 C   0  0  0  0  0  2  0  0  0  0  0  0
  -26.2150  -29.4670   20.7920 C   0  0  0  0  0  0  0  0  0  0  0  0
  -27.4440  -28.7700   20.8490 C   0  0  0  0  0  3  0  0  0  0  0  0
  -26.4460  -26.9420   19.5860 C   0  0  0  0  0  3  0  0  0  0  0  0
  -25.2220  -27.6380   19.5320 C   0  0  0  0  0  3  0  0  0  0  0  0
  -23.8340  -29.7140   20.1270 C   0  0  0  0  0  2  0  0  0  0  0  0
  -24.7400  -31.0220   22.1060 N   0  0  0  0  0  0  0  0  0  0  0  0
  -23.4870  -32.0400   23.6970 O   0  0  0  0  0  0  0  0  0  0  0  0
  -22.8660  -29.3340   22.4170 C   0  0  0  0  0  0  0  0  0  0  0  0
  -21.5440  -29.1500   22.2600 N   0  0  0  0  0  0  0  0  0  0  0  0
  -23.5360  -28.6870   23.2270 O   0  0  0  0  0  0  0  0  0  0  0  0
  -21.0650  -29.7270   21.5810 H   0  0  0  0  0  0  0  0  0  0  0  0
  -18.1530  -28.0000   22.7310 C   0  0  0  0  0  0  0  0  0  0  0  0
  -20.7180  -28.1880   22.9870 C   0  0  0  0  0  3  0  0  0  0  0  0
  -20.7840  -26.7900   22.3300 C   0  0  0  0  0  2  0  0  0  0  0  0
  -19.6660  -26.5480   21.3110 C   0  0  0  0  0  2  0  0  0  0  0  0
  -18.2930  -26.6880   21.9770 C   0  0  0  0  0  2  0  0  0  0  0  0
  -19.2930  -28.7120   23.1890 C   0  0  0  0  0  0  0  0  0  0  0  0
  -19.1100  -29.9460   23.8510 C   0  0  0  0  0  3  0  0  0  0  0  0
  -17.8180  -30.4660   24.0600 C   0  0  0  0  0  3  0  0  0  0  0  0
  -16.6930  -29.7490   23.6200 C   0  0  0  0  0  3  0  0  0  0  0  0
  -16.8610  -28.5190   22.9590 C   0  0  0  0  0  3  0  0  0  0  0  0
  -25.8330  -32.4760   23.9000 C   0  0  0  0  0  3  0  0  0  0  0  0
  -25.4760  -33.8680   24.2030 N   0  0  0  0  0  0  0  0  0  0  0  0
  -25.8120  -34.9210   23.4460 C   0  0  0  0  0  0  0  0  0  0  0  0
  -26.5280  -34.8240   22.4450 O   0  0  0  0  0  0  0  0  0  0  0  0
  -24.8460  -34.0150   24.9770 H   0  0  0  0  0  0  0  0  0  0  0  0
  -24.0510  -36.6590   22.9970 C   0  0  0  0  0  1  0  0  0  0  0  0
  -25.2680  -36.3010   23.8640 C   0  0  0  0  0  3  0  0  0  0  0  0
  -27.3350  -37.2620   24.7770 C   0  0  0  0  0  1  0  0  0  0  0  0
  -26.2760  -37.3810   23.7790 N   0  0  0  0  0  0  0  0  0  0  0  0
  -25.8380  -38.2920   23.8870 H   0  0  0  0  0  0  0  0  0  0  0  0
  -26.2990  -31.7220   25.2060 C   0  0  1  0  0  0  0  0  0  0  0  0
  -25.1540  -31.4470   26.2080 C   0  0  0  0  0  1  0  0  0  0  0  0
  -26.9460  -30.3640   24.8480 C   0  0  0  0  0  1  0  0  0  0  0  0
  -27.3820  -32.5500   25.9330 C   0  0  0  0  0  1  0  0  0  0  0  0
  1  2  1  0
  3  6  1  0
  4  1  2  0
  5  3  2  0
  5  4  1  0
  6 49  1  0
  6  2  2  0
  7  4  1  0
  8  9  1  0
  8  7  2  0
 10  7  1  0
 11 16  1  0
 12 13  1  0
 12 11  1  0
 14 13  1  0
 14 21  1  0
 14 15  1  0
 16 10  1  0
 16 15  1  0
 17 10  2  0
 18 19  2  0
 19 38  1  0
 20 19  1  0
 20 23  1  0
 21 22  1  0
 21 18  1  0
 22 20  2  0
 23 24  1  0
 24 25  2  0
 26 29  1  0
 26 25  1  0
 27 26  2  0
 28 27  1  0
 28 23  2  0
 29 30  1  0
 30 31  1  0
 31 32  2  0
 33 32  1  0
 33 37  1  0
 34 33  2  0
 35 30  2  0
 35 34  1  0
 36 35  1  0
 38 39  1  0
 39 42  1  0
 39 41  1  0
 40 38  2  0
 43 44  1  0
 43 18  1  0
 45 43  1  0
 46  5  1  0
 47 48  1  0
 48 46  1  0
 50 52  1  0
 50 49  1  0
 51 52  2  0
 51 53  1  0
 54 53  1  0
 55 66  2  0
 56 54  1  0
 56 61  1  0
 57 65  1  0
 57 67  1  0
 58 60  1  0
 59 65  1  0
 60 61  2  0
 60 59  1  0
 62 56  2  0
 63 62  1  0
 63 58  2  0
 64 58  1  0
 64 57  1  0
 65 55  1  0
 67 69  2  0
 68 67  1  0
 70 68  1  0
 71 80  2  0
 71 76  1  0
 72 68  1  0
 72 76  1  0
 73 72  1  0
 74 75  1  0
 74 73  1  0
 75 71  1  0
 76 77  2  0
 77 78  1  0
 79 78  2  0
 80 79  1  0
 81 55  1  0
 81 82  1  0
 81 91  1  0
 82 85  1  0
 83 87  1  0
 83 82  1  0
 84 83  2  0
 87 86  1  0
 89 87  1  0
 89 90  1  0
 89 88  1  0
 91 94  1  1
 91 92  1  0
 93 91  1  0
M  ISO  4   7 100  10 100  53 101  54 101
M  END
>  <TORSDO>  (22) 
F 23

>  <SCORE>  (22) 
-12.446

>  <name>  (22) 
21

>  <ligand_id>  (22) 
21

>  <original_smiles>  (22) 
[H]N=C(C(=O)N1C([H])([H])C([H])([H])C([H])([H])C([H])(n2nc(-c3c([H])c([H])c(Oc4c([H])c([H])c(F)c([H])c4F)c([H])c3[H])c(C(=O)N([H])[H])c2N([H])[H])C1([H])[H])c1c([H])c([H])c(OC([H])([H])C([H])=C([H])C([H])([H])Oc2c([H])c([H])c3c(c2[H])C([H])([H])N(C(=O)C([H])(N([H])C(=O)C([H])(N([H])C([H])([H])[H])C([H])([H])[H])C(C([H])([H])[H])(C([H])([H])[H])C([H])([H])[H])C([H])(C(=O)N([H])C2([H])c4c([H])c([H])c([H])c([H])c4C([H])([H])C([H])([H])C2([H])[H])C3([H])[H])c([H])c1C([H])([H])C([H])([H])C([H])([H])[H]

>  <smiles>  (22) 
[H]N=C(C(=O)N1C([H])([H])C([H])([H])C([H])([H])C([H])(n2nc(-c3c([H])c([H])c(Oc4c([H])c([H])c(F)c([H])c4F)c([H])c3[H])c(C(=O)N([H])[H])c2N([H])[H])C1([H])[H])c1c([H])c([H])c(OC([H])([H])C([H])=C([H])C([H])([H])Oc2c([H])c([H])c3c(c2[H])C([H])([H])N(C(=O)C([H])(N([H])C(=O)C([H])(N([H])C([H])([H])[H])C([H])([H])[H])C(C([H])([H])[H])(C([H])([H])[H])C([H])([H])[H])C([H])(C(=O)N([H])C2([H])c4c([H])c([H])c([H])c([H])c4C([H])([H])C([H])([H])C2([H])[H])C3([H])[H])c([H])c1C([H])([H])C([H])([H])C([H])([H])[H]

$$$$
22:0:0
     RDKit          3D

 93101  0  0  1  0  0  0  0  0999 V2000
  -29.3390  -21.5590   21.2590 C   0  0  0  0  0  3  0  0  0  0  0  0
  -29.9870  -22.6010   20.7070 C   0  0  0  0  0  3  0  0  0  0  0  0
  -31.6360  -18.7280   22.3010 C   0  0  0  0  0  3  0  0  0  0  0  0
  -31.1390  -17.6670   21.5210 C   0  0  0  0  0  3  0  0  0  0  0  0
  -31.0540  -20.0040   22.2110 C   0  0  0  0  0  3  0  0  0  0  0  0
  -30.0360  -17.8640   20.6620 C   0  0  0  0  0  0  0  0  0  0  0  0
  -29.9180  -20.2140   21.4060 C   0  0  0  0  0  0  0  0  0  0  0  0
  -29.3670  -19.1250   20.6780 C   0  0  0  0  0  0  0  0  0  0  0  0
  -28.0890  -19.3400   19.8610 C   0  0  0  0  0  1  0  0  0  0  0  0
  -29.5810  -16.8420   19.6900 C   0  0  0  0  0  3  0  0  0  0  0  0
  -29.8340  -15.5410   19.4500 C   0  0  0  0  0  3  0  0  0  0  0  0
  -30.7020  -14.5760   20.1050 C   0  0  0  0  0  0  0  0  0  0  0  0
  -30.4360  -12.3480   19.1690 C   0  0  0  0  0  2  0  0  0  0  0  0
  -29.4730  -12.5030   17.9680 C   0  0  0  0  0  2  0  0  0  0  0  0
  -27.9980  -12.4140   18.4210 C   0  0  0  0  0  2  0  0  0  0  0  0
  -27.6640  -13.2720   19.6720 C   0  0  0  0  0  3  0  0  0  0  0  0
  -28.7580  -13.1340   20.7600 C   0  0  0  0  0  2  0  0  0  0  0  0
  -30.0870  -13.3660   20.1660 N   0  0  0  0  0  0  0  0  0  0  0  0
  -31.9220  -14.7120   20.0270 O   0  0  0  0  0  0  0  0  0  0  0  0
  -25.2860  -13.8800   20.4280 C   0  0  0  0  0  0  0  0  0  0  0  0
  -24.2240  -13.1060   20.8130 C   0  0  0  0  0  0  0  0  0  0  0  0
  -24.6930  -11.7550   20.7820 C   0  0  0  0  0  0  0  0  0  0  0  0
  -26.3280  -12.9980   20.1860 N   0  0  0  0  0  0  0  0  0  0  0  0
  -25.9780  -11.7170   20.4610 N   0  0  0  0  0  0  0  0  0  0  0  0
  -23.9770  -10.4910   20.9830 C   0  0  0  0  0  0  0  0  0  0  0  0
  -24.4220   -9.5320   21.9210 C   0  0  0  0  0  3  0  0  0  0  0  0
  -23.7060   -8.3310   22.1080 C   0  0  0  0  0  3  0  0  0  0  0  0
  -22.5330   -8.0800   21.3580 C   0  0  0  0  0  0  0  0  0  0  0  0
  -22.1080   -9.0280   20.4100 C   0  0  0  0  0  3  0  0  0  0  0  0
  -22.8250  -10.2200   20.2210 C   0  0  0  0  0  3  0  0  0  0  0  0
  -21.7870   -6.9300   21.4580 O   0  0  0  0  0  0  0  0  0  0  0  0
  -21.7420   -6.2000   22.6200 C   0  0  0  0  0  0  0  0  0  0  0  0
  -21.3020   -6.7640   23.8370 C   0  0  0  0  0  3  0  0  0  0  0  0
  -21.2060   -5.9620   24.9920 C   0  0  0  0  0  3  0  0  0  0  0  0
  -21.5390   -4.5950   24.9290 C   0  0  0  0  0  0  0  0  0  0  0  0
  -21.9710   -4.0300   23.7170 C   0  0  0  0  0  3  0  0  0  0  0  0
  -22.0710   -4.8310   22.5650 C   0  0  0  0  0  0  0  0  0  0  0  0
  -22.4700   -4.2760   21.3950 F   0  0  0  0  0  0  0  0  0  0  0  0
  -21.4390   -3.8230   26.0360 F   0  0  0  0  0  0  0  0  0  0  0  0
  -22.8260  -13.5780   21.1010 C   0  0  0  0  0  0  0  0  0  0  0  0
  -22.1110  -12.8790   21.9750 N   0  0  0  0  0  0  0  0  0  0  0  0
  -22.3790  -14.6010   20.5850 O   0  0  0  0  0  0  0  0  0  0  0  0
  -22.4850  -12.0540   22.4200 H   0  0  0  0  0  0  0  0  0  0  0  0
  -21.1740  -13.1760   22.2090 H   0  0  0  0  0  0  0  0  0  0  0  0
  -25.4420  -15.2500   20.2410 N   0  0  0  0  0  0  0  0  0  0  0  0
  -24.6840  -15.9120   20.3670 H   0  0  0  0  0  0  0  0  0  0  0  0
  -26.3030  -15.6890   19.9390 H   0  0  0  0  0  0  0  0  0  0  0  0
  -29.3460  -23.9500   20.4090 C   0  0  0  0  0  2  0  0  0  0  0  0
  -29.0670  -25.4040   18.3310 C   0  0  0  0  0  3  0  0  0  0  0  0
  -29.1440  -24.1840   18.9040 C   0  0  0  0  0  0  0  0  0  0  0  0
  -29.0410  -22.9440   18.0260 C   0  0  0  0  0  1  0  0  0  0  0  0
  -29.1390  -26.7670   18.9950 C   0  0  0  0  0  2  0  0  0  0  0  0
  -28.4140  -26.8350   20.2150 O   0  0  0  0  0  0  0  0  0  0  0  0
  -24.5760  -31.9670   23.2350 C   0  0  0  0  0  0  0  0  0  0  0  0
  -27.2440  -27.5490   20.1750 C   0  0  0  0  0  0  0  0  0  0  0  0
  -23.3700  -30.5500   21.6000 C   0  0  0  0  0  3  0  0  0  0  0  0
  -24.8310  -29.0100   20.1790 C   0  0  0  0  0  0  0  0  0  0  0  0
  -25.8890  -30.9270   21.3960 C   0  0  0  0  0  2  0  0  0  0  0  0
  -25.9810  -29.5530   20.7680 C   0  0  0  0  0  0  0  0  0  0  0  0
  -27.1870  -28.8220   20.7740 C   0  0  0  0  0  3  0  0  0  0  0  0
  -26.0840  -27.0070   19.5830 C   0  0  0  0  0  3  0  0  0  0  0  0
  -24.8750  -27.7330   19.5870 C   0  0  0  0  0  3  0  0  0  0  0  0
  -23.5800  -29.8590   20.2240 C   0  0  0  0  0  2  0  0  0  0  0  0
  -24.6290  -31.1640   22.1350 N   0  0  0  0  0  0  0  0  0  0  0  0
  -23.4960  -32.2400   23.7790 O   0  0  0  0  0  0  0  0  0  0  0  0
  -22.7260  -29.5340   22.5710 C   0  0  0  0  0  0  0  0  0  0  0  0
  -21.4030  -29.3480   22.4460 N   0  0  0  0  0  0  0  0  0  0  0  0
  -23.4140  -28.9180   23.3880 O   0  0  0  0  0  0  0  0  0  0  0  0
  -20.9110  -29.8970   21.7540 H   0  0  0  0  0  0  0  0  0  0  0  0
  -18.0310  -28.1550   22.9640 C   0  0  0  0  0  0  0  0  0  0  0  0
  -20.5900  -28.4140   23.2240 C   0  0  0  0  0  3  0  0  0  0  0  0
  -20.6920  -26.9800   22.6540 C   0  0  0  0  0  2  0  0  0  0  0  0
  -19.5850  -26.6540   21.6450 C   0  0  0  0  0  2  0  0  0  0  0  0
  -18.2060  -26.8030   22.2930 C   0  0  0  0  0  2  0  0  0  0  0  0
  -19.1520  -28.9180   23.3870 C   0  0  0  0  0  0  0  0  0  0  0  0
  -18.9370  -30.1840   23.9730 C   0  0  0  0  0  3  0  0  0  0  0  0
  -17.6340  -30.6870   24.1420 C   0  0  0  0  0  3  0  0  0  0  0  0
  -16.5270  -29.9220   23.7360 C   0  0  0  0  0  3  0  0  0  0  0  0
  -16.7270  -28.6570   23.1520 C   0  0  0  0  0  3  0  0  0  0  0  0
  -25.8640  -32.6030   23.8460 C   0  0  0  0  0  3  0  0  0  0  0  0
  -25.5540  -34.0020   24.1740 N   0  0  0  0  0  0  0  0  0  0  0  0
  -25.8900  -35.0540   23.4150 C   0  0  0  0  0  0  0  0  0  0  0  0
  -26.5660  -34.9480   22.3870 O   0  0  0  0  0  0  0  0  0  0  0  0
  -24.9560  -34.1580   24.9720 H   0  0  0  0  0  0  0  0  0  0  0  0
  -24.1710  -36.8500   23.0340 C   0  0  0  0  0  1  0  0  0  0  0  0
  -25.3980  -36.4430   23.8660 C   0  0  0  0  0  3  0  0  0  0  0  0
  -27.5210  -37.3230   24.7320 C   0  0  0  0  0  1  0  0  0  0  0  0
  -26.4350  -37.4930   23.7700 N   0  0  0  0  0  0  0  0  0  0  0  0
  -26.0310  -38.4140   23.9090 H   0  0  0  0  0  0  0  0  0  0  0  0
  -26.3930  -31.8360   25.1190 C   0  0  1  0  0  0  0  0  0  0  0  0
  -25.3100  -31.5930   26.1940 C   0  0  0  0  0  1  0  0  0  0  0  0
  -26.9810  -30.4610   24.7240 C   0  0  0  0  0  1  0  0  0  0  0  0
  -27.5430  -32.6370   25.7750 C   0  0  0  0  0  1  0  0  0  0  0  0
  1  7  1  0
  2  1  2  0
  4  3  2  0
  5  3  1  0
  6  8  2  0
  6  4  1  0
  7  5  2  0
  8  7  1  0
  9  8  1  0
 10  6  1  0
 11 10  2  0
 11 12  1  0
 12 18  1  0
 13 18  1  0
 14 15  1  0
 14 13  1  0
 16 15  1  0
 16 23  1  0
 16 17  1  0
 18 17  1  0
 19 12  2  0
 20 21  2  0
 21 40  1  0
 22 21  1  0
 22 25  1  0
 23 20  1  0
 23 24  1  0
 24 22  2  0
 25 26  1  0
 26 27  2  0
 28 31  1  0
 28 27  1  0
 29 28  2  0
 30 29  1  0
 30 25  2  0
 31 32  1  0
 32 33  1  0
 33 34  2  0
 35 34  1  0
 35 39  1  0
 36 35  2  0
 37 32  2  0
 37 36  1  0
 38 37  1  0
 40 41  1  0
 41 44  1  0
 41 43  1  0
 42 40  2  0
 45 46  1  0
 45 20  1  0
 47 45  1  0
 48  2  1  0
 49 50  2  0
 49 52  1  0
 50 48  1  0
 51 50  1  0
 52 53  1  0
 54 65  2  0
 55 53  1  0
 55 60  1  0
 56 64  1  0
 56 66  1  0
 57 63  1  0
 57 59  1  0
 58 64  1  0
 59 60  2  0
 59 58  1  0
 61 62  1  0
 61 55  2  0
 62 57  2  0
 63 56  1  0
 64 54  1  0
 66 68  2  0
 67 66  1  0
 69 67  1  0
 70 79  2  0
 70 75  1  0
 71 67  1  0
 71 75  1  0
 72 71  1  0
 73 74  1  0
 73 72  1  0
 74 70  1  0
 75 76  2  0
 76 77  1  0
 78 77  2  0
 79 78  1  0
 80 54  1  0
 80 81  1  0
 80 90  1  0
 81 84  1  0
 82 86  1  0
 82 81  1  0
 83 82  2  0
 86 85  1  0
 88 86  1  0
 88 89  1  0
 88 87  1  0
 90 93  1  1
 90 91  1  0
 92 90  1  0
M  ISO  4  11 100  12 100  52 101  53 101
M  END
>  <TORSDO>  (23) 
F 21

>  <SCORE>  (23) 
-13.716

>  <name>  (23) 
22

>  <ligand_id>  (23) 
22

>  <original_smiles>  (23) 
[H]C(C(=O)N1C([H])([H])C([H])([H])C([H])([H])C([H])(n2nc(-c3c([H])c([H])c(Oc4c([H])c([H])c(F)c([H])c4F)c([H])c3[H])c(C(=O)N([H])[H])c2N([H])[H])C1([H])[H])=C([H])c1c([H])c([H])c([H])c(C([H])=C([H])C([H])([H])C(=C([H])C([H])([H])Oc2c([H])c([H])c3c(c2[H])C([H])([H])N(C(=O)C([H])(N([H])C(=O)C([H])(N([H])C([H])([H])[H])C([H])([H])[H])C(C([H])([H])[H])(C([H])([H])[H])C([H])([H])[H])C([H])(C(=O)N([H])C2([H])c4c([H])c([H])c([H])c([H])c4C([H])([H])C([H])([H])C2([H])[H])C3([H])[H])C([H])([H])[H])c1C([H])([H])[H]

>  <smiles>  (23) 
[H]C(C(=O)N1C([H])([H])C([H])([H])C([H])([H])C([H])(n2nc(-c3c([H])c([H])c(Oc4c([H])c([H])c(F)c([H])c4F)c([H])c3[H])c(C(=O)N([H])[H])c2N([H])[H])C1([H])[H])=C([H])c1c([H])c([H])c([H])c(C([H])=C([H])C([H])([H])C(=C([H])C([H])([H])Oc2c([H])c([H])c3c(c2[H])C([H])([H])N(C(=O)C([H])(N([H])C(=O)C([H])(N([H])C([H])([H])[H])C([H])([H])[H])C(C([H])([H])[H])(C([H])([H])[H])C([H])([H])[H])C([H])(C(=O)N([H])C2([H])c4c([H])c([H])c([H])c([H])c4C([H])([H])C([H])([H])C2([H])[H])C3([H])[H])C([H])([H])[H])c1C([H])([H])[H]

$$$$
23:0:0
     RDKit          3D

 89 97  0  0  1  0  0  0  0  0999 V2000
  -30.3300  -22.0000   19.9660 C   0  0  0  0  0  3  0  0  0  0  0  0
  -29.2860  -22.7380   20.4240 C   0  0  0  0  0  3  0  0  0  0  0  0
  -31.5810  -18.7340   18.9030 C   0  0  0  0  0  3  0  0  0  0  0  0
  -31.5940  -20.1490   18.8170 C   0  0  0  0  0  0  0  0  0  0  0  0
  -30.6310  -18.3630   19.8080 C   0  0  0  0  0  0  0  0  0  0  0  0
  -30.6400  -20.6020   19.6900 C   0  0  0  0  0  3  0  0  0  0  0  0
  -32.5060  -20.9750   17.9440 C   0  0  0  0  0  1  0  0  0  0  0  0
  -30.0000  -19.5160   20.2870 O   0  0  0  0  0  0  0  0  0  0  0  0
  -30.3670  -16.9870   20.2190 C   0  0  0  0  0  0  0  0  0  0  0  0
  -29.9100  -15.8110   20.7530 C   0  0  0  0  0  3  0  0  0  0  0  0
  -30.6560  -14.5790   20.4070 C   0  0  0  0  0  0  0  0  0  0  0  0
  -30.3470  -12.3720   19.3500 C   0  0  0  0  0  2  0  0  0  0  0  0
  -29.4170  -12.5500   18.1300 C   0  0  0  0  0  2  0  0  0  0  0  0
  -27.9410  -12.4240   18.5520 C   0  0  0  0  0  2  0  0  0  0  0  0
  -27.5990  -13.2750   19.8050 C   0  0  0  0  0  3  0  0  0  0  0  0
  -28.6530  -13.0950   20.9190 C   0  0  0  0  0  2  0  0  0  0  0  0
  -29.9730  -13.3950   20.3470 N   0  0  0  0  0  0  0  0  0  0  0  0
  -31.8250  -14.6420   20.0170 O   0  0  0  0  0  0  0  0  0  0  0  0
  -25.2050  -13.8810   20.5150 C   0  0  0  0  0  0  0  0  0  0  0  0
  -24.1350  -13.1120   20.8840 C   0  0  0  0  0  0  0  0  0  0  0  0
  -24.5930  -11.7590   20.8600 C   0  0  0  0  0  0  0  0  0  0  0  0
  -26.2480  -12.9980   20.2880 N   0  0  0  0  0  0  0  0  0  0  0  0
  -25.8850  -11.7170   20.5560 N   0  0  0  0  0  0  0  0  0  0  0  0
  -23.8640  -10.4990   21.0530 C   0  0  0  0  0  0  0  0  0  0  0  0
  -24.3030   -9.5250   21.9760 C   0  0  0  0  0  3  0  0  0  0  0  0
  -23.5730   -8.3290   22.1570 C   0  0  0  0  0  3  0  0  0  0  0  0
  -22.3890   -8.1000   21.4150 C   0  0  0  0  0  0  0  0  0  0  0  0
  -21.9700   -9.0640   20.4810 C   0  0  0  0  0  3  0  0  0  0  0  0
  -22.7000  -10.2500   20.2980 C   0  0  0  0  0  3  0  0  0  0  0  0
  -21.6310   -6.9590   21.5060 O   0  0  0  0  0  0  0  0  0  0  0  0
  -21.6030   -6.2020   22.6490 C   0  0  0  0  0  0  0  0  0  0  0  0
  -21.2110   -6.7440   23.8930 C   0  0  0  0  0  3  0  0  0  0  0  0
  -21.1310   -5.9140   25.0280 C   0  0  0  0  0  3  0  0  0  0  0  0
  -21.4320   -4.5430   24.9230 C   0  0  0  0  0  0  0  0  0  0  0  0
  -21.8170   -4.0000   23.6840 C   0  0  0  0  0  3  0  0  0  0  0  0
  -21.8990   -4.8270   22.5500 C   0  0  0  0  0  0  0  0  0  0  0  0
  -22.2490   -4.2950   21.3540 F   0  0  0  0  0  0  0  0  0  0  0  0
  -21.3460   -3.7430   26.0120 F   0  0  0  0  0  0  0  0  0  0  0  0
  -22.7390  -13.5930   21.1530 C   0  0  0  0  0  0  0  0  0  0  0  0
  -22.0080  -12.9000   22.0190 N   0  0  0  0  0  0  0  0  0  0  0  0
  -22.3040  -14.6180   20.6290 O   0  0  0  0  0  0  0  0  0  0  0  0
  -22.3730  -12.0700   22.4620 H   0  0  0  0  0  0  0  0  0  0  0  0
  -21.0710  -13.2050   22.2430 H   0  0  0  0  0  0  0  0  0  0  0  0
  -25.3750  -15.2500   20.3330 N   0  0  0  0  0  0  0  0  0  0  0  0
  -24.6130  -15.9110   20.4430 H   0  0  0  0  0  0  0  0  0  0  0  0
  -26.2320  -15.6840   20.0140 H   0  0  0  0  0  0  0  0  0  0  0  0
  -29.3510  -24.2760   20.6390 C   0  0  0  0  0  2  0  0  0  0  0  0
  -28.1970  -25.1410   20.0340 C   0  0  0  0  0  2  0  0  0  0  0  0
  -28.3450  -26.5820   20.2300 O   0  0  0  0  0  0  0  0  0  0  0  0
  -24.5870  -31.8760   23.2540 C   0  0  0  0  0  0  0  0  0  0  0  0
  -27.2010  -27.3740   20.1770 C   0  0  0  0  0  0  0  0  0  0  0  0
  -23.3770  -30.4820   21.6130 C   0  0  0  0  0  3  0  0  0  0  0  0
  -24.8230  -28.9420   20.1790 C   0  0  0  0  0  0  0  0  0  0  0  0
  -25.9100  -30.8150   21.4210 C   0  0  0  0  0  2  0  0  0  0  0  0
  -25.9880  -29.4430   20.7730 C   0  0  0  0  0  0  0  0  0  0  0  0
  -27.1790  -28.6690   20.7650 C   0  0  0  0  0  3  0  0  0  0  0  0
  -26.0140  -26.9130   19.5580 C   0  0  0  0  0  3  0  0  0  0  0  0
  -24.8350  -27.6790   19.5670 C   0  0  0  0  0  3  0  0  0  0  0  0
  -23.5850  -29.8090   20.2310 C   0  0  0  0  0  2  0  0  0  0  0  0
  -24.6430  -31.0740   22.1530 N   0  0  0  0  0  0  0  0  0  0  0  0
  -23.5070  -32.1520   23.7940 O   0  0  0  0  0  0  0  0  0  0  0  0
  -22.7200  -29.4620   22.5720 C   0  0  0  0  0  0  0  0  0  0  0  0
  -21.3950  -29.2800   22.4420 N   0  0  0  0  0  0  0  0  0  0  0  0
  -23.4000  -28.8370   23.3900 O   0  0  0  0  0  0  0  0  0  0  0  0
  -20.9070  -29.8320   21.7520 H   0  0  0  0  0  0  0  0  0  0  0  0
  -18.0200  -28.0790   22.9300 C   0  0  0  0  0  0  0  0  0  0  0  0
  -20.5770  -28.3430   23.2120 C   0  0  0  0  0  3  0  0  0  0  0  0
  -20.6870  -26.9110   22.6410 C   0  0  0  0  0  2  0  0  0  0  0  0
  -19.5900  -26.5830   21.6230 C   0  0  0  0  0  2  0  0  0  0  0  0
  -18.2040  -26.7280   22.2590 C   0  0  0  0  0  2  0  0  0  0  0  0
  -19.1350  -28.8440   23.3630 C   0  0  0  0  0  0  0  0  0  0  0  0
  -18.9110  -30.1100   23.9480 C   0  0  0  0  0  3  0  0  0  0  0  0
  -17.6050  -30.6080   24.1070 C   0  0  0  0  0  3  0  0  0  0  0  0
  -16.5040  -29.8390   23.6910 C   0  0  0  0  0  3  0  0  0  0  0  0
  -16.7130  -28.5770   23.1070 C   0  0  0  0  0  3  0  0  0  0  0  0
  -25.8760  -32.5040   23.8720 C   0  0  0  0  0  3  0  0  0  0  0  0
  -26.3950  -31.7300   25.1470 C   0  0  1  0  0  0  0  0  0  0  0  0
  -25.3060  -31.4930   26.2170 C   0  0  0  0  0  1  0  0  0  0  0  0
  -26.9740  -30.3520   24.7520 C   0  0  0  0  0  1  0  0  0  0  0  0
  -27.5500  -32.5210   25.8050 C   0  0  0  0  0  1  0  0  0  0  0  0
  -25.5720  -33.9030   24.2040 N   0  0  0  0  0  0  0  0  0  0  0  0
  -25.8970  -34.9540   23.4390 C   0  0  0  0  0  0  0  0  0  0  0  0
  -26.5560  -34.8480   22.4020 O   0  0  0  0  0  0  0  0  0  0  0  0
  -24.9890  -34.0600   25.0130 H   0  0  0  0  0  0  0  0  0  0  0  0
  -24.1640  -36.7440   23.1020 C   0  0  0  0  0  1  0  0  0  0  0  0
  -25.4160  -36.3430   23.8990 C   0  0  0  0  0  3  0  0  0  0  0  0
  -27.5590  -37.2310   24.7020 C   0  0  0  0  0  1  0  0  0  0  0  0
  -26.4470  -37.3960   23.7710 N   0  0  0  0  0  0  0  0  0  0  0  0
  -26.0430  -38.3160   23.9210 H   0  0  0  0  0  0  0  0  0  0  0  0
  1  2  2  0
  2 47  1  0
  3  5  1  0
  4  3  2  0
  4  6  1  0
  5  9  2  0
  5  8  1  0
  6  1  1  0
  6  8  1  0
  7  4  1  0
  9 10  2  0
 11 10  1  0
 12 17  1  0
 13 14  1  0
 13 12  1  0
 15 14  1  0
 15 22  1  0
 15 16  1  0
 17 11  1  0
 17 16  1  0
 18 11  2  0
 19 20  2  0
 20 39  1  0
 21 20  1  0
 21 24  1  0
 22 19  1  0
 22 23  1  0
 23 21  2  0
 24 25  1  0
 25 26  2  0
 27 30  1  0
 27 26  1  0
 28 27  2  0
 29 28  1  0
 29 24  2  0
 30 31  1  0
 31 32  1  0
 32 33  2  0
 34 33  1  0
 34 38  1  0
 35 34  2  0
 36 31  2  0
 36 35  1  0
 37 36  1  0
 39 40  1  0
 40 43  1  0
 40 42  1  0
 41 39  2  0
 44 45  1  0
 44 19  1  0
 46 44  1  0
 48 49  1  0
 48 47  1  0
 50 61  2  0
 51 49  1  0
 51 56  1  0
 52 60  1  0
 52 62  1  0
 53 59  1  0
 53 55  1  0
 54 60  1  0
 55 54  1  0
 56 55  2  0
 57 58  1  0
 57 51  2  0
 58 53  2  0
 59 52  1  0
 60 50  1  0
 62 64  2  0
 63 62  1  0
 65 63  1  0
 66 75  2  0
 66 71  1  0
 67 63  1  0
 67 71  1  0
 68 67  1  0
 69 70  1  0
 69 68  1  0
 70 66  1  0
 71 72  2  0
 72 73  1  0
 74 73  2  0
 75 74  1  0
 76 50  1  0
 76 81  1  0
 76 77  1  0
 77 80  1  1
 77 78  1  0
 79 77  1  0
 81 84  1  0
 82 86  1  0
 82 81  1  0
 83 82  2  0
 86 85  1  0
 88 86  1  0
 88 89  1  0
 88 87  1  0
M  ISO  4  10 100  11 100  48 101  49 101
M  END
>  <TORSDO>  (24) 
F 20

>  <SCORE>  (24) 
-13.731

>  <name>  (24) 
23

>  <ligand_id>  (24) 
23

>  <original_smiles>  (24) 
[H]C(C(=O)N1C([H])([H])C([H])([H])C([H])([H])C([H])(n2nc(-c3c([H])c([H])c(Oc4c([H])c([H])c(F)c([H])c4F)c([H])c3[H])c(C(=O)N([H])[H])c2N([H])[H])C1([H])[H])=C([H])c1oc(C([H])=C([H])C([H])([H])C([H])([H])Oc2c([H])c([H])c3c(c2[H])C([H])([H])N(C(=O)C([H])(N([H])C(=O)C([H])(N([H])C([H])([H])[H])C([H])([H])[H])C(C([H])([H])[H])(C([H])([H])[H])C([H])([H])[H])C([H])(C(=O)N([H])C2([H])c4c([H])c([H])c([H])c([H])c4C([H])([H])C([H])([H])C2([H])[H])C3([H])[H])c(C([H])([H])[H])c1[H]

>  <smiles>  (24) 
[H]C(C(=O)N1C([H])([H])C([H])([H])C([H])([H])C([H])(n2nc(-c3c([H])c([H])c(Oc4c([H])c([H])c(F)c([H])c4F)c([H])c3[H])c(C(=O)N([H])[H])c2N([H])[H])C1([H])[H])=C([H])c1oc(C([H])=C([H])C([H])([H])C([H])([H])Oc2c([H])c([H])c3c(c2[H])C([H])([H])N(C(=O)C([H])(N([H])C(=O)C([H])(N([H])C([H])([H])[H])C([H])([H])[H])C(C([H])([H])[H])(C([H])([H])[H])C([H])([H])[H])C([H])(C(=O)N([H])C2([H])c4c([H])c([H])c([H])c([H])c4C([H])([H])C([H])([H])C2([H])[H])C3([H])[H])c(C([H])([H])[H])c1[H]

$$$$
24:0:0
     RDKit          3D

 91 99  0  0  1  0  0  0  0  0999 V2000
  -29.7900  -19.4160   19.8730 C   0  0  0  0  0  3  0  0  0  0  0  0
  -29.3370  -20.7420   19.7130 C   0  0  0  0  0  3  0  0  0  0  0  0
  -31.0340  -16.4880   22.2700 C   0  0  0  0  0  3  0  0  0  0  0  0
  -31.0080  -17.1990   23.4740 C   0  0  0  0  0  3  0  0  0  0  0  0
  -30.1860  -19.1360   22.2820 C   0  0  0  0  0  3  0  0  0  0  0  0
  -30.2060  -18.4810   21.0230 C   0  0  0  0  0  0  0  0  0  0  0  0
  -30.6520  -17.0560   21.0250 C   0  0  0  0  0  0  0  0  0  0  0  0
  -30.5780  -18.5250   23.4800 C   0  0  0  0  0  0  0  0  0  0  0  0
  -30.5440  -19.2220   24.6410 F   0  0  0  0  0  0  0  0  0  0  0  0
  -31.3500  -14.8290   19.9000 C   0  0  0  0  0  0  0  0  0  0  0  0
  -30.9890  -12.5980   18.8180 C   0  0  0  0  0  2  0  0  0  0  0  0
  -29.9890  -12.7050   17.6460 C   0  0  0  0  0  2  0  0  0  0  0  0
  -28.5310  -12.6190   18.1480 C   0  0  0  0  0  2  0  0  0  0  0  0
  -28.2620  -13.5210   19.3830 C   0  0  0  0  0  3  0  0  0  0  0  0
  -29.3630  -13.3500   20.4450 C   0  0  0  0  0  2  0  0  0  0  0  0
  -30.6360  -13.6600   19.7840 N   0  0  0  0  0  0  0  0  0  0  0  0
  -32.5570  -14.8360   19.6500 O   0  0  0  0  0  0  0  0  0  0  0  0
  -30.6460  -16.0340   19.9590 N   0  0  0  0  0  0  0  0  0  0  0  0
  -29.7510  -15.9590   19.5010 H   0  0  0  0  0  0  0  0  0  0  0  0
  -25.9540  -14.2580   20.2280 C   0  0  0  0  0  0  0  0  0  0  0  0
  -24.8560  -13.5480   20.6330 C   0  0  0  0  0  0  0  0  0  0  0  0
  -25.2320  -12.1710   20.5720 C   0  0  0  0  0  0  0  0  0  0  0  0
  -26.9270  -13.3160   19.9360 N   0  0  0  0  0  0  0  0  0  0  0  0
  -26.5030  -12.0550   20.2070 N   0  0  0  0  0  0  0  0  0  0  0  0
  -24.4350  -10.9560   20.7790 C   0  0  0  0  0  0  0  0  0  0  0  0
  -24.8150   -9.9740   21.7190 C   0  0  0  0  0  3  0  0  0  0  0  0
  -24.0220   -8.8220   21.9120 C   0  0  0  0  0  3  0  0  0  0  0  0
  -22.8330   -8.6470   21.1660 C   0  0  0  0  0  0  0  0  0  0  0  0
  -22.4700   -9.6170   20.2140 C   0  0  0  0  0  3  0  0  0  0  0  0
  -23.2640  -10.7600   20.0190 C   0  0  0  0  0  3  0  0  0  0  0  0
  -22.0120   -7.5510   21.2670 O   0  0  0  0  0  0  0  0  0  0  0  0
  -21.8770   -6.8590   22.4430 C   0  0  0  0  0  0  0  0  0  0  0  0
  -21.4580   -7.4890   23.6360 C   0  0  0  0  0  3  0  0  0  0  0  0
  -21.2690   -6.7260   24.8050 C   0  0  0  0  0  3  0  0  0  0  0  0
  -21.4880   -5.3360   24.7830 C   0  0  0  0  0  0  0  0  0  0  0  0
  -21.9020   -4.7070   23.5940 C   0  0  0  0  0  3  0  0  0  0  0  0
  -22.0940   -5.4670   22.4280 C   0  0  0  0  0  0  0  0  0  0  0  0
  -22.4710   -4.8520   21.2800 F   0  0  0  0  0  0  0  0  0  0  0  0
  -21.3000   -4.6000   25.9040 F   0  0  0  0  0  0  0  0  0  0  0  0
  -23.5040  -14.1120   20.9630 C   0  0  0  0  0  0  0  0  0  0  0  0
  -22.7760  -13.4720   21.8710 N   0  0  0  0  0  0  0  0  0  0  0  0
  -23.1050  -15.1550   20.4470 O   0  0  0  0  0  0  0  0  0  0  0  0
  -23.1170  -12.6340   22.3180 H   0  0  0  0  0  0  0  0  0  0  0  0
  -21.8670  -13.8290   22.1260 H   0  0  0  0  0  0  0  0  0  0  0  0
  -26.1890  -15.6190   20.0620 N   0  0  0  0  0  0  0  0  0  0  0  0
  -25.4560  -16.3000   20.2220 H   0  0  0  0  0  0  0  0  0  0  0  0
  -27.0440  -16.0340   19.7160 H   0  0  0  0  0  0  0  0  0  0  0  0
  -28.9020  -21.9980   20.6150 C   0  0  0  0  0  2  0  0  0  0  0  0
  -29.2500  -23.5540   20.2050 C   0  0  0  0  0  3  0  0  0  0  0  0
  -28.2290  -24.7750   20.5880 C   0  0  0  0  0  3  0  0  0  0  0  0
  -28.4990  -26.2610   20.3600 O   0  0  0  0  0  0  0  0  0  0  0  0
  -24.6300  -31.8150   23.1320 C   0  0  0  0  0  0  0  0  0  0  0  0
  -27.4020  -27.1650   20.2720 C   0  0  0  0  0  0  0  0  0  0  0  0
  -23.5070  -30.3550   21.4930 C   0  0  0  0  0  3  0  0  0  0  0  0
  -25.0280  -28.7970   20.1470 C   0  0  0  0  0  0  0  0  0  0  0  0
  -26.0540  -30.6920   21.3960 C   0  0  0  0  0  2  0  0  0  0  0  0
  -26.1740  -29.2970   20.7770 C   0  0  0  0  0  0  0  0  0  0  0  0
  -27.3670  -28.4940   20.8270 C   0  0  0  0  0  3  0  0  0  0  0  0
  -26.2390  -26.7560   19.5840 C   0  0  0  0  0  3  0  0  0  0  0  0
  -25.0680  -27.5360   19.5360 C   0  0  0  0  0  3  0  0  0  0  0  0
  -23.7770  -29.6530   20.1360 C   0  0  0  0  0  2  0  0  0  0  0  0
  -24.7460  -30.9780   22.0600 N   0  0  0  0  0  0  0  0  0  0  0  0
  -23.5250  -32.0850   23.6260 O   0  0  0  0  0  0  0  0  0  0  0  0
  -22.8320  -29.3480   22.4560 C   0  0  0  0  0  0  0  0  0  0  0  0
  -21.5080  -29.1610   22.3080 N   0  0  0  0  0  0  0  0  0  0  0  0
  -23.4970  -28.7400   23.2980 O   0  0  0  0  0  0  0  0  0  0  0  0
  -21.0310  -29.6950   21.5970 H   0  0  0  0  0  0  0  0  0  0  0  0
  -18.1360  -27.9360   22.7750 C   0  0  0  0  0  0  0  0  0  0  0  0
  -20.6880  -28.2280   23.0810 C   0  0  0  0  0  3  0  0  0  0  0  0
  -20.8130  -26.7880   22.5320 C   0  0  0  0  0  2  0  0  0  0  0  0
  -19.7310  -26.4340   21.5060 C   0  0  0  0  0  2  0  0  0  0  0  0
  -18.3360  -26.5760   22.1260 C   0  0  0  0  0  2  0  0  0  0  0  0
  -19.2400  -28.7170   23.2100 C   0  0  0  0  0  0  0  0  0  0  0  0
  -18.9990  -29.9850   23.7790 C   0  0  0  0  0  3  0  0  0  0  0  0
  -17.6860  -30.4750   23.9160 C   0  0  0  0  0  3  0  0  0  0  0  0
  -16.5960  -29.6930   23.4980 C   0  0  0  0  0  3  0  0  0  0  0  0
  -16.8220  -28.4240   22.9340 C   0  0  0  0  0  3  0  0  0  0  0  0
  -25.8800  -32.4900   23.7790 C   0  0  0  0  0  3  0  0  0  0  0  0
  -26.4050  -31.7320   25.0620 C   0  0  1  0  0  0  0  0  0  0  0  0
  -25.3020  -31.4410   26.1050 C   0  0  0  0  0  1  0  0  0  0  0  0
  -27.0560  -30.3810   24.6780 C   0  0  0  0  0  1  0  0  0  0  0  0
  -27.5070  -32.5690   25.7520 C   0  0  0  0  0  1  0  0  0  0  0  0
  -25.5120  -33.8760   24.1170 N   0  0  0  0  0  0  0  0  0  0  0  0
  -25.8100  -34.9470   23.3730 C   0  0  0  0  0  0  0  0  0  0  0  0
  -26.4900  -34.8800   22.3440 O   0  0  0  0  0  0  0  0  0  0  0  0
  -24.9100  -34.0000   24.9180 H   0  0  0  0  0  0  0  0  0  0  0  0
  -24.0090  -36.6730   23.0350 C   0  0  0  0  0  1  0  0  0  0  0  0
  -25.2660  -36.3110   23.8400 C   0  0  0  0  0  3  0  0  0  0  0  0
  -27.3650  -37.2750   24.6760 C   0  0  0  0  0  1  0  0  0  0  0  0
  -26.2550  -37.4050   23.7350 N   0  0  0  0  0  0  0  0  0  0  0  0
  -25.8120  -38.3070   23.8870 H   0  0  0  0  0  0  0  0  0  0  0  0
  1  6  1  0
  2  1  2  0
  2 48  1  0
  3  4  1  0
  4  8  2  0
  5  8  1  0
  6  7  1  0
  6  5  2  0
  7  3  2  0
  8  9  1  0
 10 18  1  0
 11 16  1  0
 12 13  1  0
 12 11  1  0
 14 13  1  0
 14 23  1  0
 14 15  1  0
 16 10  1  0
 16 15  1  0
 17 10  2  0
 18  7  1  0
 19 18  1  0
 20 21  2  0
 21 40  1  0
 22 21  1  0
 22 25  1  0
 23 24  1  0
 23 20  1  0
 24 22  2  0
 25 26  1  0
 26 27  2  0
 28 31  1  0
 28 27  1  0
 29 28  2  0
 30 29  1  0
 30 25  2  0
 31 32  1  0
 32 33  1  0
 33 34  2  0
 35 34  1  0
 35 39  1  0
 36 35  2  0
 37 32  2  0
 37 36  1  0
 38 37  1  0
 40 41  1  0
 41 44  1  0
 41 43  1  0
 42 40  2  0
 45 46  1  0
 45 20  1  0
 47 45  1  0
 49 50  2  0
 49 48  1  0
 51 50  1  0
 52 63  2  0
 53 51  1  0
 53 58  1  0
 54 62  1  0
 54 64  1  0
 55 57  1  0
 56 62  1  0
 57 58  2  0
 57 56  1  0
 59 53  2  0
 60 59  1  0
 60 55  2  0
 61 55  1  0
 61 54  1  0
 62 52  1  0
 64 66  2  0
 65 64  1  0
 67 65  1  0
 68 77  2  0
 68 73  1  0
 69 65  1  0
 69 73  1  0
 70 69  1  0
 71 72  1  0
 71 70  1  0
 72 68  1  0
 73 74  2  0
 74 75  1  0
 76 75  2  0
 77 76  1  0
 78 52  1  0
 78 83  1  0
 78 79  1  0
 79 82  1  1
 79 80  1  0
 81 79  1  0
 83 86  1  0
 84 88  1  0
 84 83  1  0
 85 84  2  0
 88 87  1  0
 90 88  1  0
 90 91  1  0
 90 89  1  0
M  ISO  4  10 100  18 100  50 101  51 101
M  END
>  <TORSDO>  (25) 
F 20

>  <SCORE>  (25) 
-11.262

>  <name>  (25) 
24

>  <ligand_id>  (25) 
24

>  <original_smiles>  (25) 
[H]C(=C([H])C([H])([H])C([H])([H])C([H])([H])Oc1c([H])c([H])c2c(c1[H])C([H])([H])N(C(=O)C([H])(N([H])C(=O)C([H])(N([H])C([H])([H])[H])C([H])([H])[H])C(C([H])([H])[H])(C([H])([H])[H])C([H])([H])[H])C([H])(C(=O)N([H])C1([H])c3c([H])c([H])c([H])c([H])c3C([H])([H])C([H])([H])C1([H])[H])C2([H])[H])c1c([H])c(F)c([H])c([H])c1N([H])C(=O)N1C([H])([H])C([H])([H])C([H])([H])C([H])(n2nc(-c3c([H])c([H])c(Oc4c([H])c([H])c(F)c([H])c4F)c([H])c3[H])c(C(=O)N([H])[H])c2N([H])[H])C1([H])[H]

>  <smiles>  (25) 
[H]C(=C([H])C([H])([H])C([H])([H])C([H])([H])Oc1c([H])c([H])c2c(c1[H])C([H])([H])N(C(=O)C([H])(N([H])C(=O)C([H])(N([H])C([H])([H])[H])C([H])([H])[H])C(C([H])([H])[H])(C([H])([H])[H])C([H])([H])[H])C([H])(C(=O)N([H])C1([H])c3c([H])c([H])c([H])c([H])c3C([H])([H])C([H])([H])C1([H])[H])C2([H])[H])c1c([H])c(F)c([H])c([H])c1N([H])C(=O)N1C([H])([H])C([H])([H])C([H])([H])C([H])(n2nc(-c3c([H])c([H])c(Oc4c([H])c([H])c(F)c([H])c4F)c([H])c3[H])c(C(=O)N([H])[H])c2N([H])[H])C1([H])[H]

$$$$
25:0:0
     RDKit          3D

 93101  0  0  1  0  0  0  0  0999 V2000
  -30.8980  -18.3580   22.0600 C   0  0  0  0  0  3  0  0  0  0  0  0
  -30.1230  -20.6690   22.0700 C   0  0  0  0  0  3  0  0  0  0  0  0
  -30.8990  -18.3310   20.6480 C   0  0  0  0  0  0  0  0  0  0  0  0
  -30.4850  -19.5100   19.9450 C   0  0  0  0  0  0  0  0  0  0  0  0
  -30.1090  -20.6960   20.6540 C   0  0  0  0  0  0  0  0  0  0  0  0
  -30.5150  -19.5110   22.7630 C   0  0  0  0  0  0  0  0  0  0  0  0
  -30.5450  -19.5100   24.4890 Cl  0  0  0  0  0  0  0  0  0  0  0  0
  -29.3850  -19.9180   17.7290 C   0  0  0  0  0  2  0  0  0  0  0  0
  -30.4200  -19.4890   18.4690 C   0  0  0  0  0  3  0  0  0  0  0  0
  -31.3130  -17.0760   19.9450 C   0  0  0  0  0  3  0  0  0  0  0  0
  -31.3130  -15.8040   20.4230 C   0  0  0  0  0  3  0  0  0  0  0  0
  -31.8220  -14.7100   19.5890 C   0  0  0  0  0  0  0  0  0  0  0  0
  -31.2110  -12.6460   18.3820 C   0  0  0  0  0  2  0  0  0  0  0  0
  -30.1510  -12.9940   17.3150 C   0  0  0  0  0  2  0  0  0  0  0  0
  -28.7310  -12.9460   17.9150 C   0  0  0  0  0  2  0  0  0  0  0  0
  -28.6220  -13.7240   19.2560 C   0  0  0  0  0  3  0  0  0  0  0  0
  -29.7800  -13.3420   20.2040 C   0  0  0  0  0  2  0  0  0  0  0  0
  -31.0490  -13.5890   19.5020 N   0  0  0  0  0  0  0  0  0  0  0  0
  -32.8580  -14.8330   18.9260 O   0  0  0  0  0  0  0  0  0  0  0  0
  -26.4320  -14.4710   20.3830 C   0  0  0  0  0  0  0  0  0  0  0  0
  -25.3340  -13.7710   20.8020 C   0  0  0  0  0  0  0  0  0  0  0  0
  -25.6130  -12.3980   20.5280 C   0  0  0  0  0  0  0  0  0  0  0  0
  -27.3190  -13.5260   19.8880 N   0  0  0  0  0  0  0  0  0  0  0  0
  -26.8350  -12.2660   20.0270 N   0  0  0  0  0  0  0  0  0  0  0  0
  -24.7650  -11.2060   20.6600 C   0  0  0  0  0  0  0  0  0  0  0  0
  -25.1440  -10.1200   21.4790 C   0  0  0  0  0  3  0  0  0  0  0  0
  -24.3050   -8.9910   21.6040 C   0  0  0  0  0  3  0  0  0  0  0  0
  -23.0730   -8.9430   20.9100 C   0  0  0  0  0  0  0  0  0  0  0  0
  -22.7110  -10.0170   20.0770 C   0  0  0  0  0  3  0  0  0  0  0  0
  -23.5500  -11.1370   19.9500 C   0  0  0  0  0  3  0  0  0  0  0  0
  -22.2060   -7.8780   20.9510 O   0  0  0  0  0  0  0  0  0  0  0  0
  -22.0730   -7.0990   22.0710 C   0  0  0  0  0  0  0  0  0  0  0  0
  -21.6430   -7.6360   23.3060 C   0  0  0  0  0  3  0  0  0  0  0  0
  -21.4540   -6.7870   24.4140 C   0  0  0  0  0  3  0  0  0  0  0  0
  -21.6850   -5.4030   24.2910 C   0  0  0  0  0  0  0  0  0  0  0  0
  -22.1070   -4.8680   23.0620 C   0  0  0  0  0  3  0  0  0  0  0  0
  -22.2970   -5.7120   21.9540 C   0  0  0  0  0  0  0  0  0  0  0  0
  -22.6830   -5.1880   20.7660 F   0  0  0  0  0  0  0  0  0  0  0  0
  -21.4960   -4.5850   25.3530 F   0  0  0  0  0  0  0  0  0  0  0  0
  -24.0560  -14.3490   21.3410 C   0  0  0  0  0  0  0  0  0  0  0  0
  -23.3740  -13.6200   22.2160 N   0  0  0  0  0  0  0  0  0  0  0  0
  -23.6790  -15.4750   21.0200 O   0  0  0  0  0  0  0  0  0  0  0  0
  -23.6980  -12.7080   22.5020 H   0  0  0  0  0  0  0  0  0  0  0  0
  -22.5190  -13.9830   22.6110 H   0  0  0  0  0  0  0  0  0  0  0  0
  -26.7440  -15.8270   20.3660 N   0  0  0  0  0  0  0  0  0  0  0  0
  -26.0970  -16.5390   20.6840 H   0  0  0  0  0  0  0  0  0  0  0  0
  -27.6130  -16.2090   20.0120 H   0  0  0  0  0  0  0  0  0  0  0  0
  -29.7720  -21.8460   19.9400 O   0  0  0  0  0  0  0  0  0  0  0  0
  -29.3720  -23.0250   20.6680 C   0  0  0  0  0  2  0  0  0  0  0  0
  -29.2700  -24.2820   19.7650 C   0  0  0  0  0  0  0  0  0  0  0  0
  -29.4810  -24.2280   18.5480 O   0  0  0  0  0  0  0  0  0  0  0  0
  -28.8890  -25.6070   20.4680 C   0  0  0  0  0  2  0  0  0  0  0  0
  -28.8190  -26.7440   19.5760 O   0  0  0  0  0  0  0  0  0  0  0  0
  -24.5970  -31.2760   23.1150 C   0  0  0  0  0  0  0  0  0  0  0  0
  -27.6110  -27.4010   19.6350 C   0  0  0  0  0  0  0  0  0  0  0  0
  -23.5080  -29.9110   21.3640 C   0  0  0  0  0  3  0  0  0  0  0  0
  -25.0840  -28.6590   19.7930 C   0  0  0  0  0  0  0  0  0  0  0  0
  -25.9830  -30.5370   21.1770 C   0  0  0  0  0  2  0  0  0  0  0  0
  -26.1950  -29.2440   20.4150 C   0  0  0  0  0  0  0  0  0  0  0  0
  -27.4650  -28.6240   20.3310 C   0  0  0  0  0  3  0  0  0  0  0  0
  -26.4850  -26.8310   19.0060 C   0  0  0  0  0  3  0  0  0  0  0  0
  -25.2250  -27.4540   19.0820 C   0  0  0  0  0  3  0  0  0  0  0  0
  -23.7590  -29.3770   19.9280 C   0  0  0  0  0  2  0  0  0  0  0  0
  -24.7140  -30.5860   21.9440 N   0  0  0  0  0  0  0  0  0  0  0  0
  -23.5040  -31.3890   23.6880 O   0  0  0  0  0  0  0  0  0  0  0  0
  -22.9770  -28.7490   22.2350 C   0  0  0  0  0  0  0  0  0  0  0  0
  -21.6940  -28.3980   22.0500 N   0  0  0  0  0  0  0  0  0  0  0  0
  -23.7180  -28.1680   23.0320 O   0  0  0  0  0  0  0  0  0  0  0  0
  -21.1490  -28.9290   21.3850 H   0  0  0  0  0  0  0  0  0  0  0  0
  -18.5290  -26.6730   22.2890 C   0  0  0  0  0  0  0  0  0  0  0  0
  -20.9960  -27.3070   22.7290 C   0  0  0  0  0  3  0  0  0  0  0  0
  -21.3510  -25.9410   22.1010 C   0  0  0  0  0  2  0  0  0  0  0  0
  -20.3720  -25.5040   21.0070 C   0  0  0  0  0  2  0  0  0  0  0  0
  -18.9510  -25.4040   21.5690 C   0  0  0  0  0  2  0  0  0  0  0  0
  -19.4890  -27.5750   22.8190 C   0  0  0  0  0  0  0  0  0  0  0  0
  -19.0440  -28.7590   23.4450 C   0  0  0  0  0  3  0  0  0  0  0  0
  -17.6710  -29.0460   23.5500 C   0  0  0  0  0  3  0  0  0  0  0  0
  -16.7230  -28.1420   23.0400 C   0  0  0  0  0  3  0  0  0  0  0  0
  -17.1530  -26.9570   22.4150 C   0  0  0  0  0  3  0  0  0  0  0  0
  -25.8260  -31.9760   23.7780 C   0  0  0  0  0  3  0  0  0  0  0  0
  -25.4160  -33.3390   24.1400 N   0  0  0  0  0  0  0  0  0  0  0  0
  -25.7100  -34.4360   23.4310 C   0  0  0  0  0  0  0  0  0  0  0  0
  -26.4260  -34.4140   22.4250 O   0  0  0  0  0  0  0  0  0  0  0  0
  -24.7850  -33.4280   24.9230 H   0  0  0  0  0  0  0  0  0  0  0  0
  -23.8770  -36.1190   23.0660 C   0  0  0  0  0  1  0  0  0  0  0  0
  -25.1130  -35.7730   23.9120 C   0  0  0  0  0  3  0  0  0  0  0  0
  -27.1510  -36.7730   24.8500 C   0  0  0  0  0  1  0  0  0  0  0  0
  -26.0730  -36.8980   23.8730 N   0  0  0  0  0  0  0  0  0  0  0  0
  -25.5970  -37.7810   24.0400 H   0  0  0  0  0  0  0  0  0  0  0  0
  -26.3750  -31.2030   25.0400 C   0  0  1  0  0  0  0  0  0  0  0  0
  -25.2850  -30.8650   26.0850 C   0  0  0  0  0  1  0  0  0  0  0  0
  -27.0510  -29.8770   24.6180 C   0  0  0  0  0  1  0  0  0  0  0  0
  -27.4620  -32.0510   25.7430 C   0  0  0  0  0  1  0  0  0  0  0  0
  1  6  1  0
  2  6  2  0
  3  1  2  0
  4  3  1  0
  4  5  2  0
  5  2  1  0
  6  7  1  0
  8  9  2  0
  9  4  1  0
 10 11  2  0
 10  3  1  0
 12 11  1  0
 13 18  1  0
 14 15  1  0
 14 13  1  0
 16 15  1  0
 16 23  1  0
 16 17  1  0
 18 12  1  0
 18 17  1  0
 19 12  2  0
 20 21  2  0
 21 40  1  0
 22 25  1  0
 22 21  1  0
 23 24  1  0
 23 20  1  0
 24 22  2  0
 25 26  1  0
 26 27  2  0
 28 31  1  0
 28 27  1  0
 29 28  2  0
 30 29  1  0
 30 25  2  0
 31 32  1  0
 32 33  1  0
 33 34  2  0
 35 34  1  0
 35 39  1  0
 36 35  2  0
 37 32  2  0
 37 36  1  0
 38 37  1  0
 40 41  1  0
 41 43  1  0
 41 44  1  0
 42 40  2  0
 45 20  1  0
 45 46  1  0
 47 45  1  0
 48  5  1  0
 48 49  1  0
 50 52  1  0
 50 49  1  0
 51 50  2  0
 53 55  1  0
 53 52  1  0
 54 65  2  0
 55 60  1  0
 56 64  1  0
 56 66  1  0
 57 63  1  0
 57 59  1  0
 58 64  1  0
 59 58  1  0
 60 59  2  0
 61 62  1  0
 61 55  2  0
 62 57  2  0
 63 56  1  0
 64 54  1  0
 66 68  2  0
 67 66  1  0
 69 67  1  0
 70 79  2  0
 70 75  1  0
 71 67  1  0
 71 75  1  0
 72 71  1  0
 73 74  1  0
 73 72  1  0
 74 70  1  0
 75 76  2  0
 76 77  1  0
 78 77  2  0
 79 78  1  0
 80 54  1  0
 80 81  1  0
 80 90  1  0
 81 84  1  0
 82 86  1  0
 82 81  1  0
 83 82  2  0
 86 85  1  0
 88 86  1  0
 88 89  1  0
 88 87  1  0
 90 93  1  1
 90 91  1  0
 92 90  1  0
M  ISO  4  11 100  12 100  52 101  53 101
M  END
>  <TORSDO>  (26) 
F 22

>  <SCORE>  (26) 
-8.484

>  <name>  (26) 
25

>  <ligand_id>  (26) 
25

>  <original_smiles>  (26) 
[H]C([H])=C([H])c1c(OC([H])([H])C(=O)C([H])([H])Oc2c([H])c([H])c3c(c2[H])C([H])([H])N(C(=O)C([H])(N([H])C(=O)C([H])(N([H])C([H])([H])[H])C([H])([H])[H])C(C([H])([H])[H])(C([H])([H])[H])C([H])([H])[H])C([H])(C(=O)N([H])C2([H])c4c([H])c([H])c([H])c([H])c4C([H])([H])C([H])([H])C2([H])[H])C3([H])[H])c([H])c(Cl)c([H])c1C([H])=C([H])C(=O)N1C([H])([H])C([H])([H])C([H])([H])C([H])(n2nc(-c3c([H])c([H])c(Oc4c([H])c([H])c(F)c([H])c4F)c([H])c3[H])c(C(=O)N([H])[H])c2N([H])[H])C1([H])[H]

>  <smiles>  (26) 
[H]C([H])=C([H])c1c(OC([H])([H])C(=O)C([H])([H])Oc2c([H])c([H])c3c(c2[H])C([H])([H])N(C(=O)C([H])(N([H])C(=O)C([H])(N([H])C([H])([H])[H])C([H])([H])[H])C(C([H])([H])[H])(C([H])([H])[H])C([H])([H])[H])C([H])(C(=O)N([H])C2([H])c4c([H])c([H])c([H])c([H])c4C([H])([H])C([H])([H])C2([H])[H])C3([H])[H])c([H])c(Cl)c([H])c1C([H])=C([H])C(=O)N1C([H])([H])C([H])([H])C([H])([H])C([H])(n2nc(-c3c([H])c([H])c(Oc4c([H])c([H])c(F)c([H])c4F)c([H])c3[H])c(C(=O)N([H])[H])c2N([H])[H])C1([H])[H]

$$$$
26:0:0
     RDKit          3D

 91 99  0  0  1  0  0  0  0  0999 V2000
  -28.4980  -21.2130   21.1970 C   0  0  0  0  0  3  0  0  0  0  0  0
  -28.7390  -22.5390   21.2730 C   0  0  0  0  0  3  0  0  0  0  0  0
  -29.3370  -18.9400   20.4440 C   0  0  0  0  0  3  0  0  0  0  0  0
  -30.4150  -18.7280   18.2650 C   0  0  0  0  0  3  0  0  0  0  0  0
  -29.5600  -20.8790   18.9720 C   0  0  0  0  0  3  0  0  0  0  0  0
  -30.0120  -18.1430   19.4860 C   0  0  0  0  0  0  0  0  0  0  0  0
  -29.1210  -20.3230   20.1960 C   0  0  0  0  0  0  0  0  0  0  0  0
  -30.1950  -20.0890   18.0040 C   0  0  0  0  0  0  0  0  0  0  0  0
  -30.6550  -20.7110   16.7010 C   0  0  0  0  0  1  0  0  0  0  0  0
  -30.3840  -16.7250   19.6430 C   0  0  0  0  0  2  0  0  0  0  0  0
  -29.9900  -15.7390   20.4870 C   0  0  0  0  0  2  0  0  0  0  0  0
  -30.7190  -14.4760   20.3360 C   0  0  0  0  0  0  0  0  0  0  0  0
  -30.3370  -12.3040   19.2870 C   0  0  0  0  0  2  0  0  0  0  0  0
  -29.4110  -12.5260   18.0740 C   0  0  0  0  0  2  0  0  0  0  0  0
  -27.9370  -12.4100   18.5050 C   0  0  0  0  0  2  0  0  0  0  0  0
  -27.6060  -13.2640   19.7590 C   0  0  0  0  0  3  0  0  0  0  0  0
  -28.6670  -13.0900   20.8670 C   0  0  0  0  0  2  0  0  0  0  0  0
  -29.9930  -13.3280   20.2880 N   0  0  0  0  0  0  0  0  0  0  0  0
  -31.9100  -14.4920   20.0200 O   0  0  0  0  0  0  0  0  0  0  0  0
  -25.2190  -13.8650   20.4960 C   0  0  0  0  0  0  0  0  0  0  0  0
  -24.1550  -13.0920   20.8740 C   0  0  0  0  0  0  0  0  0  0  0  0
  -24.6180  -11.7410   20.8460 C   0  0  0  0  0  0  0  0  0  0  0  0
  -26.2620  -12.9850   20.2570 N   0  0  0  0  0  0  0  0  0  0  0  0
  -25.9060  -11.7030   20.5290 N   0  0  0  0  0  0  0  0  0  0  0  0
  -23.8950  -10.4780   21.0470 C   0  0  0  0  0  0  0  0  0  0  0  0
  -24.3460   -9.5060   21.9670 C   0  0  0  0  0  3  0  0  0  0  0  0
  -23.6230   -8.3080   22.1560 C   0  0  0  0  0  3  0  0  0  0  0  0
  -22.4330   -8.0740   21.4240 C   0  0  0  0  0  0  0  0  0  0  0  0
  -22.0010   -9.0340   20.4930 C   0  0  0  0  0  3  0  0  0  0  0  0
  -22.7250  -10.2240   20.3020 C   0  0  0  0  0  3  0  0  0  0  0  0
  -21.6800   -6.9300   21.5230 O   0  0  0  0  0  0  0  0  0  0  0  0
  -21.6670   -6.1720   22.6660 C   0  0  0  0  0  0  0  0  0  0  0  0
  -21.2930   -6.7140   23.9150 C   0  0  0  0  0  3  0  0  0  0  0  0
  -21.2270   -5.8830   25.0510 C   0  0  0  0  0  3  0  0  0  0  0  0
  -21.5240   -4.5120   24.9400 C   0  0  0  0  0  0  0  0  0  0  0  0
  -21.8900   -3.9690   23.6960 C   0  0  0  0  0  3  0  0  0  0  0  0
  -21.9580   -4.7970   22.5620 C   0  0  0  0  0  0  0  0  0  0  0  0
  -22.2910   -4.2640   21.3600 F   0  0  0  0  0  0  0  0  0  0  0  0
  -21.4530   -3.7120   26.0290 F   0  0  0  0  0  0  0  0  0  0  0  0
  -22.7590  -13.5680   21.1540 C   0  0  0  0  0  0  0  0  0  0  0  0
  -22.0390  -12.8750   22.0290 N   0  0  0  0  0  0  0  0  0  0  0  0
  -22.3150  -14.5900   20.6320 O   0  0  0  0  0  0  0  0  0  0  0  0
  -22.4120  -12.0480   22.4720 H   0  0  0  0  0  0  0  0  0  0  0  0
  -21.1020  -13.1740   22.2590 H   0  0  0  0  0  0  0  0  0  0  0  0
  -25.3820  -15.2340   20.3150 N   0  0  0  0  0  0  0  0  0  0  0  0
  -24.6230  -15.8940   20.4400 H   0  0  0  0  0  0  0  0  0  0  0  0
  -26.2420  -15.6730   20.0050 H   0  0  0  0  0  0  0  0  0  0  0  0
  -28.0410  -23.5320   22.1850 C   0  0  0  0  0  2  0  0  0  0  0  0
  -27.5580  -24.7720   21.4000 C   0  0  0  0  0  2  0  0  0  0  0  0
  -28.6400  -25.8610   21.1940 C   0  0  0  0  0  2  0  0  0  0  0  0
  -28.3970  -26.7280   20.0810 O   0  0  0  0  0  0  0  0  0  0  0  0
  -24.6080  -31.8850   23.2230 C   0  0  0  0  0  0  0  0  0  0  0  0
  -27.2420  -27.4650   20.1360 C   0  0  0  0  0  0  0  0  0  0  0  0
  -23.3980  -30.4860   21.5800 C   0  0  0  0  0  3  0  0  0  0  0  0
  -24.8500  -28.9540   20.1510 C   0  0  0  0  0  0  0  0  0  0  0  0
  -25.9210  -30.8520   21.3770 C   0  0  0  0  0  2  0  0  0  0  0  0
  -26.0060  -29.4800   20.7430 C   0  0  0  0  0  0  0  0  0  0  0  0
  -27.2090  -28.7400   20.7390 C   0  0  0  0  0  3  0  0  0  0  0  0
  -26.0790  -26.9530   19.5280 C   0  0  0  0  0  3  0  0  0  0  0  0
  -24.8780  -27.6870   19.5430 C   0  0  0  0  0  3  0  0  0  0  0  0
  -23.6050  -29.8100   20.1990 C   0  0  0  0  0  2  0  0  0  0  0  0
  -24.6610  -31.0890   22.1190 N   0  0  0  0  0  0  0  0  0  0  0  0
  -23.5270  -32.1550   23.7660 O   0  0  0  0  0  0  0  0  0  0  0  0
  -22.7520  -29.4610   22.5390 C   0  0  0  0  0  0  0  0  0  0  0  0
  -21.4270  -29.2770   22.4130 N   0  0  0  0  0  0  0  0  0  0  0  0
  -23.4370  -28.8340   23.3520 O   0  0  0  0  0  0  0  0  0  0  0  0
  -20.9350  -29.8340   21.7280 H   0  0  0  0  0  0  0  0  0  0  0  0
  -18.0560  -28.0780   22.9080 C   0  0  0  0  0  0  0  0  0  0  0  0
  -20.6130  -28.3380   23.1820 C   0  0  0  0  0  3  0  0  0  0  0  0
  -20.7170  -26.9070   22.6030 C   0  0  0  0  0  2  0  0  0  0  0  0
  -19.6150  -26.5860   21.5890 C   0  0  0  0  0  2  0  0  0  0  0  0
  -18.2340  -26.7290   22.2330 C   0  0  0  0  0  2  0  0  0  0  0  0
  -19.1730  -28.8400   23.3400 C   0  0  0  0  0  0  0  0  0  0  0  0
  -18.9540  -30.1040   23.9300 C   0  0  0  0  0  3  0  0  0  0  0  0
  -17.6490  -30.6050   24.0930 C   0  0  0  0  0  3  0  0  0  0  0  0
  -16.5450  -29.8400   23.6780 C   0  0  0  0  0  3  0  0  0  0  0  0
  -16.7490  -28.5780   23.0910 C   0  0  0  0  0  3  0  0  0  0  0  0
  -25.8960  -32.5140   23.8410 C   0  0  0  0  0  3  0  0  0  0  0  0
  -25.5890  -33.9100   24.1790 N   0  0  0  0  0  0  0  0  0  0  0  0
  -25.9200  -34.9640   23.4210 C   0  0  0  0  0  0  0  0  0  0  0  0
  -26.5870  -34.8630   22.3870 O   0  0  0  0  0  0  0  0  0  0  0  0
  -24.9950  -34.0620   24.9800 H   0  0  0  0  0  0  0  0  0  0  0  0
  -24.1880  -36.7540   23.0740 C   0  0  0  0  0  1  0  0  0  0  0  0
  -25.4310  -36.3500   23.8820 C   0  0  0  0  0  3  0  0  0  0  0  0
  -27.5670  -37.2310   24.7100 C   0  0  0  0  0  1  0  0  0  0  0  0
  -26.4620  -37.4050   23.7720 N   0  0  0  0  0  0  0  0  0  0  0  0
  -26.0550  -38.3240   23.9260 H   0  0  0  0  0  0  0  0  0  0  0  0
  -26.4220  -31.7340   25.1080 C   0  0  1  0  0  0  0  0  0  0  0  0
  -25.3380  -31.4880   26.1820 C   0  0  0  0  0  1  0  0  0  0  0  0
  -27.0030  -30.3600   24.7000 C   0  0  0  0  0  1  0  0  0  0  0  0
  -27.5790  -32.5230   25.7660 C   0  0  0  0  0  1  0  0  0  0  0  0
  1  2  2  0
  2 48  1  0
  4  6  1  0
  5  7  2  0
  6 10  1  0
  6  3  2  0
  7  3  1  0
  7  1  1  0
  8  4  2  0
  8  5  1  0
  9  8  1  0
 10 11  1  0
 12 11  1  0
 13 18  1  0
 14 15  1  0
 14 13  1  0
 16 15  1  0
 16 23  1  0
 16 17  1  0
 18 12  1  0
 18 17  1  0
 19 12  2  0
 20 21  2  0
 21 40  1  0
 22 21  1  0
 22 25  1  0
 23 20  1  0
 23 24  1  0
 24 22  2  0
 25 26  1  0
 26 27  2  0
 28 31  1  0
 28 27  1  0
 29 28  2  0
 30 29  1  0
 30 25  2  0
 31 32  1  0
 32 33  1  0
 33 34  2  0
 35 34  1  0
 35 39  1  0
 36 35  2  0
 37 32  2  0
 37 36  1  0
 38 37  1  0
 40 41  1  0
 41 44  1  0
 41 43  1  0
 42 40  2  0
 45 46  1  0
 45 20  1  0
 47 45  1  0
 49 48  1  0
 50 49  1  0
 51 53  1  0
 51 50  1  0
 52 63  2  0
 53 58  1  0
 54 62  1  0
 54 64  1  0
 55 61  1  0
 55 57  1  0
 56 62  1  0
 57 56  1  0
 58 57  2  0
 59 60  1  0
 59 53  2  0
 60 55  2  0
 61 54  1  0
 62 52  1  0
 64 66  2  0
 65 64  1  0
 67 65  1  0
 68 77  2  0
 68 73  1  0
 69 65  1  0
 69 73  1  0
 70 69  1  0
 71 72  1  0
 71 70  1  0
 72 68  1  0
 73 74  2  0
 74 75  1  0
 76 75  2  0
 77 76  1  0
 78 52  1  0
 78 79  1  0
 78 88  1  0
 79 82  1  0
 80 84  1  0
 80 79  1  0
 81 80  2  0
 84 83  1  0
 86 84  1  0
 86 87  1  0
 86 85  1  0
 88 91  1  1
 88 89  1  0
 90 88  1  0
M  ISO  4  11 100  12 100  50 101  51 101
M  END
>  <TORSDO>  (27) 
F 21

>  <SCORE>  (27) 
-13.510

>  <name>  (27) 
26

>  <ligand_id>  (27) 
26

>  <original_smiles>  (27) 
[H]C(C(=O)N1C([H])([H])C([H])([H])C([H])([H])C([H])(n2nc(-c3c([H])c([H])c(Oc4c([H])c([H])c(F)c([H])c4F)c([H])c3[H])c(C(=O)N([H])[H])c2N([H])[H])C1([H])[H])=C([H])c1c([H])c(C([H])=C([H])C([H])([H])C([H])([H])C([H])([H])Oc2c([H])c([H])c3c(c2[H])C([H])([H])N(C(=O)C([H])(N([H])C(=O)C([H])(N([H])C([H])([H])[H])C([H])([H])[H])C(C([H])([H])[H])(C([H])([H])[H])C([H])([H])[H])C([H])(C(=O)N([H])C2([H])c4c([H])c([H])c([H])c([H])c4C([H])([H])C([H])([H])C2([H])[H])C3([H])[H])c([H])c(C([H])([H])[H])c1[H]

>  <smiles>  (27) 
[H]C(C(=O)N1C([H])([H])C([H])([H])C([H])([H])C([H])(n2nc(-c3c([H])c([H])c(Oc4c([H])c([H])c(F)c([H])c4F)c([H])c3[H])c(C(=O)N([H])[H])c2N([H])[H])C1([H])[H])=C([H])c1c([H])c(C([H])=C([H])C([H])([H])C([H])([H])C([H])([H])Oc2c([H])c([H])c3c(c2[H])C([H])([H])N(C(=O)C([H])(N([H])C(=O)C([H])(N([H])C([H])([H])[H])C([H])([H])[H])C(C([H])([H])[H])(C([H])([H])[H])C([H])([H])[H])C([H])(C(=O)N([H])C2([H])c4c([H])c([H])c([H])c([H])c4C([H])([H])C([H])([H])C2([H])[H])C3([H])[H])c([H])c(C([H])([H])[H])c1[H]

$$$$
27:0:0
     RDKit          3D

 92100  0  0  1  0  0  0  0  0999 V2000
  -30.9050  -18.8520   18.7100 C   0  0  0  0  0  3  0  0  0  0  0  0
  -30.9330  -17.5540   19.2480 C   0  0  0  0  0  3  0  0  0  0  0  0
  -29.9270  -18.3990   21.2850 C   0  0  0  0  0  3  0  0  0  0  0  0
  -30.3870  -19.9490   19.4330 C   0  0  0  0  0  0  0  0  0  0  0  0
  -30.4440  -17.3070   20.5500 C   0  0  0  0  0  0  0  0  0  0  0  0
  -29.8980  -19.7210   20.7510 C   0  0  0  0  0  0  0  0  0  0  0  0
  -31.1720  -14.9350   20.8540 C   0  0  0  0  0  0  0  0  0  0  0  0
  -31.0410  -12.6240   20.0270 C   0  0  0  0  0  2  0  0  0  0  0  0
  -30.2520  -12.6470   18.7020 C   0  0  0  0  0  2  0  0  0  0  0  0
  -28.7380  -12.5320   18.9670 C   0  0  0  0  0  2  0  0  0  0  0  0
  -28.2440  -13.5230   20.0550 C   0  0  0  0  0  3  0  0  0  0  0  0
  -29.1600  -13.4810   21.3000 C   0  0  0  0  0  2  0  0  0  0  0  0
  -30.5430  -13.7290   20.8580 N   0  0  0  0  0  0  0  0  0  0  0  0
  -32.3510  -15.0710   20.5140 O   0  0  0  0  0  0  0  0  0  0  0  0
  -30.3820  -15.9940   21.1230 N   0  0  0  0  0  0  0  0  0  0  0  0
  -29.5230  -15.7640   21.5980 H   0  0  0  0  0  0  0  0  0  0  0  0
  -25.7900  -14.1750   20.4830 C   0  0  0  0  0  0  0  0  0  0  0  0
  -24.6820  -13.4260   20.7800 C   0  0  0  0  0  0  0  0  0  0  0  0
  -25.1330  -12.0720   20.8620 C   0  0  0  0  0  0  0  0  0  0  0  0
  -26.8460  -13.2790   20.4050 N   0  0  0  0  0  0  0  0  0  0  0  0
  -26.4460  -12.0120   20.6880 N   0  0  0  0  0  0  0  0  0  0  0  0
  -24.3800  -10.8240   21.0390 C   0  0  0  0  0  0  0  0  0  0  0  0
  -24.7190   -9.8950   22.0470 C   0  0  0  0  0  3  0  0  0  0  0  0
  -23.9690   -8.7100   22.2090 C   0  0  0  0  0  3  0  0  0  0  0  0
  -22.8670   -8.4450   21.3620 C   0  0  0  0  0  0  0  0  0  0  0  0
  -22.5480   -9.3620   20.3450 C   0  0  0  0  0  3  0  0  0  0  0  0
  -23.2990  -10.5400   20.1810 C   0  0  0  0  0  3  0  0  0  0  0  0
  -22.0980   -7.3090   21.4290 O   0  0  0  0  0  0  0  0  0  0  0  0
  -21.9550   -6.6050   22.5960 C   0  0  0  0  0  0  0  0  0  0  0  0
  -21.4340   -7.2000   23.7670 C   0  0  0  0  0  3  0  0  0  0  0  0
  -21.2400   -6.4210   24.9250 C   0  0  0  0  0  3  0  0  0  0  0  0
  -21.5560   -5.0480   24.9140 C   0  0  0  0  0  0  0  0  0  0  0  0
  -22.0690   -4.4540   23.7470 C   0  0  0  0  0  3  0  0  0  0  0  0
  -22.2650   -5.2300   22.5920 C   0  0  0  0  0  0  0  0  0  0  0  0
  -22.7400   -4.6480   21.4650 F   0  0  0  0  0  0  0  0  0  0  0  0
  -21.3620   -4.2990   26.0230 F   0  0  0  0  0  0  0  0  0  0  0  0
  -23.2700  -13.9220   20.8880 C   0  0  0  0  0  0  0  0  0  0  0  0
  -22.4550  -13.2740   21.7130 N   0  0  0  0  0  0  0  0  0  0  0  0
  -22.8930  -14.9200   20.2750 O   0  0  0  0  0  0  0  0  0  0  0  0
  -22.7710  -12.4670   22.2310 H   0  0  0  0  0  0  0  0  0  0  0  0
  -21.5020  -13.5900   21.8310 H   0  0  0  0  0  0  0  0  0  0  0  0
  -25.9860  -15.5340   20.2570 N   0  0  0  0  0  0  0  0  0  0  0  0
  -25.2210  -16.1990   20.2500 H   0  0  0  0  0  0  0  0  0  0  0  0
  -26.8710  -15.9470   19.9890 H   0  0  0  0  0  0  0  0  0  0  0  0
  -30.4330  -21.2640   18.7350 C   0  0  0  0  0  3  0  0  0  0  0  0
  -30.2130  -22.5140   19.1960 C   0  0  0  0  0  3  0  0  0  0  0  0
  -30.3330  -23.7590   18.3200 C   0  0  0  0  0  2  0  0  0  0  0  0
  -29.0860  -24.6730   18.3090 C   0  0  0  0  0  2  0  0  0  0  0  0
  -28.9220  -25.5600   19.5640 C   0  0  0  0  0  2  0  0  0  0  0  0
  -28.8710  -26.9570   19.2390 O   0  0  0  0  0  0  0  0  0  0  0  0
  -24.6560  -31.4000   22.8420 C   0  0  0  0  0  0  0  0  0  0  0  0
  -27.6340  -27.5620   19.3030 C   0  0  0  0  0  0  0  0  0  0  0  0
  -23.5530  -30.0810   21.0630 C   0  0  0  0  0  3  0  0  0  0  0  0
  -25.1140  -28.8330   19.4780 C   0  0  0  0  0  0  0  0  0  0  0  0
  -26.0320  -30.6820   20.8910 C   0  0  0  0  0  2  0  0  0  0  0  0
  -26.2280  -29.3980   20.1110 C   0  0  0  0  0  0  0  0  0  0  0  0
  -27.4910  -28.7740   20.0160 C   0  0  0  0  0  3  0  0  0  0  0  0
  -26.5020  -27.0040   18.6680 C   0  0  0  0  0  3  0  0  0  0  0  0
  -25.2460  -27.6340   18.7540 C   0  0  0  0  0  3  0  0  0  0  0  0
  -23.8000  -29.5670   19.6200 C   0  0  0  0  0  2  0  0  0  0  0  0
  -24.7660  -30.7310   21.6590 N   0  0  0  0  0  0  0  0  0  0  0  0
  -23.5640  -31.5180   23.4130 O   0  0  0  0  0  0  0  0  0  0  0  0
  -23.0050  -28.9110   21.9140 C   0  0  0  0  0  0  0  0  0  0  0  0
  -21.6980  -28.6350   21.7780 N   0  0  0  0  0  0  0  0  0  0  0  0
  -23.7510  -28.2610   22.6500 O   0  0  0  0  0  0  0  0  0  0  0  0
  -21.1530  -29.2190   21.1590 H   0  0  0  0  0  0  0  0  0  0  0  0
  -18.4410  -27.1210   22.1670 C   0  0  0  0  0  0  0  0  0  0  0  0
  -20.9730  -27.5550   22.4470 C   0  0  0  0  0  3  0  0  0  0  0  0
  -21.1830  -26.2090   21.7160 C   0  0  0  0  0  2  0  0  0  0  0  0
  -20.0940  -25.9100   20.6810 C   0  0  0  0  0  2  0  0  0  0  0  0
  -18.7150  -25.8710   21.3460 C   0  0  0  0  0  2  0  0  0  0  0  0
  -19.5010  -27.9210   22.6700 C   0  0  0  0  0  0  0  0  0  0  0  0
  -19.1910  -29.0900   23.3960 C   0  0  0  0  0  3  0  0  0  0  0  0
  -17.8530  -29.4640   23.6230 C   0  0  0  0  0  3  0  0  0  0  0  0
  -16.8080  -28.6610   23.1360 C   0  0  0  0  0  3  0  0  0  0  0  0
  -17.1020  -27.4900   22.4140 C   0  0  0  0  0  3  0  0  0  0  0  0
  -25.8930  -32.0690   23.5210 C   0  0  0  0  0  3  0  0  0  0  0  0
  -25.4770  -33.3990   23.9860 N   0  0  0  0  0  0  0  0  0  0  0  0
  -25.7210  -34.5430   23.3340 C   0  0  0  0  0  0  0  0  0  0  0  0
  -26.3940  -34.5940   22.3000 O   0  0  0  0  0  0  0  0  0  0  0  0
  -24.8750  -33.4270   24.7970 H   0  0  0  0  0  0  0  0  0  0  0  0
  -23.8500  -36.2130   23.1520 C   0  0  0  0  0  1  0  0  0  0  0  0
  -25.1250  -35.8370   23.9210 C   0  0  0  0  0  3  0  0  0  0  0  0
  -27.1860  -36.8110   24.8340 C   0  0  0  0  0  1  0  0  0  0  0  0
  -26.0680  -36.9770   23.9100 N   0  0  0  0  0  0  0  0  0  0  0  0
  -25.5890  -37.8430   24.1430 H   0  0  0  0  0  0  0  0  0  0  0  0
  -26.4850  -31.2200   24.7120 C   0  0  1  0  0  0  0  0  0  0  0  0
  -25.4300  -30.7920   25.7580 C   0  0  0  0  0  1  0  0  0  0  0  0
  -27.1670  -29.9380   24.1790 C   0  0  0  0  0  1  0  0  0  0  0  0
  -27.5800  -32.0330   25.4420 C   0  0  0  0  0  1  0  0  0  0  0  0
  -29.1830  -20.6640   22.8540 C   0  0  0  0  0  1  0  0  0  0  0  0
  -29.3890  -20.7950   21.4520 O   0  0  0  0  0  0  0  0  0  0  0  0
  1  2  2  0
  1  4  1  0
  2  5  1  0
  4  6  2  0
  5 15  1  0
  5  3  2  0
  6  3  1  0
  6 92  1  0
  7 13  1  0
  7 15  1  0
  8 13  1  0
  9 10  1  0
  9  8  1  0
 11 10  1  0
 11 20  1  0
 11 12  1  0
 13 12  1  0
 14  7  2  0
 15 16  1  0
 17 18  2  0
 18 19  1  0
 18 37  1  0
 19 22  1  0
 20 17  1  0
 20 21  1  0
 21 19  2  0
 22 23  1  0
 23 24  2  0
 25 28  1  0
 25 24  1  0
 26 25  2  0
 27 26  1  0
 27 22  2  0
 28 29  1  0
 29 30  1  0
 30 31  2  0
 32 31  1  0
 32 36  1  0
 33 32  2  0
 34 29  2  0
 34 33  1  0
 35 34  1  0
 37 38  1  0
 38 41  1  0
 38 40  1  0
 39 37  2  0
 42 17  1  0
 43 42  1  0
 44 42  1  0
 45 46  2  0
 45  4  1  0
 47 46  1  0
 48 47  1  0
 48 49  1  0
 50 52  1  0
 50 49  1  0
 51 62  2  0
 52 57  1  0
 53 61  1  0
 53 63  1  0
 54 60  1  0
 54 56  1  0
 55 61  1  0
 56 55  1  0
 57 56  2  0
 58 59  1  0
 58 52  2  0
 59 54  2  0
 60 53  1  0
 61 51  1  0
 63 65  2  0
 64 63  1  0
 66 64  1  0
 67 76  2  0
 67 72  1  0
 68 64  1  0
 68 72  1  0
 69 68  1  0
 70 71  1  0
 70 69  1  0
 71 67  1  0
 72 73  2  0
 73 74  1  0
 75 74  2  0
 76 75  1  0
 77 51  1  0
 77 78  1  0
 77 87  1  0
 78 81  1  0
 79 83  1  0
 79 78  1  0
 80 79  2  0
 83 82  1  0
 85 83  1  0
 85 86  1  0
 85 84  1  0
 87 90  1  1
 87 88  1  0
 89 87  1  0
 92 91  1  0
M  ISO  4   7 100  15 100  49 101  50 101
M  END
>  <TORSDO>  (28) 
F 21

>  <SCORE>  (28) 
-9.896

>  <name>  (28) 
27

>  <ligand_id>  (28) 
27

>  <original_smiles>  (28) 
[H]C(=C([H])C([H])([H])C([H])([H])C([H])([H])Oc1c([H])c([H])c2c(c1[H])C([H])([H])N(C(=O)C([H])(N([H])C(=O)C([H])(N([H])C([H])([H])[H])C([H])([H])[H])C(C([H])([H])[H])(C([H])([H])[H])C([H])([H])[H])C([H])(C(=O)N([H])C1([H])c3c([H])c([H])c([H])c([H])c3C([H])([H])C([H])([H])C1([H])[H])C2([H])[H])c1c([H])c([H])c(N([H])C(=O)N2C([H])([H])C([H])([H])C([H])([H])C([H])(n3nc(-c4c([H])c([H])c(Oc5c([H])c([H])c(F)c([H])c5F)c([H])c4[H])c(C(=O)N([H])[H])c3N([H])[H])C2([H])[H])c([H])c1OC([H])([H])[H]

>  <smiles>  (28) 
[H]C(=C([H])C([H])([H])C([H])([H])C([H])([H])Oc1c([H])c([H])c2c(c1[H])C([H])([H])N(C(=O)C([H])(N([H])C(=O)C([H])(N([H])C([H])([H])[H])C([H])([H])[H])C(C([H])([H])[H])(C([H])([H])[H])C([H])([H])[H])C([H])(C(=O)N([H])C1([H])c3c([H])c([H])c([H])c([H])c3C([H])([H])C([H])([H])C1([H])[H])C2([H])[H])c1c([H])c([H])c(N([H])C(=O)N2C([H])([H])C([H])([H])C([H])([H])C([H])(n3nc(-c4c([H])c([H])c(Oc5c([H])c([H])c(F)c([H])c5F)c([H])c4[H])c(C(=O)N([H])[H])c3N([H])[H])C2([H])[H])c([H])c1OC([H])([H])[H]

$$$$
28:0:0
     RDKit          3D

 93102  0  0  1  0  0  0  0  0999 V2000
  -28.9800  -24.4890   18.7010 C   0  0  0  0  0  0  0  0  0  0  0  0
  -28.6070  -25.7810   18.9220 C   0  0  0  0  0  3  0  0  0  0  0  0
  -29.3230  -24.0160   17.3090 C   0  0  0  0  0  2  0  0  0  0  0  0
  -29.1240  -23.2820   19.6420 C   0  0  0  0  0  2  0  0  0  0  0  0
  -29.9750  -22.6430   17.4730 C   0  0  0  0  0  2  0  0  0  0  0  0
  -29.6210  -22.1670   18.8050 N   0  0  0  0  0  0  0  0  0  0  0  0
  -30.9590  -18.6220   18.7060 C   0  0  0  0  0  3  0  0  0  0  0  0
  -30.5080  -19.9030   18.3030 C   0  0  0  0  0  3  0  0  0  0  0  0
  -29.9630  -20.4520   20.5830 C   0  0  0  0  0  3  0  0  0  0  0  0
  -30.9470  -18.2350   20.0630 C   0  0  0  0  0  0  0  0  0  0  0  0
  -30.3990  -19.1600   21.0000 C   0  0  0  0  0  0  0  0  0  0  0  0
  -30.0280  -20.8650   19.2310 C   0  0  0  0  0  0  0  0  0  0  0  0
  -30.2880  -18.8070   22.4740 C   0  0  0  0  0  1  0  0  0  0  0  0
  -31.6680  -16.9260   20.4830 C   0  0  0  0  0  2  0  0  0  0  0  0
  -31.6430  -14.4910   19.7820 C   0  0  0  0  0  0  0  0  0  0  0  0
  -31.1960  -12.2120   18.9210 C   0  0  0  0  0  2  0  0  0  0  0  0
  -30.2150  -12.2920   17.7330 C   0  0  0  0  0  2  0  0  0  0  0  0
  -28.7550  -12.2930   18.2280 C   0  0  0  0  0  2  0  0  0  0  0  0
  -28.5100  -13.3070   19.3770 C   0  0  0  0  0  3  0  0  0  0  0  0
  -29.5960  -13.1790   20.4670 C   0  0  0  0  0  2  0  0  0  0  0  0
  -30.9030  -13.3460   19.8140 N   0  0  0  0  0  0  0  0  0  0  0  0
  -32.7750  -14.5260   19.2940 O   0  0  0  0  0  0  0  0  0  0  0  0
  -31.0270  -15.6190   20.2070 N   0  0  0  0  0  0  0  0  0  0  0  0
  -30.0750  -15.5130   20.5260 H   0  0  0  0  0  0  0  0  0  0  0  0
  -26.2440  -14.1670   20.2320 C   0  0  0  0  0  0  0  0  0  0  0  0
  -25.1150  -13.5140   20.6470 C   0  0  0  0  0  0  0  0  0  0  0  0
  -25.4140  -12.1190   20.5690 C   0  0  0  0  0  0  0  0  0  0  0  0
  -27.1640  -13.1770   19.9290 N   0  0  0  0  0  0  0  0  0  0  0  0
  -26.6730  -11.9380   20.1890 N   0  0  0  0  0  0  0  0  0  0  0  0
  -24.5570  -10.9460   20.7780 C   0  0  0  0  0  0  0  0  0  0  0  0
  -24.8980   -9.9390   21.7080 C   0  0  0  0  0  3  0  0  0  0  0  0
  -24.0490   -8.8290   21.9050 C   0  0  0  0  0  3  0  0  0  0  0  0
  -22.8430   -8.7180   21.1710 C   0  0  0  0  0  0  0  0  0  0  0  0
  -22.5200   -9.7120   20.2300 C   0  0  0  0  0  3  0  0  0  0  0  0
  -23.3700  -10.8140   20.0320 C   0  0  0  0  0  3  0  0  0  0  0  0
  -21.9690   -7.6640   21.2770 O   0  0  0  0  0  0  0  0  0  0  0  0
  -21.8130   -6.9750   22.4540 C   0  0  0  0  0  0  0  0  0  0  0  0
  -21.4210   -7.6180   23.6480 C   0  0  0  0  0  3  0  0  0  0  0  0
  -21.2050   -6.8610   24.8160 C   0  0  0  0  0  3  0  0  0  0  0  0
  -21.3700   -5.4630   24.7930 C   0  0  0  0  0  0  0  0  0  0  0  0
  -21.7540   -4.8200   23.6030 C   0  0  0  0  0  3  0  0  0  0  0  0
  -21.9720   -5.5740   22.4360 C   0  0  0  0  0  0  0  0  0  0  0  0
  -22.3220   -4.9470   21.2870 F   0  0  0  0  0  0  0  0  0  0  0  0
  -21.1540   -4.7350   25.9130 F   0  0  0  0  0  0  0  0  0  0  0  0
  -23.7990  -14.1430   21.0040 C   0  0  0  0  0  0  0  0  0  0  0  0
  -23.0520  -13.5250   21.9120 N   0  0  0  0  0  0  0  0  0  0  0  0
  -23.4490  -15.2150   20.5130 O   0  0  0  0  0  0  0  0  0  0  0  0
  -23.3490  -12.6550   22.3280 H   0  0  0  0  0  0  0  0  0  0  0  0
  -22.1710  -13.9300   22.1970 H   0  0  0  0  0  0  0  0  0  0  0  0
  -26.5570  -15.5130   20.0670 N   0  0  0  0  0  0  0  0  0  0  0  0
  -25.8780  -16.2500   20.2230 H   0  0  0  0  0  0  0  0  0  0  0  0
  -27.4310  -15.8570   19.6910 H   0  0  0  0  0  0  0  0  0  0  0  0
  -28.2600  -26.4020   20.1060 O   0  0  0  0  0  0  0  0  0  0  0  0
  -24.6810  -31.7010   23.3460 C   0  0  0  0  0  0  0  0  0  0  0  0
  -27.1600  -27.2470   20.0980 C   0  0  0  0  0  0  0  0  0  0  0  0
  -23.4270  -30.3980   21.6630 C   0  0  0  0  0  3  0  0  0  0  0  0
  -24.8250  -28.8630   20.1750 C   0  0  0  0  0  0  0  0  0  0  0  0
  -25.9670  -30.6650   21.4740 C   0  0  0  0  0  2  0  0  0  0  0  0
  -26.0060  -29.3140   20.7810 C   0  0  0  0  0  0  0  0  0  0  0  0
  -27.1760  -28.5110   20.7440 C   0  0  0  0  0  3  0  0  0  0  0  0
  -25.9560  -26.8210   19.4930 C   0  0  0  0  0  3  0  0  0  0  0  0
  -24.7970  -27.6180   19.5270 C   0  0  0  0  0  3  0  0  0  0  0  0
  -23.6110  -29.7630   20.2590 C   0  0  0  0  0  2  0  0  0  0  0  0
  -24.7110  -30.9350   22.2190 N   0  0  0  0  0  0  0  0  0  0  0  0
  -23.6100  -31.9920   23.8970 O   0  0  0  0  0  0  0  0  0  0  0  0
  -22.7420  -29.3670   22.5900 C   0  0  0  0  0  0  0  0  0  0  0  0
  -21.4220  -29.1850   22.4170 N   0  0  0  0  0  0  0  0  0  0  0  0
  -23.3980  -28.7350   23.4230 O   0  0  0  0  0  0  0  0  0  0  0  0
  -20.9540  -29.7490   21.7220 H   0  0  0  0  0  0  0  0  0  0  0  0
  -18.0540  -27.9040   22.7210 C   0  0  0  0  0  0  0  0  0  0  0  0
  -20.5820  -28.2370   23.1500 C   0  0  0  0  0  3  0  0  0  0  0  0
  -20.7580  -26.7990   22.6090 C   0  0  0  0  0  2  0  0  0  0  0  0
  -19.7340  -26.4290   21.5310 C   0  0  0  0  0  2  0  0  0  0  0  0
  -18.3090  -26.5480   22.0830 C   0  0  0  0  0  2  0  0  0  0  0  0
  -19.1240  -28.7030   23.2070 C   0  0  0  0  0  0  0  0  0  0  0  0
  -18.8350  -29.9700   23.7600 C   0  0  0  0  0  3  0  0  0  0  0  0
  -17.5110  -30.4400   23.8310 C   0  0  0  0  0  3  0  0  0  0  0  0
  -16.4560  -29.6390   23.3630 C   0  0  0  0  0  3  0  0  0  0  0  0
  -16.7270  -28.3720   22.8160 C   0  0  0  0  0  3  0  0  0  0  0  0
  -25.9870  -32.2710   23.9820 C   0  0  0  0  0  3  0  0  0  0  0  0
  -25.7450  -33.6840   24.3030 N   0  0  0  0  0  0  0  0  0  0  0  0
  -26.1290  -34.7140   23.5380 C   0  0  0  0  0  0  0  0  0  0  0  0
  -26.7950  -34.5730   22.5080 O   0  0  0  0  0  0  0  0  0  0  0  0
  -25.1570  -33.8730   25.1020 H   0  0  0  0  0  0  0  0  0  0  0  0
  -24.4840  -36.5830   23.1720 C   0  0  0  0  0  1  0  0  0  0  0  0
  -25.7050  -36.1260   23.9850 C   0  0  0  0  0  3  0  0  0  0  0  0
  -27.8790  -36.9170   24.8090 C   0  0  0  0  0  1  0  0  0  0  0  0
  -26.7840  -37.1310   23.8670 N   0  0  0  0  0  0  0  0  0  0  0  0
  -26.4190  -38.0680   24.0120 H   0  0  0  0  0  0  0  0  0  0  0  0
  -26.4510  -31.4790   25.2650 C   0  0  1  0  0  0  0  0  0  0  0  0
  -25.3350  -31.2950   26.3210 C   0  0  0  0  0  1  0  0  0  0  0  0
  -26.9740  -30.0740   24.8840 C   0  0  0  0  0  1  0  0  0  0  0  0
  -27.6280  -32.2210   25.9410 C   0  0  0  0  0  1  0  0  0  0  0  0
  1  2  2  0
  1  4  1  0
  2 53  1  0
  3  5  1  0
  3  1  1  0
  5  6  1  0
  6 12  1  0
  6  4  1  0
  7 10  1  0
  8  7  2  0
  8 12  1  0
  9 11  1  0
 10 14  1  0
 10 11  2  0
 11 13  1  0
 12  9  2  0
 15 21  1  0
 15 23  1  0
 16 21  1  0
 17 18  1  0
 17 16  1  0
 19 18  1  0
 19 28  1  0
 19 20  1  0
 21 20  1  0
 22 15  2  0
 23 14  1  0
 23 24  1  0
 25 26  2  0
 26 45  1  0
 27 26  1  0
 27 30  1  0
 28 29  1  0
 28 25  1  0
 29 27  2  0
 30 31  1  0
 31 32  2  0
 33 36  1  0
 33 32  1  0
 34 33  2  0
 35 34  1  0
 35 30  2  0
 36 37  1  0
 37 38  1  0
 38 39  2  0
 40 39  1  0
 40 44  1  0
 41 40  2  0
 42 37  2  0
 42 41  1  0
 43 42  1  0
 45 46  1  0
 46 49  1  0
 46 48  1  0
 47 45  2  0
 50 51  1  0
 50 25  1  0
 52 50  1  0
 54 65  2  0
 55 53  1  0
 55 60  1  0
 56 64  1  0
 56 66  1  0
 57 63  1  0
 57 59  1  0
 58 64  1  0
 59 58  1  0
 60 59  2  0
 61 62  1  0
 61 55  2  0
 62 57  2  0
 63 56  1  0
 64 54  1  0
 66 68  2  0
 67 66  1  0
 69 67  1  0
 70 79  2  0
 70 75  1  0
 71 67  1  0
 71 75  1  0
 72 71  1  0
 73 74  1  0
 73 72  1  0
 74 70  1  0
 75 76  2  0
 76 77  1  0
 78 77  2  0
 79 78  1  0
 80 54  1  0
 80 81  1  0
 80 90  1  0
 81 84  1  0
 82 86  1  0
 82 81  1  0
 83 82  2  0
 86 85  1  0
 88 86  1  0
 88 89  1  0
 88 87  1  0
 90 93  1  1
 90 91  1  0
 92 90  1  0
M  ISO  4   2 101  15 100  23 100  53 101
M  END
>  <TORSDO>  (29) 
F 18

>  <SCORE>  (29) 
-12.886

>  <name>  (29) 
28

>  <ligand_id>  (29) 
28

>  <original_smiles>  (29) 
[H]C(Oc1c([H])c([H])c2c(c1[H])C([H])([H])N(C(=O)C([H])(N([H])C(=O)C([H])(N([H])C([H])([H])[H])C([H])([H])[H])C(C([H])([H])[H])(C([H])([H])[H])C([H])([H])[H])C([H])(C(=O)N([H])C1([H])c3c([H])c([H])c([H])c([H])c3C([H])([H])C([H])([H])C1([H])[H])C2([H])[H])=C1C([H])([H])N(c2c([H])c([H])c(C([H])([H])N([H])C(=O)N3C([H])([H])C([H])([H])C([H])([H])C([H])(n4nc(-c5c([H])c([H])c(Oc6c([H])c([H])c(F)c([H])c6F)c([H])c5[H])c(C(=O)N([H])[H])c4N([H])[H])C3([H])[H])c(C([H])([H])[H])c2[H])C([H])([H])C1([H])[H]

>  <smiles>  (29) 
[H]C(Oc1c([H])c([H])c2c(c1[H])C([H])([H])N(C(=O)C([H])(N([H])C(=O)C([H])(N([H])C([H])([H])[H])C([H])([H])[H])C(C([H])([H])[H])(C([H])([H])[H])C([H])([H])[H])C([H])(C(=O)N([H])C1([H])c3c([H])c([H])c([H])c([H])c3C([H])([H])C([H])([H])C1([H])[H])C2([H])[H])=C1C([H])([H])N(c2c([H])c([H])c(C([H])([H])N([H])C(=O)N3C([H])([H])C([H])([H])C([H])([H])C([H])(n4nc(-c5c([H])c([H])c(Oc6c([H])c([H])c(F)c([H])c6F)c([H])c5[H])c(C(=O)N([H])[H])c4N([H])[H])C3([H])[H])c(C([H])([H])[H])c2[H])C([H])([H])C1([H])[H]

$$$$
29:0:0
     RDKit          3D

 93101  0  0  1  0  0  0  0  0999 V2000
  -31.3000  -19.2800   20.1450 C   0  0  0  0  0  3  0  0  0  0  0  0
  -30.5780  -17.6970   22.3200 C   0  0  0  0  0  3  0  0  0  0  0  0
  -31.0560  -17.8880   19.9460 C   0  0  0  0  0  0  0  0  0  0  0  0
  -31.1890  -19.8980   21.4090 C   0  0  0  0  0  0  0  0  0  0  0  0
  -30.7410  -17.0540   21.0650 C   0  0  0  0  0  0  0  0  0  0  0  0
  -30.7960  -19.0840   22.4960 C   0  0  0  0  0  0  0  0  0  0  0  0
  -30.6930  -19.6170   23.7370 F   0  0  0  0  0  0  0  0  0  0  0  0
  -31.2320  -14.5670   20.6170 C   0  0  0  0  0  0  0  0  0  0  0  0
  -30.9630  -12.3500   19.5420 C   0  0  0  0  0  2  0  0  0  0  0  0
  -30.0730  -12.5010   18.2910 C   0  0  0  0  0  2  0  0  0  0  0  0
  -28.5840  -12.3810   18.6640 C   0  0  0  0  0  2  0  0  0  0  0  0
  -28.2000  -13.2680   19.8800 C   0  0  0  0  0  3  0  0  0  0  0  0
  -29.2100  -13.1060   21.0390 C   0  0  0  0  0  2  0  0  0  0  0  0
  -30.5560  -13.3850   20.5100 N   0  0  0  0  0  0  0  0  0  0  0  0
  -32.3970  -14.6880   20.2380 O   0  0  0  0  0  0  0  0  0  0  0  0
  -30.4820  -15.6260   21.0280 N   0  0  0  0  0  0  0  0  0  0  0  0
  -29.5950  -15.3410   21.4130 H   0  0  0  0  0  0  0  0  0  0  0  0
  -25.7920  -13.9150   20.5150 C   0  0  0  0  0  0  0  0  0  0  0  0
  -24.7000  -13.1630   20.8550 C   0  0  0  0  0  0  0  0  0  0  0  0
  -25.1380  -11.8040   20.8490 C   0  0  0  0  0  0  0  0  0  0  0  0
  -26.8280  -13.0160   20.3190 N   0  0  0  0  0  0  0  0  0  0  0  0
  -26.4360  -11.7420   20.5770 N   0  0  0  0  0  0  0  0  0  0  0  0
  -24.3840  -10.5570   21.0250 C   0  0  0  0  0  0  0  0  0  0  0  0
  -24.7540   -9.6020   21.9990 C   0  0  0  0  0  3  0  0  0  0  0  0
  -24.0030   -8.4160   22.1600 C   0  0  0  0  0  3  0  0  0  0  0  0
  -22.8690   -8.1780   21.3460 C   0  0  0  0  0  0  0  0  0  0  0  0
  -22.5180   -9.1220   20.3660 C   0  0  0  0  0  3  0  0  0  0  0  0
  -23.2700  -10.2980   20.2020 C   0  0  0  0  0  3  0  0  0  0  0  0
  -22.0940   -7.0450   21.4160 O   0  0  0  0  0  0  0  0  0  0  0  0
  -21.9380   -6.3490   22.5880 C   0  0  0  0  0  0  0  0  0  0  0  0
  -21.3930   -6.9480   23.7450 C   0  0  0  0  0  3  0  0  0  0  0  0
  -21.1870   -6.1770   24.9060 C   0  0  0  0  0  3  0  0  0  0  0  0
  -21.5160   -4.8070   24.9110 C   0  0  0  0  0  0  0  0  0  0  0  0
  -22.0550   -4.2080   23.7580 C   0  0  0  0  0  3  0  0  0  0  0  0
  -22.2630   -4.9770   22.6010 C   0  0  0  0  0  0  0  0  0  0  0  0
  -22.7620   -4.3910   21.4840 F   0  0  0  0  0  0  0  0  0  0  0  0
  -21.3120   -4.0650   26.0230 F   0  0  0  0  0  0  0  0  0  0  0  0
  -23.3030  -13.6660   21.0820 C   0  0  0  0  0  0  0  0  0  0  0  0
  -22.5360  -12.9900   21.9300 N   0  0  0  0  0  0  0  0  0  0  0  0
  -22.9020  -14.6980   20.5450 O   0  0  0  0  0  0  0  0  0  0  0  0
  -22.8690  -12.1530   22.3860 H   0  0  0  0  0  0  0  0  0  0  0  0
  -21.6000  -13.3170   22.1240 H   0  0  0  0  0  0  0  0  0  0  0  0
  -25.9910  -15.2810   20.3380 N   0  0  0  0  0  0  0  0  0  0  0  0
  -25.2440  -15.9600   20.4300 H   0  0  0  0  0  0  0  0  0  0  0  0
  -26.8660  -15.6970   20.0430 H   0  0  0  0  0  0  0  0  0  0  0  0
  -31.2800  -22.3540   21.4920 C   0  0  0  0  0  3  0  0  0  0  0  0
  -31.7620  -21.1700   21.6370 N   0  0  0  0  0  0  0  0  0  0  0  0
  -29.9270  -22.9160   21.0290 C   0  0  0  0  0  2  0  0  0  0  0  0
  -29.9200  -24.4930   21.0990 C   0  0  0  0  0  2  0  0  0  0  0  0
  -28.6890  -25.2500   20.5270 C   0  0  0  0  0  2  0  0  0  0  0  0
  -28.8260  -26.6940   20.6220 O   0  0  0  0  0  0  0  0  0  0  0  0
  -24.8830  -31.9100   23.4780 C   0  0  0  0  0  0  0  0  0  0  0  0
  -27.6730  -27.4600   20.5120 C   0  0  0  0  0  0  0  0  0  0  0  0
  -23.7570  -30.5100   21.7800 C   0  0  0  0  0  3  0  0  0  0  0  0
  -25.2780  -28.9880   20.4060 C   0  0  0  0  0  0  0  0  0  0  0  0
  -26.2910  -30.8740   21.6960 C   0  0  0  0  0  2  0  0  0  0  0  0
  -26.4090  -29.5050   21.0490 C   0  0  0  0  0  0  0  0  0  0  0  0
  -27.6110  -28.7540   21.0900 C   0  0  0  0  0  3  0  0  0  0  0  0
  -26.5250  -26.9760   19.8410 C   0  0  0  0  0  3  0  0  0  0  0  0
  -25.3350  -27.7250   19.7920 C   0  0  0  0  0  3  0  0  0  0  0  0
  -24.0270  -29.8410   20.4060 C   0  0  0  0  0  2  0  0  0  0  0  0
  -24.9930  -31.1140   22.3770 N   0  0  0  0  0  0  0  0  0  0  0  0
  -23.7780  -32.1710   23.9720 O   0  0  0  0  0  0  0  0  0  0  0  0
  -23.0700  -29.4790   22.7070 C   0  0  0  0  0  0  0  0  0  0  0  0
  -21.7610  -29.2610   22.5010 N   0  0  0  0  0  0  0  0  0  0  0  0
  -23.7170  -28.8790   23.5700 O   0  0  0  0  0  0  0  0  0  0  0  0
  -21.3040  -29.8000   21.7800 H   0  0  0  0  0  0  0  0  0  0  0  0
  -18.4000  -27.9560   22.7690 C   0  0  0  0  0  0  0  0  0  0  0  0
  -20.9200  -28.3070   23.2240 C   0  0  0  0  0  3  0  0  0  0  0  0
  -21.1150  -26.8710   22.6850 C   0  0  0  0  0  2  0  0  0  0  0  0
  -20.1020  -26.4940   21.5990 C   0  0  0  0  0  2  0  0  0  0  0  0
  -18.6720  -26.6020   22.1350 C   0  0  0  0  0  2  0  0  0  0  0  0
  -19.4570  -28.7630   23.2670 C   0  0  0  0  0  0  0  0  0  0  0  0
  -19.1520  -30.0280   23.8140 C   0  0  0  0  0  3  0  0  0  0  0  0
  -17.8230  -30.4870   23.8690 C   0  0  0  0  0  3  0  0  0  0  0  0
  -16.7790  -29.6750   23.3920 C   0  0  0  0  0  3  0  0  0  0  0  0
  -17.0680  -28.4110   22.8470 C   0  0  0  0  0  3  0  0  0  0  0  0
  -26.1350  -32.5460   24.1580 C   0  0  0  0  0  3  0  0  0  0  0  0
  -25.8140  -33.9490   24.4470 N   0  0  0  0  0  0  0  0  0  0  0  0
  -26.1550  -34.9850   23.6690 C   0  0  0  0  0  0  0  0  0  0  0  0
  -26.8430  -34.8600   22.6510 O   0  0  0  0  0  0  0  0  0  0  0  0
  -25.2180  -34.1190   25.2440 H   0  0  0  0  0  0  0  0  0  0  0  0
  -24.4050  -36.7420   23.2620 C   0  0  0  0  0  1  0  0  0  0  0  0
  -25.6520  -36.3810   24.0840 C   0  0  0  0  0  3  0  0  0  0  0  0
  -27.7740  -37.3170   24.8890 C   0  0  0  0  0  1  0  0  0  0  0  0
  -26.6720  -37.4420   23.9380 N   0  0  0  0  0  0  0  0  0  0  0  0
  -26.2560  -38.3620   24.0540 H   0  0  0  0  0  0  0  0  0  0  0  0
  -26.5800  -31.7970   25.4730 C   0  0  1  0  0  0  0  0  0  0  0  0
  -25.4310  -31.5740   26.4840 C   0  0  0  0  0  1  0  0  0  0  0  0
  -27.1850  -30.4150   25.1320 C   0  0  0  0  0  1  0  0  0  0  0  0
  -27.6890  -32.6060   26.1880 C   0  0  0  0  0  1  0  0  0  0  0  0
  -30.6840  -18.2910   17.4080 C   0  0  0  0  0  1  0  0  0  0  0  0
  -31.1520  -17.3390   18.5220 C   0  0  0  0  0  2  0  0  0  0  0  0
  1  4  1  0
  2  6  1  0
  3  1  2  0
  3  5  1  0
  4 47  1  0
  4  6  2  0
  5  2  2  0
  6  7  1  0
  8 16  1  0
  9 14  1  0
 10 11  1  0
 10  9  1  0
 12 11  1  0
 12 21  1  0
 12 13  1  0
 14  8  1  0
 14 13  1  0
 15  8  2  0
 16  5  1  0
 16 17  1  0
 18 19  2  0
 19 38  1  0
 20 19  1  0
 20 23  1  0
 21 18  1  0
 21 22  1  0
 22 20  2  0
 23 24  1  0
 24 25  2  0
 26 29  1  0
 26 25  1  0
 27 26  2  0
 28 27  1  0
 28 23  2  0
 29 30  1  0
 30 35  2  0
 30 31  1  0
 31 32  2  0
 32 33  1  0
 33 37  1  0
 34 33  2  0
 35 34  1  0
 36 35  1  0
 38 39  1  0
 39 42  1  0
 39 41  1  0
 40 38  2  0
 43 44  1  0
 43 18  1  0
 45 43  1  0
 46 47  2  0
 48 49  1  0
 48 46  1  0
 50 51  1  0
 50 49  1  0
 52 63  2  0
 53 51  1  0
 53 58  1  0
 54 62  1  0
 54 64  1  0
 55 61  1  0
 55 57  1  0
 56 62  1  0
 57 58  2  0
 57 56  1  0
 59 53  2  0
 60 59  1  0
 60 55  2  0
 61 54  1  0
 62 52  1  0
 64 66  2  0
 65 64  1  0
 67 65  1  0
 68 77  2  0
 68 73  1  0
 69 65  1  0
 69 73  1  0
 70 69  1  0
 71 72  1  0
 71 70  1  0
 72 68  1  0
 73 74  2  0
 74 75  1  0
 76 75  2  0
 77 76  1  0
 78 52  1  0
 78 79  1  0
 78 88  1  0
 79 82  1  0
 80 84  1  0
 80 79  1  0
 81 80  2  0
 84 83  1  0
 86 87  1  0
 86 84  1  0
 86 85  1  0
 88 91  1  1
 88 89  1  0
 90 88  1  0
 92 93  1  0
 93  3  1  0
M  ISO  4   8 100  16 100  50 101  51 101
M  END
>  <TORSDO>  (30) 
F 21

>  <SCORE>  (30) 
-12.710

>  <name>  (30) 
29

>  <ligand_id>  (30) 
29

>  <original_smiles>  (30) 
[H]C(=Nc1c([H])c(C([H])([H])C([H])([H])[H])c(N([H])C(=O)N2C([H])([H])C([H])([H])C([H])([H])C([H])(n3nc(-c4c([H])c([H])c(Oc5c([H])c([H])c(F)c([H])c5F)c([H])c4[H])c(C(=O)N([H])[H])c3N([H])[H])C2([H])[H])c([H])c1F)C([H])([H])C([H])([H])C([H])([H])Oc1c([H])c([H])c2c(c1[H])C([H])([H])N(C(=O)C([H])(N([H])C(=O)C([H])(N([H])C([H])([H])[H])C([H])([H])[H])C(C([H])([H])[H])(C([H])([H])[H])C([H])([H])[H])C([H])(C(=O)N([H])C1([H])c3c([H])c([H])c([H])c([H])c3C([H])([H])C([H])([H])C1([H])[H])C2([H])[H]

>  <smiles>  (30) 
[H]C(=Nc1c([H])c(C([H])([H])C([H])([H])[H])c(N([H])C(=O)N2C([H])([H])C([H])([H])C([H])([H])C([H])(n3nc(-c4c([H])c([H])c(Oc5c([H])c([H])c(F)c([H])c5F)c([H])c4[H])c(C(=O)N([H])[H])c3N([H])[H])C2([H])[H])c([H])c1F)C([H])([H])C([H])([H])C([H])([H])Oc1c([H])c([H])c2c(c1[H])C([H])([H])N(C(=O)C([H])(N([H])C(=O)C([H])(N([H])C([H])([H])[H])C([H])([H])[H])C(C([H])([H])[H])(C([H])([H])[H])C([H])([H])[H])C([H])(C(=O)N([H])C1([H])c3c([H])c([H])c([H])c([H])c3C([H])([H])C([H])([H])C1([H])[H])C2([H])[H]

$$$$
30:0:0
     RDKit          3D

 92100  0  0  1  0  0  0  0  0999 V2000
  -30.9650  -22.4550   19.0320 C   0  0  0  0  0  0  0  0  0  0  0  0
  -31.5560  -21.2500   18.9030 N   0  0  0  0  0  0  0  0  0  0  0  0
  -31.3160  -23.3310   18.2390 O   0  0  0  0  0  0  0  0  0  0  0  0
  -32.2810  -21.2810   18.2000 H   0  0  0  0  0  0  0  0  0  0  0  0
  -32.5250  -19.1610   19.5800 C   0  0  0  0  0  3  0  0  0  0  0  0
  -32.2420  -17.8930   20.1730 C   0  0  0  0  0  0  0  0  0  0  0  0
  -30.9280  -17.7820   20.5590 C   0  0  0  0  0  0  0  0  0  0  0  0
  -31.4750  -20.0460   19.5390 C   0  0  0  0  0  0  0  0  0  0  0  0
  -33.3100  -16.8540   20.3530 C   0  0  0  0  0  1  0  0  0  0  0  0
  -30.0650  -19.2950   20.2680 S   0  0  0  0  0  0  0  0  0  0  0  0
  -30.2890  -16.7020   21.2750 C   0  0  0  0  0  3  0  0  0  0  0  0
  -30.1760  -15.3480   21.1730 C   0  0  0  0  0  3  0  0  0  0  0  0
  -30.6700  -14.4560   20.1110 C   0  0  0  0  0  0  0  0  0  0  0  0
  -30.2520  -12.3790   18.8080 C   0  0  0  0  0  2  0  0  0  0  0  0
  -29.2200  -12.6390   17.6890 C   0  0  0  0  0  2  0  0  0  0  0  0
  -27.7820  -12.4650   18.2150 C   0  0  0  0  0  2  0  0  0  0  0  0
  -27.5470  -13.2420   19.5360 C   0  0  0  0  0  3  0  0  0  0  0  0
  -28.6690  -12.9350   20.5480 C   0  0  0  0  0  2  0  0  0  0  0  0
  -29.9630  -13.2950   19.9300 N   0  0  0  0  0  0  0  0  0  0  0  0
  -31.6580  -14.7090   19.4170 O   0  0  0  0  0  0  0  0  0  0  0  0
  -25.1990  -13.8450   20.4050 C   0  0  0  0  0  0  0  0  0  0  0  0
  -24.1580  -13.0690   20.8390 C   0  0  0  0  0  0  0  0  0  0  0  0
  -24.6150  -11.7170   20.7670 C   0  0  0  0  0  0  0  0  0  0  0  0
  -26.2260  -12.9640   20.0970 N   0  0  0  0  0  0  0  0  0  0  0  0
  -25.8820  -11.6810   20.3690 N   0  0  0  0  0  0  0  0  0  0  0  0
  -23.9040  -10.4540   20.9960 C   0  0  0  0  0  0  0  0  0  0  0  0
  -24.3720   -9.5000   21.9260 C   0  0  0  0  0  3  0  0  0  0  0  0
  -23.6580   -8.3000   22.1400 C   0  0  0  0  0  3  0  0  0  0  0  0
  -22.4640   -8.0480   21.4250 C   0  0  0  0  0  0  0  0  0  0  0  0
  -22.0150   -8.9920   20.4850 C   0  0  0  0  0  3  0  0  0  0  0  0
  -22.7300  -10.1820   20.2680 C   0  0  0  0  0  3  0  0  0  0  0  0
  -21.7190   -6.8990   21.5500 O   0  0  0  0  0  0  0  0  0  0  0  0
  -21.6860   -6.1860   22.7210 C   0  0  0  0  0  0  0  0  0  0  0  0
  -21.2650   -6.7710   23.9360 C   0  0  0  0  0  3  0  0  0  0  0  0
  -21.1770   -5.9830   25.1020 C   0  0  0  0  0  3  0  0  0  0  0  0
  -21.5010   -4.6150   25.0550 C   0  0  0  0  0  0  0  0  0  0  0  0
  -21.9160   -4.0310   23.8460 C   0  0  0  0  0  3  0  0  0  0  0  0
  -22.0040   -4.8140   22.6810 C   0  0  0  0  0  0  0  0  0  0  0  0
  -22.3830   -4.2410   21.5130 F   0  0  0  0  0  0  0  0  0  0  0  0
  -21.4100   -3.8570   26.1730 F   0  0  0  0  0  0  0  0  0  0  0  0
  -22.7840  -13.5450   21.2130 C   0  0  0  0  0  0  0  0  0  0  0  0
  -22.1220  -12.8460   22.1300 N   0  0  0  0  0  0  0  0  0  0  0  0
  -22.3080  -14.5700   20.7290 O   0  0  0  0  0  0  0  0  0  0  0  0
  -22.5220  -12.0140   22.5390 H   0  0  0  0  0  0  0  0  0  0  0  0
  -21.2060  -13.1490   22.4270 H   0  0  0  0  0  0  0  0  0  0  0  0
  -25.3550  -15.2170   20.2310 N   0  0  0  0  0  0  0  0  0  0  0  0
  -24.6010  -15.8740   20.4030 H   0  0  0  0  0  0  0  0  0  0  0  0
  -26.1970  -15.6610   19.8860 H   0  0  0  0  0  0  0  0  0  0  0  0
  -29.9220  -22.8100   20.1290 C   0  0  0  0  0  2  0  0  0  0  0  0
  -29.6330  -24.3640   20.3500 C   0  0  0  0  0  2  0  0  0  0  0  0
  -28.2620  -25.1580   20.1940 C   0  0  0  0  0  2  0  0  0  0  0  0
  -28.4070  -26.5980   20.3080 O   0  0  0  0  0  0  0  0  0  0  0  0
  -24.5950  -31.8990   23.2580 C   0  0  0  0  0  0  0  0  0  0  0  0
  -27.2450  -27.3640   20.2670 C   0  0  0  0  0  0  0  0  0  0  0  0
  -23.3990  -30.4760   21.6310 C   0  0  0  0  0  3  0  0  0  0  0  0
  -24.8580  -28.9150   20.2410 C   0  0  0  0  0  0  0  0  0  0  0  0
  -25.9330  -30.8130   21.4510 C   0  0  0  0  0  2  0  0  0  0  0  0
  -26.0200  -29.4310   20.8280 C   0  0  0  0  0  0  0  0  0  0  0  0
  -27.2160  -28.6670   20.8340 C   0  0  0  0  0  3  0  0  0  0  0  0
  -26.0530  -26.8780   19.6740 C   0  0  0  0  0  3  0  0  0  0  0  0
  -24.8720  -27.6390   19.6610 C   0  0  0  0  0  3  0  0  0  0  0  0
  -23.6180  -29.7800   20.2650 C   0  0  0  0  0  2  0  0  0  0  0  0
  -24.6610  -31.0780   22.1720 N   0  0  0  0  0  0  0  0  0  0  0  0
  -23.5090  -32.1870   23.7810 O   0  0  0  0  0  0  0  0  0  0  0  0
  -22.7340  -29.4710   22.6010 C   0  0  0  0  0  0  0  0  0  0  0  0
  -21.4130  -29.2810   22.4550 N   0  0  0  0  0  0  0  0  0  0  0  0
  -23.4050  -28.8640   23.4410 O   0  0  0  0  0  0  0  0  0  0  0  0
  -20.9330  -29.8190   21.7470 H   0  0  0  0  0  0  0  0  0  0  0  0
  -18.0340  -28.0750   22.9110 C   0  0  0  0  0  0  0  0  0  0  0  0
  -20.5850  -28.3580   23.2310 C   0  0  0  0  0  3  0  0  0  0  0  0
  -20.7090  -26.9140   22.6920 C   0  0  0  0  0  2  0  0  0  0  0  0
  -19.6320  -26.5590   21.6630 C   0  0  0  0  0  2  0  0  0  0  0  0
  -18.2360  -26.7110   22.2730 C   0  0  0  0  0  2  0  0  0  0  0  0
  -19.1400  -28.8550   23.3460 C   0  0  0  0  0  0  0  0  0  0  0  0
  -18.8990  -30.1320   23.9000 C   0  0  0  0  0  3  0  0  0  0  0  0
  -17.5880  -30.6280   24.0240 C   0  0  0  0  0  3  0  0  0  0  0  0
  -16.4980  -29.8450   23.6050 C   0  0  0  0  0  3  0  0  0  0  0  0
  -16.7220  -28.5710   23.0540 C   0  0  0  0  0  3  0  0  0  0  0  0
  -25.8760  -32.5350   23.8780 C   0  0  0  0  0  3  0  0  0  0  0  0
  -25.5660  -33.9360   24.1950 N   0  0  0  0  0  0  0  0  0  0  0  0
  -25.9000  -34.9800   23.4270 C   0  0  0  0  0  0  0  0  0  0  0  0
  -26.5740  -34.8670   22.3990 O   0  0  0  0  0  0  0  0  0  0  0  0
  -24.9650  -34.0980   24.9920 H   0  0  0  0  0  0  0  0  0  0  0  0
  -24.1740  -36.7690   23.0430 C   0  0  0  0  0  1  0  0  0  0  0  0
  -25.4100  -36.3730   23.8660 C   0  0  0  0  0  3  0  0  0  0  0  0
  -27.5400  -37.2670   24.7010 C   0  0  0  0  0  1  0  0  0  0  0  0
  -26.4440  -37.4240   23.7480 N   0  0  0  0  0  0  0  0  0  0  0  0
  -26.0370  -38.3460   23.8820 H   0  0  0  0  0  0  0  0  0  0  0  0
  -26.3900  -31.7710   25.1590 C   0  0  1  0  0  0  0  0  0  0  0  0
  -25.2930  -31.5350   26.2240 C   0  0  0  0  0  1  0  0  0  0  0  0
  -26.9740  -30.3910   24.7740 C   0  0  0  0  0  1  0  0  0  0  0  0
  -27.5370  -32.5680   25.8210 C   0  0  0  0  0  1  0  0  0  0  0  0
  1 49  1  0
  2  1  1  0
  2  8  1  0
  3  1  2  0
  4  2  1  0
  5  6  1  0
  6  9  1  0
  6  7  2  0
  7 11  1  0
  8  5  2  0
  8 10  1  0
 10  7  1  0
 12 11  2  0
 13 12  1  0
 14 19  1  0
 15 16  1  0
 15 14  1  0
 17 16  1  0
 17 24  1  0
 17 18  1  0
 19 13  1  0
 19 18  1  0
 20 13  2  0
 21 22  2  0
 22 41  1  0
 23 22  1  0
 23 26  1  0
 24 25  1  0
 24 21  1  0
 25 23  2  0
 26 27  1  0
 27 28  2  0
 29 32  1  0
 29 28  1  0
 30 29  2  0
 31 30  1  0
 31 26  2  0
 32 33  1  0
 33 34  1  0
 34 35  2  0
 36 35  1  0
 36 40  1  0
 37 36  2  0
 38 33  2  0
 38 37  1  0
 39 38  1  0
 41 42  1  0
 42 45  1  0
 42 44  1  0
 43 41  2  0
 46 47  1  0
 46 21  1  0
 48 46  1  0
 49 50  1  0
 51 52  1  0
 51 50  1  0
 53 64  2  0
 54 52  1  0
 54 59  1  0
 55 63  1  0
 55 65  1  0
 56 62  1  0
 56 58  1  0
 57 63  1  0
 58 59  2  0
 58 57  1  0
 60 54  2  0
 61 60  1  0
 61 56  2  0
 62 55  1  0
 63 53  1  0
 65 67  2  0
 66 65  1  0
 68 66  1  0
 69 78  2  0
 69 74  1  0
 70 66  1  0
 70 74  1  0
 71 70  1  0
 72 73  1  0
 72 71  1  0
 73 69  1  0
 74 75  2  0
 75 76  1  0
 77 76  2  0
 78 77  1  0
 79 53  1  0
 79 80  1  0
 79 89  1  0
 80 83  1  0
 81 85  1  0
 81 80  1  0
 82 81  2  0
 85 84  1  0
 87 85  1  0
 87 88  1  0
 87 86  1  0
 89 92  1  1
 89 90  1  0
 91 89  1  0
M  ISO  4  12 100  13 100  51 101  52 101
M  END
>  <TORSDO>  (31) 
F 21

>  <SCORE>  (31) 
-12.791

>  <name>  (31) 
30

>  <ligand_id>  (31) 
30

>  <original_smiles>  (31) 
[H]C(C(=O)N1C([H])([H])C([H])([H])C([H])([H])C([H])(n2nc(-c3c([H])c([H])c(Oc4c([H])c([H])c(F)c([H])c4F)c([H])c3[H])c(C(=O)N([H])[H])c2N([H])[H])C1([H])[H])=C([H])c1sc(N([H])C(=O)C([H])([H])C([H])([H])C([H])([H])Oc2c([H])c([H])c3c(c2[H])C([H])([H])N(C(=O)C([H])(N([H])C(=O)C([H])(N([H])C([H])([H])[H])C([H])([H])[H])C(C([H])([H])[H])(C([H])([H])[H])C([H])([H])[H])C([H])(C(=O)N([H])C2([H])c4c([H])c([H])c([H])c([H])c4C([H])([H])C([H])([H])C2([H])[H])C3([H])[H])c([H])c1C([H])([H])[H]

>  <smiles>  (31) 
[H]C(C(=O)N1C([H])([H])C([H])([H])C([H])([H])C([H])(n2nc(-c3c([H])c([H])c(Oc4c([H])c([H])c(F)c([H])c4F)c([H])c3[H])c(C(=O)N([H])[H])c2N([H])[H])C1([H])[H])=C([H])c1sc(N([H])C(=O)C([H])([H])C([H])([H])C([H])([H])Oc2c([H])c([H])c3c(c2[H])C([H])([H])N(C(=O)C([H])(N([H])C(=O)C([H])(N([H])C([H])([H])[H])C([H])([H])[H])C(C([H])([H])[H])(C([H])([H])[H])C([H])([H])[H])C([H])(C(=O)N([H])C2([H])c4c([H])c([H])c([H])c([H])c4C([H])([H])C([H])([H])C2([H])[H])C3([H])[H])c([H])c1C([H])([H])[H]

$$$$
31:0:0
     RDKit          3D

 91 99  0  0  1  0  0  0  0  0999 V2000
  -29.1950  -18.5270   20.1430 C   0  0  0  0  0  3  0  0  0  0  0  0
  -30.7760  -19.0510   22.3370 C   0  0  0  0  0  3  0  0  0  0  0  0
  -29.3570  -19.9250   20.5320 C   0  0  0  0  0  0  0  0  0  0  0  0
  -30.6210  -17.7060   21.9280 C   0  0  0  0  0  0  0  0  0  0  0  0
  -29.8120  -17.3860   20.8020 C   0  0  0  0  0  0  0  0  0  0  0  0
  -30.1570  -20.1340   21.6800 C   0  0  0  0  0  0  0  0  0  0  0  0
  -31.3110  -16.6460   22.7730 C   0  0  0  0  0  1  0  0  0  0  0  0
  -30.4130  -21.7000   22.3510 Cl  0  0  0  0  0  0  0  0  0  0  0  0
  -30.2820  -14.8830   20.0800 C   0  0  0  0  0  0  0  0  0  0  0  0
  -30.0240  -12.6900   18.8980 C   0  0  0  0  0  2  0  0  0  0  0  0
  -28.9770  -12.8170   17.7710 C   0  0  0  0  0  2  0  0  0  0  0  0
  -27.5580  -12.5720   18.3170 C   0  0  0  0  0  2  0  0  0  0  0  0
  -27.2740  -13.3710   19.6170 C   0  0  0  0  0  3  0  0  0  0  0  0
  -28.4290  -13.2340   20.6340 C   0  0  0  0  0  2  0  0  0  0  0  0
  -29.6600  -13.6620   19.9540 N   0  0  0  0  0  0  0  0  0  0  0  0
  -31.4360  -15.0270   19.6650 O   0  0  0  0  0  0  0  0  0  0  0  0
  -29.5010  -15.9750   20.4410 N   0  0  0  0  0  0  0  0  0  0  0  0
  -28.5210  -15.7500   20.4930 H   0  0  0  0  0  0  0  0  0  0  0  0
  -24.9260  -13.8530   20.5360 C   0  0  0  0  0  0  0  0  0  0  0  0
  -23.9200  -13.0300   20.9620 C   0  0  0  0  0  0  0  0  0  0  0  0
  -24.4290  -11.7000   20.8640 C   0  0  0  0  0  0  0  0  0  0  0  0
  -25.9810  -13.0200   20.2000 N   0  0  0  0  0  0  0  0  0  0  0  0
  -25.6940  -11.7180   20.4600 N   0  0  0  0  0  0  0  0  0  0  0  0
  -23.7650  -10.4060   21.0720 C   0  0  0  0  0  0  0  0  0  0  0  0
  -24.2670   -9.4570   21.9900 C   0  0  0  0  0  3  0  0  0  0  0  0
  -23.5990   -8.2280   22.1850 C   0  0  0  0  0  3  0  0  0  0  0  0
  -22.4170   -7.9400   21.4620 C   0  0  0  0  0  0  0  0  0  0  0  0
  -21.9360   -8.8780   20.5310 C   0  0  0  0  0  3  0  0  0  0  0  0
  -22.6050  -10.0970   20.3350 C   0  0  0  0  0  3  0  0  0  0  0  0
  -21.7160   -6.7630   21.5690 O   0  0  0  0  0  0  0  0  0  0  0  0
  -21.7020   -6.0360   22.7320 C   0  0  0  0  0  0  0  0  0  0  0  0
  -21.2160   -6.5760   23.9430 C   0  0  0  0  0  3  0  0  0  0  0  0
  -21.1570   -5.7720   25.0980 C   0  0  0  0  0  3  0  0  0  0  0  0
  -21.5730   -4.4270   25.0430 C   0  0  0  0  0  0  0  0  0  0  0  0
  -22.0530   -3.8870   23.8370 C   0  0  0  0  0  3  0  0  0  0  0  0
  -22.1150   -4.6890   22.6850 C   0  0  0  0  0  0  0  0  0  0  0  0
  -22.5580   -4.1580   21.5200 F   0  0  0  0  0  0  0  0  0  0  0  0
  -21.5090   -3.6520   26.1510 F   0  0  0  0  0  0  0  0  0  0  0  0
  -22.5290  -13.4480   21.3450 C   0  0  0  0  0  0  0  0  0  0  0  0
  -21.8890  -12.7020   22.2390 N   0  0  0  0  0  0  0  0  0  0  0  0
  -22.0190  -14.4690   20.8860 O   0  0  0  0  0  0  0  0  0  0  0  0
  -22.3140  -11.8750   22.6300 H   0  0  0  0  0  0  0  0  0  0  0  0
  -20.9610  -12.9640   22.5380 H   0  0  0  0  0  0  0  0  0  0  0  0
  -25.0230  -15.2320   20.3800 N   0  0  0  0  0  0  0  0  0  0  0  0
  -24.2340  -15.8450   20.5520 H   0  0  0  0  0  0  0  0  0  0  0  0
  -25.8070  -15.7090   19.9530 H   0  0  0  0  0  0  0  0  0  0  0  0
  -28.6850  -21.0550   19.7150 C   0  0  0  0  0  3  0  0  0  0  0  0
  -28.4270  -22.4300   19.6620 C   0  0  0  0  0  3  0  0  0  0  0  0
  -28.6460  -23.7750   20.4790 C   0  0  0  0  0  3  0  0  0  0  0  0
  -28.4070  -25.1600   19.6560 C   0  0  0  0  0  3  0  0  0  0  0  0
  -28.3320  -26.5360   20.2750 O   0  0  0  0  0  0  0  0  0  0  0  0
  -24.5690  -31.9660   23.2730 C   0  0  0  0  0  0  0  0  0  0  0  0
  -27.2040  -27.3950   20.1940 C   0  0  0  0  0  0  0  0  0  0  0  0
  -23.3750  -30.5720   21.6200 C   0  0  0  0  0  3  0  0  0  0  0  0
  -24.8380  -29.0390   20.1900 C   0  0  0  0  0  0  0  0  0  0  0  0
  -25.9200  -30.8950   21.4460 C   0  0  0  0  0  2  0  0  0  0  0  0
  -26.0080  -29.5170   20.7910 C   0  0  0  0  0  0  0  0  0  0  0  0
  -27.1890  -28.7060   20.7840 C   0  0  0  0  0  3  0  0  0  0  0  0
  -26.0010  -26.9850   19.5710 C   0  0  0  0  0  3  0  0  0  0  0  0
  -24.8410  -27.7820   19.5730 C   0  0  0  0  0  3  0  0  0  0  0  0
  -23.6000  -29.9130   20.2360 C   0  0  0  0  0  2  0  0  0  0  0  0
  -24.6400  -31.1640   22.1680 N   0  0  0  0  0  0  0  0  0  0  0  0
  -23.4820  -32.2350   23.8050 O   0  0  0  0  0  0  0  0  0  0  0  0
  -22.7170  -29.5440   22.5730 C   0  0  0  0  0  0  0  0  0  0  0  0
  -21.3930  -29.3580   22.4440 N   0  0  0  0  0  0  0  0  0  0  0  0
  -23.3990  -28.9180   23.3890 O   0  0  0  0  0  0  0  0  0  0  0  0
  -20.9030  -29.9240   21.7650 H   0  0  0  0  0  0  0  0  0  0  0  0
  -18.0180  -28.1460   22.9300 C   0  0  0  0  0  0  0  0  0  0  0  0
  -20.5760  -28.4070   23.2010 C   0  0  0  0  0  3  0  0  0  0  0  0
  -20.6800  -26.9820   22.6100 C   0  0  0  0  0  2  0  0  0  0  0  0
  -19.5780  -26.6670   21.5930 C   0  0  0  0  0  2  0  0  0  0  0  0
  -18.1960  -26.8030   22.2400 C   0  0  0  0  0  2  0  0  0  0  0  0
  -19.1360  -28.9050   23.3670 C   0  0  0  0  0  0  0  0  0  0  0  0
  -18.9150  -30.1610   23.9740 C   0  0  0  0  0  3  0  0  0  0  0  0
  -17.6100  -30.6590   24.1460 C   0  0  0  0  0  3  0  0  0  0  0  0
  -16.5060  -29.8950   23.7300 C   0  0  0  0  0  3  0  0  0  0  0  0
  -16.7110  -28.6420   23.1250 C   0  0  0  0  0  3  0  0  0  0  0  0
  -25.8470  -32.6010   23.9030 C   0  0  0  0  0  3  0  0  0  0  0  0
  -26.3380  -31.8550   25.2050 C   0  0  1  0  0  0  0  0  0  0  0  0
  -25.2250  -31.6420   26.2580 C   0  0  0  0  0  1  0  0  0  0  0  0
  -26.9220  -30.4700   24.8470 C   0  0  0  0  0  1  0  0  0  0  0  0
  -27.4780  -32.6580   25.8720 C   0  0  0  0  0  1  0  0  0  0  0  0
  -25.5440  -34.0080   24.2010 N   0  0  0  0  0  0  0  0  0  0  0  0
  -25.8940  -35.0460   23.4260 C   0  0  0  0  0  0  0  0  0  0  0  0
  -26.5720  -34.9170   22.4050 O   0  0  0  0  0  0  0  0  0  0  0  0
  -24.9520  -34.1840   24.9980 H   0  0  0  0  0  0  0  0  0  0  0  0
  -24.1880  -36.8470   23.0160 C   0  0  0  0  0  1  0  0  0  0  0  0
  -25.4100  -36.4440   23.8560 C   0  0  0  0  0  3  0  0  0  0  0  0
  -27.5320  -37.3320   24.7160 C   0  0  0  0  0  1  0  0  0  0  0  0
  -26.4530  -37.4870   23.7440 N   0  0  0  0  0  0  0  0  0  0  0  0
  -26.0500  -38.4140   23.8620 H   0  0  0  0  0  0  0  0  0  0  0  0
  1  3  2  0
  1  5  1  0
  3  6  1  0
  4  2  1  0
  4  7  1  0
  5  4  2  0
  6  2  2  0
  6  8  1  0
  9 17  1  0
 10 15  1  0
 11 12  1  0
 11 10  1  0
 13 12  1  0
 13 22  1  0
 13 14  1  0
 15  9  1  0
 15 14  1  0
 16  9  2  0
 17 18  1  0
 17  5  1  0
 19 20  2  0
 20 39  1  0
 21 20  1  0
 21 24  1  0
 22 23  1  0
 22 19  1  0
 23 21  2  0
 24 25  1  0
 25 26  2  0
 27 30  1  0
 27 26  1  0
 28 27  2  0
 29 28  1  0
 29 24  2  0
 30 31  1  0
 31 32  1  0
 32 33  2  0
 34 33  1  0
 34 38  1  0
 35 34  2  0
 36 31  2  0
 36 35  1  0
 37 36  1  0
 39 40  1  0
 40 43  1  0
 40 42  1  0
 41 39  2  0
 44 19  1  0
 44 45  1  0
 46 44  1  0
 47  3  1  0
 48 47  2  0
 48 49  1  0
 50 51  1  0
 50 49  2  0
 52 63  2  0
 53 51  1  0
 53 58  1  0
 54 62  1  0
 54 64  1  0
 55 61  1  0
 55 57  1  0
 56 62  1  0
 57 56  1  0
 58 57  2  0
 59 60  1  0
 59 53  2  0
 60 55  2  0
 61 54  1  0
 62 52  1  0
 64 66  2  0
 65 64  1  0
 67 65  1  0
 68 77  2  0
 68 73  1  0
 69 65  1  0
 69 73  1  0
 70 69  1  0
 71 72  1  0
 71 70  1  0
 72 68  1  0
 73 74  2  0
 74 75  1  0
 76 75  2  0
 77 76  1  0
 78 52  1  0
 78 83  1  0
 78 79  1  0
 79 82  1  1
 79 80  1  0
 81 79  1  0
 83 86  1  0
 84 88  1  0
 84 83  1  0
 85 84  2  0
 88 87  1  0
 90 88  1  0
 90 91  1  0
 90 89  1  0
M  ISO  4   9 100  17 100  50 101  51 101
M  END
>  <TORSDO>  (32) 
F 19

>  <SCORE>  (32) 
-13.306

>  <name>  (32) 
31

>  <ligand_id>  (32) 
31

>  <original_smiles>  (32) 
[H]C(=C([H])C([H])([H])C([H])([H])Oc1c([H])c([H])c2c(c1[H])C([H])([H])N(C(=O)C([H])(N([H])C(=O)C([H])(N([H])C([H])([H])[H])C([H])([H])[H])C(C([H])([H])[H])(C([H])([H])[H])C([H])([H])[H])C([H])(C(=O)N([H])C1([H])c3c([H])c([H])c([H])c([H])c3C([H])([H])C([H])([H])C1([H])[H])C2([H])[H])c1c([H])c(N([H])C(=O)N2C([H])([H])C([H])([H])C([H])([H])C([H])(n3nc(-c4c([H])c([H])c(Oc5c([H])c([H])c(F)c([H])c5F)c([H])c4[H])c(C(=O)N([H])[H])c3N([H])[H])C2([H])[H])c(C([H])([H])[H])c([H])c1Cl

>  <smiles>  (32) 
[H]C(=C([H])C([H])([H])C([H])([H])Oc1c([H])c([H])c2c(c1[H])C([H])([H])N(C(=O)C([H])(N([H])C(=O)C([H])(N([H])C([H])([H])[H])C([H])([H])[H])C(C([H])([H])[H])(C([H])([H])[H])C([H])([H])[H])C([H])(C(=O)N([H])C1([H])c3c([H])c([H])c([H])c([H])c3C([H])([H])C([H])([H])C1([H])[H])C2([H])[H])c1c([H])c(N([H])C(=O)N2C([H])([H])C([H])([H])C([H])([H])C([H])(n3nc(-c4c([H])c([H])c(Oc5c([H])c([H])c(F)c([H])c5F)c([H])c4[H])c(C(=O)N([H])[H])c3N([H])[H])C2([H])[H])c(C([H])([H])[H])c([H])c1Cl

$$$$
32:0:0
     RDKit          3D

 94 97  0  0  1  0  0  0  0  0999 V2000
  -24.7990  -23.4440   17.4730 C   0  0  0  0  0  0  0  0  0  0  0  0
  -25.6110  -23.9530   16.6540 N   0  0  0  0  0  0  0  0  0  0  0  0
  -26.4470  -24.2670   17.1340 H   0  0  0  0  0  0  0  0  0  0  0  0
  -26.9540  -23.2950   19.8070 C   0  0  0  0  0  3  0  0  0  0  0  0
  -24.6340  -23.7250   20.1960 C   0  0  0  0  0  3  0  0  0  0  0  0
  -26.3330  -23.6570   22.0980 C   0  0  0  0  0  3  0  0  0  0  0  0
  -25.5230  -23.4700   19.1270 C   0  0  0  0  0  0  0  0  0  0  0  0
  -27.4700  -23.3620   21.3140 C   0  0  0  0  0  0  0  0  0  0  0  0
  -25.0100  -23.8170   21.5750 C   0  0  0  0  0  0  0  0  0  0  0  0
  -24.0280  -24.0800   22.4680 F   0  0  0  0  0  0  0  0  0  0  0  0
  -29.6470  -22.7400   23.4650 C   0  0  0  0  0  0  0  0  0  0  0  0
  -31.8380  -21.4330   24.2560 C   0  0  0  0  0  2  0  0  0  0  0  0
  -32.9280  -21.3910   23.1450 C   0  0  0  0  0  2  0  0  0  0  0  0
  -32.5560  -20.3980   22.0180 C   0  0  0  0  0  2  0  0  0  0  0  0
  -31.0400  -20.4720   21.7020 C   0  0  0  0  0  3  0  0  0  0  0  0
  -30.1860  -20.3600   22.9560 C   0  0  0  0  0  2  0  0  0  0  0  0
  -30.4720  -21.5970   23.6100 N   0  0  0  0  0  0  0  0  0  0  0  0
  -29.9180  -23.5210   24.4170 O   0  0  0  0  0  0  0  0  0  0  0  0
  -28.9290  -23.1140   22.1400 N   0  0  0  0  0  0  0  0  0  0  0  0
  -29.6770  -23.4500   21.5490 H   0  0  0  0  0  0  0  0  0  0  0  0
  -30.1280  -19.7930   19.4500 C   0  0  0  0  0  0  0  0  0  0  0  0
  -29.8360  -18.5690   18.9290 C   0  0  0  0  0  0  0  0  0  0  0  0
  -30.0650  -17.6220   19.9760 C   0  0  0  0  0  0  0  0  0  0  0  0
  -30.5620  -19.5330   20.7360 N   0  0  0  0  0  0  0  0  0  0  0  0
  -30.4450  -18.2340   21.0850 N   0  0  0  0  0  0  0  0  0  0  0  0
  -30.0100  -16.1600   19.9740 C   0  0  0  0  0  0  0  0  0  0  0  0
  -29.0700  -15.4540   20.7570 C   0  0  0  0  0  3  0  0  0  0  0  0
  -29.0300  -14.0450   20.7230 C   0  0  0  0  0  3  0  0  0  0  0  0
  -29.9340  -13.3320   19.8990 C   0  0  0  0  0  0  0  0  0  0  0  0
  -30.8830  -14.0400   19.1430 C   0  0  0  0  0  3  0  0  0  0  0  0
  -30.9230  -15.4420   19.1810 C   0  0  0  0  0  3  0  0  0  0  0  0
  -29.9890  -11.9620   19.8190 O   0  0  0  0  0  0  0  0  0  0  0  0
  -29.0600  -11.1710   20.4430 C   0  0  0  0  0  0  0  0  0  0  0  0
  -27.8220  -10.8560   19.8410 C   0  0  0  0  0  3  0  0  0  0  0  0
  -26.9260   -9.9830   20.4910 C   0  0  0  0  0  3  0  0  0  0  0  0
  -27.2700   -9.4190   21.7350 C   0  0  0  0  0  0  0  0  0  0  0  0
  -28.5030   -9.7300   22.3330 C   0  0  0  0  0  3  0  0  0  0  0  0
  -29.3970  -10.6020   21.6870 C   0  0  0  0  0  0  0  0  0  0  0  0
  -30.5940  -10.8820   22.2560 F   0  0  0  0  0  0  0  0  0  0  0  0
  -26.4140   -8.5730   22.3550 F   0  0  0  0  0  0  0  0  0  0  0  0
  -29.4570  -18.2840   17.5090 C   0  0  0  0  0  0  0  0  0  0  0  0
  -28.1640  -18.1790   17.2330 N   0  0  0  0  0  0  0  0  0  0  0  0
  -30.3100  -18.2000   16.6260 O   0  0  0  0  0  0  0  0  0  0  0  0
  -27.4630  -18.2670   17.9530 H   0  0  0  0  0  0  0  0  0  0  0  0
  -27.8670  -18.0210   16.2830 H   0  0  0  0  0  0  0  0  0  0  0  0
  -30.0830  -21.0900   18.9320 N   0  0  0  0  0  0  0  0  0  0  0  0
  -29.7920  -21.2800   17.9790 H   0  0  0  0  0  0  0  0  0  0  0  0
  -30.2410  -21.9330   19.4680 H   0  0  0  0  0  0  0  0  0  0  0  0
  -22.7360  -23.2050   15.1750 C   0  0  0  0  0  3  0  0  0  0  0  0
  -23.3310  -22.9910   16.5600 C   0  0  0  0  0  3  0  0  0  0  0  0
  -21.3980  -22.9450   14.0870 C   0  0  0  0  0  2  0  0  0  0  0  0
  -20.8680  -22.9680   12.5690 C   0  0  0  0  0  1  0  0  0  0  0  0
  -22.5310  -24.2080   10.5630 C   0  0  0  0  0 15  0  0  0  0  0  0
  -23.1200  -26.1130   10.9460 O   0  0  0  0  0  1  0  0  0  0  0  0
  -28.4640  -27.5290   10.2780 C   0  0  0  0  0  0  0  0  0  0  0  0
  -23.0960  -27.6690   10.8130 C   0  0  0  0  0  3  0  0  0  0  0  0
  -26.7620  -26.1850   11.3960 C   0  0  0  0  0  3  0  0  0  0  0  0
  -24.7940  -27.4520   12.5950 C   0  0  0  0  0  3  0  0  0  0  0  0
  -26.6300  -28.7110   11.4800 C   0  0  0  0  0  2  0  0  0  0  0  0
  -25.1680  -28.4240   11.6810 C   0  0  0  0  0  3  0  0  0  0  0  0
  -24.1730  -28.6460   10.7290 C   0  0  0  0  0  2  0  0  0  0  0  0
  -22.4840  -27.9660   12.0270 C   0  0  0  0  0  2  0  0  0  0  0  0
  -23.4030  -27.4020   12.9500 C   0  0  0  0  0  2  0  0  0  0  0  0
  -25.7570  -26.2840   12.6360 C   0  0  0  0  0  2  0  0  0  0  0  0
  -27.3660  -27.5000   11.0770 N   0  0  0  0  0  0  0  0  0  0  0  0
  -29.0400  -26.4870    9.9270 O   0  0  0  0  0  0  0  0  0  0  0  0
  -26.2210  -25.6880   10.0260 C   0  0  0  0  0  0  0  0  0  0  0  0
  -26.6710  -24.5890    9.4890 N   0  0  0  0  0  0  0  0  0  0  0  0
  -25.4010  -26.3100    9.3700 O   0  0  0  0  0  0  0  0  0  0  0  0
  -27.4510  -24.1020    9.9080 H   0  0  0  0  0  0  0  0  0  0  0  0
  -27.7200  -22.5850    6.8370 C   0  0  0  0  0  0  0  0  0  0  0  0
  -25.7830  -23.8050    8.6080 C   0  0  0  0  0  2  0  0  0  0  0  0
  -24.6840  -22.2990    9.5490 C   0  0  0  0  0 15  0  0  0  0  0  0
  -26.2180  -20.1830    8.8340 C   0  0  0  0  0 15  0  0  0  0  0  0
  -27.5350  -20.9570    7.5030 C   0  0  0  0  0  1  0  0  0  0  0  0
  -27.0260  -23.7720    7.3980 C   0  0  0  0  0  0  0  0  0  0  0  0
  -27.5380  -25.0790    6.9430 C   0  0  0  0  0  3  0  0  0  0  0  0
  -28.5150  -25.3340    5.9370 C   0  0  0  0  0  3  0  0  0  0  0  0
  -29.0120  -24.2290    5.2440 C   0  0  0  0  0  3  0  0  0  0  0  0
  -28.6170  -22.9150    5.6900 C   0  0  0  0  0  3  0  0  0  0  0  0
  -29.0530  -28.8760    9.7960 C   0  0  0  0  0  3  0  0  0  0  0  0
  -28.9090  -29.1110    8.2440 C   0  0  1  0  0  0  0  0  0  0  0  0
  -29.9540  -28.3540    7.3920 C   0  0  0  0  0  1  0  0  0  0  0  0
  -27.5080  -28.6940    7.7420 C   0  0  0  0  0  1  0  0  0  0  0  0
  -29.0440  -30.6220    7.9470 C   0  0  0  0  0  1  0  0  0  0  0  0
  -30.4620  -28.8540   10.1940 N   0  0  0  0  0  0  0  0  0  0  0  0
  -30.9210  -29.3590   11.3440 C   0  0  0  0  0  0  0  0  0  0  0  0
  -30.2080  -29.9880   12.1300 O   0  0  0  0  0  0  0  0  0  0  0  0
  -31.0880  -28.3060    9.6230 H   0  0  0  0  0  0  0  0  0  0  0  0
  -32.5500  -28.1210   12.8020 C   0  0  0  0  0  1  0  0  0  0  0  0
  -32.4100  -29.1410   11.6620 C   0  0  0  0  0  3  0  0  0  0  0  0
  -33.5550  -31.1510   10.8450 C   0  0  0  0  0  1  0  0  0  0  0  0
  -33.1210  -30.3870   12.0120 N   0  0  0  0  0  0  0  0  0  0  0  0
  -33.9380  -30.1870   12.5810 H   0  0  0  0  0  0  0  0  0  0  0  0
  1  7  1  0
  2  3  1  0
  2  1  2  0
  4  8  1  0
  5  9  2  0
  7  4  2  0
  7  5  1  0
  8  6  2  0
  8 19  1  0
  9  6  1  0
  9 10  1  0
 11 17  1  0
 11 18  2  0
 13 12  1  0
 14 13  1  0
 15 24  1  0
 15 14  1  0
 15 16  1  0
 16 17  1  0
 17 12  1  0
 19 11  1  0
 20 19  1  0
 21 24  1  0
 22 21  2  0
 22 23  1  0
 23 25  2  0
 24 25  1  0
 26 23  1  0
 26 27  1  0
 28 27  2  0
 29 28  1  0
 30 31  1  0
 30 29  2  0
 31 26  2  0
 32 29  1  0
 32 33  1  0
 33 38  1  0
 34 33  2  0
 34 35  1  0
 35 36  2  0
 36 37  1  0
 36 40  1  0
 38 39  1  0
 38 37  2  0
 41 22  1  0
 42 41  1  0
 42 44  1  0
 43 41  2  0
 45 42  1  0
 46 21  1  0
 46 48  1  0
 47 46  1  0
 49 50  2  0
 50  1  1  0
 51 49  1  0
 52 51  1  0
 55 65  1  0
 56 54  1  0
 56 62  1  0
 57 67  1  0
 57 64  1  0
 58 64  1  0
 58 63  1  0
 59 60  1  0
 60 61  1  0
 60 58  1  0
 61 56  1  0
 62 63  1  0
 65 57  1  0
 65 59  1  0
 66 55  2  0
 68 70  1  0
 68 67  1  0
 69 67  2  0
 71 76  1  0
 71 75  1  0
 72 68  1  0
 76 72  1  0
 77 76  2  0
 78 77  1  0
 79 80  1  0
 79 78  2  0
 80 71  2  0
 81 86  1  0
 81 55  1  0
 82 81  1  0
 82 83  1  6
 84 82  1  0
 85 82  1  0
 86 87  1  0
 87 91  1  0
 87 88  2  0
 89 86  1  0
 91 93  1  0
 91 90  1  0
 92 93  1  0
 93 94  1  0
M  ISO  4  11 100  19 100  53 101  54 101
M  END
>  <TORSDO>  (33) 
F 20

>  <SCORE>  (33) 
-8.019

>  <name>  (33) 
32

>  <ligand_id>  (33) 
32

>  <original_smiles>  (33) 
[H]N=C(C([H])=C([H])C([H])=C([H])C([H])([H])Oc1c([H])c([H])c2c(c1[H])C([H])([H])N(C(=O)C([H])(N([H])C(=O)C([H])(N([H])C([H])([H])[H])C([H])([H])[H])C(C([H])([H])[H])(C([H])([H])[H])C([H])([H])[H])C([H])(C(=O)N([H])C1([H])c3c([H])c([H])c([H])c([H])c3C([H])([H])C([H])([H])C1([H])[H])C2([H])[H])c1c([H])c(F)c([H])c(N([H])C(=O)N2C([H])([H])C([H])([H])C([H])([H])C([H])(n3nc(-c4c([H])c([H])c(Oc5c([H])c([H])c(F)c([H])c5F)c([H])c4[H])c(C(=O)N([H])[H])c3N([H])[H])C2([H])[H])c1[H]

>  <smiles>  (33) 
[H]N=C(C([H])=C([H])C([H])=C([H])C([H])([H])Oc1c([H])c([H])c2c(c1[H])C([H])([H])N(C(=O)C([H])(N([H])C(=O)C([H])(N([H])C([H])([H])[H])C([H])([H])[H])C(C([H])([H])[H])(C([H])([H])[H])C([H])([H])[H])C([H])(C(=O)N([H])C1([H])c3c([H])c([H])c([H])c([H])c3C([H])([H])C([H])([H])C1([H])[H])C2([H])[H])c1c([H])c(F)c([H])c(N([H])C(=O)N2C([H])([H])C([H])([H])C([H])([H])C([H])(n3nc(-c4c([H])c([H])c(Oc5c([H])c([H])c(F)c([H])c5F)c([H])c4[H])c(C(=O)N([H])[H])c3N([H])[H])C2([H])[H])c1[H]

$$$$
33:0:0
     RDKit          3D

 92100  0  0  1  0  0  0  0  0999 V2000
  -30.3040  -19.4980   19.9860 C   0  0  0  0  0  3  0  0  0  0  0  0
  -29.0910  -18.0870   18.4230 C   0  0  0  0  0  3  0  0  0  0  0  0
  -29.9420  -18.1990   19.5460 C   0  0  0  0  0  0  0  0  0  0  0  0
  -29.9130  -20.6550   19.2580 C   0  0  0  0  0  0  0  0  0  0  0  0
  -28.7480  -19.2100   17.6480 C   0  0  0  0  0  0  0  0  0  0  0  0
  -29.2170  -20.4920   18.0220 C   0  0  0  0  0  0  0  0  0  0  0  0
  -27.9030  -18.9980   16.3960 C   0  0  0  0  0  1  0  0  0  0  0  0
  -29.0090  -21.6630   17.0560 C   0  0  0  0  0  1  0  0  0  0  0  0
  -30.5110  -16.9690   20.1540 C   0  0  0  0  0  3  0  0  0  0  0  0
  -29.9530  -15.7340   20.0810 C   0  0  0  0  0  3  0  0  0  0  0  0
  -30.7280  -14.5200   20.3380 C   0  0  0  0  0  0  0  0  0  0  0  0
  -30.3890  -12.3130   19.3300 C   0  0  0  0  0  2  0  0  0  0  0  0
  -29.4740  -12.5030   18.1020 C   0  0  0  0  0  2  0  0  0  0  0  0
  -27.9920  -12.3630   18.5040 C   0  0  0  0  0  2  0  0  0  0  0  0
  -27.6260  -13.2500   19.7210 C   0  0  0  0  0  3  0  0  0  0  0  0
  -28.6760  -13.1410   20.8520 C   0  0  0  0  0  2  0  0  0  0  0  0
  -30.0210  -13.3570   20.2970 N   0  0  0  0  0  0  0  0  0  0  0  0
  -31.9480  -14.5450   20.1800 O   0  0  0  0  0  0  0  0  0  0  0  0
  -25.2360  -13.8940   20.4090 C   0  0  0  0  0  0  0  0  0  0  0  0
  -24.1570  -13.1350   20.7730 C   0  0  0  0  0  0  0  0  0  0  0  0
  -24.6110  -11.7820   20.7820 C   0  0  0  0  0  0  0  0  0  0  0  0
  -26.2740  -12.9970   20.2060 N   0  0  0  0  0  0  0  0  0  0  0  0
  -25.9040  -11.7250   20.4950 N   0  0  0  0  0  0  0  0  0  0  0  0
  -23.8790  -10.5270   20.9820 C   0  0  0  0  0  0  0  0  0  0  0  0
  -24.3020   -9.5710   21.9300 C   0  0  0  0  0  3  0  0  0  0  0  0
  -23.5670   -8.3820   22.1170 C   0  0  0  0  0  3  0  0  0  0  0  0
  -22.3980   -8.1400   21.3560 C   0  0  0  0  0  0  0  0  0  0  0  0
  -21.9960   -9.0890   20.4020 C   0  0  0  0  0  3  0  0  0  0  0  0
  -22.7290  -10.2700   20.2100 C   0  0  0  0  0  3  0  0  0  0  0  0
  -21.6390   -7.0000   21.4500 O   0  0  0  0  0  0  0  0  0  0  0  0
  -21.5910   -6.2610   22.6060 C   0  0  0  0  0  0  0  0  0  0  0  0
  -21.1720   -6.8240   23.8310 C   0  0  0  0  0  3  0  0  0  0  0  0
  -21.0640   -6.0130   24.9780 C   0  0  0  0  0  3  0  0  0  0  0  0
  -21.3660   -4.6400   24.9040 C   0  0  0  0  0  0  0  0  0  0  0  0
  -21.7800   -4.0780   23.6820 C   0  0  0  0  0  3  0  0  0  0  0  0
  -21.8850   -4.8850   22.5360 C   0  0  0  0  0  0  0  0  0  0  0  0
  -22.2600   -4.3330   21.3570 F   0  0  0  0  0  0  0  0  0  0  0  0
  -21.2620   -3.8590   26.0040 F   0  0  0  0  0  0  0  0  0  0  0  0
  -22.7590  -13.6280   21.0070 C   0  0  0  0  0  0  0  0  0  0  0  0
  -22.0130  -12.9550   21.8770 N   0  0  0  0  0  0  0  0  0  0  0  0
  -22.3350  -14.6440   20.4600 O   0  0  0  0  0  0  0  0  0  0  0  0
  -22.3730  -12.1310   22.3360 H   0  0  0  0  0  0  0  0  0  0  0  0
  -21.0750  -13.2660   22.0810 H   0  0  0  0  0  0  0  0  0  0  0  0
  -25.4160  -15.2590   20.2160 N   0  0  0  0  0  0  0  0  0  0  0  0
  -24.6630  -15.9290   20.3180 H   0  0  0  0  0  0  0  0  0  0  0  0
  -26.2870  -15.6990   19.9440 H   0  0  0  0  0  0  0  0  0  0  0  0
  -30.1900  -22.0070   19.8190 C   0  0  0  0  0  3  0  0  0  0  0  0
  -29.2520  -22.9800   19.8250 C   0  0  0  0  0  3  0  0  0  0  0  0
  -29.4200  -24.3730   20.2850 C   0  0  0  0  0  0  0  0  0  0  0  0
  -30.4270  -24.8030   20.8590 O   0  0  0  0  0  0  0  0  0  0  0  0
  -28.2140  -25.2740   19.9790 C   0  0  0  0  0  2  0  0  0  0  0  0
  -28.3840  -26.6650   20.3160 O   0  0  0  0  0  0  0  0  0  0  0  0
  -24.6010  -31.9330   23.2830 C   0  0  0  0  0  0  0  0  0  0  0  0
  -27.2230  -27.4210   20.2670 C   0  0  0  0  0  0  0  0  0  0  0  0
  -23.3940  -30.5220   21.6520 C   0  0  0  0  0  3  0  0  0  0  0  0
  -24.8420  -28.9650   20.2490 C   0  0  0  0  0  0  0  0  0  0  0  0
  -25.9270  -30.8540   21.4710 C   0  0  0  0  0  2  0  0  0  0  0  0
  -26.0020  -29.4750   20.8450 C   0  0  0  0  0  0  0  0  0  0  0  0
  -27.1930  -28.7090   20.8550 C   0  0  0  0  0  3  0  0  0  0  0  0
  -26.0380  -26.9380   19.6570 C   0  0  0  0  0  3  0  0  0  0  0  0
  -24.8560  -27.6960   19.6520 C   0  0  0  0  0  3  0  0  0  0  0  0
  -23.6040  -29.8310   20.2800 C   0  0  0  0  0  2  0  0  0  0  0  0
  -24.6600  -31.1180   22.1930 N   0  0  0  0  0  0  0  0  0  0  0  0
  -23.5190  -32.2220   23.8120 O   0  0  0  0  0  0  0  0  0  0  0  0
  -22.7300  -29.5130   22.6200 C   0  0  0  0  0  0  0  0  0  0  0  0
  -21.4040  -29.3370   22.4880 N   0  0  0  0  0  0  0  0  0  0  0  0
  -23.4030  -28.8960   23.4520 O   0  0  0  0  0  0  0  0  0  0  0  0
  -20.9200  -29.8860   21.7900 H   0  0  0  0  0  0  0  0  0  0  0  0
  -18.0190  -28.1670   22.9690 C   0  0  0  0  0  0  0  0  0  0  0  0
  -20.5770  -28.4120   23.2610 C   0  0  0  0  0  3  0  0  0  0  0  0
  -20.6770  -26.9740   22.7040 C   0  0  0  0  0  2  0  0  0  0  0  0
  -19.5800  -26.6460   21.6860 C   0  0  0  0  0  2  0  0  0  0  0  0
  -18.1930  -26.8070   22.3140 C   0  0  0  0  0  2  0  0  0  0  0  0
  -19.1380  -28.9270   23.3990 C   0  0  0  0  0  0  0  0  0  0  0  0
  -18.9220  -30.2030   23.9680 C   0  0  0  0  0  3  0  0  0  0  0  0
  -17.6190  -30.7150   24.1140 C   0  0  0  0  0  3  0  0  0  0  0  0
  -16.5150  -29.9490   23.7020 C   0  0  0  0  0  3  0  0  0  0  0  0
  -16.7170  -28.6790   23.1360 C   0  0  0  0  0  3  0  0  0  0  0  0
  -25.8910  -32.5620   23.9010 C   0  0  0  0  0  3  0  0  0  0  0  0
  -26.4020  -31.7940   25.1810 C   0  0  1  0  0  0  0  0  0  0  0  0
  -25.3060  -31.5690   26.2490 C   0  0  0  0  0  1  0  0  0  0  0  0
  -26.9810  -30.4120   24.7980 C   0  0  0  0  0  1  0  0  0  0  0  0
  -27.5510  -32.5900   25.8440 C   0  0  0  0  0  1  0  0  0  0  0  0
  -25.5860  -33.9640   24.2210 N   0  0  0  0  0  0  0  0  0  0  0  0
  -25.9150  -35.0090   23.4490 C   0  0  0  0  0  0  0  0  0  0  0  0
  -26.5790  -34.8950   22.4150 O   0  0  0  0  0  0  0  0  0  0  0  0
  -24.9980  -34.1270   25.0240 H   0  0  0  0  0  0  0  0  0  0  0  0
  -24.1880  -36.8010   23.0890 C   0  0  0  0  0  1  0  0  0  0  0  0
  -25.4330  -36.4020   23.8960 C   0  0  0  0  0  3  0  0  0  0  0  0
  -27.5750  -37.2900   24.7050 C   0  0  0  0  0  1  0  0  0  0  0  0
  -26.4660  -37.4530   23.7680 N   0  0  0  0  0  0  0  0  0  0  0  0
  -26.0590  -38.3730   23.9170 H   0  0  0  0  0  0  0  0  0  0  0  0
  2  3  2  0
  3  1  1  0
  3  9  1  0
  4 47  1  0
  4  1  2  0
  5  6  2  0
  5  2  1  0
  6  4  1  0
  7  5  1  0
  8  6  1  0
 10  9  2  0
 10 11  1  0
 12 17  1  0
 13 14  1  0
 13 12  1  0
 15 14  1  0
 15 22  1  0
 15 16  1  0
 17 11  1  0
 17 16  1  0
 18 11  2  0
 19 20  2  0
 20 21  1  0
 20 39  1  0
 21 24  1  0
 22 19  1  0
 22 23  1  0
 23 21  2  0
 24 25  1  0
 25 26  2  0
 27 30  1  0
 27 26  1  0
 28 27  2  0
 29 28  1  0
 29 24  2  0
 30 31  1  0
 31 32  1  0
 32 33  2  0
 34 33  1  0
 34 38  1  0
 35 34  2  0
 36 31  2  0
 36 35  1  0
 37 36  1  0
 39 40  1  0
 40 43  1  0
 40 42  1  0
 41 39  2  0
 44 45  1  0
 44 19  1  0
 46 44  1  0
 47 48  2  0
 48 49  1  0
 49 50  2  0
 51 49  1  0
 51 52  1  0
 53 64  2  0
 54 52  1  0
 54 59  1  0
 55 63  1  0
 55 65  1  0
 56 62  1  0
 56 58  1  0
 57 63  1  0
 58 59  2  0
 58 57  1  0
 60 54  2  0
 61 60  1  0
 61 56  2  0
 62 55  1  0
 63 53  1  0
 65 67  2  0
 66 65  1  0
 68 66  1  0
 69 78  2  0
 69 74  1  0
 70 66  1  0
 70 74  1  0
 71 70  1  0
 72 73  1  0
 72 71  1  0
 73 69  1  0
 74 75  2  0
 75 76  1  0
 77 76  2  0
 78 77  1  0
 79 53  1  0
 79 84  1  0
 79 80  1  0
 80 83  1  1
 80 81  1  0
 82 80  1  0
 84 87  1  0
 85 89  1  0
 85 84  1  0
 86 85  2  0
 89 88  1  0
 91 89  1  0
 91 92  1  0
 91 90  1  0
M  ISO  4  10 100  11 100  51 101  52 101
M  END
>  <TORSDO>  (34) 
F 20

>  <SCORE>  (34) 
-13.975

>  <name>  (34) 
33

>  <ligand_id>  (34) 
33

>  <original_smiles>  (34) 
[H]C(C(=O)N1C([H])([H])C([H])([H])C([H])([H])C([H])(n2nc(-c3c([H])c([H])c(Oc4c([H])c([H])c(F)c([H])c4F)c([H])c3[H])c(C(=O)N([H])[H])c2N([H])[H])C1([H])[H])=C([H])c1c([H])c(C([H])=C([H])C(=O)C([H])([H])Oc2c([H])c([H])c3c(c2[H])C([H])([H])N(C(=O)C([H])(N([H])C(=O)C([H])(N([H])C([H])([H])[H])C([H])([H])[H])C(C([H])([H])[H])(C([H])([H])[H])C([H])([H])[H])C([H])(C(=O)N([H])C2([H])c4c([H])c([H])c([H])c([H])c4C([H])([H])C([H])([H])C2([H])[H])C3([H])[H])c(C([H])([H])[H])c(C([H])([H])[H])c1[H]

>  <smiles>  (34) 
[H]C(C(=O)N1C([H])([H])C([H])([H])C([H])([H])C([H])(n2nc(-c3c([H])c([H])c(Oc4c([H])c([H])c(F)c([H])c4F)c([H])c3[H])c(C(=O)N([H])[H])c2N([H])[H])C1([H])[H])=C([H])c1c([H])c(C([H])=C([H])C(=O)C([H])([H])Oc2c([H])c([H])c3c(c2[H])C([H])([H])N(C(=O)C([H])(N([H])C(=O)C([H])(N([H])C([H])([H])[H])C([H])([H])[H])C(C([H])([H])[H])(C([H])([H])[H])C([H])([H])[H])C([H])(C(=O)N([H])C2([H])c4c([H])c([H])c([H])c([H])c4C([H])([H])C([H])([H])C2([H])[H])C3([H])[H])c(C([H])([H])[H])c(C([H])([H])[H])c1[H]

$$$$
34:0:0
     RDKit          3D

 92100  0  0  1  0  0  0  0  0999 V2000
  -29.6140  -18.6890   20.6480 C   0  0  0  0  0  3  0  0  0  0  0  0
  -30.4240  -17.4600   18.7260 C   0  0  0  0  0  3  0  0  0  0  0  0
  -30.0380  -19.8830   18.5830 C   0  0  0  0  0  3  0  0  0  0  0  0
  -30.0170  -17.4100   20.0780 C   0  0  0  0  0  0  0  0  0  0  0  0
  -29.6070  -19.9510   19.9300 C   0  0  0  0  0  0  0  0  0  0  0  0
  -30.4410  -18.6660   18.0000 C   0  0  0  0  0  0  0  0  0  0  0  0
  -30.8550  -18.6530   16.7100 F   0  0  0  0  0  0  0  0  0  0  0  0
  -29.9570  -16.0410   20.8170 C   0  0  0  0  0  0  0  0  0  0  0  0
  -29.3230  -15.9900   21.9130 N   0  0  0  0  0  0  0  0  0  0  0  0
  -28.9230  -16.8910   22.1430 H   0  0  0  0  0  0  0  0  0  0  0  0
  -30.7120  -14.7510   20.2330 C   0  0  0  0  0  0  0  0  0  0  0  0
  -30.4610  -12.5400   19.1140 C   0  0  0  0  0  2  0  0  0  0  0  0
  -29.4950  -12.7050   17.9170 C   0  0  0  0  0  2  0  0  0  0  0  0
  -28.0250  -12.5510   18.3590 C   0  0  0  0  0  2  0  0  0  0  0  0
  -27.7000  -13.3530   19.6480 C   0  0  0  0  0  3  0  0  0  0  0  0
  -28.7800  -13.1230   20.7240 C   0  0  0  0  0  2  0  0  0  0  0  0
  -30.0740  -13.5280   20.1510 N   0  0  0  0  0  0  0  0  0  0  0  0
  -31.8510  -14.8820   19.7670 O   0  0  0  0  0  0  0  0  0  0  0  0
  -25.3120  -13.9310   20.3930 C   0  0  0  0  0  0  0  0  0  0  0  0
  -24.2580  -13.1500   20.7780 C   0  0  0  0  0  0  0  0  0  0  0  0
  -24.7310  -11.8020   20.7440 C   0  0  0  0  0  0  0  0  0  0  0  0
  -26.3620  -13.0600   20.1490 N   0  0  0  0  0  0  0  0  0  0  0  0
  -26.0180  -11.7730   20.4180 N   0  0  0  0  0  0  0  0  0  0  0  0
  -24.0180  -10.5350   20.9470 C   0  0  0  0  0  0  0  0  0  0  0  0
  -24.4570   -9.5810   21.8900 C   0  0  0  0  0  3  0  0  0  0  0  0
  -23.7410   -8.3810   22.0830 C   0  0  0  0  0  3  0  0  0  0  0  0
  -22.5700   -8.1240   21.3320 C   0  0  0  0  0  0  0  0  0  0  0  0
  -22.1470   -9.0680   20.3780 C   0  0  0  0  0  3  0  0  0  0  0  0
  -22.8650  -10.2600   20.1850 C   0  0  0  0  0  3  0  0  0  0  0  0
  -21.8260   -6.9730   21.4310 O   0  0  0  0  0  0  0  0  0  0  0  0
  -21.7680   -6.2530   22.5960 C   0  0  0  0  0  0  0  0  0  0  0  0
  -21.3080   -6.8240   23.8040 C   0  0  0  0  0  3  0  0  0  0  0  0
  -21.2000   -6.0290   24.9620 C   0  0  0  0  0  3  0  0  0  0  0  0
  -21.5390   -4.6630   24.9130 C   0  0  0  0  0  0  0  0  0  0  0  0
  -21.9910   -4.0920   23.7100 C   0  0  0  0  0  3  0  0  0  0  0  0
  -22.1030   -4.8840   22.5550 C   0  0  0  0  0  0  0  0  0  0  0  0
  -22.5190   -4.3250   21.3940 F   0  0  0  0  0  0  0  0  0  0  0  0
  -21.4270   -3.8960   26.0230 F   0  0  0  0  0  0  0  0  0  0  0  0
  -22.8610  -13.6170   21.0660 C   0  0  0  0  0  0  0  0  0  0  0  0
  -22.1520  -12.9200   21.9470 N   0  0  0  0  0  0  0  0  0  0  0  0
  -22.4080  -14.6360   20.5480 O   0  0  0  0  0  0  0  0  0  0  0  0
  -22.5290  -12.0940   22.3860 H   0  0  0  0  0  0  0  0  0  0  0  0
  -21.2180  -13.2210   22.1880 H   0  0  0  0  0  0  0  0  0  0  0  0
  -25.4610  -15.3010   20.2020 N   0  0  0  0  0  0  0  0  0  0  0  0
  -24.6930  -15.9530   20.3140 H   0  0  0  0  0  0  0  0  0  0  0  0
  -26.3150  -15.7460   19.8900 H   0  0  0  0  0  0  0  0  0  0  0  0
  -29.2380  -21.1870   20.5370 O   0  0  0  0  0  0  0  0  0  0  0  0
  -28.8820  -22.3990   19.7450 C   0  0  0  0  0  2  0  0  0  0  0  0
  -29.6540  -23.9890   21.5630 C   0  0  0  0  0  2  0  0  0  0  0  0
  -28.9010  -23.8070   20.4680 C   0  0  0  0  0  0  0  0  0  0  0  0
  -28.0260  -24.9860   19.8820 C   0  0  0  0  0  2  0  0  0  0  0  0
  -28.2510  -26.4130   20.3010 O   0  0  0  0  0  0  0  0  0  0  0  0
  -24.6200  -31.9610   23.2560 C   0  0  0  0  0  0  0  0  0  0  0  0
  -27.1690  -27.3220   20.2200 C   0  0  0  0  0  0  0  0  0  0  0  0
  -23.4020  -30.5640   21.6260 C   0  0  0  0  0  3  0  0  0  0  0  0
  -24.8360  -28.9970   20.2030 C   0  0  0  0  0  0  0  0  0  0  0  0
  -25.9490  -30.8450   21.4470 C   0  0  0  0  0  2  0  0  0  0  0  0
  -26.0120  -29.4580   20.8080 C   0  0  0  0  0  0  0  0  0  0  0  0
  -27.1780  -28.6270   20.8180 C   0  0  0  0  0  3  0  0  0  0  0  0
  -25.9750  -26.9460   19.5610 C   0  0  0  0  0  3  0  0  0  0  0  0
  -24.8210  -27.7480   19.5730 C   0  0  0  0  0  3  0  0  0  0  0  0
  -23.6090  -29.8850   20.2470 C   0  0  0  0  0  2  0  0  0  0  0  0
  -24.6760  -31.1420   22.1650 N   0  0  0  0  0  0  0  0  0  0  0  0
  -23.5380  -32.2550   23.7870 O   0  0  0  0  0  0  0  0  0  0  0  0
  -22.7310  -29.5580   22.5920 C   0  0  0  0  0  0  0  0  0  0  0  0
  -21.4040  -29.3830   22.4640 N   0  0  0  0  0  0  0  0  0  0  0  0
  -23.4030  -28.9360   23.4190 O   0  0  0  0  0  0  0  0  0  0  0  0
  -20.9180  -29.9410   21.7750 H   0  0  0  0  0  0  0  0  0  0  0  0
  -18.0180  -28.2130   22.9670 C   0  0  0  0  0  0  0  0  0  0  0  0
  -20.5780  -28.4580   23.2410 C   0  0  0  0  0  3  0  0  0  0  0  0
  -20.6710  -27.0210   22.6800 C   0  0  0  0  0  2  0  0  0  0  0  0
  -19.5700  -26.6960   21.6660 C   0  0  0  0  0  2  0  0  0  0  0  0
  -18.1880  -26.8570   22.3030 C   0  0  0  0  0  2  0  0  0  0  0  0
  -19.1410  -28.9720   23.3920 C   0  0  0  0  0  0  0  0  0  0  0  0
  -18.9280  -30.2410   23.9710 C   0  0  0  0  0  3  0  0  0  0  0  0
  -17.6260  -30.7520   24.1280 C   0  0  0  0  0  3  0  0  0  0  0  0
  -16.5180  -29.9890   23.7190 C   0  0  0  0  0  3  0  0  0  0  0  0
  -16.7150  -28.7210   23.1440 C   0  0  0  0  0  3  0  0  0  0  0  0
  -25.9070  -32.5870   23.8720 C   0  0  0  0  0  3  0  0  0  0  0  0
  -25.6120  -33.9890   24.1960 N   0  0  0  0  0  0  0  0  0  0  0  0
  -25.9450  -35.0350   23.4280 C   0  0  0  0  0  0  0  0  0  0  0  0
  -26.6020  -34.9200   22.3910 O   0  0  0  0  0  0  0  0  0  0  0  0
  -25.0250  -34.1550   25.0020 H   0  0  0  0  0  0  0  0  0  0  0  0
  -24.2260  -36.8390   23.0830 C   0  0  0  0  0  1  0  0  0  0  0  0
  -25.4740  -36.4300   23.8820 C   0  0  0  0  0  3  0  0  0  0  0  0
  -27.6220  -37.3050   24.6870 C   0  0  0  0  0  1  0  0  0  0  0  0
  -26.5120  -37.4740   23.7530 N   0  0  0  0  0  0  0  0  0  0  0  0
  -26.1130  -38.3980   23.8980 H   0  0  0  0  0  0  0  0  0  0  0  0
  -26.4220  -31.8170   25.1510 C   0  0  1  0  0  0  0  0  0  0  0  0
  -25.3280  -31.5880   26.2200 C   0  0  0  0  0  1  0  0  0  0  0  0
  -26.9990  -30.4360   24.7650 C   0  0  0  0  0  1  0  0  0  0  0  0
  -27.5760  -32.6090   25.8100 C   0  0  0  0  0  1  0  0  0  0  0  0
  2  4  2  0
  3  5  1  0
  4  1  1  0
  4  8  1  0
  5 47  1  0
  5  1  2  0
  6  3  2  0
  6  2  1  0
  7  6  1  0
  8  9  2  0
  9 10  1  0
 11  8  1  0
 12 17  1  0
 13 14  1  0
 13 12  1  0
 15 14  1  0
 15 22  1  0
 15 16  1  0
 17 11  1  0
 17 16  1  0
 18 11  2  0
 19 20  2  0
 20 39  1  0
 21 20  1  0
 21 24  1  0
 22 19  1  0
 22 23  1  0
 23 21  2  0
 24 25  1  0
 25 26  2  0
 27 30  1  0
 27 26  1  0
 28 27  2  0
 29 28  1  0
 29 24  2  0
 30 31  1  0
 31 32  1  0
 32 33  2  0
 34 33  1  0
 34 38  1  0
 35 34  2  0
 36 31  2  0
 36 35  1  0
 37 36  1  0
 39 40  1  0
 40 43  1  0
 40 42  1  0
 41 39  2  0
 44 45  1  0
 44 19  1  0
 46 44  1  0
 48 50  1  0
 48 47  1  0
 50 49  2  0
 51 52  1  0
 51 50  1  0
 53 64  2  0
 54 52  1  0
 54 59  1  0
 55 63  1  0
 55 65  1  0
 56 62  1  0
 56 58  1  0
 57 63  1  0
 58 59  2  0
 58 57  1  0
 60 61  1  0
 60 54  2  0
 61 56  2  0
 62 55  1  0
 63 53  1  0
 65 67  2  0
 66 65  1  0
 68 66  1  0
 69 78  2  0
 69 74  1  0
 70 66  1  0
 70 74  1  0
 71 70  1  0
 72 73  1  0
 72 71  1  0
 73 69  1  0
 74 75  2  0
 75 76  1  0
 77 76  2  0
 78 77  1  0
 79 53  1  0
 79 80  1  0
 79 89  1  0
 80 83  1  0
 81 85  1  0
 81 80  1  0
 82 81  2  0
 85 84  1  0
 87 85  1  0
 87 88  1  0
 87 86  1  0
 89 92  1  1
 89 90  1  0
 91 89  1  0
M  ISO  4   8 100  11 100  51 101  52 101
M  END
>  <TORSDO>  (35) 
F 21

>  <SCORE>  (35) 
-13.333

>  <name>  (35) 
34

>  <ligand_id>  (35) 
34

>  <original_smiles>  (35) 
[H]N=C(C(=O)N1C([H])([H])C([H])([H])C([H])([H])C([H])(n2nc(-c3c([H])c([H])c(Oc4c([H])c([H])c(F)c([H])c4F)c([H])c3[H])c(C(=O)N([H])[H])c2N([H])[H])C1([H])[H])c1c([H])c(F)c([H])c(OC([H])([H])C(=C([H])[H])C([H])([H])Oc2c([H])c([H])c3c(c2[H])C([H])([H])N(C(=O)C([H])(N([H])C(=O)C([H])(N([H])C([H])([H])[H])C([H])([H])[H])C(C([H])([H])[H])(C([H])([H])[H])C([H])([H])[H])C([H])(C(=O)N([H])C2([H])c4c([H])c([H])c([H])c([H])c4C([H])([H])C([H])([H])C2([H])[H])C3([H])[H])c1[H]

>  <smiles>  (35) 
[H]N=C(C(=O)N1C([H])([H])C([H])([H])C([H])([H])C([H])(n2nc(-c3c([H])c([H])c(Oc4c([H])c([H])c(F)c([H])c4F)c([H])c3[H])c(C(=O)N([H])[H])c2N([H])[H])C1([H])[H])c1c([H])c(F)c([H])c(OC([H])([H])C(=C([H])[H])C([H])([H])Oc2c([H])c([H])c3c(c2[H])C([H])([H])N(C(=O)C([H])(N([H])C(=O)C([H])(N([H])C([H])([H])[H])C([H])([H])[H])C(C([H])([H])[H])(C([H])([H])[H])C([H])([H])[H])C([H])(C(=O)N([H])C2([H])c4c([H])c([H])c([H])c([H])c4C([H])([H])C([H])([H])C2([H])[H])C3([H])[H])c1[H]

$$$$
35:0:0
     RDKit          3D

 90 98  0  0  1  0  0  0  0  0999 V2000
  -29.3980  -18.7600   21.0770 C   0  0  0  0  0  3  0  0  0  0  0  0
  -29.1640  -20.1220   21.3600 C   0  0  0  0  0  3  0  0  0  0  0  0
  -31.0130  -20.7370   19.9170 C   0  0  0  0  0  3  0  0  0  0  0  0
  -30.4380  -18.3710   20.2050 C   0  0  0  0  0  0  0  0  0  0  0  0
  -31.2460  -19.3820   19.6180 C   0  0  0  0  0  0  0  0  0  0  0  0
  -29.9640  -21.1290   20.7790 C   0  0  0  0  0  0  0  0  0  0  0  0
  -32.3920  -19.0670   18.6630 C   0  0  0  0  0  1  0  0  0  0  0  0
  -30.7440  -16.9540   19.9290 C   0  0  0  0  0  3  0  0  0  0  0  0
  -30.2690  -15.8080   20.4790 C   0  0  0  0  0  3  0  0  0  0  0  0
  -30.8840  -14.5700   20.0010 C   0  0  0  0  0  0  0  0  0  0  0  0
  -30.4060  -12.4250   18.9230 C   0  0  0  0  0  2  0  0  0  0  0  0
  -29.4400  -12.6880   17.7520 C   0  0  0  0  0  2  0  0  0  0  0  0
  -27.9820  -12.5960   18.2370 C   0  0  0  0  0  2  0  0  0  0  0  0
  -27.7210  -13.4300   19.5220 C   0  0  0  0  0  3  0  0  0  0  0  0
  -28.8200  -13.2040   20.5840 C   0  0  0  0  0  2  0  0  0  0  0  0
  -30.1270  -13.4400   19.9530 N   0  0  0  0  0  0  0  0  0  0  0  0
  -32.0170  -14.5890   19.5160 O   0  0  0  0  0  0  0  0  0  0  0  0
  -25.3720  -14.0640   20.3580 C   0  0  0  0  0  0  0  0  0  0  0  0
  -24.3100  -13.3050   20.7680 C   0  0  0  0  0  0  0  0  0  0  0  0
  -24.7430  -11.9450   20.6970 C   0  0  0  0  0  0  0  0  0  0  0  0
  -26.3880  -13.1680   20.0640 N   0  0  0  0  0  0  0  0  0  0  0  0
  -26.0160  -11.8880   20.3250 N   0  0  0  0  0  0  0  0  0  0  0  0
  -24.0020  -10.6940   20.9050 C   0  0  0  0  0  0  0  0  0  0  0  0
  -24.4350   -9.7270   21.8400 C   0  0  0  0  0  3  0  0  0  0  0  0
  -23.6970   -8.5400   22.0370 C   0  0  0  0  0  3  0  0  0  0  0  0
  -22.5120   -8.3110   21.2980 C   0  0  0  0  0  0  0  0  0  0  0  0
  -22.0990   -9.2660   20.3520 C   0  0  0  0  0  3  0  0  0  0  0  0
  -22.8370  -10.4440   20.1540 C   0  0  0  0  0  3  0  0  0  0  0  0
  -21.7440   -7.1760   21.4030 O   0  0  0  0  0  0  0  0  0  0  0  0
  -21.6700   -6.4630   22.5720 C   0  0  0  0  0  0  0  0  0  0  0  0
  -21.1290   -7.0200   23.7510 C   0  0  0  0  0  3  0  0  0  0  0  0
  -21.0090   -6.2280   24.9110 C   0  0  0  0  0  3  0  0  0  0  0  0
  -21.4170   -4.8820   24.8930 C   0  0  0  0  0  0  0  0  0  0  0  0
  -21.9480   -4.3240   23.7160 C   0  0  0  0  0  3  0  0  0  0  0  0
  -22.0710   -5.1120   22.5590 C   0  0  0  0  0  0  0  0  0  0  0  0
  -22.5650   -4.5630   21.4230 F   0  0  0  0  0  0  0  0  0  0  0  0
  -21.2940   -4.1200   26.0040 F   0  0  0  0  0  0  0  0  0  0  0  0
  -22.9360  -13.8030   21.1140 C   0  0  0  0  0  0  0  0  0  0  0  0
  -22.2360  -13.1090   22.0050 N   0  0  0  0  0  0  0  0  0  0  0  0
  -22.4930  -14.8440   20.6290 O   0  0  0  0  0  0  0  0  0  0  0  0
  -22.6090  -12.2690   22.4220 H   0  0  0  0  0  0  0  0  0  0  0  0
  -21.3160  -13.4250   22.2760 H   0  0  0  0  0  0  0  0  0  0  0  0
  -25.5540  -15.4330   20.1940 N   0  0  0  0  0  0  0  0  0  0  0  0
  -24.8110  -16.1040   20.3570 H   0  0  0  0  0  0  0  0  0  0  0  0
  -26.4050  -15.8620   19.8500 H   0  0  0  0  0  0  0  0  0  0  0  0
  -29.8400  -23.3620   20.2000 C   0  0  0  0  0  3  0  0  0  0  0  0
  -29.7370  -22.4740   21.1100 N   0  0  0  0  0  0  0  0  0  0  0  0
  -29.7860  -24.8520   20.4500 C   0  0  0  0  0  2  0  0  0  0  0  0
  -28.5660  -25.5040   19.7940 C   0  0  0  0  0  2  0  0  0  0  0  0
  -28.5950  -26.9070   20.0570 O   0  0  0  0  0  0  0  0  0  0  0  0
  -24.5690  -31.7470   23.2980 C   0  0  0  0  0  0  0  0  0  0  0  0
  -27.3950  -27.5790   20.0340 C   0  0  0  0  0  0  0  0  0  0  0  0
  -23.4370  -30.4150   21.5490 C   0  0  0  0  0  3  0  0  0  0  0  0
  -24.9610  -29.0080   20.0700 C   0  0  0  0  0  0  0  0  0  0  0  0
  -25.9520  -30.8560   21.4290 C   0  0  0  0  0  2  0  0  0  0  0  0
  -26.0880  -29.5290   20.7150 C   0  0  0  0  0  0  0  0  0  0  0  0
  -27.3080  -28.8220   20.6950 C   0  0  0  0  0  3  0  0  0  0  0  0
  -26.2510  -27.0720   19.3730 C   0  0  0  0  0  3  0  0  0  0  0  0
  -25.0360  -27.7780   19.3950 C   0  0  0  0  0  3  0  0  0  0  0  0
  -23.6940  -29.8270   20.1350 C   0  0  0  0  0  2  0  0  0  0  0  0
  -24.6690  -31.0170   22.1520 N   0  0  0  0  0  0  0  0  0  0  0  0
  -23.4700  -31.9580   23.8290 O   0  0  0  0  0  0  0  0  0  0  0  0
  -22.7960  -29.3200   22.4300 C   0  0  0  0  0  0  0  0  0  0  0  0
  -21.4890  -29.0830   22.2320 N   0  0  0  0  0  0  0  0  0  0  0  0
  -23.4710  -28.6890   23.2480 O   0  0  0  0  0  0  0  0  0  0  0  0
  -21.0050  -29.6490   21.5490 H   0  0  0  0  0  0  0  0  0  0  0  0
  -18.1540  -27.7280   22.5200 C   0  0  0  0  0  0  0  0  0  0  0  0
  -20.6830  -28.0770   22.9210 C   0  0  0  0  0  3  0  0  0  0  0  0
  -20.8730  -26.6810   22.2850 C   0  0  0  0  0  2  0  0  0  0  0  0
  -19.8330  -26.3610   21.2070 C   0  0  0  0  0  2  0  0  0  0  0  0
  -18.4180  -26.4190   21.7930 C   0  0  0  0  0  2  0  0  0  0  0  0
  -19.2190  -28.5120   23.0360 C   0  0  0  0  0  0  0  0  0  0  0  0
  -18.9200  -29.7360   23.6720 C   0  0  0  0  0  3  0  0  0  0  0  0
  -17.5890  -30.1770   23.8010 C   0  0  0  0  0  3  0  0  0  0  0  0
  -16.5380  -29.3880   23.3020 C   0  0  0  0  0  3  0  0  0  0  0  0
  -16.8210  -28.1650   22.6670 C   0  0  0  0  0  3  0  0  0  0  0  0
  -25.8250  -32.3730   23.9840 C   0  0  0  0  0  3  0  0  0  0  0  0
  -26.2610  -31.6140   25.2970 C   0  0  1  0  0  0  0  0  0  0  0  0
  -25.1050  -31.3970   26.3010 C   0  0  0  0  0  1  0  0  0  0  0  0
  -26.8550  -30.2280   24.9530 C   0  0  0  0  0  1  0  0  0  0  0  0
  -27.3770  -32.4060   26.0170 C   0  0  0  0  0  1  0  0  0  0  0  0
  -25.5150  -33.7790   24.2740 N   0  0  0  0  0  0  0  0  0  0  0  0
  -25.8760  -34.8110   23.4990 C   0  0  0  0  0  0  0  0  0  0  0  0
  -26.5770  -34.6800   22.4910 O   0  0  0  0  0  0  0  0  0  0  0  0
  -24.8980  -33.9560   25.0520 H   0  0  0  0  0  0  0  0  0  0  0  0
  -24.1710  -36.6040   23.0440 C   0  0  0  0  0  1  0  0  0  0  0  0
  -25.3810  -36.2120   23.9080 C   0  0  0  0  0  3  0  0  0  0  0  0
  -27.4770  -37.1190   24.8110 C   0  0  0  0  0  1  0  0  0  0  0  0
  -26.4230  -37.2560   23.8090 N   0  0  0  0  0  0  0  0  0  0  0  0
  -26.0140  -38.1820   23.9050 H   0  0  0  0  0  0  0  0  0  0  0  0
  1  2  1  0
  3  6  1  0
  4  1  2  0
  5  3  2  0
  5  4  1  0
  6 47  1  0
  6  2  2  0
  7  5  1  0
  8  4  1  0
  8  9  2  0
 10  9  1  0
 11 16  1  0
 12 13  1  0
 12 11  1  0
 14 13  1  0
 14 21  1  0
 14 15  1  0
 16 10  1  0
 16 15  1  0
 17 10  2  0
 18 19  2  0
 19 38  1  0
 20 19  1  0
 20 23  1  0
 21 22  1  0
 21 18  1  0
 22 20  2  0
 23 24  1  0
 24 25  2  0
 26 29  1  0
 26 25  1  0
 27 26  2  0
 28 27  1  0
 28 23  2  0
 29 30  1  0
 30 31  1  0
 31 32  2  0
 33 32  1  0
 33 37  1  0
 34 33  2  0
 35 30  2  0
 35 34  1  0
 36 35  1  0
 38 39  1  0
 39 42  1  0
 39 41  1  0
 40 38  2  0
 43 44  1  0
 43 18  1  0
 45 43  1  0
 46 48  1  0
 46 47  2  0
 49 50  1  0
 49 48  1  0
 51 62  2  0
 52 50  1  0
 52 57  1  0
 53 61  1  0
 53 63  1  0
 54 60  1  0
 54 56  1  0
 55 61  1  0
 56 55  1  0
 57 56  2  0
 58 59  1  0
 58 52  2  0
 59 54  2  0
 60 53  1  0
 61 51  1  0
 63 65  2  0
 64 63  1  0
 66 64  1  0
 67 76  2  0
 67 72  1  0
 68 64  1  0
 68 72  1  0
 69 68  1  0
 70 71  1  0
 70 69  1  0
 71 67  1  0
 72 73  2  0
 73 74  1  0
 75 74  2  0
 76 75  1  0
 77 51  1  0
 77 82  1  0
 77 78  1  0
 78 81  1  1
 78 79  1  0
 80 78  1  0
 82 85  1  0
 83 87  1  0
 83 82  1  0
 84 83  2  0
 87 86  1  0
 89 90  1  0
 89 87  1  0
 89 88  1  0
M  ISO  4   9 100  10 100  49 101  50 101
M  END
>  <TORSDO>  (36) 
F 20

>  <SCORE>  (36) 
-13.027

>  <name>  (36) 
35

>  <ligand_id>  (36) 
35

>  <original_smiles>  (36) 
[H]C(=Nc1c([H])c([H])c(C([H])=C([H])C(=O)N2C([H])([H])C([H])([H])C([H])([H])C([H])(n3nc(-c4c([H])c([H])c(Oc5c([H])c([H])c(F)c([H])c5F)c([H])c4[H])c(C(=O)N([H])[H])c3N([H])[H])C2([H])[H])c(C([H])([H])[H])c1[H])C([H])([H])C([H])([H])Oc1c([H])c([H])c2c(c1[H])C([H])([H])N(C(=O)C([H])(N([H])C(=O)C([H])(N([H])C([H])([H])[H])C([H])([H])[H])C(C([H])([H])[H])(C([H])([H])[H])C([H])([H])[H])C([H])(C(=O)N([H])C1([H])c3c([H])c([H])c([H])c([H])c3C([H])([H])C([H])([H])C1([H])[H])C2([H])[H]

>  <smiles>  (36) 
[H]C(=Nc1c([H])c([H])c(C([H])=C([H])C(=O)N2C([H])([H])C([H])([H])C([H])([H])C([H])(n3nc(-c4c([H])c([H])c(Oc5c([H])c([H])c(F)c([H])c5F)c([H])c4[H])c(C(=O)N([H])[H])c3N([H])[H])C2([H])[H])c(C([H])([H])[H])c1[H])C([H])([H])C([H])([H])Oc1c([H])c([H])c2c(c1[H])C([H])([H])N(C(=O)C([H])(N([H])C(=O)C([H])(N([H])C([H])([H])[H])C([H])([H])[H])C(C([H])([H])[H])(C([H])([H])[H])C([H])([H])[H])C([H])(C(=O)N([H])C1([H])c3c([H])c([H])c([H])c([H])c3C([H])([H])C([H])([H])C1([H])[H])C2([H])[H]

$$$$
36:0:0
     RDKit          3D

 91 99  0  0  1  0  0  0  0  0999 V2000
  -28.3060  -20.3660   20.4100 C   0  0  0  0  0  3  0  0  0  0  0  0
  -28.1530  -21.7090   20.2340 C   0  0  0  0  0  3  0  0  0  0  0  0
  -30.7580  -19.8080   20.9290 C   0  0  0  0  0  3  0  0  0  0  0  0
  -29.1950  -18.0190   20.4290 C   0  0  0  0  0  3  0  0  0  0  0  0
  -31.5040  -17.4720   20.9310 C   0  0  0  0  0  3  0  0  0  0  0  0
  -29.4470  -19.4140   20.5930 C   0  0  0  0  0  0  0  0  0  0  0  0
  -31.7760  -18.8460   21.1120 C   0  0  0  0  0  0  0  0  0  0  0  0
  -30.2070  -17.0330   20.5860 C   0  0  0  0  0  0  0  0  0  0  0  0
  -33.1700  -19.2850   21.5100 C   0  0  0  0  0  1  0  0  0  0  0  0
  -30.6460  -14.5640   20.1930 C   0  0  0  0  0  0  0  0  0  0  0  0
  -30.3320  -12.3680   19.1090 C   0  0  0  0  0  2  0  0  0  0  0  0
  -29.3640  -12.5690   17.9250 C   0  0  0  0  0  2  0  0  0  0  0  0
  -27.8970  -12.4380   18.3850 C   0  0  0  0  0  2  0  0  0  0  0  0
  -27.5900  -13.2800   19.6530 C   0  0  0  0  0  3  0  0  0  0  0  0
  -28.6800  -13.0860   20.7340 C   0  0  0  0  0  2  0  0  0  0  0  0
  -29.9800  -13.3770   20.1160 N   0  0  0  0  0  0  0  0  0  0  0  0
  -31.8140  -14.6870   19.8180 O   0  0  0  0  0  0  0  0  0  0  0  0
  -29.8590  -15.6380   20.4480 N   0  0  0  0  0  0  0  0  0  0  0  0
  -28.8750  -15.4230   20.4910 H   0  0  0  0  0  0  0  0  0  0  0  0
  -25.2150  -13.8860   20.4420 C   0  0  0  0  0  0  0  0  0  0  0  0
  -24.1590  -13.1140   20.8420 C   0  0  0  0  0  0  0  0  0  0  0  0
  -24.6200  -11.7620   20.7920 C   0  0  0  0  0  0  0  0  0  0  0  0
  -26.2510  -13.0060   20.1730 N   0  0  0  0  0  0  0  0  0  0  0  0
  -25.9000  -11.7230   20.4480 N   0  0  0  0  0  0  0  0  0  0  0  0
  -23.8970  -10.4990   20.9920 C   0  0  0  0  0  0  0  0  0  0  0  0
  -24.3480   -9.5310   21.9140 C   0  0  0  0  0  3  0  0  0  0  0  0
  -23.6300   -8.3300   22.1050 C   0  0  0  0  0  3  0  0  0  0  0  0
  -22.4420   -8.0920   21.3740 C   0  0  0  0  0  0  0  0  0  0  0  0
  -22.0100   -9.0480   20.4370 C   0  0  0  0  0  3  0  0  0  0  0  0
  -22.7310  -10.2390   20.2460 C   0  0  0  0  0  3  0  0  0  0  0  0
  -21.6910   -6.9460   21.4760 O   0  0  0  0  0  0  0  0  0  0  0  0
  -21.6610   -6.2050   22.6300 C   0  0  0  0  0  0  0  0  0  0  0  0
  -21.2470   -6.7580   23.8630 C   0  0  0  0  0  3  0  0  0  0  0  0
  -21.1670   -5.9410   25.0080 C   0  0  0  0  0  3  0  0  0  0  0  0
  -21.4880   -4.5730   24.9230 C   0  0  0  0  0  0  0  0  0  0  0  0
  -21.8940   -4.0210   23.6960 C   0  0  0  0  0  3  0  0  0  0  0  0
  -21.9780   -4.8340   22.5530 C   0  0  0  0  0  0  0  0  0  0  0  0
  -22.3490   -4.2920   21.3680 F   0  0  0  0  0  0  0  0  0  0  0  0
  -21.4010   -3.7870   26.0210 F   0  0  0  0  0  0  0  0  0  0  0  0
  -22.7660  -13.5880   21.1460 C   0  0  0  0  0  0  0  0  0  0  0  0
  -22.0600  -12.8890   22.0250 N   0  0  0  0  0  0  0  0  0  0  0  0
  -22.3150  -14.6160   20.6380 O   0  0  0  0  0  0  0  0  0  0  0  0
  -22.4380  -12.0600   22.4580 H   0  0  0  0  0  0  0  0  0  0  0  0
  -21.1240  -13.1820   22.2670 H   0  0  0  0  0  0  0  0  0  0  0  0
  -25.3740  -15.2580   20.2590 N   0  0  0  0  0  0  0  0  0  0  0  0
  -24.6100  -15.9090   20.4080 H   0  0  0  0  0  0  0  0  0  0  0  0
  -26.1790  -15.6910   19.8290 H   0  0  0  0  0  0  0  0  0  0  0  0
  -29.1230  -22.8900   20.0760 C   0  0  0  0  0  2  0  0  0  0  0  0
  -28.5470  -24.2760   20.5560 C   0  0  0  0  0  2  0  0  0  0  0  0
  -28.6800  -25.4890   19.5790 C   0  0  0  0  0  2  0  0  0  0  0  0
  -28.4550  -26.7820   20.2010 O   0  0  0  0  0  0  0  0  0  0  0  0
  -24.5710  -31.9370   23.2470 C   0  0  0  0  0  0  0  0  0  0  0  0
  -27.2410  -27.4620   20.1740 C   0  0  0  0  0  0  0  0  0  0  0  0
  -23.3650  -30.5300   21.6040 C   0  0  0  0  0  3  0  0  0  0  0  0
  -24.8250  -28.9720   20.1900 C   0  0  0  0  0  0  0  0  0  0  0  0
  -25.8930  -30.8820   21.4020 C   0  0  0  0  0  2  0  0  0  0  0  0
  -25.9810  -29.5030   20.7720 C   0  0  0  0  0  0  0  0  0  0  0  0
  -27.1830  -28.7540   20.7600 C   0  0  0  0  0  3  0  0  0  0  0  0
  -26.0580  -26.9430   19.6020 C   0  0  0  0  0  3  0  0  0  0  0  0
  -24.8600  -27.6940   19.6030 C   0  0  0  0  0  3  0  0  0  0  0  0
  -23.5760  -29.8290   20.2330 C   0  0  0  0  0  2  0  0  0  0  0  0
  -24.6270  -31.1340   22.1430 N   0  0  0  0  0  0  0  0  0  0  0  0
  -23.4920  -32.2110   23.7890 O   0  0  0  0  0  0  0  0  0  0  0  0
  -22.7030  -29.5220   22.5720 C   0  0  0  0  0  0  0  0  0  0  0  0
  -21.3770  -29.3470   22.4500 N   0  0  0  0  0  0  0  0  0  0  0  0
  -23.3850  -28.8940   23.3870 O   0  0  0  0  0  0  0  0  0  0  0  0
  -20.8900  -29.9030   21.7610 H   0  0  0  0  0  0  0  0  0  0  0  0
  -17.9980  -28.1710   22.9570 C   0  0  0  0  0  0  0  0  0  0  0  0
  -20.5580  -28.4130   23.2230 C   0  0  0  0  0  3  0  0  0  0  0  0
  -20.6510  -26.9790   22.6480 C   0  0  0  0  0  2  0  0  0  0  0  0
  -19.5440  -26.6670   21.6350 C   0  0  0  0  0  2  0  0  0  0  0  0
  -18.1630  -26.8200   22.2810 C   0  0  0  0  0  2  0  0  0  0  0  0
  -19.1220  -28.9260   23.3850 C   0  0  0  0  0  0  0  0  0  0  0  0
  -18.9140  -30.1890   23.9760 C   0  0  0  0  0  3  0  0  0  0  0  0
  -17.6120  -30.6990   24.1450 C   0  0  0  0  0  3  0  0  0  0  0  0
  -16.5020  -29.9430   23.7360 C   0  0  0  0  0  3  0  0  0  0  0  0
  -16.6950  -28.6830   23.1440 C   0  0  0  0  0  3  0  0  0  0  0  0
  -25.8570  -32.5640   23.8670 C   0  0  0  0  0  3  0  0  0  0  0  0
  -26.3700  -31.7970   25.1460 C   0  0  1  0  0  0  0  0  0  0  0  0
  -25.2780  -31.5720   26.2170 C   0  0  0  0  0  1  0  0  0  0  0  0
  -26.9480  -30.4160   24.7580 C   0  0  0  0  0  1  0  0  0  0  0  0
  -27.5220  -32.5930   25.8020 C   0  0  0  0  0  1  0  0  0  0  0  0
  -25.5520  -33.9650   24.1910 N   0  0  0  0  0  0  0  0  0  0  0  0
  -25.9030  -35.0130   23.4350 C   0  0  0  0  0  0  0  0  0  0  0  0
  -26.5800  -34.9000   22.4090 O   0  0  0  0  0  0  0  0  0  0  0  0
  -24.9310  -34.1220   24.9710 H   0  0  0  0  0  0  0  0  0  0  0  0
  -24.1910  -36.8200   23.0570 C   0  0  0  0  0  1  0  0  0  0  0  0
  -25.4220  -36.4070   23.8830 C   0  0  0  0  0  3  0  0  0  0  0  0
  -27.5550  -37.2820   24.7240 C   0  0  0  0  0  1  0  0  0  0  0  0
  -26.4620  -37.4540   23.7730 N   0  0  0  0  0  0  0  0  0  0  0  0
  -26.0600  -38.3770   23.9150 H   0  0  0  0  0  0  0  0  0  0  0  0
  1  6  1  0
  2  1  2  0
  3  7  1  0
  4  8  2  0
  4  6  1  0
  5  7  2  0
  6  3  2  0
  7  9  1  0
  8  5  1  0
 10 18  1  0
 11 16  1  0
 12 13  1  0
 12 11  1  0
 14 13  1  0
 14 23  1  0
 14 15  1  0
 16 10  1  0
 16 15  1  0
 17 10  2  0
 18 19  1  0
 18  8  1  0
 20 21  2  0
 21 40  1  0
 22 21  1  0
 22 25  1  0
 23 20  1  0
 23 24  1  0
 24 22  2  0
 25 26  1  0
 26 27  2  0
 28 31  1  0
 28 27  1  0
 29 28  2  0
 30 29  1  0
 30 25  2  0
 31 32  1  0
 32 33  1  0
 33 34  2  0
 35 34  1  0
 35 39  1  0
 36 35  2  0
 37 32  2  0
 37 36  1  0
 38 37  1  0
 40 41  1  0
 41 44  1  0
 41 43  1  0
 42 40  2  0
 45 46  1  0
 45 20  1  0
 47 45  1  0
 48  2  1  0
 48 49  1  0
 50 51  1  0
 50 49  1  0
 52 63  2  0
 53 51  1  0
 53 58  1  0
 54 62  1  0
 54 64  1  0
 55 61  1  0
 55 57  1  0
 56 62  1  0
 57 56  1  0
 58 57  2  0
 59 60  1  0
 59 53  2  0
 60 55  2  0
 61 54  1  0
 62 52  1  0
 64 66  2  0
 65 64  1  0
 67 65  1  0
 68 77  2  0
 68 73  1  0
 69 65  1  0
 69 73  1  0
 70 69  1  0
 71 72  1  0
 71 70  1  0
 72 68  1  0
 73 74  2  0
 74 75  1  0
 76 75  2  0
 77 76  1  0
 78 52  1  0
 78 83  1  0
 78 79  1  0
 79 82  1  1
 79 80  1  0
 81 79  1  0
 83 86  1  0
 84 88  1  0
 84 83  1  0
 85 84  2  0
 88 87  1  0
 90 88  1  0
 90 91  1  0
 90 89  1  0
M  ISO  4  10 100  18 100  50 101  51 101
M  END
>  <TORSDO>  (37) 
F 20

>  <SCORE>  (37) 
-14.132

>  <name>  (37) 
36

>  <ligand_id>  (37) 
36

>  <original_smiles>  (37) 
[H]C(=C([H])C([H])([H])C([H])([H])C([H])([H])Oc1c([H])c([H])c2c(c1[H])C([H])([H])N(C(=O)C([H])(N([H])C(=O)C([H])(N([H])C([H])([H])[H])C([H])([H])[H])C(C([H])([H])[H])(C([H])([H])[H])C([H])([H])[H])C([H])(C(=O)N([H])C1([H])c3c([H])c([H])c([H])c([H])c3C([H])([H])C([H])([H])C1([H])[H])C2([H])[H])c1c([H])c(N([H])C(=O)N2C([H])([H])C([H])([H])C([H])([H])C([H])(n3nc(-c4c([H])c([H])c(Oc5c([H])c([H])c(F)c([H])c5F)c([H])c4[H])c(C(=O)N([H])[H])c3N([H])[H])C2([H])[H])c([H])c(C([H])([H])[H])c1[H]

>  <smiles>  (37) 
[H]C(=C([H])C([H])([H])C([H])([H])C([H])([H])Oc1c([H])c([H])c2c(c1[H])C([H])([H])N(C(=O)C([H])(N([H])C(=O)C([H])(N([H])C([H])([H])[H])C([H])([H])[H])C(C([H])([H])[H])(C([H])([H])[H])C([H])([H])[H])C([H])(C(=O)N([H])C1([H])c3c([H])c([H])c([H])c([H])c3C([H])([H])C([H])([H])C1([H])[H])C2([H])[H])c1c([H])c(N([H])C(=O)N2C([H])([H])C([H])([H])C([H])([H])C([H])(n3nc(-c4c([H])c([H])c(Oc5c([H])c([H])c(F)c([H])c5F)c([H])c4[H])c(C(=O)N([H])[H])c3N([H])[H])C2([H])[H])c([H])c(C([H])([H])[H])c1[H]

$$$$
37:0:0
     RDKit          3D

 94102  0  0  1  0  0  0  0  0999 V2000
  -30.6740  -18.5310   18.2750 C   0  0  0  0  0  3  0  0  0  0  0  0
  -30.0250  -18.5220   20.9820 C   0  0  0  0  0  3  0  0  0  0  0  0
  -30.6250  -19.7610   18.9600 C   0  0  0  0  0  0  0  0  0  0  0  0
  -30.4180  -17.3040   18.9160 C   0  0  0  0  0  0  0  0  0  0  0  0
  -30.1820  -17.2600   20.3220 C   0  0  0  0  0  0  0  0  0  0  0  0
  -30.1850  -19.7820   20.3080 C   0  0  0  0  0  0  0  0  0  0  0  0
  -30.8100  -14.9100   21.0390 C   0  0  0  0  0  0  0  0  0  0  0  0
  -30.7470  -12.5700   20.2290 C   0  0  0  0  0  2  0  0  0  0  0  0
  -29.9340  -12.4740   18.9170 C   0  0  0  0  0  2  0  0  0  0  0  0
  -28.4300  -12.3410   19.2180 C   0  0  0  0  0  2  0  0  0  0  0  0
  -27.9180  -13.3470   20.2810 C   0  0  0  0  0  3  0  0  0  0  0  0
  -28.8520  -13.3740   21.5130 C   0  0  0  0  0  2  0  0  0  0  0  0
  -30.2080  -13.6820   21.0380 N   0  0  0  0  0  0  0  0  0  0  0  0
  -32.0210  -15.0360   20.8600 O   0  0  0  0  0  0  0  0  0  0  0  0
  -29.9810  -15.9980   21.0300 N   0  0  0  0  0  0  0  0  0  0  0  0
  -29.0430  -15.8220   21.3560 H   0  0  0  0  0  0  0  0  0  0  0  0
  -25.4610  -13.9370   20.7690 C   0  0  0  0  0  0  0  0  0  0  0  0
  -24.3690  -13.1540   21.0400 C   0  0  0  0  0  0  0  0  0  0  0  0
  -24.8470  -11.8090   21.0750 C   0  0  0  0  0  0  0  0  0  0  0  0
  -26.5330  -13.0670   20.6510 N   0  0  0  0  0  0  0  0  0  0  0  0
  -26.1640  -11.7860   20.9010 N   0  0  0  0  0  0  0  0  0  0  0  0
  -24.1240  -10.5380   21.2030 C   0  0  0  0  0  0  0  0  0  0  0  0
  -24.4780   -9.5890   22.1870 C   0  0  0  0  0  3  0  0  0  0  0  0
  -23.7620   -8.3800   22.3070 C   0  0  0  0  0  3  0  0  0  0  0  0
  -22.6740   -8.1120   21.4420 C   0  0  0  0  0  0  0  0  0  0  0  0
  -22.3400   -9.0490   20.4480 C   0  0  0  0  0  3  0  0  0  0  0  0
  -23.0570  -10.2510   20.3250 C   0  0  0  0  0  3  0  0  0  0  0  0
  -21.9310   -6.9580   21.4710 O   0  0  0  0  0  0  0  0  0  0  0  0
  -21.7590   -6.2400   22.6280 C   0  0  0  0  0  0  0  0  0  0  0  0
  -21.1530   -6.8000   23.7730 C   0  0  0  0  0  3  0  0  0  0  0  0
  -20.9350   -6.0040   24.9160 C   0  0  0  0  0  3  0  0  0  0  0  0
  -21.3170   -4.6500   24.9140 C   0  0  0  0  0  0  0  0  0  0  0  0
  -21.9170   -4.0880   23.7720 C   0  0  0  0  0  3  0  0  0  0  0  0
  -22.1360   -4.8820   22.6330 C   0  0  0  0  0  0  0  0  0  0  0  0
  -22.6940   -4.3300   21.5290 F   0  0  0  0  0  0  0  0  0  0  0  0
  -21.1020   -3.8840   26.0070 F   0  0  0  0  0  0  0  0  0  0  0  0
  -22.9450  -13.6170   21.1650 C   0  0  0  0  0  0  0  0  0  0  0  0
  -22.1450  -12.9220   21.9680 N   0  0  0  0  0  0  0  0  0  0  0  0
  -22.5460  -14.6260   20.5870 O   0  0  0  0  0  0  0  0  0  0  0  0
  -22.4740  -12.1090   22.4670 H   0  0  0  0  0  0  0  0  0  0  0  0
  -21.1860  -13.2110   22.0870 H   0  0  0  0  0  0  0  0  0  0  0  0
  -25.6390  -15.3060   20.5900 N   0  0  0  0  0  0  0  0  0  0  0  0
  -24.8760  -15.9740   20.6130 H   0  0  0  0  0  0  0  0  0  0  0  0
  -26.5360  -15.7370   20.4020 H   0  0  0  0  0  0  0  0  0  0  0  0
  -31.6810  -15.5380   17.5470 C   0  0  0  0  0  1  0  0  0  0  0  0
  -30.3230  -16.0890   18.0130 C   0  0  0  0  0  2  0  0  0  0  0  0
  -30.8940  -21.2300   16.9370 C   0  0  0  0  0  2  0  0  0  0  0  0
  -31.0360  -20.9880   18.2520 C   0  0  0  0  0  3  0  0  0  0  0  0
  -29.9760  -20.9910   20.9810 O   0  0  0  0  0  0  0  0  0  0  0  0
  -28.9770  -21.9290   20.4780 C   0  0  0  0  0  2  0  0  0  0  0  0
  -29.4800  -23.3690   20.0560 C   0  0  0  0  0  2  0  0  0  0  0  0
  -29.0990  -24.5840   20.9860 C   0  0  0  0  0  2  0  0  0  0  0  0
  -27.8490  -25.4590   20.6260 C   0  0  0  0  0  2  0  0  0  0  0  0
  -28.1060  -26.7710   20.0460 O   0  0  0  0  0  0  0  0  0  0  0  0
  -24.4970  -32.0120   23.2690 C   0  0  0  0  0  0  0  0  0  0  0  0
  -26.9910  -27.5980   20.0180 C   0  0  0  0  0  0  0  0  0  0  0  0
  -23.2260  -30.6540   21.6410 C   0  0  0  0  0  3  0  0  0  0  0  0
  -24.6200  -29.1520   20.1200 C   0  0  0  0  0  0  0  0  0  0  0  0
  -25.7460  -31.0080   21.3580 C   0  0  0  0  0  2  0  0  0  0  0  0
  -25.8050  -29.6510   20.6750 C   0  0  0  0  0  0  0  0  0  0  0  0
  -26.9980  -28.8850   20.6130 C   0  0  0  0  0  3  0  0  0  0  0  0
  -25.7910  -27.1350   19.4300 C   0  0  0  0  0  3  0  0  0  0  0  0
  -24.6120  -27.8980   19.4880 C   0  0  0  0  0  3  0  0  0  0  0  0
  -23.3820  -30.0130   20.2370 C   0  0  0  0  0  2  0  0  0  0  0  0
  -24.5110  -31.2370   22.1470 N   0  0  0  0  0  0  0  0  0  0  0  0
  -23.4380  -32.2720   23.8570 O   0  0  0  0  0  0  0  0  0  0  0  0
  -22.6090  -29.6090   22.6020 C   0  0  0  0  0  0  0  0  0  0  0  0
  -21.2880  -29.3910   22.4850 N   0  0  0  0  0  0  0  0  0  0  0  0
  -23.3170  -29.0000   23.4080 O   0  0  0  0  0  0  0  0  0  0  0  0
  -20.7770  -29.9440   21.8110 H   0  0  0  0  0  0  0  0  0  0  0  0
  -17.9580  -28.0650   22.9640 C   0  0  0  0  0  0  0  0  0  0  0  0
  -20.5020  -28.4270   23.2560 C   0  0  0  0  0  3  0  0  0  0  0  0
  -20.6660  -26.9970   22.6950 C   0  0  0  0  0  2  0  0  0  0  0  0
  -19.5880  -26.6200   21.6750 C   0  0  0  0  0  2  0  0  0  0  0  0
  -18.1940  -26.7180   22.3040 C   0  0  0  0  0  2  0  0  0  0  0  0
  -19.0420  -28.8730   23.3970 C   0  0  0  0  0  0  0  0  0  0  0  0
  -18.7680  -30.1350   23.9700 C   0  0  0  0  0  3  0  0  0  0  0  0
  -17.4430  -30.5850   24.1200 C   0  0  0  0  0  3  0  0  0  0  0  0
  -16.3740  -29.7730   23.7080 C   0  0  0  0  0  3  0  0  0  0  0  0
  -16.6330  -28.5150   23.1340 C   0  0  0  0  0  3  0  0  0  0  0  0
  -25.8090  -32.6290   23.8550 C   0  0  0  0  0  3  0  0  0  0  0  0
  -25.5320  -34.0320   24.1850 N   0  0  0  0  0  0  0  0  0  0  0  0
  -25.8770  -35.0760   23.4190 C   0  0  0  0  0  0  0  0  0  0  0  0
  -26.5340  -34.9590   22.3830 O   0  0  0  0  0  0  0  0  0  0  0  0
  -24.9490  -34.1980   24.9920 H   0  0  0  0  0  0  0  0  0  0  0  0
  -24.1980  -36.9130   23.0440 C   0  0  0  0  0  1  0  0  0  0  0  0
  -25.4160  -36.4750   23.8740 C   0  0  0  0  0  3  0  0  0  0  0  0
  -27.5600  -37.3020   24.7410 C   0  0  0  0  0  1  0  0  0  0  0  0
  -26.4780  -37.5030   23.7800 N   0  0  0  0  0  0  0  0  0  0  0  0
  -26.0950  -38.4320   23.9260 H   0  0  0  0  0  0  0  0  0  0  0  0
  -26.3470  -31.8530   25.1210 C   0  0  1  0  0  0  0  0  0  0  0  0
  -25.2770  -31.6360   26.2160 C   0  0  0  0  0  1  0  0  0  0  0  0
  -26.8950  -30.4630   24.7200 C   0  0  0  0  0  1  0  0  0  0  0  0
  -27.5250  -32.6320   25.7490 C   0  0  0  0  0  1  0  0  0  0  0  0
  1  4  2  0
  1  3  1  0
  3  6  2  0
  4  5  1  0
  5  2  2  0
  5 15  1  0
  6 49  1  0
  6  2  1  0
  8 13  1  0
  9 10  1  0
  9  8  1  0
 11 10  1  0
 11 20  1  0
 11 12  1  0
 13  7  1  0
 13 12  1  0
 14  7  2  0
 15  7  1  0
 15 16  1  0
 17 18  2  0
 18 19  1  0
 18 37  1  0
 19 22  1  0
 20 17  1  0
 20 21  1  0
 21 19  2  0
 22 23  1  0
 23 24  2  0
 25 28  1  0
 25 24  1  0
 26 25  2  0
 27 26  1  0
 27 22  2  0
 28 29  1  0
 29 34  2  0
 29 30  1  0
 30 31  2  0
 32 31  1  0
 32 36  1  0
 33 32  2  0
 34 33  1  0
 35 34  1  0
 37 38  1  0
 38 41  1  0
 38 40  1  0
 39 37  2  0
 42 43  1  0
 42 17  1  0
 44 42  1  0
 45 46  1  0
 46  4  1  0
 47 48  2  0
 48  3  1  0
 50 49  1  0
 51 50  1  0
 51 52  1  0
 53 52  1  0
 54 53  1  0
 55 66  2  0
 56 54  1  0
 56 61  1  0
 57 65  1  0
 57 67  1  0
 58 64  1  0
 58 60  1  0
 59 65  1  0
 60 59  1  0
 61 60  2  0
 62 63  1  0
 62 56  2  0
 63 58  2  0
 64 57  1  0
 65 55  1  0
 67 69  2  0
 68 67  1  0
 70 68  1  0
 71 80  2  0
 71 76  1  0
 72 68  1  0
 72 76  1  0
 73 72  1  0
 74 75  1  0
 74 73  1  0
 75 71  1  0
 76 77  2  0
 77 78  1  0
 79 78  2  0
 80 79  1  0
 81 55  1  0
 81 82  1  0
 81 91  1  0
 82 85  1  0
 83 87  1  0
 83 82  1  0
 84 83  2  0
 87 86  1  0
 89 87  1  0
 89 90  1  0
 89 88  1  0
 91 94  1  1
 91 92  1  0
 93 91  1  0
M  ISO  4   7 100  15 100  53 101  54 101
M  END
>  <TORSDO>  (38) 
F 23

>  <SCORE>  (38) 
-11.777

>  <name>  (38) 
37

>  <ligand_id>  (38) 
37

>  <original_smiles>  (38) 
[H]C([H])=C([H])c1c([H])c(C([H])([H])C([H])([H])[H])c(N([H])C(=O)N2C([H])([H])C([H])([H])C([H])([H])C([H])(n3nc(-c4c([H])c([H])c(Oc5c([H])c([H])c(F)c([H])c5F)c([H])c4[H])c(C(=O)N([H])[H])c3N([H])[H])C2([H])[H])c([H])c1OC([H])([H])C([H])([H])C([H])([H])C([H])([H])Oc1c([H])c([H])c2c(c1[H])C([H])([H])N(C(=O)C([H])(N([H])C(=O)C([H])(N([H])C([H])([H])[H])C([H])([H])[H])C(C([H])([H])[H])(C([H])([H])[H])C([H])([H])[H])C([H])(C(=O)N([H])C1([H])c3c([H])c([H])c([H])c([H])c3C([H])([H])C([H])([H])C1([H])[H])C2([H])[H]

>  <smiles>  (38) 
[H]C([H])=C([H])c1c([H])c(C([H])([H])C([H])([H])[H])c(N([H])C(=O)N2C([H])([H])C([H])([H])C([H])([H])C([H])(n3nc(-c4c([H])c([H])c(Oc5c([H])c([H])c(F)c([H])c5F)c([H])c4[H])c(C(=O)N([H])[H])c3N([H])[H])C2([H])[H])c([H])c1OC([H])([H])C([H])([H])C([H])([H])C([H])([H])Oc1c([H])c([H])c2c(c1[H])C([H])([H])N(C(=O)C([H])(N([H])C(=O)C([H])(N([H])C([H])([H])[H])C([H])([H])[H])C(C([H])([H])[H])(C([H])([H])[H])C([H])([H])[H])C([H])(C(=O)N([H])C1([H])c3c([H])c([H])c([H])c([H])c3C([H])([H])C([H])([H])C1([H])[H])C2([H])[H]

$$$$
38:0:0
     RDKit          3D

 92100  0  0  1  0  0  0  0  0999 V2000
  -29.3190  -19.0410   19.8940 C   0  0  0  0  0  3  0  0  0  0  0  0
  -30.9050  -17.6290   21.7300 C   0  0  0  0  0  3  0  0  0  0  0  0
  -29.2980  -17.6260   19.9050 C   0  0  0  0  0  0  0  0  0  0  0  0
  -30.0760  -16.9040   20.8460 C   0  0  0  0  0  0  0  0  0  0  0  0
  -30.1270  -19.7750   20.7980 C   0  0  0  0  0  0  0  0  0  0  0  0
  -30.9380  -19.0420   21.6980 C   0  0  0  0  0  0  0  0  0  0  0  0
  -28.4210  -16.9140   18.8900 C   0  0  0  0  0  1  0  0  0  0  0  0
  -31.7360  -19.7060   22.5690 F   0  0  0  0  0  0  0  0  0  0  0  0
  -30.6690  -14.5020   20.4940 C   0  0  0  0  0  0  0  0  0  0  0  0
  -30.4020  -12.3380   19.3390 C   0  0  0  0  0  2  0  0  0  0  0  0
  -29.4540  -12.5430   18.1380 C   0  0  0  0  0  2  0  0  0  0  0  0
  -27.9790  -12.4020   18.5650 C   0  0  0  0  0  2  0  0  0  0  0  0
  -27.6410  -13.2310   19.8340 C   0  0  0  0  0  3  0  0  0  0  0  0
  -28.6960  -12.9930   20.9380 C   0  0  0  0  0  2  0  0  0  0  0  0
  -30.0220  -13.3090   20.3740 N   0  0  0  0  0  0  0  0  0  0  0  0
  -31.8020  -14.7040   20.0460 O   0  0  0  0  0  0  0  0  0  0  0  0
  -29.9100  -15.4930   21.0060 N   0  0  0  0  0  0  0  0  0  0  0  0
  -28.9930  -15.1900   21.2950 H   0  0  0  0  0  0  0  0  0  0  0  0
  -25.2400  -13.8540   20.5260 C   0  0  0  0  0  0  0  0  0  0  0  0
  -24.1670  -13.0890   20.8920 C   0  0  0  0  0  0  0  0  0  0  0  0
  -24.6260  -11.7360   20.8720 C   0  0  0  0  0  0  0  0  0  0  0  0
  -26.2850  -12.9680   20.3060 N   0  0  0  0  0  0  0  0  0  0  0  0
  -25.9160  -11.6890   20.5700 N   0  0  0  0  0  0  0  0  0  0  0  0
  -23.8950  -10.4780   21.0670 C   0  0  0  0  0  0  0  0  0  0  0  0
  -24.3290   -9.5090   21.9970 C   0  0  0  0  0  3  0  0  0  0  0  0
  -23.6010   -8.3150   22.1790 C   0  0  0  0  0  3  0  0  0  0  0  0
  -22.4230   -8.0810   21.4290 C   0  0  0  0  0  0  0  0  0  0  0  0
  -22.0080   -9.0380   20.4880 C   0  0  0  0  0  3  0  0  0  0  0  0
  -22.7380  -10.2250   20.3030 C   0  0  0  0  0  3  0  0  0  0  0  0
  -21.6660   -6.9390   21.5210 O   0  0  0  0  0  0  0  0  0  0  0  0
  -21.6290   -6.1910   22.6700 C   0  0  0  0  0  0  0  0  0  0  0  0
  -21.2240   -6.7410   23.9050 C   0  0  0  0  0  3  0  0  0  0  0  0
  -21.1330   -5.9200   25.0470 C   0  0  0  0  0  3  0  0  0  0  0  0
  -21.4370   -4.5480   24.9540 C   0  0  0  0  0  0  0  0  0  0  0  0
  -21.8340   -3.9970   23.7230 C   0  0  0  0  0  3  0  0  0  0  0  0
  -21.9270   -4.8160   22.5840 C   0  0  0  0  0  0  0  0  0  0  0  0
  -22.2910   -4.2760   21.3960 F   0  0  0  0  0  0  0  0  0  0  0  0
  -21.3420   -3.7570   26.0470 F   0  0  0  0  0  0  0  0  0  0  0  0
  -22.7700  -13.5720   21.1560 C   0  0  0  0  0  0  0  0  0  0  0  0
  -22.0360  -12.8830   22.0220 N   0  0  0  0  0  0  0  0  0  0  0  0
  -22.3390  -14.5980   20.6300 O   0  0  0  0  0  0  0  0  0  0  0  0
  -22.3970  -12.0530   22.4690 H   0  0  0  0  0  0  0  0  0  0  0  0
  -21.0980  -13.1890   22.2410 H   0  0  0  0  0  0  0  0  0  0  0  0
  -25.4060  -15.2230   20.3460 N   0  0  0  0  0  0  0  0  0  0  0  0
  -24.6370  -15.8770   20.4550 H   0  0  0  0  0  0  0  0  0  0  0  0
  -26.2610  -15.6670   20.0440 H   0  0  0  0  0  0  0  0  0  0  0  0
  -30.1720  -21.1630   20.8500 O   0  0  0  0  0  0  0  0  0  0  0  0
  -29.1840  -21.9230   20.1410 C   0  0  0  0  0  2  0  0  0  0  0  0
  -29.4090  -23.4510   20.2950 C   0  0  0  0  0  2  0  0  0  0  0  0
  -28.3350  -24.3040   19.5650 C   0  0  0  0  0  2  0  0  0  0  0  0
  -28.7400  -25.7590   19.2050 C   0  0  0  0  0  2  0  0  0  0  0  0
  -28.4820  -26.7540   20.2080 O   0  0  0  0  0  0  0  0  0  0  0  0
  -24.6200  -31.9200   23.2340 C   0  0  0  0  0  0  0  0  0  0  0  0
  -27.2900  -27.4560   20.1820 C   0  0  0  0  0  0  0  0  0  0  0  0
  -23.4230  -30.5090   21.5920 C   0  0  0  0  0  3  0  0  0  0  0  0
  -24.8850  -28.9610   20.1840 C   0  0  0  0  0  0  0  0  0  0  0  0
  -25.9500  -30.8620   21.4100 C   0  0  0  0  0  2  0  0  0  0  0  0
  -26.0380  -29.4850   20.7810 C   0  0  0  0  0  0  0  0  0  0  0  0
  -27.2360  -28.7350   20.7870 C   0  0  0  0  0  3  0  0  0  0  0  0
  -26.1120  -26.9440   19.5900 C   0  0  0  0  0  3  0  0  0  0  0  0
  -24.9160  -27.6870   19.5910 C   0  0  0  0  0  3  0  0  0  0  0  0
  -23.6400  -29.8200   20.2180 C   0  0  0  0  0  2  0  0  0  0  0  0
  -24.6820  -31.1130   22.1360 N   0  0  0  0  0  0  0  0  0  0  0  0
  -23.5360  -32.1960   23.7660 O   0  0  0  0  0  0  0  0  0  0  0  0
  -22.7660  -29.4940   22.5550 C   0  0  0  0  0  0  0  0  0  0  0  0
  -21.4400  -29.3190   22.4270 N   0  0  0  0  0  0  0  0  0  0  0  0
  -23.4450  -28.8660   23.3710 O   0  0  0  0  0  0  0  0  0  0  0  0
  -20.9540  -29.8780   21.7410 H   0  0  0  0  0  0  0  0  0  0  0  0
  -18.0570  -28.1610   22.9390 C   0  0  0  0  0  0  0  0  0  0  0  0
  -20.6180  -28.3890   23.2000 C   0  0  0  0  0  3  0  0  0  0  0  0
  -20.7020  -26.9580   22.6170 C   0  0  0  0  0  2  0  0  0  0  0  0
  -19.5910  -26.6520   21.6070 C   0  0  0  0  0  2  0  0  0  0  0  0
  -18.2150  -26.8110   22.2580 C   0  0  0  0  0  2  0  0  0  0  0  0
  -19.1860  -28.9080   23.3670 C   0  0  0  0  0  0  0  0  0  0  0  0
  -18.9850  -30.1720   23.9630 C   0  0  0  0  0  3  0  0  0  0  0  0
  -17.6870  -30.6880   24.1350 C   0  0  0  0  0  3  0  0  0  0  0  0
  -16.5730  -29.9380   23.7250 C   0  0  0  0  0  3  0  0  0  0  0  0
  -16.7580  -28.6750   23.1330 C   0  0  0  0  0  3  0  0  0  0  0  0
  -25.9030  -32.5550   23.8560 C   0  0  0  0  0  3  0  0  0  0  0  0
  -25.5910  -33.9520   24.1840 N   0  0  0  0  0  0  0  0  0  0  0  0
  -25.9230  -35.0040   23.4240 C   0  0  0  0  0  0  0  0  0  0  0  0
  -26.5950  -34.9000   22.3940 O   0  0  0  0  0  0  0  0  0  0  0  0
  -24.9950  -34.1060   24.9840 H   0  0  0  0  0  0  0  0  0  0  0  0
  -24.1910  -36.7900   23.0620 C   0  0  0  0  0  1  0  0  0  0  0  0
  -25.4310  -36.3910   23.8780 C   0  0  0  0  0  3  0  0  0  0  0  0
  -27.5600  -37.2820   24.7120 C   0  0  0  0  0  1  0  0  0  0  0  0
  -26.4600  -37.4470   23.7660 N   0  0  0  0  0  0  0  0  0  0  0  0
  -26.0510  -38.3650   23.9120 H   0  0  0  0  0  0  0  0  0  0  0  0
  -26.4210  -31.7840   25.1330 C   0  0  1  0  0  0  0  0  0  0  0  0
  -25.3280  -31.5440   26.2000 C   0  0  0  0  0  1  0  0  0  0  0  0
  -27.0070  -30.4080   24.7390 C   0  0  0  0  0  1  0  0  0  0  0  0
  -27.5700  -32.5800   25.7960 C   0  0  0  0  0  1  0  0  0  0  0  0
  1  3  2  0
  1  5  1  0
  3  4  1  0
  4 17  1  0
  4  2  2  0
  5 47  1  0
  5  6  2  0
  6  2  1  0
  6  8  1  0
  7  3  1  0
  9 17  1  0
 10 15  1  0
 11 12  1  0
 11 10  1  0
 13 12  1  0
 13 22  1  0
 13 14  1  0
 15  9  1  0
 15 14  1  0
 16  9  2  0
 17 18  1  0
 19 20  2  0
 20 39  1  0
 21 20  1  0
 21 24  1  0
 22 19  1  0
 22 23  1  0
 23 21  2  0
 24 25  1  0
 25 26  2  0
 27 30  1  0
 27 26  1  0
 28 27  2  0
 29 28  1  0
 29 24  2  0
 30 31  1  0
 31 32  1  0
 32 33  2  0
 34 33  1  0
 34 38  1  0
 35 34  2  0
 36 31  2  0
 36 35  1  0
 37 36  1  0
 39 40  1  0
 40 43  1  0
 40 42  1  0
 41 39  2  0
 44 45  1  0
 44 19  1  0
 46 44  1  0
 48 49  1  0
 48 47  1  0
 50 49  1  0
 51 50  1  0
 51 52  1  0
 53 64  2  0
 54 52  1  0
 54 59  1  0
 55 63  1  0
 55 65  1  0
 56 62  1  0
 56 58  1  0
 57 63  1  0
 58 59  2  0
 58 57  1  0
 60 61  1  0
 60 54  2  0
 61 56  2  0
 62 55  1  0
 63 53  1  0
 65 67  2  0
 66 65  1  0
 68 66  1  0
 69 78  2  0
 69 74  1  0
 70 66  1  0
 70 74  1  0
 71 70  1  0
 72 73  1  0
 72 71  1  0
 73 69  1  0
 74 75  2  0
 75 76  1  0
 77 76  2  0
 78 77  1  0
 79 53  1  0
 79 80  1  0
 79 89  1  0
 80 83  1  0
 81 85  1  0
 81 80  1  0
 82 81  2  0
 85 84  1  0
 87 85  1  0
 87 88  1  0
 87 86  1  0
 89 92  1  1
 89 90  1  0
 91 89  1  0
M  ISO  4   9 100  17 100  51 101  52 101
M  END
>  <TORSDO>  (39) 
F 21

>  <SCORE>  (39) 
-13.929

>  <name>  (39) 
38

>  <ligand_id>  (39) 
38

>  <original_smiles>  (39) 
[H]c1c([H])c([H])c2c(c1[H])C([H])([H])C([H])([H])C([H])([H])C2([H])N([H])C(=O)C1([H])N(C(=O)C([H])(N([H])C(=O)C([H])(N([H])C([H])([H])[H])C([H])([H])[H])C(C([H])([H])[H])(C([H])([H])[H])C([H])([H])[H])C([H])([H])c2c([H])c(OC([H])([H])C([H])([H])C([H])([H])C([H])([H])Oc3c([H])c(C([H])([H])[H])c(N([H])C(=O)N4C([H])([H])C([H])([H])C([H])([H])C([H])(n5nc(-c6c([H])c([H])c(Oc7c([H])c([H])c(F)c([H])c7F)c([H])c6[H])c(C(=O)N([H])[H])c5N([H])[H])C4([H])[H])c([H])c3F)c([H])c([H])c2C1([H])[H]

>  <smiles>  (39) 
[H]c1c([H])c([H])c2c(c1[H])C([H])([H])C([H])([H])C([H])([H])C2([H])N([H])C(=O)C1([H])N(C(=O)C([H])(N([H])C(=O)C([H])(N([H])C([H])([H])[H])C([H])([H])[H])C(C([H])([H])[H])(C([H])([H])[H])C([H])([H])[H])C([H])([H])c2c([H])c(OC([H])([H])C([H])([H])C([H])([H])C([H])([H])Oc3c([H])c(C([H])([H])[H])c(N([H])C(=O)N4C([H])([H])C([H])([H])C([H])([H])C([H])(n5nc(-c6c([H])c([H])c(Oc7c([H])c([H])c(F)c([H])c7F)c([H])c6[H])c(C(=O)N([H])[H])c5N([H])[H])C4([H])[H])c([H])c3F)c([H])c([H])c2C1([H])[H]

$$$$
39:0:0
     RDKit          3D

 94102  0  0  1  0  0  0  0  0999 V2000
  -29.8430  -18.1420   20.8080 C   0  0  0  0  0  3  0  0  0  0  0  0
  -32.0570  -17.1560   20.8100 C   0  0  0  0  0  3  0  0  0  0  0  0
  -30.4090  -19.4500   20.7810 C   0  0  0  0  0  0  0  0  0  0  0  0
  -32.6490  -18.4320   20.7840 C   0  0  0  0  0  0  0  0  0  0  0  0
  -31.8310  -19.5960   20.7580 C   0  0  0  0  0  0  0  0  0  0  0  0
  -30.6560  -16.9770   20.7850 C   0  0  0  0  0  0  0  0  0  0  0  0
  -30.6520  -14.5580   20.2010 C   0  0  0  0  0  0  0  0  0  0  0  0
  -30.2420  -12.3450   19.1940 C   0  0  0  0  0  2  0  0  0  0  0  0
  -29.2670  -12.4910   18.0090 C   0  0  0  0  0  2  0  0  0  0  0  0
  -27.8120  -12.3820   18.4990 C   0  0  0  0  0  2  0  0  0  0  0  0
  -27.5250  -13.2850   19.7280 C   0  0  0  0  0  3  0  0  0  0  0  0
  -28.6240  -13.1510   20.8090 C   0  0  0  0  0  2  0  0  0  0  0  0
  -29.9220  -13.4060   20.1660 N   0  0  0  0  0  0  0  0  0  0  0  0
  -31.7450  -14.6360   19.6380 O   0  0  0  0  0  0  0  0  0  0  0  0
  -30.0780  -15.6560   20.7520 N   0  0  0  0  0  0  0  0  0  0  0  0
  -29.1250  -15.5560   21.0640 H   0  0  0  0  0  0  0  0  0  0  0  0
  -25.1830  -13.9300   20.5690 C   0  0  0  0  0  0  0  0  0  0  0  0
  -24.1130  -13.1730   20.9630 C   0  0  0  0  0  0  0  0  0  0  0  0
  -24.5370  -11.8130   20.8720 C   0  0  0  0  0  0  0  0  0  0  0  0
  -26.1920  -13.0310   20.2660 N   0  0  0  0  0  0  0  0  0  0  0  0
  -25.8100  -11.7510   20.5060 N   0  0  0  0  0  0  0  0  0  0  0  0
  -23.7850  -10.5640   21.0610 C   0  0  0  0  0  0  0  0  0  0  0  0
  -24.2240   -9.5660   21.9580 C   0  0  0  0  0  3  0  0  0  0  0  0
  -23.4740   -8.3840   22.1380 C   0  0  0  0  0  3  0  0  0  0  0  0
  -22.2700   -8.1910   21.4170 C   0  0  0  0  0  0  0  0  0  0  0  0
  -21.8500   -9.1790   20.5090 C   0  0  0  0  0  3  0  0  0  0  0  0
  -22.6000  -10.3530   20.3290 C   0  0  0  0  0  3  0  0  0  0  0  0
  -21.4900   -7.0650   21.5070 O   0  0  0  0  0  0  0  0  0  0  0  0
  -21.4460   -6.3070   22.6500 C   0  0  0  0  0  0  0  0  0  0  0  0
  -21.0580   -6.8540   23.8910 C   0  0  0  0  0  3  0  0  0  0  0  0
  -20.9610   -6.0250   25.0270 C   0  0  0  0  0  3  0  0  0  0  0  0
  -21.2430   -4.6500   24.9200 C   0  0  0  0  0  0  0  0  0  0  0  0
  -21.6250   -4.1020   23.6840 C   0  0  0  0  0  3  0  0  0  0  0  0
  -21.7240   -4.9290   22.5500 C   0  0  0  0  0  0  0  0  0  0  0  0
  -22.0720   -4.3940   21.3560 F   0  0  0  0  0  0  0  0  0  0  0  0
  -21.1420   -3.8510   26.0080 F   0  0  0  0  0  0  0  0  0  0  0  0
  -22.7440  -13.6790   21.3130 C   0  0  0  0  0  0  0  0  0  0  0  0
  -22.0440  -12.9780   22.1980 N   0  0  0  0  0  0  0  0  0  0  0  0
  -22.3070  -14.7260   20.8410 O   0  0  0  0  0  0  0  0  0  0  0  0
  -22.4190  -12.1310   22.6000 H   0  0  0  0  0  0  0  0  0  0  0  0
  -21.1280  -13.2960   22.4800 H   0  0  0  0  0  0  0  0  0  0  0  0
  -25.3700  -15.3000   20.4220 N   0  0  0  0  0  0  0  0  0  0  0  0
  -24.6180  -15.9620   20.5880 H   0  0  0  0  0  0  0  0  0  0  0  0
  -26.2050  -15.7350   20.0490 H   0  0  0  0  0  0  0  0  0  0  0  0
  -29.4760  -20.6120   20.8300 C   0  0  0  0  0  3  0  0  0  0  0  0
  -29.3990  -21.6710   19.9870 C   0  0  0  0  0  3  0  0  0  0  0  0
  -28.4120  -22.8290   20.1290 C   0  0  0  0  0  2  0  0  0  0  0  0
  -28.9870  -24.2790   20.1190 C   0  0  0  0  0  2  0  0  0  0  0  0
  -27.8210  -25.2920   19.9670 C   0  0  0  0  0  2  0  0  0  0  0  0
  -28.0670  -26.7110   20.1190 O   0  0  0  0  0  0  0  0  0  0  0  0
  -24.4710  -32.0450   23.2940 C   0  0  0  0  0  0  0  0  0  0  0  0
  -26.9230  -27.5090   20.1330 C   0  0  0  0  0  0  0  0  0  0  0  0
  -23.1910  -30.6580   21.7080 C   0  0  0  0  0  3  0  0  0  0  0  0
  -24.5640  -29.0970   20.2380 C   0  0  0  0  0  0  0  0  0  0  0  0
  -25.7230  -30.9590   21.4270 C   0  0  0  0  0  2  0  0  0  0  0  0
  -25.7600  -29.5870   20.7780 C   0  0  0  0  0  0  0  0  0  0  0  0
  -26.9440  -28.8030   20.7190 C   0  0  0  0  0  3  0  0  0  0  0  0
  -25.6920  -27.0530   19.5900 C   0  0  0  0  0  3  0  0  0  0  0  0
  -24.5270  -27.8310   19.6450 C   0  0  0  0  0  3  0  0  0  0  0  0
  -23.3400  -29.9780   20.3250 C   0  0  0  0  0  2  0  0  0  0  0  0
  -24.4830  -31.2350   22.1980 N   0  0  0  0  0  0  0  0  0  0  0  0
  -23.4110  -32.3380   23.8660 O   0  0  0  0  0  0  0  0  0  0  0  0
  -22.5560  -29.6470   22.6890 C   0  0  0  0  0  0  0  0  0  0  0  0
  -21.2350  -29.4360   22.5650 N   0  0  0  0  0  0  0  0  0  0  0  0
  -23.2490  -29.0520   23.5200 O   0  0  0  0  0  0  0  0  0  0  0  0
  -20.7370  -29.9640   21.8640 H   0  0  0  0  0  0  0  0  0  0  0  0
  -17.8930  -28.1510   23.0470 C   0  0  0  0  0  0  0  0  0  0  0  0
  -20.4340  -28.5050   23.3570 C   0  0  0  0  0  3  0  0  0  0  0  0
  -20.5950  -27.0550   22.8450 C   0  0  0  0  0  2  0  0  0  0  0  0
  -19.5270  -26.6530   21.8230 C   0  0  0  0  0  2  0  0  0  0  0  0
  -18.1270  -26.7820   22.4320 C   0  0  0  0  0  2  0  0  0  0  0  0
  -18.9760  -28.9680   23.4660 C   0  0  0  0  0  0  0  0  0  0  0  0
  -18.7040  -30.2480   23.9940 C   0  0  0  0  0  3  0  0  0  0  0  0
  -17.3810  -30.7140   24.1100 C   0  0  0  0  0  3  0  0  0  0  0  0
  -16.3110  -29.8940   23.7120 C   0  0  0  0  0  3  0  0  0  0  0  0
  -16.5670  -28.6150   23.1850 C   0  0  0  0  0  3  0  0  0  0  0  0
  -25.7850  -32.6610   23.8670 C   0  0  0  0  0  3  0  0  0  0  0  0
  -25.5070  -34.0650   24.1950 N   0  0  0  0  0  0  0  0  0  0  0  0
  -25.8430  -35.1080   23.4230 C   0  0  0  0  0  0  0  0  0  0  0  0
  -26.4890  -34.9850   22.3790 O   0  0  0  0  0  0  0  0  0  0  0  0
  -24.9260  -34.2330   25.0050 H   0  0  0  0  0  0  0  0  0  0  0  0
  -24.1380  -36.9250   23.1010 C   0  0  0  0  0  1  0  0  0  0  0  0
  -25.3920  -36.5070   23.8840 C   0  0  0  0  0  3  0  0  0  0  0  0
  -27.5640  -37.3550   24.6570 C   0  0  0  0  0  1  0  0  0  0  0  0
  -26.4420  -37.5400   23.7380 N   0  0  0  0  0  0  0  0  0  0  0  0
  -26.0590  -38.4710   23.8860 H   0  0  0  0  0  0  0  0  0  0  0  0
  -26.3310  -31.8900   25.1300 C   0  0  1  0  0  0  0  0  0  0  0  0
  -25.2620  -31.6590   26.2250 C   0  0  0  0  0  1  0  0  0  0  0  0
  -26.8930  -30.5070   24.7260 C   0  0  0  0  0  1  0  0  0  0  0  0
  -27.5080  -32.6760   25.7520 C   0  0  0  0  0  1  0  0  0  0  0  0
  -34.7530  -18.5280   19.3580 C   0  0  0  0  0  1  0  0  0  0  0  0
  -34.1760  -18.4790   20.7800 C   0  0  0  0  0  2  0  0  0  0  0  0
  -32.5190  -21.6230   22.1620 C   0  0  0  0  0  1  0  0  0  0  0  0
  -32.4860  -20.9810   20.7670 C   0  0  0  0  0  2  0  0  0  0  0  0
  3  1  2  0
  3 45  1  0
  4  2  1  0
  5 94  1  0
  5  3  1  0
  5  4  2  0
  6  1  1  0
  6  2  2  0
  7 15  1  0
  8 13  1  0
  9 10  1  0
  9  8  1  0
 11 10  1  0
 11 20  1  0
 11 12  1  0
 13  7  1  0
 13 12  1  0
 14  7  2  0
 15  6  1  0
 15 16  1  0
 17 18  2  0
 18 37  1  0
 19 18  1  0
 19 22  1  0
 20 21  1  0
 20 17  1  0
 21 19  2  0
 22 23  1  0
 23 24  2  0
 25 28  1  0
 25 24  1  0
 26 25  2  0
 27 26  1  0
 27 22  2  0
 28 29  1  0
 29 30  1  0
 30 31  2  0
 32 31  1  0
 32 36  1  0
 33 32  2  0
 34 29  2  0
 34 33  1  0
 35 34  1  0
 37 38  1  0
 38 41  1  0
 38 40  1  0
 39 37  2  0
 42 17  1  0
 42 43  1  0
 44 42  1  0
 46 47  1  0
 46 45  2  0
 48 47  1  0
 49 48  1  0
 49 50  1  0
 50 52  1  0
 51 62  2  0
 52 57  1  0
 53 61  1  0
 53 63  1  0
 54 60  1  0
 54 56  1  0
 55 61  1  0
 56 55  1  0
 57 56  2  0
 58 59  1  0
 58 52  2  0
 59 54  2  0
 60 53  1  0
 61 51  1  0
 63 65  2  0
 64 63  1  0
 66 64  1  0
 67 76  2  0
 67 72  1  0
 68 64  1  0
 68 72  1  0
 69 68  1  0
 70 71  1  0
 70 69  1  0
 71 67  1  0
 72 73  2  0
 73 74  1  0
 75 74  2  0
 76 75  1  0
 77 51  1  0
 77 78  1  0
 77 87  1  0
 78 81  1  0
 79 83  1  0
 79 78  1  0
 80 79  2  0
 83 82  1  0
 85 83  1  0
 85 86  1  0
 85 84  1  0
 87 90  1  1
 87 88  1  0
 89 87  1  0
 91 92  1  0
 92  4  1  0
 94 93  1  0
M  ISO  4   7 100  15 100  49 101  50 101
M  END
>  <TORSDO>  (40) 
F 22

>  <SCORE>  (40) 
-12.374

>  <name>  (40) 
39

>  <ligand_id>  (40) 
39

>  <original_smiles>  (40) 
[H]C(=C([H])C([H])([H])C([H])([H])C([H])([H])Oc1c([H])c([H])c2c(c1[H])C([H])([H])N(C(=O)C([H])(N([H])C(=O)C([H])(N([H])C([H])([H])[H])C([H])([H])[H])C(C([H])([H])[H])(C([H])([H])[H])C([H])([H])[H])C([H])(C(=O)N([H])C1([H])c3c([H])c([H])c([H])c([H])c3C([H])([H])C([H])([H])C1([H])[H])C2([H])[H])c1c([H])c(N([H])C(=O)N2C([H])([H])C([H])([H])C([H])([H])C([H])(n3nc(-c4c([H])c([H])c(Oc5c([H])c([H])c(F)c([H])c5F)c([H])c4[H])c(C(=O)N([H])[H])c3N([H])[H])C2([H])[H])c([H])c(C([H])([H])C([H])([H])[H])c1C([H])([H])C([H])([H])[H]

>  <smiles>  (40) 
[H]C(=C([H])C([H])([H])C([H])([H])C([H])([H])Oc1c([H])c([H])c2c(c1[H])C([H])([H])N(C(=O)C([H])(N([H])C(=O)C([H])(N([H])C([H])([H])[H])C([H])([H])[H])C(C([H])([H])[H])(C([H])([H])[H])C([H])([H])[H])C([H])(C(=O)N([H])C1([H])c3c([H])c([H])c([H])c([H])c3C([H])([H])C([H])([H])C1([H])[H])C2([H])[H])c1c([H])c(N([H])C(=O)N2C([H])([H])C([H])([H])C([H])([H])C([H])(n3nc(-c4c([H])c([H])c(Oc5c([H])c([H])c(F)c([H])c5F)c([H])c4[H])c(C(=O)N([H])[H])c3N([H])[H])C2([H])[H])c([H])c(C([H])([H])C([H])([H])[H])c1C([H])([H])C([H])([H])[H]

$$$$
40:0:0
     RDKit          3D

 93101  0  0  1  0  0  0  0  0999 V2000
  -28.3220  -19.8450   20.3790 C   0  0  0  0  0  3  0  0  0  0  0  0
  -28.5010  -18.4290   20.1900 C   0  0  0  0  0  0  0  0  0  0  0  0
  -29.4690  -20.3430   20.9370 C   0  0  0  0  0  0  0  0  0  0  0  0
  -29.7590  -18.1130   20.6320 C   0  0  0  0  0  0  0  0  0  0  0  0
  -30.3390  -19.2790   21.0920 O   0  0  0  0  0  0  0  0  0  0  0  0
  -29.9770  -21.6440   21.3650 C   0  0  0  0  0  3  0  0  0  0  0  0
  -29.6620  -22.9750   21.3020 C   0  0  0  0  0  3  0  0  0  0  0  0
  -28.5010  -23.7690   20.6680 C   0  0  0  0  0  2  0  0  0  0  0  0
  -28.1410  -25.1300   21.3840 C   0  0  0  0  0  2  0  0  0  0  0  0
  -28.3620  -26.4010   20.6900 O   0  0  0  0  0  0  0  0  0  0  0  0
  -24.6390  -31.9590   23.3000 C   0  0  0  0  0  0  0  0  0  0  0  0
  -27.2540  -27.2340   20.5880 C   0  0  0  0  0  0  0  0  0  0  0  0
  -23.4480  -30.4860   21.7100 C   0  0  0  0  0  3  0  0  0  0  0  0
  -24.9090  -28.8310   20.4200 C   0  0  0  0  0  0  0  0  0  0  0  0
  -25.9910  -30.7660   21.5670 C   0  0  0  0  0  2  0  0  0  0  0  0
  -26.0660  -29.3540   21.0110 C   0  0  0  0  0  0  0  0  0  0  0  0
  -27.2480  -28.5670   21.0840 C   0  0  0  0  0  3  0  0  0  0  0  0
  -26.0840  -26.7420   19.9770 C   0  0  0  0  0  3  0  0  0  0  0  0
  -24.9160  -27.5270   19.8910 C   0  0  0  0  0  3  0  0  0  0  0  0
  -23.6830  -29.7200   20.3800 C   0  0  0  0  0  2  0  0  0  0  0  0
  -24.7100  -31.0890   22.2500 N   0  0  0  0  0  0  0  0  0  0  0  0
  -23.5490  -32.2870   23.7880 O   0  0  0  0  0  0  0  0  0  0  0  0
  -22.7450  -29.5400   22.7100 C   0  0  0  0  0  0  0  0  0  0  0  0
  -21.4250  -29.3560   22.5380 N   0  0  0  0  0  0  0  0  0  0  0  0
  -23.3860  -28.9710   23.5980 O   0  0  0  0  0  0  0  0  0  0  0  0
  -20.9680  -29.8680   21.7960 H   0  0  0  0  0  0  0  0  0  0  0  0
  -18.0250  -28.2090   22.9670 C   0  0  0  0  0  0  0  0  0  0  0  0
  -20.5710  -28.4740   23.3320 C   0  0  0  0  0  3  0  0  0  0  0  0
  -20.6880  -27.0060   22.8600 C   0  0  0  0  0  2  0  0  0  0  0  0
  -19.6280  -26.6210   21.8230 C   0  0  0  0  0  2  0  0  0  0  0  0
  -18.2210  -26.8170   22.3920 C   0  0  0  0  0  2  0  0  0  0  0  0
  -19.1290  -28.9930   23.3920 C   0  0  0  0  0  0  0  0  0  0  0  0
  -18.8950  -30.2950   23.8870 C   0  0  0  0  0  3  0  0  0  0  0  0
  -17.5900  -30.8130   23.9590 C   0  0  0  0  0  3  0  0  0  0  0  0
  -16.4980  -30.0260   23.5500 C   0  0  0  0  0  3  0  0  0  0  0  0
  -16.7160  -28.7250   23.0610 C   0  0  0  0  0  3  0  0  0  0  0  0
  -25.9200  -32.6000   23.9170 C   0  0  0  0  0  3  0  0  0  0  0  0
  -25.6040  -33.9990   24.2400 N   0  0  0  0  0  0  0  0  0  0  0  0
  -25.9210  -35.0480   23.4710 C   0  0  0  0  0  0  0  0  0  0  0  0
  -26.5850  -34.9420   22.4350 O   0  0  0  0  0  0  0  0  0  0  0  0
  -25.0140  -34.1550   25.0440 H   0  0  0  0  0  0  0  0  0  0  0  0
  -24.1700  -36.8180   23.1220 C   0  0  0  0  0  1  0  0  0  0  0  0
  -25.4260  -36.4360   23.9210 C   0  0  0  0  0  3  0  0  0  0  0  0
  -27.5680  -37.3460   24.7060 C   0  0  0  0  0  1  0  0  0  0  0  0
  -26.4480  -37.4980   23.7820 N   0  0  0  0  0  0  0  0  0  0  0  0
  -26.0350  -38.4150   23.9290 H   0  0  0  0  0  0  0  0  0  0  0  0
  -26.4390  -31.8380   25.1980 C   0  0  1  0  0  0  0  0  0  0  0  0
  -25.3350  -31.5670   26.2460 C   0  0  0  0  0  1  0  0  0  0  0  0
  -27.0670  -30.4790   24.8080 C   0  0  0  0  0  1  0  0  0  0  0  0
  -27.5560  -32.6610   25.8820 C   0  0  0  0  0  1  0  0  0  0  0  0
  -30.6230  -16.8470   20.7580 C   0  0  0  0  0  2  0  0  0  0  0  0
  -30.7030  -14.3940   20.1760 C   0  0  0  0  0  0  0  0  0  0  0  0
  -30.4300  -12.2380   18.9920 C   0  0  0  0  0  2  0  0  0  0  0  0
  -29.5050  -12.4260   17.7730 C   0  0  0  0  0  2  0  0  0  0  0  0
  -28.0280  -12.2710   18.1830 C   0  0  0  0  0  2  0  0  0  0  0  0
  -27.6610  -13.0820   19.4550 C   0  0  0  0  0  3  0  0  0  0  0  0
  -28.7070  -12.8910   20.5780 C   0  0  0  0  0  2  0  0  0  0  0  0
  -30.0220  -13.2210   20.0150 N   0  0  0  0  0  0  0  0  0  0  0  0
  -31.8740  -14.5040   19.8090 O   0  0  0  0  0  0  0  0  0  0  0  0
  -30.0120  -15.4930   20.5890 N   0  0  0  0  0  0  0  0  0  0  0  0
  -29.0310  -15.3910   20.8020 H   0  0  0  0  0  0  0  0  0  0  0  0
  -25.2060  -13.6180   19.9940 C   0  0  0  0  0  0  0  0  0  0  0  0
  -24.1630  -12.8340   20.3980 C   0  0  0  0  0  0  0  0  0  0  0  0
  -24.6900  -11.5120   20.5290 C   0  0  0  0  0  0  0  0  0  0  0  0
  -26.3060  -12.7790   19.9070 N   0  0  0  0  0  0  0  0  0  0  0  0
  -25.9950  -11.5120   20.2860 N   0  0  0  0  0  0  0  0  0  0  0  0
  -24.0160  -10.2400   20.8170 C   0  0  0  0  0  0  0  0  0  0  0  0
  -24.4410   -9.4010   21.8710 C   0  0  0  0  0  3  0  0  0  0  0  0
  -23.7650   -8.1920   22.1410 C   0  0  0  0  0  3  0  0  0  0  0  0
  -22.6490   -7.8130   21.3560 C   0  0  0  0  0  0  0  0  0  0  0  0
  -22.2430   -8.6410   20.2960 C   0  0  0  0  0  3  0  0  0  0  0  0
  -22.9200   -9.8420   20.0250 C   0  0  0  0  0  3  0  0  0  0  0  0
  -21.9480   -6.6440   21.5290 O   0  0  0  0  0  0  0  0  0  0  0  0
  -21.8590   -6.0300   22.7540 C   0  0  0  0  0  0  0  0  0  0  0  0
  -21.3300   -6.6950   23.8820 C   0  0  0  0  0  3  0  0  0  0  0  0
  -21.1920   -6.0050   25.1040 C   0  0  0  0  0  3  0  0  0  0  0  0
  -21.5720   -4.6530   25.1960 C   0  0  0  0  0  0  0  0  0  0  0  0
  -22.0950   -3.9890   24.0720 C   0  0  0  0  0  3  0  0  0  0  0  0
  -22.2350   -4.6760   22.8540 C   0  0  0  0  0  0  0  0  0  0  0  0
  -22.7190   -4.0250   21.7690 F   0  0  0  0  0  0  0  0  0  0  0  0
  -21.4330   -3.9900   26.3680 F   0  0  0  0  0  0  0  0  0  0  0  0
  -22.7320  -13.2640   20.5600 C   0  0  0  0  0  0  0  0  0  0  0  0
  -22.0030  -12.6400   21.4770 N   0  0  0  0  0  0  0  0  0  0  0  0
  -22.2680  -14.1960   19.9050 O   0  0  0  0  0  0  0  0  0  0  0  0
  -22.3870  -11.8890   22.0300 H   0  0  0  0  0  0  0  0  0  0  0  0
  -21.0440  -12.9150   21.6270 H   0  0  0  0  0  0  0  0  0  0  0  0
  -25.3040  -14.9660   19.6750 N   0  0  0  0  0  0  0  0  0  0  0  0
  -24.5040  -15.5850   19.7410 H   0  0  0  0  0  0  0  0  0  0  0  0
  -26.1530  -15.4550   19.4180 H   0  0  0  0  0  0  0  0  0  0  0  0
  -27.5900  -17.5560   19.6550 O   0  0  0  0  0  0  0  0  0  0  0  0
  -26.3670  -17.4740   20.3790 C   0  0  0  0  0  2  0  0  0  0  0  0
  -24.9280  -15.8780   21.7470 C   0  0  0  0  0  1  0  0  0  0  0  0
  -26.3130  -16.1430   21.1450 C   0  0  0  0  0  2  0  0  0  0  0  0
  1  3  2  0
  2  1  1  0
  2  4  2  0
  3  5  1  0
  3  6  1  0
  4 51  1  0
  4  5  1  0
  7  6  2  0
  8  7  1  0
  8  9  1  0
 10  9  1  0
 11 22  2  0
 12 10  1  0
 12 17  1  0
 13 21  1  0
 13 23  1  0
 14 16  1  0
 15 21  1  0
 16 17  2  0
 16 15  1  0
 18 12  2  0
 19 18  1  0
 19 14  2  0
 20 14  1  0
 20 13  1  0
 21 11  1  0
 23 25  2  0
 24 23  1  0
 26 24  1  0
 27 36  2  0
 27 32  1  0
 28 24  1  0
 28 32  1  0
 29 28  1  0
 30 31  1  0
 30 29  1  0
 31 27  1  0
 32 33  2  0
 33 34  1  0
 35 34  2  0
 36 35  1  0
 37 11  1  0
 37 38  1  0
 37 47  1  0
 38 41  1  0
 39 43  1  0
 39 38  1  0
 40 39  2  0
 43 42  1  0
 45 43  1  0
 45 46  1  0
 45 44  1  0
 47 50  1  1
 47 48  1  0
 49 47  1  0
 52 60  1  0
 53 58  1  0
 54 55  1  0
 54 53  1  0
 56 55  1  0
 56 65  1  0
 56 57  1  0
 58 52  1  0
 58 57  1  0
 59 52  2  0
 60 51  1  0
 60 61  1  0
 62 63  2  0
 63 64  1  0
 63 82  1  0
 64 67  1  0
 65 62  1  0
 65 66  1  0
 66 64  2  0
 67 68  1  0
 68 69  2  0
 70 73  1  0
 70 69  1  0
 71 70  2  0
 72 71  1  0
 72 67  2  0
 73 74  1  0
 74 79  2  0
 74 75  1  0
 75 76  2  0
 76 77  1  0
 77 81  1  0
 78 77  2  0
 79 78  1  0
 80 79  1  0
 82 83  1  0
 83 86  1  0
 83 85  1  0
 84 82  2  0
 87 88  1  0
 87 62  1  0
 89 87  1  0
 90  2  1  0
 90 91  1  0
 91 93  1  0
 93 92  1  0
M  ISO  4   9 101  10 101  52 100  60 100
M  END
>  <TORSDO>  (41) 
F 23

>  <SCORE>  (41) 
-9.072

>  <name>  (41) 
40

>  <ligand_id>  (41) 
40

>  <original_smiles>  (41) 
[H]C(=C([H])C([H])([H])C([H])([H])Oc1c([H])c([H])c2c(c1[H])C([H])([H])N(C(=O)C([H])(N([H])C(=O)C([H])(N([H])C([H])([H])[H])C([H])([H])[H])C(C([H])([H])[H])(C([H])([H])[H])C([H])([H])[H])C([H])(C(=O)N([H])C1([H])c3c([H])c([H])c([H])c([H])c3C([H])([H])C([H])([H])C1([H])[H])C2([H])[H])c1oc(C([H])([H])N([H])C(=O)N2C([H])([H])C([H])([H])C([H])([H])C([H])(n3nc(-c4c([H])c([H])c(Oc5c([H])c([H])c(F)c([H])c5F)c([H])c4[H])c(C(=O)N([H])[H])c3N([H])[H])C2([H])[H])c(OC([H])([H])C([H])([H])C([H])([H])[H])c1[H]

>  <smiles>  (41) 
[H]C(=C([H])C([H])([H])C([H])([H])Oc1c([H])c([H])c2c(c1[H])C([H])([H])N(C(=O)C([H])(N([H])C(=O)C([H])(N([H])C([H])([H])[H])C([H])([H])[H])C(C([H])([H])[H])(C([H])([H])[H])C([H])([H])[H])C([H])(C(=O)N([H])C1([H])c3c([H])c([H])c([H])c([H])c3C([H])([H])C([H])([H])C1([H])[H])C2([H])[H])c1oc(C([H])([H])N([H])C(=O)N2C([H])([H])C([H])([H])C([H])([H])C([H])(n3nc(-c4c([H])c([H])c(Oc5c([H])c([H])c(F)c([H])c5F)c([H])c4[H])c(C(=O)N([H])[H])c3N([H])[H])C2([H])[H])c(OC([H])([H])C([H])([H])C([H])([H])[H])c1[H]

$$$$
41:0:0
     RDKit          3D

 93101  0  0  1  0  0  0  0  0999 V2000
  -28.9940  -19.4410   19.8580 C   0  0  0  0  0  3  0  0  0  0  0  0
  -30.9040  -17.9680   21.2810 C   0  0  0  0  0  3  0  0  0  0  0  0
  -28.9930  -18.0090   19.7940 C   0  0  0  0  0  0  0  0  0  0  0  0
  -29.9380  -20.1730   20.6230 C   0  0  0  0  0  0  0  0  0  0  0  0
  -29.9370  -17.2380   20.5480 C   0  0  0  0  0  0  0  0  0  0  0  0
  -30.9080  -19.3910   21.3100 C   0  0  0  0  0  0  0  0  0  0  0  0
  -31.8610  -20.0140   22.0430 F   0  0  0  0  0  0  0  0  0  0  0  0
  -30.6850  -14.7470   20.5860 C   0  0  0  0  0  0  0  0  0  0  0  0
  -30.5490  -12.4970   19.5590 C   0  0  0  0  0  2  0  0  0  0  0  0
  -29.6380  -12.6200   18.3170 C   0  0  0  0  0  2  0  0  0  0  0  0
  -28.1530  -12.4510   18.7020 C   0  0  0  0  0  2  0  0  0  0  0  0
  -27.7470  -13.3080   19.9320 C   0  0  0  0  0  3  0  0  0  0  0  0
  -28.7790  -13.1670   21.0730 C   0  0  0  0  0  2  0  0  0  0  0  0
  -30.0990  -13.5130   20.5240 N   0  0  0  0  0  0  0  0  0  0  0  0
  -31.8840  -14.9120   20.3360 O   0  0  0  0  0  0  0  0  0  0  0  0
  -29.7990  -15.7850   20.6600 N   0  0  0  0  0  0  0  0  0  0  0  0
  -28.8450  -15.4640   20.6850 H   0  0  0  0  0  0  0  0  0  0  0  0
  -25.3320  -13.9050   20.5780 C   0  0  0  0  0  0  0  0  0  0  0  0
  -24.2570  -13.1280   20.9180 C   0  0  0  0  0  0  0  0  0  0  0  0
  -24.7260  -11.7790   20.9080 C   0  0  0  0  0  0  0  0  0  0  0  0
  -26.3860  -13.0260   20.3770 N   0  0  0  0  0  0  0  0  0  0  0  0
  -26.0260  -11.7450   20.6390 N   0  0  0  0  0  0  0  0  0  0  0  0
  -24.0000  -10.5140   21.0800 C   0  0  0  0  0  0  0  0  0  0  0  0
  -24.4040   -9.5570   22.0370 C   0  0  0  0  0  3  0  0  0  0  0  0
  -23.6790   -8.3570   22.1970 C   0  0  0  0  0  3  0  0  0  0  0  0
  -22.5370   -8.1060   21.3990 C   0  0  0  0  0  0  0  0  0  0  0  0
  -22.1530   -9.0530   20.4330 C   0  0  0  0  0  3  0  0  0  0  0  0
  -22.8780  -10.2440   20.2730 C   0  0  0  0  0  3  0  0  0  0  0  0
  -21.7890   -6.9550   21.4670 O   0  0  0  0  0  0  0  0  0  0  0  0
  -21.6890   -6.2280   22.6260 C   0  0  0  0  0  0  0  0  0  0  0  0
  -21.1600   -6.7850   23.8110 C   0  0  0  0  0  3  0  0  0  0  0  0
  -21.0120   -5.9830   24.9600 C   0  0  0  0  0  3  0  0  0  0  0  0
  -21.3820   -4.6250   24.9240 C   0  0  0  0  0  0  0  0  0  0  0  0
  -21.9040   -4.0670   23.7430 C   0  0  0  0  0  3  0  0  0  0  0  0
  -22.0540   -4.8660   22.5960 C   0  0  0  0  0  0  0  0  0  0  0  0
  -22.5390   -4.3190   21.4550 F   0  0  0  0  0  0  0  0  0  0  0  0
  -21.2320   -3.8530   26.0250 F   0  0  0  0  0  0  0  0  0  0  0  0
  -22.8490  -13.6020   21.1410 C   0  0  0  0  0  0  0  0  0  0  0  0
  -22.0950  -12.9090   21.9860 N   0  0  0  0  0  0  0  0  0  0  0  0
  -22.4270  -14.6230   20.6010 O   0  0  0  0  0  0  0  0  0  0  0  0
  -22.4460  -12.0840   22.4490 H   0  0  0  0  0  0  0  0  0  0  0  0
  -21.1500  -13.2130   22.1740 H   0  0  0  0  0  0  0  0  0  0  0  0
  -25.4890  -15.2760   20.4010 N   0  0  0  0  0  0  0  0  0  0  0  0
  -24.7000  -15.9080   20.4690 H   0  0  0  0  0  0  0  0  0  0  0  0
  -26.3160  -15.7310   20.0350 H   0  0  0  0  0  0  0  0  0  0  0  0
  -26.8070  -17.8270   18.5510 C   0  0  0  0  0  2  0  0  0  0  0  0
  -27.9870  -17.3240   18.9550 C   0  0  0  0  0  3  0  0  0  0  0  0
  -29.9590  -21.6900   20.7520 C   0  0  0  0  0  3  0  0  0  0  0  0
  -29.1380  -22.6640   20.2440 C   0  0  0  0  0  3  0  0  0  0  0  0
  -29.3230  -24.1520   20.5060 C   0  0  0  0  0  0  0  0  0  0  0  0
  -30.2830  -24.5830   21.1560 O   0  0  0  0  0  0  0  0  0  0  0  0
  -28.2780  -25.1830   19.9480 C   0  0  0  0  0  2  0  0  0  0  0  0
  -28.4300  -26.5900   20.3780 O   0  0  0  0  0  0  0  0  0  0  0  0
  -24.5610  -31.9210   23.3290 C   0  0  0  0  0  0  0  0  0  0  0  0
  -27.2960  -27.4150   20.3090 C   0  0  0  0  0  0  0  0  0  0  0  0
  -23.4140  -30.5210   21.6500 C   0  0  0  0  0  3  0  0  0  0  0  0
  -24.9130  -28.9940   20.2600 C   0  0  0  0  0  0  0  0  0  0  0  0
  -25.9540  -30.8630   21.5410 C   0  0  0  0  0  2  0  0  0  0  0  0
  -26.0610  -29.4900   20.8890 C   0  0  0  0  0  0  0  0  0  0  0  0
  -27.2540  -28.7090   20.9120 C   0  0  0  0  0  3  0  0  0  0  0  0
  -26.1220  -26.9740   19.6530 C   0  0  0  0  0  3  0  0  0  0  0  0
  -24.9440  -27.7390   19.6360 C   0  0  0  0  0  3  0  0  0  0  0  0
  -23.6700  -29.8550   20.2730 C   0  0  0  0  0  2  0  0  0  0  0  0
  -24.6610  -31.1180   22.2310 N   0  0  0  0  0  0  0  0  0  0  0  0
  -23.4630  -32.1880   23.8360 O   0  0  0  0  0  0  0  0  0  0  0  0
  -22.7330  -29.4940   22.5870 C   0  0  0  0  0  0  0  0  0  0  0  0
  -21.4150  -29.2990   22.4120 N   0  0  0  0  0  0  0  0  0  0  0  0
  -23.3910  -28.8780   23.4300 O   0  0  0  0  0  0  0  0  0  0  0  0
  -20.9450  -29.8500   21.7070 H   0  0  0  0  0  0  0  0  0  0  0  0
  -18.0330  -28.0820   22.8130 C   0  0  0  0  0  0  0  0  0  0  0  0
  -20.5810  -28.3530   23.1540 C   0  0  0  0  0  3  0  0  0  0  0  0
  -20.7070  -26.9250   22.5760 C   0  0  0  0  0  2  0  0  0  0  0  0
  -19.6350  -26.6020   21.5300 C   0  0  0  0  0  2  0  0  0  0  0  0
  -18.2350  -26.7360   22.1360 C   0  0  0  0  0  2  0  0  0  0  0  0
  -19.1340  -28.8470   23.2770 C   0  0  0  0  0  0  0  0  0  0  0  0
  -18.8920  -30.1050   23.8700 C   0  0  0  0  0  3  0  0  0  0  0  0
  -17.5800  -30.5990   24.0000 C   0  0  0  0  0  3  0  0  0  0  0  0
  -16.4920  -29.8300   23.5530 C   0  0  0  0  0  3  0  0  0  0  0  0
  -16.7190  -28.5730   22.9660 C   0  0  0  0  0  3  0  0  0  0  0  0
  -25.8240  -32.5580   23.9890 C   0  0  0  0  0  3  0  0  0  0  0  0
  -26.2780  -31.8170   25.3060 C   0  0  1  0  0  0  0  0  0  0  0  0
  -25.1360  -31.6100   26.3280 C   0  0  0  0  0  1  0  0  0  0  0  0
  -26.8720  -30.4280   24.9760 C   0  0  0  0  0  1  0  0  0  0  0  0
  -27.4020  -32.6210   25.9990 C   0  0  0  0  0  1  0  0  0  0  0  0
  -25.5150  -33.9670   24.2680 N   0  0  0  0  0  0  0  0  0  0  0  0
  -25.8740  -34.9940   23.4860 C   0  0  0  0  0  0  0  0  0  0  0  0
  -26.5690  -34.8540   22.4770 O   0  0  0  0  0  0  0  0  0  0  0  0
  -24.9000  -34.1490   25.0470 H   0  0  0  0  0  0  0  0  0  0  0  0
  -24.1670  -36.7850   23.0340 C   0  0  0  0  0  1  0  0  0  0  0  0
  -25.3830  -36.3980   23.8880 C   0  0  0  0  0  3  0  0  0  0  0  0
  -27.4960  -37.3030   24.7510 C   0  0  0  0  0  1  0  0  0  0  0  0
  -26.4240  -37.4410   23.7700 N   0  0  0  0  0  0  0  0  0  0  0  0
  -26.0180  -38.3680   23.8730 H   0  0  0  0  0  0  0  0  0  0  0  0
  1  4  1  0
  2  6  1  0
  3  1  2  0
  3  5  1  0
  4 48  1  0
  4  6  2  0
  5 16  1  0
  5  2  2  0
  6  7  1  0
  8 16  1  0
  9 14  1  0
 10 11  1  0
 10  9  1  0
 12 11  1  0
 12 21  1  0
 12 13  1  0
 14  8  1  0
 14 13  1  0
 15  8  2  0
 16 17  1  0
 18 19  2  0
 19 38  1  0
 20 19  1  0
 20 23  1  0
 21 18  1  0
 21 22  1  0
 22 20  2  0
 23 24  1  0
 24 25  2  0
 26 29  1  0
 26 25  1  0
 27 26  2  0
 28 27  1  0
 28 23  2  0
 29 30  1  0
 30 31  1  0
 31 32  2  0
 33 32  1  0
 33 37  1  0
 34 33  2  0
 35 30  2  0
 35 34  1  0
 36 35  1  0
 38 39  1  0
 39 42  1  0
 39 41  1  0
 40 38  2  0
 43 44  1  0
 43 18  1  0
 45 43  1  0
 46 47  2  0
 47  3  1  0
 49 50  1  0
 49 48  2  0
 50 51  2  0
 52 53  1  0
 52 50  1  0
 54 65  2  0
 55 53  1  0
 55 60  1  0
 56 64  1  0
 56 66  1  0
 57 63  1  0
 57 59  1  0
 58 64  1  0
 59 60  2  0
 59 58  1  0
 61 55  2  0
 62 61  1  0
 62 57  2  0
 63 56  1  0
 64 54  1  0
 66 68  2  0
 67 66  1  0
 69 67  1  0
 70 79  2  0
 70 75  1  0
 71 67  1  0
 71 75  1  0
 72 71  1  0
 73 74  1  0
 73 72  1  0
 74 70  1  0
 75 76  2  0
 76 77  1  0
 78 77  2  0
 79 78  1  0
 80 54  1  0
 80 85  1  0
 80 81  1  0
 81 84  1  1
 81 82  1  0
 83 81  1  0
 85 88  1  0
 86 90  1  0
 86 85  1  0
 87 86  2  0
 90 89  1  0
 92 93  1  0
 92 90  1  0
 92 91  1  0
M  ISO  4   8 100  16 100  52 101  53 101
M  END
>  <TORSDO>  (42) 
F 20

>  <SCORE>  (42) 
-13.871

>  <name>  (42) 
41

>  <ligand_id>  (42) 
41

>  <original_smiles>  (42) 
[H]C([H])=C([H])c1c([H])c(C([H])=C([H])C(=O)C([H])([H])Oc2c([H])c([H])c3c(c2[H])C([H])([H])N(C(=O)C([H])(N([H])C(=O)C([H])(N([H])C([H])([H])[H])C([H])([H])[H])C(C([H])([H])[H])(C([H])([H])[H])C([H])([H])[H])C([H])(C(=O)N([H])C2([H])c4c([H])c([H])c([H])c([H])c4C([H])([H])C([H])([H])C2([H])[H])C3([H])[H])c(F)c([H])c1N([H])C(=O)N1C([H])([H])C([H])([H])C([H])([H])C([H])(n2nc(-c3c([H])c([H])c(Oc4c([H])c([H])c(F)c([H])c4F)c([H])c3[H])c(C(=O)N([H])[H])c2N([H])[H])C1([H])[H]

>  <smiles>  (42) 
[H]C([H])=C([H])c1c([H])c(C([H])=C([H])C(=O)C([H])([H])Oc2c([H])c([H])c3c(c2[H])C([H])([H])N(C(=O)C([H])(N([H])C(=O)C([H])(N([H])C([H])([H])[H])C([H])([H])[H])C(C([H])([H])[H])(C([H])([H])[H])C([H])([H])[H])C([H])(C(=O)N([H])C2([H])c4c([H])c([H])c([H])c([H])c4C([H])([H])C([H])([H])C2([H])[H])C3([H])[H])c(F)c([H])c1N([H])C(=O)N1C([H])([H])C([H])([H])C([H])([H])C([H])(n2nc(-c3c([H])c([H])c(Oc4c([H])c([H])c(F)c([H])c4F)c([H])c3[H])c(C(=O)N([H])[H])c2N([H])[H])C1([H])[H]

$$$$
42:0:0
     RDKit          3D

 89 97  0  0  1  0  0  0  0  0999 V2000
  -28.6280  -18.8600   20.2270 C   0  0  0  0  0  3  0  0  0  0  0  0
  -28.2390  -20.2220   20.0840 C   0  0  0  0  0  3  0  0  0  0  0  0
  -30.7080  -19.5910   21.1680 C   0  0  0  0  0  3  0  0  0  0  0  0
  -29.9030  -18.5080   20.7200 C   0  0  0  0  0  0  0  0  0  0  0  0
  -29.0810  -21.3160   20.4320 C   0  0  0  0  0  0  0  0  0  0  0  0
  -30.3220  -20.9590   21.0360 C   0  0  0  0  0  0  0  0  0  0  0  0
  -31.3060  -22.0170   21.5040 C   0  0  0  0  0  1  0  0  0  0  0  0
  -30.4580  -17.0990   20.7210 C   0  0  0  0  0  3  0  0  0  0  0  0
  -29.8500  -15.8740   20.6240 C   0  0  0  0  0  3  0  0  0  0  0  0
  -30.6410  -14.6240   20.4270 C   0  0  0  0  0  0  0  0  0  0  0  0
  -30.3630  -12.3950   19.3790 C   0  0  0  0  0  2  0  0  0  0  0  0
  -29.4370  -12.5350   18.1520 C   0  0  0  0  0  2  0  0  0  0  0  0
  -27.9610  -12.3850   18.5700 C   0  0  0  0  0  2  0  0  0  0  0  0
  -27.5970  -13.2610   19.7960 C   0  0  0  0  0  3  0  0  0  0  0  0
  -28.6460  -13.1310   20.9210 C   0  0  0  0  0  2  0  0  0  0  0  0
  -29.9650  -13.4340   20.3520 N   0  0  0  0  0  0  0  0  0  0  0  0
  -31.8310  -14.6750   20.1070 O   0  0  0  0  0  0  0  0  0  0  0  0
  -25.2040  -13.8680   20.5020 C   0  0  0  0  0  0  0  0  0  0  0  0
  -24.1330  -13.0990   20.8710 C   0  0  0  0  0  0  0  0  0  0  0  0
  -24.5940  -11.7460   20.8510 C   0  0  0  0  0  0  0  0  0  0  0  0
  -26.2480  -12.9850   20.2780 N   0  0  0  0  0  0  0  0  0  0  0  0
  -25.8860  -11.7050   20.5500 N   0  0  0  0  0  0  0  0  0  0  0  0
  -23.8640  -10.4860   21.0400 C   0  0  0  0  0  0  0  0  0  0  0  0
  -24.2870   -9.5200   21.9790 C   0  0  0  0  0  3  0  0  0  0  0  0
  -23.5560   -8.3260   22.1570 C   0  0  0  0  0  3  0  0  0  0  0  0
  -22.3880   -8.0880   21.3920 C   0  0  0  0  0  0  0  0  0  0  0  0
  -21.9860   -9.0440   20.4420 C   0  0  0  0  0  3  0  0  0  0  0  0
  -22.7170  -10.2290   20.2640 C   0  0  0  0  0  3  0  0  0  0  0  0
  -21.6300   -6.9470   21.4790 O   0  0  0  0  0  0  0  0  0  0  0  0
  -21.5670   -6.2090   22.6350 C   0  0  0  0  0  0  0  0  0  0  0  0
  -21.1200   -6.7690   23.8530 C   0  0  0  0  0  3  0  0  0  0  0  0
  -21.0050   -5.9590   24.9990 C   0  0  0  0  0  3  0  0  0  0  0  0
  -21.3280   -4.5900   24.9300 C   0  0  0  0  0  0  0  0  0  0  0  0
  -21.7690   -4.0310   23.7180 C   0  0  0  0  0  3  0  0  0  0  0  0
  -21.8850   -4.8380   22.5730 C   0  0  0  0  0  0  0  0  0  0  0  0
  -22.2880   -4.2880   21.4020 F   0  0  0  0  0  0  0  0  0  0  0  0
  -21.2120   -3.8090   26.0290 F   0  0  0  0  0  0  0  0  0  0  0  0
  -22.7350  -13.5800   21.1290 C   0  0  0  0  0  0  0  0  0  0  0  0
  -21.9990  -12.8850   21.9900 N   0  0  0  0  0  0  0  0  0  0  0  0
  -22.3020  -14.6040   20.6030 O   0  0  0  0  0  0  0  0  0  0  0  0
  -22.3600  -12.0550   22.4360 H   0  0  0  0  0  0  0  0  0  0  0  0
  -21.0580  -13.1860   22.2050 H   0  0  0  0  0  0  0  0  0  0  0  0
  -25.3720  -15.2370   20.3150 N   0  0  0  0  0  0  0  0  0  0  0  0
  -24.6070  -15.8950   20.4050 H   0  0  0  0  0  0  0  0  0  0  0  0
  -26.2210  -15.6650   19.9700 H   0  0  0  0  0  0  0  0  0  0  0  0
  -28.6040  -22.7110   20.0470 C   0  0  0  0  0  3  0  0  0  0  0  0
  -29.0410  -23.9890   20.2860 C   0  0  0  0  0  3  0  0  0  0  0  0
  -28.4540  -25.2450   19.5710 C   0  0  0  0  0  2  0  0  0  0  0  0
  -28.3620  -26.5200   20.3020 O   0  0  0  0  0  0  0  0  0  0  0  0
  -24.6240  -31.9050   23.2600 C   0  0  0  0  0  0  0  0  0  0  0  0
  -27.2230  -27.3380   20.2150 C   0  0  0  0  0  0  0  0  0  0  0  0
  -23.4170  -30.5050   21.6260 C   0  0  0  0  0  3  0  0  0  0  0  0
  -24.8620  -28.9560   20.2040 C   0  0  0  0  0  0  0  0  0  0  0  0
  -25.9590  -30.8180   21.4440 C   0  0  0  0  0  2  0  0  0  0  0  0
  -26.0310  -29.4410   20.8010 C   0  0  0  0  0  0  0  0  0  0  0  0
  -27.2110  -28.6410   20.8040 C   0  0  0  0  0  3  0  0  0  0  0  0
  -26.0200  -26.9070   19.6030 C   0  0  0  0  0  3  0  0  0  0  0  0
  -24.8580  -27.6940   19.6000 C   0  0  0  0  0  3  0  0  0  0  0  0
  -23.6290  -29.8320   20.2470 C   0  0  0  0  0  2  0  0  0  0  0  0
  -24.6860  -31.0930   22.1660 N   0  0  0  0  0  0  0  0  0  0  0  0
  -23.5420  -32.1850   23.7940 O   0  0  0  0  0  0  0  0  0  0  0  0
  -22.7570  -29.4870   22.5850 C   0  0  0  0  0  0  0  0  0  0  0  0
  -21.4300  -29.3120   22.4580 N   0  0  0  0  0  0  0  0  0  0  0  0
  -23.4340  -28.8610   23.4050 O   0  0  0  0  0  0  0  0  0  0  0  0
  -20.9430  -29.8690   21.7690 H   0  0  0  0  0  0  0  0  0  0  0  0
  -18.0490  -28.1290   22.9580 C   0  0  0  0  0  0  0  0  0  0  0  0
  -20.6080  -28.3810   23.2310 C   0  0  0  0  0  3  0  0  0  0  0  0
  -20.7060  -26.9450   22.6620 C   0  0  0  0  0  2  0  0  0  0  0  0
  -19.6040  -26.6220   21.6490 C   0  0  0  0  0  2  0  0  0  0  0  0
  -18.2210  -26.7760   22.2880 C   0  0  0  0  0  2  0  0  0  0  0  0
  -19.1700  -28.8890   23.3860 C   0  0  0  0  0  0  0  0  0  0  0  0
  -18.9540  -30.1560   23.9700 C   0  0  0  0  0  3  0  0  0  0  0  0
  -17.6510  -30.6630   24.1310 C   0  0  0  0  0  3  0  0  0  0  0  0
  -16.5440  -29.9000   23.7190 C   0  0  0  0  0  3  0  0  0  0  0  0
  -16.7440  -28.6350   23.1380 C   0  0  0  0  0  3  0  0  0  0  0  0
  -25.9090  -32.5360   23.8800 C   0  0  0  0  0  3  0  0  0  0  0  0
  -26.4210  -31.7690   25.1630 C   0  0  1  0  0  0  0  0  0  0  0  0
  -25.3240  -31.5420   26.2300 C   0  0  0  0  0  1  0  0  0  0  0  0
  -27.0000  -30.3870   24.7800 C   0  0  0  0  0  1  0  0  0  0  0  0
  -27.5730  -32.5630   25.8210 C   0  0  0  0  0  1  0  0  0  0  0  0
  -25.6020  -33.9350   24.2030 N   0  0  0  0  0  0  0  0  0  0  0  0
  -25.9300  -34.9830   23.4350 C   0  0  0  0  0  0  0  0  0  0  0  0
  -26.5930  -34.8730   22.4010 O   0  0  0  0  0  0  0  0  0  0  0  0
  -25.0140  -34.0950   25.0080 H   0  0  0  0  0  0  0  0  0  0  0  0
  -24.2000  -36.7740   23.0780 C   0  0  0  0  0  1  0  0  0  0  0  0
  -25.4450  -36.3740   23.8860 C   0  0  0  0  0  3  0  0  0  0  0  0
  -27.5810  -37.2660   24.7050 C   0  0  0  0  0  1  0  0  0  0  0  0
  -26.4790  -37.4260   23.7620 N   0  0  0  0  0  0  0  0  0  0  0  0
  -26.0730  -38.3480   23.9000 H   0  0  0  0  0  0  0  0  0  0  0  0
  1  4  1  0
  2  1  2  0
  2  5  1  0
  4  8  1  0
  4  3  2  0
  5  6  2  0
  6  3  1  0
  6  7  1  0
  9  8  2  0
 10  9  1  0
 11 16  1  0
 12 13  1  0
 12 11  1  0
 14 13  1  0
 14 21  1  0
 14 15  1  0
 16 10  1  0
 16 15  1  0
 17 10  2  0
 18 19  2  0
 19 38  1  0
 20 19  1  0
 20 23  1  0
 21 18  1  0
 21 22  1  0
 22 20  2  0
 23 24  1  0
 24 25  2  0
 26 29  1  0
 26 25  1  0
 27 26  2  0
 28 27  1  0
 28 23  2  0
 29 30  1  0
 30 31  1  0
 31 32  2  0
 33 32  1  0
 33 37  1  0
 34 33  2  0
 35 30  2  0
 35 34  1  0
 36 35  1  0
 38 39  1  0
 39 42  1  0
 39 41  1  0
 40 38  2  0
 43 44  1  0
 43 18  1  0
 45 43  1  0
 46 47  2  0
 46  5  1  0
 48 47  1  0
 48 49  1  0
 50 61  2  0
 51 49  1  0
 51 56  1  0
 52 60  1  0
 52 62  1  0
 53 59  1  0
 53 55  1  0
 54 60  1  0
 55 56  2  0
 55 54  1  0
 57 51  2  0
 58 57  1  0
 58 53  2  0
 59 52  1  0
 60 50  1  0
 62 64  2  0
 63 62  1  0
 65 63  1  0
 66 75  2  0
 66 71  1  0
 67 63  1  0
 67 71  1  0
 68 67  1  0
 69 70  1  0
 69 68  1  0
 70 66  1  0
 71 72  2  0
 72 73  1  0
 74 73  2  0
 75 74  1  0
 76 50  1  0
 76 81  1  0
 76 77  1  0
 77 80  1  1
 77 78  1  0
 79 77  1  0
 81 84  1  0
 82 86  1  0
 82 81  1  0
 83 82  2  0
 86 85  1  0
 88 86  1  0
 88 89  1  0
 88 87  1  0
M  ISO  4   9 100  10 100  48 101  49 101
M  END
>  <TORSDO>  (43) 
F 19

>  <SCORE>  (43) 
-14.378

>  <name>  (43) 
42

>  <ligand_id>  (43) 
42

>  <original_smiles>  (43) 
[H]C(C(=O)N1C([H])([H])C([H])([H])C([H])([H])C([H])(n2nc(-c3c([H])c([H])c(Oc4c([H])c([H])c(F)c([H])c4F)c([H])c3[H])c(C(=O)N([H])[H])c2N([H])[H])C1([H])[H])=C([H])c1c([H])c([H])c(C([H])=C([H])C([H])([H])Oc2c([H])c([H])c3c(c2[H])C([H])([H])N(C(=O)C([H])(N([H])C(=O)C([H])(N([H])C([H])([H])[H])C([H])([H])[H])C(C([H])([H])[H])(C([H])([H])[H])C([H])([H])[H])C([H])(C(=O)N([H])C2([H])c4c([H])c([H])c([H])c([H])c4C([H])([H])C([H])([H])C2([H])[H])C3([H])[H])c(C([H])([H])[H])c1[H]

>  <smiles>  (43) 
[H]C(C(=O)N1C([H])([H])C([H])([H])C([H])([H])C([H])(n2nc(-c3c([H])c([H])c(Oc4c([H])c([H])c(F)c([H])c4F)c([H])c3[H])c(C(=O)N([H])[H])c2N([H])[H])C1([H])[H])=C([H])c1c([H])c([H])c(C([H])=C([H])C([H])([H])Oc2c([H])c([H])c3c(c2[H])C([H])([H])N(C(=O)C([H])(N([H])C(=O)C([H])(N([H])C([H])([H])[H])C([H])([H])[H])C(C([H])([H])[H])(C([H])([H])[H])C([H])([H])[H])C([H])(C(=O)N([H])C2([H])c4c([H])c([H])c([H])c([H])c4C([H])([H])C([H])([H])C2([H])[H])C3([H])[H])c(C([H])([H])[H])c1[H]

$$$$
43:0:0
     RDKit          3D

 92100  0  0  1  0  0  0  0  0999 V2000
  -30.6230  -21.1810   20.7760 C   0  0  0  0  0  3  0  0  0  0  0  0
  -29.7910  -22.0580   21.3750 C   0  0  0  0  0  3  0  0  0  0  0  0
  -29.8100  -19.0280   21.7980 C   0  0  0  0  0  3  0  0  0  0  0  0
  -29.7130  -17.6210   21.8160 C   0  0  0  0  0  3  0  0  0  0  0  0
  -30.9480  -17.5200   19.7310 C   0  0  0  0  0  3  0  0  0  0  0  0
  -30.4970  -19.7040   20.7630 C   0  0  0  0  0  0  0  0  0  0  0  0
  -31.0490  -18.9300   19.7100 C   0  0  0  0  0  0  0  0  0  0  0  0
  -30.2940  -16.8470   20.7920 C   0  0  0  0  0  0  0  0  0  0  0  0
  -31.7570  -19.5880   18.5350 C   0  0  0  0  0  1  0  0  0  0  0  0
  -30.7660  -14.4750   20.1370 C   0  0  0  0  0  0  0  0  0  0  0  0
  -30.3780  -12.3810   18.9020 C   0  0  0  0  0  2  0  0  0  0  0  0
  -29.3670  -12.6590   17.7710 C   0  0  0  0  0  2  0  0  0  0  0  0
  -27.9190  -12.5100   18.2810 C   0  0  0  0  0  2  0  0  0  0  0  0
  -27.6680  -13.2810   19.6040 C   0  0  0  0  0  3  0  0  0  0  0  0
  -28.7860  -12.9890   20.6320 C   0  0  0  0  0  2  0  0  0  0  0  0
  -30.0810  -13.3070   20.0050 N   0  0  0  0  0  0  0  0  0  0  0  0
  -31.8490  -14.6780   19.5800 O   0  0  0  0  0  0  0  0  0  0  0  0
  -30.1380  -15.4270   20.8530 N   0  0  0  0  0  0  0  0  0  0  0  0
  -29.3580  -15.0930   21.3980 H   0  0  0  0  0  0  0  0  0  0  0  0
  -25.3050  -13.8580   20.4520 C   0  0  0  0  0  0  0  0  0  0  0  0
  -24.2620  -13.0700   20.8610 C   0  0  0  0  0  0  0  0  0  0  0  0
  -24.7290  -11.7220   20.7760 C   0  0  0  0  0  0  0  0  0  0  0  0
  -26.3420  -12.9880   20.1480 N   0  0  0  0  0  0  0  0  0  0  0  0
  -26.0010  -11.6990   20.3980 N   0  0  0  0  0  0  0  0  0  0  0  0
  -24.0210  -10.4520   20.9780 C   0  0  0  0  0  0  0  0  0  0  0  0
  -24.4770   -9.4930   21.9100 C   0  0  0  0  0  3  0  0  0  0  0  0
  -23.7710   -8.2860   22.1000 C   0  0  0  0  0  3  0  0  0  0  0  0
  -22.5940   -8.0290   21.3590 C   0  0  0  0  0  0  0  0  0  0  0  0
  -22.1560   -8.9760   20.4160 C   0  0  0  0  0  3  0  0  0  0  0  0
  -22.8630  -10.1750   20.2240 C   0  0  0  0  0  3  0  0  0  0  0  0
  -21.8560   -6.8740   21.4580 O   0  0  0  0  0  0  0  0  0  0  0  0
  -21.7830   -6.1660   22.6320 C   0  0  0  0  0  0  0  0  0  0  0  0
  -21.2990   -6.7470   23.8240 C   0  0  0  0  0  3  0  0  0  0  0  0
  -21.1730   -5.9650   24.9880 C   0  0  0  0  0  3  0  0  0  0  0  0
  -21.5210   -4.6010   24.9620 C   0  0  0  0  0  0  0  0  0  0  0  0
  -21.9970   -4.0190   23.7740 C   0  0  0  0  0  3  0  0  0  0  0  0
  -22.1240   -4.7990   22.6120 C   0  0  0  0  0  0  0  0  0  0  0  0
  -22.5640   -4.2270   21.4650 F   0  0  0  0  0  0  0  0  0  0  0  0
  -21.3940   -3.8460   26.0790 F   0  0  0  0  0  0  0  0  0  0  0  0
  -22.8800  -13.5320   21.2210 C   0  0  0  0  0  0  0  0  0  0  0  0
  -22.2050  -12.8120   22.1100 N   0  0  0  0  0  0  0  0  0  0  0  0
  -22.4070  -14.5650   20.7480 O   0  0  0  0  0  0  0  0  0  0  0  0
  -22.6000  -11.9750   22.5130 H   0  0  0  0  0  0  0  0  0  0  0  0
  -21.2790  -13.1020   22.3920 H   0  0  0  0  0  0  0  0  0  0  0  0
  -25.4510  -15.2320   20.2950 N   0  0  0  0  0  0  0  0  0  0  0  0
  -24.6870  -15.8780   20.4620 H   0  0  0  0  0  0  0  0  0  0  0  0
  -26.2840  -15.6870   19.9400 H   0  0  0  0  0  0  0  0  0  0  0  0
  -30.0390  -23.5610   21.4600 C   0  0  0  0  0  2  0  0  0  0  0  0
  -29.1250  -24.4050   20.5610 C   0  0  0  0  0  0  0  0  0  0  0  0
  -28.8360  -24.0490   19.4140 O   0  0  0  0  0  0  0  0  0  0  0  0
  -28.6010  -25.7220   21.1560 C   0  0  0  0  0  2  0  0  0  0  0  0
  -28.5570  -26.7580   20.1690 O   0  0  0  0  0  0  0  0  0  0  0  0
  -24.6710  -31.8850   23.2330 C   0  0  0  0  0  0  0  0  0  0  0  0
  -27.3890  -27.4760   20.1900 C   0  0  0  0  0  0  0  0  0  0  0  0
  -23.4900  -30.4550   21.5930 C   0  0  0  0  0  3  0  0  0  0  0  0
  -24.9710  -28.9270   20.1870 C   0  0  0  0  0  0  0  0  0  0  0  0
  -26.0090  -30.8520   21.4010 C   0  0  0  0  0  2  0  0  0  0  0  0
  -26.1180  -29.4790   20.7740 C   0  0  0  0  0  0  0  0  0  0  0  0
  -27.3320  -28.7600   20.7740 C   0  0  0  0  0  3  0  0  0  0  0  0
  -26.2320  -26.9290   19.6020 C   0  0  0  0  0  3  0  0  0  0  0  0
  -25.0220  -27.6490   19.5990 C   0  0  0  0  0  3  0  0  0  0  0  0
  -23.7150  -29.7670   20.2210 C   0  0  0  0  0  2  0  0  0  0  0  0
  -24.7410  -31.0800   22.1340 N   0  0  0  0  0  0  0  0  0  0  0  0
  -23.5850  -32.1450   23.7680 O   0  0  0  0  0  0  0  0  0  0  0  0
  -22.8490  -29.4320   22.5580 C   0  0  0  0  0  0  0  0  0  0  0  0
  -21.5260  -29.2410   22.4370 N   0  0  0  0  0  0  0  0  0  0  0  0
  -23.5400  -28.8110   23.3710 O   0  0  0  0  0  0  0  0  0  0  0  0
  -21.0310  -29.7930   21.7500 H   0  0  0  0  0  0  0  0  0  0  0  0
  -18.1580  -28.0440   22.9560 C   0  0  0  0  0  0  0  0  0  0  0  0
  -20.7170  -28.3020   23.2110 C   0  0  0  0  0  3  0  0  0  0  0  0
  -20.8150  -26.8720   22.6310 C   0  0  0  0  0  2  0  0  0  0  0  0
  -19.7070  -26.5530   21.6220 C   0  0  0  0  0  2  0  0  0  0  0  0
  -18.3290  -26.6970   22.2740 C   0  0  0  0  0  2  0  0  0  0  0  0
  -19.2790  -28.8050   23.3810 C   0  0  0  0  0  0  0  0  0  0  0  0
  -19.0650  -30.0670   23.9740 C   0  0  0  0  0  3  0  0  0  0  0  0
  -17.7610  -30.5690   24.1490 C   0  0  0  0  0  3  0  0  0  0  0  0
  -16.6540  -29.8040   23.7430 C   0  0  0  0  0  3  0  0  0  0  0  0
  -16.8530  -28.5450   23.1510 C   0  0  0  0  0  3  0  0  0  0  0  0
  -25.9480  -32.5350   23.8530 C   0  0  0  0  0  3  0  0  0  0  0  0
  -26.4780  -31.7720   25.1280 C   0  0  1  0  0  0  0  0  0  0  0  0
  -25.3910  -31.5180   26.1970 C   0  0  0  0  0  1  0  0  0  0  0  0
  -27.0800  -30.4030   24.7320 C   0  0  0  0  0  1  0  0  0  0  0  0
  -27.6180  -32.5830   25.7880 C   0  0  0  0  0  1  0  0  0  0  0  0
  -25.6200  -33.9280   24.1790 N   0  0  0  0  0  0  0  0  0  0  0  0
  -25.9380  -34.9830   23.4160 C   0  0  0  0  0  0  0  0  0  0  0  0
  -26.6090  -34.8860   22.3850 O   0  0  0  0  0  0  0  0  0  0  0  0
  -25.0250  -34.0770   24.9810 H   0  0  0  0  0  0  0  0  0  0  0  0
  -24.1840  -36.7470   23.0510 C   0  0  0  0  0  1  0  0  0  0  0  0
  -25.4280  -36.3640   23.8680 C   0  0  0  0  0  3  0  0  0  0  0  0
  -27.5460  -37.2820   24.7050 C   0  0  0  0  0  1  0  0  0  0  0  0
  -26.4450  -37.4330   23.7570 N   0  0  0  0  0  0  0  0  0  0  0  0
  -26.0250  -38.3480   23.9030 H   0  0  0  0  0  0  0  0  0  0  0  0
  1  2  2  0
  2 48  1  0
  3  4  1  0
  5  8  1  0
  6  1  1  0
  6  3  2  0
  7  5  2  0
  7  6  1  0
  8 18  1  0
  8  4  2  0
  9  7  1  0
 10 18  1  0
 11 16  1  0
 12 13  1  0
 12 11  1  0
 14 13  1  0
 14 23  1  0
 14 15  1  0
 16 10  1  0
 16 15  1  0
 17 10  2  0
 18 19  1  0
 20 21  2  0
 21 40  1  0
 22 21  1  0
 22 25  1  0
 23 24  1  0
 23 20  1  0
 24 22  2  0
 25 26  1  0
 26 27  2  0
 28 31  1  0
 28 27  1  0
 29 28  2  0
 30 29  1  0
 30 25  2  0
 31 32  1  0
 32 33  1  0
 33 34  2  0
 35 34  1  0
 35 39  1  0
 36 35  2  0
 37 32  2  0
 37 36  1  0
 38 37  1  0
 40 41  1  0
 41 44  1  0
 41 43  1  0
 42 40  2  0
 45 20  1  0
 45 46  1  0
 47 45  1  0
 49 51  1  0
 49 48  1  0
 50 49  2  0
 52 54  1  0
 52 51  1  0
 53 64  2  0
 54 59  1  0
 55 63  1  0
 55 65  1  0
 56 62  1  0
 56 58  1  0
 57 63  1  0
 58 57  1  0
 59 58  2  0
 60 54  2  0
 61 60  1  0
 61 56  2  0
 62 55  1  0
 63 53  1  0
 65 67  2  0
 66 65  1  0
 68 66  1  0
 69 78  2  0
 69 74  1  0
 70 66  1  0
 70 74  1  0
 71 70  1  0
 72 73  1  0
 72 71  1  0
 73 69  1  0
 74 75  2  0
 75 76  1  0
 77 76  2  0
 78 77  1  0
 79 53  1  0
 79 84  1  0
 79 80  1  0
 80 83  1  1
 80 81  1  0
 82 80  1  0
 84 87  1  0
 85 89  1  0
 85 84  1  0
 86 85  2  0
 89 88  1  0
 91 89  1  0
 91 92  1  0
 91 90  1  0
M  ISO  4  10 100  18 100  51 101  52 101
M  END
>  <TORSDO>  (44) 
F 20

>  <SCORE>  (44) 
-13.054

>  <name>  (44) 
43

>  <ligand_id>  (44) 
43

>  <original_smiles>  (44) 
[H]C(=C([H])C([H])([H])C(=O)C([H])([H])Oc1c([H])c([H])c2c(c1[H])C([H])([H])N(C(=O)C([H])(N([H])C(=O)C([H])(N([H])C([H])([H])[H])C([H])([H])[H])C(C([H])([H])[H])(C([H])([H])[H])C([H])([H])[H])C([H])(C(=O)N([H])C1([H])c3c([H])c([H])c([H])c([H])c3C([H])([H])C([H])([H])C1([H])[H])C2([H])[H])c1c([H])c([H])c(N([H])C(=O)N2C([H])([H])C([H])([H])C([H])([H])C([H])(n3nc(-c4c([H])c([H])c(Oc5c([H])c([H])c(F)c([H])c5F)c([H])c4[H])c(C(=O)N([H])[H])c3N([H])[H])C2([H])[H])c([H])c1C([H])([H])[H]

>  <smiles>  (44) 
[H]C(=C([H])C([H])([H])C(=O)C([H])([H])Oc1c([H])c([H])c2c(c1[H])C([H])([H])N(C(=O)C([H])(N([H])C(=O)C([H])(N([H])C([H])([H])[H])C([H])([H])[H])C(C([H])([H])[H])(C([H])([H])[H])C([H])([H])[H])C([H])(C(=O)N([H])C1([H])c3c([H])c([H])c([H])c([H])c3C([H])([H])C([H])([H])C1([H])[H])C2([H])[H])c1c([H])c([H])c(N([H])C(=O)N2C([H])([H])C([H])([H])C([H])([H])C([H])(n3nc(-c4c([H])c([H])c(Oc5c([H])c([H])c(F)c([H])c5F)c([H])c4[H])c(C(=O)N([H])[H])c3N([H])[H])C2([H])[H])c([H])c1C([H])([H])[H]

$$$$
44:0:0
     RDKit          3D

 95103  0  0  1  0  0  0  0  0999 V2000
  -28.6040  -20.2550   19.3380 C   0  0  0  0  0  3  0  0  0  0  0  0
  -28.7120  -20.8820   16.9760 C   0  0  0  0  0  3  0  0  0  0  0  0
  -28.3290  -21.1560   18.2950 C   0  0  0  0  0  0  0  0  0  0  0  0
  -29.3410  -19.0800   19.0900 C   0  0  0  0  0  0  0  0  0  0  0  0
  -29.7290  -18.8180   17.7420 C   0  0  0  0  0  0  0  0  0  0  0  0
  -29.4160  -19.7140   16.7030 C   0  0  0  0  0  0  0  0  0  0  0  0
  -29.8190  -19.4610   15.4320 F   0  0  0  0  0  0  0  0  0  0  0  0
  -27.8610  -22.4850   18.5940 C   0  0  0  0  0  3  0  0  0  0  0  0
  -28.3720  -23.1740   19.6210 C   0  0  0  0  0  3  0  0  0  0  0  0
  -28.0660  -24.6100   19.8860 C   0  0  0  0  0  2  0  0  0  0  0  0
  -28.3340  -25.4690   18.6360 C   0  0  0  0  0  2  0  0  0  0  0  0
  -28.3510  -26.8290   19.0060 O   0  0  0  0  0  0  0  0  0  0  0  0
  -24.6140  -31.4210   22.8730 C   0  0  0  0  0  0  0  0  0  0  0  0
  -27.1370  -27.4540   19.1490 C   0  0  0  0  0  0  0  0  0  0  0  0
  -23.3280  -30.1830   21.1610 C   0  0  0  0  0  3  0  0  0  0  0  0
  -24.7120  -28.8420   19.4980 C   0  0  0  0  0  0  0  0  0  0  0  0
  -25.8280  -30.6140   20.8600 C   0  0  0  0  0  2  0  0  0  0  0  0
  -25.8910  -29.3300   20.0710 C   0  0  0  0  0  0  0  0  0  0  0  0
  -27.1020  -28.6340   19.9120 C   0  0  0  0  0  3  0  0  0  0  0  0
  -25.9360  -26.9670   18.5760 C   0  0  0  0  0  3  0  0  0  0  0  0
  -24.7230  -27.6480   18.7620 C   0  0  0  0  0  3  0  0  0  0  0  0
  -23.4590  -29.6570   19.7070 C   0  0  0  0  0  2  0  0  0  0  0  0
  -24.6120  -30.7470   21.6890 N   0  0  0  0  0  0  0  0  0  0  0  0
  -23.5650  -31.6160   23.4970 O   0  0  0  0  0  0  0  0  0  0  0  0
  -22.7560  -29.0500   22.0380 C   0  0  0  0  0  0  0  0  0  0  0  0
  -21.4410  -28.8040   21.9080 N   0  0  0  0  0  0  0  0  0  0  0  0
  -23.4870  -28.3980   22.7880 O   0  0  0  0  0  0  0  0  0  0  0  0
  -20.9090  -29.3890   21.2770 H   0  0  0  0  0  0  0  0  0  0  0  0
  -18.1600  -27.3510   22.2900 C   0  0  0  0  0  0  0  0  0  0  0  0
  -20.6900  -27.7580   22.5970 C   0  0  0  0  0  3  0  0  0  0  0  0
  -20.8950  -26.3900   21.9100 C   0  0  0  0  0  2  0  0  0  0  0  0
  -19.8160  -26.0730   20.8690 C   0  0  0  0  0  2  0  0  0  0  0  0
  -18.4310  -26.0730   21.5170 C   0  0  0  0  0  2  0  0  0  0  0  0
  -19.2230  -28.1530   22.7820 C   0  0  0  0  0  0  0  0  0  0  0  0
  -18.9170  -29.3550   23.4580 C   0  0  0  0  0  3  0  0  0  0  0  0
  -17.5810  -29.7610   23.6400 C   0  0  0  0  0  3  0  0  0  0  0  0
  -16.5320  -28.9510   23.1730 C   0  0  0  0  0  3  0  0  0  0  0  0
  -16.8220  -27.7460   22.5060 C   0  0  0  0  0  3  0  0  0  0  0  0
  -25.9330  -31.9980   23.4790 C   0  0  0  0  0  3  0  0  0  0  0  0
  -26.5580  -31.0810   24.5990 C   0  0  1  0  0  0  0  0  0  0  0  0
  -25.5380  -30.6180   25.6620 C   0  0  0  0  0  1  0  0  0  0  0  0
  -27.1970  -29.8180   23.9740 C   0  0  0  0  0  1  0  0  0  0  0  0
  -27.6900  -31.8410   25.3280 C   0  0  0  0  0  1  0  0  0  0  0  0
  -25.6190  -33.3300   24.0130 N   0  0  0  0  0  0  0  0  0  0  0  0
  -25.8930  -34.4830   23.3890 C   0  0  0  0  0  0  0  0  0  0  0  0
  -26.5180  -34.5400   22.3270 O   0  0  0  0  0  0  0  0  0  0  0  0
  -25.0740  -33.3610   24.8610 H   0  0  0  0  0  0  0  0  0  0  0  0
  -24.1330  -36.2760   23.3370 C   0  0  0  0  0  1  0  0  0  0  0  0
  -25.3990  -35.7810   24.0530 C   0  0  0  0  0  3  0  0  0  0  0  0
  -27.5320  -36.5860   24.9600 C   0  0  0  0  0  1  0  0  0  0  0  0
  -26.4120  -36.8580   24.0640 N   0  0  0  0  0  0  0  0  0  0  0  0
  -25.9940  -37.7420   24.3420 H   0  0  0  0  0  0  0  0  0  0  0  0
  -29.7290  -18.2510   20.1250 O   0  0  0  0  0  0  0  0  0  0  0  0
  -30.4650  -19.2990   22.2020 C   0  0  0  0  0  1  0  0  0  0  0  0
  -29.3540  -18.5380   21.4680 C   0  0  0  0  0  2  0  0  0  0  0  0
  -30.4040  -17.7260   17.2900 O   0  0  0  0  0  0  0  0  0  0  0  0
  -30.6190  -16.6370   18.1350 C   0  0  0  0  0  2  0  0  0  0  0  0
  -31.6800  -17.0610   19.1760 C   0  0  0  0  0  2  0  0  0  0  0  0
  -32.1450  -15.9370   20.1040 C   0  0  0  0  0  2  0  0  0  0  0  0
  -32.3930  -14.6800   19.2740 C   0  0  0  0  0  0  0  0  0  0  0  0
  -31.9550  -12.3120   18.7950 C   0  0  0  0  0  2  0  0  0  0  0  0
  -30.9510  -12.0420   17.6640 C   0  0  0  0  0  2  0  0  0  0  0  0
  -29.5180  -11.9940   18.2100 C   0  0  0  0  0  2  0  0  0  0  0  0
  -29.1750  -13.2400   19.0610 C   0  0  0  0  0  3  0  0  0  0  0  0
  -30.2880  -13.5280   20.1070 C   0  0  0  0  0  2  0  0  0  0  0  0
  -31.6120  -13.5810   19.4460 N   0  0  0  0  0  0  0  0  0  0  0  0
  -33.2820  -14.7480   18.4220 O   0  0  0  0  0  0  0  0  0  0  0  0
  -26.9260  -14.1070   19.9760 C   0  0  0  0  0  0  0  0  0  0  0  0
  -25.8290  -13.4490   20.4760 C   0  0  0  0  0  0  0  0  0  0  0  0
  -26.1600  -12.0610   20.4520 C   0  0  0  0  0  0  0  0  0  0  0  0
  -27.8570  -13.1190   19.6810 N   0  0  0  0  0  0  0  0  0  0  0  0
  -27.4040  -11.8870   20.0190 N   0  0  0  0  0  0  0  0  0  0  0  0
  -25.3440  -10.8800   20.7590 C   0  0  0  0  0  0  0  0  0  0  0  0
  -25.5580  -10.1160   21.9300 C   0  0  0  0  0  3  0  0  0  0  0  0
  -24.7480   -8.9950   22.2100 C   0  0  0  0  0  3  0  0  0  0  0  0
  -23.7100   -8.6310   21.3200 C   0  0  0  0  0  0  0  0  0  0  0  0
  -23.5160   -9.3790   20.1450 C   0  0  0  0  0  3  0  0  0  0  0  0
  -24.3270  -10.4920   19.8660 C   0  0  0  0  0  3  0  0  0  0  0  0
  -22.8950   -7.5390   21.4980 O   0  0  0  0  0  0  0  0  0  0  0  0
  -22.3440   -7.2420   22.7180 C   0  0  0  0  0  0  0  0  0  0  0  0
  -21.4620   -8.1290   23.3740 C   0  0  0  0  0  3  0  0  0  0  0  0
  -20.8700   -7.7570   24.5980 C   0  0  0  0  0  3  0  0  0  0  0  0
  -21.1470   -6.4970   25.1610 C   0  0  0  0  0  0  0  0  0  0  0  0
  -22.0160   -5.6090   24.5050 C   0  0  0  0  0  3  0  0  0  0  0  0
  -22.6130   -5.9800   23.2860 C   0  0  0  0  0  0  0  0  0  0  0  0
  -23.4400   -5.1140   22.6510 F   0  0  0  0  0  0  0  0  0  0  0  0
  -20.5690   -6.1320   26.3300 F   0  0  0  0  0  0  0  0  0  0  0  0
  -24.5170  -14.0680   20.8660 C   0  0  0  0  0  0  0  0  0  0  0  0
  -23.8450  -13.5010   21.8620 N   0  0  0  0  0  0  0  0  0  0  0  0
  -24.1010  -15.0890   20.3230 O   0  0  0  0  0  0  0  0  0  0  0  0
  -24.1960  -12.6730   22.3210 H   0  0  0  0  0  0  0  0  0  0  0  0
  -22.9720  -13.9060   22.1710 H   0  0  0  0  0  0  0  0  0  0  0  0
  -27.1900  -15.4500   19.7370 N   0  0  0  0  0  0  0  0  0  0  0  0
  -26.4960  -16.1670   19.9150 H   0  0  0  0  0  0  0  0  0  0  0  0
  -28.0300  -15.8090   19.3040 H   0  0  0  0  0  0  0  0  0  0  0  0
  2  3  1  0
  3  8  1  0
  3  1  2  0
  4  1  1  0
  4 53  1  0
  5  4  2  0
  6  2  2  0
  6  5  1  0
  7  6  1  0
  8  9  2  0
  9 10  1  0
 11 12  1  0
 11 10  1  0
 12 14  1  0
 13 24  2  0
 14 19  1  0
 15 23  1  0
 15 25  1  0
 16 22  1  0
 16 18  1  0
 17 23  1  0
 18 17  1  0
 19 18  2  0
 20 21  1  0
 20 14  2  0
 21 16  2  0
 22 15  1  0
 23 13  1  0
 25 27  2  0
 26 25  1  0
 28 26  1  0
 29 38  2  0
 29 34  1  0
 30 26  1  0
 30 34  1  0
 31 30  1  0
 32 33  1  0
 32 31  1  0
 33 29  1  0
 34 35  2  0
 35 36  1  0
 37 36  2  0
 38 37  1  0
 39 13  1  0
 39 44  1  0
 39 40  1  0
 40 43  1  1
 40 41  1  0
 42 40  1  0
 44 47  1  0
 45 44  1  0
 45 49  1  0
 46 45  2  0
 49 48  1  0
 49 51  1  0
 51 52  1  0
 51 50  1  0
 53 55  1  0
 55 54  1  0
 56  5  1  0
 56 57  1  0
 57 58  1  0
 58 59  1  0
 60 66  1  0
 60 59  1  0
 61 66  1  0
 62 63  1  0
 62 61  1  0
 64 63  1  0
 64 71  1  0
 64 65  1  0
 66 65  1  0
 67 60  2  0
 68 69  2  0
 69 88  1  0
 70 69  1  0
 70 73  1  0
 71 68  1  0
 71 72  1  0
 72 70  2  0
 73 74  1  0
 74 75  2  0
 76 79  1  0
 76 75  1  0
 77 76  2  0
 78 77  1  0
 78 73  2  0
 79 80  1  0
 80 85  2  0
 80 81  1  0
 81 82  2  0
 82 83  1  0
 83 87  1  0
 84 83  2  0
 85 84  1  0
 86 85  1  0
 88 89  1  0
 89 92  1  0
 89 91  1  0
 90 88  2  0
 93 94  1  0
 93 68  1  0
 95 93  1  0
M  ISO  4  11 101  12 101  59 100  60 100
M  END
>  <TORSDO>  (45) 
F 25

>  <SCORE>  (45) 
-7.585

>  <name>  (45) 
44

>  <ligand_id>  (45) 
44

>  <original_smiles>  (45) 
[H]C(=C([H])C([H])([H])C([H])([H])Oc1c([H])c([H])c2c(c1[H])C([H])([H])N(C(=O)C([H])(N([H])C(=O)C([H])(N([H])C([H])([H])[H])C([H])([H])[H])C(C([H])([H])[H])(C([H])([H])[H])C([H])([H])[H])C([H])(C(=O)N([H])C1([H])c3c([H])c([H])c([H])c([H])c3C([H])([H])C([H])([H])C1([H])[H])C2([H])[H])c1c([H])c(F)c(OC([H])([H])C([H])([H])C([H])([H])C(=O)N2C([H])([H])C([H])([H])C([H])([H])C([H])(n3nc(-c4c([H])c([H])c(Oc5c([H])c([H])c(F)c([H])c5F)c([H])c4[H])c(C(=O)N([H])[H])c3N([H])[H])C2([H])[H])c(OC([H])([H])C([H])([H])[H])c1[H]

>  <smiles>  (45) 
[H]C(=C([H])C([H])([H])C([H])([H])Oc1c([H])c([H])c2c(c1[H])C([H])([H])N(C(=O)C([H])(N([H])C(=O)C([H])(N([H])C([H])([H])[H])C([H])([H])[H])C(C([H])([H])[H])(C([H])([H])[H])C([H])([H])[H])C([H])(C(=O)N([H])C1([H])c3c([H])c([H])c([H])c([H])c3C([H])([H])C([H])([H])C1([H])[H])C2([H])[H])c1c([H])c(F)c(OC([H])([H])C([H])([H])C([H])([H])C(=O)N2C([H])([H])C([H])([H])C([H])([H])C([H])(n3nc(-c4c([H])c([H])c(Oc5c([H])c([H])c(F)c([H])c5F)c([H])c4[H])c(C(=O)N([H])[H])c3N([H])[H])C2([H])[H])c(OC([H])([H])C([H])([H])[H])c1[H]

$$$$
45:0:0
     RDKit          3D

 90 98  0  0  1  0  0  0  0  0999 V2000
  -29.7640  -20.0590   21.7270 C   0  0  0  0  0  3  0  0  0  0  0  0
  -29.9790  -18.6370   21.6490 C   0  0  0  0  0  3  0  0  0  0  0  0
  -29.7270  -20.1960   19.3780 C   0  0  0  0  0  3  0  0  0  0  0  0
  -29.5620  -20.9200   20.6060 C   0  0  0  0  0  0  0  0  0  0  0  0
  -30.0240  -17.8790   20.4360 C   0  0  0  0  0  0  0  0  0  0  0  0
  -29.9340  -18.7520   19.2850 C   0  0  0  0  0  0  0  0  0  0  0  0
  -29.9850  -18.1570   17.8870 C   0  0  0  0  0  1  0  0  0  0  0  0
  -29.7550  -16.3030   20.5150 C   0  0  0  0  0  0  0  0  0  0  0  0
  -28.6260  -16.0970   21.0490 N   0  0  0  0  0  0  0  0  0  0  0  0
  -28.1920  -16.9790   21.2940 H   0  0  0  0  0  0  0  0  0  0  0  0
  -30.6870  -15.0170   20.0380 C   0  0  0  0  0  0  0  0  0  0  0  0
  -30.5860  -12.7040   19.0080 C   0  0  0  0  0  2  0  0  0  0  0  0
  -29.5650  -12.7090   17.8410 C   0  0  0  0  0  2  0  0  0  0  0  0
  -28.1230  -12.4770   18.3410 C   0  0  0  0  0  2  0  0  0  0  0  0
  -27.7940  -13.3360   19.5890 C   0  0  0  0  0  3  0  0  0  0  0  0
  -28.9220  -13.2070   20.6370 C   0  0  0  0  0  2  0  0  0  0  0  0
  -30.1530  -13.7220   20.0080 N   0  0  0  0  0  0  0  0  0  0  0  0
  -31.8320  -15.1790   19.5950 O   0  0  0  0  0  0  0  0  0  0  0  0
  -25.4520  -13.9050   20.4670 C   0  0  0  0  0  0  0  0  0  0  0  0
  -24.4070  -13.1170   20.8700 C   0  0  0  0  0  0  0  0  0  0  0  0
  -24.8730  -11.7700   20.7740 C   0  0  0  0  0  0  0  0  0  0  0  0
  -26.4800  -13.0340   20.1450 N   0  0  0  0  0  0  0  0  0  0  0  0
  -26.1420  -11.7430   20.3890 N   0  0  0  0  0  0  0  0  0  0  0  0
  -24.1630  -10.5000   20.9720 C   0  0  0  0  0  0  0  0  0  0  0  0
  -24.6040   -9.5460   21.9150 C   0  0  0  0  0  3  0  0  0  0  0  0
  -23.8930   -8.3410   22.0990 C   0  0  0  0  0  3  0  0  0  0  0  0
  -22.7280   -8.0810   21.3390 C   0  0  0  0  0  0  0  0  0  0  0  0
  -22.3070   -9.0240   20.3840 C   0  0  0  0  0  3  0  0  0  0  0  0
  -23.0200  -10.2210   20.1980 C   0  0  0  0  0  3  0  0  0  0  0  0
  -21.9880   -6.9280   21.4300 O   0  0  0  0  0  0  0  0  0  0  0  0
  -21.8770   -6.2370   22.6090 C   0  0  0  0  0  0  0  0  0  0  0  0
  -21.3210   -6.8240   23.7680 C   0  0  0  0  0  3  0  0  0  0  0  0
  -21.1600   -6.0550   24.9370 C   0  0  0  0  0  3  0  0  0  0  0  0
  -21.5450   -4.7010   24.9500 C   0  0  0  0  0  0  0  0  0  0  0  0
  -22.0950   -4.1150   23.7970 C   0  0  0  0  0  3  0  0  0  0  0  0
  -22.2580   -4.8800   22.6290 C   0  0  0  0  0  0  0  0  0  0  0  0
  -22.7660   -4.3030   21.5140 F   0  0  0  0  0  0  0  0  0  0  0  0
  -21.3840   -3.9600   26.0720 F   0  0  0  0  0  0  0  0  0  0  0  0
  -23.0260  -13.5800   21.2370 C   0  0  0  0  0  0  0  0  0  0  0  0
  -22.3510  -12.8520   22.1190 N   0  0  0  0  0  0  0  0  0  0  0  0
  -22.5560  -14.6200   20.7790 O   0  0  0  0  0  0  0  0  0  0  0  0
  -22.7460  -12.0090   22.5090 H   0  0  0  0  0  0  0  0  0  0  0  0
  -21.4270  -13.1410   22.4050 H   0  0  0  0  0  0  0  0  0  0  0  0
  -25.6110  -15.2790   20.3310 N   0  0  0  0  0  0  0  0  0  0  0  0
  -24.9040  -15.9430   20.6240 H   0  0  0  0  0  0  0  0  0  0  0  0
  -26.5340  -15.6930   20.2340 H   0  0  0  0  0  0  0  0  0  0  0  0
  -29.1370  -22.4260   20.8610 C   0  0  0  0  0  3  0  0  0  0  0  0
  -28.9360  -23.6240   20.1580 C   0  0  0  0  0  3  0  0  0  0  0  0
  -28.2670  -24.9860   20.7400 C   0  0  0  0  0  2  0  0  0  0  0  0
  -28.5160  -26.4090   20.2380 O   0  0  0  0  0  0  0  0  0  0  0  0
  -24.6640  -31.9080   23.1940 C   0  0  0  0  0  0  0  0  0  0  0  0
  -27.4200  -27.3240   20.1960 C   0  0  0  0  0  0  0  0  0  0  0  0
  -23.5250  -30.4910   21.5260 C   0  0  0  0  0  3  0  0  0  0  0  0
  -25.0370  -28.9620   20.1280 C   0  0  0  0  0  0  0  0  0  0  0  0
  -26.0700  -30.8350   21.4050 C   0  0  0  0  0  2  0  0  0  0  0  0
  -26.1910  -29.4520   20.7540 C   0  0  0  0  0  0  0  0  0  0  0  0
  -27.3860  -28.6500   20.7710 C   0  0  0  0  0  3  0  0  0  0  0  0
  -26.2420  -26.9190   19.5330 C   0  0  0  0  0  3  0  0  0  0  0  0
  -25.0710  -27.7060   19.5030 C   0  0  0  0  0  3  0  0  0  0  0  0
  -23.7860  -29.8230   20.1510 C   0  0  0  0  0  2  0  0  0  0  0  0
  -24.7710  -31.0980   22.0980 N   0  0  0  0  0  0  0  0  0  0  0  0
  -23.5630  -32.1650   23.7040 O   0  0  0  0  0  0  0  0  0  0  0  0
  -22.8540  -29.4650   22.4720 C   0  0  0  0  0  0  0  0  0  0  0  0
  -21.5320  -29.2700   22.3210 N   0  0  0  0  0  0  0  0  0  0  0  0
  -23.5240  -28.8460   23.3010 O   0  0  0  0  0  0  0  0  0  0  0  0
  -21.0490  -29.8200   21.6230 H   0  0  0  0  0  0  0  0  0  0  0  0
  -18.1550  -28.0560   22.8010 C   0  0  0  0  0  0  0  0  0  0  0  0
  -20.7130  -28.3170   23.0740 C   0  0  0  0  0  3  0  0  0  0  0  0
  -20.8180  -26.8980   22.4690 C   0  0  0  0  0  2  0  0  0  0  0  0
  -19.7160  -26.5940   21.4480 C   0  0  0  0  0  2  0  0  0  0  0  0
  -18.3350  -26.7210   22.0950 C   0  0  0  0  0  2  0  0  0  0  0  0
  -19.2720  -28.8110   23.2460 C   0  0  0  0  0  0  0  0  0  0  0  0
  -19.0490  -30.0590   23.8670 C   0  0  0  0  0  3  0  0  0  0  0  0
  -17.7420  -30.5520   24.0440 C   0  0  0  0  0  3  0  0  0  0  0  0
  -16.6400  -29.7920   23.6150 C   0  0  0  0  0  3  0  0  0  0  0  0
  -16.8480  -28.5440   23.0000 C   0  0  0  0  0  3  0  0  0  0  0  0
  -25.9190  -32.5650   23.8480 C   0  0  0  0  0  3  0  0  0  0  0  0
  -26.4080  -31.8120   25.1450 C   0  0  1  0  0  0  0  0  0  0  0  0
  -25.2820  -31.5430   26.1710 C   0  0  0  0  0  1  0  0  0  0  0  0
  -27.0480  -30.4510   24.7840 C   0  0  0  0  0  1  0  0  0  0  0  0
  -27.5110  -32.6390   25.8460 C   0  0  0  0  0  1  0  0  0  0  0  0
  -25.5780  -33.9610   24.1630 N   0  0  0  0  0  0  0  0  0  0  0  0
  -25.9220  -35.0170   23.4120 C   0  0  0  0  0  0  0  0  0  0  0  0
  -26.6240  -34.9180   22.4030 O   0  0  0  0  0  0  0  0  0  0  0  0
  -24.9590  -34.1110   24.9450 H   0  0  0  0  0  0  0  0  0  0  0  0
  -24.1940  -36.7950   22.9910 C   0  0  0  0  0  1  0  0  0  0  0  0
  -25.4060  -36.4000   23.8510 C   0  0  0  0  0  3  0  0  0  0  0  0
  -27.4940  -37.3060   24.7730 C   0  0  0  0  0  1  0  0  0  0  0  0
  -26.4340  -37.4630   23.7810 N   0  0  0  0  0  0  0  0  0  0  0  0
  -26.0140  -38.3800   23.9090 H   0  0  0  0  0  0  0  0  0  0  0  0
  2  1  1  0
  3  4  1  0
  4 47  1  0
  4  1  2  0
  5  8  1  0
  5  2  2  0
  6  3  2  0
  6  5  1  0
  7  6  1  0
  8  9  2  0
  9 10  1  0
 11  8  1  0
 12 17  1  0
 13 14  1  0
 13 12  1  0
 15 14  1  0
 15 22  1  0
 15 16  1  0
 17 11  1  0
 17 16  1  0
 18 11  2  0
 19 20  2  0
 20 39  1  0
 21 20  1  0
 21 24  1  0
 22 23  1  0
 22 19  1  0
 23 21  2  0
 24 25  1  0
 25 26  2  0
 27 30  1  0
 27 26  1  0
 28 27  2  0
 29 28  1  0
 29 24  2  0
 30 31  1  0
 31 36  2  0
 31 32  1  0
 32 33  2  0
 33 34  1  0
 34 38  1  0
 35 34  2  0
 36 35  1  0
 37 36  1  0
 39 40  1  0
 40 43  1  0
 40 42  1  0
 41 39  2  0
 44 19  1  0
 44 45  1  0
 46 44  1  0
 48 49  1  0
 48 47  2  0
 50 49  1  0
 51 62  2  0
 52 50  1  0
 52 57  1  0
 53 61  1  0
 53 63  1  0
 54 60  1  0
 54 56  1  0
 55 61  1  0
 56 57  2  0
 56 55  1  0
 58 52  2  0
 59 58  1  0
 59 54  2  0
 60 53  1  0
 61 51  1  0
 63 65  2  0
 64 63  1  0
 66 64  1  0
 67 76  2  0
 67 72  1  0
 68 64  1  0
 68 72  1  0
 69 68  1  0
 70 71  1  0
 70 69  1  0
 71 67  1  0
 72 73  2  0
 73 74  1  0
 75 74  2  0
 76 75  1  0
 77 51  1  0
 77 82  1  0
 77 78  1  0
 78 81  1  1
 78 79  1  0
 80 78  1  0
 82 85  1  0
 83 87  1  0
 83 82  1  0
 84 83  2  0
 87 86  1  0
 89 87  1  0
 89 90  1  0
 89 88  1  0
M  ISO  4   8 100  11 100  49 101  50 101
M  END
>  <TORSDO>  (46) 
F 19

>  <SCORE>  (46) 
-13.479

>  <name>  (46) 
45

>  <ligand_id>  (46) 
45

>  <original_smiles>  (46) 
[H]N=C(C(=O)N1C([H])([H])C([H])([H])C([H])([H])C([H])(n2nc(-c3c([H])c([H])c(Oc4c([H])c([H])c(F)c([H])c4F)c([H])c3[H])c(C(=O)N([H])[H])c2N([H])[H])C1([H])[H])c1c([H])c([H])c(C([H])=C([H])C([H])([H])Oc2c([H])c([H])c3c(c2[H])C([H])([H])N(C(=O)C([H])(N([H])C(=O)C([H])(N([H])C([H])([H])[H])C([H])([H])[H])C(C([H])([H])[H])(C([H])([H])[H])C([H])([H])[H])C([H])(C(=O)N([H])C2([H])c4c([H])c([H])c([H])c([H])c4C([H])([H])C([H])([H])C2([H])[H])C3([H])[H])c([H])c1C([H])([H])[H]

>  <smiles>  (46) 
[H]N=C(C(=O)N1C([H])([H])C([H])([H])C([H])([H])C([H])(n2nc(-c3c([H])c([H])c(Oc4c([H])c([H])c(F)c([H])c4F)c([H])c3[H])c(C(=O)N([H])[H])c2N([H])[H])C1([H])[H])c1c([H])c([H])c(C([H])=C([H])C([H])([H])Oc2c([H])c([H])c3c(c2[H])C([H])([H])N(C(=O)C([H])(N([H])C(=O)C([H])(N([H])C([H])([H])[H])C([H])([H])[H])C(C([H])([H])[H])(C([H])([H])[H])C([H])([H])[H])C([H])(C(=O)N([H])C2([H])c4c([H])c([H])c([H])c([H])c4C([H])([H])C([H])([H])C2([H])[H])C3([H])[H])c([H])c1C([H])([H])[H]

$$$$
46:0:0
     RDKit          3D

 95 92  0  0  1  0  0  0  0  0999 V2000
  -21.1180  -27.2440   25.7970 C   0  0  0  0  0  0  0  0  0  0  0  0
  -21.0210  -27.9680   26.7900 O   0  0  0  0  0  0  0  0  0  0  0  0
  -18.5870  -28.5280   21.6000 C   0  0  0  0  0  1  0  0  0  0  0  0
  -19.6030  -27.2750   20.7500 C   0  0  0  0  0  2  0  0  0  0  0  0
  -20.3460  -26.1010   23.7180 C   0  0  0  0  0  1  0  0  0  0  0  0
  -19.7870  -27.0830   24.7860 C   0  0  0  0  0  3  0  0  0  0  0  0
  -18.7090  -28.2430   24.2240 C   0  0  0  0  0  2  0  0  0  0  0  0
  -20.5660  -26.0180   21.5300 C   0  0  0  0  0  1  0  0  0  0  0  0
  -18.1350  -28.9540   25.5030 C   0  0  0  0  0  1  0  0  0  0  0  0
  -21.8230  -24.5090   20.7840 O   0  0  0  0  0 15  0  0  0  0  0  0
  -23.3090  -22.6740   21.0210 C   0  0  0  0  0 15  0  0  0  0  0  0
  -25.0440  -20.7050   20.5040 C   0  0  0  0  0 15  0  0  0  0  0  0
  -26.6220  -18.5630   20.7640 C   0  0  0  0  0 15  0  0  0  0  0  0
  -28.3410  -16.7890   20.4200 C   0  0  0  0  0  2  0  0  0  0  0  0
  -29.8500  -14.2280   19.6300 C   0  0  0  0  0  2  0  0  0  0  0  0
  -29.4390  -13.1190   18.5370 C   0  0  0  0  0  2  0  0  0  0  0  0
  -28.1940  -12.3370   18.9520 C   0  0  0  0  0  2  0  0  0  0  0  0
  -27.3890  -13.3120   19.8050 C   0  0  0  0  0  3  0  0  0  0  0  0
  -28.1160  -13.9860   20.9720 C   0  0  0  0  0  2  0  0  0  0  0  0
  -28.6920  -15.1910   20.3310 N   0  0  0  0  0  0  0  0  0  0  0  0
  -29.6390  -16.8950   20.2400 O   0  0  0  0  0  1  0  0  0  0  0  0
  -25.1200  -13.7990   20.5560 C   0  0  0  0  0  0  0  0  0  0  0  0
  -24.0900  -13.0130   20.9390 C   0  0  0  0  0  0  0  0  0  0  0  0
  -24.5780  -11.6690   20.8880 C   0  0  0  0  0  0  0  0  0  0  0  0
  -26.1340  -12.9160   20.2780 N   0  0  0  0  0  0  0  0  0  0  0  0
  -25.8580  -11.6310   20.5540 N   0  0  0  0  0  0  0  0  0  0  0  0
  -23.8710  -10.4090   21.0530 C   0  0  0  0  0  0  0  0  0  0  0  0
  -24.3420   -9.4070   21.9250 C   0  0  0  0  0  3  0  0  0  0  0  0
  -23.6180   -8.2070   22.0770 C   0  0  0  0  0  3  0  0  0  0  0  0
  -22.4160   -8.0120   21.3550 C   0  0  0  0  0  0  0  0  0  0  0  0
  -21.9730   -9.0040   20.4640 C   0  0  0  0  0  3  0  0  0  0  0  0
  -22.6970  -10.1940   20.3090 C   0  0  0  0  0  3  0  0  0  0  0  0
  -21.6560   -6.8730   21.4230 O   0  0  0  0  0  0  0  0  0  0  0  0
  -21.6800   -6.0650   22.5290 C   0  0  0  0  0  0  0  0  0  0  0  0
  -21.3970   -6.5600   23.8210 C   0  0  0  0  0  3  0  0  0  0  0  0
  -21.3640   -5.6770   24.9190 C   0  0  0  0  0  3  0  0  0  0  0  0
  -21.6040   -4.3030   24.7250 C   0  0  0  0  0  0  0  0  0  0  0  0
  -21.8830   -3.8100   23.4380 C   0  0  0  0  0  3  0  0  0  0  0  0
  -21.9180   -4.6890   22.3430 C   0  0  0  0  0  0  0  0  0  0  0  0
  -22.1660   -4.2100   21.1000 F   0  0  0  0  0  0  0  0  0  0  0  0
  -21.5630   -3.4520   25.7770 F   0  0  0  0  0  0  0  0  0  0  0  0
  -22.7060  -13.4950   21.2110 C   0  0  0  0  0  0  0  0  0  0  0  0
  -21.9810  -12.7980   22.0730 N   0  0  0  0  0  0  0  0  0  0  0  0
  -22.2840  -14.5290   20.6950 O   0  0  0  0  0  0  0  0  0  0  0  0
  -22.3460  -11.9640   22.5080 H   0  0  0  0  0  0  0  0  0  0  0  0
  -21.0470  -13.1050   22.3050 H   0  0  0  0  0  0  0  0  0  0  0  0
  -25.2730  -15.1760   20.3870 N   0  0  0  0  0  0  0  0  0  0  0  0
  -24.4710  -15.7920   20.4560 H   0  0  0  0  0  0  0  0  0  0  0  0
  -26.0310  -15.5690   19.8490 H   0  0  0  0  0  0  0  0  0  0  0  0
  -22.5930  -26.5330   25.4840 C   0  0  0  0  0  2  0  0  0  0  0  0
  -23.8740  -26.9710   24.9560 C   0  0  0  0  0  2  0  0  0  0  0  0
  -25.1690  -26.2520   24.0950 C   0  0  0  0  0  2  0  0  0  0  0  0
  -27.5320  -27.2930   23.9090 C   0  0  0  0  0  1  0  0  0  0  0  0
  -26.3220  -26.9910   23.0120 C   0  0  0  0  0  3  0  0  0  0  0  0
  -27.1300  -26.5610   21.6770 O   0  0  0  0  0  0  0  0  0  0  0  0
  -24.6570  -31.9710   23.1430 C   0  0  0  0  0  0  0  0  0  0  0  0
  -26.9560  -27.3840   20.5790 C   0  0  0  0  0  0  0  0  0  0  0  0
  -23.4940  -30.6320   21.4130 C   0  0  0  0  0  3  0  0  0  0  0  0
  -24.9070  -29.1060   19.9680 C   0  0  0  0  0  0  0  0  0  0  0  0
  -25.9960  -30.9630   21.2760 C   0  0  0  0  0  2  0  0  0  0  0  0
  -26.0460  -29.5910   20.6260 C   0  0  0  0  0  0  0  0  0  0  0  0
  -27.1540  -28.7530   20.8140 C   0  0  0  0  0  3  0  0  0  0  0  0
  -25.9690  -26.9450   19.6800 C   0  0  0  0  0  3  0  0  0  0  0  0
  -24.8880  -27.8060   19.4180 C   0  0  0  0  0  3  0  0  0  0  0  0
  -23.7110  -30.0320   19.9880 C   0  0  0  0  0  2  0  0  0  0  0  0
  -24.7280  -31.2530   21.9790 N   0  0  0  0  0  0  0  0  0  0  0  0
  -23.5670  -32.2070   23.6880 O   0  0  0  0  0  0  0  0  0  0  0  0
  -23.1590  -29.4770   22.3120 C   0  0  0  0  0  0  0  0  0  0  0  0
  -22.2840  -28.6070   21.8980 N   0  0  0  0  0  0  0  0  0  0  0  0
  -23.7900  -29.2760   23.3360 O   0  0  0  0  0  0  0  0  0  0  0  0
  -21.7620  -28.7250   21.0430 H   0  0  0  0  0  0  0  0  0  0  0  0
  -18.3910  -26.6740   22.7120 C   0  0  0  0  0  3  0  0  0  0  0  0
  -21.9180  -27.6050   22.8130 C   0  0  0  0  0  2  0  0  0  0  0  0
  -22.3510  -25.5150   22.8400 C   0  0  0  0  0 15  0  0  0  0  0  0
  -20.5080  -24.0740   22.7030 C   0  0  0  0  0 15  0  0  0  0  0  0
  -18.6330  -24.9330   22.5200 C   0  0  0  0  0  1  0  0  0  0  0  0
  -20.3650  -28.2120   22.7880 C   0  0  0  0  0  3  0  0  0  0  0  0
  -19.8330  -29.9130   23.0550 C   0  0  0  0  0  3  0  0  0  0  0  0
  -18.1720  -30.3480   23.1780 C   0  0  0  0  0  3  0  0  0  0  0  0
  -16.8400  -29.3070   23.1030 C   0  0  0  0  0  3  0  0  0  0  0  0
  -16.8670  -27.6020   22.9040 C   0  0  0  0  0  3  0  0  0  0  0  0
  -25.9340  -32.5310   23.8330 C   0  0  0  0  0  3  0  0  0  0  0  0
  -25.6140  -33.8970   24.2410 N   0  0  0  0  0  0  0  0  0  0  0  0
  -25.9070  -34.9760   23.5100 C   0  0  0  0  0  0  0  0  0  0  0  0
  -26.5510  -34.9170   22.4590 O   0  0  0  0  0  0  0  0  0  0  0  0
  -25.0460  -34.0080   25.0680 H   0  0  0  0  0  0  0  0  0  0  0  0
  -24.1490  -36.7480   23.2600 C   0  0  0  0  0  1  0  0  0  0  0  0
  -25.4100  -36.3330   24.0330 C   0  0  0  0  0  3  0  0  0  0  0  0
  -27.5600  -37.1920   24.8450 C   0  0  0  0  0  1  0  0  0  0  0  0
  -26.4290  -37.3990   23.9440 N   0  0  0  0  0  0  0  0  0  0  0  0
  -26.0200  -38.3060   24.1520 H   0  0  0  0  0  0  0  0  0  0  0  0
  -26.4420  -31.6970   25.0710 C   0  0  1  0  0  0  0  0  0  0  0  0
  -25.3570  -31.4030   26.1320 C   0  0  0  0  0  1  0  0  0  0  0  0
  -27.0220  -30.3550   24.6040 C   0  0  0  0  0  1  0  0  0  0  0  0
  -27.6040  -32.4470   25.7640 C   0  0  0  0  0  1  0  0  0  0  0  0
  1  2  2  0
  4  8  1  0
  4  3  1  0
  6  5  1  0
  6  1  1  0
  7  6  1  0
  7  9  1  0
 15 20  1  0
 16 17  1  0
 16 15  1  0
 18 17  1  0
 18 25  1  0
 18 19  1  0
 20 14  1  0
 20 19  1  0
 21 14  1  0
 22 23  2  0
 23 42  1  0
 24 23  1  0
 24 27  1  0
 25 26  1  0
 25 22  1  0
 26 24  2  0
 27 28  1  0
 28 29  2  0
 30 33  1  0
 30 29  1  0
 31 30  2  0
 32 31  1  0
 32 27  2  0
 33 34  1  0
 34 35  1  0
 35 36  2  0
 37 36  1  0
 37 41  1  0
 38 37  2  0
 39 34  2  0
 39 38  1  0
 40 39  1  0
 42 43  1  0
 43 46  1  0
 43 45  1  0
 44 42  2  0
 47 48  1  0
 47 22  1  0
 49 47  1  0
 50  1  1  0
 51 50  1  0
 52 51  1  0
 54 53  1  0
 54 52  1  0
 55 54  1  0
 56 67  2  0
 57 62  1  0
 57 55  1  0
 58 66  1  0
 58 68  1  0
 59 65  1  0
 59 61  1  0
 60 66  1  0
 61 62  2  0
 61 60  1  0
 63 57  2  0
 64 63  1  0
 64 59  2  0
 65 58  1  0
 66 56  1  0
 68 70  2  0
 69 68  1  0
 69 73  1  0
 71 69  1  0
 72 81  2  0
 76 72  1  0
 77 73  1  0
 77 78  2  0
 78 79  1  0
 80 79  2  0
 81 80  1  0
 82 56  1  0
 82 83  1  0
 82 92  1  0
 83 86  1  0
 84 88  1  0
 84 83  1  0
 85 84  2  0
 88 87  1  0
 90 88  1  0
 90 91  1  0
 90 89  1  0
 92 95  1  1
 92 93  1  0
 94 92  1  0
M  ISO  4  13 100  14 100  54 101  55 101
M  END
>  <TORSDO>  (47) 
F 24

>  <SCORE>  (47) 
18.668

>  <name>  (47) 
46

>  <ligand_id>  (47) 
46

>  <original_smiles>  (47) 
[H]C(C(=O)c1c([H])c(OC([H])([H])C([H])([H])C([H])([H])C(=O)N2C([H])([H])C([H])([H])C([H])([H])C([H])(n3nc(-c4c([H])c([H])c(Oc5c([H])c([H])c(F)c([H])c5F)c([H])c4[H])c(C(=O)N([H])[H])c3N([H])[H])C2([H])[H])c([H])c([H])c1C([H])([H])[H])=C([H])C([H])([H])C([H])(Oc1c([H])c([H])c2c(c1[H])C([H])([H])N(C(=O)C([H])(N([H])C(=O)C([H])(N([H])C([H])([H])[H])C([H])([H])[H])C(C([H])([H])[H])(C([H])([H])[H])C([H])([H])[H])C([H])(C(=O)N([H])C1([H])c3c([H])c([H])c([H])c([H])c3C([H])([H])C([H])([H])C1([H])[H])C2([H])[H])C([H])([H])[H]

>  <smiles>  (47) 
[H]C(C(=O)c1c([H])c(OC([H])([H])C([H])([H])C([H])([H])C(=O)N2C([H])([H])C([H])([H])C([H])([H])C([H])(n3nc(-c4c([H])c([H])c(Oc5c([H])c([H])c(F)c([H])c5F)c([H])c4[H])c(C(=O)N([H])[H])c3N([H])[H])C2([H])[H])c([H])c([H])c1C([H])([H])[H])=C([H])C([H])([H])C([H])(Oc1c([H])c([H])c2c(c1[H])C([H])([H])N(C(=O)C([H])(N([H])C(=O)C([H])(N([H])C([H])([H])[H])C([H])([H])[H])C(C([H])([H])[H])(C([H])([H])[H])C([H])([H])[H])C([H])(C(=O)N([H])C1([H])c3c([H])c([H])c([H])c([H])c3C([H])([H])C([H])([H])C1([H])[H])C2([H])[H])C([H])([H])[H]

$$$$
47:0:0
     RDKit          3D

 89 98  0  0  1  0  0  0  0  0999 V2000
  -30.7140  -14.8300   20.3170 C   0  0  0  0  0  0  0  0  0  0  0  0
  -30.4750  -12.4980   19.4260 C   0  0  0  0  0  2  0  0  0  0  0  0
  -29.5610  -12.4880   18.1830 C   0  0  0  0  0  2  0  0  0  0  0  0
  -28.0870  -12.3440   18.6020 C   0  0  0  0  0  2  0  0  0  0  0  0
  -27.6970  -13.3020   19.7600 C   0  0  0  0  0  3  0  0  0  0  0  0
  -28.7410  -13.2930   20.8980 C   0  0  0  0  0  2  0  0  0  0  0  0
  -30.0330  -13.6250   20.2880 N   0  0  0  0  0  0  0  0  0  0  0  0
  -31.9140  -14.8140   20.0180 O   0  0  0  0  0  0  0  0  0  0  0  0
  -28.2850  -20.5680   21.0510 C   0  0  0  0  0  3  0  0  0  0  0  0
  -28.2130  -19.2120   21.5100 C   0  0  0  0  0  3  0  0  0  0  0  0
  -29.9040  -19.9000   19.3900 C   0  0  0  0  0  3  0  0  0  0  0  0
  -29.1190  -20.9760   19.9670 C   0  0  0  0  0  0  0  0  0  0  0  0
  -28.9890  -18.1930   20.9000 C   0  0  0  0  0  0  0  0  0  0  0  0
  -29.8270  -18.5340   19.8630 C   0  0  0  0  0  0  0  0  0  0  0  0
  -29.0670  -16.6730   21.1940 C   0  0  0  0  0  3  0  0  0  0  0  0
  -30.5440  -17.2350   19.4190 C   0  0  0  0  0  3  0  0  0  0  0  0
  -30.0300  -16.0560   20.2250 N   0  0  0  0  0  0  0  0  0  0  0  0
  -25.3180  -13.9400   20.4620 C   0  0  0  0  0  0  0  0  0  0  0  0
  -24.2370  -13.1890   20.8360 C   0  0  0  0  0  0  0  0  0  0  0  0
  -24.6780  -11.8300   20.8300 C   0  0  0  0  0  0  0  0  0  0  0  0
  -26.3490  -13.0390   20.2480 N   0  0  0  0  0  0  0  0  0  0  0  0
  -25.9700  -11.7670   20.5340 N   0  0  0  0  0  0  0  0  0  0  0  0
  -23.9270  -10.5840   21.0320 C   0  0  0  0  0  0  0  0  0  0  0  0
  -24.3550   -9.6040   21.9560 C   0  0  0  0  0  3  0  0  0  0  0  0
  -23.6040   -8.4240   22.1460 C   0  0  0  0  0  3  0  0  0  0  0  0
  -22.4110   -8.2150   21.4130 C   0  0  0  0  0  0  0  0  0  0  0  0
  -22.0030   -9.1820   20.4790 C   0  0  0  0  0  3  0  0  0  0  0  0
  -22.7540  -10.3540   20.2860 C   0  0  0  0  0  3  0  0  0  0  0  0
  -21.6310   -7.0880   21.5140 O   0  0  0  0  0  0  0  0  0  0  0  0
  -21.6100   -6.3280   22.6560 C   0  0  0  0  0  0  0  0  0  0  0  0
  -21.2690   -6.8780   23.9110 C   0  0  0  0  0  3  0  0  0  0  0  0
  -21.1920   -6.0470   25.0460 C   0  0  0  0  0  3  0  0  0  0  0  0
  -21.4430   -4.6670   24.9280 C   0  0  0  0  0  0  0  0  0  0  0  0
  -21.7760   -4.1160   23.6780 C   0  0  0  0  0  3  0  0  0  0  0  0
  -21.8560   -4.9450   22.5450 C   0  0  0  0  0  0  0  0  0  0  0  0
  -22.1560   -4.4050   21.3390 F   0  0  0  0  0  0  0  0  0  0  0  0
  -21.3610   -3.8670   26.0170 F   0  0  0  0  0  0  0  0  0  0  0  0
  -22.8460  -13.6960   21.0860 C   0  0  0  0  0  0  0  0  0  0  0  0
  -22.1010  -13.0320   21.9620 N   0  0  0  0  0  0  0  0  0  0  0  0
  -22.4300  -14.7150   20.5370 O   0  0  0  0  0  0  0  0  0  0  0  0
  -22.4510  -12.2080   22.4280 H   0  0  0  0  0  0  0  0  0  0  0  0
  -21.1680  -13.3550   22.1730 H   0  0  0  0  0  0  0  0  0  0  0  0
  -25.5040  -15.3040   20.2590 N   0  0  0  0  0  0  0  0  0  0  0  0
  -24.7410  -15.9660   20.3430 H   0  0  0  0  0  0  0  0  0  0  0  0
  -26.3500  -15.7190   19.8930 H   0  0  0  0  0  0  0  0  0  0  0  0
  -29.1520  -22.4400   19.4240 C   0  0  0  0  0  3  0  0  0  0  0  0
  -28.5590  -23.6500   19.7920 C   0  0  0  0  0  3  0  0  0  0  0  0
  -28.6310  -25.0400   18.9920 C   0  0  0  0  0  2  0  0  0  0  0  0
  -28.5400  -26.4000   19.6460 O   0  0  0  0  0  0  0  0  0  0  0  0
  -24.6870  -31.6310   22.9040 C   0  0  0  0  0  0  0  0  0  0  0  0
  -27.3960  -27.2430   19.6090 C   0  0  0  0  0  0  0  0  0  0  0  0
  -23.5040  -30.2560   21.2310 C   0  0  0  0  0  3  0  0  0  0  0  0
  -24.9810  -28.8160   19.7100 C   0  0  0  0  0  0  0  0  0  0  0  0
  -26.0320  -30.6600   21.0170 C   0  0  0  0  0  2  0  0  0  0  0  0
  -26.1470  -29.3080   20.3070 C   0  0  0  0  0  0  0  0  0  0  0  0
  -27.3520  -28.5330   20.2490 C   0  0  0  0  0  3  0  0  0  0  0  0
  -26.1960  -26.8180   18.9960 C   0  0  0  0  0  3  0  0  0  0  0  0
  -25.0120  -27.5810   19.0450 C   0  0  0  0  0  3  0  0  0  0  0  0
  -23.7170  -29.6470   19.8200 C   0  0  0  0  0  2  0  0  0  0  0  0
  -24.7610  -30.8670   21.7740 N   0  0  0  0  0  0  0  0  0  0  0  0
  -23.6030  -31.8470   23.4690 O   0  0  0  0  0  0  0  0  0  0  0  0
  -22.8960  -29.1790   22.1620 C   0  0  0  0  0  0  0  0  0  0  0  0
  -21.5690  -28.9830   22.0790 N   0  0  0  0  0  0  0  0  0  0  0  0
  -23.6170  -28.5240   22.9190 O   0  0  0  0  0  0  0  0  0  0  0  0
  -21.0430  -29.5650   21.4420 H   0  0  0  0  0  0  0  0  0  0  0  0
  -18.2340  -27.7000   22.6590 C   0  0  0  0  0  0  0  0  0  0  0  0
  -20.7990  -27.9900   22.8300 C   0  0  0  0  0  3  0  0  0  0  0  0
  -20.8960  -26.5950   22.1710 C   0  0  0  0  0  2  0  0  0  0  0  0
  -19.7550  -26.3100   21.1880 C   0  0  0  0  0  2  0  0  0  0  0  0
  -18.4020  -26.3940   21.9000 C   0  0  0  0  0  2  0  0  0  0  0  0
  -19.3600  -28.4560   23.0820 C   0  0  0  0  0  0  0  0  0  0  0  0
  -19.1480  -29.6790   23.7560 C   0  0  0  0  0  3  0  0  0  0  0  0
  -17.8430  -30.1460   24.0080 C   0  0  0  0  0  3  0  0  0  0  0  0
  -16.7340  -29.3850   23.5990 C   0  0  0  0  0  3  0  0  0  0  0  0
  -16.9310  -28.1640   22.9310 C   0  0  0  0  0  3  0  0  0  0  0  0
  -25.9550  -32.2890   23.5290 C   0  0  0  0  0  3  0  0  0  0  0  0
  -25.5820  -33.6380   23.9790 N   0  0  0  0  0  0  0  0  0  0  0  0
  -25.8350  -34.7660   23.3030 C   0  0  0  0  0  0  0  0  0  0  0  0
  -26.4780  -34.7820   22.2490 O   0  0  0  0  0  0  0  0  0  0  0  0
  -25.0040  -33.6950   24.8050 H   0  0  0  0  0  0  0  0  0  0  0  0
  -24.0040  -36.4850   23.1490 C   0  0  0  0  0  1  0  0  0  0  0  0
  -25.2920  -36.0860   23.8860 C   0  0  0  0  0  3  0  0  0  0  0  0
  -27.4070  -37.0180   24.7160 C   0  0  0  0  0  1  0  0  0  0  0  0
  -26.2630  -37.2000   23.8270 N   0  0  0  0  0  0  0  0  0  0  0  0
  -25.8150  -38.0810   24.0620 H   0  0  0  0  0  0  0  0  0  0  0  0
  -26.5600  -31.4550   24.7260 C   0  0  1  0  0  0  0  0  0  0  0  0
  -25.5250  -31.0870   25.8140 C   0  0  0  0  0  1  0  0  0  0  0  0
  -27.1920  -30.1410   24.2140 C   0  0  0  0  0  1  0  0  0  0  0  0
  -27.6970  -32.2590   25.4010 C   0  0  0  0  0  1  0  0  0  0  0  0
  2  7  1  0
  3  4  1  0
  3  2  1  0
  5  4  1  0
  5 21  1  0
  5  6  1  0
  7  1  1  0
  7  6  1  0
  8  1  2  0
  9 10  2  0
 11 14  1  0
 11 12  2  0
 12  9  1  0
 13 15  2  0
 13 10  1  0
 14 13  1  0
 16 14  2  0
 16 17  1  0
 17  1  1  0
 17 15  1  0
 18 19  2  0
 19 38  1  0
 20 19  1  0
 20 23  1  0
 21 18  1  0
 21 22  1  0
 22 20  2  0
 23 24  1  0
 24 25  2  0
 26 29  1  0
 26 25  1  0
 27 26  2  0
 28 27  1  0
 28 23  2  0
 29 30  1  0
 30 31  1  0
 31 32  2  0
 33 32  1  0
 33 37  1  0
 34 33  2  0
 35 30  2  0
 35 34  1  0
 36 35  1  0
 38 39  1  0
 39 42  1  0
 39 41  1  0
 40 38  2  0
 43 44  1  0
 43 18  1  0
 45 43  1  0
 46 47  2  0
 46 12  1  0
 48 49  1  0
 48 47  1  0
 50 61  2  0
 51 49  1  0
 51 56  1  0
 52 60  1  0
 52 62  1  0
 53 59  1  0
 53 55  1  0
 54 60  1  0
 55 54  1  0
 56 55  2  0
 57 58  1  0
 57 51  2  0
 58 53  2  0
 59 52  1  0
 60 50  1  0
 62 64  2  0
 63 62  1  0
 65 63  1  0
 66 75  2  0
 66 71  1  0
 67 63  1  0
 67 71  1  0
 68 67  1  0
 69 70  1  0
 69 68  1  0
 70 66  1  0
 71 72  2  0
 72 73  1  0
 74 73  2  0
 75 74  1  0
 76 50  1  0
 76 77  1  0
 76 86  1  0
 77 80  1  0
 78 82  1  0
 78 77  1  0
 79 78  2  0
 82 81  1  0
 84 82  1  0
 84 85  1  0
 84 83  1  0
 86 89  1  1
 86 87  1  0
 88 86  1  0
M  ISO  4   1 100  17 100  48 101  49 101
M  END
>  <TORSDO>  (48) 
F 17

>  <SCORE>  (48) 
-12.234

>  <name>  (48) 
47

>  <ligand_id>  (48) 
47

>  <original_smiles>  (48) 
[H]C(=C([H])C([H])([H])Oc1c([H])c([H])c2c(c1[H])C([H])([H])N(C(=O)C([H])(N([H])C(=O)C([H])(N([H])C([H])([H])[H])C([H])([H])[H])C(C([H])([H])[H])(C([H])([H])[H])C([H])([H])[H])C([H])(C(=O)N([H])C1([H])c3c([H])c([H])c([H])c([H])c3C([H])([H])C([H])([H])C1([H])[H])C2([H])[H])c1c([H])c([H])c2c(c1[H])C([H])([H])N(C(=O)N1C([H])([H])C([H])([H])C([H])([H])C([H])(n3nc(-c4c([H])c([H])c(Oc5c([H])c([H])c(F)c([H])c5F)c([H])c4[H])c(C(=O)N([H])[H])c3N([H])[H])C1([H])[H])C2([H])[H]

>  <smiles>  (48) 
[H]C(=C([H])C([H])([H])Oc1c([H])c([H])c2c(c1[H])C([H])([H])N(C(=O)C([H])(N([H])C(=O)C([H])(N([H])C([H])([H])[H])C([H])([H])[H])C(C([H])([H])[H])(C([H])([H])[H])C([H])([H])[H])C([H])(C(=O)N([H])C1([H])c3c([H])c([H])c([H])c([H])c3C([H])([H])C([H])([H])C1([H])[H])C2([H])[H])c1c([H])c([H])c2c(c1[H])C([H])([H])N(C(=O)N1C([H])([H])C([H])([H])C([H])([H])C([H])(n3nc(-c4c([H])c([H])c(Oc5c([H])c([H])c(F)c([H])c5F)c([H])c4[H])c(C(=O)N([H])[H])c3N([H])[H])C1([H])[H])C2([H])[H]

$$$$
48:0:0
     RDKit          3D

 92100  0  0  1  0  0  0  0  0999 V2000
  -32.0550  -18.4080   22.1550 C   0  0  0  0  0  3  0  0  0  0  0  0
  -31.5630  -17.1490   21.7850 C   0  0  0  0  0  3  0  0  0  0  0  0
  -30.0890  -19.5160   21.1780 C   0  0  0  0  0  0  0  0  0  0  0  0
  -31.3330  -19.5850   21.8720 C   0  0  0  0  0  0  0  0  0  0  0  0
  -29.5990  -18.2170   20.8010 C   0  0  0  0  0  0  0  0  0  0  0  0
  -30.3340  -17.0270   21.1070 C   0  0  0  0  0  0  0  0  0  0  0  0
  -31.9250  -20.8820   22.4030 C   0  0  0  0  0  1  0  0  0  0  0  0
  -28.2750  -18.1010   20.0490 C   0  0  0  0  0  1  0  0  0  0  0  0
  -30.4870  -14.7100   20.1690 C   0  0  0  0  0  0  0  0  0  0  0  0
  -30.1260  -12.6050   18.9230 C   0  0  0  0  0  2  0  0  0  0  0  0
  -29.1140  -12.8420   17.7840 C   0  0  0  0  0  2  0  0  0  0  0  0
  -27.6710  -12.6560   18.2950 C   0  0  0  0  0  2  0  0  0  0  0  0
  -27.3970  -13.4330   19.6100 C   0  0  0  0  0  3  0  0  0  0  0  0
  -28.5180  -13.1940   20.6450 C   0  0  0  0  0  2  0  0  0  0  0  0
  -29.8000  -13.5430   20.0110 N   0  0  0  0  0  0  0  0  0  0  0  0
  -31.5810  -14.9020   19.6330 O   0  0  0  0  0  0  0  0  0  0  0  0
  -29.8330  -15.7110   20.8060 N   0  0  0  0  0  0  0  0  0  0  0  0
  -28.8750  -15.5200   21.0560 H   0  0  0  0  0  0  0  0  0  0  0  0
  -25.0270  -13.9630   20.4610 C   0  0  0  0  0  0  0  0  0  0  0  0
  -23.9970  -13.1570   20.8660 C   0  0  0  0  0  0  0  0  0  0  0  0
  -24.4860  -11.8180   20.7750 C   0  0  0  0  0  0  0  0  0  0  0  0
  -26.0770  -13.1130   20.1530 N   0  0  0  0  0  0  0  0  0  0  0  0
  -25.7580  -11.8160   20.3980 N   0  0  0  0  0  0  0  0  0  0  0  0
  -23.7970  -10.5350   20.9680 C   0  0  0  0  0  0  0  0  0  0  0  0
  -24.2790   -9.5680   21.8780 C   0  0  0  0  0  3  0  0  0  0  0  0
  -23.5890   -8.3500   22.0600 C   0  0  0  0  0  3  0  0  0  0  0  0
  -22.4030   -8.0900   21.3330 C   0  0  0  0  0  0  0  0  0  0  0  0
  -21.9410   -9.0470   20.4120 C   0  0  0  0  0  3  0  0  0  0  0  0
  -22.6320  -10.2560   20.2280 C   0  0  0  0  0  3  0  0  0  0  0  0
  -21.6820   -6.9250   21.4260 O   0  0  0  0  0  0  0  0  0  0  0  0
  -21.6630   -6.1800   22.5780 C   0  0  0  0  0  0  0  0  0  0  0  0
  -21.1990   -6.7110   23.8010 C   0  0  0  0  0  3  0  0  0  0  0  0
  -21.1320   -5.8900   24.9450 C   0  0  0  0  0  3  0  0  0  0  0  0
  -21.5170   -4.5390   24.8660 C   0  0  0  0  0  0  0  0  0  0  0  0
  -21.9750   -4.0070   23.6470 C   0  0  0  0  0  3  0  0  0  0  0  0
  -22.0440   -4.8250   22.5050 C   0  0  0  0  0  0  0  0  0  0  0  0
  -22.4650   -4.3020   21.3290 F   0  0  0  0  0  0  0  0  0  0  0  0
  -21.4460   -3.7470   25.9610 F   0  0  0  0  0  0  0  0  0  0  0  0
  -22.6070  -13.5960   21.2230 C   0  0  0  0  0  0  0  0  0  0  0  0
  -21.9390  -12.8600   22.1050 N   0  0  0  0  0  0  0  0  0  0  0  0
  -22.1210  -14.6260   20.7580 O   0  0  0  0  0  0  0  0  0  0  0  0
  -22.3460  -12.0260   22.5030 H   0  0  0  0  0  0  0  0  0  0  0  0
  -21.0100  -13.1340   22.3880 H   0  0  0  0  0  0  0  0  0  0  0  0
  -25.1520  -15.3410   20.3080 N   0  0  0  0  0  0  0  0  0  0  0  0
  -24.3730  -15.9710   20.4630 H   0  0  0  0  0  0  0  0  0  0  0  0
  -25.9610  -15.8020   19.9150 H   0  0  0  0  0  0  0  0  0  0  0  0
  -29.2980  -20.7470   20.8260 C   0  0  0  0  0  3  0  0  0  0  0  0
  -29.7230  -22.0030   20.5270 C   0  0  0  0  0  3  0  0  0  0  0  0
  -28.8070  -23.1000   20.2130 C   0  0  0  0  0  3  0  0  0  0  0  0
  -29.1490  -24.3870   19.9460 C   0  0  0  0  0  3  0  0  0  0  0  0
  -28.1190  -25.4380   19.5200 C   0  0  0  0  0  2  0  0  0  0  0  0
  -28.2710  -26.7880   20.0320 O   0  0  0  0  0  0  0  0  0  0  0  0
  -24.5310  -31.9850   23.2520 C   0  0  0  0  0  0  0  0  0  0  0  0
  -27.1210  -27.5800   20.0190 C   0  0  0  0  0  0  0  0  0  0  0  0
  -23.3020  -30.6150   21.6060 C   0  0  0  0  0  3  0  0  0  0  0  0
  -24.7320  -29.1270   20.1140 C   0  0  0  0  0  0  0  0  0  0  0  0
  -25.8300  -30.9730   21.3770 C   0  0  0  0  0  2  0  0  0  0  0  0
  -25.9070  -29.6180   20.6990 C   0  0  0  0  0  0  0  0  0  0  0  0
  -27.1020  -28.8510   20.6540 C   0  0  0  0  0  3  0  0  0  0  0  0
  -25.9220  -27.1410   19.4010 C   0  0  0  0  0  3  0  0  0  0  0  0
  -24.7380  -27.8870   19.4630 C   0  0  0  0  0  3  0  0  0  0  0  0
  -23.4890  -29.9790   20.2060 C   0  0  0  0  0  2  0  0  0  0  0  0
  -24.5740  -31.2050   22.1350 N   0  0  0  0  0  0  0  0  0  0  0  0
  -23.4570  -32.2410   23.8150 O   0  0  0  0  0  0  0  0  0  0  0  0
  -22.6730  -29.5660   22.5520 C   0  0  0  0  0  0  0  0  0  0  0  0
  -21.3580  -29.3390   22.4080 N   0  0  0  0  0  0  0  0  0  0  0  0
  -23.3670  -28.9610   23.3740 O   0  0  0  0  0  0  0  0  0  0  0  0
  -20.8560  -29.8840   21.7210 H   0  0  0  0  0  0  0  0  0  0  0  0
  -18.0280  -27.9900   22.8220 C   0  0  0  0  0  0  0  0  0  0  0  0
  -20.5620  -28.3710   23.1650 C   0  0  0  0  0  3  0  0  0  0  0  0
  -20.7470  -26.9400   22.6110 C   0  0  0  0  0  2  0  0  0  0  0  0
  -19.6930  -26.5550   21.5690 C   0  0  0  0  0  2  0  0  0  0  0  0
  -18.2870  -26.6430   22.1700 C   0  0  0  0  0  2  0  0  0  0  0  0
  -19.0970  -28.8090   23.2750 C   0  0  0  0  0  0  0  0  0  0  0  0
  -18.8020  -30.0680   23.8420 C   0  0  0  0  0  3  0  0  0  0  0  0
  -17.4710  -30.5100   23.9620 C   0  0  0  0  0  3  0  0  0  0  0  0
  -16.4160  -29.6890   23.5260 C   0  0  0  0  0  3  0  0  0  0  0  0
  -16.6960  -28.4310   22.9620 C   0  0  0  0  0  3  0  0  0  0  0  0
  -25.8240  -32.6100   23.8600 C   0  0  0  0  0  3  0  0  0  0  0  0
  -26.3560  -31.8310   25.1250 C   0  0  1  0  0  0  0  0  0  0  0  0
  -25.2730  -31.5760   26.2000 C   0  0  0  0  0  1  0  0  0  0  0  0
  -26.9450  -30.4610   24.7170 C   0  0  0  0  0  1  0  0  0  0  0  0
  -27.5070  -32.6270   25.7850 C   0  0  0  0  0  1  0  0  0  0  0  0
  -25.5210  -34.0060   24.2010 N   0  0  0  0  0  0  0  0  0  0  0  0
  -25.8360  -35.0610   23.4370 C   0  0  0  0  0  0  0  0  0  0  0  0
  -26.4860  -34.9610   22.3930 O   0  0  0  0  0  0  0  0  0  0  0  0
  -24.9380  -34.1580   25.0100 H   0  0  0  0  0  0  0  0  0  0  0  0
  -24.0980  -36.8510   23.1250 C   0  0  0  0  0  1  0  0  0  0  0  0
  -25.3570  -36.4480   23.9080 C   0  0  0  0  0  3  0  0  0  0  0  0
  -27.5030  -37.3380   24.7020 C   0  0  0  0  0  1  0  0  0  0  0  0
  -26.3860  -37.5020   23.7760 N   0  0  0  0  0  0  0  0  0  0  0  0
  -25.9800  -38.4220   23.9290 H   0  0  0  0  0  0  0  0  0  0  0  0
  2  1  2  0
  3  4  2  0
  4  1  1  0
  4  7  1  0
  5  6  2  0
  5  3  1  0
  6  2  1  0
  8  5  1  0
  9 17  1  0
 10 15  1  0
 11 12  1  0
 11 10  1  0
 13 12  1  0
 13 22  1  0
 13 14  1  0
 15  9  1  0
 15 14  1  0
 16  9  2  0
 17 18  1  0
 17  6  1  0
 19 20  2  0
 20 39  1  0
 21 20  1  0
 21 24  1  0
 22 23  1  0
 22 19  1  0
 23 21  2  0
 24 25  1  0
 25 26  2  0
 27 30  1  0
 27 26  1  0
 28 27  2  0
 29 28  1  0
 29 24  2  0
 30 31  1  0
 31 32  1  0
 32 33  2  0
 34 33  1  0
 34 38  1  0
 35 34  2  0
 36 31  2  0
 36 35  1  0
 37 36  1  0
 39 40  1  0
 40 43  1  0
 40 42  1  0
 41 39  2  0
 44 19  1  0
 44 45  1  0
 46 44  1  0
 47  3  1  0
 48 47  2  0
 49 48  1  0
 50 49  2  0
 51 50  1  0
 51 52  1  0
 53 64  2  0
 54 52  1  0
 54 59  1  0
 55 63  1  0
 55 65  1  0
 56 62  1  0
 56 58  1  0
 57 63  1  0
 58 57  1  0
 59 58  2  0
 60 61  1  0
 60 54  2  0
 61 56  2  0
 62 55  1  0
 63 53  1  0
 65 67  2  0
 66 65  1  0
 68 66  1  0
 69 78  2  0
 69 74  1  0
 70 66  1  0
 70 74  1  0
 71 70  1  0
 72 73  1  0
 72 71  1  0
 73 69  1  0
 74 75  2  0
 75 76  1  0
 77 76  2  0
 78 77  1  0
 79 53  1  0
 79 84  1  0
 79 80  1  0
 80 83  1  1
 80 81  1  0
 82 80  1  0
 84 87  1  0
 85 89  1  0
 85 84  1  0
 86 85  2  0
 89 88  1  0
 91 89  1  0
 91 92  1  0
 91 90  1  0
M  ISO  4   9 100  17 100  51 101  52 101
M  END
>  <TORSDO>  (49) 
F 19

>  <SCORE>  (49) 
-13.773

>  <name>  (49) 
48

>  <ligand_id>  (49) 
48

>  <original_smiles>  (49) 
[H]C(C([H])=C([H])C([H])([H])Oc1c([H])c([H])c2c(c1[H])C([H])([H])N(C(=O)C([H])(N([H])C(=O)C([H])(N([H])C([H])([H])[H])C([H])([H])[H])C(C([H])([H])[H])(C([H])([H])[H])C([H])([H])[H])C([H])(C(=O)N([H])C1([H])c3c([H])c([H])c([H])c([H])c3C([H])([H])C([H])([H])C1([H])[H])C2([H])[H])=C([H])c1c(C([H])([H])[H])c([H])c([H])c(N([H])C(=O)N2C([H])([H])C([H])([H])C([H])([H])C([H])(n3nc(-c4c([H])c([H])c(Oc5c([H])c([H])c(F)c([H])c5F)c([H])c4[H])c(C(=O)N([H])[H])c3N([H])[H])C2([H])[H])c1C([H])([H])[H]

>  <smiles>  (49) 
[H]C(C([H])=C([H])C([H])([H])Oc1c([H])c([H])c2c(c1[H])C([H])([H])N(C(=O)C([H])(N([H])C(=O)C([H])(N([H])C([H])([H])[H])C([H])([H])[H])C(C([H])([H])[H])(C([H])([H])[H])C([H])([H])[H])C([H])(C(=O)N([H])C1([H])c3c([H])c([H])c([H])c([H])c3C([H])([H])C([H])([H])C1([H])[H])C2([H])[H])=C([H])c1c(C([H])([H])[H])c([H])c([H])c(N([H])C(=O)N2C([H])([H])C([H])([H])C([H])([H])C([H])(n3nc(-c4c([H])c([H])c(Oc5c([H])c([H])c(F)c([H])c5F)c([H])c4[H])c(C(=O)N([H])[H])c3N([H])[H])C2([H])[H])c1C([H])([H])[H]

$$$$
49:0:0
     RDKit          3D

 95103  0  0  1  0  0  0  0  0999 V2000
  -29.6870  -20.5200   19.6730 O   0  0  0  0  0  0  0  0  0  0  0  0
  -30.3160  -19.4570   21.8130 C   0  0  0  0  0  3  0  0  0  0  0  0
  -30.2220  -18.1200   19.7900 C   0  0  0  0  0  3  0  0  0  0  0  0
  -30.6870  -18.3220   22.5690 C   0  0  0  0  0  0  0  0  0  0  0  0
  -30.8540  -17.0690   21.9100 C   0  0  0  0  0  0  0  0  0  0  0  0
  -30.5970  -16.9440   20.5170 C   0  0  0  0  0  0  0  0  0  0  0  0
  -30.0770  -19.3960   20.4220 C   0  0  0  0  0  0  0  0  0  0  0  0
  -31.2430  -15.8330   22.7160 C   0  0  0  0  0  1  0  0  0  0  0  0
  -31.2030  -14.5570   19.7010 C   0  0  0  0  0  0  0  0  0  0  0  0
  -30.7890  -12.3820   18.5750 C   0  0  0  0  0  2  0  0  0  0  0  0
  -29.7490  -12.6110   17.4530 C   0  0  0  0  0  2  0  0  0  0  0  0
  -28.3070  -12.5370   18.0000 C   0  0  0  0  0  2  0  0  0  0  0  0
  -28.1120  -13.3860   19.2840 C   0  0  0  0  0  3  0  0  0  0  0  0
  -29.2410  -13.1010   20.2990 C   0  0  0  0  0  2  0  0  0  0  0  0
  -30.5250  -13.3750   19.6280 N   0  0  0  0  0  0  0  0  0  0  0  0
  -32.3600  -14.6890   19.2890 O   0  0  0  0  0  0  0  0  0  0  0  0
  -30.3880  -15.6150   19.9800 N   0  0  0  0  0  0  0  0  0  0  0  0
  -29.4510  -15.2800   20.1330 H   0  0  0  0  0  0  0  0  0  0  0  0
  -25.8350  -14.1450   20.2080 C   0  0  0  0  0  0  0  0  0  0  0  0
  -24.7440  -13.4410   20.6400 C   0  0  0  0  0  0  0  0  0  0  0  0
  -25.0970  -12.0610   20.5330 C   0  0  0  0  0  0  0  0  0  0  0  0
  -26.7880  -13.1970   19.8680 N   0  0  0  0  0  0  0  0  0  0  0  0
  -26.3520  -11.9360   20.1240 N   0  0  0  0  0  0  0  0  0  0  0  0
  -24.2950  -10.8500   20.7460 C   0  0  0  0  0  0  0  0  0  0  0  0
  -24.7170   -9.8300   21.6290 C   0  0  0  0  0  3  0  0  0  0  0  0
  -23.9190   -8.6830   21.8310 C   0  0  0  0  0  3  0  0  0  0  0  0
  -22.6860   -8.5490   21.1500 C   0  0  0  0  0  0  0  0  0  0  0  0
  -22.2800   -9.5560   20.2580 C   0  0  0  0  0  3  0  0  0  0  0  0
  -23.0780  -10.6950   20.0540 C   0  0  0  0  0  3  0  0  0  0  0  0
  -21.8580   -7.4580   21.2660 O   0  0  0  0  0  0  0  0  0  0  0  0
  -21.8210   -6.7010   22.4080 C   0  0  0  0  0  0  0  0  0  0  0  0
  -21.5370   -7.2680   23.6690 C   0  0  0  0  0  3  0  0  0  0  0  0
  -21.4410   -6.4430   24.8070 C   0  0  0  0  0  3  0  0  0  0  0  0
  -21.6190   -5.0520   24.6850 C   0  0  0  0  0  0  0  0  0  0  0  0
  -21.8970   -4.4840   23.4290 C   0  0  0  0  0  3  0  0  0  0  0  0
  -21.9950   -5.3070   22.2930 C   0  0  0  0  0  0  0  0  0  0  0  0
  -22.2430   -4.7530   21.0820 F   0  0  0  0  0  0  0  0  0  0  0  0
  -21.5180   -4.2580   25.7760 F   0  0  0  0  0  0  0  0  0  0  0  0
  -23.4110  -14.0110   21.0330 C   0  0  0  0  0  0  0  0  0  0  0  0
  -22.7140  -13.3550   21.9540 N   0  0  0  0  0  0  0  0  0  0  0  0
  -23.0000  -15.0680   20.5570 O   0  0  0  0  0  0  0  0  0  0  0  0
  -23.0610  -12.4960   22.3550 H   0  0  0  0  0  0  0  0  0  0  0  0
  -21.8200  -13.7130   22.2580 H   0  0  0  0  0  0  0  0  0  0  0  0
  -26.0850  -15.5060   20.0550 N   0  0  0  0  0  0  0  0  0  0  0  0
  -25.3790  -16.2030   20.2670 H   0  0  0  0  0  0  0  0  0  0  0  0
  -26.9180  -15.9040   19.6440 H   0  0  0  0  0  0  0  0  0  0  0  0
  -30.6710  -19.5460   24.7960 C   0  0  0  0  0  2  0  0  0  0  0  0
  -30.8260  -18.4390   24.0460 C   0  0  0  0  0  3  0  0  0  0  0  0
  -29.1080  -21.7310   20.2720 C   0  0  0  0  0  2  0  0  0  0  0  0
  -29.7210  -24.2890   20.2740 C   0  0  0  0  0  3  0  0  0  0  0  0
  -30.0580  -22.9620   20.3410 C   0  0  0  0  0  0  0  0  0  0  0  0
  -31.8960  -22.2370   21.9380 C   0  0  0  0  0  1  0  0  0  0  0  0
  -31.5340  -22.6240   20.4980 C   0  0  0  0  0  2  0  0  0  0  0  0
  -28.3730  -25.0170   20.1540 C   0  0  0  0  0  2  0  0  0  0  0  0
  -28.4900  -26.4680   20.3380 O   0  0  0  0  0  0  0  0  0  0  0  0
  -24.6820  -31.8530   23.1940 C   0  0  0  0  0  0  0  0  0  0  0  0
  -27.3430  -27.2590   20.2710 C   0  0  0  0  0  0  0  0  0  0  0  0
  -23.4960  -30.4120   21.5750 C   0  0  0  0  0  3  0  0  0  0  0  0
  -24.9660  -28.8330   20.2050 C   0  0  0  0  0  0  0  0  0  0  0  0
  -26.0340  -30.7410   21.4110 C   0  0  0  0  0  2  0  0  0  0  0  0
  -26.1240  -29.3520   20.7970 C   0  0  0  0  0  0  0  0  0  0  0  0
  -27.3150  -28.5730   20.8200 C   0  0  0  0  0  3  0  0  0  0  0  0
  -26.1580  -26.7770   19.6680 C   0  0  0  0  0  3  0  0  0  0  0  0
  -24.9820  -27.5500   19.6340 C   0  0  0  0  0  3  0  0  0  0  0  0
  -23.7250  -29.7020   20.2160 C   0  0  0  0  0  2  0  0  0  0  0  0
  -24.7550  -31.0190   22.1180 N   0  0  0  0  0  0  0  0  0  0  0  0
  -23.5930  -32.1450   23.7100 O   0  0  0  0  0  0  0  0  0  0  0  0
  -22.8240  -29.4190   22.5540 C   0  0  0  0  0  0  0  0  0  0  0  0
  -21.5010  -29.2250   22.4040 N   0  0  0  0  0  0  0  0  0  0  0  0
  -23.4900  -28.8250   23.4050 O   0  0  0  0  0  0  0  0  0  0  0  0
  -21.0240  -29.7580   21.6920 H   0  0  0  0  0  0  0  0  0  0  0  0
  -18.1330  -27.9730   22.8230 C   0  0  0  0  0  0  0  0  0  0  0  0
  -20.6740  -28.3020   23.1820 C   0  0  0  0  0  3  0  0  0  0  0  0
  -20.8270  -26.8500   22.6750 C   0  0  0  0  0  2  0  0  0  0  0  0
  -19.7730  -26.4570   21.6350 C   0  0  0  0  0  2  0  0  0  0  0  0
  -18.3640  -26.5980   22.2170 C   0  0  0  0  0  2  0  0  0  0  0  0
  -19.2190  -28.7770   23.2600 C   0  0  0  0  0  0  0  0  0  0  0  0
  -18.9540  -30.0590   23.7870 C   0  0  0  0  0  3  0  0  0  0  0  0
  -17.6370  -30.5440   23.8790 C   0  0  0  0  0  3  0  0  0  0  0  0
  -16.5630  -29.7380   23.4620 C   0  0  0  0  0  3  0  0  0  0  0  0
  -16.8120  -28.4550   22.9410 C   0  0  0  0  0  3  0  0  0  0  0  0
  -25.9600  -32.4970   23.8160 C   0  0  0  0  0  3  0  0  0  0  0  0
  -25.6360  -33.8920   24.1500 N   0  0  0  0  0  0  0  0  0  0  0  0
  -25.9640  -34.9490   23.3960 C   0  0  0  0  0  0  0  0  0  0  0  0
  -26.6430  -34.8530   22.3700 O   0  0  0  0  0  0  0  0  0  0  0  0
  -25.0360  -34.0400   24.9480 H   0  0  0  0  0  0  0  0  0  0  0  0
  -24.2220  -36.7250   23.0370 C   0  0  0  0  0  1  0  0  0  0  0  0
  -25.4610  -36.3320   23.8550 C   0  0  0  0  0  3  0  0  0  0  0  0
  -27.5850  -37.2330   24.6890 C   0  0  0  0  0  1  0  0  0  0  0  0
  -26.4830  -37.3950   23.7450 N   0  0  0  0  0  0  0  0  0  0  0  0
  -26.0680  -38.3110   23.8950 H   0  0  0  0  0  0  0  0  0  0  0  0
  -26.4830  -31.7300   25.0930 C   0  0  1  0  0  0  0  0  0  0  0  0
  -25.3920  -31.4840   26.1620 C   0  0  0  0  0  1  0  0  0  0  0  0
  -27.0830  -30.3600   24.6980 C   0  0  0  0  0  1  0  0  0  0  0  0
  -27.6230  -32.5380   25.7530 C   0  0  0  0  0  1  0  0  0  0  0  0
  1 49  1  0
  1  7  1  0
  2  4  1  0
  3  7  1  0
  3  6  2  0
  4 48  1  0
  5  4  2  0
  5  8  1  0
  6  5  1  0
  7  2  2  0
  9 17  1  0
 10 15  1  0
 11 12  1  0
 11 10  1  0
 13 12  1  0
 13 22  1  0
 13 14  1  0
 15  9  1  0
 15 14  1  0
 16  9  2  0
 17 18  1  0
 17  6  1  0
 19 20  2  0
 20 39  1  0
 21 20  1  0
 21 24  1  0
 22 23  1  0
 22 19  1  0
 23 21  2  0
 24 25  1  0
 25 26  2  0
 27 30  1  0
 27 26  1  0
 28 27  2  0
 29 28  1  0
 29 24  2  0
 30 31  1  0
 31 32  1  0
 32 33  2  0
 34 33  1  0
 34 38  1  0
 35 34  2  0
 36 31  2  0
 36 35  1  0
 37 36  1  0
 39 40  1  0
 40 43  1  0
 40 42  1  0
 41 39  2  0
 44 19  1  0
 44 45  1  0
 46 44  1  0
 48 47  2  0
 49 51  1  0
 50 51  2  0
 51 53  1  0
 53 52  1  0
 54 50  1  0
 54 55  1  0
 56 67  2  0
 57 55  1  0
 57 62  1  0
 58 66  1  0
 58 68  1  0
 59 65  1  0
 59 61  1  0
 60 66  1  0
 61 62  2  0
 61 60  1  0
 63 57  2  0
 64 63  1  0
 64 59  2  0
 65 58  1  0
 66 56  1  0
 68 70  2  0
 69 68  1  0
 71 69  1  0
 72 81  2  0
 72 77  1  0
 73 69  1  0
 73 77  1  0
 74 73  1  0
 75 76  1  0
 75 74  1  0
 76 72  1  0
 77 78  2  0
 78 79  1  0
 80 79  2  0
 81 80  1  0
 82 56  1  0
 82 83  1  0
 82 92  1  0
 83 86  1  0
 84 88  1  0
 84 83  1  0
 85 84  2  0
 88 87  1  0
 90 88  1  0
 90 91  1  0
 90 89  1  0
 92 95  1  1
 92 93  1  0
 94 92  1  0
M  ISO  4   9 100  17 100  54 101  55 101
M  END
>  <TORSDO>  (50) 
F 22

>  <SCORE>  (50) 
-9.752

>  <name>  (50) 
49

>  <ligand_id>  (50) 
49

>  <original_smiles>  (50) 
[H]C([H])=C([H])c1c([H])c(OC([H])([H])C(=C([H])C([H])([H])Oc2c([H])c([H])c3c(c2[H])C([H])([H])N(C(=O)C([H])(N([H])C(=O)C([H])(N([H])C([H])([H])[H])C([H])([H])[H])C(C([H])([H])[H])(C([H])([H])[H])C([H])([H])[H])C([H])(C(=O)N([H])C2([H])c4c([H])c([H])c([H])c([H])c4C([H])([H])C([H])([H])C2([H])[H])C3([H])[H])C([H])([H])C([H])([H])[H])c([H])c(N([H])C(=O)N2C([H])([H])C([H])([H])C([H])([H])C([H])(n3nc(-c4c([H])c([H])c(Oc5c([H])c([H])c(F)c([H])c5F)c([H])c4[H])c(C(=O)N([H])[H])c3N([H])[H])C2([H])[H])c1C([H])([H])[H]

>  <smiles>  (50) 
[H]C([H])=C([H])c1c([H])c(OC([H])([H])C(=C([H])C([H])([H])Oc2c([H])c([H])c3c(c2[H])C([H])([H])N(C(=O)C([H])(N([H])C(=O)C([H])(N([H])C([H])([H])[H])C([H])([H])[H])C(C([H])([H])[H])(C([H])([H])[H])C([H])([H])[H])C([H])(C(=O)N([H])C2([H])c4c([H])c([H])c([H])c([H])c4C([H])([H])C([H])([H])C2([H])[H])C3([H])[H])C([H])([H])C([H])([H])[H])c([H])c(N([H])C(=O)N2C([H])([H])C([H])([H])C([H])([H])C([H])(n3nc(-c4c([H])c([H])c(Oc5c([H])c([H])c(F)c([H])c5F)c([H])c4[H])c(C(=O)N([H])[H])c3N([H])[H])C2([H])[H])c1C([H])([H])[H]

$$$$
50:0:0
     RDKit          3D

 97102  0  0  1  0  0  0  0  0999 V2000
  -28.5780  -17.8540   19.2740 C   0  0  0  0  0  3  0  0  0  0  0  0
  -28.4110  -19.6330   17.6750 C   0  0  0  0  0  3  0  0  0  0  0  0
  -27.9280  -17.2800   17.0220 C   0  0  0  0  0  3  0  0  0  0  0  0
  -28.7010  -19.2930   19.0150 C   0  0  0  0  0  0  0  0  0  0  0  0
  -28.1680  -16.8020   18.3250 C   0  0  0  0  0  0  0  0  0  0  0  0
  -28.0450  -18.6590   16.7110 C   0  0  0  0  0  0  0  0  0  0  0  0
  -27.7900  -19.0650   15.4440 F   0  0  0  0  0  0  0  0  0  0  0  0
  -29.1130  -20.4130   20.0750 C   0  0  0  0  0  0  0  0  0  0  0  0
  -29.1880  -20.0230   21.2770 N   0  0  0  0  0  0  0  0  0  0  0  0
  -28.9660  -19.0380   21.3620 H   0  0  0  0  0  0  0  0  0  0  0  0
  -29.4540  -21.9460   19.8930 C   0  0  0  0  0  3  0  0  0  0  0  0
  -30.1390  -22.8300   20.7540 C   0  0  0  0  0  3  0  0  0  0  0  0
  -30.5650  -24.3930   20.6030 C   0  0  0  0  0  3  0  0  0  0  0  0
  -31.0030  -25.3310   21.8950 C   0  0  0  0  0  3  0  0  0  0  0  0
  -31.2440  -26.8520   21.9500 O   0  0  0  0  0  0  0  0  0  0  0  0
  -26.9880  -31.9610   25.1570 C   0  0  0  0  0  0  0  0  0  0  0  0
  -30.1500  -27.7470   21.9800 C   0  0  0  0  0  0  0  0  0  0  0  0
  -26.0610  -30.6210   23.3150 C   0  0  0  0  0  3  0  0  0  0  0  0
  -27.7370  -29.2910   21.9230 C   0  0  0  0  0  0  0  0  0  0  0  0
  -28.5930  -31.0840   23.4230 C   0  0  0  0  0  2  0  0  0  0  0  0
  -28.8260  -29.7680   22.6660 C   0  0  0  0  0  0  0  0  0  0  0  0
  -30.0490  -29.0080   22.6830 C   0  0  0  0  0  3  0  0  0  0  0  0
  -29.0320  -27.3530   21.2320 C   0  0  0  0  0  3  0  0  0  0  0  0
  -27.8470  -28.0970   21.2020 C   0  0  0  0  0  3  0  0  0  0  0  0
  -26.4540  -30.0930   21.9150 C   0  0  0  0  0  2  0  0  0  0  0  0
  -27.2290  -31.2390   24.0220 N   0  0  0  0  0  0  0  0  0  0  0  0
  -25.8370  -32.1210   25.5920 O   0  0  0  0  0  0  0  0  0  0  0  0
  -25.3910  -29.4800   24.1210 C   0  0  0  0  0  0  0  0  0  0  0  0
  -24.3250  -28.8830   23.5590 N   0  0  0  0  0  0  0  0  0  0  0  0
  -25.8430  -29.1360   25.2160 O   0  0  0  0  0  0  0  0  0  0  0  0
  -24.0080  -29.2280   22.6630 H   0  0  0  0  0  0  0  0  0  0  0  0
  -21.6310  -26.5530   22.9140 C   0  0  0  0  0  0  0  0  0  0  0  0
  -23.5660  -27.7660   24.1260 C   0  0  0  0  0  3  0  0  0  0  0  0
  -24.3470  -26.4380   23.9920 C   0  0  0  0  0  2  0  0  0  0  0  0
  -23.9900  -25.6550   22.7250 C   0  0  0  0  0  2  0  0  0  0  0  0
  -22.4960  -25.3210   22.7010 C   0  0  0  0  0  2  0  0  0  0  0  0
  -22.1390  -27.7060   23.5690 C   0  0  0  0  0  0  0  0  0  0  0  0
  -21.3040  -28.8350   23.7100 C   0  0  0  0  0  3  0  0  0  0  0  0
  -19.9870  -28.8240   23.2140 C   0  0  0  0  0  3  0  0  0  0  0  0
  -19.4840  -27.6750   22.5800 C   0  0  0  0  0  3  0  0  0  0  0  0
  -20.3050  -26.5420   22.4340 C   0  0  0  0  0  3  0  0  0  0  0  0
  -28.1440  -32.6370   25.9520 C   0  0  0  0  0  3  0  0  0  0  0  0
  -27.7640  -34.0400   26.1820 N   0  0  0  0  0  0  0  0  0  0  0  0
  -28.1880  -35.0780   25.4470 C   0  0  0  0  0  0  0  0  0  0  0  0
  -29.0060  -34.9560   24.5330 O   0  0  0  0  0  0  0  0  0  0  0  0
  -27.0520  -34.2060   26.8780 H   0  0  0  0  0  0  0  0  0  0  0  0
  -26.4970  -36.8210   24.7880 C   0  0  0  0  0  1  0  0  0  0  0  0
  -27.6160  -36.4690   25.7810 C   0  0  0  0  0  3  0  0  0  0  0  0
  -29.5970  -37.4250   26.8730 C   0  0  0  0  0  1  0  0  0  0  0  0
  -28.6350  -37.5410   25.7800 N   0  0  0  0  0  0  0  0  0  0  0  0
  -28.1960  -38.4560   25.8400 H   0  0  0  0  0  0  0  0  0  0  0  0
  -28.4570  -31.9200   27.3230 C   0  0  1  0  0  0  0  0  0  0  0  0
  -27.1940  -31.5800   28.1490 C   0  0  0  0  0  1  0  0  0  0  0  0
  -29.2320  -30.6030   27.0910 C   0  0  0  0  0  1  0  0  0  0  0  0
  -29.3660  -32.8210   28.1890 C   0  0  0  0  0  1  0  0  0  0  0  0
  -27.9890  -15.3910   18.6680 O   0  0  0  0  0  0  0  0  0  0  0  0
  -28.4450  -14.0770   17.9640 C   0  0  0  0  0  2  0  0  0  0  0  0
  -29.7290  -12.2150   19.9080 C   0  0  0  0  0  1  0  0  0  0  0  0
  -28.9200  -12.6560   18.7700 C   0  0  0  0  0  3  0  0  0  0  0  0
  -30.9280  -12.9240   21.1900 C   0  0  2  0  0  0  0  0  0  0  0  0
  -31.9810  -12.6520   20.0200 C   0  0  0  0  0  1  0  0  0  0  0  0
  -31.1420  -14.1430   19.2020 C   0  0  0  0  0  1  0  0  0  0  0  0
  -29.7180  -14.7940   20.1310 C   0  0  0  0  0  2  0  0  0  0  0  0
  -28.7660  -13.8420   21.5090 C   0  0  0  0  0  2  0  0  0  0  0  0
  -29.8000  -12.4910   22.2290 C   0  0  0  0  0  1  0  0  0  0  0  0
  -31.2430  -11.9900   21.4480 N   0  0  0  0  0  1  0  0  0  0  0  0
  -31.5580  -13.9910   21.7880 O   0  0  0  0  0  1  0  0  0  0  0  0
  -26.1730  -13.9500   21.2350 C   0  0  0  0  0  0  0  0  0  0  0  0
  -25.0960  -13.1130   21.2720 C   0  0  0  0  0  0  0  0  0  0  0  0
  -25.6000  -11.7940   21.4540 C   0  0  0  0  0  0  0  0  0  0  0  0
  -27.3290  -13.2240   21.4110 N   0  0  0  0  0  0  0  0  0  0  0  0
  -26.9340  -11.8900   21.6240 N   0  0  0  0  0  0  0  0  0  0  0  0
  -24.8430  -10.5020   21.4730 C   0  0  0  0  0  0  0  0  0  0  0  0
  -24.9500   -9.5690   22.5320 C   0  0  0  0  0  3  0  0  0  0  0  0
  -24.1600   -8.3900   22.5570 C   0  0  0  0  0  3  0  0  0  0  0  0
  -23.2350   -8.1220   21.5200 C   0  0  0  0  0  0  0  0  0  0  0  0
  -23.1370   -9.0390   20.4580 C   0  0  0  0  0  3  0  0  0  0  0  0
  -23.9280  -10.2060   20.4340 C   0  0  0  0  0  3  0  0  0  0  0  0
  -22.4530   -6.9890   21.4450 O   0  0  0  0  0  0  0  0  0  0  0  0
  -21.9120   -6.3970   22.5620 C   0  0  0  0  0  0  0  0  0  0  0  0
  -21.0880   -7.1150   23.4560 C   0  0  0  0  0  3  0  0  0  0  0  0
  -20.4940   -6.4580   24.5540 C   0  0  0  0  0  3  0  0  0  0  0  0
  -20.7160   -5.0830   24.7580 C   0  0  0  0  0  0  0  0  0  0  0  0
  -21.5300   -4.3630   23.8650 C   0  0  0  0  0  3  0  0  0  0  0  0
  -22.1200   -5.0170   22.7680 C   0  0  0  0  0  0  0  0  0  0  0  0
  -22.8830   -4.3090   21.9000 F   0  0  0  0  0  0  0  0  0  0  0  0
  -20.1450   -4.4510   25.8100 F   0  0  0  0  0  0  0  0  0  0  0  0
  -23.6740  -13.5470   21.0900 C   0  0  0  0  0  0  0  0  0  0  0  0
  -22.7450  -12.9570   21.8320 N   0  0  0  0  0  0  0  0  0  0  0  0
  -23.3930  -14.4780   20.3360 O   0  0  0  0  0  0  0  0  0  0  0  0
  -22.9850  -12.2280   22.4870 H   0  0  0  0  0  0  0  0  0  0  0  0
  -21.7820  -13.2500   21.7570 H   0  0  0  0  0  0  0  0  0  0  0  0
  -26.2480  -15.3170   21.0820 N   0  0  0  0  0  0  0  0  0  0  0  0
  -25.3900  -15.7520   20.7600 H   0  0  0  0  0  0  0  0  0  0  0  0
  -27.0390  -15.6040   20.5240 H   0  0  0  0  0  0  0  0  0  0  0  0
  -28.2980  -11.6660   18.1080 O   0  0  0  0  0  0  0  0  0  0  0  0
  -27.7700  -12.0590   17.4250 H   0  0  0  0  0  0  0  0  0  0  0  0
  2  4  2  0
  3  5  1  0
  4  1  1  0
  4  8  1  0
  5 56  1  0
  5  1  2  0
  6  3  2  0
  6  2  1  0
  7  6  1  0
  8  9  2  0
  9 10  1  0
 11  8  1  0
 11 12  2  0
 13 12  1  0
 13 14  2  0
 14 15  1  0
 15 17  1  0
 16 27  2  0
 17 22  1  0
 18 26  1  0
 18 28  1  0
 19 21  1  0
 20 26  1  0
 21 22  2  0
 21 20  1  0
 23 17  2  0
 24 23  1  0
 24 19  2  0
 25 19  1  0
 25 18  1  0
 26 16  1  0
 28 30  2  0
 29 28  1  0
 31 29  1  0
 32 37  1  0
 33 29  1  0
 34 33  1  0
 35 34  1  0
 36 35  1  0
 36 32  1  0
 37 38  2  0
 37 33  1  0
 39 38  1  0
 40 39  2  0
 41 40  1  0
 41 32  2  0
 42 16  1  0
 42 43  1  0
 42 52  1  0
 43 46  1  0
 44 48  1  0
 44 43  1  0
 45 44  2  0
 48 47  1  0
 50 48  1  0
 50 51  1  0
 50 49  1  0
 52 53  1  1
 52 55  1  0
 54 52  1  0
 57 56  1  0
 57 59  1  0
 59 58  1  0
 60 66  1  0
 60 67  1  0
 60 65  1  6
 61 60  1  0
 62 63  1  0
 63 64  1  0
 68 69  2  0
 68 71  1  0
 69 70  1  0
 70 73  1  0
 70 72  2  0
 71 64  1  0
 71 72  1  0
 73 74  1  0
 74 75  2  0
 76 75  1  0
 77 76  2  0
 78 77  1  0
 78 73  2  0
 79 76  1  0
 79 80  1  0
 80 85  2  0
 80 81  1  0
 81 82  2  0
 82 83  1  0
 83 87  1  0
 84 83  2  0
 85 84  1  0
 86 85  1  0
 88 69  1  0
 88 89  1  0
 89 91  1  0
 90 88  2  0
 92 89  1  0
 93 68  1  0
 94 93  1  0
 95 93  1  0
 96 59  1  0
 97 96  1  0
M  ISO  4  14 101  15 101  58 100  60 100
M  END
>  <TORSDO>  (51) 
F 24

>  <SCORE>  (51) 
-4.926

>  <name>  (51) 
50

>  <ligand_id>  (51) 
50

>  <original_smiles>  (51) 
[H]N=C(C([H])=C([H])C([H])([H])C([H])([H])Oc1c([H])c([H])c2c(c1[H])C([H])([H])N(C(=O)C([H])(N([H])C(=O)C([H])(N([H])C([H])([H])[H])C([H])([H])[H])C(C([H])([H])[H])(C([H])([H])[H])C([H])([H])[H])C([H])(C(=O)N([H])C1([H])c3c([H])c([H])c([H])c([H])c3C([H])([H])C([H])([H])C1([H])[H])C2([H])[H])c1c([H])c(F)c([H])c(OC([H])([H])C(O[H])=C([H])C(=O)N2C([H])([H])C([H])([H])C([H])([H])C([H])(n3nc(-c4c([H])c([H])c(Oc5c([H])c([H])c(F)c([H])c5F)c([H])c4[H])c(C(=O)N([H])[H])c3N([H])[H])C2([H])[H])c1[H]

>  <smiles>  (51) 
[H]N=C(C([H])=C([H])C([H])([H])C([H])([H])Oc1c([H])c([H])c2c(c1[H])C([H])([H])N(C(=O)C([H])(N([H])C(=O)C([H])(N([H])C([H])([H])[H])C([H])([H])[H])C(C([H])([H])[H])(C([H])([H])[H])C([H])([H])[H])C([H])(C(=O)N([H])C1([H])c3c([H])c([H])c([H])c([H])c3C([H])([H])C([H])([H])C1([H])[H])C2([H])[H])c1c([H])c(F)c([H])c(OC([H])([H])C(O[H])=C([H])C(=O)N2C([H])([H])C([H])([H])C([H])([H])C([H])(n3nc(-c4c([H])c([H])c(Oc5c([H])c([H])c(F)c([H])c5F)c([H])c4[H])c(C(=O)N([H])[H])c3N([H])[H])C2([H])[H])c1[H]

$$$$
51:0:0
     RDKit          3D

 93101  0  0  1  0  0  0  0  0999 V2000
  -29.7810  -18.3680   21.4860 C   0  0  0  0  0  3  0  0  0  0  0  0
  -29.5160  -18.1670   18.7230 C   0  0  0  0  0  3  0  0  0  0  0  0
  -29.5380  -19.5610   20.7360 C   0  0  0  0  0  0  0  0  0  0  0  0
  -29.3990  -19.4320   19.3270 C   0  0  0  0  0  0  0  0  0  0  0  0
  -29.8800  -17.0780   20.8800 C   0  0  0  0  0  0  0  0  0  0  0  0
  -29.7250  -16.9860   19.4720 C   0  0  0  0  0  0  0  0  0  0  0  0
  -29.0370  -20.5880   18.4050 C   0  0  0  0  0  1  0  0  0  0  0  0
  -30.8290  -14.8450   21.5300 C   0  0  0  0  0  0  0  0  0  0  0  0
  -30.8470  -12.5220   20.6920 C   0  0  0  0  0  2  0  0  0  0  0  0
  -30.1410  -12.5130   19.3220 C   0  0  0  0  0  2  0  0  0  0  0  0
  -28.6040  -12.4270   19.4680 C   0  0  0  0  0  2  0  0  0  0  0  0
  -28.0220  -13.3570   20.5710 C   0  0  0  0  0  3  0  0  0  0  0  0
  -28.8700  -13.2910   21.8600 C   0  0  0  0  0  2  0  0  0  0  0  0
  -30.2600  -13.6060   21.4980 N   0  0  0  0  0  0  0  0  0  0  0  0
  -32.0300  -15.0280   21.3060 O   0  0  0  0  0  0  0  0  0  0  0  0
  -29.9720  -15.8840   21.6930 N   0  0  0  0  0  0  0  0  0  0  0  0
  -29.0950  -15.6090   22.1070 H   0  0  0  0  0  0  0  0  0  0  0  0
  -25.5360  -13.9370   20.8980 C   0  0  0  0  0  0  0  0  0  0  0  0
  -24.4320  -13.1530   21.1010 C   0  0  0  0  0  0  0  0  0  0  0  0
  -24.9080  -11.8060   21.1520 C   0  0  0  0  0  0  0  0  0  0  0  0
  -26.6140  -13.0660   20.8350 N   0  0  0  0  0  0  0  0  0  0  0  0
  -26.2300  -11.7820   21.0500 N   0  0  0  0  0  0  0  0  0  0  0  0
  -24.1760  -10.5360   21.2370 C   0  0  0  0  0  0  0  0  0  0  0  0
  -24.4710   -9.5770   22.2320 C   0  0  0  0  0  3  0  0  0  0  0  0
  -23.7400   -8.3710   22.3030 C   0  0  0  0  0  3  0  0  0  0  0  0
  -22.7020   -8.1150   21.3770 C   0  0  0  0  0  0  0  0  0  0  0  0
  -22.4280   -9.0630   20.3740 C   0  0  0  0  0  3  0  0  0  0  0  0
  -23.1600  -10.2600   20.3010 C   0  0  0  0  0  3  0  0  0  0  0  0
  -21.9580   -6.9600   21.3540 O   0  0  0  0  0  0  0  0  0  0  0  0
  -21.7320   -6.2270   22.4920 C   0  0  0  0  0  0  0  0  0  0  0  0
  -21.0720   -6.7760   23.6140 C   0  0  0  0  0  3  0  0  0  0  0  0
  -20.7940   -5.9680   24.7340 C   0  0  0  0  0  3  0  0  0  0  0  0
  -21.1690   -4.6100   24.7330 C   0  0  0  0  0  0  0  0  0  0  0  0
  -21.8210   -4.0610   23.6160 C   0  0  0  0  0  3  0  0  0  0  0  0
  -22.0980   -4.8660   22.4980 C   0  0  0  0  0  0  0  0  0  0  0  0
  -22.7080   -4.3260   21.4140 F   0  0  0  0  0  0  0  0  0  0  0  0
  -20.8970   -3.8310   25.8060 F   0  0  0  0  0  0  0  0  0  0  0  0
  -23.0040  -13.6130   21.1520 C   0  0  0  0  0  0  0  0  0  0  0  0
  -22.1630  -12.9150   21.9060 N   0  0  0  0  0  0  0  0  0  0  0  0
  -22.6360  -14.6270   20.5620 O   0  0  0  0  0  0  0  0  0  0  0  0
  -22.4690  -12.0910   22.4050 H   0  0  0  0  0  0  0  0  0  0  0  0
  -21.2000  -13.2090   21.9890 H   0  0  0  0  0  0  0  0  0  0  0  0
  -25.7100  -15.3090   20.7430 N   0  0  0  0  0  0  0  0  0  0  0  0
  -24.9350  -15.9610   20.7600 H   0  0  0  0  0  0  0  0  0  0  0  0
  -26.6000  -15.7600   20.5690 H   0  0  0  0  0  0  0  0  0  0  0  0
  -29.4260  -20.8750   21.4560 C   0  0  0  0  0  3  0  0  0  0  0  0
  -29.6220  -22.1390   20.9950 C   0  0  0  0  0  3  0  0  0  0  0  0
  -29.4070  -23.4140   21.8170 C   0  0  0  0  0  2  0  0  0  0  0  0
  -29.6070  -24.7840   21.0860 C   0  0  0  0  0  2  0  0  0  0  0  0
  -28.3660  -25.4150   20.3970 C   0  0  0  0  0  2  0  0  0  0  0  0
  -28.5020  -26.8480   20.2240 O   0  0  0  0  0  0  0  0  0  0  0  0
  -24.5740  -31.9560   23.2840 C   0  0  0  0  0  0  0  0  0  0  0  0
  -27.3280  -27.5870   20.1790 C   0  0  0  0  0  0  0  0  0  0  0  0
  -23.4090  -30.5530   21.6140 C   0  0  0  0  0  3  0  0  0  0  0  0
  -24.9060  -29.0670   20.1770 C   0  0  0  0  0  0  0  0  0  0  0  0
  -25.9300  -30.9630   21.4420 C   0  0  0  0  0  2  0  0  0  0  0  0
  -26.0510  -29.6020   20.7800 C   0  0  0  0  0  0  0  0  0  0  0  0
  -27.2650  -28.8730   20.7720 C   0  0  0  0  0  3  0  0  0  0  0  0
  -26.1650  -27.0770   19.5590 C   0  0  0  0  0  3  0  0  0  0  0  0
  -24.9600  -27.8050   19.5600 C   0  0  0  0  0  3  0  0  0  0  0  0
  -23.6440  -29.8990   20.2260 C   0  0  0  0  0  2  0  0  0  0  0  0
  -24.6560  -31.1730   22.1720 N   0  0  0  0  0  0  0  0  0  0  0  0
  -23.4820  -32.1980   23.8200 O   0  0  0  0  0  0  0  0  0  0  0  0
  -22.7720  -29.5050   22.5550 C   0  0  0  0  0  0  0  0  0  0  0  0
  -21.4580  -29.2800   22.3980 N   0  0  0  0  0  0  0  0  0  0  0  0
  -23.4580  -28.9000   23.3820 O   0  0  0  0  0  0  0  0  0  0  0  0
  -20.9630  -29.8220   21.7040 H   0  0  0  0  0  0  0  0  0  0  0  0
  -18.1160  -27.9680   22.8160 C   0  0  0  0  0  0  0  0  0  0  0  0
  -20.6570  -28.3100   23.1450 C   0  0  0  0  0  3  0  0  0  0  0  0
  -20.8200  -26.8860   22.5630 C   0  0  0  0  0  2  0  0  0  0  0  0
  -19.7520  -26.5340   21.5230 C   0  0  0  0  0  2  0  0  0  0  0  0
  -18.3530  -26.6290   22.1370 C   0  0  0  0  0  2  0  0  0  0  0  0
  -19.1990  -28.7640   23.2750 C   0  0  0  0  0  0  0  0  0  0  0  0
  -18.9250  -30.0170   23.8670 C   0  0  0  0  0  3  0  0  0  0  0  0
  -17.6020  -30.4730   24.0070 C   0  0  0  0  0  3  0  0  0  0  0  0
  -16.5330  -29.6750   23.5650 C   0  0  0  0  0  3  0  0  0  0  0  0
  -16.7910  -28.4240   22.9760 C   0  0  0  0  0  3  0  0  0  0  0  0
  -25.8410  -32.6050   23.9220 C   0  0  0  0  0  3  0  0  0  0  0  0
  -25.5210  -34.0100   24.2130 N   0  0  0  0  0  0  0  0  0  0  0  0
  -25.8840  -35.0460   23.4460 C   0  0  0  0  0  0  0  0  0  0  0  0
  -26.5930  -34.9210   22.4440 O   0  0  0  0  0  0  0  0  0  0  0  0
  -24.8960  -34.1810   24.9880 H   0  0  0  0  0  0  0  0  0  0  0  0
  -24.1740  -36.8320   22.9850 C   0  0  0  0  0  1  0  0  0  0  0  0
  -25.3790  -36.4430   23.8550 C   0  0  0  0  0  3  0  0  0  0  0  0
  -27.4720  -37.3470   24.7640 C   0  0  0  0  0  1  0  0  0  0  0  0
  -26.4170  -37.4930   23.7660 N   0  0  0  0  0  0  0  0  0  0  0  0
  -26.0040  -38.4160   23.8730 H   0  0  0  0  0  0  0  0  0  0  0  0
  -26.3300  -31.8630   25.2260 C   0  0  1  0  0  0  0  0  0  0  0  0
  -25.2120  -31.6420   26.2720 C   0  0  0  0  0  1  0  0  0  0  0  0
  -26.9280  -30.4810   24.8760 C   0  0  0  0  0  1  0  0  0  0  0  0
  -27.4590  -32.6770   25.9010 C   0  0  0  0  0  1  0  0  0  0  0  0
  -29.2670  -15.6390   17.5280 C   0  0  0  0  0  1  0  0  0  0  0  0
  -29.7230  -15.7420   18.8770 O   0  0  0  0  0  0  0  0  0  0  0  0
  2  4  2  0
  2  6  1  0
  3 46  1  0
  3  1  2  0
  4  3  1  0
  5  1  1  0
  5 16  1  0
  6  5  2  0
  7  4  1  0
  8 16  1  0
  9 14  1  0
 10 11  1  0
 10  9  1  0
 12 11  1  0
 12 21  1  0
 12 13  1  0
 14  8  1  0
 14 13  1  0
 15  8  2  0
 16 17  1  0
 18 19  2  0
 19 38  1  0
 19 20  1  0
 20 23  1  0
 21 18  1  0
 21 22  1  0
 22 20  2  0
 23 24  1  0
 24 25  2  0
 26 25  1  0
 27 26  2  0
 28 27  1  0
 28 23  2  0
 29 26  1  0
 29 30  1  0
 30 35  2  0
 30 31  1  0
 31 32  2  0
 33 32  1  0
 33 37  1  0
 34 33  2  0
 35 34  1  0
 36 35  1  0
 38 39  1  0
 39 42  1  0
 39 41  1  0
 40 38  2  0
 43 44  1  0
 43 18  1  0
 45 43  1  0
 47 46  2  0
 47 48  1  0
 49 48  1  0
 50 49  1  0
 51 50  1  0
 52 63  2  0
 53 51  1  0
 53 58  1  0
 54 62  1  0
 54 64  1  0
 55 61  1  0
 55 57  1  0
 56 62  1  0
 57 56  1  0
 58 57  2  0
 59 60  1  0
 59 53  2  0
 60 55  2  0
 61 54  1  0
 62 52  1  0
 64 66  2  0
 65 64  1  0
 67 65  1  0
 68 77  2  0
 68 73  1  0
 69 65  1  0
 69 73  1  0
 70 69  1  0
 71 72  1  0
 71 70  1  0
 72 68  1  0
 73 74  2  0
 74 75  1  0
 76 75  2  0
 77 76  1  0
 78 52  1  0
 78 79  1  0
 78 88  1  0
 79 82  1  0
 80 84  1  0
 80 79  1  0
 81 80  2  0
 84 83  1  0
 86 84  1  0
 86 87  1  0
 86 85  1  0
 88 91  1  1
 88 89  1  0
 90 88  1  0
 92 93  1  0
 93  6  1  0
M  ISO  4   8 100  16 100  50 101  51 101
M  END
>  <TORSDO>  (52) 
F 21

>  <SCORE>  (52) 
-9.681

>  <name>  (52) 
51

>  <ligand_id>  (52) 
51

>  <original_smiles>  (52) 
[H]C(=C([H])C([H])([H])C([H])([H])C([H])([H])Oc1c([H])c([H])c2c(c1[H])C([H])([H])N(C(=O)C([H])(N([H])C(=O)C([H])(N([H])C([H])([H])[H])C([H])([H])[H])C(C([H])([H])[H])(C([H])([H])[H])C([H])([H])[H])C([H])(C(=O)N([H])C1([H])c3c([H])c([H])c([H])c([H])c3C([H])([H])C([H])([H])C1([H])[H])C2([H])[H])c1c([H])c(N([H])C(=O)N2C([H])([H])C([H])([H])C([H])([H])C([H])(n3nc(-c4c([H])c([H])c(Oc5c([H])c([H])c(F)c([H])c5F)c([H])c4[H])c(C(=O)N([H])[H])c3N([H])[H])C2([H])[H])c(OC([H])([H])[H])c([H])c1C([H])([H])[H]

>  <smiles>  (52) 
[H]C(=C([H])C([H])([H])C([H])([H])C([H])([H])Oc1c([H])c([H])c2c(c1[H])C([H])([H])N(C(=O)C([H])(N([H])C(=O)C([H])(N([H])C([H])([H])[H])C([H])([H])[H])C(C([H])([H])[H])(C([H])([H])[H])C([H])([H])[H])C([H])(C(=O)N([H])C1([H])c3c([H])c([H])c([H])c([H])c3C([H])([H])C([H])([H])C1([H])[H])C2([H])[H])c1c([H])c(N([H])C(=O)N2C([H])([H])C([H])([H])C([H])([H])C([H])(n3nc(-c4c([H])c([H])c(Oc5c([H])c([H])c(F)c([H])c5F)c([H])c4[H])c(C(=O)N([H])[H])c3N([H])[H])C2([H])[H])c(OC([H])([H])[H])c([H])c1C([H])([H])[H]

$$$$
52:0:0
     RDKit          3D

 94102  0  0  1  0  0  0  0  0999 V2000
  -28.8480  -22.2690   21.7500 C   0  0  0  0  0  2  0  0  0  0  0  0
  -30.6690  -18.8500   22.0850 C   0  0  0  0  0  3  0  0  0  0  0  0
  -29.1100  -20.2350   20.2190 C   0  0  0  0  0  3  0  0  0  0  0  0
  -30.4450  -18.2730   20.8170 C   0  0  0  0  0  0  0  0  0  0  0  0
  -30.1730  -20.1390   22.4020 C   0  0  0  0  0  0  0  0  0  0  0  0
  -29.6520  -18.9810   19.8840 C   0  0  0  0  0  0  0  0  0  0  0  0
  -29.3880  -20.8560   21.4560 C   0  0  0  0  0  0  0  0  0  0  0  0
  -30.4940  -20.7210   23.7700 C   0  0  0  0  0  1  0  0  0  0  0  0
  -29.3830  -18.4250   18.4930 C   0  0  0  0  0  1  0  0  0  0  0  0
  -30.9730  -16.9470   20.4360 C   0  0  0  0  0  3  0  0  0  0  0  0
  -31.0370  -15.7860   21.1220 C   0  0  0  0  0  3  0  0  0  0  0  0
  -31.6250  -14.6530   20.4080 C   0  0  0  0  0  0  0  0  0  0  0  0
  -31.1380  -12.5930   19.1470 C   0  0  0  0  0  2  0  0  0  0  0  0
  -30.2090  -12.9210   17.9590 C   0  0  0  0  0  2  0  0  0  0  0  0
  -28.7340  -12.8570   18.3980 C   0  0  0  0  0  2  0  0  0  0  0  0
  -28.4590  -13.6430   19.7070 C   0  0  0  0  0  3  0  0  0  0  0  0
  -29.5100  -13.3140   20.7920 C   0  0  0  0  0  2  0  0  0  0  0  0
  -30.8470  -13.5510   20.2300 N   0  0  0  0  0  0  0  0  0  0  0  0
  -32.7360  -14.7420   19.8740 O   0  0  0  0  0  0  0  0  0  0  0  0
  -26.1010  -14.3370   20.4700 C   0  0  0  0  0  0  0  0  0  0  0  0
  -24.9980  -13.6000   20.8190 C   0  0  0  0  0  0  0  0  0  0  0  0
  -25.3920  -12.2320   20.7270 C   0  0  0  0  0  0  0  0  0  0  0  0
  -27.0980  -13.4170   20.1910 N   0  0  0  0  0  0  0  0  0  0  0  0
  -26.6750  -12.1430   20.4040 N   0  0  0  0  0  0  0  0  0  0  0  0
  -24.6090  -10.9980   20.8730 C   0  0  0  0  0  0  0  0  0  0  0  0
  -24.9620  -10.0060   21.8150 C   0  0  0  0  0  3  0  0  0  0  0  0
  -24.1800   -8.8390   21.9530 C   0  0  0  0  0  3  0  0  0  0  0  0
  -23.0330   -8.6530   21.1470 C   0  0  0  0  0  0  0  0  0  0  0  0
  -22.7000   -9.6320   20.1930 C   0  0  0  0  0  3  0  0  0  0  0  0
  -23.4810  -10.7920   20.0560 C   0  0  0  0  0  3  0  0  0  0  0  0
  -22.2290   -7.5390   21.1900 O   0  0  0  0  0  0  0  0  0  0  0  0
  -22.0350   -6.8370   22.3520 C   0  0  0  0  0  0  0  0  0  0  0  0
  -21.5250   -7.4520   23.5170 C   0  0  0  0  0  3  0  0  0  0  0  0
  -21.2770   -6.6790   24.6690 C   0  0  0  0  0  3  0  0  0  0  0  0
  -21.5260   -5.2940   24.6570 C   0  0  0  0  0  0  0  0  0  0  0  0
  -22.0270   -4.6810   23.4960 C   0  0  0  0  0  3  0  0  0  0  0  0
  -22.2770   -5.4500   22.3460 C   0  0  0  0  0  0  0  0  0  0  0  0
  -22.7400   -4.8490   21.2230 F   0  0  0  0  0  0  0  0  0  0  0  0
  -21.2800   -4.5490   25.7600 F   0  0  0  0  0  0  0  0  0  0  0  0
  -23.6290  -14.1330   21.1260 C   0  0  0  0  0  0  0  0  0  0  0  0
  -22.8880  -13.4500   21.9920 N   0  0  0  0  0  0  0  0  0  0  0  0
  -23.2250  -15.1830   20.6320 O   0  0  0  0  0  0  0  0  0  0  0  0
  -23.2290  -12.5980   22.4140 H   0  0  0  0  0  0  0  0  0  0  0  0
  -21.9660  -13.7860   22.2360 H   0  0  0  0  0  0  0  0  0  0  0  0
  -26.3350  -15.7020   20.3510 N   0  0  0  0  0  0  0  0  0  0  0  0
  -25.6170  -16.4040   20.5130 H   0  0  0  0  0  0  0  0  0  0  0  0
  -27.2220  -16.1040   20.0670 H   0  0  0  0  0  0  0  0  0  0  0  0
  -29.8620  -23.8790   20.3440 C   0  0  0  0  0  3  0  0  0  0  0  0
  -28.8480  -23.1420   20.5780 N   0  0  0  0  0  0  0  0  0  0  0  0
  -30.0100  -24.6570   19.0450 C   0  0  0  0  0  2  0  0  0  0  0  0
  -30.4530  -26.1110   19.2580 C   0  0  0  0  0  0  0  0  0  0  0  0
  -31.6450  -26.4160   19.1580 O   0  0  0  0  0  0  0  0  0  0  0  0
  -29.3910  -27.1930   19.5220 C   0  0  0  0  0  2  0  0  0  0  0  0
  -28.0850  -26.6570   19.3540 O   0  0  0  0  0  0  0  0  0  0  0  0
  -24.5090  -31.6650   23.0870 C   0  0  0  0  0  0  0  0  0  0  0  0
  -26.9800  -27.4550   19.5570 C   0  0  0  0  0  0  0  0  0  0  0  0
  -23.2060  -30.3610   21.4390 C   0  0  0  0  0  3  0  0  0  0  0  0
  -24.5760  -28.9210   19.8380 C   0  0  0  0  0  0  0  0  0  0  0  0
  -25.7220  -30.7380   21.1210 C   0  0  0  0  0  2  0  0  0  0  0  0
  -25.7690  -29.4180   20.3810 C   0  0  0  0  0  0  0  0  0  0  0  0
  -26.9770  -28.6960   20.2380 C   0  0  0  0  0  3  0  0  0  0  0  0
  -25.7660  -26.9610   19.0400 C   0  0  0  0  0  3  0  0  0  0  0  0
  -24.5650  -27.6850   19.1710 C   0  0  0  0  0  3  0  0  0  0  0  0
  -23.3340  -29.7670   20.0120 C   0  0  0  0  0  2  0  0  0  0  0  0
  -24.4970  -30.9350   21.9370 N   0  0  0  0  0  0  0  0  0  0  0  0
  -23.4620  -31.9030   23.7050 O   0  0  0  0  0  0  0  0  0  0  0  0
  -22.6130  -29.2810   22.3730 C   0  0  0  0  0  0  0  0  0  0  0  0
  -21.2960  -29.0430   22.2490 N   0  0  0  0  0  0  0  0  0  0  0  0
  -23.3340  -28.6630   23.1600 O   0  0  0  0  0  0  0  0  0  0  0  0
  -20.7750  -29.5930   21.5780 H   0  0  0  0  0  0  0  0  0  0  0  0
  -18.0050  -27.6100   22.6620 C   0  0  0  0  0  0  0  0  0  0  0  0
  -20.5300  -28.0460   22.9950 C   0  0  0  0  0  3  0  0  0  0  0  0
  -20.7500  -26.6300   22.4140 C   0  0  0  0  0  2  0  0  0  0  0  0
  -19.6970  -26.2370   21.3740 C   0  0  0  0  0  2  0  0  0  0  0  0
  -18.2930  -26.2820   21.9820 C   0  0  0  0  0  2  0  0  0  0  0  0
  -19.0560  -28.4460   23.1210 C   0  0  0  0  0  0  0  0  0  0  0  0
  -18.7350  -29.6890   23.7090 C   0  0  0  0  0  3  0  0  0  0  0  0
  -17.3940  -30.0950   23.8450 C   0  0  0  0  0  3  0  0  0  0  0  0
  -16.3560  -29.2530   23.4060 C   0  0  0  0  0  3  0  0  0  0  0  0
  -16.6630  -28.0120   22.8180 C   0  0  0  0  0  3  0  0  0  0  0  0
  -25.8310  -32.2560   23.6660 C   0  0  0  0  0  3  0  0  0  0  0  0
  -25.5550  -33.6400   24.0760 N   0  0  0  0  0  0  0  0  0  0  0  0
  -25.8660  -34.7240   23.3540 C   0  0  0  0  0  0  0  0  0  0  0  0
  -26.4900  -34.6630   22.2910 O   0  0  0  0  0  0  0  0  0  0  0  0
  -25.0050  -33.7620   24.9130 H   0  0  0  0  0  0  0  0  0  0  0  0
  -24.1390  -36.5410   23.1580 C   0  0  0  0  0  1  0  0  0  0  0  0
  -25.4110  -36.0920   23.8960 C   0  0  0  0  0  3  0  0  0  0  0  0
  -27.5880  -36.9160   24.6770 C   0  0  0  0  0  1  0  0  0  0  0  0
  -26.4470  -37.1420   23.7930 N   0  0  0  0  0  0  0  0  0  0  0  0
  -26.0570  -38.0570   24.0030 H   0  0  0  0  0  0  0  0  0  0  0  0
  -26.4130  -31.4190   24.8720 C   0  0  1  0  0  0  0  0  0  0  0  0
  -25.3760  -31.1290   25.9810 C   0  0  0  0  0  1  0  0  0  0  0  0
  -26.9750  -30.0630   24.3870 C   0  0  0  0  0  1  0  0  0  0  0  0
  -27.5960  -32.1790   25.5170 C   0  0  0  0  0  1  0  0  0  0  0  0
  2  5  1  0
  3  7  1  0
  4  2  2  0
  5  8  1  0
  6  3  2  0
  6  4  1  0
  7  1  1  0
  7  5  2  0
  9  6  1  0
 10  4  1  0
 10 11  2  0
 12 11  1  0
 13 18  1  0
 14 15  1  0
 14 13  1  0
 16 15  1  0
 16 23  1  0
 16 17  1  0
 18 12  1  0
 18 17  1  0
 19 12  2  0
 20 21  2  0
 21 40  1  0
 22 21  1  0
 22 25  1  0
 23 24  1  0
 23 20  1  0
 24 22  2  0
 25 26  1  0
 26 27  2  0
 28 31  1  0
 28 27  1  0
 29 28  2  0
 30 29  1  0
 30 25  2  0
 31 32  1  0
 32 33  1  0
 33 34  2  0
 35 34  1  0
 35 39  1  0
 36 35  2  0
 37 32  2  0
 37 36  1  0
 38 37  1  0
 40 41  1  0
 41 44  1  0
 41 43  1  0
 42 40  2  0
 45 20  1  0
 45 46  1  0
 47 45  1  0
 48 49  2  0
 49  1  1  0
 50 51  1  0
 50 48  1  0
 51 53  1  0
 52 51  2  0
 54 53  1  0
 54 56  1  0
 55 66  2  0
 56 61  1  0
 57 65  1  0
 57 67  1  0
 58 64  1  0
 58 60  1  0
 59 65  1  0
 60 59  1  0
 61 60  2  0
 62 63  1  0
 62 56  2  0
 63 58  2  0
 64 57  1  0
 65 55  1  0
 67 69  2  0
 68 67  1  0
 70 68  1  0
 71 80  2  0
 71 76  1  0
 72 68  1  0
 72 76  1  0
 73 72  1  0
 74 75  1  0
 74 73  1  0
 75 71  1  0
 76 77  2  0
 77 78  1  0
 79 78  2  0
 80 79  1  0
 81 55  1  0
 81 82  1  0
 81 91  1  0
 82 85  1  0
 83 87  1  0
 83 82  1  0
 84 83  2  0
 87 86  1  0
 89 87  1  0
 89 90  1  0
 89 88  1  0
 91 94  1  1
 91 92  1  0
 93 91  1  0
M  ISO  4  11 100  12 100  53 101  54 101
M  END
>  <TORSDO>  (53) 
F 22

>  <SCORE>  (53) 
-11.712

>  <name>  (53) 
52

>  <ligand_id>  (53) 
52

>  <original_smiles>  (53) 
[H]C(=NC([H])([H])c1c([H])c(C([H])([H])[H])c(C([H])=C([H])C(=O)N2C([H])([H])C([H])([H])C([H])([H])C([H])(n3nc(-c4c([H])c([H])c(Oc5c([H])c([H])c(F)c([H])c5F)c([H])c4[H])c(C(=O)N([H])[H])c3N([H])[H])C2([H])[H])c([H])c1C([H])([H])[H])C([H])([H])C(=O)C([H])([H])Oc1c([H])c([H])c2c(c1[H])C([H])([H])N(C(=O)C([H])(N([H])C(=O)C([H])(N([H])C([H])([H])[H])C([H])([H])[H])C(C([H])([H])[H])(C([H])([H])[H])C([H])([H])[H])C([H])(C(=O)N([H])C1([H])c3c([H])c([H])c([H])c([H])c3C([H])([H])C([H])([H])C1([H])[H])C2([H])[H]

>  <smiles>  (53) 
[H]C(=NC([H])([H])c1c([H])c(C([H])([H])[H])c(C([H])=C([H])C(=O)N2C([H])([H])C([H])([H])C([H])([H])C([H])(n3nc(-c4c([H])c([H])c(Oc5c([H])c([H])c(F)c([H])c5F)c([H])c4[H])c(C(=O)N([H])[H])c3N([H])[H])C2([H])[H])c([H])c1C([H])([H])[H])C([H])([H])C(=O)C([H])([H])Oc1c([H])c([H])c2c(c1[H])C([H])([H])N(C(=O)C([H])(N([H])C(=O)C([H])(N([H])C([H])([H])[H])C([H])([H])[H])C(C([H])([H])[H])(C([H])([H])[H])C([H])([H])[H])C([H])(C(=O)N([H])C1([H])c3c([H])c([H])c([H])c([H])c3C([H])([H])C([H])([H])C1([H])[H])C2([H])[H]

$$$$
53:0:0
     RDKit          3D

 95103  0  0  1  0  0  0  0  0999 V2000
  -30.7610  -17.1740   18.5280 C   0  0  0  0  0  3  0  0  0  0  0  0
  -30.6940  -19.5280   17.9790 C   0  0  0  0  0  3  0  0  0  0  0  0
  -30.5370  -17.4150   19.9090 C   0  0  0  0  0  0  0  0  0  0  0  0
  -30.2510  -18.8040   20.2840 C   0  0  0  0  0  0  0  0  0  0  0  0
  -30.3680  -19.8760   19.3110 C   0  0  0  0  0  0  0  0  0  0  0  0
  -30.8540  -18.1990   17.5880 C   0  0  0  0  0  0  0  0  0  0  0  0
  -31.1190  -17.9040   16.2920 F   0  0  0  0  0  0  0  0  0  0  0  0
  -30.6180  -16.1800   20.8550 C   0  0  0  0  0  0  0  0  0  0  0  0
  -30.1920  -16.2100   22.0480 N   0  0  0  0  0  0  0  0  0  0  0  0
  -29.7810  -17.1050   22.2690 H   0  0  0  0  0  0  0  0  0  0  0  0
  -31.3450  -14.8790   20.3550 C   0  0  0  0  0  0  0  0  0  0  0  0
  -31.0620  -12.6300   19.3660 C   0  0  0  0  0  2  0  0  0  0  0  0
  -30.1370  -12.7400   18.1340 C   0  0  0  0  0  2  0  0  0  0  0  0
  -28.6550  -12.6240   18.5440 C   0  0  0  0  0  2  0  0  0  0  0  0
  -28.3000  -13.5360   19.7470 C   0  0  0  0  0  3  0  0  0  0  0  0
  -29.3380  -13.3730   20.8750 C   0  0  0  0  0  2  0  0  0  0  0  0
  -30.6650  -13.6860   20.3200 N   0  0  0  0  0  0  0  0  0  0  0  0
  -32.4960  -14.9690   19.9100 O   0  0  0  0  0  0  0  0  0  0  0  0
  -25.9560  -14.2120   20.5560 C   0  0  0  0  0  0  0  0  0  0  0  0
  -24.8500  -13.4740   20.8810 C   0  0  0  0  0  0  0  0  0  0  0  0
  -25.2310  -12.1060   20.7240 C   0  0  0  0  0  0  0  0  0  0  0  0
  -26.9420  -13.2950   20.2270 N   0  0  0  0  0  0  0  0  0  0  0  0
  -26.5100  -12.0180   20.3850 N   0  0  0  0  0  0  0  0  0  0  0  0
  -24.4330  -10.8760   20.8190 C   0  0  0  0  0  0  0  0  0  0  0  0
  -24.8310   -9.7990   21.6410 C   0  0  0  0  0  3  0  0  0  0  0  0
  -24.0380   -8.6340   21.7310 C   0  0  0  0  0  3  0  0  0  0  0  0
  -22.8310   -8.5410   20.9970 C   0  0  0  0  0  0  0  0  0  0  0  0
  -22.4510   -9.6070   20.1630 C   0  0  0  0  0  3  0  0  0  0  0  0
  -23.2450  -10.7620   20.0720 C   0  0  0  0  0  3  0  0  0  0  0  0
  -22.0090   -7.4400   21.0020 O   0  0  0  0  0  0  0  0  0  0  0  0
  -21.9540   -6.5870   22.0760 C   0  0  0  0  0  0  0  0  0  0  0  0
  -21.6110   -7.0400   23.3690 C   0  0  0  0  0  3  0  0  0  0  0  0
  -21.4970   -6.1190   24.4290 C   0  0  0  0  0  3  0  0  0  0  0  0
  -21.7170   -4.7490   24.1990 C   0  0  0  0  0  0  0  0  0  0  0  0
  -22.0530   -4.2950   22.9110 C   0  0  0  0  0  3  0  0  0  0  0  0
  -22.1680   -5.2120   21.8510 C   0  0  0  0  0  0  0  0  0  0  0  0
  -22.4710   -4.7680   20.6080 F   0  0  0  0  0  0  0  0  0  0  0  0
  -21.5990   -3.8620   25.2150 F   0  0  0  0  0  0  0  0  0  0  0  0
  -23.4890  -14.0060   21.2220 C   0  0  0  0  0  0  0  0  0  0  0  0
  -22.7380  -13.2860   22.0480 N   0  0  0  0  0  0  0  0  0  0  0  0
  -23.1010  -15.0940   20.7950 O   0  0  0  0  0  0  0  0  0  0  0  0
  -23.0670  -12.4070   22.4180 H   0  0  0  0  0  0  0  0  0  0  0  0
  -21.8240  -13.6220   22.3190 H   0  0  0  0  0  0  0  0  0  0  0  0
  -26.1970  -15.5810   20.4920 N   0  0  0  0  0  0  0  0  0  0  0  0
  -25.4730  -16.2670   20.6690 H   0  0  0  0  0  0  0  0  0  0  0  0
  -27.0680  -15.9950   20.1890 H   0  0  0  0  0  0  0  0  0  0  0  0
  -29.8350  -19.1260   21.7410 C   0  0  0  0  0  2  0  0  0  0  0  0
  -28.3300  -21.1860   21.2770 C   0  0  0  0  0  1  0  0  0  0  0  0
  -29.4200  -20.5550   22.1610 C   0  0  0  0  0  2  0  0  0  0  0  0
  -30.1680  -21.2310   19.6380 O   0  0  0  0  0  0  0  0  0  0  0  0
  -30.2650  -22.2390   18.5970 C   0  0  0  0  0  2  0  0  0  0  0  0
  -29.5130  -24.5380   17.9030 C   0  0  0  0  0  3  0  0  0  0  0  0
  -29.8270  -23.6880   18.9170 C   0  0  0  0  0  3  0  0  0  0  0  0
  -29.0970  -26.0240   17.8040 C   0  0  0  0  0  2  0  0  0  0  0  0
  -28.8700  -26.7910   19.0050 O   0  0  0  0  0  0  0  0  0  0  0  0
  -24.7390  -31.3010   22.7520 C   0  0  0  0  0  0  0  0  0  0  0  0
  -27.6530  -27.4530   19.1070 C   0  0  0  0  0  0  0  0  0  0  0  0
  -23.6030  -29.9700   21.0070 C   0  0  0  0  0  3  0  0  0  0  0  0
  -25.1320  -28.7380   19.3750 C   0  0  0  0  0  0  0  0  0  0  0  0
  -26.0790  -30.5780   20.7720 C   0  0  0  0  0  2  0  0  0  0  0  0
  -26.2640  -29.2930   19.9830 C   0  0  0  0  0  0  0  0  0  0  0  0
  -27.5250  -28.6540   19.8560 C   0  0  0  0  0  3  0  0  0  0  0  0
  -26.4910  -26.9120   18.5160 C   0  0  0  0  0  3  0  0  0  0  0  0
  -25.2410  -27.5460   18.6390 C   0  0  0  0  0  3  0  0  0  0  0  0
  -23.8170  -29.4660   19.5550 C   0  0  0  0  0  2  0  0  0  0  0  0
  -24.8260  -30.6290   21.5700 N   0  0  0  0  0  0  0  0  0  0  0  0
  -23.6600  -31.4090   23.3510 O   0  0  0  0  0  0  0  0  0  0  0  0
  -23.0890  -28.7950   21.8710 C   0  0  0  0  0  0  0  0  0  0  0  0
  -21.7870  -28.4860   21.7510 N   0  0  0  0  0  0  0  0  0  0  0  0
  -23.8560  -28.1690   22.6060 O   0  0  0  0  0  0  0  0  0  0  0  0
  -21.2210  -29.0550   21.1360 H   0  0  0  0  0  0  0  0  0  0  0  0
  -18.5830  -26.8580   22.1440 C   0  0  0  0  0  0  0  0  0  0  0  0
  -21.0950  -27.3940   22.4360 C   0  0  0  0  0  3  0  0  0  0  0  0
  -21.3590  -26.0410   21.7350 C   0  0  0  0  0  2  0  0  0  0  0  0
  -20.2920  -25.6800   20.6970 C   0  0  0  0  0  2  0  0  0  0  0  0
  -18.9100  -25.6030   21.3520 C   0  0  0  0  0  2  0  0  0  0  0  0
  -19.6090  -27.7070   22.6390 C   0  0  0  0  0  0  0  0  0  0  0  0
  -19.2480  -28.8790   23.3390 C   0  0  0  0  0  3  0  0  0  0  0  0
  -17.8970  -29.2050   23.5490 C   0  0  0  0  0  3  0  0  0  0  0  0
  -16.8860  -28.3540   23.0700 C   0  0  0  0  0  3  0  0  0  0  0  0
  -17.2300  -27.1810   22.3750 C   0  0  0  0  0  3  0  0  0  0  0  0
  -25.9840  -31.9860   23.3960 C   0  0  0  0  0  3  0  0  0  0  0  0
  -25.5490  -33.2850   23.9290 N   0  0  0  0  0  0  0  0  0  0  0  0
  -25.7610  -34.4630   23.3290 C   0  0  0  0  0  0  0  0  0  0  0  0
  -26.4130  -34.5760   22.2870 O   0  0  0  0  0  0  0  0  0  0  0  0
  -24.9590  -33.2620   24.7480 H   0  0  0  0  0  0  0  0  0  0  0  0
  -23.8650  -36.1140   23.2460 C   0  0  0  0  0  1  0  0  0  0  0  0
  -25.1510  -35.7150   23.9870 C   0  0  0  0  0  3  0  0  0  0  0  0
  -27.2110  -36.6650   24.9300 C   0  0  0  0  0  1  0  0  0  0  0  0
  -26.0780  -36.8690   24.0300 N   0  0  0  0  0  0  0  0  0  0  0  0
  -25.5900  -37.7120   24.3190 H   0  0  0  0  0  0  0  0  0  0  0  0
  -26.6570  -31.1150   24.5280 C   0  0  1  0  0  0  0  0  0  0  0  0
  -25.6640  -30.6220   25.6060 C   0  0  0  0  0  1  0  0  0  0  0  0
  -27.3520  -29.8730   23.9230 C   0  0  0  0  0  1  0  0  0  0  0  0
  -27.7610  -31.9380   25.2350 C   0  0  0  0  0  1  0  0  0  0  0  0
  1  3  1  0
  2  5  2  0
  3  4  2  0
  3  8  1  0
  4 47  1  0
  5 50  1  0
  5  4  1  0
  6  2  1  0
  6  1  2  0
  7  6  1  0
  8  9  2  0
  9 10  1  0
 11  8  1  0
 12 17  1  0
 13 14  1  0
 13 12  1  0
 15 14  1  0
 15 22  1  0
 15 16  1  0
 17 11  1  0
 17 16  1  0
 18 11  2  0
 19 20  2  0
 20 39  1  0
 21 24  1  0
 21 20  1  0
 22 23  1  0
 22 19  1  0
 23 21  2  0
 24 25  1  0
 25 26  2  0
 27 30  1  0
 27 26  1  0
 28 27  2  0
 29 28  1  0
 29 24  2  0
 30 31  1  0
 31 32  1  0
 32 33  2  0
 34 33  1  0
 34 38  1  0
 35 34  2  0
 36 31  2  0
 36 35  1  0
 37 36  1  0
 39 40  1  0
 40 43  1  0
 40 42  1  0
 41 39  2  0
 44 19  1  0
 44 45  1  0
 46 44  1  0
 47 49  1  0
 48 49  1  0
 51 53  1  0
 51 50  1  0
 52 53  2  0
 54 52  1  0
 54 55  1  0
 55 57  1  0
 56 67  2  0
 57 62  1  0
 58 66  1  0
 58 68  1  0
 59 65  1  0
 59 61  1  0
 60 66  1  0
 61 60  1  0
 62 61  2  0
 63 64  1  0
 63 57  2  0
 64 59  2  0
 65 58  1  0
 66 56  1  0
 68 70  2  0
 69 68  1  0
 71 69  1  0
 72 81  2  0
 72 77  1  0
 73 69  1  0
 73 77  1  0
 74 73  1  0
 75 76  1  0
 75 74  1  0
 76 72  1  0
 77 78  2  0
 78 79  1  0
 80 79  2  0
 81 80  1  0
 82 56  1  0
 82 83  1  0
 82 92  1  0
 83 86  1  0
 84 83  1  0
 84 88  1  0
 85 84  2  0
 88 87  1  0
 88 90  1  0
 90 91  1  0
 90 89  1  0
 92 95  1  1
 92 93  1  0
 94 92  1  0
M  ISO  4   8 100  11 100  54 101  55 101
M  END
>  <TORSDO>  (54) 
F 23

>  <SCORE>  (54) 
-9.292

>  <name>  (54) 
53

>  <ligand_id>  (54) 
53

>  <original_smiles>  (54) 
[H]N=C(C(=O)N1C([H])([H])C([H])([H])C([H])([H])C([H])(n2nc(-c3c([H])c([H])c(Oc4c([H])c([H])c(F)c([H])c4F)c([H])c3[H])c(C(=O)N([H])[H])c2N([H])[H])C1([H])[H])c1c([H])c(F)c([H])c(OC([H])([H])C([H])=C([H])C([H])([H])Oc2c([H])c([H])c3c(c2[H])C([H])([H])N(C(=O)C([H])(N([H])C(=O)C([H])(N([H])C([H])([H])[H])C([H])([H])[H])C(C([H])([H])[H])(C([H])([H])[H])C([H])([H])[H])C([H])(C(=O)N([H])C2([H])c4c([H])c([H])c([H])c([H])c4C([H])([H])C([H])([H])C2([H])[H])C3([H])[H])c1C([H])([H])C([H])([H])C([H])([H])[H]

>  <smiles>  (54) 
[H]N=C(C(=O)N1C([H])([H])C([H])([H])C([H])([H])C([H])(n2nc(-c3c([H])c([H])c(Oc4c([H])c([H])c(F)c([H])c4F)c([H])c3[H])c(C(=O)N([H])[H])c2N([H])[H])C1([H])[H])c1c([H])c(F)c([H])c(OC([H])([H])C([H])=C([H])C([H])([H])Oc2c([H])c([H])c3c(c2[H])C([H])([H])N(C(=O)C([H])(N([H])C(=O)C([H])(N([H])C([H])([H])[H])C([H])([H])[H])C(C([H])([H])[H])(C([H])([H])[H])C([H])([H])[H])C([H])(C(=O)N([H])C2([H])c4c([H])c([H])c([H])c([H])c4C([H])([H])C([H])([H])C2([H])[H])C3([H])[H])c1C([H])([H])C([H])([H])C([H])([H])[H]

$$$$
54:0:0
     RDKit          3D

 95103  0  0  1  0  0  0  0  0999 V2000
  -29.5820  -21.3740   19.7640 C   0  0  0  0  0  3  0  0  0  0  0  0
  -29.2890  -21.8170   18.6160 N   0  0  0  0  0  2  0  0  0  0  0  0
  -29.2160  -21.0350   17.9680 H   0  0  0  0  0  0  0  0  0  0  0  0
  -29.9540  -19.4110   21.3470 C   0  0  0  0  0  3  0  0  0  0  0  0
  -30.1560  -18.0460   21.6490 C   0  0  0  0  0  3  0  0  0  0  0  0
  -30.0350  -17.5270   19.2920 C   0  0  0  0  0  3  0  0  0  0  0  0
  -29.7750  -19.8820   20.0200 C   0  0  0  0  0  0  0  0  0  0  0  0
  -30.2120  -17.0870   20.6230 C   0  0  0  0  0  0  0  0  0  0  0  0
  -29.8050  -18.9000   18.9740 C   0  0  0  0  0  0  0  0  0  0  0  0
  -30.9860  -14.7580   20.2450 C   0  0  0  0  0  0  0  0  0  0  0  0
  -30.6790  -12.6510   19.0050 C   0  0  0  0  0  2  0  0  0  0  0  0
  -29.6990  -12.9270   17.8440 C   0  0  0  0  0  2  0  0  0  0  0  0
  -28.2370  -12.7630   18.3100 C   0  0  0  0  0  2  0  0  0  0  0  0
  -27.9410  -13.5250   19.6320 C   0  0  0  0  0  3  0  0  0  0  0  0
  -29.0300  -13.2280   20.6890 C   0  0  0  0  0  2  0  0  0  0  0  0
  -30.3400  -13.5670   20.1060 N   0  0  0  0  0  0  0  0  0  0  0  0
  -32.0670  -15.0050   19.7020 O   0  0  0  0  0  0  0  0  0  0  0  0
  -30.3260  -15.6980   20.9490 N   0  0  0  0  0  0  0  0  0  0  0  0
  -29.6170  -15.3430   21.5740 H   0  0  0  0  0  0  0  0  0  0  0  0
  -25.5510  -14.0910   20.4100 C   0  0  0  0  0  0  0  0  0  0  0  0
  -24.5020  -13.2970   20.7900 C   0  0  0  0  0  0  0  0  0  0  0  0
  -24.9790  -11.9530   20.7220 C   0  0  0  0  0  0  0  0  0  0  0  0
  -26.6020  -13.2270   20.1360 N   0  0  0  0  0  0  0  0  0  0  0  0
  -26.2610  -11.9360   20.3780 N   0  0  0  0  0  0  0  0  0  0  0  0
  -24.2720  -10.6780   20.9060 C   0  0  0  0  0  0  0  0  0  0  0  0
  -24.6690   -9.7500   21.8940 C   0  0  0  0  0  3  0  0  0  0  0  0
  -23.9620   -8.5390   22.0640 C   0  0  0  0  0  3  0  0  0  0  0  0
  -22.8450   -8.2490   21.2460 C   0  0  0  0  0  0  0  0  0  0  0  0
  -22.4690   -9.1660   20.2470 C   0  0  0  0  0  3  0  0  0  0  0  0
  -23.1780  -10.3670   20.0760 C   0  0  0  0  0  3  0  0  0  0  0  0
  -22.1160   -7.0860   21.3200 O   0  0  0  0  0  0  0  0  0  0  0  0
  -21.9230   -6.4330   22.5120 C   0  0  0  0  0  0  0  0  0  0  0  0
  -21.2760   -7.0520   23.6040 C   0  0  0  0  0  3  0  0  0  0  0  0
  -21.0380   -6.3240   24.7860 C   0  0  0  0  0  3  0  0  0  0  0  0
  -21.4330   -4.9750   24.8740 C   0  0  0  0  0  0  0  0  0  0  0  0
  -22.0710   -4.3550   23.7860 C   0  0  0  0  0  3  0  0  0  0  0  0
  -22.3120   -5.0820   22.6070 C   0  0  0  0  0  0  0  0  0  0  0  0
  -22.9090   -4.4740   21.5530 F   0  0  0  0  0  0  0  0  0  0  0  0
  -21.1960   -4.2720   26.0070 F   0  0  0  0  0  0  0  0  0  0  0  0
  -23.1070  -13.7510   21.1070 C   0  0  0  0  0  0  0  0  0  0  0  0
  -22.4150  -13.0380   21.9900 N   0  0  0  0  0  0  0  0  0  0  0  0
  -22.6370  -14.7730   20.6090 O   0  0  0  0  0  0  0  0  0  0  0  0
  -22.8090  -12.2150   22.4190 H   0  0  0  0  0  0  0  0  0  0  0  0
  -21.4770  -13.3210   22.2400 H   0  0  0  0  0  0  0  0  0  0  0  0
  -25.6930  -15.4660   20.2580 N   0  0  0  0  0  0  0  0  0  0  0  0
  -24.9240  -16.1070   20.4090 H   0  0  0  0  0  0  0  0  0  0  0  0
  -26.5350  -15.9270   19.9350 H   0  0  0  0  0  0  0  0  0  0  0  0
  -29.6140  -19.3200   17.6680 O   0  0  0  0  0  0  0  0  0  0  0  0
  -27.4860  -18.5510   16.7480 C   0  0  0  0  0  1  0  0  0  0  0  0
  -29.0180  -18.4630   16.6980 C   0  0  0  0  0  2  0  0  0  0  0  0
  -29.8060  -22.3930   20.8340 C   0  0  0  0  0  3  0  0  0  0  0  0
  -29.2830  -23.6360   21.0230 C   0  0  0  0  0  3  0  0  0  0  0  0
  -28.2530  -24.4430   20.2210 C   0  0  0  0  0  2  0  0  0  0  0  0
  -28.8160  -25.7520   19.5940 C   0  0  0  0  0  2  0  0  0  0  0  0
  -28.6730  -26.9570   20.3800 O   0  0  0  0  0  0  0  0  0  0  0  0
  -24.6980  -32.0300   23.4660 C   0  0  0  0  0  0  0  0  0  0  0  0
  -27.4830  -27.6710   20.3460 C   0  0  0  0  0  0  0  0  0  0  0  0
  -23.5590  -30.6570   21.7570 C   0  0  0  0  0  3  0  0  0  0  0  0
  -25.0710  -29.1730   20.3360 C   0  0  0  0  0  0  0  0  0  0  0  0
  -26.0890  -31.0390   21.6470 C   0  0  0  0  0  2  0  0  0  0  0  0
  -26.2080  -29.6850   20.9720 C   0  0  0  0  0  0  0  0  0  0  0  0
  -27.4140  -28.9390   20.9790 C   0  0  0  0  0  3  0  0  0  0  0  0
  -26.3180  -27.1770   19.7150 C   0  0  0  0  0  3  0  0  0  0  0  0
  -25.1220  -27.9190   19.7080 C   0  0  0  0  0  3  0  0  0  0  0  0
  -23.8170  -30.0190   20.3670 C   0  0  0  0  0  2  0  0  0  0  0  0
  -24.7990  -31.2550   22.3490 N   0  0  0  0  0  0  0  0  0  0  0  0
  -23.5980  -32.2770   23.9770 O   0  0  0  0  0  0  0  0  0  0  0  0
  -22.8930  -29.6030   22.6690 C   0  0  0  0  0  0  0  0  0  0  0  0
  -21.5830  -29.3780   22.4700 N   0  0  0  0  0  0  0  0  0  0  0  0
  -23.5530  -28.9920   23.5150 O   0  0  0  0  0  0  0  0  0  0  0  0
  -21.1120  -29.9250   21.7640 H   0  0  0  0  0  0  0  0  0  0  0  0
  -18.2300  -28.0630   22.7650 C   0  0  0  0  0  0  0  0  0  0  0  0
  -20.7580  -28.4050   23.1860 C   0  0  0  0  0  3  0  0  0  0  0  0
  -20.9430  -26.9850   22.6020 C   0  0  0  0  0  2  0  0  0  0  0  0
  -19.9110  -26.6360   21.5240 C   0  0  0  0  0  2  0  0  0  0  0  0
  -18.4920  -26.7260   22.0910 C   0  0  0  0  0  2  0  0  0  0  0  0
  -19.2960  -28.8580   23.2640 C   0  0  0  0  0  0  0  0  0  0  0  0
  -19.0010  -30.1070   23.8520 C   0  0  0  0  0  3  0  0  0  0  0  0
  -17.6740  -30.5650   23.9450 C   0  0  0  0  0  3  0  0  0  0  0  0
  -16.6210  -29.7670   23.4650 C   0  0  0  0  0  3  0  0  0  0  0  0
  -16.9000  -28.5180   22.8810 C   0  0  0  0  0  3  0  0  0  0  0  0
  -25.9570  -32.6600   24.1410 C   0  0  0  0  0  3  0  0  0  0  0  0
  -25.6340  -34.0580   24.4570 N   0  0  0  0  0  0  0  0  0  0  0  0
  -25.9910  -35.1090   23.7050 C   0  0  0  0  0  0  0  0  0  0  0  0
  -26.6960  -35.0040   22.6990 O   0  0  0  0  0  0  0  0  0  0  0  0
  -25.0100  -34.2150   25.2340 H   0  0  0  0  0  0  0  0  0  0  0  0
  -24.2650  -36.8920   23.2930 C   0  0  0  0  0  1  0  0  0  0  0  0
  -25.4840  -36.4970   24.1410 C   0  0  0  0  0  3  0  0  0  0  0  0
  -27.5870  -37.3990   25.0320 C   0  0  0  0  0  1  0  0  0  0  0  0
  -26.5150  -37.5540   24.0530 N   0  0  0  0  0  0  0  0  0  0  0  0
  -26.1010  -38.4740   24.1790 H   0  0  0  0  0  0  0  0  0  0  0  0
  -26.4200  -31.8880   25.4370 C   0  0  1  0  0  0  0  0  0  0  0  0
  -25.2730  -31.6080   26.4360 C   0  0  0  0  0  1  0  0  0  0  0  0
  -27.0640  -30.5310   25.0660 C   0  0  0  0  0  1  0  0  0  0  0  0
  -27.5090  -32.7040   26.1740 C   0  0  0  0  0  1  0  0  0  0  0  0
  1  7  1  0
  1 51  1  0
  2  1  1  0
  3  2  1  0
  4  5  1  0
  6  8  1  0
  7  4  2  0
  8 18  1  0
  8  5  2  0
  9  6  2  0
  9  7  1  0
 10 18  1  0
 11 16  1  0
 12 13  1  0
 12 11  1  0
 14 13  1  0
 14 23  1  0
 14 15  1  0
 16 10  1  0
 16 15  1  0
 17 10  2  0
 18 19  1  0
 20 21  2  0
 21 40  1  0
 22 21  1  0
 22 25  1  0
 23 24  1  0
 23 20  1  0
 24 22  2  0
 25 26  1  0
 26 27  2  0
 28 31  1  0
 28 27  1  0
 29 28  2  0
 30 29  1  0
 30 25  2  0
 31 32  1  0
 32 37  2  0
 32 33  1  0
 33 34  2  0
 34 35  1  0
 35 39  1  0
 36 35  2  0
 37 36  1  0
 38 37  1  0
 40 41  1  0
 41 44  1  0
 41 43  1  0
 42 40  2  0
 45 46  1  0
 45 20  1  0
 47 45  1  0
 48  9  1  0
 50 49  1  0
 50 48  1  0
 51 52  2  0
 53 52  1  0
 54 53  1  0
 54 55  1  0
 56 67  2  0
 57 55  1  0
 57 62  1  0
 58 66  1  0
 58 68  1  0
 59 65  1  0
 59 61  1  0
 60 66  1  0
 61 62  2  0
 61 60  1  0
 63 57  2  0
 64 63  1  0
 64 59  2  0
 65 58  1  0
 66 56  1  0
 68 70  2  0
 69 68  1  0
 71 69  1  0
 72 81  2  0
 72 77  1  0
 73 69  1  0
 73 77  1  0
 74 73  1  0
 75 76  1  0
 75 74  1  0
 76 72  1  0
 77 78  2  0
 78 79  1  0
 80 79  2  0
 81 80  1  0
 82 56  1  0
 82 83  1  0
 82 92  1  0
 83 86  1  0
 84 88  1  0
 84 83  1  0
 85 84  2  0
 88 87  1  0
 90 88  1  0
 90 91  1  0
 90 89  1  0
 92 95  1  1
 92 93  1  0
 94 92  1  0
M  ISO  4  10 100  18 100  54 101  55 101
M  END
>  <TORSDO>  (55) 
F 22

>  <SCORE>  (55) 
-12.196

>  <name>  (55) 
54

>  <ligand_id>  (55) 
54

>  <original_smiles>  (55) 
[H]N=C(C([H])=C([H])C([H])([H])C([H])([H])Oc1c([H])c([H])c2c(c1[H])C([H])([H])N(C(=O)C([H])(N([H])C(=O)C([H])(N([H])C([H])([H])[H])C([H])([H])[H])C(C([H])([H])[H])(C([H])([H])[H])C([H])([H])[H])C([H])(C(=O)N([H])C1([H])c3c([H])c([H])c([H])c([H])c3C([H])([H])C([H])([H])C1([H])[H])C2([H])[H])c1c([H])c([H])c(N([H])C(=O)N2C([H])([H])C([H])([H])C([H])([H])C([H])(n3nc(-c4c([H])c([H])c(Oc5c([H])c([H])c(F)c([H])c5F)c([H])c4[H])c(C(=O)N([H])[H])c3N([H])[H])C2([H])[H])c([H])c1OC([H])([H])C([H])([H])[H]

>  <smiles>  (55) 
[H]N=C(C([H])=C([H])C([H])([H])C([H])([H])Oc1c([H])c([H])c2c(c1[H])C([H])([H])N(C(=O)C([H])(N([H])C(=O)C([H])(N([H])C([H])([H])[H])C([H])([H])[H])C(C([H])([H])[H])(C([H])([H])[H])C([H])([H])[H])C([H])(C(=O)N([H])C1([H])c3c([H])c([H])c([H])c([H])c3C([H])([H])C([H])([H])C1([H])[H])C2([H])[H])c1c([H])c([H])c(N([H])C(=O)N2C([H])([H])C([H])([H])C([H])([H])C([H])(n3nc(-c4c([H])c([H])c(Oc5c([H])c([H])c(F)c([H])c5F)c([H])c4[H])c(C(=O)N([H])[H])c3N([H])[H])C2([H])[H])c([H])c1OC([H])([H])C([H])([H])[H]

$$$$
55:0:0
     RDKit          3D

 93101  0  0  1  0  0  0  0  0999 V2000
  -27.3750  -17.9620   20.4860 C   0  0  0  0  0  3  0  0  0  0  0  0
  -27.9600  -19.2270   20.4550 C   0  0  0  0  0  3  0  0  0  0  0  0
  -30.1360  -18.1500   20.5270 C   0  0  0  0  0  3  0  0  0  0  0  0
  -28.1300  -16.7760   20.5870 C   0  0  0  0  0  0  0  0  0  0  0  0
  -29.5640  -16.7940   20.5100 C   0  0  0  0  0  0  0  0  0  0  0  0
  -29.3540  -19.3960   20.5570 C   0  0  0  0  0  0  0  0  0  0  0  0
  -30.3160  -15.4140   20.7390 C   0  0  0  0  0  0  0  0  0  0  0  0
  -30.6650  -15.1560   21.9330 N   0  0  0  0  0  0  0  0  0  0  0  0
  -30.3790  -15.8990   22.5600 H   0  0  0  0  0  0  0  0  0  0  0  0
  -30.7170  -14.3030   19.6470 C   0  0  0  0  0  0  0  0  0  0  0  0
  -30.4140  -12.0770   18.5050 C   0  0  0  0  0  2  0  0  0  0  0  0
  -29.3480  -12.1790   17.3900 C   0  0  0  0  0  2  0  0  0  0  0  0
  -27.9280  -11.9910   17.9570 C   0  0  0  0  0  2  0  0  0  0  0  0
  -27.6910  -12.8250   19.2450 C   0  0  0  0  0  3  0  0  0  0  0  0
  -28.8610  -12.6200   20.2390 C   0  0  0  0  0  2  0  0  0  0  0  0
  -30.0870  -13.0680   19.5670 N   0  0  0  0  0  0  0  0  0  0  0  0
  -31.7290  -14.4980   18.9620 O   0  0  0  0  0  0  0  0  0  0  0  0
  -25.3410  -13.3990   20.1080 C   0  0  0  0  0  0  0  0  0  0  0  0
  -24.3260  -12.6240   20.5970 C   0  0  0  0  0  0  0  0  0  0  0  0
  -24.8070  -11.2800   20.5620 C   0  0  0  0  0  0  0  0  0  0  0  0
  -26.3880  -12.5340   19.8360 N   0  0  0  0  0  0  0  0  0  0  0  0
  -26.0720  -11.2520   20.1550 N   0  0  0  0  0  0  0  0  0  0  0  0
  -24.1130  -10.0140   20.8340 C   0  0  0  0  0  0  0  0  0  0  0  0
  -24.5440   -9.1430   21.8590 C   0  0  0  0  0  3  0  0  0  0  0  0
  -23.8470   -7.9420   22.1160 C   0  0  0  0  0  3  0  0  0  0  0  0
  -22.7080   -7.6030   21.3500 C   0  0  0  0  0  0  0  0  0  0  0  0
  -22.2960   -8.4630   20.3160 C   0  0  0  0  0  3  0  0  0  0  0  0
  -22.9930   -9.6560   20.0570 C   0  0  0  0  0  3  0  0  0  0  0  0
  -21.9850   -6.4460   21.5120 O   0  0  0  0  0  0  0  0  0  0  0  0
  -21.8210   -5.8670   22.7450 C   0  0  0  0  0  0  0  0  0  0  0  0
  -21.2250   -6.5610   23.8200 C   0  0  0  0  0  3  0  0  0  0  0  0
  -21.0130   -5.9060   25.0500 C   0  0  0  0  0  3  0  0  0  0  0  0
  -21.3870   -4.5580   25.2040 C   0  0  0  0  0  0  0  0  0  0  0  0
  -21.9750   -3.8630   24.1330 C   0  0  0  0  0  3  0  0  0  0  0  0
  -22.1890   -4.5160   22.9070 C   0  0  0  0  0  0  0  0  0  0  0  0
  -22.7370   -3.8350   21.8710 F   0  0  0  0  0  0  0  0  0  0  0  0
  -21.1760   -3.9260   26.3820 F   0  0  0  0  0  0  0  0  0  0  0  0
  -22.9510  -13.0920   20.9770 C   0  0  0  0  0  0  0  0  0  0  0  0
  -22.3210  -12.4260   21.9380 N   0  0  0  0  0  0  0  0  0  0  0  0
  -22.4480  -14.0870   20.4590 O   0  0  0  0  0  0  0  0  0  0  0  0
  -22.7400  -11.6210   22.3790 H   0  0  0  0  0  0  0  0  0  0  0  0
  -21.4040  -12.7270   22.2370 H   0  0  0  0  0  0  0  0  0  0  0  0
  -25.4440  -14.7610   19.8480 N   0  0  0  0  0  0  0  0  0  0  0  0
  -24.6750  -15.3980   20.0230 H   0  0  0  0  0  0  0  0  0  0  0  0
  -26.2600  -15.2240   19.4730 H   0  0  0  0  0  0  0  0  0  0  0  0
  -26.1110  -15.5800   21.4800 C   0  0  0  0  0  2  0  0  0  0  0  0
  -27.3360  -15.5770   20.9240 C   0  0  0  0  0  3  0  0  0  0  0  0
  -29.8560  -20.7340   20.7150 O   0  0  0  0  0  0  0  0  0  0  0  0
  -28.9040  -21.9060   20.6460 C   0  0  0  0  0  2  0  0  0  0  0  0
  -29.4290  -23.4240   20.7220 C   0  0  0  0  0  0  0  0  0  0  0  0
  -30.5530  -23.6800   21.1700 O   0  0  0  0  0  0  0  0  0  0  0  0
  -28.4660  -24.6020   20.2080 C   0  0  0  0  0  2  0  0  0  0  0  0
  -28.7310  -26.0520   20.5380 O   0  0  0  0  0  0  0  0  0  0  0  0
  -24.9430  -31.5890   23.3690 C   0  0  0  0  0  0  0  0  0  0  0  0
  -27.6410  -26.9570   20.4330 C   0  0  0  0  0  0  0  0  0  0  0  0
  -23.7900  -30.1800   21.7060 C   0  0  0  0  0  3  0  0  0  0  0  0
  -25.2830  -28.6130   20.3380 C   0  0  0  0  0  0  0  0  0  0  0  0
  -26.3400  -30.4770   21.6060 C   0  0  0  0  0  2  0  0  0  0  0  0
  -26.4380  -29.0900   20.9700 C   0  0  0  0  0  0  0  0  0  0  0  0
  -27.6190  -28.2760   21.0080 C   0  0  0  0  0  3  0  0  0  0  0  0
  -26.4590  -26.5560   19.7640 C   0  0  0  0  0  3  0  0  0  0  0  0
  -25.3000  -27.3530   19.7250 C   0  0  0  0  0  3  0  0  0  0  0  0
  -24.0480  -29.4920   20.3410 C   0  0  0  0  0  2  0  0  0  0  0  0
  -25.0420  -30.7670   22.2840 N   0  0  0  0  0  0  0  0  0  0  0  0
  -23.8430  -31.8770   23.8640 O   0  0  0  0  0  0  0  0  0  0  0  0
  -23.0890  -29.1750   22.6520 C   0  0  0  0  0  0  0  0  0  0  0  0
  -21.7800  -28.9540   22.4450 N   0  0  0  0  0  0  0  0  0  0  0  0
  -23.7270  -28.5950   23.5350 O   0  0  0  0  0  0  0  0  0  0  0  0
  -21.3240  -29.4740   21.7070 H   0  0  0  0  0  0  0  0  0  0  0  0
  -18.4190  -27.6430   22.7370 C   0  0  0  0  0  0  0  0  0  0  0  0
  -20.9370  -28.0170   23.1900 C   0  0  0  0  0  3  0  0  0  0  0  0
  -21.1370  -26.5690   22.6880 C   0  0  0  0  0  2  0  0  0  0  0  0
  -20.1310  -26.1610   21.6060 C   0  0  0  0  0  2  0  0  0  0  0  0
  -18.6980  -26.2750   22.1350 C   0  0  0  0  0  2  0  0  0  0  0  0
  -19.4720  -28.4670   23.2160 C   0  0  0  0  0  0  0  0  0  0  0  0
  -19.1590  -29.7420   23.7350 C   0  0  0  0  0  3  0  0  0  0  0  0
  -17.8280  -30.1960   23.7790 C   0  0  0  0  0  3  0  0  0  0  0  0
  -16.7880  -29.3710   23.3170 C   0  0  0  0  0  3  0  0  0  0  0  0
  -17.0850  -28.0960   22.8030 C   0  0  0  0  0  3  0  0  0  0  0  0
  -26.2050  -32.2250   24.0280 C   0  0  0  0  0  3  0  0  0  0  0  0
  -25.8980  -33.6350   24.3080 N   0  0  0  0  0  0  0  0  0  0  0  0
  -26.2520  -34.6620   23.5250 C   0  0  0  0  0  0  0  0  0  0  0  0
  -26.9400  -34.5230   22.5100 O   0  0  0  0  0  0  0  0  0  0  0  0
  -25.2890  -33.8180   25.0930 H   0  0  0  0  0  0  0  0  0  0  0  0
  -24.5270  -36.4470   23.1060 C   0  0  0  0  0  1  0  0  0  0  0  0
  -25.7690  -36.0680   23.9320 C   0  0  0  0  0  3  0  0  0  0  0  0
  -27.9030  -36.9810   24.7330 C   0  0  0  0  0  1  0  0  0  0  0  0
  -26.8040  -37.1150   23.7810 N   0  0  0  0  0  0  0  0  0  0  0  0
  -26.3990  -38.0410   23.8920 H   0  0  0  0  0  0  0  0  0  0  0  0
  -26.6580  -31.4840   25.3450 C   0  0  1  0  0  0  0  0  0  0  0  0
  -25.5130  -31.2660   26.3620 C   0  0  0  0  0  1  0  0  0  0  0  0
  -27.2640  -30.1000   25.0180 C   0  0  0  0  0  1  0  0  0  0  0  0
  -27.7730  -32.2980   26.0450 C   0  0  0  0  0  1  0  0  0  0  0  0
  1  4  1  0
  2  1  2  0
  2  6  1  0
  3  6  2  0
  4 47  1  0
  5  3  1  0
  5  4  2  0
  5  7  1  0
  6 48  1  0
  7  8  2  0
  8  9  1  0
 10  7  1  0
 11 16  1  0
 12 13  1  0
 12 11  1  0
 14 13  1  0
 14 21  1  0
 14 15  1  0
 16 10  1  0
 16 15  1  0
 17 10  2  0
 18 19  2  0
 19 38  1  0
 20 19  1  0
 20 23  1  0
 21 18  1  0
 21 22  1  0
 22 20  2  0
 23 24  1  0
 24 25  2  0
 26 29  1  0
 26 25  1  0
 27 26  2  0
 28 27  1  0
 28 23  2  0
 29 30  1  0
 30 35  2  0
 30 31  1  0
 31 32  2  0
 32 33  1  0
 33 37  1  0
 34 33  2  0
 35 34  1  0
 36 35  1  0
 38 39  1  0
 39 42  1  0
 39 41  1  0
 40 38  2  0
 43 44  1  0
 43 18  1  0
 45 43  1  0
 47 46  2  0
 49 48  1  0
 49 50  1  0
 50 51  2  0
 52 53  1  0
 52 50  1  0
 54 65  2  0
 55 53  1  0
 55 60  1  0
 56 64  1  0
 56 66  1  0
 57 63  1  0
 57 59  1  0
 58 64  1  0
 59 60  2  0
 59 58  1  0
 61 55  2  0
 62 61  1  0
 62 57  2  0
 63 56  1  0
 64 54  1  0
 66 68  2  0
 67 66  1  0
 69 67  1  0
 70 79  2  0
 70 75  1  0
 71 67  1  0
 71 75  1  0
 72 71  1  0
 73 74  1  0
 73 72  1  0
 74 70  1  0
 75 76  2  0
 76 77  1  0
 78 77  2  0
 79 78  1  0
 80 54  1  0
 80 81  1  0
 80 90  1  0
 81 84  1  0
 82 86  1  0
 82 81  1  0
 83 82  2  0
 86 85  1  0
 88 89  1  0
 88 86  1  0
 88 87  1  0
 90 93  1  1
 90 91  1  0
 92 90  1  0
M  ISO  4   7 100  10 100  52 101  53 101
M  END
>  <TORSDO>  (56) 
F 22

>  <SCORE>  (56) 
-9.374

>  <name>  (56) 
55

>  <ligand_id>  (56) 
55

>  <original_smiles>  (56) 
[H]N=C(C(=O)N1C([H])([H])C([H])([H])C([H])([H])C([H])(n2nc(-c3c([H])c([H])c(Oc4c([H])c([H])c(F)c([H])c4F)c([H])c3[H])c(C(=O)N([H])[H])c2N([H])[H])C1([H])[H])c1c([H])c(OC([H])([H])C(=O)C([H])([H])Oc2c([H])c([H])c3c(c2[H])C([H])([H])N(C(=O)C([H])(N([H])C(=O)C([H])(N([H])C([H])([H])[H])C([H])([H])[H])C(C([H])([H])[H])(C([H])([H])[H])C([H])([H])[H])C([H])(C(=O)N([H])C2([H])c4c([H])c([H])c([H])c([H])c4C([H])([H])C([H])([H])C2([H])[H])C3([H])[H])c([H])c([H])c1C([H])=C([H])[H]

>  <smiles>  (56) 
[H]N=C(C(=O)N1C([H])([H])C([H])([H])C([H])([H])C([H])(n2nc(-c3c([H])c([H])c(Oc4c([H])c([H])c(F)c([H])c4F)c([H])c3[H])c(C(=O)N([H])[H])c2N([H])[H])C1([H])[H])c1c([H])c(OC([H])([H])C(=O)C([H])([H])Oc2c([H])c([H])c3c(c2[H])C([H])([H])N(C(=O)C([H])(N([H])C(=O)C([H])(N([H])C([H])([H])[H])C([H])([H])[H])C(C([H])([H])[H])(C([H])([H])[H])C([H])([H])[H])C([H])(C(=O)N([H])C2([H])c4c([H])c([H])c([H])c([H])c4C([H])([H])C([H])([H])C2([H])[H])C3([H])[H])c([H])c([H])c1C([H])=C([H])[H]

$$$$
56:0:0
     RDKit          3D

 92100  0  0  1  0  0  0  0  0999 V2000
  -28.0350  -17.8220   19.5090 C   0  0  0  0  0  3  0  0  0  0  0  0
  -27.1400  -18.7690   18.9990 C   0  0  0  0  0  3  0  0  0  0  0  0
  -29.4780  -19.6110   20.2640 C   0  0  0  0  0  3  0  0  0  0  0  0
  -29.2310  -18.2180   20.1330 C   0  0  0  0  0  0  0  0  0  0  0  0
  -27.4000  -20.1530   19.0770 C   0  0  0  0  0  0  0  0  0  0  0  0
  -28.5880  -20.6030   19.7480 C   0  0  0  0  0  0  0  0  0  0  0  0
  -25.0510  -20.8080   18.5280 C   0  0  0  0  0  2  0  0  0  0  0  0
  -26.3780  -21.0050   18.4390 C   0  0  0  0  0  3  0  0  0  0  0  0
  -30.1760  -17.1530   20.5710 C   0  0  0  0  0  3  0  0  0  0  0  0
  -29.7970  -15.9060   20.9570 C   0  0  0  0  0  3  0  0  0  0  0  0
  -30.7370  -14.7840   21.1030 C   0  0  0  0  0  0  0  0  0  0  0  0
  -30.6970  -12.4390   20.3540 C   0  0  0  0  0  2  0  0  0  0  0  0
  -29.9330  -12.4100   19.0110 C   0  0  0  0  0  2  0  0  0  0  0  0
  -28.4140  -12.2610   19.2430 C   0  0  0  0  0  2  0  0  0  0  0  0
  -27.8720  -13.2610   20.2960 C   0  0  0  0  0  3  0  0  0  0  0  0
  -28.7660  -13.2610   21.5590 C   0  0  0  0  0  2  0  0  0  0  0  0
  -30.1490  -13.5510   21.1480 N   0  0  0  0  0  0  0  0  0  0  0  0
  -31.9520  -14.9170   20.9230 O   0  0  0  0  0  0  0  0  0  0  0  0
  -25.4080  -13.8950   20.6900 C   0  0  0  0  0  0  0  0  0  0  0  0
  -24.3020  -13.1370   20.9570 C   0  0  0  0  0  0  0  0  0  0  0  0
  -24.7620  -11.7870   21.0400 C   0  0  0  0  0  0  0  0  0  0  0  0
  -26.4720  -13.0080   20.6220 N   0  0  0  0  0  0  0  0  0  0  0  0
  -26.0790  -11.7370   20.8930 N   0  0  0  0  0  0  0  0  0  0  0  0
  -24.0170  -10.5330   21.1940 C   0  0  0  0  0  0  0  0  0  0  0  0
  -24.3710   -9.5800   22.1750 C   0  0  0  0  0  3  0  0  0  0  0  0
  -23.6280   -8.3890   22.3150 C   0  0  0  0  0  3  0  0  0  0  0  0
  -22.5180   -8.1420   21.4740 C   0  0  0  0  0  0  0  0  0  0  0  0
  -22.1840   -9.0840   20.4840 C   0  0  0  0  0  3  0  0  0  0  0  0
  -22.9280  -10.2660   20.3420 C   0  0  0  0  0  3  0  0  0  0  0  0
  -21.7540   -7.0010   21.5200 O   0  0  0  0  0  0  0  0  0  0  0  0
  -21.6680   -6.2380   22.6570 C   0  0  0  0  0  0  0  0  0  0  0  0
  -21.2020   -6.7720   23.8780 C   0  0  0  0  0  3  0  0  0  0  0  0
  -21.0630   -5.9370   25.0050 C   0  0  0  0  0  3  0  0  0  0  0  0
  -21.3810   -4.5690   24.9100 C   0  0  0  0  0  0  0  0  0  0  0  0
  -21.8400   -4.0340   23.6930 C   0  0  0  0  0  3  0  0  0  0  0  0
  -21.9800   -4.8670   22.5700 C   0  0  0  0  0  0  0  0  0  0  0  0
  -22.4030   -4.3420   21.3940 F   0  0  0  0  0  0  0  0  0  0  0  0
  -21.2400   -3.7640   25.9900 F   0  0  0  0  0  0  0  0  0  0  0  0
  -22.8820  -13.6210   21.0370 C   0  0  0  0  0  0  0  0  0  0  0  0
  -22.0590  -12.9730   21.8530 N   0  0  0  0  0  0  0  0  0  0  0  0
  -22.5090  -14.6110   20.4090 O   0  0  0  0  0  0  0  0  0  0  0  0
  -22.3720  -12.1730   22.3830 H   0  0  0  0  0  0  0  0  0  0  0  0
  -21.1020  -13.2810   21.9500 H   0  0  0  0  0  0  0  0  0  0  0  0
  -25.5900  -15.2580   20.4820 N   0  0  0  0  0  0  0  0  0  0  0  0
  -24.8170  -15.9120   20.4870 H   0  0  0  0  0  0  0  0  0  0  0  0
  -26.4800  -15.6940   20.2910 H   0  0  0  0  0  0  0  0  0  0  0  0
  -28.9670  -21.9280   19.9730 O   0  0  0  0  0  0  0  0  0  0  0  0
  -28.2010  -23.0220   19.4340 C   0  0  0  0  0  2  0  0  0  0  0  0
  -28.7050  -24.4070   19.8840 C   0  0  0  0  0  0  0  0  0  0  0  0
  -29.3360  -24.5560   20.9380 O   0  0  0  0  0  0  0  0  0  0  0  0
  -28.3780  -25.6010   18.9590 C   0  0  0  0  0  2  0  0  0  0  0  0
  -28.2650  -26.8470   19.6810 O   0  0  0  0  0  0  0  0  0  0  0  0
  -24.5190  -31.8440   23.1080 C   0  0  0  0  0  0  0  0  0  0  0  0
  -27.0650  -27.5390   19.7310 C   0  0  0  0  0  0  0  0  0  0  0  0
  -23.2630  -30.5290   21.4330 C   0  0  0  0  0  3  0  0  0  0  0  0
  -24.6690  -29.0580   19.8950 C   0  0  0  0  0  0  0  0  0  0  0  0
  -25.7850  -30.8850   21.1840 C   0  0  0  0  0  2  0  0  0  0  0  0
  -25.8460  -29.5450   20.4740 C   0  0  0  0  0  0  0  0  0  0  0  0
  -27.0410  -28.7920   20.3930 C   0  0  0  0  0  3  0  0  0  0  0  0
  -25.8570  -27.0610   19.1660 C   0  0  0  0  0  3  0  0  0  0  0  0
  -24.6700  -27.8150   19.2420 C   0  0  0  0  0  3  0  0  0  0  0  0
  -23.4320  -29.9180   20.0170 C   0  0  0  0  0  2  0  0  0  0  0  0
  -24.5420  -31.0980   21.9670 N   0  0  0  0  0  0  0  0  0  0  0  0
  -23.4540  -32.0920   23.6900 O   0  0  0  0  0  0  0  0  0  0  0  0
  -22.6340  -29.4630   22.3590 C   0  0  0  0  0  0  0  0  0  0  0  0
  -21.3050  -29.2980   22.2670 N   0  0  0  0  0  0  0  0  0  0  0  0
  -23.3390  -28.7900   23.1170 O   0  0  0  0  0  0  0  0  0  0  0  0
  -20.7980  -29.8940   21.6270 H   0  0  0  0  0  0  0  0  0  0  0  0
  -17.9370  -28.1030   22.8060 C   0  0  0  0  0  0  0  0  0  0  0  0
  -20.5040  -28.3270   23.0120 C   0  0  0  0  0  3  0  0  0  0  0  0
  -20.5760  -26.9280   22.3590 C   0  0  0  0  0  2  0  0  0  0  0  0
  -19.4400  -26.6680   21.3630 C   0  0  0  0  0  2  0  0  0  0  0  0
  -18.0810  -26.7890   22.0570 C   0  0  0  0  0  2  0  0  0  0  0  0
  -19.0750  -28.8330   23.2400 C   0  0  0  0  0  0  0  0  0  0  0  0
  -18.8870  -30.0660   23.9020 C   0  0  0  0  0  3  0  0  0  0  0  0
  -17.5930  -30.5690   24.1320 C   0  0  0  0  0  3  0  0  0  0  0  0
  -16.4690  -29.8350   23.7140 C   0  0  0  0  0  3  0  0  0  0  0  0
  -16.6420  -28.6040   23.0580 C   0  0  0  0  0  3  0  0  0  0  0  0
  -25.8250  -32.4400   23.7220 C   0  0  0  0  0  3  0  0  0  0  0  0
  -25.5310  -33.8190   24.1330 N   0  0  0  0  0  0  0  0  0  0  0  0
  -25.8700  -34.9090   23.4330 C   0  0  0  0  0  0  0  0  0  0  0  0
  -26.5330  -34.8580   22.3930 O   0  0  0  0  0  0  0  0  0  0  0  0
  -24.9420  -33.9330   24.9450 H   0  0  0  0  0  0  0  0  0  0  0  0
  -24.1610  -36.7370   23.1820 C   0  0  0  0  0  1  0  0  0  0  0  0
  -25.3960  -36.2730   23.9700 C   0  0  0  0  0  3  0  0  0  0  0  0
  -27.5350  -37.0870   24.8580 C   0  0  0  0  0  1  0  0  0  0  0  0
  -26.4400  -37.3190   23.9210 N   0  0  0  0  0  0  0  0  0  0  0  0
  -26.0430  -38.2340   24.1170 H   0  0  0  0  0  0  0  0  0  0  0  0
  -26.3790  -31.6000   24.9380 C   0  0  1  0  0  0  0  0  0  0  0  0
  -25.3220  -31.3140   26.0300 C   0  0  0  0  0  1  0  0  0  0  0  0
  -26.9380  -30.2420   24.4550 C   0  0  0  0  0  1  0  0  0  0  0  0
  -27.5580  -32.3520   25.6000 C   0  0  0  0  0  1  0  0  0  0  0  0
  1  4  1  0
  2  5  1  0
  2  1  2  0
  4  3  2  0
  4  9  1  0
  5  6  2  0
  6 47  1  0
  6  3  1  0
  8  7  2  0
  8  5  1  0
  9 10  2  0
 10 11  1  0
 11 17  1  0
 12 17  1  0
 13 14  1  0
 13 12  1  0
 15 14  1  0
 15 22  1  0
 15 16  1  0
 17 16  1  0
 18 11  2  0
 19 20  2  0
 20 39  1  0
 20 21  1  0
 21 24  1  0
 22 19  1  0
 22 23  1  0
 23 21  2  0
 24 25  1  0
 25 26  2  0
 27 30  1  0
 27 26  1  0
 28 27  2  0
 29 28  1  0
 29 24  2  0
 30 31  1  0
 31 32  1  0
 32 33  2  0
 34 33  1  0
 34 38  1  0
 35 34  2  0
 36 31  2  0
 36 35  1  0
 37 36  1  0
 39 40  1  0
 40 43  1  0
 40 42  1  0
 41 39  2  0
 44 45  1  0
 44 19  1  0
 46 44  1  0
 48 49  1  0
 48 47  1  0
 49 50  2  0
 51 52  1  0
 51 49  1  0
 52 54  1  0
 53 64  2  0
 54 59  1  0
 55 63  1  0
 55 65  1  0
 56 62  1  0
 56 58  1  0
 57 63  1  0
 58 57  1  0
 59 58  2  0
 60 61  1  0
 60 54  2  0
 61 56  2  0
 62 55  1  0
 63 53  1  0
 65 67  2  0
 66 65  1  0
 68 66  1  0
 69 78  2  0
 69 74  1  0
 70 66  1  0
 70 74  1  0
 71 70  1  0
 72 73  1  0
 72 71  1  0
 73 69  1  0
 74 75  2  0
 75 76  1  0
 77 76  2  0
 78 77  1  0
 79 53  1  0
 79 80  1  0
 79 89  1  0
 80 83  1  0
 81 85  1  0
 81 80  1  0
 82 81  2  0
 85 84  1  0
 87 85  1  0
 87 88  1  0
 87 86  1  0
 89 92  1  1
 89 90  1  0
 91 89  1  0
M  ISO  4  10 100  11 100  51 101  52 101
M  END
>  <TORSDO>  (57) 
F 22

>  <SCORE>  (57) 
-12.697

>  <name>  (57) 
56

>  <ligand_id>  (57) 
56

>  <original_smiles>  (57) 
[H]C([H])=C([H])c1c([H])c([H])c(C([H])=C([H])C(=O)N2C([H])([H])C([H])([H])C([H])([H])C([H])(n3nc(-c4c([H])c([H])c(Oc5c([H])c([H])c(F)c([H])c5F)c([H])c4[H])c(C(=O)N([H])[H])c3N([H])[H])C2([H])[H])c([H])c1OC([H])([H])C(=O)C([H])([H])Oc1c([H])c([H])c2c(c1[H])C([H])([H])N(C(=O)C([H])(N([H])C(=O)C([H])(N([H])C([H])([H])[H])C([H])([H])[H])C(C([H])([H])[H])(C([H])([H])[H])C([H])([H])[H])C([H])(C(=O)N([H])C1([H])c3c([H])c([H])c([H])c([H])c3C([H])([H])C([H])([H])C1([H])[H])C2([H])[H]

>  <smiles>  (57) 
[H]C([H])=C([H])c1c([H])c([H])c(C([H])=C([H])C(=O)N2C([H])([H])C([H])([H])C([H])([H])C([H])(n3nc(-c4c([H])c([H])c(Oc5c([H])c([H])c(F)c([H])c5F)c([H])c4[H])c(C(=O)N([H])[H])c3N([H])[H])C2([H])[H])c([H])c1OC([H])([H])C(=O)C([H])([H])Oc1c([H])c([H])c2c(c1[H])C([H])([H])N(C(=O)C([H])(N([H])C(=O)C([H])(N([H])C([H])([H])[H])C([H])([H])[H])C(C([H])([H])[H])(C([H])([H])[H])C([H])([H])[H])C([H])(C(=O)N([H])C1([H])c3c([H])c([H])c([H])c([H])c3C([H])([H])C([H])([H])C1([H])[H])C2([H])[H]

$$$$
57:0:0
     RDKit          3D

 90 98  0  0  1  0  0  0  0  0999 V2000
  -28.2680  -22.8350   20.1730 C   0  0  0  0  0  2  0  0  0  0  0  0
  -28.3830  -24.2860   19.6720 C   0  0  0  0  0  0  0  0  0  0  0  0
  -28.5500  -24.5450   18.4740 O   0  0  0  0  0  0  0  0  0  0  0  0
  -28.2930  -25.4000   20.7290 C   0  0  0  0  0  2  0  0  0  0  0  0
  -28.4040  -26.7150   20.1540 O   0  0  0  0  0  0  0  0  0  0  0  0
  -24.6180  -31.8840   23.2450 C   0  0  0  0  0  0  0  0  0  0  0  0
  -27.2390  -27.4460   20.1550 C   0  0  0  0  0  0  0  0  0  0  0  0
  -23.4000  -30.4820   21.6100 C   0  0  0  0  0  3  0  0  0  0  0  0
  -24.8440  -28.9430   20.1780 C   0  0  0  0  0  0  0  0  0  0  0  0
  -25.9230  -30.8440   21.3930 C   0  0  0  0  0  2  0  0  0  0  0  0
  -26.0060  -29.4730   20.7540 C   0  0  0  0  0  0  0  0  0  0  0  0
  -27.2090  -28.7340   20.7350 C   0  0  0  0  0  3  0  0  0  0  0  0
  -26.0620  -26.9260   19.5740 C   0  0  0  0  0  3  0  0  0  0  0  0
  -24.8670  -27.6690   19.5840 C   0  0  0  0  0  3  0  0  0  0  0  0
  -23.6000  -29.8010   20.2300 C   0  0  0  0  0  2  0  0  0  0  0  0
  -24.6650  -31.0840   22.1410 N   0  0  0  0  0  0  0  0  0  0  0  0
  -23.5410  -32.1560   23.7930 O   0  0  0  0  0  0  0  0  0  0  0  0
  -22.7560  -29.4610   22.5750 C   0  0  0  0  0  0  0  0  0  0  0  0
  -21.4310  -29.2790   22.4560 N   0  0  0  0  0  0  0  0  0  0  0  0
  -23.4450  -28.8360   23.3860 O   0  0  0  0  0  0  0  0  0  0  0  0
  -20.9350  -29.8360   21.7740 H   0  0  0  0  0  0  0  0  0  0  0  0
  -18.0600  -28.0840   22.9670 C   0  0  0  0  0  0  0  0  0  0  0  0
  -20.6180  -28.3420   23.2310 C   0  0  0  0  0  3  0  0  0  0  0  0
  -20.7200  -26.9100   22.6570 C   0  0  0  0  0  2  0  0  0  0  0  0
  -19.6150  -26.5850   21.6460 C   0  0  0  0  0  2  0  0  0  0  0  0
  -18.2350  -26.7320   22.2930 C   0  0  0  0  0  2  0  0  0  0  0  0
  -19.1800  -28.8460   23.3930 C   0  0  0  0  0  0  0  0  0  0  0  0
  -18.9630  -30.1110   23.9800 C   0  0  0  0  0  3  0  0  0  0  0  0
  -17.6590  -30.6140   24.1470 C   0  0  0  0  0  3  0  0  0  0  0  0
  -16.5540  -29.8480   23.7380 C   0  0  0  0  0  3  0  0  0  0  0  0
  -16.7550  -28.5840   23.1540 C   0  0  0  0  0  3  0  0  0  0  0  0
  -25.9100  -32.5120   23.8560 C   0  0  0  0  0  3  0  0  0  0  0  0
  -25.6040  -33.9100   24.1910 N   0  0  0  0  0  0  0  0  0  0  0  0
  -25.9310  -34.9630   23.4300 C   0  0  0  0  0  0  0  0  0  0  0  0
  -26.5950  -34.8610   22.3940 O   0  0  0  0  0  0  0  0  0  0  0  0
  -25.0180  -34.0640   24.9970 H   0  0  0  0  0  0  0  0  0  0  0  0
  -24.2000  -36.7540   23.0880 C   0  0  0  0  0  1  0  0  0  0  0  0
  -25.4460  -36.3500   23.8920 C   0  0  0  0  0  3  0  0  0  0  0  0
  -27.5870  -37.2340   24.7070 C   0  0  0  0  0  1  0  0  0  0  0  0
  -26.4770  -37.4040   23.7730 N   0  0  0  0  0  0  0  0  0  0  0  0
  -26.0710  -38.3230   23.9250 H   0  0  0  0  0  0  0  0  0  0  0  0
  -26.4410  -31.7370   25.1230 C   0  0  1  0  0  0  0  0  0  0  0  0
  -25.3610  -31.4990   26.2040 C   0  0  0  0  0  1  0  0  0  0  0  0
  -27.0150  -30.3580   24.7190 C   0  0  0  0  0  1  0  0  0  0  0  0
  -27.6010  -32.5250   25.7740 C   0  0  0  0  0  1  0  0  0  0  0  0
  -28.2260  -21.9500   19.0540 O   0  0  0  0  0  0  0  0  0  0  0  0
  -29.1910  -18.5260   18.2090 C   0  0  0  0  0  3  0  0  0  0  0  0
  -28.7760  -19.8580   18.0730 C   0  0  0  0  0  3  0  0  0  0  0  0
  -29.0370  -18.8020   20.5960 C   0  0  0  0  0  3  0  0  0  0  0  0
  -29.3660  -17.9780   19.4940 C   0  0  0  0  0  0  0  0  0  0  0  0
  -28.5510  -20.6220   19.2250 C   0  0  0  0  0  0  0  0  0  0  0  0
  -28.6590  -20.1040   20.4720 N   0  0  0  0  0  0  0  0  0  0  0  0
  -29.9230  -16.6100   19.5710 C   0  0  0  0  0  3  0  0  0  0  0  0
  -29.8980  -15.6730   20.5480 C   0  0  0  0  0  3  0  0  0  0  0  0
  -30.6830  -14.4640   20.2970 C   0  0  0  0  0  0  0  0  0  0  0  0
  -30.3420  -12.2950   19.2140 C   0  0  0  0  0  2  0  0  0  0  0  0
  -29.4010  -12.5310   18.0130 C   0  0  0  0  0  2  0  0  0  0  0  0
  -27.9270  -12.4180   18.4490 C   0  0  0  0  0  2  0  0  0  0  0  0
  -27.6080  -13.2480   19.7240 C   0  0  0  0  0  3  0  0  0  0  0  0
  -28.6730  -13.0300   20.8200 C   0  0  0  0  0  2  0  0  0  0  0  0
  -29.9960  -13.2920   20.2400 N   0  0  0  0  0  0  0  0  0  0  0  0
  -31.8530  -14.5540   19.9130 O   0  0  0  0  0  0  0  0  0  0  0  0
  -25.2200  -13.8540   20.4590 C   0  0  0  0  0  0  0  0  0  0  0  0
  -24.1570  -13.0820   20.8430 C   0  0  0  0  0  0  0  0  0  0  0  0
  -24.6180  -11.7300   20.8140 C   0  0  0  0  0  0  0  0  0  0  0  0
  -26.2630  -12.9720   20.2190 N   0  0  0  0  0  0  0  0  0  0  0  0
  -25.9060  -11.6900   20.4930 N   0  0  0  0  0  0  0  0  0  0  0  0
  -23.8950  -10.4680   21.0170 C   0  0  0  0  0  0  0  0  0  0  0  0
  -24.3510   -9.4950   21.9330 C   0  0  0  0  0  3  0  0  0  0  0  0
  -23.6260   -8.2990   22.1270 C   0  0  0  0  0  3  0  0  0  0  0  0
  -22.4340   -8.0670   21.4010 C   0  0  0  0  0  0  0  0  0  0  0  0
  -21.9960   -9.0290   20.4750 C   0  0  0  0  0  3  0  0  0  0  0  0
  -22.7210  -10.2170   20.2800 C   0  0  0  0  0  3  0  0  0  0  0  0
  -21.6800   -6.9220   21.5030 O   0  0  0  0  0  0  0  0  0  0  0  0
  -21.6740   -6.1630   22.6440 C   0  0  0  0  0  0  0  0  0  0  0  0
  -21.3170   -6.7040   23.8980 C   0  0  0  0  0  3  0  0  0  0  0  0
  -21.2560   -5.8720   25.0340 C   0  0  0  0  0  3  0  0  0  0  0  0
  -21.5460   -4.4990   24.9180 C   0  0  0  0  0  0  0  0  0  0  0  0
  -21.8990   -3.9570   23.6690 C   0  0  0  0  0  3  0  0  0  0  0  0
  -21.9590   -4.7870   22.5360 C   0  0  0  0  0  0  0  0  0  0  0  0
  -22.2790   -4.2550   21.3310 F   0  0  0  0  0  0  0  0  0  0  0  0
  -21.4830   -3.6970   26.0080 F   0  0  0  0  0  0  0  0  0  0  0  0
  -22.7630  -13.5600   21.1310 C   0  0  0  0  0  0  0  0  0  0  0  0
  -22.0480  -12.8690   22.0110 N   0  0  0  0  0  0  0  0  0  0  0  0
  -22.3170  -14.5810   20.6100 O   0  0  0  0  0  0  0  0  0  0  0  0
  -22.4230  -12.0430   22.4560 H   0  0  0  0  0  0  0  0  0  0  0  0
  -21.1120  -13.1690   22.2470 H   0  0  0  0  0  0  0  0  0  0  0  0
  -25.3830  -15.2230   20.2740 N   0  0  0  0  0  0  0  0  0  0  0  0
  -24.6180  -15.8800   20.3830 H   0  0  0  0  0  0  0  0  0  0  0  0
  -26.2370  -15.6570   19.9440 H   0  0  0  0  0  0  0  0  0  0  0  0
  2  1  1  0
  2  4  1  0
  3  2  2  0
  5  7  1  0
  5  4  1  0
  6 17  2  0
  7 12  1  0
  8 16  1  0
  8 18  1  0
  9 15  1  0
  9 11  1  0
 10 16  1  0
 11 10  1  0
 12 11  2  0
 13 14  1  0
 13  7  2  0
 14  9  2  0
 15  8  1  0
 16  6  1  0
 18 20  2  0
 19 18  1  0
 21 19  1  0
 22 31  2  0
 22 27  1  0
 23 19  1  0
 23 27  1  0
 24 23  1  0
 25 26  1  0
 25 24  1  0
 26 22  1  0
 27 28  2  0
 28 29  1  0
 30 29  2  0
 31 30  1  0
 32  6  1  0
 32 33  1  0
 32 42  1  0
 33 36  1  0
 34 38  1  0
 34 33  1  0
 35 34  2  0
 38 37  1  0
 40 38  1  0
 40 41  1  0
 40 39  1  0
 42 45  1  1
 42 43  1  0
 44 42  1  0
 46 51  1  0
 46  1  1  0
 47 50  1  0
 48 47  2  0
 48 51  1  0
 50 53  1  0
 50 49  2  0
 51 52  2  0
 52 49  1  0
 53 54  2  0
 55 54  1  0
 56 61  1  0
 57 58  1  0
 57 56  1  0
 59 58  1  0
 59 66  1  0
 59 60  1  0
 61 55  1  0
 61 60  1  0
 62 55  2  0
 63 64  2  0
 64 83  1  0
 65 64  1  0
 65 68  1  0
 66 63  1  0
 66 67  1  0
 67 65  2  0
 68 69  1  0
 69 70  2  0
 71 74  1  0
 71 70  1  0
 72 71  2  0
 73 72  1  0
 73 68  2  0
 74 75  1  0
 75 76  1  0
 76 77  2  0
 78 77  1  0
 78 82  1  0
 79 78  2  0
 80 75  2  0
 80 79  1  0
 81 80  1  0
 83 84  1  0
 84 87  1  0
 84 86  1  0
 85 83  2  0
 88 89  1  0
 88 63  1  0
 90 88  1  0
M  ISO  4   4 101   5 101  54 100  55 100
M  END
>  <TORSDO>  (58) 
F 21

>  <SCORE>  (58) 
-13.516

>  <name>  (58) 
57

>  <ligand_id>  (58) 
57

>  <original_smiles>  (58) 
[H]C(C(=O)N1C([H])([H])C([H])([H])C([H])([H])C([H])(n2nc(-c3c([H])c([H])c(Oc4c([H])c([H])c(F)c([H])c4F)c([H])c3[H])c(C(=O)N([H])[H])c2N([H])[H])C1([H])[H])=C([H])c1c([H])nc(OC([H])([H])C(=O)C([H])([H])Oc2c([H])c([H])c3c(c2[H])C([H])([H])N(C(=O)C([H])(N([H])C(=O)C([H])(N([H])C([H])([H])[H])C([H])([H])[H])C(C([H])([H])[H])(C([H])([H])[H])C([H])([H])[H])C([H])(C(=O)N([H])C2([H])c4c([H])c([H])c([H])c([H])c4C([H])([H])C([H])([H])C2([H])[H])C3([H])[H])c([H])c1[H]

>  <smiles>  (58) 
[H]C(C(=O)N1C([H])([H])C([H])([H])C([H])([H])C([H])(n2nc(-c3c([H])c([H])c(Oc4c([H])c([H])c(F)c([H])c4F)c([H])c3[H])c(C(=O)N([H])[H])c2N([H])[H])C1([H])[H])=C([H])c1c([H])nc(OC([H])([H])C(=O)C([H])([H])Oc2c([H])c([H])c3c(c2[H])C([H])([H])N(C(=O)C([H])(N([H])C(=O)C([H])(N([H])C([H])([H])[H])C([H])([H])[H])C(C([H])([H])[H])(C([H])([H])[H])C([H])([H])[H])C([H])(C(=O)N([H])C2([H])c4c([H])c([H])c([H])c([H])c4C([H])([H])C([H])([H])C2([H])[H])C3([H])[H])c([H])c1[H]

$$$$
58:0:0
     RDKit          3D

 93101  0  0  1  0  0  0  0  0999 V2000
  -32.0960  -17.9370   18.9800 C   0  0  0  0  0  3  0  0  0  0  0  0
  -31.9920  -19.3470   18.9290 C   0  0  0  0  0  3  0  0  0  0  0  0
  -30.8540  -17.9190   21.0840 C   0  0  0  0  0  0  0  0  0  0  0  0
  -30.7400  -19.3280   21.0230 C   0  0  0  0  0  0  0  0  0  0  0  0
  -31.5480  -17.2150   20.0710 C   0  0  0  0  0  0  0  0  0  0  0  0
  -31.3370  -20.0550   19.9660 C   0  0  0  0  0  0  0  0  0  0  0  0
  -29.9610  -20.0710   22.1030 C   0  0  0  0  0  1  0  0  0  0  0  0
  -32.1150  -14.8250   19.4770 C   0  0  0  0  0  0  0  0  0  0  0  0
  -31.5890  -12.5940   18.5600 C   0  0  0  0  0  2  0  0  0  0  0  0
  -30.5260  -12.7700   17.4570 C   0  0  0  0  0  2  0  0  0  0  0  0
  -29.1050  -12.7620   18.0550 C   0  0  0  0  0  2  0  0  0  0  0  0
  -28.9600  -13.7060   19.2780 C   0  0  0  0  0  3  0  0  0  0  0  0
  -30.1240  -13.4890   20.2730 C   0  0  0  0  0  2  0  0  0  0  0  0
  -31.3990  -13.6680   19.5440 N   0  0  0  0  0  0  0  0  0  0  0  0
  -33.1190  -14.9670   18.7730 O   0  0  0  0  0  0  0  0  0  0  0  0
  -31.6270  -15.8020   20.2500 N   0  0  0  0  0  0  0  0  0  0  0  0
  -30.9800  -15.4530   20.9400 H   0  0  0  0  0  0  0  0  0  0  0  0
  -26.8070  -14.5320   20.4310 C   0  0  0  0  0  0  0  0  0  0  0  0
  -25.6860  -13.8720   20.8560 C   0  0  0  0  0  0  0  0  0  0  0  0
  -25.9120  -12.4900   20.5760 C   0  0  0  0  0  0  0  0  0  0  0  0
  -27.6550  -13.5580   19.9230 N   0  0  0  0  0  0  0  0  0  0  0  0
  -27.1240  -12.3160   20.0610 N   0  0  0  0  0  0  0  0  0  0  0  0
  -25.0240  -11.3280   20.7140 C   0  0  0  0  0  0  0  0  0  0  0  0
  -25.3770  -10.2200   21.5140 C   0  0  0  0  0  3  0  0  0  0  0  0
  -24.5000   -9.1220   21.6520 C   0  0  0  0  0  3  0  0  0  0  0  0
  -23.2510   -9.1280   20.9870 C   0  0  0  0  0  0  0  0  0  0  0  0
  -22.9120  -10.2240   20.1740 C   0  0  0  0  0  3  0  0  0  0  0  0
  -23.7900  -11.3110   20.0340 C   0  0  0  0  0  3  0  0  0  0  0  0
  -22.3510   -8.0920   21.0350 O   0  0  0  0  0  0  0  0  0  0  0  0
  -22.1990   -7.3190   22.1580 C   0  0  0  0  0  0  0  0  0  0  0  0
  -21.8210   -7.8760   23.4000 C   0  0  0  0  0  3  0  0  0  0  0  0
  -21.6080   -7.0380   24.5120 C   0  0  0  0  0  3  0  0  0  0  0  0
  -21.7650   -5.6450   24.3870 C   0  0  0  0  0  0  0  0  0  0  0  0
  -22.1370   -5.0890   23.1500 C   0  0  0  0  0  3  0  0  0  0  0  0
  -22.3500   -5.9230   22.0380 C   0  0  0  0  0  0  0  0  0  0  0  0
  -22.6870   -5.3790   20.8440 F   0  0  0  0  0  0  0  0  0  0  0  0
  -21.5540   -4.8380   25.4520 F   0  0  0  0  0  0  0  0  0  0  0  0
  -24.4340  -14.4940   21.4060 C   0  0  0  0  0  0  0  0  0  0  0  0
  -23.7320  -13.7890   22.2860 N   0  0  0  0  0  0  0  0  0  0  0  0
  -24.0930  -15.6340   21.0940 O   0  0  0  0  0  0  0  0  0  0  0  0
  -24.0200  -12.8620   22.5660 H   0  0  0  0  0  0  0  0  0  0  0  0
  -22.8950  -14.1850   22.6870 H   0  0  0  0  0  0  0  0  0  0  0  0
  -27.1680  -15.8750   20.4190 N   0  0  0  0  0  0  0  0  0  0  0  0
  -26.5590  -16.6000   20.7820 H   0  0  0  0  0  0  0  0  0  0  0  0
  -28.0450  -16.2360   20.0690 H   0  0  0  0  0  0  0  0  0  0  0  0
  -30.6830  -17.0740   23.4170 C   0  0  0  0  0  2  0  0  0  0  0  0
  -30.2020  -17.1640   22.1690 C   0  0  0  0  0  3  0  0  0  0  0  0
  -31.2400  -21.4260   20.0530 O   0  0  0  0  0  0  0  0  0  0  0  0
  -31.3170  -22.2820   18.9200 C   0  0  0  0  0  2  0  0  0  0  0  0
  -30.8910  -23.6510   19.4990 C   0  0  0  0  0  2  0  0  0  0  0  0
  -30.5430  -24.7720   18.5000 C   0  0  0  0  0  2  0  0  0  0  0  0
  -29.8500  -25.9570   19.2100 C   0  0  0  0  0  2  0  0  0  0  0  0
  -29.3500  -26.9230   18.2820 O   0  0  0  0  0  0  0  0  0  0  0  0
  -25.0050  -30.4640   22.6820 C   0  0  0  0  0  0  0  0  0  0  0  0
  -28.0730  -27.3610   18.5520 C   0  0  0  0  0  0  0  0  0  0  0  0
  -23.9020  -29.1790   20.8760 C   0  0  0  0  0  3  0  0  0  0  0  0
  -25.4490  -28.2740   19.0600 C   0  0  0  0  0  0  0  0  0  0  0  0
  -26.2640  -30.0990   20.5600 C   0  0  0  0  0  2  0  0  0  0  0  0
  -26.5420  -28.9180   19.6550 C   0  0  0  0  0  0  0  0  0  0  0  0
  -27.8570  -28.4680   19.4030 C   0  0  0  0  0  3  0  0  0  0  0  0
  -26.9660  -26.7210   17.9570 C   0  0  0  0  0  3  0  0  0  0  0  0
  -25.6540  -27.1710   18.2110 C   0  0  0  0  0  3  0  0  0  0  0  0
  -24.0770  -28.8270   19.3740 C   0  0  0  0  0  2  0  0  0  0  0  0
  -25.0800  -29.9200   21.4340 N   0  0  0  0  0  0  0  0  0  0  0  0
  -23.9640  -30.3940   23.3500 O   0  0  0  0  0  0  0  0  0  0  0  0
  -23.5720  -27.8850   21.6500 C   0  0  0  0  0  0  0  0  0  0  0  0
  -22.3330  -27.3920   21.4910 N   0  0  0  0  0  0  0  0  0  0  0  0
  -24.4240  -27.3300   22.3490 O   0  0  0  0  0  0  0  0  0  0  0  0
  -21.6910  -27.9070   20.9030 H   0  0  0  0  0  0  0  0  0  0  0  0
  -19.4300  -25.2510   21.6800 C   0  0  0  0  0  0  0  0  0  0  0  0
  -21.8140  -26.1630   22.0870 C   0  0  0  0  0  3  0  0  0  0  0  0
  -22.3120  -24.9180   21.3180 C   0  0  0  0  0  2  0  0  0  0  0  0
  -21.3420  -24.4560   20.2250 C   0  0  0  0  0  2  0  0  0  0  0  0
  -19.9760  -24.1170   20.8280 C   0  0  0  0  0  2  0  0  0  0  0  0
  -20.2920  -26.2190   22.2600 C   0  0  0  0  0  0  0  0  0  0  0  0
  -19.7320  -27.2700   23.0170 C   0  0  0  0  0  3  0  0  0  0  0  0
  -18.3400  -27.3610   23.2020 C   0  0  0  0  0  3  0  0  0  0  0  0
  -17.4920  -26.3920   22.6380 C   0  0  0  0  0  3  0  0  0  0  0  0
  -18.0370  -25.3380   21.8850 C   0  0  0  0  0  3  0  0  0  0  0  0
  -26.2130  -31.2180   23.3210 C   0  0  0  0  0  3  0  0  0  0  0  0
  -25.7010  -32.4670   23.9020 N   0  0  0  0  0  0  0  0  0  0  0  0
  -25.8290  -33.6740   23.3360 C   0  0  0  0  0  0  0  0  0  0  0  0
  -26.4650  -33.8620   22.2940 O   0  0  0  0  0  0  0  0  0  0  0  0
  -25.1250  -32.3810   24.7270 H   0  0  0  0  0  0  0  0  0  0  0  0
  -23.8400  -35.2130   23.3030 C   0  0  0  0  0  1  0  0  0  0  0  0
  -25.1440  -34.8640   24.0370 C   0  0  0  0  0  3  0  0  0  0  0  0
  -27.1350  -35.9020   25.0310 C   0  0  0  0  0  1  0  0  0  0  0  0
  -26.0020  -36.0670   24.1250 N   0  0  0  0  0  0  0  0  0  0  0  0
  -25.4620  -36.8710   24.4340 H   0  0  0  0  0  0  0  0  0  0  0  0
  -26.9750  -30.3660   24.4090 C   0  0  1  0  0  0  0  0  0  0  0  0
  -26.0500  -29.7640   25.4930 C   0  0  0  0  0  1  0  0  0  0  0  0
  -27.7410  -29.2000   23.7430 C   0  0  0  0  0  1  0  0  0  0  0  0
  -28.0320  -31.2450   25.1190 C   0  0  0  0  0  1  0  0  0  0  0  0
  1  5  1  0
  2  1  2  0
  2  6  1  0
  3 47  1  0
  4  3  1  0
  4  7  1  0
  5 16  1  0
  5  3  2  0
  6 48  1  0
  6  4  2  0
  8 14  1  0
  8 16  1  0
  9 14  1  0
 10 11  1  0
 10  9  1  0
 12 11  1  0
 12 21  1  0
 12 13  1  0
 14 13  1  0
 15  8  2  0
 16 17  1  0
 18 19  2  0
 19 38  1  0
 20 23  1  0
 20 19  1  0
 21 22  1  0
 21 18  1  0
 22 20  2  0
 23 24  1  0
 24 25  2  0
 26 29  1  0
 26 25  1  0
 27 26  2  0
 28 27  1  0
 28 23  2  0
 29 30  1  0
 30 31  1  0
 31 32  2  0
 33 32  1  0
 33 37  1  0
 34 33  2  0
 35 30  2  0
 35 34  1  0
 36 35  1  0
 38 39  1  0
 39 41  1  0
 39 42  1  0
 40 38  2  0
 43 18  1  0
 43 44  1  0
 45 43  1  0
 47 46  2  0
 49 50  1  0
 49 48  1  0
 51 52  1  0
 51 50  1  0
 53 55  1  0
 53 52  1  0
 54 65  2  0
 55 60  1  0
 56 64  1  0
 56 66  1  0
 57 63  1  0
 57 59  1  0
 58 64  1  0
 59 58  1  0
 60 59  2  0
 61 62  1  0
 61 55  2  0
 62 57  2  0
 63 56  1  0
 64 54  1  0
 66 68  2  0
 67 66  1  0
 69 67  1  0
 70 79  2  0
 70 75  1  0
 71 67  1  0
 71 75  1  0
 72 71  1  0
 73 74  1  0
 73 72  1  0
 74 70  1  0
 75 76  2  0
 76 77  1  0
 78 77  2  0
 79 78  1  0
 80 54  1  0
 80 81  1  0
 80 90  1  0
 81 84  1  0
 82 81  1  0
 82 86  1  0
 83 82  2  0
 86 85  1  0
 86 88  1  0
 88 89  1  0
 88 87  1  0
 90 93  1  1
 90 91  1  0
 92 90  1  0
M  ISO  4   8 100  16 100  52 101  53 101
M  END
>  <TORSDO>  (59) 
F 22

>  <SCORE>  (59) 
-6.137

>  <name>  (59) 
58

>  <ligand_id>  (59) 
58

>  <original_smiles>  (59) 
[H]C([H])=C([H])c1c(N([H])C(=O)N2C([H])([H])C([H])([H])C([H])([H])C([H])(n3nc(-c4c([H])c([H])c(Oc5c([H])c([H])c(F)c([H])c5F)c([H])c4[H])c(C(=O)N([H])[H])c3N([H])[H])C2([H])[H])c([H])c([H])c(OC([H])([H])C([H])([H])C([H])([H])C([H])([H])Oc2c([H])c([H])c3c(c2[H])C([H])([H])N(C(=O)C([H])(N([H])C(=O)C([H])(N([H])C([H])([H])[H])C([H])([H])[H])C(C([H])([H])[H])(C([H])([H])[H])C([H])([H])[H])C([H])(C(=O)N([H])C2([H])c4c([H])c([H])c([H])c([H])c4C([H])([H])C([H])([H])C2([H])[H])C3([H])[H])c1C([H])([H])[H]

>  <smiles>  (59) 
[H]C([H])=C([H])c1c(N([H])C(=O)N2C([H])([H])C([H])([H])C([H])([H])C([H])(n3nc(-c4c([H])c([H])c(Oc5c([H])c([H])c(F)c([H])c5F)c([H])c4[H])c(C(=O)N([H])[H])c3N([H])[H])C2([H])[H])c([H])c([H])c(OC([H])([H])C([H])([H])C([H])([H])C([H])([H])Oc2c([H])c([H])c3c(c2[H])C([H])([H])N(C(=O)C([H])(N([H])C(=O)C([H])(N([H])C([H])([H])[H])C([H])([H])[H])C(C([H])([H])[H])(C([H])([H])[H])C([H])([H])[H])C([H])(C(=O)N([H])C2([H])c4c([H])c([H])c([H])c([H])c4C([H])([H])C([H])([H])C2([H])[H])C3([H])[H])c1C([H])([H])[H]

$$$$
59:0:0
     RDKit          3D

 94100  0  0  1  0  0  0  0  0999 V2000
  -26.2810  -21.5480   20.9700 C   0  0  0  0  0  2  0  0  0  0  0  0
  -24.6470  -23.3650   20.4450 C   0  0  0  0  0  2  0  0  0  0  0  0
  -26.5700  -20.7970   19.5810 C   0  0  0  0  0  2  0  0  0  0  0  0
  -24.8670  -23.1230   19.0920 C   0  0  0  0  0  0  0  0  0  0  0  0
  -25.6680  -21.8180   18.7070 C   0  0  0  0  0  0  0  0  0  0  0  0
  -25.4830  -22.7840   21.3430 C   0  0  0  0  0  3  0  0  0  0  0  0
  -24.1840  -24.3880   18.1970 C   0  0  0  0  0  1  0  0  0  0  0  0
  -27.5970  -18.9340   19.5530 C   0  0  0  0  0  1  0  0  0  0  0  0
  -26.4130  -18.4480   19.2960 N   0  0  0  0  0  2  0  0  0  0  0  0
  -25.7530  -19.2140   19.2740 H   0  0  0  0  0  0  0  0  0  0  0  0
  -29.3790  -17.3810   19.7360 C   0  0  0  0  0  2  0  0  0  0  0  0
  -30.5410  -14.9040   19.0760 C   0  0  0  0  0  2  0  0  0  0  0  0
  -30.0560  -13.7460   18.1340 C   0  0  0  0  0  2  0  0  0  0  0  0
  -28.8930  -12.9630   18.7440 C   0  0  0  0  0  2  0  0  0  0  0  0
  -28.0660  -13.9570   19.5320 C   0  0  0  0  0  3  0  0  0  0  0  0
  -28.8380  -14.7570   20.5840 C   0  0  0  0  0  2  0  0  0  0  0  0
  -29.4910  -15.8180   19.7800 N   0  0  0  0  0  0  0  0  0  0  0  0
  -30.6710  -17.5040   19.7820 O   0  0  0  0  0  1  0  0  0  0  0  0
  -25.8160  -14.4490   20.3780 C   0  0  0  0  0  0  0  0  0  0  0  0
  -24.7860  -13.6640   20.7570 C   0  0  0  0  0  0  0  0  0  0  0  0
  -25.2670  -12.3210   20.6690 C   0  0  0  0  0  0  0  0  0  0  0  0
  -26.8290  -13.5660   20.0730 N   0  0  0  0  0  0  0  0  0  0  0  0
  -26.5390  -12.2760   20.3070 N   0  0  0  0  0  0  0  0  0  0  0  0
  -24.5630  -11.0650   20.8270 C   0  0  0  0  0  0  0  0  0  0  0  0
  -24.9760  -10.1020   21.7700 C   0  0  0  0  0  3  0  0  0  0  0  0
  -24.2520   -8.9020   21.9170 C   0  0  0  0  0  3  0  0  0  0  0  0
  -23.1090   -8.6670   21.1130 C   0  0  0  0  0  0  0  0  0  0  0  0
  -22.7250   -9.6210   20.1540 C   0  0  0  0  0  3  0  0  0  0  0  0
  -23.4520  -10.8100   20.0060 C   0  0  0  0  0  3  0  0  0  0  0  0
  -22.3520   -7.5250   21.1730 O   0  0  0  0  0  0  0  0  0  0  0  0
  -22.0940   -6.9020   22.3660 C   0  0  0  0  0  0  0  0  0  0  0  0
  -21.4320   -7.5620   23.4240 C   0  0  0  0  0  3  0  0  0  0  0  0
  -21.1250   -6.8590   24.6060 C   0  0  0  0  0  3  0  0  0  0  0  0
  -21.4690   -5.5000   24.7260 C   0  0  0  0  0  0  0  0  0  0  0  0
  -22.1240   -4.8420   23.6700 C   0  0  0  0  0  3  0  0  0  0  0  0
  -22.4340   -5.5420   22.4930 C   0  0  0  0  0  0  0  0  0  0  0  0
  -23.0470   -4.9000   21.4680 F   0  0  0  0  0  0  0  0  0  0  0  0
  -21.1650   -4.8220   25.8570 F   0  0  0  0  0  0  0  0  0  0  0  0
  -23.4120  -14.1520   21.0660 C   0  0  0  0  0  0  0  0  0  0  0  0
  -22.7400  -13.4940   21.9980 N   0  0  0  0  0  0  0  0  0  0  0  0
  -22.9520  -15.1540   20.5210 O   0  0  0  0  0  0  0  0  0  0  0  0
  -23.1400  -12.6870   22.4530 H   0  0  0  0  0  0  0  0  0  0  0  0
  -21.8110  -13.7950   22.2600 H   0  0  0  0  0  0  0  0  0  0  0  0
  -25.9580  -15.8160   20.2170 N   0  0  0  0  0  0  0  0  0  0  0  0
  -25.1650  -16.4430   20.2950 H   0  0  0  0  0  0  0  0  0  0  0  0
  -26.7110  -16.2590   19.7050 H   0  0  0  0  0  0  0  0  0  0  0  0
  -23.8570  -22.0790   16.4880 C   0  0  0  0  0  1  0  0  0  0  0  0
  -25.3820  -21.8920   17.0500 C   0  0  0  0  0  2  0  0  0  0  0  0
  -25.9440  -23.8200   22.2100 O   0  0  0  0  0  0  0  0  0  0  0  0
  -25.3370  -25.2700   22.1070 C   0  0  0  0  0  2  0  0  0  0  0  0
  -26.4500  -26.3140   22.5110 C   0  0  0  0  0  0  0  0  0  0  0  0
  -26.8530  -26.3320   23.6650 O   0  0  0  0  0  0  0  0  0  0  0  0
  -27.3500  -27.3520   21.6170 C   0  0  0  0  0  2  0  0  0  0  0  0
  -27.9340  -27.2440   20.1360 O   0  0  0  0  0  0  0  0  0  0  0  0
  -24.4550  -31.8190   23.2260 C   0  0  0  0  0  0  0  0  0  0  0  0
  -27.2080  -28.2050   19.4940 C   0  0  0  0  0  0  0  0  0  0  0  0
  -23.2920  -30.5380   21.4090 C   0  0  0  0  0  3  0  0  0  0  0  0
  -24.7370  -29.5550   19.6040 C   0  0  0  0  0  0  0  0  0  0  0  0
  -25.7030  -31.2540   21.1530 C   0  0  0  0  0  2  0  0  0  0  0  0
  -25.8550  -30.0900   20.2550 C   0  0  0  0  0  0  0  0  0  0  0  0
  -27.1000  -29.4510   20.1480 C   0  0  0  0  0  3  0  0  0  0  0  0
  -26.0450  -27.6880   18.8450 C   0  0  0  0  0  3  0  0  0  0  0  0
  -24.8170  -28.4000   18.8280 C   0  0  0  0  0  3  0  0  0  0  0  0
  -23.4340  -30.2450   19.9000 C   0  0  0  0  0  2  0  0  0  0  0  0
  -24.5020  -31.2240   21.9860 N   0  0  0  0  0  0  0  0  0  0  0  0
  -23.3740  -31.9020   23.8840 O   0  0  0  0  0  0  0  0  0  0  0  0
  -22.7790  -29.3380   22.1900 C   0  0  0  0  0  0  0  0  0  0  0  0
  -21.4840  -28.9870   21.9600 N   0  0  0  0  0  0  0  0  0  0  0  0
  -23.5540  -28.6300   22.8850 O   0  0  0  0  0  0  0  0  0  0  0  0
  -21.1450  -29.0000   20.9740 H   0  0  0  0  0  0  0  0  0  0  0  0
  -17.9700  -27.7990   22.6110 C   0  0  0  0  0  0  0  0  0  0  0  0
  -20.4260  -28.1080   22.3850 C   0  0  0  0  0  3  0  0  0  0  0  0
  -20.7740  -26.6580   22.3080 C   0  0  0  0  0  2  0  0  0  0  0  0
  -19.4520  -25.9850   21.6960 C   0  0  0  0  0  2  0  0  0  0  0  0
  -17.9640  -26.6110   21.7190 C   0  0  0  0  0  2  0  0  0  0  0  0
  -19.1400  -28.5450   22.9960 C   0  0  0  0  0  0  0  0  0  0  0  0
  -18.9470  -29.7210   23.7690 C   0  0  0  0  0  3  0  0  0  0  0  0
  -17.6540  -30.1650   24.1740 C   0  0  0  0  0  3  0  0  0  0  0  0
  -16.5120  -29.4060   23.8950 C   0  0  0  0  0  3  0  0  0  0  0  0
  -16.7610  -28.2660   23.1610 C   0  0  0  0  0  3  0  0  0  0  0  0
  -25.7280  -32.4790   23.8210 C   0  0  0  0  0  3  0  0  0  0  0  0
  -25.4470  -33.8700   24.1450 N   0  0  0  0  0  0  0  0  0  0  0  0
  -25.8220  -34.9300   23.4090 C   0  0  0  0  0  0  0  0  0  0  0  0
  -26.5120  -34.8390   22.3890 O   0  0  0  0  0  0  0  0  0  0  0  0
  -24.9160  -34.0250   24.9830 H   0  0  0  0  0  0  0  0  0  0  0  0
  -24.1140  -36.7500   22.9970 C   0  0  0  0  0  1  0  0  0  0  0  0
  -25.3260  -36.3300   23.8510 C   0  0  0  0  0  3  0  0  0  0  0  0
  -27.4370  -37.2290   24.7530 C   0  0  0  0  0  1  0  0  0  0  0  0
  -26.3660  -37.3870   23.7750 N   0  0  0  0  0  0  0  0  0  0  0  0
  -25.9480  -38.3020   23.9130 H   0  0  0  0  0  0  0  0  0  0  0  0
  -26.2460  -31.7370   25.1000 C   0  0  1  0  0  0  0  0  0  0  0  0
  -25.1250  -31.4540   26.1290 C   0  0  0  0  0  1  0  0  0  0  0  0
  -26.9050  -30.3960   24.7330 C   0  0  0  0  0  1  0  0  0  0  0  0
  -27.3490  -32.5440   25.8430 C   0  0  0  0  0  1  0  0  0  0  0  0
  1  6  1  0
  2  6  1  0
  3  1  1  0
  4  2  1  0
  5  4  2  0
  5  3  1  0
  6 49  1  0
  7  4  1  0
  9  8  1  0
 10  9  1  0
 11 17  1  0
 11 18  1  0
 12 17  1  0
 13 14  1  0
 13 12  1  0
 15 14  1  0
 15 22  1  0
 15 16  1  0
 17 16  1  0
 19 20  2  0
 20 39  1  0
 21 20  1  0
 21 24  1  0
 22 23  1  0
 22 19  1  0
 23 21  2  0
 24 25  1  0
 25 26  2  0
 27 30  1  0
 27 26  1  0
 28 27  2  0
 29 28  1  0
 29 24  2  0
 30 31  1  0
 31 36  2  0
 31 32  1  0
 32 33  2  0
 33 34  1  0
 34 38  1  0
 35 34  2  0
 36 35  1  0
 37 36  1  0
 39 40  1  0
 40 43  1  0
 40 42  1  0
 41 39  2  0
 44 45  1  0
 44 19  1  0
 46 44  1  0
 47 48  1  0
 48  5  1  0
 50 49  1  0
 50 51  1  0
 51 52  2  0
 53 51  1  0
 54 53  1  0
 55 66  2  0
 56 54  1  0
 56 61  1  0
 57 65  1  0
 57 67  1  0
 58 64  1  0
 58 60  1  0
 59 65  1  0
 60 59  1  0
 61 60  2  0
 62 56  2  0
 63 62  1  0
 63 58  2  0
 64 57  1  0
 65 55  1  0
 67 69  2  0
 68 67  1  0
 70 68  1  0
 71 76  2  0
 71 80  1  0
 72 68  1  0
 72 76  1  0
 73 72  1  0
 74 75  1  0
 74 73  1  0
 75 71  1  0
 76 77  1  0
 77 78  2  0
 79 78  1  0
 80 79  2  0
 81 55  1  0
 81 82  1  0
 81 91  1  0
 82 85  1  0
 83 87  1  0
 83 82  1  0
 84 83  2  0
 87 86  1  0
 89 87  1  0
 89 90  1  0
 89 88  1  0
 91 94  1  1
 91 92  1  0
 93 91  1  0
M  ISO  4   8 100  11 100  53 101  54 101
M  END
>  <TORSDO>  (60) 
F 22

>  <SCORE>  (60) 
-8.424

>  <name>  (60) 
59

>  <ligand_id>  (60) 
59

>  <original_smiles>  (60) 
[H]N=C(C(=O)N1C([H])([H])C([H])([H])C([H])([H])C([H])(n2nc(-c3c([H])c([H])c(Oc4c([H])c([H])c(F)c([H])c4F)c([H])c3[H])c(C(=O)N([H])[H])c2N([H])[H])C1([H])[H])c1c([H])c(OC([H])([H])C(=O)C([H])([H])Oc2c([H])c([H])c3c(c2[H])C([H])([H])N(C(=O)C([H])(N([H])C(=O)C([H])(N([H])C([H])([H])[H])C([H])([H])[H])C(C([H])([H])[H])(C([H])([H])[H])C([H])([H])[H])C([H])(C(=O)N([H])C2([H])c4c([H])c([H])c([H])c([H])c4C([H])([H])C([H])([H])C2([H])[H])C3([H])[H])c([H])c(C([H])([H])[H])c1C([H])([H])C([H])([H])[H]

>  <smiles>  (60) 
[H]N=C(C(=O)N1C([H])([H])C([H])([H])C([H])([H])C([H])(n2nc(-c3c([H])c([H])c(Oc4c([H])c([H])c(F)c([H])c4F)c([H])c3[H])c(C(=O)N([H])[H])c2N([H])[H])C1([H])[H])c1c([H])c(OC([H])([H])C(=O)C([H])([H])Oc2c([H])c([H])c3c(c2[H])C([H])([H])N(C(=O)C([H])(N([H])C(=O)C([H])(N([H])C([H])([H])[H])C([H])([H])[H])C(C([H])([H])[H])(C([H])([H])[H])C([H])([H])[H])C([H])(C(=O)N([H])C2([H])c4c([H])c([H])c([H])c([H])c4C([H])([H])C([H])([H])C2([H])[H])C3([H])[H])c([H])c(C([H])([H])[H])c1C([H])([H])C([H])([H])[H]

$$$$
60:0:0
     RDKit          3D

 92100  0  0  1  0  0  0  0  0999 V2000
  -30.0380  -18.2250   19.8230 C   0  0  0  0  0  3  0  0  0  0  0  0
  -32.0400  -18.1740   17.9070 C   0  0  0  0  0  3  0  0  0  0  0  0
  -30.4350  -19.4640   19.2210 C   0  0  0  0  0  0  0  0  0  0  0  0
  -31.4860  -19.4130   18.2660 C   0  0  0  0  0  0  0  0  0  0  0  0
  -31.5960  -16.9500   18.4320 C   0  0  0  0  0  0  0  0  0  0  0  0
  -30.5900  -16.9510   19.4490 C   0  0  0  0  0  0  0  0  0  0  0  0
  -31.9950  -20.5980   17.4560 C   0  0  0  0  0  1  0  0  0  0  0  0
  -32.1930  -15.7150   17.7420 C   0  0  0  0  0  1  0  0  0  0  0  0
  -30.6930  -14.6010   20.3930 C   0  0  0  0  0  0  0  0  0  0  0  0
  -30.4010  -12.3840   19.4050 C   0  0  0  0  0  2  0  0  0  0  0  0
  -29.4790  -12.4940   18.1750 C   0  0  0  0  0  2  0  0  0  0  0  0
  -27.9940  -12.4070   18.5780 C   0  0  0  0  0  2  0  0  0  0  0  0
  -27.6240  -13.2840   19.8080 C   0  0  0  0  0  3  0  0  0  0  0  0
  -28.6750  -13.1640   20.9330 C   0  0  0  0  0  2  0  0  0  0  0  0
  -29.9900  -13.4390   20.3380 N   0  0  0  0  0  0  0  0  0  0  0  0
  -31.9130  -14.6090   20.4760 O   0  0  0  0  0  0  0  0  0  0  0  0
  -30.0350  -15.7300   20.0180 N   0  0  0  0  0  0  0  0  0  0  0  0
  -29.0300  -15.6480   19.9830 H   0  0  0  0  0  0  0  0  0  0  0  0
  -25.2160  -13.8750   20.4910 C   0  0  0  0  0  0  0  0  0  0  0  0
  -24.1450  -13.1050   20.8400 C   0  0  0  0  0  0  0  0  0  0  0  0
  -24.6160  -11.7540   20.8400 C   0  0  0  0  0  0  0  0  0  0  0  0
  -26.2710  -13.0000   20.2860 N   0  0  0  0  0  0  0  0  0  0  0  0
  -25.9140  -11.7190   20.5660 N   0  0  0  0  0  0  0  0  0  0  0  0
  -23.8940  -10.4910   21.0290 C   0  0  0  0  0  0  0  0  0  0  0  0
  -24.3090   -9.5290   21.9790 C   0  0  0  0  0  3  0  0  0  0  0  0
  -23.5810   -8.3340   22.1550 C   0  0  0  0  0  3  0  0  0  0  0  0
  -22.4220   -8.0880   21.3800 C   0  0  0  0  0  0  0  0  0  0  0  0
  -22.0310   -9.0340   20.4130 C   0  0  0  0  0  3  0  0  0  0  0  0
  -22.7610  -10.2220   20.2350 C   0  0  0  0  0  3  0  0  0  0  0  0
  -21.6670   -6.9440   21.4610 O   0  0  0  0  0  0  0  0  0  0  0  0
  -21.5890   -6.2140   22.6190 C   0  0  0  0  0  0  0  0  0  0  0  0
  -21.1140   -6.7770   23.8220 C   0  0  0  0  0  3  0  0  0  0  0  0
  -20.9860   -5.9740   24.9730 C   0  0  0  0  0  3  0  0  0  0  0  0
  -21.3250   -4.6080   24.9200 C   0  0  0  0  0  0  0  0  0  0  0  0
  -21.7970   -4.0440   23.7210 C   0  0  0  0  0  3  0  0  0  0  0  0
  -21.9250   -4.8450   22.5720 C   0  0  0  0  0  0  0  0  0  0  0  0
  -22.3600   -4.2920   21.4150 F   0  0  0  0  0  0  0  0  0  0  0  0
  -21.1950   -3.8340   26.0230 F   0  0  0  0  0  0  0  0  0  0  0  0
  -22.7390  -13.5760   21.0760 C   0  0  0  0  0  0  0  0  0  0  0  0
  -21.9970  -12.8810   21.9280 N   0  0  0  0  0  0  0  0  0  0  0  0
  -22.3080  -14.5960   20.5390 O   0  0  0  0  0  0  0  0  0  0  0  0
  -22.3630  -12.0540   22.3800 H   0  0  0  0  0  0  0  0  0  0  0  0
  -21.0500  -13.1710   22.1320 H   0  0  0  0  0  0  0  0  0  0  0  0
  -25.3740  -15.2480   20.3100 N   0  0  0  0  0  0  0  0  0  0  0  0
  -24.6080  -15.8960   20.4510 H   0  0  0  0  0  0  0  0  0  0  0  0
  -26.2380  -15.7170   20.0710 H   0  0  0  0  0  0  0  0  0  0  0  0
  -29.6540  -20.7280   19.4650 C   0  0  0  0  0  3  0  0  0  0  0  0
  -30.0760  -22.0120   19.6190 C   0  0  0  0  0  3  0  0  0  0  0  0
  -29.1590  -23.1560   19.5490 C   0  0  0  0  0  3  0  0  0  0  0  0
  -29.5100  -24.4650   19.5530 C   0  0  0  0  0  3  0  0  0  0  0  0
  -28.5570  -25.6180   19.2060 C   0  0  0  0  0  2  0  0  0  0  0  0
  -28.3870  -26.6580   20.2080 O   0  0  0  0  0  0  0  0  0  0  0  0
  -24.6060  -31.9280   23.2810 C   0  0  0  0  0  0  0  0  0  0  0  0
  -27.2270  -27.4340   20.1860 C   0  0  0  0  0  0  0  0  0  0  0  0
  -23.4030  -30.5370   21.6440 C   0  0  0  0  0  3  0  0  0  0  0  0
  -24.8450  -29.0040   20.2170 C   0  0  0  0  0  0  0  0  0  0  0  0
  -25.9420  -30.8720   21.4540 C   0  0  0  0  0  2  0  0  0  0  0  0
  -26.0190  -29.5030   20.7960 C   0  0  0  0  0  0  0  0  0  0  0  0
  -27.2090  -28.7310   20.7700 C   0  0  0  0  0  3  0  0  0  0  0  0
  -26.0080  -26.9550   19.6380 C   0  0  0  0  0  3  0  0  0  0  0  0
  -24.8350  -27.7270   19.6450 C   0  0  0  0  0  3  0  0  0  0  0  0
  -23.6160  -29.8830   20.2590 C   0  0  0  0  0  2  0  0  0  0  0  0
  -24.6710  -31.1220   22.1840 N   0  0  0  0  0  0  0  0  0  0  0  0
  -23.5220  -32.2020   23.8160 O   0  0  0  0  0  0  0  0  0  0  0  0
  -22.7460  -29.5050   22.5900 C   0  0  0  0  0  0  0  0  0  0  0  0
  -21.4200  -29.3250   22.4600 N   0  0  0  0  0  0  0  0  0  0  0  0
  -23.4250  -28.8730   23.4030 O   0  0  0  0  0  0  0  0  0  0  0  0
  -20.9300  -29.8820   21.7740 H   0  0  0  0  0  0  0  0  0  0  0  0
  -18.0400  -28.1530   22.9600 C   0  0  0  0  0  0  0  0  0  0  0  0
  -20.6010  -28.3890   23.2310 C   0  0  0  0  0  3  0  0  0  0  0  0
  -20.6940  -26.9610   22.6500 C   0  0  0  0  0  2  0  0  0  0  0  0
  -19.5890  -26.6500   21.6380 C   0  0  0  0  0  2  0  0  0  0  0  0
  -18.2060  -26.8050   22.2830 C   0  0  0  0  0  2  0  0  0  0  0  0
  -19.1650  -28.9040   23.3930 C   0  0  0  0  0  0  0  0  0  0  0  0
  -18.9540  -30.1680   23.9850 C   0  0  0  0  0  3  0  0  0  0  0  0
  -17.6540  -30.6800   24.1520 C   0  0  0  0  0  3  0  0  0  0  0  0
  -16.5440  -29.9250   23.7360 C   0  0  0  0  0  3  0  0  0  0  0  0
  -16.7390  -28.6640   23.1460 C   0  0  0  0  0  3  0  0  0  0  0  0
  -25.8920  -32.5550   23.9030 C   0  0  0  0  0  3  0  0  0  0  0  0
  -26.4020  -31.7850   25.1820 C   0  0  1  0  0  0  0  0  0  0  0  0
  -25.3020  -31.5470   26.2430 C   0  0  0  0  0  1  0  0  0  0  0  0
  -26.9870  -30.4070   24.7920 C   0  0  0  0  0  1  0  0  0  0  0  0
  -27.5500  -32.5770   25.8480 C   0  0  0  0  0  1  0  0  0  0  0  0
  -25.5870  -33.9540   24.2260 N   0  0  0  0  0  0  0  0  0  0  0  0
  -25.9090  -34.9990   23.4520 C   0  0  0  0  0  0  0  0  0  0  0  0
  -26.5660  -34.8860   22.4150 O   0  0  0  0  0  0  0  0  0  0  0  0
  -25.0030  -34.1180   25.0340 H   0  0  0  0  0  0  0  0  0  0  0  0
  -24.1710  -36.7790   23.1010 C   0  0  0  0  0  1  0  0  0  0  0  0
  -25.4230  -36.3900   23.9020 C   0  0  0  0  0  3  0  0  0  0  0  0
  -27.5640  -37.2860   24.7020 C   0  0  0  0  0  1  0  0  0  0  0  0
  -26.4510  -37.4450   23.7680 N   0  0  0  0  0  0  0  0  0  0  0  0
  -26.0440  -38.3650   23.9170 H   0  0  0  0  0  0  0  0  0  0  0  0
  2  4  2  0
  2  5  1  0
  3 47  1  0
  3  1  2  0
  4  3  1  0
  5  6  2  0
  6  1  1  0
  6 17  1  0
  7  4  1  0
  8  5  1  0
  9 16  2  0
 10 15  1  0
 11 12  1  0
 11 10  1  0
 13 12  1  0
 13 22  1  0
 13 14  1  0
 15  9  1  0
 15 14  1  0
 17  9  1  0
 18 17  1  0
 19 20  2  0
 20 39  1  0
 21 20  1  0
 21 24  1  0
 22 19  1  0
 22 23  1  0
 23 21  2  0
 24 25  1  0
 25 26  2  0
 27 30  1  0
 27 26  1  0
 28 27  2  0
 29 28  1  0
 29 24  2  0
 30 31  1  0
 31 32  1  0
 32 33  2  0
 34 33  1  0
 34 38  1  0
 35 34  2  0
 36 31  2  0
 36 35  1  0
 37 36  1  0
 39 40  1  0
 40 43  1  0
 40 42  1  0
 41 39  2  0
 44 45  1  0
 44 19  1  0
 46 44  1  0
 47 48  2  0
 49 50  2  0
 49 48  1  0
 51 50  1  0
 51 52  1  0
 53 64  2  0
 54 52  1  0
 54 59  1  0
 55 63  1  0
 55 65  1  0
 56 62  1  0
 56 58  1  0
 57 63  1  0
 58 57  1  0
 59 58  2  0
 60 61  1  0
 60 54  2  0
 61 56  2  0
 62 55  1  0
 63 53  1  0
 65 67  2  0
 66 65  1  0
 68 66  1  0
 69 78  2  0
 69 74  1  0
 70 66  1  0
 70 74  1  0
 71 70  1  0
 72 73  1  0
 72 71  1  0
 73 69  1  0
 74 75  2  0
 75 76  1  0
 77 76  2  0
 78 77  1  0
 79 53  1  0
 79 84  1  0
 79 80  1  0
 80 83  1  1
 80 81  1  0
 82 80  1  0
 84 87  1  0
 85 89  1  0
 85 84  1  0
 86 85  2  0
 89 88  1  0
 91 89  1  0
 91 92  1  0
 91 90  1  0
M  ISO  4   9 100  17 100  51 101  52 101
M  END
>  <TORSDO>  (61) 
F 19

>  <SCORE>  (61) 
-14.161

>  <name>  (61) 
60

>  <ligand_id>  (61) 
60

>  <original_smiles>  (61) 
[H]C(C([H])=C([H])C([H])([H])Oc1c([H])c([H])c2c(c1[H])C([H])([H])N(C(=O)C([H])(N([H])C(=O)C([H])(N([H])C([H])([H])[H])C([H])([H])[H])C(C([H])([H])[H])(C([H])([H])[H])C([H])([H])[H])C([H])(C(=O)N([H])C1([H])c3c([H])c([H])c([H])c([H])c3C([H])([H])C([H])([H])C1([H])[H])C2([H])[H])=C([H])c1c([H])c(N([H])C(=O)N2C([H])([H])C([H])([H])C([H])([H])C([H])(n3nc(-c4c([H])c([H])c(Oc5c([H])c([H])c(F)c([H])c5F)c([H])c4[H])c(C(=O)N([H])[H])c3N([H])[H])C2([H])[H])c(C([H])([H])[H])c([H])c1C([H])([H])[H]

>  <smiles>  (61) 
[H]C(C([H])=C([H])C([H])([H])Oc1c([H])c([H])c2c(c1[H])C([H])([H])N(C(=O)C([H])(N([H])C(=O)C([H])(N([H])C([H])([H])[H])C([H])([H])[H])C(C([H])([H])[H])(C([H])([H])[H])C([H])([H])[H])C([H])(C(=O)N([H])C1([H])c3c([H])c([H])c([H])c([H])c3C([H])([H])C([H])([H])C1([H])[H])C2([H])[H])=C([H])c1c([H])c(N([H])C(=O)N2C([H])([H])C([H])([H])C([H])([H])C([H])(n3nc(-c4c([H])c([H])c(Oc5c([H])c([H])c(F)c([H])c5F)c([H])c4[H])c(C(=O)N([H])[H])c3N([H])[H])C2([H])[H])c(C([H])([H])[H])c([H])c1C([H])([H])[H]

$$$$
61:0:0
     RDKit          3D

 94102  0  0  1  0  0  0  0  0999 V2000
  -29.5550  -21.7950   20.1860 C   0  0  0  0  0  0  0  0  0  0  0  0
  -30.8090  -21.9200   20.0660 N   0  0  0  0  0  0  0  0  0  0  0  0
  -31.3040  -21.1050   20.4150 H   0  0  0  0  0  0  0  0  0  0  0  0
  -28.8970  -20.5500   20.8200 C   0  0  0  0  0  2  0  0  0  0  0  0
  -31.3390  -17.0450   21.8850 C   0  0  0  0  0  3  0  0  0  0  0  0
  -31.6290  -18.3060   22.4350 C   0  0  0  0  0  3  0  0  0  0  0  0
  -29.4970  -18.0420   20.6370 C   0  0  0  0  0  3  0  0  0  0  0  0
  -29.7930  -19.3310   21.1670 C   0  0  0  0  0  0  0  0  0  0  0  0
  -30.2580  -16.8930   20.9910 C   0  0  0  0  0  0  0  0  0  0  0  0
  -30.8600  -19.4370   22.0980 C   0  0  0  0  0  0  0  0  0  0  0  0
  -30.6360  -14.5570   20.1480 C   0  0  0  0  0  0  0  0  0  0  0  0
  -30.3280  -12.4090   18.9620 C   0  0  0  0  0  2  0  0  0  0  0  0
  -29.3300  -12.6250   17.8060 C   0  0  0  0  0  2  0  0  0  0  0  0
  -27.8760  -12.4630   18.2960 C   0  0  0  0  0  2  0  0  0  0  0  0
  -27.5860  -13.2730   19.5870 C   0  0  0  0  0  3  0  0  0  0  0  0
  -28.6910  -13.0400   20.6420 C   0  0  0  0  0  2  0  0  0  0  0  0
  -29.9790  -13.3740   20.0160 N   0  0  0  0  0  0  0  0  0  0  0  0
  -31.7770  -14.7380   19.7140 O   0  0  0  0  0  0  0  0  0  0  0  0
  -29.8610  -15.5890   20.5540 N   0  0  0  0  0  0  0  0  0  0  0  0
  -28.8770  -15.3830   20.6120 H   0  0  0  0  0  0  0  0  0  0  0  0
  -25.2140  -13.8560   20.3920 C   0  0  0  0  0  0  0  0  0  0  0  0
  -24.1690  -13.0730   20.8040 C   0  0  0  0  0  0  0  0  0  0  0  0
  -24.6430  -11.7250   20.7530 C   0  0  0  0  0  0  0  0  0  0  0  0
  -26.2570  -12.9850   20.1210 N   0  0  0  0  0  0  0  0  0  0  0  0
  -25.9210  -11.7000   20.3970 N   0  0  0  0  0  0  0  0  0  0  0  0
  -23.9370  -10.4550   20.9660 C   0  0  0  0  0  0  0  0  0  0  0  0
  -24.3900   -9.5120   21.9150 C   0  0  0  0  0  3  0  0  0  0  0  0
  -23.6840   -8.3060   22.1180 C   0  0  0  0  0  3  0  0  0  0  0  0
  -22.5130   -8.0350   21.3730 C   0  0  0  0  0  0  0  0  0  0  0  0
  -22.0790   -8.9680   20.4140 C   0  0  0  0  0  3  0  0  0  0  0  0
  -22.7850  -10.1650   20.2080 C   0  0  0  0  0  3  0  0  0  0  0  0
  -21.7790   -6.8790   21.4830 O   0  0  0  0  0  0  0  0  0  0  0  0
  -21.7270   -6.1700   22.6550 C   0  0  0  0  0  0  0  0  0  0  0  0
  -21.2570   -6.7450   23.8550 C   0  0  0  0  0  3  0  0  0  0  0  0
  -21.1530   -5.9580   25.0200 C   0  0  0  0  0  3  0  0  0  0  0  0
  -21.5100   -4.5980   24.9850 C   0  0  0  0  0  0  0  0  0  0  0  0
  -21.9750   -4.0220   23.7890 C   0  0  0  0  0  3  0  0  0  0  0  0
  -22.0790   -4.8040   22.6270 C   0  0  0  0  0  0  0  0  0  0  0  0
  -22.5050   -4.2400   21.4720 F   0  0  0  0  0  0  0  0  0  0  0  0
  -21.4040   -3.8400   26.1010 F   0  0  0  0  0  0  0  0  0  0  0  0
  -22.7770  -13.5340   21.1280 C   0  0  0  0  0  0  0  0  0  0  0  0
  -22.0890  -12.8240   22.0150 N   0  0  0  0  0  0  0  0  0  0  0  0
  -22.3110  -14.5570   20.6300 O   0  0  0  0  0  0  0  0  0  0  0  0
  -22.4820  -11.9980   22.4400 H   0  0  0  0  0  0  0  0  0  0  0  0
  -21.1560  -13.1130   22.2730 H   0  0  0  0  0  0  0  0  0  0  0  0
  -25.3550  -15.2280   20.2060 N   0  0  0  0  0  0  0  0  0  0  0  0
  -24.5800  -15.8690   20.3370 H   0  0  0  0  0  0  0  0  0  0  0  0
  -26.1710  -15.6750   19.8080 H   0  0  0  0  0  0  0  0  0  0  0  0
  -31.1600  -20.6180   22.7130 O   0  0  0  0  0  0  0  0  0  0  0  0
  -30.7160  -21.3710   22.3380 H   0  0  0  0  0  0  0  0  0  0  0  0
  -28.6240  -22.8990   19.6560 C   0  0  0  0  0  2  0  0  0  0  0  0
  -28.7060  -24.2770   20.3860 C   0  0  0  0  0  2  0  0  0  0  0  0
  -28.5660  -25.5000   19.4400 C   0  0  0  0  0  2  0  0  0  0  0  0
  -28.4120  -26.7600   20.1290 O   0  0  0  0  0  0  0  0  0  0  0  0
  -24.5780  -31.9180   23.2330 C   0  0  0  0  0  0  0  0  0  0  0  0
  -27.2110  -27.4580   20.1260 C   0  0  0  0  0  0  0  0  0  0  0  0
  -23.3680  -30.5240   21.5900 C   0  0  0  0  0  3  0  0  0  0  0  0
  -24.8130  -28.9860   20.1590 C   0  0  0  0  0  0  0  0  0  0  0  0
  -25.8980  -30.8710   21.3900 C   0  0  0  0  0  2  0  0  0  0  0  0
  -25.9760  -29.5020   20.7420 C   0  0  0  0  0  0  0  0  0  0  0  0
  -27.1740  -28.7440   20.7220 C   0  0  0  0  0  3  0  0  0  0  0  0
  -26.0130  -26.9550   19.5630 C   0  0  0  0  0  3  0  0  0  0  0  0
  -24.8280  -27.7120   19.5720 C   0  0  0  0  0  3  0  0  0  0  0  0
  -23.5730  -29.8500   20.2080 C   0  0  0  0  0  2  0  0  0  0  0  0
  -24.6340  -31.1200   22.1290 N   0  0  0  0  0  0  0  0  0  0  0  0
  -23.4980  -32.1860   23.7770 O   0  0  0  0  0  0  0  0  0  0  0  0
  -22.7180  -29.4980   22.5470 C   0  0  0  0  0  0  0  0  0  0  0  0
  -21.3930  -29.3170   22.4230 N   0  0  0  0  0  0  0  0  0  0  0  0
  -23.4030  -28.8670   23.3570 O   0  0  0  0  0  0  0  0  0  0  0  0
  -20.8990  -29.8800   21.7440 H   0  0  0  0  0  0  0  0  0  0  0  0
  -18.0180  -28.1330   22.9390 C   0  0  0  0  0  0  0  0  0  0  0  0
  -20.5790  -28.3760   23.1930 C   0  0  0  0  0  3  0  0  0  0  0  0
  -20.6700  -26.9490   22.6040 C   0  0  0  0  0  2  0  0  0  0  0  0
  -19.5590  -26.6400   21.5960 C   0  0  0  0  0  2  0  0  0  0  0  0
  -18.1830  -26.7880   22.2510 C   0  0  0  0  0  2  0  0  0  0  0  0
  -19.1430  -28.8860   23.3670 C   0  0  0  0  0  0  0  0  0  0  0  0
  -18.9360  -30.1460   23.9700 C   0  0  0  0  0  3  0  0  0  0  0  0
  -17.6370  -30.6540   24.1460 C   0  0  0  0  0  3  0  0  0  0  0  0
  -16.5250  -29.8980   23.7350 C   0  0  0  0  0  3  0  0  0  0  0  0
  -16.7170  -28.6400   23.1380 C   0  0  0  0  0  3  0  0  0  0  0  0
  -25.8650  -32.5480   23.8520 C   0  0  0  0  0  3  0  0  0  0  0  0
  -25.5600  -33.9480   24.1760 N   0  0  0  0  0  0  0  0  0  0  0  0
  -25.8980  -34.9960   23.4140 C   0  0  0  0  0  0  0  0  0  0  0  0
  -26.5710  -34.8870   22.3850 O   0  0  0  0  0  0  0  0  0  0  0  0
  -24.9640  -34.1060   24.9750 H   0  0  0  0  0  0  0  0  0  0  0  0
  -24.1830  -36.7960   23.0380 C   0  0  0  0  0  1  0  0  0  0  0  0
  -25.4140  -36.3880   23.8640 C   0  0  0  0  0  3  0  0  0  0  0  0
  -27.5440  -37.2630   24.7160 C   0  0  0  0  0  1  0  0  0  0  0  0
  -26.4540  -37.4350   23.7590 N   0  0  0  0  0  0  0  0  0  0  0  0
  -26.0510  -38.3570   23.9010 H   0  0  0  0  0  0  0  0  0  0  0  0
  -26.3800  -31.7790   25.1300 C   0  0  1  0  0  0  0  0  0  0  0  0
  -25.2850  -31.5460   26.1980 C   0  0  0  0  0  1  0  0  0  0  0  0
  -26.9610  -30.4000   24.7400 C   0  0  0  0  0  1  0  0  0  0  0  0
  -27.5310  -32.5730   25.7910 C   0  0  0  0  0  1  0  0  0  0  0  0
  1  4  1  0
  2  1  2  0
  2  3  1  0
  4  8  1  0
  5  6  1  0
  7  9  1  0
  7  8  2  0
  8 10  1  0
  9  5  2  0
 10  6  2  0
 10 49  1  0
 11 19  1  0
 12 17  1  0
 13 14  1  0
 13 12  1  0
 15 14  1  0
 15 24  1  0
 15 16  1  0
 17 11  1  0
 17 16  1  0
 18 11  2  0
 19 20  1  0
 19  9  1  0
 21 22  2  0
 22 41  1  0
 23 22  1  0
 23 26  1  0
 24 21  1  0
 24 25  1  0
 25 23  2  0
 26 27  1  0
 27 28  2  0
 29 32  1  0
 29 28  1  0
 30 29  2  0
 31 30  1  0
 31 26  2  0
 32 33  1  0
 33 34  1  0
 34 35  2  0
 36 35  1  0
 36 40  1  0
 37 36  2  0
 38 33  2  0
 38 37  1  0
 39 38  1  0
 41 42  1  0
 42 45  1  0
 42 44  1  0
 43 41  2  0
 46 47  1  0
 46 21  1  0
 48 46  1  0
 50 49  1  0
 51  1  1  0
 51 52  1  0
 53 54  1  0
 53 52  1  0
 55 66  2  0
 56 54  1  0
 56 61  1  0
 57 65  1  0
 57 67  1  0
 58 64  1  0
 58 60  1  0
 59 65  1  0
 60 59  1  0
 61 60  2  0
 62 63  1  0
 62 56  2  0
 63 58  2  0
 64 57  1  0
 65 55  1  0
 67 69  2  0
 68 67  1  0
 70 68  1  0
 71 80  2  0
 71 76  1  0
 72 68  1  0
 72 76  1  0
 73 72  1  0
 74 75  1  0
 74 73  1  0
 75 71  1  0
 76 77  2  0
 77 78  1  0
 79 78  2  0
 80 79  1  0
 81 55  1  0
 81 82  1  0
 81 91  1  0
 82 85  1  0
 83 87  1  0
 83 82  1  0
 84 83  2  0
 87 86  1  0
 89 87  1  0
 89 90  1  0
 89 88  1  0
 91 94  1  1
 91 92  1  0
 93 91  1  0
M  ISO  4  11 100  19 100  53 101  54 101
M  END
>  <TORSDO>  (62) 
F 22

>  <SCORE>  (62) 
-12.878

>  <name>  (62) 
61

>  <ligand_id>  (62) 
61

>  <original_smiles>  (62) 
[H]N=C(C([H])([H])c1c([H])c(N([H])C(=O)N2C([H])([H])C([H])([H])C([H])([H])C([H])(n3nc(-c4c([H])c([H])c(Oc5c([H])c([H])c(F)c([H])c5F)c([H])c4[H])c(C(=O)N([H])[H])c3N([H])[H])C2([H])[H])c([H])c([H])c1O[H])C([H])([H])C([H])([H])C([H])([H])Oc1c([H])c([H])c2c(c1[H])C([H])([H])N(C(=O)C([H])(N([H])C(=O)C([H])(N([H])C([H])([H])[H])C([H])([H])[H])C(C([H])([H])[H])(C([H])([H])[H])C([H])([H])[H])C([H])(C(=O)N([H])C1([H])c3c([H])c([H])c([H])c([H])c3C([H])([H])C([H])([H])C1([H])[H])C2([H])[H]

>  <smiles>  (62) 
[H]N=C(C([H])([H])c1c([H])c(N([H])C(=O)N2C([H])([H])C([H])([H])C([H])([H])C([H])(n3nc(-c4c([H])c([H])c(Oc5c([H])c([H])c(F)c([H])c5F)c([H])c4[H])c(C(=O)N([H])[H])c3N([H])[H])C2([H])[H])c([H])c([H])c1O[H])C([H])([H])C([H])([H])C([H])([H])Oc1c([H])c([H])c2c(c1[H])C([H])([H])N(C(=O)C([H])(N([H])C(=O)C([H])(N([H])C([H])([H])[H])C([H])([H])[H])C(C([H])([H])[H])(C([H])([H])[H])C([H])([H])[H])C([H])(C(=O)N([H])C1([H])c3c([H])c([H])c([H])c([H])c3C([H])([H])C([H])([H])C1([H])[H])C2([H])[H]

$$$$
62:0:0
     RDKit          3D

 96 95  0  0  1  0  0  0  0  0999 V2000
  -25.4470  -26.3850   21.9780 C   0  0  0  0  0  2  0  0  0  0  0  0
  -25.7650  -29.2880   19.0730 C   0  0  0  0  0  2  0  0  0  0  0  0
  -24.8120  -27.9960   22.1560 C   0  0  0  0  0  2  0  0  0  0  0  0
  -24.9870  -29.5540   20.4230 C   0  0  0  0  0  2  0  0  0  0  0  0
  -26.3380  -25.9040   20.6650 C   0  0  0  0  0  1  0  0  0  0  0  0
  -26.4660  -27.9000   18.8570 C   0  0  0  0  0  2  0  0  0  0  0  0
  -24.6150  -31.0710   20.0780 C   0  0  0  0  0  1  0  0  0  0  0  0
  -25.4470  -27.6380   23.5990 C   0  0  0  0  0  0  0  0  0  0  0  0
  -24.7120  -27.2990   24.5660 N   0  0  0  0  0  0  0  0  0  0  0  0
  -23.7320  -27.4700   24.3310 H   0  0  0  0  0  0  0  0  0  0  0  0
  -26.9210  -27.4040   24.0860 C   0  0  0  0  0  3  0  0  0  0  0  0
  -28.2420  -27.0820   23.7950 C   0  0  0  0  0  3  0  0  0  0  0  0
  -29.3460  -26.7060   22.7250 C   0  0  0  0  0  2  0  0  0  0  0  0
  -29.2820  -25.6310   21.5480 C   0  0  0  0  0  2  0  0  0  0  0  0
  -29.3280  -25.9190   20.0690 O   0  0  0  0  0  0  0  0  0  0  0  0
  -24.6840  -31.8040   23.3170 C   0  0  0  0  0  0  0  0  0  0  0  0
  -28.3240  -26.5570   19.4450 C   0  0  0  0  0  3  0  0  0  0  0  0
  -23.3130  -30.0270   21.8070 C   0  0  0  0  0  2  0  0  0  0  0  0
  -24.8150  -27.4880   20.0240 C   0  0  0  0  0  3  0  0  0  0  0  0
  -26.5930  -30.1280   22.0580 C   0  0  0  0  0  1  0  0  0  0  0  0
  -26.8710  -28.4480   21.0000 C   0  0  0  0  0  1  0  0  0  0  0  0
  -28.2400  -27.8680   20.5080 C   0  0  0  0  0  2  0  0  0  0  0  0
  -26.8830  -25.7360   18.5570 C   0  0  0  0  0  2  0  0  0  0  0  0
  -25.1380  -26.2260   18.8850 C   0  0  0  0  0  3  0  0  0  0  0  0
  -23.2020  -28.4710   20.5120 C   0  0  0  0  0  1  0  0  0  0  0  0
  -24.8790  -30.7090   22.5020 N   0  0  0  0  0  0  0  0  0  0  0  0
  -23.5510  -32.2000   23.6430 O   0  0  0  0  0  0  0  0  0  0  0  0
  -22.4580  -29.5360   22.8770 C   0  0  0  0  0  0  0  0  0  0  0  0
  -21.2260  -29.2330   22.5510 N   0  0  0  0  0  0  0  0  0  0  0  0
  -22.9460  -29.2660   23.9450 O   0  0  0  0  0  0  0  0  0  0  0  0
  -20.8570  -29.4760   21.6420 H   0  0  0  0  0  0  0  0  0  0  0  0
  -18.0150  -27.9260   22.9280 C   0  0  0  0  0  0  0  0  0  0  0  0
  -20.4850  -28.3060   23.3610 C   0  0  0  0  0  3  0  0  0  0  0  0
  -20.7210  -26.8610   22.8750 C   0  0  0  0  0  2  0  0  0  0  0  0
  -19.7440  -26.4620   21.7710 C   0  0  0  0  0  2  0  0  0  0  0  0
  -18.3090  -26.5680   22.3050 C   0  0  0  0  0  2  0  0  0  0  0  0
  -19.0530  -28.7560   23.4030 C   0  0  0  0  0  0  0  0  0  0  0  0
  -18.7680  -30.0380   23.9170 C   0  0  0  0  0  3  0  0  0  0  0  0
  -17.4420  -30.4890   23.9870 C   0  0  0  0  0  3  0  0  0  0  0  0
  -16.4000  -29.6500   23.5530 C   0  0  0  0  0  3  0  0  0  0  0  0
  -16.6850  -28.3760   23.0270 C   0  0  0  0  0  3  0  0  0  0  0  0
  -25.8870  -32.5980   23.9110 C   0  0  0  0  0  3  0  0  0  0  0  0
  -25.4730  -34.0000   24.1450 N   0  0  0  0  0  0  0  0  0  0  0  0
  -25.8510  -35.0780   23.4490 C   0  0  0  0  0  0  0  0  0  0  0  0
  -26.6030  -35.0080   22.4740 O   0  0  0  0  0  0  0  0  0  0  0  0
  -24.7910  -34.1360   24.8760 H   0  0  0  0  0  0  0  0  0  0  0  0
  -24.1410  -36.8860   23.0260 C   0  0  0  0  0  1  0  0  0  0  0  0
  -25.3160  -36.4500   23.9140 C   0  0  0  0  0  3  0  0  0  0  0  0
  -27.3620  -37.3340   24.9520 C   0  0  0  0  0  1  0  0  0  0  0  0
  -26.3410  -37.5190   23.9240 N   0  0  0  0  0  0  0  0  0  0  0  0
  -25.9110  -38.4290   24.0630 H   0  0  0  0  0  0  0  0  0  0  0  0
  -26.3980  -32.0190   25.2880 C   0  0  1  0  0  0  0  0  0  0  0  0
  -25.2460  -31.6460   26.2500 C   0  0  0  0  0  1  0  0  0  0  0  0
  -27.2330  -30.7690   25.1670 C   0  0  0  0  0  1  0  0  0  0  0  0
  -27.3680  -33.0020   25.9650 C   0  0  0  0  0  1  0  0  0  0  0  0
  -26.3450  -28.3370   16.4790 C   0  0  0  0  0  1  0  0  0  0  0  0
  -27.1290  -27.9700   17.6130 O   0  0  0  0  0  0  0  0  0  0  0  0
  -26.8700  -23.9550   20.3480 O   0  0  0  0  0 15  0  0  0  0  0  0
  -27.8340  -21.8440   20.5390 C   0  0  0  0  0 15  0  0  0  0  0  0
  -28.3460  -19.3020   20.1270 C   0  0  0  0  0 15  0  0  0  0  0  0
  -29.4080  -17.0940   20.0710 C   0  0  0  0  0  2  0  0  0  0  0  0
  -30.1290  -14.2250   19.2850 C   0  0  0  0  0  2  0  0  0  0  0  0
  -29.4850  -13.1910   18.2260 C   0  0  0  0  0  2  0  0  0  0  0  0
  -28.2410  -12.4760   18.7520 C   0  0  0  0  0  2  0  0  0  0  0  0
  -27.5160  -13.4870   19.6420 C   0  0  0  0  0  3  0  0  0  0  0  0
  -28.3900  -14.3320   20.6570 C   0  0  0  0  0  2  0  0  0  0  0  0
  -29.2320  -15.4370   19.9640 N   0  0  0  0  0  0  0  0  0  0  0  0
  -30.6790  -16.8810   19.9440 O   0  0  0  0  0  1  0  0  0  0  0  0
  -25.2090  -13.8270   20.5210 C   0  0  0  0  0  0  0  0  0  0  0  0
  -24.1920  -13.0070   20.9010 C   0  0  0  0  0  0  0  0  0  0  0  0
  -24.6900  -11.6700   20.7930 C   0  0  0  0  0  0  0  0  0  0  0  0
  -26.2660  -13.0060   20.2100 N   0  0  0  0  0  0  0  0  0  0  0  0
  -25.9750  -11.6870   20.4180 N   0  0  0  0  0  0  0  0  0  0  0  0
  -23.9780  -10.3920   20.9680 C   0  0  0  0  0  0  0  0  0  0  0  0
  -24.3880   -9.4320   21.9190 C   0  0  0  0  0  3  0  0  0  0  0  0
  -23.6590   -8.2330   22.0900 C   0  0  0  0  0  3  0  0  0  0  0  0
  -22.5040   -7.9850   21.3110 C   0  0  0  0  0  0  0  0  0  0  0  0
  -22.1100   -8.9350   20.3510 C   0  0  0  0  0  3  0  0  0  0  0  0
  -22.8400  -10.1230   20.1790 C   0  0  0  0  0  3  0  0  0  0  0  0
  -21.7510   -6.8370   21.3870 O   0  0  0  0  0  0  0  0  0  0  0  0
  -21.6100   -6.1430   22.5630 C   0  0  0  0  0  0  0  0  0  0  0  0
  -21.0330   -6.7310   23.7100 C   0  0  0  0  0  3  0  0  0  0  0  0
  -20.8430   -5.9630   24.8750 C   0  0  0  0  0  3  0  0  0  0  0  0
  -21.2190   -4.6060   24.8940 C   0  0  0  0  0  0  0  0  0  0  0  0
  -21.7880   -4.0170   23.7520 C   0  0  0  0  0  3  0  0  0  0  0  0
  -21.9780   -4.7830   22.5890 C   0  0  0  0  0  0  0  0  0  0  0  0
  -22.5070   -4.2030   21.4830 F   0  0  0  0  0  0  0  0  0  0  0  0
  -21.0310   -3.8650   26.0120 F   0  0  0  0  0  0  0  0  0  0  0  0
  -22.8040  -13.4580   21.2370 C   0  0  0  0  0  0  0  0  0  0  0  0
  -22.1190  -12.7340   22.1130 N   0  0  0  0  0  0  0  0  0  0  0  0
  -22.3420  -14.4960   20.7620 O   0  0  0  0  0  0  0  0  0  0  0  0
  -22.5130  -11.8980   22.5180 H   0  0  0  0  0  0  0  0  0  0  0  0
  -21.1880  -13.0200   22.3820 H   0  0  0  0  0  0  0  0  0  0  0  0
  -25.3170  -15.2070   20.3770 N   0  0  0  0  0  0  0  0  0  0  0  0
  -24.5270  -15.8250   20.5290 H   0  0  0  0  0  0  0  0  0  0  0  0
  -26.1320  -15.6830   20.0140 H   0  0  0  0  0  0  0  0  0  0  0  0
  1  3  1  0
  2  4  1  0
  3  8  1  0
  5  1  1  0
  6  2  1  0
  7  4  1  0
  8 11  1  0
  8  9  2  0
 10  9  1  0
 12 11  2  0
 13 12  1  0
 14 13  1  0
 15 14  1  0
 16 27  2  0
 17 23  1  0
 17 15  1  0
 17 22  1  0
 18 26  1  0
 18 28  1  0
 19 25  1  0
 20 26  1  0
 22 21  1  0
 23 24  1  0
 24 19  2  0
 26 16  1  0
 28 30  2  0
 29 28  1  0
 31 29  1  0
 32 41  2  0
 32 37  1  0
 33 29  1  0
 33 37  1  0
 34 33  1  0
 35 36  1  0
 35 34  1  0
 36 32  1  0
 37 38  2  0
 38 39  1  0
 40 39  2  0
 41 40  1  0
 42 16  1  0
 42 43  1  0
 42 52  1  0
 43 46  1  0
 44 48  1  0
 44 43  1  0
 45 44  2  0
 48 47  1  0
 48 50  1  0
 50 51  1  0
 50 49  1  0
 52 55  1  1
 52 53  1  0
 54 52  1  0
 56 57  1  0
 57  6  1  0
 62 67  1  0
 63 64  1  0
 63 62  1  0
 65 64  1  0
 65 72  1  0
 65 66  1  0
 67 61  1  0
 67 66  1  0
 68 61  1  0
 69 70  2  0
 70 89  1  0
 71 70  1  0
 71 74  1  0
 72 73  1  0
 72 69  1  0
 73 71  2  0
 74 75  1  0
 75 76  2  0
 77 80  1  0
 77 76  1  0
 78 77  2  0
 79 78  1  0
 79 74  2  0
 80 81  1  0
 81 86  2  0
 81 82  1  0
 82 83  2  0
 83 84  1  0
 84 88  1  0
 85 84  2  0
 86 85  1  0
 87 86  1  0
 89 90  1  0
 90 93  1  0
 90 92  1  0
 91 89  2  0
 94 69  1  0
 94 95  1  0
 96 94  1  0
M  ISO  4  14 101  15 101  60 100  61 100
M  END
>  <TORSDO>  (63) 
F 24

>  <SCORE>  (63) 
-14.406

>  <name>  (63) 
62

>  <ligand_id>  (63) 
62

>  <original_smiles>  (63) 
[H]N=C(C([H])=C([H])C([H])([H])C([H])([H])Oc1c([H])c([H])c2c(c1[H])C([H])([H])N(C(=O)C([H])(N([H])C(=O)C([H])(N([H])C([H])([H])[H])C([H])([H])[H])C(C([H])([H])[H])(C([H])([H])[H])C([H])([H])[H])C([H])(C(=O)N([H])C1([H])c3c([H])c([H])c([H])c([H])c3C([H])([H])C([H])([H])C1([H])[H])C2([H])[H])c1c([H])c(OC([H])([H])C([H])([H])C(=O)N2C([H])([H])C([H])([H])C([H])([H])C([H])(n3nc(-c4c([H])c([H])c(Oc5c([H])c([H])c(F)c([H])c5F)c([H])c4[H])c(C(=O)N([H])[H])c3N([H])[H])C2([H])[H])c(OC([H])([H])[H])c([H])c1C([H])([H])[H]

>  <smiles>  (63) 
[H]N=C(C([H])=C([H])C([H])([H])C([H])([H])Oc1c([H])c([H])c2c(c1[H])C([H])([H])N(C(=O)C([H])(N([H])C(=O)C([H])(N([H])C([H])([H])[H])C([H])([H])[H])C(C([H])([H])[H])(C([H])([H])[H])C([H])([H])[H])C([H])(C(=O)N([H])C1([H])c3c([H])c([H])c([H])c([H])c3C([H])([H])C([H])([H])C1([H])[H])C2([H])[H])c1c([H])c(OC([H])([H])C([H])([H])C(=O)N2C([H])([H])C([H])([H])C([H])([H])C([H])(n3nc(-c4c([H])c([H])c(Oc5c([H])c([H])c(F)c([H])c5F)c([H])c4[H])c(C(=O)N([H])[H])c3N([H])[H])C2([H])[H])c(OC([H])([H])[H])c([H])c1C([H])([H])[H]

$$$$
63:0:0
     RDKit          3D

 93101  0  0  1  0  0  0  0  0999 V2000
  -31.7310  -17.6230   19.5220 C   0  0  0  0  0  3  0  0  0  0  0  0
  -31.4710  -18.9690   19.1900 C   0  0  0  0  0  3  0  0  0  0  0  0
  -29.1200  -18.6100   19.5880 C   0  0  0  0  0  3  0  0  0  0  0  0
  -30.6980  -16.7210   19.8850 C   0  0  0  0  0  0  0  0  0  0  0  0
  -29.3680  -17.2530   19.9280 C   0  0  0  0  0  0  0  0  0  0  0  0
  -30.1650  -19.4860   19.2150 C   0  0  0  0  0  0  0  0  0  0  0  0
  -31.0390  -15.2990   20.2840 C   0  0  0  0  0  0  0  0  0  0  0  0
  -31.1830  -14.9790   21.5030 N   0  0  0  0  0  0  0  0  0  0  0  0
  -31.0280  -15.7830   22.0970 H   0  0  0  0  0  0  0  0  0  0  0  0
  -31.2420  -14.2720   19.1550 C   0  0  0  0  0  0  0  0  0  0  0  0
  -30.5570  -12.1820   18.0300 C   0  0  0  0  0  2  0  0  0  0  0  0
  -29.4110  -12.4500   17.0340 C   0  0  0  0  0  2  0  0  0  0  0  0
  -28.0480  -12.3570   17.7420 C   0  0  0  0  0  2  0  0  0  0  0  0
  -28.0040  -13.1850   19.0540 C   0  0  0  0  0  3  0  0  0  0  0  0
  -29.2400  -12.8990   19.9340 C   0  0  0  0  0  2  0  0  0  0  0  0
  -30.4530  -13.1540   19.1330 N   0  0  0  0  0  0  0  0  0  0  0  0
  -32.1420  -14.4520   18.3280 O   0  0  0  0  0  0  0  0  0  0  0  0
  -25.8920  -13.8890   20.3390 C   0  0  0  0  0  0  0  0  0  0  0  0
  -24.8530  -13.1680   20.8620 C   0  0  0  0  0  0  0  0  0  0  0  0
  -25.1490  -11.7960   20.5900 C   0  0  0  0  0  0  0  0  0  0  0  0
  -26.7620  -12.9620   19.7890 N   0  0  0  0  0  0  0  0  0  0  0  0
  -26.3310  -11.6910   19.9920 N   0  0  0  0  0  0  0  0  0  0  0  0
  -24.3520  -10.5830   20.8110 C   0  0  0  0  0  0  0  0  0  0  0  0
  -24.7980   -9.5530   21.6690 C   0  0  0  0  0  3  0  0  0  0  0  0
  -24.0050   -8.4030   21.8790 C   0  0  0  0  0  3  0  0  0  0  0  0
  -22.7540   -8.2760   21.2320 C   0  0  0  0  0  0  0  0  0  0  0  0
  -22.3260   -9.2930   20.3620 C   0  0  0  0  0  3  0  0  0  0  0  0
  -23.1160  -10.4340   20.1500 C   0  0  0  0  0  3  0  0  0  0  0  0
  -21.9300   -7.1830   21.3550 O   0  0  0  0  0  0  0  0  0  0  0  0
  -21.8120   -6.4980   22.5380 C   0  0  0  0  0  0  0  0  0  0  0  0
  -21.3580   -7.1260   23.7190 C   0  0  0  0  0  3  0  0  0  0  0  0
  -21.1860   -6.3710   24.8960 C   0  0  0  0  0  3  0  0  0  0  0  0
  -21.4570   -4.9900   24.8930 C   0  0  0  0  0  0  0  0  0  0  0  0
  -21.9040   -4.3610   23.7170 C   0  0  0  0  0  3  0  0  0  0  0  0
  -22.0770   -5.1150   22.5430 C   0  0  0  0  0  0  0  0  0  0  0  0
  -22.4890   -4.5020   21.4070 F   0  0  0  0  0  0  0  0  0  0  0  0
  -21.2850   -4.2620   26.0220 F   0  0  0  0  0  0  0  0  0  0  0  0
  -23.6060  -13.7180   21.4920 C   0  0  0  0  0  0  0  0  0  0  0  0
  -23.0230  -12.9920   22.4370 N   0  0  0  0  0  0  0  0  0  0  0  0
  -23.1680  -14.8250   21.1780 O   0  0  0  0  0  0  0  0  0  0  0  0
  -23.3920  -12.0920   22.7080 H   0  0  0  0  0  0  0  0  0  0  0  0
  -22.1930  -13.3390   22.8960 H   0  0  0  0  0  0  0  0  0  0  0  0
  -26.1580  -15.2530   20.2650 N   0  0  0  0  0  0  0  0  0  0  0  0
  -25.5060  -15.9520   20.6020 H   0  0  0  0  0  0  0  0  0  0  0  0
  -26.9500  -15.6510   19.7750 H   0  0  0  0  0  0  0  0  0  0  0  0
  -28.0040  -16.3610   21.8810 C   0  0  0  0  0  1  0  0  0  0  0  0
  -28.1490  -16.4340   20.3520 C   0  0  0  0  0  2  0  0  0  0  0  0
  -30.0030  -20.8180   18.8700 O   0  0  0  0  0  0  0  0  0  0  0  0
  -28.7700  -21.4850   19.1530 C   0  0  0  0  0  2  0  0  0  0  0  0
  -28.8670  -24.0430   19.3380 C   0  0  0  0  0  3  0  0  0  0  0  0
  -28.7900  -22.9110   18.6080 C   0  0  0  0  0  3  0  0  0  0  0  0
  -28.9330  -25.4490   18.7480 C   0  0  0  0  0  2  0  0  0  0  0  0
  -28.6580  -26.4790   19.7070 O   0  0  0  0  0  0  0  0  0  0  0  0
  -24.7800  -31.4250   23.0290 C   0  0  0  0  0  0  0  0  0  0  0  0
  -27.4550  -27.1590   19.7130 C   0  0  0  0  0  0  0  0  0  0  0  0
  -23.5860  -30.1260   21.2930 C   0  0  0  0  0  3  0  0  0  0  0  0
  -25.0520  -28.6600   19.7990 C   0  0  0  0  0  0  0  0  0  0  0  0
  -26.1130  -30.4830   21.1430 C   0  0  0  0  0  2  0  0  0  0  0  0
  -26.2040  -29.1500   20.4260 C   0  0  0  0  0  0  0  0  0  0  0  0
  -27.4020  -28.4040   20.3810 C   0  0  0  0  0  3  0  0  0  0  0  0
  -26.2770  -26.6710   19.1020 C   0  0  0  0  0  3  0  0  0  0  0  0
  -25.0830  -27.4190   19.1390 C   0  0  0  0  0  3  0  0  0  0  0  0
  -23.8100  -29.5180   19.8820 C   0  0  0  0  0  2  0  0  0  0  0  0
  -24.8440  -30.6880   21.8830 N   0  0  0  0  0  0  0  0  0  0  0  0
  -23.6950  -31.6720   23.5720 O   0  0  0  0  0  0  0  0  0  0  0  0
  -22.9180  -29.0570   22.1860 C   0  0  0  0  0  0  0  0  0  0  0  0
  -21.5880  -28.9160   22.0570 N   0  0  0  0  0  0  0  0  0  0  0  0
  -23.5910  -28.3610   22.9490 O   0  0  0  0  0  0  0  0  0  0  0  0
  -21.1060  -29.5320   21.4190 H   0  0  0  0  0  0  0  0  0  0  0  0
  -18.1810  -27.8110   22.5420 C   0  0  0  0  0  0  0  0  0  0  0  0
  -20.7530  -27.9450   22.7650 C   0  0  0  0  0  3  0  0  0  0  0  0
  -20.7820  -26.5670   22.0640 C   0  0  0  0  0  2  0  0  0  0  0  0
  -19.6440  -26.3780   21.0540 C   0  0  0  0  0  2  0  0  0  0  0  0
  -18.2860  -26.5200   21.7460 C   0  0  0  0  0  2  0  0  0  0  0  0
  -19.3400  -28.4880   23.0050 C   0  0  0  0  0  0  0  0  0  0  0  0
  -19.1890  -29.7050   23.7070 C   0  0  0  0  0  3  0  0  0  0  0  0
  -17.9100  -30.2400   23.9530 C   0  0  0  0  0  3  0  0  0  0  0  0
  -16.7660  -29.5560   23.5070 C   0  0  0  0  0  3  0  0  0  0  0  0
  -16.9020  -28.3440   22.8060 C   0  0  0  0  0  3  0  0  0  0  0  0
  -26.0620  -32.0110   23.7010 C   0  0  0  0  0  3  0  0  0  0  0  0
  -25.7730  -33.4040   24.0680 N   0  0  0  0  0  0  0  0  0  0  0  0
  -26.1430  -34.4730   23.3490 C   0  0  0  0  0  0  0  0  0  0  0  0
  -26.8360  -34.3890   22.3310 O   0  0  0  0  0  0  0  0  0  0  0  0
  -25.1620  -33.5420   24.8580 H   0  0  0  0  0  0  0  0  0  0  0  0
  -24.4520  -36.3070   23.0140 C   0  0  0  0  0  1  0  0  0  0  0  0
  -25.6700  -35.8550   23.8370 C   0  0  0  0  0  3  0  0  0  0  0  0
  -27.7950  -36.6870   24.7430 C   0  0  0  0  0  1  0  0  0  0  0  0
  -26.7210  -36.8950   23.7750 N   0  0  0  0  0  0  0  0  0  0  0  0
  -26.3250  -37.8160   23.9400 H   0  0  0  0  0  0  0  0  0  0  0  0
  -26.5400  -31.1890   24.9610 C   0  0  1  0  0  0  0  0  0  0  0  0
  -25.4200  -30.9170   25.9930 C   0  0  0  0  0  1  0  0  0  0  0  0
  -27.1250  -29.8220   24.5340 C   0  0  0  0  0  1  0  0  0  0  0  0
  -27.6830  -31.9460   25.6810 C   0  0  0  0  0  1  0  0  0  0  0  0
  1  4  1  0
  2  6  1  0
  2  1  2  0
  3  5  1  0
  4  5  2  0
  4  7  1  0
  5 47  1  0
  6  3  2  0
  7  8  2  0
  8  9  1  0
 10  7  1  0
 11 16  1  0
 12 13  1  0
 12 11  1  0
 14 13  1  0
 14 21  1  0
 14 15  1  0
 16 10  1  0
 16 15  1  0
 17 10  2  0
 18 19  2  0
 19 38  1  0
 20 23  1  0
 20 19  1  0
 21 22  1  0
 21 18  1  0
 22 20  2  0
 23 24  1  0
 24 25  2  0
 26 29  1  0
 26 25  1  0
 27 26  2  0
 28 27  1  0
 28 23  2  0
 29 30  1  0
 30 35  2  0
 30 31  1  0
 31 32  2  0
 33 32  1  0
 33 37  1  0
 34 33  2  0
 35 34  1  0
 36 35  1  0
 38 39  1  0
 39 41  1  0
 39 42  1  0
 40 38  2  0
 43 18  1  0
 43 44  1  0
 45 43  1  0
 47 46  1  0
 48 49  1  0
 48  6  1  0
 51 49  1  0
 51 50  2  0
 52 50  1  0
 52 53  1  0
 53 55  1  0
 54 65  2  0
 55 60  1  0
 56 64  1  0
 56 66  1  0
 57 63  1  0
 57 59  1  0
 58 64  1  0
 59 58  1  0
 60 59  2  0
 61 62  1  0
 61 55  2  0
 62 57  2  0
 63 56  1  0
 64 54  1  0
 66 68  2  0
 67 66  1  0
 69 67  1  0
 70 79  2  0
 70 75  1  0
 71 67  1  0
 71 75  1  0
 72 71  1  0
 73 74  1  0
 73 72  1  0
 74 70  1  0
 75 76  2  0
 76 77  1  0
 78 77  2  0
 79 78  1  0
 80 54  1  0
 80 81  1  0
 80 90  1  0
 81 84  1  0
 82 86  1  0
 82 81  1  0
 83 82  2  0
 86 85  1  0
 88 86  1  0
 88 89  1  0
 88 87  1  0
 90 93  1  1
 90 91  1  0
 92 90  1  0
M  ISO  4   7 100  10 100  52 101  53 101
M  END
>  <TORSDO>  (64) 
F 22

>  <SCORE>  (64) 
-8.236

>  <name>  (64) 
63

>  <ligand_id>  (64) 
63

>  <original_smiles>  (64) 
[H]N=C(C(=O)N1C([H])([H])C([H])([H])C([H])([H])C([H])(n2nc(-c3c([H])c([H])c(Oc4c([H])c([H])c(F)c([H])c4F)c([H])c3[H])c(C(=O)N([H])[H])c2N([H])[H])C1([H])[H])c1c([H])c([H])c(OC([H])([H])C([H])=C([H])C([H])([H])Oc2c([H])c([H])c3c(c2[H])C([H])([H])N(C(=O)C([H])(N([H])C(=O)C([H])(N([H])C([H])([H])[H])C([H])([H])[H])C(C([H])([H])[H])(C([H])([H])[H])C([H])([H])[H])C([H])(C(=O)N([H])C2([H])c4c([H])c([H])c([H])c([H])c4C([H])([H])C([H])([H])C2([H])[H])C3([H])[H])c([H])c1C([H])([H])C([H])([H])[H]

>  <smiles>  (64) 
[H]N=C(C(=O)N1C([H])([H])C([H])([H])C([H])([H])C([H])(n2nc(-c3c([H])c([H])c(Oc4c([H])c([H])c(F)c([H])c4F)c([H])c3[H])c(C(=O)N([H])[H])c2N([H])[H])C1([H])[H])c1c([H])c([H])c(OC([H])([H])C([H])=C([H])C([H])([H])Oc2c([H])c([H])c3c(c2[H])C([H])([H])N(C(=O)C([H])(N([H])C(=O)C([H])(N([H])C([H])([H])[H])C([H])([H])[H])C(C([H])([H])[H])(C([H])([H])[H])C([H])([H])[H])C([H])(C(=O)N([H])C2([H])c4c([H])c([H])c([H])c([H])c4C([H])([H])C([H])([H])C2([H])[H])C3([H])[H])c([H])c1C([H])([H])C([H])([H])[H]

$$$$
64:0:0
     RDKit          3D

 92100  0  0  1  0  0  0  0  0999 V2000
  -27.7330  -21.4330   18.1410 C   0  0  0  0  0  3  0  0  0  0  0  0
  -28.6270  -22.4170   18.3210 C   0  0  0  0  0  3  0  0  0  0  0  0
  -28.8620  -18.6270   20.3880 C   0  0  0  0  0  3  0  0  0  0  0  0
  -28.4170  -19.8860   19.9530 C   0  0  0  0  0  3  0  0  0  0  0  0
  -28.4080  -17.7190   18.1720 C   0  0  0  0  0  3  0  0  0  0  0  0
  -28.9190  -17.5570   19.4760 C   0  0  0  0  0  0  0  0  0  0  0  0
  -27.9940  -20.0760   18.6200 C   0  0  0  0  0  0  0  0  0  0  0  0
  -27.9500  -18.9770   17.7340 C   0  0  0  0  0  0  0  0  0  0  0  0
  -27.5070  -19.1490   16.2900 C   0  0  0  0  0  1  0  0  0  0  0  0
  -29.5880  -16.3060   19.8090 C   0  0  0  0  0  3  0  0  0  0  0  0
  -29.9000  -15.8240   21.0290 C   0  0  0  0  0  3  0  0  0  0  0  0
  -30.7530  -14.6560   21.0280 C   0  0  0  0  0  0  0  0  0  0  0  0
  -30.5760  -12.4470   19.9980 C   0  0  0  0  0  2  0  0  0  0  0  0
  -29.7580  -12.5970   18.6980 C   0  0  0  0  0  2  0  0  0  0  0  0
  -28.2490  -12.4530   18.9850 C   0  0  0  0  0  2  0  0  0  0  0  0
  -27.7710  -13.3300   20.1730 C   0  0  0  0  0  3  0  0  0  0  0  0
  -28.7240  -13.2130   21.3840 C   0  0  0  0  0  2  0  0  0  0  0  0
  -30.0990  -13.4710   20.9350 N   0  0  0  0  0  0  0  0  0  0  0  0
  -31.9560  -14.7850   20.7930 O   0  0  0  0  0  0  0  0  0  0  0  0
  -25.3100  -13.8960   20.6580 C   0  0  0  0  0  0  0  0  0  0  0  0
  -24.2310  -13.1070   20.9480 C   0  0  0  0  0  0  0  0  0  0  0  0
  -24.7240  -11.7660   20.9900 C   0  0  0  0  0  0  0  0  0  0  0  0
  -26.3900  -13.0340   20.5400 N   0  0  0  0  0  0  0  0  0  0  0  0
  -26.0370  -11.7500   20.8000 N   0  0  0  0  0  0  0  0  0  0  0  0
  -24.0150  -10.4900   21.1430 C   0  0  0  0  0  0  0  0  0  0  0  0
  -24.3970   -9.5460   22.1220 C   0  0  0  0  0  3  0  0  0  0  0  0
  -23.6870   -8.3340   22.2610 C   0  0  0  0  0  3  0  0  0  0  0  0
  -22.5820   -8.0570   21.4220 C   0  0  0  0  0  0  0  0  0  0  0  0
  -22.2200   -8.9930   20.4340 C   0  0  0  0  0  3  0  0  0  0  0  0
  -22.9310  -10.1950   20.2930 C   0  0  0  0  0  3  0  0  0  0  0  0
  -21.8500   -6.8950   21.4680 O   0  0  0  0  0  0  0  0  0  0  0  0
  -21.7360   -6.1610   22.6230 C   0  0  0  0  0  0  0  0  0  0  0  0
  -21.1940   -6.7120   23.8050 C   0  0  0  0  0  3  0  0  0  0  0  0
  -21.0290   -5.9040   24.9480 C   0  0  0  0  0  3  0  0  0  0  0  0
  -21.3980   -4.5450   24.9090 C   0  0  0  0  0  0  0  0  0  0  0  0
  -21.9350   -3.9950   23.7310 C   0  0  0  0  0  3  0  0  0  0  0  0
  -22.0990   -4.8000   22.5910 C   0  0  0  0  0  0  0  0  0  0  0  0
  -22.5960   -4.2580   21.4520 F   0  0  0  0  0  0  0  0  0  0  0  0
  -21.2340   -3.7660   26.0030 F   0  0  0  0  0  0  0  0  0  0  0  0
  -22.8040  -13.5530   21.0830 C   0  0  0  0  0  0  0  0  0  0  0  0
  -22.0200  -12.8600   21.8990 N   0  0  0  0  0  0  0  0  0  0  0  0
  -22.3890  -14.5530   20.4980 O   0  0  0  0  0  0  0  0  0  0  0  0
  -22.3670  -12.0510   22.3920 H   0  0  0  0  0  0  0  0  0  0  0  0
  -21.0590  -13.1410   22.0320 H   0  0  0  0  0  0  0  0  0  0  0  0
  -25.4620  -15.2670   20.4670 N   0  0  0  0  0  0  0  0  0  0  0  0
  -24.6830  -15.9150   20.5170 H   0  0  0  0  0  0  0  0  0  0  0  0
  -26.3420  -15.7150   20.2480 H   0  0  0  0  0  0  0  0  0  0  0  0
  -28.4300  -23.8570   17.9200 C   0  0  0  0  0  2  0  0  0  0  0  0
  -28.4370  -24.7420   19.1630 C   0  0  0  0  0  0  0  0  0  0  0  0
  -28.2290  -24.2910   20.2970 O   0  0  0  0  0  0  0  0  0  0  0  0
  -28.7040  -26.2230   18.9230 C   0  0  0  0  0  2  0  0  0  0  0  0
  -28.4220  -26.9770   20.0970 O   0  0  0  0  0  0  0  0  0  0  0  0
  -24.5430  -31.9720   23.2800 C   0  0  0  0  0  0  0  0  0  0  0  0
  -27.2070  -27.6140   20.1360 C   0  0  0  0  0  0  0  0  0  0  0  0
  -23.3310  -30.5720   21.6370 C   0  0  0  0  0  3  0  0  0  0  0  0
  -24.7820  -29.0540   20.1970 C   0  0  0  0  0  0  0  0  0  0  0  0
  -25.8470  -30.9590   21.4200 C   0  0  0  0  0  2  0  0  0  0  0  0
  -25.9360  -29.5930   20.7810 C   0  0  0  0  0  0  0  0  0  0  0  0
  -27.1440  -28.8720   20.7640 C   0  0  0  0  0  3  0  0  0  0  0  0
  -26.0320  -27.0710   19.5620 C   0  0  0  0  0  3  0  0  0  0  0  0
  -24.8210  -27.7850   19.5950 C   0  0  0  0  0  3  0  0  0  0  0  0
  -23.5310  -29.8980   20.2540 C   0  0  0  0  0  2  0  0  0  0  0  0
  -24.5920  -31.1830   22.1710 N   0  0  0  0  0  0  0  0  0  0  0  0
  -23.4660  -32.2330   23.8310 O   0  0  0  0  0  0  0  0  0  0  0  0
  -22.6990  -29.5400   22.5970 C   0  0  0  0  0  0  0  0  0  0  0  0
  -21.3770  -29.3430   22.4720 N   0  0  0  0  0  0  0  0  0  0  0  0
  -23.3930  -28.9190   23.4060 O   0  0  0  0  0  0  0  0  0  0  0  0
  -20.8770  -29.8980   21.7900 H   0  0  0  0  0  0  0  0  0  0  0  0
  -18.0160  -28.1150   22.9650 C   0  0  0  0  0  0  0  0  0  0  0  0
  -20.5710  -28.3940   23.2390 C   0  0  0  0  0  3  0  0  0  0  0  0
  -20.6860  -26.9660   22.6560 C   0  0  0  0  0  2  0  0  0  0  0  0
  -19.5870  -26.6370   21.6410 C   0  0  0  0  0  2  0  0  0  0  0  0
  -18.2040  -26.7680   22.2860 C   0  0  0  0  0  2  0  0  0  0  0  0
  -19.1280  -28.8850   23.3970 C   0  0  0  0  0  0  0  0  0  0  0  0
  -18.8980  -30.1460   23.9890 C   0  0  0  0  0  3  0  0  0  0  0  0
  -17.5900  -30.6370   24.1540 C   0  0  0  0  0  3  0  0  0  0  0  0
  -16.4920  -29.8630   23.7400 C   0  0  0  0  0  3  0  0  0  0  0  0
  -16.7060  -28.6030   23.1520 C   0  0  0  0  0  3  0  0  0  0  0  0
  -25.8320  -32.6050   23.8920 C   0  0  0  0  0  3  0  0  0  0  0  0
  -25.5320  -34.0090   24.2000 N   0  0  0  0  0  0  0  0  0  0  0  0
  -25.8840  -35.0480   23.4320 C   0  0  0  0  0  0  0  0  0  0  0  0
  -26.5710  -34.9260   22.4140 O   0  0  0  0  0  0  0  0  0  0  0  0
  -24.9260  -34.1780   24.9900 H   0  0  0  0  0  0  0  0  0  0  0  0
  -24.1900  -36.8550   23.0060 C   0  0  0  0  0  1  0  0  0  0  0  0
  -25.3990  -36.4440   23.8620 C   0  0  0  0  0  3  0  0  0  0  0  0
  -27.5160  -37.3090   24.7530 C   0  0  0  0  0  1  0  0  0  0  0  0
  -26.4460  -37.4850   23.7750 N   0  0  0  0  0  0  0  0  0  0  0  0
  -26.0470  -38.4110   23.9070 H   0  0  0  0  0  0  0  0  0  0  0  0
  -26.3480  -31.8480   25.1760 C   0  0  1  0  0  0  0  0  0  0  0  0
  -25.2550  -31.6210   26.2470 C   0  0  0  0  0  1  0  0  0  0  0  0
  -26.9300  -30.4660   24.7960 C   0  0  0  0  0  1  0  0  0  0  0  0
  -27.5000  -32.6470   25.8290 C   0  0  0  0  0  1  0  0  0  0  0  0
  1  2  2  0
  1  7  1  0
  4  3  1  0
  5  6  1  0
  6 10  1  0
  6  3  2  0
  7  4  2  0
  8  5  2  0
  8  7  1  0
  9  8  1  0
 10 11  2  0
 12 11  1  0
 13 18  1  0
 14 15  1  0
 14 13  1  0
 16 15  1  0
 16 23  1  0
 16 17  1  0
 18 12  1  0
 18 17  1  0
 19 12  2  0
 20 21  2  0
 21 22  1  0
 21 40  1  0
 22 25  1  0
 23 20  1  0
 23 24  1  0
 24 22  2  0
 25 26  1  0
 26 27  2  0
 28 31  1  0
 28 27  1  0
 29 28  2  0
 30 29  1  0
 30 25  2  0
 31 32  1  0
 32 33  1  0
 33 34  2  0
 35 34  1  0
 35 39  1  0
 36 35  2  0
 37 32  2  0
 37 36  1  0
 38 37  1  0
 40 41  1  0
 41 44  1  0
 41 43  1  0
 42 40  2  0
 45 46  1  0
 45 20  1  0
 47 45  1  0
 48  2  1  0
 48 49  1  0
 49 50  2  0
 51 49  1  0
 51 52  1  0
 52 54  1  0
 53 64  2  0
 54 59  1  0
 55 63  1  0
 55 65  1  0
 56 62  1  0
 56 58  1  0
 57 63  1  0
 58 57  1  0
 59 58  2  0
 60 61  1  0
 60 54  2  0
 61 56  2  0
 62 55  1  0
 63 53  1  0
 65 67  2  0
 66 65  1  0
 68 66  1  0
 69 78  2  0
 69 74  1  0
 70 66  1  0
 70 74  1  0
 71 70  1  0
 72 73  1  0
 72 71  1  0
 73 69  1  0
 74 75  2  0
 75 76  1  0
 77 76  2  0
 78 77  1  0
 79 53  1  0
 79 80  1  0
 79 89  1  0
 80 83  1  0
 81 85  1  0
 81 80  1  0
 82 81  2  0
 85 84  1  0
 87 85  1  0
 87 88  1  0
 87 86  1  0
 89 92  1  1
 89 90  1  0
 91 89  1  0
M  ISO  4  11 100  12 100  51 101  52 101
M  END
>  <TORSDO>  (65) 
F 21

>  <SCORE>  (65) 
-13.596

>  <name>  (65) 
64

>  <ligand_id>  (65) 
64

>  <original_smiles>  (65) 
[H]C(C(=O)N1C([H])([H])C([H])([H])C([H])([H])C([H])(n2nc(-c3c([H])c([H])c(Oc4c([H])c([H])c(F)c([H])c4F)c([H])c3[H])c(C(=O)N([H])[H])c2N([H])[H])C1([H])[H])=C([H])c1c([H])c([H])c(C([H])=C([H])C([H])([H])C(=O)C([H])([H])Oc2c([H])c([H])c3c(c2[H])C([H])([H])N(C(=O)C([H])(N([H])C(=O)C([H])(N([H])C([H])([H])[H])C([H])([H])[H])C(C([H])([H])[H])(C([H])([H])[H])C([H])([H])[H])C([H])(C(=O)N([H])C2([H])c4c([H])c([H])c([H])c([H])c4C([H])([H])C([H])([H])C2([H])[H])C3([H])[H])c(C([H])([H])[H])c1[H]

>  <smiles>  (65) 
[H]C(C(=O)N1C([H])([H])C([H])([H])C([H])([H])C([H])(n2nc(-c3c([H])c([H])c(Oc4c([H])c([H])c(F)c([H])c4F)c([H])c3[H])c(C(=O)N([H])[H])c2N([H])[H])C1([H])[H])=C([H])c1c([H])c([H])c(C([H])=C([H])C([H])([H])C(=O)C([H])([H])Oc2c([H])c([H])c3c(c2[H])C([H])([H])N(C(=O)C([H])(N([H])C(=O)C([H])(N([H])C([H])([H])[H])C([H])([H])[H])C(C([H])([H])[H])(C([H])([H])[H])C([H])([H])[H])C([H])(C(=O)N([H])C2([H])c4c([H])c([H])c([H])c([H])c4C([H])([H])C([H])([H])C2([H])[H])C3([H])[H])c(C([H])([H])[H])c1[H]

$$$$
65:0:0
     RDKit          3D

 94102  0  0  1  0  0  0  0  0999 V2000
  -29.3230  -19.3690   20.6920 C   0  0  0  0  0  3  0  0  0  0  0  0
  -31.1790  -18.1170   19.0130 C   0  0  0  0  0  3  0  0  0  0  0  0
  -29.5870  -19.9300   19.4230 C   0  0  0  0  0  0  0  0  0  0  0  0
  -29.9730  -18.1960   21.1300 C   0  0  0  0  0  0  0  0  0  0  0  0
  -30.5190  -19.2850   18.5740 C   0  0  0  0  0  0  0  0  0  0  0  0
  -30.9380  -17.5810   20.2950 C   0  0  0  0  0  0  0  0  0  0  0  0
  -29.6320  -17.6380   22.5020 C   0  0  0  0  0  1  0  0  0  0  0  0
  -30.8620  -19.8510   17.2040 C   0  0  0  0  0  1  0  0  0  0  0  0
  -28.9660  -21.2110   19.0350 C   0  0  0  0  0  3  0  0  0  0  0  0
  -28.7400  -22.2410   19.8720 C   0  0  0  0  0  3  0  0  0  0  0  0
  -28.1050  -23.5580   19.4700 C   0  0  0  0  0  2  0  0  0  0  0  0
  -29.1270  -24.5210   18.8430 C   0  0  0  0  0  2  0  0  0  0  0  0
  -29.5340  -26.7170   17.6230 C   0  0  0  0  0  1  0  0  0  0  0  0
  -28.5380  -25.8850   18.4400 C   0  0  0  0  0  3  0  0  0  0  0  0
  -28.2880  -26.6350   19.6270 O   0  0  0  0  0  0  0  0  0  0  0  0
  -24.8870  -31.6060   23.3570 C   0  0  0  0  0  0  0  0  0  0  0  0
  -27.1300  -27.3700   19.7310 C   0  0  0  0  0  0  0  0  0  0  0  0
  -23.5080  -30.3860   21.7050 C   0  0  0  0  0  3  0  0  0  0  0  0
  -24.7910  -28.9200   20.0580 C   0  0  0  0  0  0  0  0  0  0  0  0
  -26.0210  -30.6790   21.3430 C   0  0  0  0  0  2  0  0  0  0  0  0
  -26.0040  -29.3620   20.5970 C   0  0  0  0  0  0  0  0  0  0  0  0
  -27.1740  -28.5870   20.4440 C   0  0  0  0  0  3  0  0  0  0  0  0
  -25.8960  -26.9260   19.2050 C   0  0  0  0  0  3  0  0  0  0  0  0
  -24.7300  -27.6980   19.3640 C   0  0  0  0  0  3  0  0  0  0  0  0
  -23.5870  -29.8100   20.2650 C   0  0  0  0  0  2  0  0  0  0  0  0
  -24.8280  -30.8990   22.1930 N   0  0  0  0  0  0  0  0  0  0  0  0
  -23.8600  -31.8710   23.9980 O   0  0  0  0  0  0  0  0  0  0  0  0
  -22.8890  -29.3150   22.6290 C   0  0  0  0  0  0  0  0  0  0  0  0
  -21.5710  -29.0960   22.4890 N   0  0  0  0  0  0  0  0  0  0  0  0
  -23.5880  -28.6840   23.4250 O   0  0  0  0  0  0  0  0  0  0  0  0
  -21.0660  -29.6640   21.8220 H   0  0  0  0  0  0  0  0  0  0  0  0
  -18.2620  -27.6780   22.8170 C   0  0  0  0  0  0  0  0  0  0  0  0
  -20.7800  -28.1080   23.2230 C   0  0  0  0  0  3  0  0  0  0  0  0
  -21.0090  -26.6850   22.6640 C   0  0  0  0  0  2  0  0  0  0  0  0
  -19.9860  -26.2840   21.5970 C   0  0  0  0  0  2  0  0  0  0  0  0
  -18.5640  -26.3410   22.1640 C   0  0  0  0  0  2  0  0  0  0  0  0
  -19.3040  -28.5150   23.3000 C   0  0  0  0  0  0  0  0  0  0  0  0
  -18.9710  -29.7650   23.8660 C   0  0  0  0  0  3  0  0  0  0  0  0
  -17.6300  -30.1800   23.9570 C   0  0  0  0  0  3  0  0  0  0  0  0
  -16.6030  -29.3410   23.4920 C   0  0  0  0  0  3  0  0  0  0  0  0
  -16.9180  -28.0930   22.9280 C   0  0  0  0  0  3  0  0  0  0  0  0
  -26.2390  -32.1370   23.9270 C   0  0  0  0  0  3  0  0  0  0  0  0
  -26.0160  -33.5170   24.3790 N   0  0  0  0  0  0  0  0  0  0  0  0
  -26.3560  -34.6100   23.6830 C   0  0  0  0  0  0  0  0  0  0  0  0
  -26.9620  -34.5600   22.6090 O   0  0  0  0  0  0  0  0  0  0  0  0
  -25.4680  -33.6330   25.2180 H   0  0  0  0  0  0  0  0  0  0  0  0
  -24.6870  -36.4890   23.5760 C   0  0  0  0  0  1  0  0  0  0  0  0
  -25.9570  -35.9770   24.2720 C   0  0  0  0  0  3  0  0  0  0  0  0
  -28.1800  -36.7060   25.0210 C   0  0  0  0  0  1  0  0  0  0  0  0
  -27.0240  -36.9980   24.1770 N   0  0  0  0  0  0  0  0  0  0  0  0
  -26.6660  -37.9120   24.4400 H   0  0  0  0  0  0  0  0  0  0  0  0
  -26.8130  -31.2490   25.0990 C   0  0  1  0  0  0  0  0  0  0  0  0
  -25.7810  -30.9400   26.2080 C   0  0  0  0  0  1  0  0  0  0  0  0
  -27.3370  -29.9020   24.5520 C   0  0  0  0  0  1  0  0  0  0  0  0
  -28.0200  -31.9620   25.7550 C   0  0  0  0  0  1  0  0  0  0  0  0
  -31.7570  -16.3760   20.7500 C   0  0  0  0  0  2  0  0  0  0  0  0
  -31.4810  -14.1980   19.5650 C   0  0  0  0  0  0  0  0  0  0  0  0
  -30.9570  -12.0130   18.5420 C   0  0  0  0  0  2  0  0  0  0  0  0
  -29.9160  -12.1740   17.4190 C   0  0  0  0  0  2  0  0  0  0  0  0
  -28.4850  -12.1270   17.9900 C   0  0  0  0  0  2  0  0  0  0  0  0
  -28.2990  -13.0790   19.2010 C   0  0  0  0  0  3  0  0  0  0  0  0
  -29.4350  -12.8810   20.2260 C   0  0  0  0  0  2  0  0  0  0  0  0
  -30.7230  -13.0700   19.5340 N   0  0  0  0  0  0  0  0  0  0  0  0
  -32.4560  -14.3800   18.8280 O   0  0  0  0  0  0  0  0  0  0  0  0
  -31.1040  -15.1010   20.4770 N   0  0  0  0  0  0  0  0  0  0  0  0
  -30.3130  -14.8580   21.0530 H   0  0  0  0  0  0  0  0  0  0  0  0
  -26.0510  -13.8710   20.1810 C   0  0  0  0  0  0  0  0  0  0  0  0
  -24.9650  -13.1820   20.6490 C   0  0  0  0  0  0  0  0  0  0  0  0
  -25.2980  -11.7980   20.5360 C   0  0  0  0  0  0  0  0  0  0  0  0
  -26.9840  -12.9110   19.8170 N   0  0  0  0  0  0  0  0  0  0  0  0
  -26.5380  -11.6570   20.0850 N   0  0  0  0  0  0  0  0  0  0  0  0
  -24.4880  -10.5960   20.7790 C   0  0  0  0  0  0  0  0  0  0  0  0
  -24.8660   -9.6330   21.7400 C   0  0  0  0  0  3  0  0  0  0  0  0
  -24.0620   -8.4960   21.9680 C   0  0  0  0  0  3  0  0  0  0  0  0
  -22.8650   -8.3150   21.2360 C   0  0  0  0  0  0  0  0  0  0  0  0
  -22.5050   -9.2650   20.2640 C   0  0  0  0  0  3  0  0  0  0  0  0
  -23.3090  -10.3930   20.0340 C   0  0  0  0  0  3  0  0  0  0  0  0
  -22.0340   -7.2280   21.3710 O   0  0  0  0  0  0  0  0  0  0  0  0
  -21.8600   -6.6020   22.5790 C   0  0  0  0  0  0  0  0  0  0  0  0
  -21.3490   -7.2850   23.7040 C   0  0  0  0  0  3  0  0  0  0  0  0
  -21.1200   -6.5850   24.9060 C   0  0  0  0  0  3  0  0  0  0  0  0
  -21.3910   -5.2060   24.9820 C   0  0  0  0  0  0  0  0  0  0  0  0
  -21.8940   -4.5240   23.8600 C   0  0  0  0  0  3  0  0  0  0  0  0
  -22.1260   -5.2200   22.6610 C   0  0  0  0  0  0  0  0  0  0  0  0
  -22.5900   -4.5550   21.5770 F   0  0  0  0  0  0  0  0  0  0  0  0
  -21.1650   -4.5330   26.1340 F   0  0  0  0  0  0  0  0  0  0  0  0
  -23.6540  -13.7690   21.0890 C   0  0  0  0  0  0  0  0  0  0  0  0
  -22.9770  -13.1180   22.0290 N   0  0  0  0  0  0  0  0  0  0  0  0
  -23.2460  -14.8370   20.6350 O   0  0  0  0  0  0  0  0  0  0  0  0
  -23.3190  -12.2510   22.4140 H   0  0  0  0  0  0  0  0  0  0  0  0
  -22.0990  -13.4910   22.3640 H   0  0  0  0  0  0  0  0  0  0  0  0
  -26.3180  -15.2280   20.0180 N   0  0  0  0  0  0  0  0  0  0  0  0
  -25.6320  -15.9460   20.2230 H   0  0  0  0  0  0  0  0  0  0  0  0
  -27.1780  -15.6010   19.6370 H   0  0  0  0  0  0  0  0  0  0  0  0
  1  4  1  0
  2  6  1  0
  3  1  2  0
  4  7  1  0
  5  2  2  0
  5  3  1  0
  6 56  1  0
  6  4  2  0
  8  5  1  0
  9  3  1  0
  9 10  2  0
 11 10  1  0
 12 11  1  0
 14 13  1  0
 14 12  1  0
 14 15  1  0
 15 17  1  0
 16 27  2  0
 17 22  1  0
 18 26  1  0
 18 28  1  0
 19 25  1  0
 19 21  1  0
 20 26  1  0
 21 20  1  0
 22 21  2  0
 23 24  1  0
 23 17  2  0
 24 19  2  0
 25 18  1  0
 26 16  1  0
 28 30  2  0
 29 28  1  0
 31 29  1  0
 32 41  2  0
 32 37  1  0
 33 29  1  0
 33 37  1  0
 34 33  1  0
 35 36  1  0
 35 34  1  0
 36 32  1  0
 37 38  2  0
 38 39  1  0
 40 39  2  0
 41 40  1  0
 42 16  1  0
 42 43  1  0
 42 52  1  0
 43 46  1  0
 44 48  1  0
 44 43  1  0
 45 44  2  0
 48 47  1  0
 50 48  1  0
 50 51  1  0
 50 49  1  0
 52 55  1  1
 52 53  1  0
 54 52  1  0
 57 65  1  0
 58 63  1  0
 59 60  1  0
 59 58  1  0
 61 60  1  0
 61 70  1  0
 61 62  1  0
 63 57  1  0
 63 62  1  0
 64 57  2  0
 65 56  1  0
 65 66  1  0
 67 68  2  0
 68 87  1  0
 69 68  1  0
 69 72  1  0
 70 71  1  0
 70 67  1  0
 71 69  2  0
 72 73  1  0
 73 74  2  0
 75 78  1  0
 75 74  1  0
 76 75  2  0
 77 76  1  0
 77 72  2  0
 78 79  1  0
 79 84  2  0
 79 80  1  0
 80 81  2  0
 81 82  1  0
 82 86  1  0
 83 82  2  0
 84 83  1  0
 85 84  1  0
 87 88  1  0
 88 91  1  0
 88 90  1  0
 89 87  2  0
 92 67  1  0
 92 93  1  0
 94 92  1  0
M  ISO  4  14 101  15 101  57 100  65 100
M  END
>  <TORSDO>  (66) 
F 21

>  <SCORE>  (66) 
-10.669

>  <name>  (66) 
65

>  <ligand_id>  (66) 
65

>  <original_smiles>  (66) 
[H]C(=C([H])C([H])([H])C([H])([H])C([H])(Oc1c([H])c([H])c2c(c1[H])C([H])([H])N(C(=O)C([H])(N([H])C(=O)C([H])(N([H])C([H])([H])[H])C([H])([H])[H])C(C([H])([H])[H])(C([H])([H])[H])C([H])([H])[H])C([H])(C(=O)N([H])C1([H])c3c([H])c([H])c([H])c([H])c3C([H])([H])C([H])([H])C1([H])[H])C2([H])[H])C([H])([H])[H])c1c([H])c(C([H])([H])[H])c(C([H])([H])N([H])C(=O)N2C([H])([H])C([H])([H])C([H])([H])C([H])(n3nc(-c4c([H])c([H])c(Oc5c([H])c([H])c(F)c([H])c5F)c([H])c4[H])c(C(=O)N([H])[H])c3N([H])[H])C2([H])[H])c([H])c1C([H])([H])[H]

>  <smiles>  (66) 
[H]C(=C([H])C([H])([H])C([H])([H])C([H])(Oc1c([H])c([H])c2c(c1[H])C([H])([H])N(C(=O)C([H])(N([H])C(=O)C([H])(N([H])C([H])([H])[H])C([H])([H])[H])C(C([H])([H])[H])(C([H])([H])[H])C([H])([H])[H])C([H])(C(=O)N([H])C1([H])c3c([H])c([H])c([H])c([H])c3C([H])([H])C([H])([H])C1([H])[H])C2([H])[H])C([H])([H])[H])c1c([H])c(C([H])([H])[H])c(C([H])([H])N([H])C(=O)N2C([H])([H])C([H])([H])C([H])([H])C([H])(n3nc(-c4c([H])c([H])c(Oc5c([H])c([H])c(F)c([H])c5F)c([H])c4[H])c(C(=O)N([H])[H])c3N([H])[H])C2([H])[H])c([H])c1C([H])([H])[H]

$$$$
66:0:0
     RDKit          3D

 94102  0  0  1  0  0  0  0  0999 V2000
  -30.0950  -21.1110   22.1750 C   0  0  0  0  0  3  0  0  0  0  0  0
  -29.6830  -19.5190   20.3990 C   0  0  0  0  0  3  0  0  0  0  0  0
  -30.7930  -20.1340   22.9170 C   0  0  0  0  0  0  0  0  0  0  0  0
  -30.3600  -18.4970   21.1220 C   0  0  0  0  0  0  0  0  0  0  0  0
  -30.9250  -18.8150   22.3930 C   0  0  0  0  0  0  0  0  0  0  0  0
  -29.5480  -20.8400   20.9000 C   0  0  0  0  0  0  0  0  0  0  0  0
  -31.0460  -17.1460   24.3370 C   0  0  0  0  0  1  0  0  0  0  0  0
  -31.7790  -17.7910   23.1500 C   0  0  0  0  0  2  0  0  0  0  0  0
  -30.6050  -17.1910   20.4380 C   0  0  0  0  0  3  0  0  0  0  0  0
  -30.3300  -15.9180   20.8440 C   0  0  0  0  0  3  0  0  0  0  0  0
  -30.9080  -14.7860   20.1010 C   0  0  0  0  0  0  0  0  0  0  0  0
  -30.5660  -12.5920   19.0190 C   0  0  0  0  0  2  0  0  0  0  0  0
  -29.5990  -12.7570   17.8280 C   0  0  0  0  0  2  0  0  0  0  0  0
  -28.1420  -12.6030   18.3040 C   0  0  0  0  0  2  0  0  0  0  0  0
  -27.8270  -13.4670   19.5550 C   0  0  0  0  0  3  0  0  0  0  0  0
  -28.9150  -13.3000   20.6410 C   0  0  0  0  0  2  0  0  0  0  0  0
  -30.2170  -13.6090   20.0310 N   0  0  0  0  0  0  0  0  0  0  0  0
  -31.9890  -14.9150   19.5170 O   0  0  0  0  0  0  0  0  0  0  0  0
  -25.4520  -14.0530   20.3500 C   0  0  0  0  0  0  0  0  0  0  0  0
  -24.3990  -13.2690   20.7430 C   0  0  0  0  0  0  0  0  0  0  0  0
  -24.8640  -11.9200   20.6780 C   0  0  0  0  0  0  0  0  0  0  0  0
  -26.4920  -13.1790   20.0750 N   0  0  0  0  0  0  0  0  0  0  0  0
  -26.1450  -11.8920   20.3300 N   0  0  0  0  0  0  0  0  0  0  0  0
  -24.1510  -10.6520   20.8760 C   0  0  0  0  0  0  0  0  0  0  0  0
  -24.5700   -9.7120   21.8430 C   0  0  0  0  0  3  0  0  0  0  0  0
  -23.8570   -8.5070   22.0290 C   0  0  0  0  0  3  0  0  0  0  0  0
  -22.7120   -8.2320   21.2430 C   0  0  0  0  0  0  0  0  0  0  0  0
  -22.3110   -9.1610   20.2660 C   0  0  0  0  0  3  0  0  0  0  0  0
  -23.0250  -10.3580   20.0810 C   0  0  0  0  0  3  0  0  0  0  0  0
  -21.9730   -7.0780   21.3320 O   0  0  0  0  0  0  0  0  0  0  0  0
  -21.8250   -6.4080   22.5200 C   0  0  0  0  0  0  0  0  0  0  0  0
  -21.2600   -7.0260   23.6570 C   0  0  0  0  0  3  0  0  0  0  0  0
  -21.0610   -6.2840   24.8380 C   0  0  0  0  0  3  0  0  0  0  0  0
  -21.4180   -4.9220   24.8820 C   0  0  0  0  0  0  0  0  0  0  0  0
  -21.9760   -4.3030   23.7490 C   0  0  0  0  0  3  0  0  0  0  0  0
  -22.1770   -5.0440   22.5710 C   0  0  0  0  0  0  0  0  0  0  0  0
  -22.6940   -4.4370   21.4760 F   0  0  0  0  0  0  0  0  0  0  0  0
  -21.2210   -4.2050   26.0140 F   0  0  0  0  0  0  0  0  0  0  0  0
  -23.0100  -13.7360   21.0670 C   0  0  0  0  0  0  0  0  0  0  0  0
  -22.3200  -13.0330   21.9600 N   0  0  0  0  0  0  0  0  0  0  0  0
  -22.5440  -14.7560   20.5650 O   0  0  0  0  0  0  0  0  0  0  0  0
  -22.7100  -12.2050   22.3840 H   0  0  0  0  0  0  0  0  0  0  0  0
  -21.3920  -13.3310   22.2240 H   0  0  0  0  0  0  0  0  0  0  0  0
  -25.6040  -15.4240   20.1870 N   0  0  0  0  0  0  0  0  0  0  0  0
  -24.8430  -16.0760   20.3470 H   0  0  0  0  0  0  0  0  0  0  0  0
  -26.4490  -15.8740   19.8570 H   0  0  0  0  0  0  0  0  0  0  0  0
  -31.8730  -21.8030   24.4720 C   0  0  0  0  0  2  0  0  0  0  0  0
  -31.4730  -20.5540   24.1700 C   0  0  0  0  0  3  0  0  0  0  0  0
  -28.9410  -21.8200   20.1110 O   0  0  0  0  0  0  0  0  0  0  0  0
  -28.7790  -23.1450   20.6660 C   0  0  0  0  0  2  0  0  0  0  0  0
  -29.5770  -24.5710   18.7180 C   0  0  0  0  0  1  0  0  0  0  0  0
  -28.4000  -24.2740   19.6620 C   0  0  0  0  0  3  0  0  0  0  0  0
  -27.9810  -25.5760   20.4160 C   0  0  0  0  0  2  0  0  0  0  0  0
  -27.9880  -26.7840   19.6200 O   0  0  0  0  0  0  0  0  0  0  0  0
  -24.4810  -31.8900   23.1860 C   0  0  0  0  0  0  0  0  0  0  0  0
  -26.8570  -27.5630   19.7340 C   0  0  0  0  0  0  0  0  0  0  0  0
  -23.1600  -30.5900   21.5500 C   0  0  0  0  0  3  0  0  0  0  0  0
  -24.5030  -29.1090   19.9610 C   0  0  0  0  0  0  0  0  0  0  0  0
  -25.6750  -30.9250   21.2160 C   0  0  0  0  0  2  0  0  0  0  0  0
  -25.7030  -29.5830   20.5060 C   0  0  0  0  0  0  0  0  0  0  0  0
  -26.8890  -28.8190   20.3880 C   0  0  0  0  0  3  0  0  0  0  0  0
  -25.6450  -27.1080   19.1760 C   0  0  0  0  0  3  0  0  0  0  0  0
  -24.4670  -27.8730   19.2920 C   0  0  0  0  0  3  0  0  0  0  0  0
  -23.2780  -29.9810   20.1300 C   0  0  0  0  0  2  0  0  0  0  0  0
  -24.4620  -31.1470   22.0430 N   0  0  0  0  0  0  0  0  0  0  0  0
  -23.4360  -32.1470   23.8010 O   0  0  0  0  0  0  0  0  0  0  0  0
  -22.5490  -29.5310   22.4950 C   0  0  0  0  0  0  0  0  0  0  0  0
  -21.2340  -29.2980   22.3590 N   0  0  0  0  0  0  0  0  0  0  0  0
  -23.2540  -28.9230   23.3060 O   0  0  0  0  0  0  0  0  0  0  0  0
  -20.7260  -29.8410   21.6750 H   0  0  0  0  0  0  0  0  0  0  0  0
  -17.9310  -27.8820   22.7510 C   0  0  0  0  0  0  0  0  0  0  0  0
  -20.4530  -28.3190   23.1130 C   0  0  0  0  0  3  0  0  0  0  0  0
  -20.6780  -26.8940   22.5620 C   0  0  0  0  0  2  0  0  0  0  0  0
  -19.6420  -26.4830   21.5120 C   0  0  0  0  0  2  0  0  0  0  0  0
  -18.2280  -26.5410   22.1010 C   0  0  0  0  0  2  0  0  0  0  0  0
  -18.9770  -28.7230   23.2110 C   0  0  0  0  0  0  0  0  0  0  0  0
  -18.6510  -29.9730   23.7790 C   0  0  0  0  0  3  0  0  0  0  0  0
  -17.3120  -30.3930   23.8830 C   0  0  0  0  0  3  0  0  0  0  0  0
  -16.2780  -29.5500   23.4370 C   0  0  0  0  0  3  0  0  0  0  0  0
  -16.5880  -28.2950   22.8820 C   0  0  0  0  0  3  0  0  0  0  0  0
  -25.8110  -32.4690   23.7610 C   0  0  0  0  0  3  0  0  0  0  0  0
  -25.5520  -33.8600   24.1580 N   0  0  0  0  0  0  0  0  0  0  0  0
  -25.8730  -34.9320   23.4230 C   0  0  0  0  0  0  0  0  0  0  0  0
  -26.4920  -34.8550   22.3570 O   0  0  0  0  0  0  0  0  0  0  0  0
  -24.9870  -33.9960   24.9840 H   0  0  0  0  0  0  0  0  0  0  0  0
  -24.1660  -36.7690   23.2300 C   0  0  0  0  0  1  0  0  0  0  0  0
  -25.4420  -36.3120   23.9520 C   0  0  0  0  0  3  0  0  0  0  0  0
  -27.6390  -37.1260   24.6890 C   0  0  0  0  0  1  0  0  0  0  0  0
  -26.4900  -37.3470   23.8150 N   0  0  0  0  0  0  0  0  0  0  0  0
  -26.1110  -38.2670   24.0170 H   0  0  0  0  0  0  0  0  0  0  0  0
  -26.3750  -31.6370   24.9750 C   0  0  1  0  0  0  0  0  0  0  0  0
  -25.3270  -31.3500   26.0770 C   0  0  0  0  0  1  0  0  0  0  0  0
  -26.9320  -30.2780   24.4860 C   0  0  0  0  0  1  0  0  0  0  0  0
  -27.5590  -32.3950   25.6210 C   0  0  0  0  0  1  0  0  0  0  0  0
  1  3  1  0
  2  6  1  0
  2  4  2  0
  3 48  1  0
  4  5  1  0
  5  3  2  0
  5  8  1  0
  6  1  2  0
  8  7  1  0
  9 10  2  0
  9  4  1  0
 11 10  1  0
 12 17  1  0
 13 14  1  0
 13 12  1  0
 15 14  1  0
 15 22  1  0
 15 16  1  0
 17 11  1  0
 17 16  1  0
 18 11  2  0
 19 20  2  0
 20 39  1  0
 21 20  1  0
 21 24  1  0
 22 23  1  0
 22 19  1  0
 23 21  2  0
 24 25  1  0
 25 26  2  0
 27 30  1  0
 27 26  1  0
 28 27  2  0
 29 28  1  0
 29 24  2  0
 30 31  1  0
 31 36  2  0
 31 32  1  0
 32 33  2  0
 33 34  1  0
 34 38  1  0
 35 34  2  0
 36 35  1  0
 37 36  1  0
 39 40  1  0
 40 43  1  0
 40 42  1  0
 41 39  2  0
 44 45  1  0
 44 19  1  0
 46 44  1  0
 48 47  2  0
 49 50  1  0
 49  6  1  0
 52 51  1  0
 52 53  1  0
 52 50  1  0
 54 56  1  0
 54 53  1  0
 55 66  2  0
 56 61  1  0
 57 65  1  0
 57 67  1  0
 58 64  1  0
 58 60  1  0
 59 65  1  0
 60 59  1  0
 61 60  2  0
 62 63  1  0
 62 56  2  0
 63 58  2  0
 64 57  1  0
 65 55  1  0
 67 69  2  0
 68 67  1  0
 70 68  1  0
 71 80  2  0
 71 76  1  0
 72 68  1  0
 72 76  1  0
 73 72  1  0
 74 75  1  0
 74 73  1  0
 75 71  1  0
 76 77  2  0
 77 78  1  0
 79 78  2  0
 80 79  1  0
 81 55  1  0
 81 82  1  0
 81 91  1  0
 82 85  1  0
 83 87  1  0
 83 82  1  0
 84 83  2  0
 87 86  1  0
 89 87  1  0
 89 90  1  0
 89 88  1  0
 91 94  1  1
 91 92  1  0
 93 91  1  0
M  ISO  4  10 100  11 100  53 101  54 101
M  END
>  <TORSDO>  (67) 
F 23

>  <SCORE>  (67) 
-9.581

>  <name>  (67) 
66

>  <ligand_id>  (67) 
66

>  <original_smiles>  (67) 
[H]C([H])=C([H])c1c([H])c(OC([H])([H])C([H])(C([H])([H])[H])C([H])([H])Oc2c([H])c([H])c3c(c2[H])C([H])([H])N(C(=O)C([H])(N([H])C(=O)C([H])(N([H])C([H])([H])[H])C([H])([H])[H])C(C([H])([H])[H])(C([H])([H])[H])C([H])([H])[H])C([H])(C(=O)N([H])C2([H])c4c([H])c([H])c([H])c([H])c4C([H])([H])C([H])([H])C2([H])[H])C3([H])[H])c([H])c(C([H])=C([H])C(=O)N2C([H])([H])C([H])([H])C([H])([H])C([H])(n3nc(-c4c([H])c([H])c(Oc5c([H])c([H])c(F)c([H])c5F)c([H])c4[H])c(C(=O)N([H])[H])c3N([H])[H])C2([H])[H])c1C([H])([H])C([H])([H])[H]

>  <smiles>  (67) 
[H]C([H])=C([H])c1c([H])c(OC([H])([H])C([H])(C([H])([H])[H])C([H])([H])Oc2c([H])c([H])c3c(c2[H])C([H])([H])N(C(=O)C([H])(N([H])C(=O)C([H])(N([H])C([H])([H])[H])C([H])([H])[H])C(C([H])([H])[H])(C([H])([H])[H])C([H])([H])[H])C([H])(C(=O)N([H])C2([H])c4c([H])c([H])c([H])c([H])c4C([H])([H])C([H])([H])C2([H])[H])C3([H])[H])c([H])c(C([H])=C([H])C(=O)N2C([H])([H])C([H])([H])C([H])([H])C([H])(n3nc(-c4c([H])c([H])c(Oc5c([H])c([H])c(F)c([H])c5F)c([H])c4[H])c(C(=O)N([H])[H])c3N([H])[H])C2([H])[H])c1C([H])([H])C([H])([H])[H]

$$$$
67:0:0
     RDKit          3D

 93102  0  0  1  0  0  0  0  0999 V2000
  -29.2050  -22.7360   20.0160 C   0  0  0  0  0  3  0  0  0  0  0  0
  -31.4780  -22.2890   20.6150 C   0  0  0  0  0  3  0  0  0  0  0  0
  -30.2800  -21.7410   20.3050 C   0  0  0  0  0  0  0  0  0  0  0  0
  -29.3160  -24.0990   20.1180 C   0  0  0  0  0  0  0  0  0  0  0  0
  -31.8230  -23.7760   20.6170 C   0  0  0  0  0  3  0  0  0  0  0  0
  -30.6280  -24.7500   20.5090 C   0  0  0  0  0  3  0  0  0  0  0  0
  -31.3230  -19.3690   20.3210 C   0  0  0  0  0  3  0  0  0  0  0  0
  -31.2890  -17.9450   20.3670 C   0  0  0  0  0  3  0  0  0  0  0  0
  -28.8990  -18.0310   20.2970 C   0  0  0  0  0  3  0  0  0  0  0  0
  -30.1500  -20.1940   20.2910 C   0  0  0  0  0  0  0  0  0  0  0  0
  -28.9220  -19.4620   20.2720 C   0  0  0  0  0  0  0  0  0  0  0  0
  -30.0670  -17.2300   20.3800 C   0  0  0  0  0  0  0  0  0  0  0  0
  -27.5710  -20.1520   20.2960 C   0  0  0  0  0  1  0  0  0  0  0  0
  -30.6890  -14.7210   20.1190 C   0  0  0  0  0  0  0  0  0  0  0  0
  -30.4120  -12.5030   19.0480 C   0  0  0  0  0  2  0  0  0  0  0  0
  -29.4130  -12.6520   17.8790 C   0  0  0  0  0  2  0  0  0  0  0  0
  -27.9600  -12.4920   18.3740 C   0  0  0  0  0  2  0  0  0  0  0  0
  -27.6600  -13.3360   19.6420 C   0  0  0  0  0  3  0  0  0  0  0  0
  -28.7720  -13.1650   20.7030 C   0  0  0  0  0  2  0  0  0  0  0  0
  -30.0570  -13.5030   20.0700 N   0  0  0  0  0  0  0  0  0  0  0  0
  -31.8310  -14.8670   19.6750 O   0  0  0  0  0  0  0  0  0  0  0  0
  -29.9140  -15.7790   20.5090 N   0  0  0  0  0  0  0  0  0  0  0  0
  -29.0110  -15.4880   20.8510 H   0  0  0  0  0  0  0  0  0  0  0  0
  -25.3070  -13.9390   20.4930 C   0  0  0  0  0  0  0  0  0  0  0  0
  -24.2500  -13.1660   20.8970 C   0  0  0  0  0  0  0  0  0  0  0  0
  -24.6970  -11.8120   20.8100 C   0  0  0  0  0  0  0  0  0  0  0  0
  -26.3310  -13.0540   20.1860 N   0  0  0  0  0  0  0  0  0  0  0  0
  -25.9720  -11.7690   20.4380 N   0  0  0  0  0  0  0  0  0  0  0  0
  -23.9660  -10.5530   21.0060 C   0  0  0  0  0  0  0  0  0  0  0  0
  -24.4180   -9.5730   21.9160 C   0  0  0  0  0  3  0  0  0  0  0  0
  -23.6910   -8.3750   22.1010 C   0  0  0  0  0  3  0  0  0  0  0  0
  -22.4980   -8.1520   21.3740 C   0  0  0  0  0  0  0  0  0  0  0  0
  -22.0640   -9.1200   20.4520 C   0  0  0  0  0  3  0  0  0  0  0  0
  -22.7920  -10.3080   20.2670 C   0  0  0  0  0  3  0  0  0  0  0  0
  -21.7410   -7.0090   21.4690 O   0  0  0  0  0  0  0  0  0  0  0  0
  -21.6920   -6.2700   22.6250 C   0  0  0  0  0  0  0  0  0  0  0  0
  -21.2450   -6.8250   23.8440 C   0  0  0  0  0  3  0  0  0  0  0  0
  -21.1480   -6.0130   24.9910 C   0  0  0  0  0  3  0  0  0  0  0  0
  -21.4860   -4.6480   24.9210 C   0  0  0  0  0  0  0  0  0  0  0  0
  -21.9250   -4.0930   23.7060 C   0  0  0  0  0  3  0  0  0  0  0  0
  -22.0260   -4.9030   22.5610 C   0  0  0  0  0  0  0  0  0  0  0  0
  -22.4310   -4.3600   21.3880 F   0  0  0  0  0  0  0  0  0  0  0  0
  -21.3840   -3.8670   26.0200 F   0  0  0  0  0  0  0  0  0  0  0  0
  -22.8730  -13.6470   21.2450 C   0  0  0  0  0  0  0  0  0  0  0  0
  -22.1820  -12.9470   22.1380 N   0  0  0  0  0  0  0  0  0  0  0  0
  -22.4190  -14.6830   20.7620 O   0  0  0  0  0  0  0  0  0  0  0  0
  -22.5670  -12.1150   22.5610 H   0  0  0  0  0  0  0  0  0  0  0  0
  -21.2540  -13.2470   22.4010 H   0  0  0  0  0  0  0  0  0  0  0  0
  -25.4650  -15.3100   20.3350 N   0  0  0  0  0  0  0  0  0  0  0  0
  -24.6800  -15.9430   20.4560 H   0  0  0  0  0  0  0  0  0  0  0  0
  -26.2720  -15.7550   19.9160 H   0  0  0  0  0  0  0  0  0  0  0  0
  -28.1490  -25.0920   19.8230 C   0  0  0  0  0  2  0  0  0  0  0  0
  -28.3490  -26.5290   20.1130 O   0  0  0  0  0  0  0  0  0  0  0  0
  -24.6160  -31.8770   23.2260 C   0  0  0  0  0  0  0  0  0  0  0  0
  -27.2200  -27.3620   20.0890 C   0  0  0  0  0  0  0  0  0  0  0  0
  -23.4050  -30.4910   21.5780 C   0  0  0  0  0  3  0  0  0  0  0  0
  -24.8450  -28.9570   20.1310 C   0  0  0  0  0  0  0  0  0  0  0  0
  -25.9400  -30.8170   21.3820 C   0  0  0  0  0  2  0  0  0  0  0  0
  -26.0180  -29.4460   20.7190 C   0  0  0  0  0  0  0  0  0  0  0  0
  -27.2070  -28.6580   20.6920 C   0  0  0  0  0  3  0  0  0  0  0  0
  -26.0150  -26.9280   19.4830 C   0  0  0  0  0  3  0  0  0  0  0  0
  -24.8430  -27.6990   19.5110 C   0  0  0  0  0  3  0  0  0  0  0  0
  -23.6090  -29.8260   20.1920 C   0  0  0  0  0  2  0  0  0  0  0  0
  -24.6720  -31.0800   22.1180 N   0  0  0  0  0  0  0  0  0  0  0  0
  -23.5360  -32.1470   23.7700 O   0  0  0  0  0  0  0  0  0  0  0  0
  -22.7470  -29.4670   22.5340 C   0  0  0  0  0  0  0  0  0  0  0  0
  -21.4200  -29.2920   22.4170 N   0  0  0  0  0  0  0  0  0  0  0  0
  -23.4320  -28.8330   23.3400 O   0  0  0  0  0  0  0  0  0  0  0  0
  -20.9230  -29.8660   21.7500 H   0  0  0  0  0  0  0  0  0  0  0  0
  -18.0470  -28.0870   22.9320 C   0  0  0  0  0  0  0  0  0  0  0  0
  -20.6090  -28.3450   23.1830 C   0  0  0  0  0  3  0  0  0  0  0  0
  -20.7050  -26.9190   22.5920 C   0  0  0  0  0  2  0  0  0  0  0  0
  -19.5930  -26.6050   21.5850 C   0  0  0  0  0  2  0  0  0  0  0  0
  -18.2160  -26.7450   22.2400 C   0  0  0  0  0  2  0  0  0  0  0  0
  -19.1700  -28.8440   23.3610 C   0  0  0  0  0  0  0  0  0  0  0  0
  -18.9550  -30.1010   23.9670 C   0  0  0  0  0  3  0  0  0  0  0  0
  -17.6530  -30.6000   24.1480 C   0  0  0  0  0  3  0  0  0  0  0  0
  -16.5450  -29.8400   23.7330 C   0  0  0  0  0  3  0  0  0  0  0  0
  -16.7430  -28.5860   23.1300 C   0  0  0  0  0  3  0  0  0  0  0  0
  -25.9020  -32.5050   23.8470 C   0  0  0  0  0  3  0  0  0  0  0  0
  -25.5950  -33.9000   24.1910 N   0  0  0  0  0  0  0  0  0  0  0  0
  -25.8970  -34.9580   23.4260 C   0  0  0  0  0  0  0  0  0  0  0  0
  -26.5320  -34.8620   22.3730 O   0  0  0  0  0  0  0  0  0  0  0  0
  -25.0270  -34.0470   25.0130 H   0  0  0  0  0  0  0  0  0  0  0  0
  -24.1450  -36.7420   23.1350 C   0  0  0  0  0  1  0  0  0  0  0  0
  -25.4150  -36.3420   23.9040 C   0  0  0  0  0  3  0  0  0  0  0  0
  -27.5660  -37.2510   24.6640 C   0  0  0  0  0  1  0  0  0  0  0  0
  -26.4350  -37.4030   23.7550 N   0  0  0  0  0  0  0  0  0  0  0  0
  -26.0230  -38.3190   23.9090 H   0  0  0  0  0  0  0  0  0  0  0  0
  -26.4200  -31.7250   25.1170 C   0  0  1  0  0  0  0  0  0  0  0  0
  -25.3330  -31.4890   26.1910 C   0  0  0  0  0  1  0  0  0  0  0  0
  -27.0080  -30.3520   24.7160 C   0  0  0  0  0  1  0  0  0  0  0  0
  -27.5690  -32.5180   25.7840 C   0  0  0  0  0  1  0  0  0  0  0  0
  1  4  2  0
  1  3  1  0
  2  5  1  0
  3  2  2  0
  4  6  1  0
  6  5  2  0
  7  8  1  0
  8 12  2  0
  9 12  1  0
 10  3  1  0
 10  7  2  0
 11 10  1  0
 11 13  1  0
 11  9  2  0
 12 22  1  0
 14 22  1  0
 15 20  1  0
 16 17  1  0
 16 15  1  0
 18 17  1  0
 18 27  1  0
 18 19  1  0
 20 14  1  0
 20 19  1  0
 21 14  2  0
 22 23  1  0
 24 25  2  0
 25 44  1  0
 26 25  1  0
 26 29  1  0
 27 28  1  0
 27 24  1  0
 28 26  2  0
 29 30  1  0
 30 31  2  0
 32 35  1  0
 32 31  1  0
 33 32  2  0
 34 33  1  0
 34 29  2  0
 35 36  1  0
 36 37  1  0
 37 38  2  0
 39 38  1  0
 39 43  1  0
 40 39  2  0
 41 36  2  0
 41 40  1  0
 42 41  1  0
 44 45  1  0
 45 48  1  0
 45 47  1  0
 46 44  2  0
 49 50  1  0
 49 24  1  0
 51 49  1  0
 52 53  1  0
 52  4  1  0
 54 65  2  0
 55 53  1  0
 55 60  1  0
 56 64  1  0
 56 66  1  0
 57 63  1  0
 57 59  1  0
 58 64  1  0
 59 58  1  0
 60 59  2  0
 61 62  1  0
 61 55  2  0
 62 57  2  0
 63 56  1  0
 64 54  1  0
 66 68  2  0
 67 66  1  0
 69 67  1  0
 70 79  2  0
 70 75  1  0
 71 67  1  0
 71 75  1  0
 72 71  1  0
 73 74  1  0
 73 72  1  0
 74 70  1  0
 75 76  2  0
 76 77  1  0
 78 77  2  0
 79 78  1  0
 80 54  1  0
 80 81  1  0
 80 90  1  0
 81 84  1  0
 82 86  1  0
 82 81  1  0
 83 82  2  0
 86 85  1  0
 88 86  1  0
 88 89  1  0
 88 87  1  0
 90 93  1  1
 90 91  1  0
 92 90  1  0
M  ISO  4  14 100  22 100  52 101  53 101
M  END
>  <TORSDO>  (68) 
F 18

>  <SCORE>  (68) 
-14.510

>  <name>  (68) 
67

>  <ligand_id>  (68) 
67

>  <original_smiles>  (68) 
[H]C1=C(C([H])([H])Oc2c([H])c([H])c3c(c2[H])C([H])([H])N(C(=O)C([H])(N([H])C(=O)C([H])(N([H])C([H])([H])[H])C([H])([H])[H])C(C([H])([H])[H])(C([H])([H])[H])C([H])([H])[H])C([H])(C(=O)N([H])C2([H])c4c([H])c([H])c([H])c([H])c4C([H])([H])C([H])([H])C2([H])[H])C3([H])[H])C([H])([H])C([H])([H])C([H])=C1c1c([H])c([H])c(N([H])C(=O)N2C([H])([H])C([H])([H])C([H])([H])C([H])(n3nc(-c4c([H])c([H])c(Oc5c([H])c([H])c(F)c([H])c5F)c([H])c4[H])c(C(=O)N([H])[H])c3N([H])[H])C2([H])[H])c([H])c1C([H])([H])[H]

>  <smiles>  (68) 
[H]C1=C(C([H])([H])Oc2c([H])c([H])c3c(c2[H])C([H])([H])N(C(=O)C([H])(N([H])C(=O)C([H])(N([H])C([H])([H])[H])C([H])([H])[H])C(C([H])([H])[H])(C([H])([H])[H])C([H])([H])[H])C([H])(C(=O)N([H])C2([H])c4c([H])c([H])c([H])c([H])c4C([H])([H])C([H])([H])C2([H])[H])C3([H])[H])C([H])([H])C([H])([H])C([H])=C1c1c([H])c([H])c(N([H])C(=O)N2C([H])([H])C([H])([H])C([H])([H])C([H])(n3nc(-c4c([H])c([H])c(Oc5c([H])c([H])c(F)c([H])c5F)c([H])c4[H])c(C(=O)N([H])[H])c3N([H])[H])C2([H])[H])c([H])c1C([H])([H])[H]

$$$$
68:0:0
     RDKit          3D

 92100  0  0  1  0  0  0  0  0999 V2000
  -28.7580  -20.5450   20.9030 C   0  0  0  0  0  3  0  0  0  0  0  0
  -28.9570  -21.8610   20.6020 C   0  0  0  0  0  3  0  0  0  0  0  0
  -29.8980  -19.5290   18.9140 C   0  0  0  0  0  3  0  0  0  0  0  0
  -29.4310  -18.0790   20.8120 C   0  0  0  0  0  3  0  0  0  0  0  0
  -30.5080  -17.1700   18.8220 C   0  0  0  0  0  3  0  0  0  0  0  0
  -29.3700  -19.3740   20.2120 C   0  0  0  0  0  0  0  0  0  0  0  0
  -30.4510  -18.4400   18.2130 C   0  0  0  0  0  0  0  0  0  0  0  0
  -29.9900  -16.9590   20.1280 C   0  0  0  0  0  0  0  0  0  0  0  0
  -30.9580  -18.6400   16.7920 C   0  0  0  0  0  1  0  0  0  0  0  0
  -30.6880  -14.5630   20.3690 C   0  0  0  0  0  0  0  0  0  0  0  0
  -30.4100  -12.3820   19.2750 C   0  0  0  0  0  2  0  0  0  0  0  0
  -29.4570  -12.5990   18.0790 C   0  0  0  0  0  2  0  0  0  0  0  0
  -27.9890  -12.4310   18.5210 C   0  0  0  0  0  2  0  0  0  0  0  0
  -27.6560  -13.2590   19.7910 C   0  0  0  0  0  3  0  0  0  0  0  0
  -28.7250  -13.0570   20.8900 C   0  0  0  0  0  2  0  0  0  0  0  0
  -30.0410  -13.3660   20.3070 N   0  0  0  0  0  0  0  0  0  0  0  0
  -31.8490  -14.7020   19.9690 O   0  0  0  0  0  0  0  0  0  0  0  0
  -29.9420  -15.6380   20.7180 N   0  0  0  0  0  0  0  0  0  0  0  0
  -29.1130  -15.4290   21.2570 H   0  0  0  0  0  0  0  0  0  0  0  0
  -25.2560  -13.8600   20.5050 C   0  0  0  0  0  0  0  0  0  0  0  0
  -24.1870  -13.0880   20.8740 C   0  0  0  0  0  0  0  0  0  0  0  0
  -24.6490  -11.7360   20.8440 C   0  0  0  0  0  0  0  0  0  0  0  0
  -26.3030  -12.9810   20.2760 N   0  0  0  0  0  0  0  0  0  0  0  0
  -25.9390  -11.7000   20.5320 N   0  0  0  0  0  0  0  0  0  0  0  0
  -23.9260  -10.4720   21.0400 C   0  0  0  0  0  0  0  0  0  0  0  0
  -24.3650   -9.5040   21.9710 C   0  0  0  0  0  3  0  0  0  0  0  0
  -23.6420   -8.3060   22.1520 C   0  0  0  0  0  3  0  0  0  0  0  0
  -22.4650   -8.0650   21.4030 C   0  0  0  0  0  0  0  0  0  0  0  0
  -22.0430   -9.0240   20.4660 C   0  0  0  0  0  3  0  0  0  0  0  0
  -22.7670  -10.2130   20.2810 C   0  0  0  0  0  3  0  0  0  0  0  0
  -21.7120   -6.9200   21.4930 O   0  0  0  0  0  0  0  0  0  0  0  0
  -21.6740   -6.1730   22.6440 C   0  0  0  0  0  0  0  0  0  0  0  0
  -21.2560   -6.7200   23.8780 C   0  0  0  0  0  3  0  0  0  0  0  0
  -21.1700   -5.8980   25.0190 C   0  0  0  0  0  3  0  0  0  0  0  0
  -21.4890   -4.5310   24.9290 C   0  0  0  0  0  0  0  0  0  0  0  0
  -21.8940   -3.9830   23.7010 C   0  0  0  0  0  3  0  0  0  0  0  0
  -21.9830   -4.8010   22.5610 C   0  0  0  0  0  0  0  0  0  0  0  0
  -22.3600   -4.2620   21.3770 F   0  0  0  0  0  0  0  0  0  0  0  0
  -21.3960   -3.7390   26.0230 F   0  0  0  0  0  0  0  0  0  0  0  0
  -22.7870  -13.5670   21.1420 C   0  0  0  0  0  0  0  0  0  0  0  0
  -22.0510  -12.8710   22.0010 N   0  0  0  0  0  0  0  0  0  0  0  0
  -22.3530  -14.5940   20.6230 O   0  0  0  0  0  0  0  0  0  0  0  0
  -22.4170  -12.0500   22.4620 H   0  0  0  0  0  0  0  0  0  0  0  0
  -21.1110  -13.1770   22.2110 H   0  0  0  0  0  0  0  0  0  0  0  0
  -25.4230  -15.2290   20.3180 N   0  0  0  0  0  0  0  0  0  0  0  0
  -24.6620  -15.8880   20.4270 H   0  0  0  0  0  0  0  0  0  0  0  0
  -26.2870  -15.6640   20.0160 H   0  0  0  0  0  0  0  0  0  0  0  0
  -28.2120  -22.9580   21.2690 C   0  0  0  0  0  0  0  0  0  0  0  0
  -27.1600  -22.7480   21.8800 O   0  0  0  0  0  0  0  0  0  0  0  0
  -28.7430  -24.4150   21.2280 C   0  0  0  0  0  2  0  0  0  0  0  0
  -28.4170  -25.2240   19.9460 C   0  0  0  0  0  2  0  0  0  0  0  0
  -28.4220  -26.6640   20.1750 O   0  0  0  0  0  0  0  0  0  0  0  0
  -24.6130  -31.8910   23.2420 C   0  0  0  0  0  0  0  0  0  0  0  0
  -27.2450  -27.4010   20.1550 C   0  0  0  0  0  0  0  0  0  0  0  0
  -23.4130  -30.4890   21.5980 C   0  0  0  0  0  3  0  0  0  0  0  0
  -24.8650  -28.9590   20.1690 C   0  0  0  0  0  0  0  0  0  0  0  0
  -25.9510  -30.8240   21.4290 C   0  0  0  0  0  2  0  0  0  0  0  0
  -26.0280  -29.4600   20.7660 C   0  0  0  0  0  0  0  0  0  0  0  0
  -27.2190  -28.6910   20.7480 C   0  0  0  0  0  3  0  0  0  0  0  0
  -26.0570  -26.9350   19.5430 C   0  0  0  0  0  3  0  0  0  0  0  0
  -24.8790  -27.6990   19.5550 C   0  0  0  0  0  3  0  0  0  0  0  0
  -23.6270  -29.8210   20.2170 C   0  0  0  0  0  2  0  0  0  0  0  0
  -24.6750  -31.0890   22.1420 N   0  0  0  0  0  0  0  0  0  0  0  0
  -23.5290  -32.1640   23.7760 O   0  0  0  0  0  0  0  0  0  0  0  0
  -22.7660  -29.4610   22.5540 C   0  0  0  0  0  0  0  0  0  0  0  0
  -21.4420  -29.2780   22.4280 N   0  0  0  0  0  0  0  0  0  0  0  0
  -23.4510  -28.8320   23.3650 O   0  0  0  0  0  0  0  0  0  0  0  0
  -20.9540  -29.8290   21.7370 H   0  0  0  0  0  0  0  0  0  0  0  0
  -18.0640  -28.0910   22.9350 C   0  0  0  0  0  0  0  0  0  0  0  0
  -20.6240  -28.3380   23.1970 C   0  0  0  0  0  3  0  0  0  0  0  0
  -20.7190  -26.9100   22.6120 C   0  0  0  0  0  2  0  0  0  0  0  0
  -19.6110  -26.5980   21.6000 C   0  0  0  0  0  2  0  0  0  0  0  0
  -18.2310  -26.7470   22.2450 C   0  0  0  0  0  2  0  0  0  0  0  0
  -19.1890  -28.8440   23.3650 C   0  0  0  0  0  0  0  0  0  0  0  0
  -18.9780  -30.1040   23.9660 C   0  0  0  0  0  3  0  0  0  0  0  0
  -17.6770  -30.6110   24.1440 C   0  0  0  0  0  3  0  0  0  0  0  0
  -16.5670  -29.8530   23.7330 C   0  0  0  0  0  3  0  0  0  0  0  0
  -16.7620  -28.5940   23.1350 C   0  0  0  0  0  3  0  0  0  0  0  0
  -25.8970  -32.5220   23.8630 C   0  0  0  0  0  3  0  0  0  0  0  0
  -26.4090  -31.7570   25.1440 C   0  0  1  0  0  0  0  0  0  0  0  0
  -25.3070  -31.5310   26.2060 C   0  0  0  0  0  1  0  0  0  0  0  0
  -26.9930  -30.3740   24.7700 C   0  0  0  0  0  1  0  0  0  0  0  0
  -27.5610  -32.5550   25.8030 C   0  0  0  0  0  1  0  0  0  0  0  0
  -25.5880  -33.9210   24.1860 N   0  0  0  0  0  0  0  0  0  0  0  0
  -25.9160  -34.9700   23.4230 C   0  0  0  0  0  0  0  0  0  0  0  0
  -26.5840  -34.8650   22.3900 O   0  0  0  0  0  0  0  0  0  0  0  0
  -25.0010  -34.0770   24.9910 H   0  0  0  0  0  0  0  0  0  0  0  0
  -24.1850  -36.7560   23.0600 C   0  0  0  0  0  1  0  0  0  0  0  0
  -25.4260  -36.3580   23.8750 C   0  0  0  0  0  3  0  0  0  0  0  0
  -27.5570  -37.2480   24.7090 C   0  0  0  0  0  1  0  0  0  0  0  0
  -26.4550  -37.4130   23.7640 N   0  0  0  0  0  0  0  0  0  0  0  0
  -26.0490  -38.3340   23.9040 H   0  0  0  0  0  0  0  0  0  0  0  0
  2  1  2  0
  2 48  1  0
  3  6  1  0
  5  8  2  0
  6  4  2  0
  6  1  1  0
  7  5  1  0
  7  3  2  0
  8 18  1  0
  8  4  1  0
  9  7  1  0
 10 18  1  0
 11 16  1  0
 12 13  1  0
 12 11  1  0
 14 13  1  0
 14 23  1  0
 14 15  1  0
 16 10  1  0
 16 15  1  0
 17 10  2  0
 18 19  1  0
 20 21  2  0
 21 40  1  0
 22 21  1  0
 22 25  1  0
 23 20  1  0
 23 24  1  0
 24 22  2  0
 25 26  1  0
 26 27  2  0
 28 31  1  0
 28 27  1  0
 29 28  2  0
 30 29  1  0
 30 25  2  0
 31 32  1  0
 32 33  1  0
 33 34  2  0
 35 34  1  0
 35 39  1  0
 36 35  2  0
 37 32  2  0
 37 36  1  0
 38 37  1  0
 40 41  1  0
 41 44  1  0
 41 43  1  0
 42 40  2  0
 45 46  1  0
 45 20  1  0
 47 45  1  0
 48 49  2  0
 50 48  1  0
 51 52  1  0
 51 50  1  0
 53 64  2  0
 54 52  1  0
 54 59  1  0
 55 63  1  0
 55 65  1  0
 56 62  1  0
 56 58  1  0
 57 63  1  0
 58 57  1  0
 59 58  2  0
 60 61  1  0
 60 54  2  0
 61 56  2  0
 62 55  1  0
 63 53  1  0
 65 67  2  0
 66 65  1  0
 68 66  1  0
 69 78  2  0
 69 74  1  0
 70 66  1  0
 70 74  1  0
 71 70  1  0
 72 73  1  0
 72 71  1  0
 73 69  1  0
 74 75  2  0
 75 76  1  0
 77 76  2  0
 78 77  1  0
 79 53  1  0
 79 84  1  0
 79 80  1  0
 80 83  1  1
 80 81  1  0
 82 80  1  0
 84 87  1  0
 85 89  1  0
 85 84  1  0
 86 85  2  0
 89 88  1  0
 91 89  1  0
 91 92  1  0
 91 90  1  0
M  ISO  4  10 100  18 100  51 101  52 101
M  END
>  <TORSDO>  (69) 
F 20

>  <SCORE>  (69) 
-14.058

>  <name>  (69) 
68

>  <ligand_id>  (69) 
68

>  <original_smiles>  (69) 
[H]C(C(=O)C([H])([H])C([H])([H])Oc1c([H])c([H])c2c(c1[H])C([H])([H])N(C(=O)C([H])(N([H])C(=O)C([H])(N([H])C([H])([H])[H])C([H])([H])[H])C(C([H])([H])[H])(C([H])([H])[H])C([H])([H])[H])C([H])(C(=O)N([H])C1([H])c3c([H])c([H])c([H])c([H])c3C([H])([H])C([H])([H])C1([H])[H])C2([H])[H])=C([H])c1c([H])c(N([H])C(=O)N2C([H])([H])C([H])([H])C([H])([H])C([H])(n3nc(-c4c([H])c([H])c(Oc5c([H])c([H])c(F)c([H])c5F)c([H])c4[H])c(C(=O)N([H])[H])c3N([H])[H])C2([H])[H])c([H])c(C([H])([H])[H])c1[H]

>  <smiles>  (69) 
[H]C(C(=O)C([H])([H])C([H])([H])Oc1c([H])c([H])c2c(c1[H])C([H])([H])N(C(=O)C([H])(N([H])C(=O)C([H])(N([H])C([H])([H])[H])C([H])([H])[H])C(C([H])([H])[H])(C([H])([H])[H])C([H])([H])[H])C([H])(C(=O)N([H])C1([H])c3c([H])c([H])c([H])c([H])c3C([H])([H])C([H])([H])C1([H])[H])C2([H])[H])=C([H])c1c([H])c(N([H])C(=O)N2C([H])([H])C([H])([H])C([H])([H])C([H])(n3nc(-c4c([H])c([H])c(Oc5c([H])c([H])c(F)c([H])c5F)c([H])c4[H])c(C(=O)N([H])[H])c3N([H])[H])C2([H])[H])c([H])c(C([H])([H])[H])c1[H]

$$$$
69:0:0
     RDKit          3D

 93101  0  0  1  0  0  0  0  0999 V2000
  -30.1360  -18.0430   21.6730 C   0  0  0  0  0  3  0  0  0  0  0  0
  -29.8660  -19.3690   21.2780 C   0  0  0  0  0  3  0  0  0  0  0  0
  -29.7710  -17.2910   19.4030 C   0  0  0  0  0  3  0  0  0  0  0  0
  -30.1040  -16.9780   20.7440 C   0  0  0  0  0  0  0  0  0  0  0  0
  -29.5150  -18.6210   18.9850 C   0  0  0  0  0  0  0  0  0  0  0  0
  -29.5600  -19.6780   19.9300 C   0  0  0  0  0  0  0  0  0  0  0  0
  -30.3640  -15.5700   21.2010 C   0  0  0  0  0  0  0  0  0  0  0  0
  -30.2330  -15.2340   22.4180 N   0  0  0  0  0  0  0  0  0  0  0  0
  -29.9120  -16.0150   22.9770 H   0  0  0  0  0  0  0  0  0  0  0  0
  -30.8580  -14.5930   20.1330 C   0  0  0  0  0  0  0  0  0  0  0  0
  -30.4290  -12.5600   18.8010 C   0  0  0  0  0  2  0  0  0  0  0  0
  -29.4310  -12.8710   17.6660 C   0  0  0  0  0  2  0  0  0  0  0  0
  -27.9770  -12.7200   18.1560 C   0  0  0  0  0  2  0  0  0  0  0  0
  -27.7220  -13.4660   19.4910 C   0  0  0  0  0  3  0  0  0  0  0  0
  -28.8180  -13.1210   20.5200 C   0  0  0  0  0  2  0  0  0  0  0  0
  -30.1310  -13.4550   19.9330 N   0  0  0  0  0  0  0  0  0  0  0  0
  -31.8710  -14.8700   19.4790 O   0  0  0  0  0  0  0  0  0  0  0  0
  -25.3510  -14.0660   20.2940 C   0  0  0  0  0  0  0  0  0  0  0  0
  -24.3020  -13.2890   20.7030 C   0  0  0  0  0  0  0  0  0  0  0  0
  -24.7650  -11.9390   20.6470 C   0  0  0  0  0  0  0  0  0  0  0  0
  -26.3890  -13.1890   20.0160 N   0  0  0  0  0  0  0  0  0  0  0  0
  -26.0410  -11.9040   20.2830 N   0  0  0  0  0  0  0  0  0  0  0  0
  -24.0530  -10.6730   20.8620 C   0  0  0  0  0  0  0  0  0  0  0  0
  -24.4930   -9.7310   21.8180 C   0  0  0  0  0  3  0  0  0  0  0  0
  -23.7800   -8.5280   22.0180 C   0  0  0  0  0  3  0  0  0  0  0  0
  -22.6150   -8.2600   21.2620 C   0  0  0  0  0  0  0  0  0  0  0  0
  -22.1950   -9.1910   20.2950 C   0  0  0  0  0  3  0  0  0  0  0  0
  -22.9070  -10.3840   20.0940 C   0  0  0  0  0  3  0  0  0  0  0  0
  -21.8750   -7.1070   21.3700 O   0  0  0  0  0  0  0  0  0  0  0  0
  -21.7780   -6.4220   22.5540 C   0  0  0  0  0  0  0  0  0  0  0  0
  -21.2880   -7.0310   23.7300 C   0  0  0  0  0  3  0  0  0  0  0  0
  -21.1390   -6.2700   24.9080 C   0  0  0  0  0  3  0  0  0  0  0  0
  -21.4720   -4.9020   24.9100 C   0  0  0  0  0  0  0  0  0  0  0  0
  -21.9570   -4.2930   23.7380 C   0  0  0  0  0  3  0  0  0  0  0  0
  -22.1060   -5.0510   22.5630 C   0  0  0  0  0  0  0  0  0  0  0  0
  -22.5530   -4.4540   21.4320 F   0  0  0  0  0  0  0  0  0  0  0  0
  -21.3240   -4.1700   26.0390 F   0  0  0  0  0  0  0  0  0  0  0  0
  -22.9150  -13.7590   21.0370 C   0  0  0  0  0  0  0  0  0  0  0  0
  -22.2310  -13.0590   21.9360 N   0  0  0  0  0  0  0  0  0  0  0  0
  -22.4480  -14.7800   20.5350 O   0  0  0  0  0  0  0  0  0  0  0  0
  -22.6220  -12.2330   22.3630 H   0  0  0  0  0  0  0  0  0  0  0  0
  -21.3020  -13.3560   22.2020 H   0  0  0  0  0  0  0  0  0  0  0  0
  -25.5030  -15.4390   20.1170 N   0  0  0  0  0  0  0  0  0  0  0  0
  -24.7380  -16.0890   20.2650 H   0  0  0  0  0  0  0  0  0  0  0  0
  -26.3420  -15.8890   19.7750 H   0  0  0  0  0  0  0  0  0  0  0  0
  -28.7650  -18.0250   16.6520 C   0  0  0  0  0  2  0  0  0  0  0  0
  -29.1500  -18.9150   17.5830 C   0  0  0  0  0  3  0  0  0  0  0  0
  -29.3060  -20.9600   19.4790 O   0  0  0  0  0  0  0  0  0  0  0  0
  -29.2770  -22.0460   20.4030 C   0  0  0  0  0  2  0  0  0  0  0  0
  -29.1920  -23.3610   19.6070 C   0  0  0  0  0  2  0  0  0  0  0  0
  -28.9940  -24.6140   20.4850 C   0  0  0  0  0  2  0  0  0  0  0  0
  -29.2400  -25.9280   19.7170 C   0  0  0  0  0  2  0  0  0  0  0  0
  -28.9470  -27.0670   20.5270 O   0  0  0  0  0  0  0  0  0  0  0  0
  -24.7180  -31.9940   23.4100 C   0  0  0  0  0  0  0  0  0  0  0  0
  -27.7070  -27.6720   20.4720 C   0  0  0  0  0  0  0  0  0  0  0  0
  -23.6550  -30.5390   21.7160 C   0  0  0  0  0  3  0  0  0  0  0  0
  -25.2390  -29.0580   20.3760 C   0  0  0  0  0  0  0  0  0  0  0  0
  -26.1680  -31.0050   21.6410 C   0  0  0  0  0  2  0  0  0  0  0  0
  -26.3410  -29.6360   21.0150 C   0  0  0  0  0  0  0  0  0  0  0  0
  -27.5720  -28.9480   21.0640 C   0  0  0  0  0  3  0  0  0  0  0  0
  -26.5730  -27.0910   19.8540 C   0  0  0  0  0  3  0  0  0  0  0  0
  -25.3480  -27.7810   19.8000 C   0  0  0  0  0  3  0  0  0  0  0  0
  -23.9600  -29.8640   20.3520 C   0  0  0  0  0  2  0  0  0  0  0  0
  -24.8620  -31.1950   22.3150 N   0  0  0  0  0  0  0  0  0  0  0  0
  -23.6010  -32.2220   23.8950 O   0  0  0  0  0  0  0  0  0  0  0  0
  -23.0010  -29.4930   22.6470 C   0  0  0  0  0  0  0  0  0  0  0  0
  -21.6970  -29.2440   22.4420 N   0  0  0  0  0  0  0  0  0  0  0  0
  -23.6650  -28.9090   23.5070 O   0  0  0  0  0  0  0  0  0  0  0  0
  -21.2220  -29.7720   21.7240 H   0  0  0  0  0  0  0  0  0  0  0  0
  -18.3630  -27.8890   22.7490 C   0  0  0  0  0  0  0  0  0  0  0  0
  -20.8830  -28.2730   23.1730 C   0  0  0  0  0  3  0  0  0  0  0  0
  -21.0910  -26.8460   22.6180 C   0  0  0  0  0  2  0  0  0  0  0  0
  -20.0700  -26.4620   21.5430 C   0  0  0  0  0  2  0  0  0  0  0  0
  -18.6460  -26.5430   22.1010 C   0  0  0  0  0  2  0  0  0  0  0  0
  -19.4140  -28.7080   23.2380 C   0  0  0  0  0  0  0  0  0  0  0  0
  -19.0990  -29.9640   23.7990 C   0  0  0  0  0  3  0  0  0  0  0  0
  -17.7650  -30.4030   23.8800 C   0  0  0  0  0  3  0  0  0  0  0  0
  -16.7260  -29.5820   23.4080 C   0  0  0  0  0  3  0  0  0  0  0  0
  -17.0260  -28.3270   22.8480 C   0  0  0  0  0  3  0  0  0  0  0  0
  -25.9450  -32.6790   24.0900 C   0  0  0  0  0  3  0  0  0  0  0  0
  -25.5830  -34.0780   24.3470 N   0  0  0  0  0  0  0  0  0  0  0  0
  -25.9350  -35.1100   23.5670 C   0  0  0  0  0  0  0  0  0  0  0  0
  -26.6680  -34.9850   22.5830 O   0  0  0  0  0  0  0  0  0  0  0  0
  -24.9360  -34.2470   25.1030 H   0  0  0  0  0  0  0  0  0  0  0  0
  -24.1810  -36.8350   23.0450 C   0  0  0  0  0  1  0  0  0  0  0  0
  -25.3850  -36.5000   23.9400 C   0  0  0  0  0  3  0  0  0  0  0  0
  -27.4450  -37.4780   24.8500 C   0  0  0  0  0  1  0  0  0  0  0  0
  -26.3940  -37.5770   23.8410 N   0  0  0  0  0  0  0  0  0  0  0  0
  -25.9560  -38.4900   23.9280 H   0  0  0  0  0  0  0  0  0  0  0  0
  -26.3980  -31.9640   25.4220 C   0  0  1  0  0  0  0  0  0  0  0  0
  -25.2380  -31.7000   26.4100 C   0  0  0  0  0  1  0  0  0  0  0  0
  -27.0710  -30.6070   25.1120 C   0  0  0  0  0  1  0  0  0  0  0  0
  -27.4570  -32.8270   26.1470 C   0  0  0  0  0  1  0  0  0  0  0  0
  2  1  1  0
  3  4  1  0
  4  7  1  0
  4  1  2  0
  5  3  2  0
  5  6  1  0
  6  2  2  0
  7  8  2  0
  8  9  1  0
 10  7  1  0
 11 16  1  0
 12 13  1  0
 12 11  1  0
 14 13  1  0
 14 21  1  0
 14 15  1  0
 16 10  1  0
 16 15  1  0
 17 10  2  0
 18 19  2  0
 19 38  1  0
 20 19  1  0
 20 23  1  0
 21 22  1  0
 21 18  1  0
 22 20  2  0
 23 24  1  0
 24 25  2  0
 26 29  1  0
 26 25  1  0
 27 26  2  0
 28 27  1  0
 28 23  2  0
 29 30  1  0
 30 35  2  0
 30 31  1  0
 31 32  2  0
 32 33  1  0
 33 37  1  0
 34 33  2  0
 35 34  1  0
 36 35  1  0
 38 39  1  0
 39 42  1  0
 39 41  1  0
 40 38  2  0
 43 44  1  0
 43 18  1  0
 45 43  1  0
 46 47  2  0
 47  5  1  0
 48  6  1  0
 48 49  1  0
 50 49  1  0
 50 51  1  0
 52 51  1  0
 52 53  1  0
 54 65  2  0
 55 53  1  0
 55 60  1  0
 56 64  1  0
 56 66  1  0
 57 59  1  0
 58 64  1  0
 59 60  2  0
 59 58  1  0
 61 55  2  0
 62 61  1  0
 62 57  2  0
 63 57  1  0
 63 56  1  0
 64 54  1  0
 66 68  2  0
 67 66  1  0
 69 67  1  0
 70 79  2  0
 70 75  1  0
 71 67  1  0
 71 75  1  0
 72 71  1  0
 73 74  1  0
 73 72  1  0
 74 70  1  0
 75 76  2  0
 76 77  1  0
 78 77  2  0
 79 78  1  0
 80 54  1  0
 80 81  1  0
 80 90  1  0
 81 84  1  0
 82 86  1  0
 82 81  1  0
 83 82  2  0
 86 85  1  0
 88 89  1  0
 88 86  1  0
 88 87  1  0
 90 93  1  1
 90 91  1  0
 92 90  1  0
M  ISO  4   7 100  10 100  52 101  53 101
M  END
>  <TORSDO>  (70) 
F 23

>  <SCORE>  (70) 
-11.227

>  <name>  (70) 
69

>  <ligand_id>  (70) 
69

>  <original_smiles>  (70) 
[H]N=C(C(=O)N1C([H])([H])C([H])([H])C([H])([H])C([H])(n2nc(-c3c([H])c([H])c(Oc4c([H])c([H])c(F)c([H])c4F)c([H])c3[H])c(C(=O)N([H])[H])c2N([H])[H])C1([H])[H])c1c([H])c([H])c(OC([H])([H])C([H])([H])C([H])([H])C([H])([H])Oc2c([H])c([H])c3c(c2[H])C([H])([H])N(C(=O)C([H])(N([H])C(=O)C([H])(N([H])C([H])([H])[H])C([H])([H])[H])C(C([H])([H])[H])(C([H])([H])[H])C([H])([H])[H])C([H])(C(=O)N([H])C2([H])c4c([H])c([H])c([H])c([H])c4C([H])([H])C([H])([H])C2([H])[H])C3([H])[H])c(C([H])=C([H])[H])c1[H]

>  <smiles>  (70) 
[H]N=C(C(=O)N1C([H])([H])C([H])([H])C([H])([H])C([H])(n2nc(-c3c([H])c([H])c(Oc4c([H])c([H])c(F)c([H])c4F)c([H])c3[H])c(C(=O)N([H])[H])c2N([H])[H])C1([H])[H])c1c([H])c([H])c(OC([H])([H])C([H])([H])C([H])([H])C([H])([H])Oc2c([H])c([H])c3c(c2[H])C([H])([H])N(C(=O)C([H])(N([H])C(=O)C([H])(N([H])C([H])([H])[H])C([H])([H])[H])C(C([H])([H])[H])(C([H])([H])[H])C([H])([H])[H])C([H])(C(=O)N([H])C2([H])c4c([H])c([H])c([H])c([H])c4C([H])([H])C([H])([H])C2([H])[H])C3([H])[H])c(C([H])=C([H])[H])c1[H]

$$$$
70:0:0
     RDKit          3D

 91 99  0  0  1  0  0  0  0  0999 V2000
  -28.6980  -20.2860   20.8290 O   0  0  0  0  0  0  0  0  0  0  0  0
  -29.3340  -17.9090   21.1360 C   0  0  0  0  0  3  0  0  0  0  0  0
  -29.2110  -19.1130   20.3510 C   0  0  0  0  0  0  0  0  0  0  0  0
  -29.5620  -18.8800   19.0370 C   0  0  0  0  0  0  0  0  0  0  0  0
  -29.8260  -16.8050   20.4620 C   0  0  0  0  0  0  0  0  0  0  0  0
  -30.1810  -17.2630   18.8090 S   0  0  0  0  0  0  0  0  0  0  0  0
  -30.6450  -14.5150   20.3580 C   0  0  0  0  0  0  0  0  0  0  0  0
  -30.3580  -12.3610   19.1950 C   0  0  0  0  0  2  0  0  0  0  0  0
  -29.4140  -12.5940   17.9960 C   0  0  0  0  0  2  0  0  0  0  0  0
  -27.9390  -12.4700   18.4260 C   0  0  0  0  0  2  0  0  0  0  0  0
  -27.6160  -13.2720   19.7160 C   0  0  0  0  0  3  0  0  0  0  0  0
  -28.6740  -13.0080   20.8110 C   0  0  0  0  0  2  0  0  0  0  0  0
  -29.9970  -13.3220   20.2490 N   0  0  0  0  0  0  0  0  0  0  0  0
  -31.7680  -14.7100   19.8770 O   0  0  0  0  0  0  0  0  0  0  0  0
  -29.9380  -15.5180   20.9260 N   0  0  0  0  0  0  0  0  0  0  0  0
  -29.1830  -15.2100   21.5230 H   0  0  0  0  0  0  0  0  0  0  0  0
  -25.2200  -13.8800   20.4250 C   0  0  0  0  0  0  0  0  0  0  0  0
  -24.1520  -13.1120   20.8020 C   0  0  0  0  0  0  0  0  0  0  0  0
  -24.6130  -11.7630   20.7800 C   0  0  0  0  0  0  0  0  0  0  0  0
  -26.2640  -12.9980   20.1980 N   0  0  0  0  0  0  0  0  0  0  0  0
  -25.9020  -11.7170   20.4680 N   0  0  0  0  0  0  0  0  0  0  0  0
  -23.8880  -10.5020   20.9800 C   0  0  0  0  0  0  0  0  0  0  0  0
  -24.3230   -9.5450   21.9220 C   0  0  0  0  0  3  0  0  0  0  0  0
  -23.5990   -8.3470   22.1120 C   0  0  0  0  0  3  0  0  0  0  0  0
  -22.4290   -8.0990   21.3550 C   0  0  0  0  0  0  0  0  0  0  0  0
  -22.0130   -9.0470   20.4030 C   0  0  0  0  0  3  0  0  0  0  0  0
  -22.7360  -10.2380   20.2140 C   0  0  0  0  0  3  0  0  0  0  0  0
  -21.6770   -6.9520   21.4480 O   0  0  0  0  0  0  0  0  0  0  0  0
  -21.6150   -6.2240   22.6090 C   0  0  0  0  0  0  0  0  0  0  0  0
  -21.1750   -6.7940   23.8240 C   0  0  0  0  0  3  0  0  0  0  0  0
  -21.0630   -5.9930   24.9770 C   0  0  0  0  0  3  0  0  0  0  0  0
  -21.3780   -4.6210   24.9170 C   0  0  0  0  0  0  0  0  0  0  0  0
  -21.8110   -4.0520   23.7070 C   0  0  0  0  0  3  0  0  0  0  0  0
  -21.9270   -4.8500   22.5570 C   0  0  0  0  0  0  0  0  0  0  0  0
  -22.3200   -4.2900   21.3880 F   0  0  0  0  0  0  0  0  0  0  0  0
  -21.2640   -3.8490   26.0220 F   0  0  0  0  0  0  0  0  0  0  0  0
  -22.7550  -13.5950   21.0760 C   0  0  0  0  0  0  0  0  0  0  0  0
  -22.0280  -12.9080   21.9510 N   0  0  0  0  0  0  0  0  0  0  0  0
  -22.3180  -14.6170   20.5520 O   0  0  0  0  0  0  0  0  0  0  0  0
  -22.3900  -12.0790   22.4000 H   0  0  0  0  0  0  0  0  0  0  0  0
  -21.0920  -13.2170   22.1730 H   0  0  0  0  0  0  0  0  0  0  0  0
  -25.3880  -15.2480   20.2410 N   0  0  0  0  0  0  0  0  0  0  0  0
  -24.6250  -15.9060   20.3680 H   0  0  0  0  0  0  0  0  0  0  0  0
  -26.2470  -15.6880   19.9370 H   0  0  0  0  0  0  0  0  0  0  0  0
  -28.4530  -20.6480   17.6570 C   0  0  0  0  0  2  0  0  0  0  0  0
  -29.3670  -19.6870   17.8690 C   0  0  0  0  0  3  0  0  0  0  0  0
  -29.4670  -21.4990   20.6770 C   0  0  0  0  0  2  0  0  0  0  0  0
  -28.5080  -22.7180   20.7580 C   0  0  0  0  0  2  0  0  0  0  0  0
  -29.1110  -24.1490   20.5820 C   0  0  0  0  0  2  0  0  0  0  0  0
  -28.0100  -25.1700   20.1970 C   0  0  0  0  0  2  0  0  0  0  0  0
  -28.3160  -26.5910   20.2290 O   0  0  0  0  0  0  0  0  0  0  0  0
  -24.6040  -31.9080   23.2570 C   0  0  0  0  0  0  0  0  0  0  0  0
  -27.1950  -27.4140   20.1690 C   0  0  0  0  0  0  0  0  0  0  0  0
  -23.3910  -30.5210   21.6150 C   0  0  0  0  0  3  0  0  0  0  0  0
  -24.8290  -28.9900   20.1780 C   0  0  0  0  0  0  0  0  0  0  0  0
  -25.9280  -30.8500   21.4250 C   0  0  0  0  0  2  0  0  0  0  0  0
  -25.9990  -29.4830   20.7710 C   0  0  0  0  0  0  0  0  0  0  0  0
  -27.1870  -28.7040   20.7620 C   0  0  0  0  0  3  0  0  0  0  0  0
  -26.0020  -26.9670   19.5480 C   0  0  0  0  0  3  0  0  0  0  0  0
  -24.8280  -27.7320   19.5640 C   0  0  0  0  0  3  0  0  0  0  0  0
  -23.5960  -29.8610   20.2290 C   0  0  0  0  0  2  0  0  0  0  0  0
  -24.6600  -31.1050   22.1560 N   0  0  0  0  0  0  0  0  0  0  0  0
  -23.5230  -32.1850   23.7950 O   0  0  0  0  0  0  0  0  0  0  0  0
  -22.7330  -29.4940   22.5660 C   0  0  0  0  0  0  0  0  0  0  0  0
  -21.4080  -29.3170   22.4370 N   0  0  0  0  0  0  0  0  0  0  0  0
  -23.4130  -28.8630   23.3800 O   0  0  0  0  0  0  0  0  0  0  0  0
  -20.9200  -29.8790   21.7550 H   0  0  0  0  0  0  0  0  0  0  0  0
  -18.0280  -28.1350   22.9340 C   0  0  0  0  0  0  0  0  0  0  0  0
  -20.5860  -28.3820   23.2070 C   0  0  0  0  0  3  0  0  0  0  0  0
  -20.6830  -26.9500   22.6330 C   0  0  0  0  0  2  0  0  0  0  0  0
  -19.5810  -26.6320   21.6180 C   0  0  0  0  0  2  0  0  0  0  0  0
  -18.1990  -26.7840   22.2600 C   0  0  0  0  0  2  0  0  0  0  0  0
  -19.1500  -28.8930   23.3650 C   0  0  0  0  0  0  0  0  0  0  0  0
  -18.9370  -30.1570   23.9560 C   0  0  0  0  0  3  0  0  0  0  0  0
  -17.6350  -30.6650   24.1190 C   0  0  0  0  0  3  0  0  0  0  0  0
  -16.5280  -29.9060   23.7040 C   0  0  0  0  0  3  0  0  0  0  0  0
  -16.7250  -28.6430   23.1190 C   0  0  0  0  0  3  0  0  0  0  0  0
  -25.8930  -32.5320   23.8730 C   0  0  0  0  0  3  0  0  0  0  0  0
  -25.5900  -33.9300   24.2050 N   0  0  0  0  0  0  0  0  0  0  0  0
  -25.9150  -34.9800   23.4390 C   0  0  0  0  0  0  0  0  0  0  0  0
  -26.5740  -34.8750   22.4020 O   0  0  0  0  0  0  0  0  0  0  0  0
  -25.0050  -34.0860   25.0130 H   0  0  0  0  0  0  0  0  0  0  0  0
  -24.1830  -36.7720   23.0980 C   0  0  0  0  0  1  0  0  0  0  0  0
  -25.4330  -36.3700   23.8990 C   0  0  0  0  0  3  0  0  0  0  0  0
  -27.5770  -37.2540   24.7040 C   0  0  0  0  0  1  0  0  0  0  0  0
  -26.4640  -37.4220   23.7730 N   0  0  0  0  0  0  0  0  0  0  0  0
  -26.0610  -38.3410   23.9260 H   0  0  0  0  0  0  0  0  0  0  0  0
  -26.4100  -31.7560   25.1460 C   0  0  1  0  0  0  0  0  0  0  0  0
  -25.3190  -31.5240   26.2160 C   0  0  0  0  0  1  0  0  0  0  0  0
  -26.9860  -30.3760   24.7520 C   0  0  0  0  0  1  0  0  0  0  0  0
  -27.5650  -32.5440   25.8060 C   0  0  0  0  0  1  0  0  0  0  0  0
  3  1  1  0
  3  2  1  0
  4  3  2  0
  5 15  1  0
  5  2  2  0
  6  4  1  0
  6  5  1  0
  7 15  1  0
  8 13  1  0
  9 10  1  0
  9  8  1  0
 11 10  1  0
 11 20  1  0
 11 12  1  0
 13  7  1  0
 13 12  1  0
 14  7  2  0
 15 16  1  0
 17 18  2  0
 18 37  1  0
 19 18  1  0
 19 22  1  0
 20 17  1  0
 20 21  1  0
 21 19  2  0
 22 23  1  0
 23 24  2  0
 25 28  1  0
 25 24  1  0
 26 25  2  0
 27 26  1  0
 27 22  2  0
 28 29  1  0
 29 30  1  0
 30 31  2  0
 32 31  1  0
 32 36  1  0
 33 32  2  0
 34 29  2  0
 34 33  1  0
 35 34  1  0
 37 38  1  0
 38 41  1  0
 38 40  1  0
 39 37  2  0
 42 43  1  0
 42 17  1  0
 44 42  1  0
 45 46  2  0
 46  4  1  0
 47 48  1  0
 47  1  1  0
 49 48  1  0
 50 51  1  0
 50 49  1  0
 52 63  2  0
 53 51  1  0
 53 58  1  0
 54 62  1  0
 54 64  1  0
 55 61  1  0
 55 57  1  0
 56 62  1  0
 57 56  1  0
 58 57  2  0
 59 60  1  0
 59 53  2  0
 60 55  2  0
 61 54  1  0
 62 52  1  0
 64 66  2  0
 65 64  1  0
 67 65  1  0
 68 77  2  0
 68 73  1  0
 69 65  1  0
 69 73  1  0
 70 69  1  0
 71 72  1  0
 71 70  1  0
 72 68  1  0
 73 74  2  0
 74 75  1  0
 76 75  2  0
 77 76  1  0
 78 52  1  0
 78 79  1  0
 78 88  1  0
 79 82  1  0
 80 84  1  0
 80 79  1  0
 81 80  2  0
 84 83  1  0
 86 84  1  0
 86 87  1  0
 86 85  1  0
 88 91  1  1
 88 89  1  0
 90 88  1  0
M  ISO  4   7 100  15 100  50 101  51 101
M  END
>  <TORSDO>  (71) 
F 22

>  <SCORE>  (71) 
-13.211

>  <name>  (71) 
70

>  <ligand_id>  (71) 
70

>  <original_smiles>  (71) 
[H]C([H])=C([H])c1sc(N([H])C(=O)N2C([H])([H])C([H])([H])C([H])([H])C([H])(n3nc(-c4c([H])c([H])c(Oc5c([H])c([H])c(F)c([H])c5F)c([H])c4[H])c(C(=O)N([H])[H])c3N([H])[H])C2([H])[H])c([H])c1OC([H])([H])C([H])([H])C([H])([H])C([H])([H])Oc1c([H])c([H])c2c(c1[H])C([H])([H])N(C(=O)C([H])(N([H])C(=O)C([H])(N([H])C([H])([H])[H])C([H])([H])[H])C(C([H])([H])[H])(C([H])([H])[H])C([H])([H])[H])C([H])(C(=O)N([H])C1([H])c3c([H])c([H])c([H])c([H])c3C([H])([H])C([H])([H])C1([H])[H])C2([H])[H]

>  <smiles>  (71) 
[H]C([H])=C([H])c1sc(N([H])C(=O)N2C([H])([H])C([H])([H])C([H])([H])C([H])(n3nc(-c4c([H])c([H])c(Oc5c([H])c([H])c(F)c([H])c5F)c([H])c4[H])c(C(=O)N([H])[H])c3N([H])[H])C2([H])[H])c([H])c1OC([H])([H])C([H])([H])C([H])([H])C([H])([H])Oc1c([H])c([H])c2c(c1[H])C([H])([H])N(C(=O)C([H])(N([H])C(=O)C([H])(N([H])C([H])([H])[H])C([H])([H])[H])C(C([H])([H])[H])(C([H])([H])[H])C([H])([H])[H])C([H])(C(=O)N([H])C1([H])c3c([H])c([H])c([H])c([H])c3C([H])([H])C([H])([H])C1([H])[H])C2([H])[H]

$$$$
71:0:0
     RDKit          3D

 94102  0  0  1  0  0  0  0  0999 V2000
  -30.7700  -18.6170   22.3330 C   0  0  0  0  0  3  0  0  0  0  0  0
  -32.5650  -17.6710   20.3920 C   0  0  0  0  0  3  0  0  0  0  0  0
  -31.6140  -19.5320   21.6770 C   0  0  0  0  0  0  0  0  0  0  0  0
  -30.8130  -17.2430   22.0400 C   0  0  0  0  0  0  0  0  0  0  0  0
  -31.7250  -16.7510   21.0760 C   0  0  0  0  0  0  0  0  0  0  0  0
  -32.4910  -19.0630   20.6630 C   0  0  0  0  0  0  0  0  0  0  0  0
  -29.8510  -16.3140   22.7650 C   0  0  0  0  0  1  0  0  0  0  0  0
  -32.0280  -14.6070   19.7750 C   0  0  0  0  0  0  0  0  0  0  0  0
  -31.4680  -12.5370   18.5330 C   0  0  0  0  0  2  0  0  0  0  0  0
  -30.4630  -12.8370   17.4040 C   0  0  0  0  0  2  0  0  0  0  0  0
  -29.0130  -12.8110   17.9280 C   0  0  0  0  0  2  0  0  0  0  0  0
  -28.8310  -13.6540   19.2170 C   0  0  0  0  0  3  0  0  0  0  0  0
  -29.9250  -13.2950   20.2470 C   0  0  0  0  0  2  0  0  0  0  0  0
  -31.2500  -13.5000   19.6240 N   0  0  0  0  0  0  0  0  0  0  0  0
  -33.0060  -14.8560   19.0650 O   0  0  0  0  0  0  0  0  0  0  0  0
  -31.6940  -15.3440   20.8470 N   0  0  0  0  0  0  0  0  0  0  0  0
  -31.0770  -14.8450   21.4670 H   0  0  0  0  0  0  0  0  0  0  0  0
  -26.5420  -14.4640   20.0820 C   0  0  0  0  0  0  0  0  0  0  0  0
  -25.4340  -13.7840   20.5100 C   0  0  0  0  0  0  0  0  0  0  0  0
  -25.7690  -12.3980   20.4390 C   0  0  0  0  0  0  0  0  0  0  0  0
  -27.4890  -13.4970   19.7750 N   0  0  0  0  0  0  0  0  0  0  0  0
  -27.0280  -12.2490   20.0450 N   0  0  0  0  0  0  0  0  0  0  0  0
  -24.9490  -11.2020   20.6660 C   0  0  0  0  0  0  0  0  0  0  0  0
  -25.2380  -10.2970   21.7120 C   0  0  0  0  0  3  0  0  0  0  0  0
  -24.4250   -9.1630   21.9230 C   0  0  0  0  0  3  0  0  0  0  0  0
  -23.3070   -8.9270   21.0890 C   0  0  0  0  0  0  0  0  0  0  0  0
  -23.0350   -9.8180   20.0360 C   0  0  0  0  0  3  0  0  0  0  0  0
  -23.8500  -10.9430   19.8240 C   0  0  0  0  0  3  0  0  0  0  0  0
  -22.4780   -7.8370   21.2020 O   0  0  0  0  0  0  0  0  0  0  0  0
  -22.1090   -7.3370   22.4250 C   0  0  0  0  0  0  0  0  0  0  0  0
  -21.4340   -8.1280   23.3800 C   0  0  0  0  0  3  0  0  0  0  0  0
  -21.0100   -7.5550   24.5950 C   0  0  0  0  0  3  0  0  0  0  0  0
  -21.2510   -6.1920   24.8550 C   0  0  0  0  0  0  0  0  0  0  0  0
  -21.9190   -5.4020   23.9030 C   0  0  0  0  0  3  0  0  0  0  0  0
  -22.3440   -5.9720   22.6900 C   0  0  0  0  0  0  0  0  0  0  0  0
  -22.9680   -5.2010   21.7670 F   0  0  0  0  0  0  0  0  0  0  0  0
  -20.8370   -5.6400   26.0190 F   0  0  0  0  0  0  0  0  0  0  0  0
  -24.1050  -14.3800   20.8790 C   0  0  0  0  0  0  0  0  0  0  0  0
  -23.3870  -13.7510   21.8040 N   0  0  0  0  0  0  0  0  0  0  0  0
  -23.7180  -15.4370   20.3830 O   0  0  0  0  0  0  0  0  0  0  0  0
  -23.7170  -12.8980   22.2290 H   0  0  0  0  0  0  0  0  0  0  0  0
  -22.4960  -14.1320   22.0910 H   0  0  0  0  0  0  0  0  0  0  0  0
  -26.8180  -15.8160   19.9100 N   0  0  0  0  0  0  0  0  0  0  0  0
  -26.1270  -16.5370   20.0890 H   0  0  0  0  0  0  0  0  0  0  0  0
  -27.6940  -16.1830   19.5590 H   0  0  0  0  0  0  0  0  0  0  0  0
  -30.4080  -21.6290   22.3210 C   0  0  0  0  0  2  0  0  0  0  0  0
  -31.5370  -20.9580   22.0360 C   0  0  0  0  0  3  0  0  0  0  0  0
  -33.2830  -19.9290   19.9330 O   0  0  0  0  0  0  0  0  0  0  0  0
  -32.5780  -20.8690   19.1080 C   0  0  0  0  0  2  0  0  0  0  0  0
  -32.9700  -22.3340   19.4220 C   0  0  0  0  0  2  0  0  0  0  0  0
  -31.8750  -23.3340   18.9950 C   0  0  0  0  0  2  0  0  0  0  0  0
  -31.9470  -24.7240   19.6650 C   0  0  0  0  0  2  0  0  0  0  0  0
  -30.6400  -25.5030   19.4430 C   0  0  0  0  0  2  0  0  0  0  0  0
  -30.5750  -26.7190   20.1940 O   0  0  0  0  0  0  0  0  0  0  0  0
  -26.0780  -30.6970   24.0280 C   0  0  0  0  0  0  0  0  0  0  0  0
  -29.3550  -27.3730   20.2240 C   0  0  0  0  0  0  0  0  0  0  0  0
  -25.1750  -29.7940   21.9120 C   0  0  0  0  0  3  0  0  0  0  0  0
  -26.8840  -28.7570   20.3330 C   0  0  0  0  0  0  0  0  0  0  0  0
  -27.6810  -30.2470   22.1730 C   0  0  0  0  0  2  0  0  0  0  0  0
  -27.9280  -29.1160   21.1950 C   0  0  0  0  0  0  0  0  0  0  0  0
  -29.1630  -28.4300   21.1420 C   0  0  0  0  0  3  0  0  0  0  0  0
  -28.2840  -27.0270   19.3620 C   0  0  0  0  0  3  0  0  0  0  0  0
  -27.0570  -27.7090   19.4180 C   0  0  0  0  0  3  0  0  0  0  0  0
  -25.5980  -29.5400   20.4410 C   0  0  0  0  0  2  0  0  0  0  0  0
  -26.3210  -30.2430   22.7660 N   0  0  0  0  0  0  0  0  0  0  0  0
  -24.9220  -30.7840   24.4650 O   0  0  0  0  0  0  0  0  0  0  0  0
  -24.4700  -28.5270   22.4480 C   0  0  0  0  0  0  0  0  0  0  0  0
  -23.1910  -28.3530   22.0760 N   0  0  0  0  0  0  0  0  0  0  0  0
  -25.0760  -27.7160   23.1530 O   0  0  0  0  0  0  0  0  0  0  0  0
  -22.7630  -29.0660   21.5030 H   0  0  0  0  0  0  0  0  0  0  0  0
  -19.8640  -26.9900   21.7260 C   0  0  0  0  0  0  0  0  0  0  0  0
  -22.3410  -27.2180   22.4310 C   0  0  0  0  0  3  0  0  0  0  0  0
  -22.6090  -26.0090   21.5050 C   0  0  0  0  0  2  0  0  0  0  0  0
  -21.6760  -25.9600   20.2900 C   0  0  0  0  0  2  0  0  0  0  0  0
  -20.2140  -25.8890   20.7400 C   0  0  0  0  0  2  0  0  0  0  0  0
  -20.8640  -27.6250   22.5090 C   0  0  0  0  0  0  0  0  0  0  0  0
  -20.4900  -28.6680   23.3840 C   0  0  0  0  0  3  0  0  0  0  0  0
  -19.1470  -29.0750   23.4870 C   0  0  0  0  0  3  0  0  0  0  0  0
  -18.1590  -28.4320   22.7210 C   0  0  0  0  0  3  0  0  0  0  0  0
  -18.5170  -27.3900   21.8480 C   0  0  0  0  0  3  0  0  0  0  0  0
  -27.2350  -31.1520   24.9710 C   0  0  0  0  0  3  0  0  0  0  0  0
  -26.8550  -32.4540   25.5370 N   0  0  0  0  0  0  0  0  0  0  0  0
  -27.3230  -33.6330   25.1100 C   0  0  0  0  0  0  0  0  0  0  0  0
  -28.1860  -33.7340   24.2330 O   0  0  0  0  0  0  0  0  0  0  0  0
  -26.1130  -32.4500   26.2210 H   0  0  0  0  0  0  0  0  0  0  0  0
  -25.6920  -35.5240   24.8210 C   0  0  0  0  0  1  0  0  0  0  0  0
  -26.7420  -34.9040   25.7570 C   0  0  0  0  0  3  0  0  0  0  0  0
  -28.6510  -35.4990   27.1810 C   0  0  0  0  0  1  0  0  0  0  0  0
  -27.7680  -35.9140   26.0950 N   0  0  0  0  0  0  0  0  0  0  0  0
  -27.3350  -36.7950   26.3570 H   0  0  0  0  0  0  0  0  0  0  0  0
  -27.5480  -30.1130   26.1160 C   0  0  1  0  0  0  0  0  0  0  0  0
  -26.2980  -29.6680   26.9120 C   0  0  0  0  0  1  0  0  0  0  0  0
  -28.2140  -28.8450   25.5320 C   0  0  0  0  0  1  0  0  0  0  0  0
  -28.5600  -30.7240   27.1140 C   0  0  0  0  0  1  0  0  0  0  0  0
  2  6  2  0
  2  5  1  0
  3 47  1  0
  3  1  2  0
  4  1  1  0
  4  7  1  0
  5  4  2  0
  6  3  1  0
  8 16  1  0
  9 14  1  0
 10 11  1  0
 10  9  1  0
 12 11  1  0
 12 21  1  0
 12 13  1  0
 14  8  1  0
 14 13  1  0
 15  8  2  0
 16  5  1  0
 16 17  1  0
 18 19  2  0
 19 38  1  0
 20 19  1  0
 20 23  1  0
 21 22  1  0
 21 18  1  0
 22 20  2  0
 23 24  1  0
 24 25  2  0
 26 29  1  0
 26 25  1  0
 27 26  2  0
 28 27  1  0
 28 23  2  0
 29 30  1  0
 30 35  2  0
 30 31  1  0
 31 32  2  0
 32 33  1  0
 33 37  1  0
 34 33  2  0
 35 34  1  0
 36 35  1  0
 38 39  1  0
 39 42  1  0
 39 41  1  0
 40 38  2  0
 43 18  1  0
 43 44  1  0
 45 43  1  0
 47 46  2  0
 48  6  1  0
 49 50  1  0
 49 48  1  0
 51 50  1  0
 51 52  1  0
 53 52  1  0
 53 54  1  0
 54 56  1  0
 55 66  2  0
 56 61  1  0
 57 67  1  0
 57 65  1  0
 58 64  1  0
 58 60  1  0
 59 65  1  0
 60 59  1  0
 61 60  2  0
 62 63  1  0
 62 56  2  0
 63 58  2  0
 64 57  1  0
 65 55  1  0
 67 69  2  0
 68 67  1  0
 70 68  1  0
 71 80  2  0
 71 76  1  0
 72 68  1  0
 72 76  1  0
 73 72  1  0
 74 75  1  0
 74 73  1  0
 75 71  1  0
 76 77  2  0
 77 78  1  0
 79 78  2  0
 80 79  1  0
 81 55  1  0
 81 82  1  0
 81 91  1  0
 82 85  1  0
 83 82  1  0
 83 87  1  0
 84 83  2  0
 87 86  1  0
 87 89  1  0
 89 90  1  0
 89 88  1  0
 91 92  1  1
 91 94  1  0
 93 91  1  0
M  ISO  4   8 100  16 100  53 101  54 101
M  END
>  <TORSDO>  (72) 
F 23

>  <SCORE>  (72) 
-6.771

>  <name>  (72) 
71

>  <ligand_id>  (72) 
71

>  <original_smiles>  (72) 
[H]C([H])=C([H])c1c([H])c(C([H])([H])[H])c(N([H])C(=O)N2C([H])([H])C([H])([H])C([H])([H])C([H])(n3nc(-c4c([H])c([H])c(Oc5c([H])c([H])c(F)c([H])c5F)c([H])c4[H])c(C(=O)N([H])[H])c3N([H])[H])C2([H])[H])c([H])c1OC([H])([H])C([H])([H])C([H])([H])C([H])([H])C([H])([H])Oc1c([H])c([H])c2c(c1[H])C([H])([H])N(C(=O)C([H])(N([H])C(=O)C([H])(N([H])C([H])([H])[H])C([H])([H])[H])C(C([H])([H])[H])(C([H])([H])[H])C([H])([H])[H])C([H])(C(=O)N([H])C1([H])c3c([H])c([H])c([H])c([H])c3C([H])([H])C([H])([H])C1([H])[H])C2([H])[H]

>  <smiles>  (72) 
[H]C([H])=C([H])c1c([H])c(C([H])([H])[H])c(N([H])C(=O)N2C([H])([H])C([H])([H])C([H])([H])C([H])(n3nc(-c4c([H])c([H])c(Oc5c([H])c([H])c(F)c([H])c5F)c([H])c4[H])c(C(=O)N([H])[H])c3N([H])[H])C2([H])[H])c([H])c1OC([H])([H])C([H])([H])C([H])([H])C([H])([H])C([H])([H])Oc1c([H])c([H])c2c(c1[H])C([H])([H])N(C(=O)C([H])(N([H])C(=O)C([H])(N([H])C([H])([H])[H])C([H])([H])[H])C(C([H])([H])[H])(C([H])([H])[H])C([H])([H])[H])C([H])(C(=O)N([H])C1([H])c3c([H])c([H])c([H])c([H])c3C([H])([H])C([H])([H])C1([H])[H])C2([H])[H]

$$$$
72:0:0
     RDKit          3D

 93 98  0  0  1  0  0  0  0  0999 V2000
  -27.1500  -22.1190   20.0470 C   0  0  0  0  0  2  0  0  0  0  0  0
  -28.0090  -24.5980   21.7460 C   0  0  0  0  0  2  0  0  0  0  0  0
  -28.6560  -21.2530   19.7950 C   0  0  0  0  0  2  0  0  0  0  0  0
  -29.7190  -22.6330   19.9740 C   0  0  0  0  0  3  0  0  0  0  0  0
  -29.6190  -24.1230   20.9920 C   0  0  0  0  0  3  0  0  0  0  0  0
  -26.6840  -23.5060   21.0880 C   0  0  0  0  0  3  0  0  0  0  0  0
  -31.1490  -22.2730   19.6300 C   0  0  0  0  0  1  0  0  0  0  0  0
  -25.3850  -23.7240   21.4040 F   0  0  0  0  0  0  0  0  0  0  0  0
  -28.8640  -18.9980   19.8470 C   0  0  0  0  0  2  0  0  0  0  0  0
  -27.6430  -18.6820   19.9210 N   0  0  0  0  0  0  0  0  0  0  0  0
  -27.0510  -19.5030   19.9290 H   0  0  0  0  0  0  0  0  0  0  0  0
  -29.8700  -16.8410   19.8560 C   0  0  0  0  0  2  0  0  0  0  0  0
  -30.2760  -14.0070   19.1910 C   0  0  0  0  0  2  0  0  0  0  0  0
  -29.5110  -13.1010   18.1280 C   0  0  0  0  0  2  0  0  0  0  0  0
  -28.2060  -12.5180   18.6740 C   0  0  0  0  0  2  0  0  0  0  0  0
  -27.5530  -13.5780   19.5700 C   0  0  0  0  0  3  0  0  0  0  0  0
  -28.5110  -14.3470   20.5600 C   0  0  0  0  0  2  0  0  0  0  0  0
  -29.4940  -15.2720   19.8220 N   0  0  0  0  0  0  0  0  0  0  0  0
  -31.1200  -16.6150   19.7450 O   0  0  0  0  0  1  0  0  0  0  0  0
  -25.2450  -14.0020   20.4730 C   0  0  0  0  0  0  0  0  0  0  0  0
  -24.2050  -13.2080   20.8570 C   0  0  0  0  0  0  0  0  0  0  0  0
  -24.6720  -11.8600   20.7560 C   0  0  0  0  0  0  0  0  0  0  0  0
  -26.2860  -13.1540   20.1600 N   0  0  0  0  0  0  0  0  0  0  0  0
  -25.9550  -11.8460   20.3790 N   0  0  0  0  0  0  0  0  0  0  0  0
  -23.9340  -10.5970   20.9400 C   0  0  0  0  0  0  0  0  0  0  0  0
  -24.3440   -9.6230   21.8780 C   0  0  0  0  0  3  0  0  0  0  0  0
  -23.5970   -8.4370   22.0580 C   0  0  0  0  0  3  0  0  0  0  0  0
  -22.4210   -8.2150   21.3030 C   0  0  0  0  0  0  0  0  0  0  0  0
  -22.0250   -9.1770   20.3580 C   0  0  0  0  0  3  0  0  0  0  0  0
  -22.7730  -10.3530   20.1760 C   0  0  0  0  0  3  0  0  0  0  0  0
  -21.6480   -7.0810   21.3910 O   0  0  0  0  0  0  0  0  0  0  0  0
  -21.5330   -6.3740   22.5620 C   0  0  0  0  0  0  0  0  0  0  0  0
  -21.0330   -6.9640   23.7430 C   0  0  0  0  0  3  0  0  0  0  0  0
  -20.8670   -6.1840   24.9050 C   0  0  0  0  0  3  0  0  0  0  0  0
  -21.1900   -4.8140   24.8860 C   0  0  0  0  0  0  0  0  0  0  0  0
  -21.6830   -4.2230   23.7100 C   0  0  0  0  0  3  0  0  0  0  0  0
  -21.8500   -5.0000   22.5500 C   0  0  0  0  0  0  0  0  0  0  0  0
  -22.3040   -4.4190   21.4130 F   0  0  0  0  0  0  0  0  0  0  0  0
  -21.0240   -4.0640   26.0010 F   0  0  0  0  0  0  0  0  0  0  0  0
  -22.8250  -13.6850   21.1970 C   0  0  0  0  0  0  0  0  0  0  0  0
  -22.1290  -12.9750   22.0750 N   0  0  0  0  0  0  0  0  0  0  0  0
  -22.3790  -14.7280   20.7210 O   0  0  0  0  0  0  0  0  0  0  0  0
  -22.5080  -12.1320   22.4820 H   0  0  0  0  0  0  0  0  0  0  0  0
  -21.2040  -13.2770   22.3460 H   0  0  0  0  0  0  0  0  0  0  0  0
  -25.3890  -15.3790   20.3270 N   0  0  0  0  0  0  0  0  0  0  0  0
  -24.6220  -16.0200   20.5010 H   0  0  0  0  0  0  0  0  0  0  0  0
  -26.2240  -15.8470   19.9970 H   0  0  0  0  0  0  0  0  0  0  0  0
  -30.7240  -24.4280   21.7130 O   0  0  0  0  0  0  0  0  0  0  0  0
  -30.5400  -23.7880   22.9780 C   0  0  0  0  0  2  0  0  0  0  0  0
  -30.0300  -21.3740   23.4720 C   0  0  0  0  0  2  0  0  0  0  0  0
  -29.6630  -22.5200   22.8740 C   0  0  0  0  0  0  0  0  0  0  0  0
  -28.3370  -22.6340   22.0050 C   0  0  0  0  0  1  0  0  0  0  0  0
  -27.9460  -24.7120   19.7840 O   0  0  0  0  0  1  0  0  0  0  0  0
  -24.6020  -31.9130   22.9860 C   0  0  0  0  0  0  0  0  0  0  0  0
  -27.1670  -26.3560   19.8310 C   0  0  0  0  0  0  0  0  0  0  0  0
  -23.4330  -30.4950   21.3640 C   0  0  0  0  0  3  0  0  0  0  0  0
  -24.8990  -28.7870   19.9000 C   0  0  0  0  0  0  0  0  0  0  0  0
  -26.0330  -30.4990   21.2530 C   0  0  0  0  0  2  0  0  0  0  0  0
  -26.1130  -29.0070   20.5600 C   0  0  0  0  0  0  0  0  0  0  0  0
  -27.1810  -27.8390   20.5030 C   0  0  0  0  0  3  0  0  0  0  0  0
  -25.9220  -26.5630   19.1020 C   0  0  0  0  0  3  0  0  0  0  0  0
  -24.8850  -27.5960   19.1430 C   0  0  0  0  0  3  0  0  0  0  0  0
  -23.6900  -29.7820   19.9910 C   0  0  0  0  0  2  0  0  0  0  0  0
  -24.7230  -31.0210   21.9190 N   0  0  0  0  0  0  0  0  0  0  0  0
  -23.5010  -32.1990   23.4980 O   0  0  0  0  0  0  0  0  0  0  0  0
  -22.7080  -29.5400   22.3560 C   0  0  0  0  0  0  0  0  0  0  0  0
  -21.3670  -29.3940   22.2790 N   0  0  0  0  0  0  0  0  0  0  0  0
  -23.3780  -28.9200   23.1850 O   0  0  0  0  0  0  0  0  0  0  0  0
  -20.8630  -29.9460   21.6000 H   0  0  0  0  0  0  0  0  0  0  0  0
  -18.0250  -28.0420   22.8660 C   0  0  0  0  0  0  0  0  0  0  0  0
  -20.5790  -28.4260   23.0640 C   0  0  0  0  0  3  0  0  0  0  0  0
  -20.7230  -27.0000   22.4820 C   0  0  0  0  0  2  0  0  0  0  0  0
  -19.6170  -26.6400   21.4860 C   0  0  0  0  0  2  0  0  0  0  0  0
  -18.2450  -26.7150   22.1610 C   0  0  0  0  0  2  0  0  0  0  0  0
  -19.1190  -28.8550   23.2740 C   0  0  0  0  0  0  0  0  0  0  0  0
  -18.8520  -30.0880   23.9060 C   0  0  0  0  0  3  0  0  0  0  0  0
  -17.5280  -30.5160   24.1250 C   0  0  0  0  0  3  0  0  0  0  0  0
  -16.4510  -29.7060   23.7240 C   0  0  0  0  0  3  0  0  0  0  0  0
  -16.7010  -28.4690   23.1030 C   0  0  0  0  0  3  0  0  0  0  0  0
  -25.8310  -32.6260   23.6320 C   0  0  0  0  0  3  0  0  0  0  0  0
  -25.4510  -34.0120   24.0120 N   0  0  0  0  0  0  0  0  0  0  0  0
  -25.7590  -35.1290   23.3360 C   0  0  0  0  0  0  0  0  0  0  0  0
  -26.4300  -35.1050   22.3040 O   0  0  0  0  0  0  0  0  0  0  0  0
  -24.8450  -34.0990   24.8150 H   0  0  0  0  0  0  0  0  0  0  0  0
  -23.9840  -36.9150   23.1220 C   0  0  0  0  0  1  0  0  0  0  0  0
  -25.2490  -36.4850   23.8820 C   0  0  0  0  0  3  0  0  0  0  0  0
  -27.3740  -37.3960   24.7240 C   0  0  0  0  0  1  0  0  0  0  0  0
  -26.2520  -37.5740   23.8070 N   0  0  0  0  0  0  0  0  0  0  0  0
  -25.8220  -38.4740   24.0020 H   0  0  0  0  0  0  0  0  0  0  0  0
  -26.3700  -31.8760   24.9150 C   0  0  1  0  0  0  0  0  0  0  0  0
  -25.2880  -31.6190   25.9920 C   0  0  0  0  0  1  0  0  0  0  0  0
  -26.9840  -30.5090   24.5520 C   0  0  0  0  0  1  0  0  0  0  0  0
  -27.5070  -32.7000   25.5650 C   0  0  0  0  0  1  0  0  0  0  0  0
  1  6  1  0
  3  4  1  0
  3  1  1  0
  4  7  1  0
  4  5  1  0
  5 48  1  0
  5  2  1  0
  6  8  1  0
  6  2  1  0
  9 10  2  0
 10 11  1  0
 13 18  1  0
 14 15  1  0
 14 13  1  0
 16 15  1  0
 16 23  1  0
 16 17  1  0
 18 12  1  0
 18 17  1  0
 19 12  1  0
 20 21  2  0
 21 40  1  0
 22 21  1  0
 22 25  1  0
 23 24  1  0
 23 20  1  0
 24 22  2  0
 25 26  1  0
 26 27  2  0
 28 31  1  0
 28 27  1  0
 29 28  2  0
 30 29  1  0
 30 25  2  0
 31 32  1  0
 32 33  1  0
 33 34  2  0
 35 34  1  0
 35 39  1  0
 36 35  2  0
 37 32  2  0
 37 36  1  0
 38 37  1  0
 40 41  1  0
 41 44  1  0
 41 43  1  0
 42 40  2  0
 45 20  1  0
 45 46  1  0
 47 45  1  0
 48 49  1  0
 51 49  1  0
 51 50  2  0
 52 51  1  0
 53 55  1  0
 54 65  2  0
 55 60  1  0
 56 64  1  0
 56 66  1  0
 57 63  1  0
 57 59  1  0
 58 64  1  0
 59 58  1  0
 60 59  2  0
 61 62  1  0
 61 55  2  0
 62 57  2  0
 63 56  1  0
 64 54  1  0
 66 68  2  0
 67 66  1  0
 69 67  1  0
 70 79  2  0
 70 75  1  0
 71 67  1  0
 71 75  1  0
 72 71  1  0
 73 74  1  0
 73 72  1  0
 74 70  1  0
 75 76  2  0
 76 77  1  0
 78 77  2  0
 79 78  1  0
 80 54  1  0
 80 81  1  0
 80 90  1  0
 81 84  1  0
 82 86  1  0
 82 81  1  0
 83 82  2  0
 86 85  1  0
 88 86  1  0
 88 89  1  0
 88 87  1  0
 90 93  1  1
 90 91  1  0
 92 90  1  0
M  ISO  4   9 100  12 100  52 101  53 101
M  END
>  <TORSDO>  (73) 
F 21

>  <SCORE>  (73) 
-14.852

>  <name>  (73) 
72

>  <ligand_id>  (73) 
72

>  <original_smiles>  (73) 
[H]N=C(C(=O)N1C([H])([H])C([H])([H])C([H])([H])C([H])(n2nc(-c3c([H])c([H])c(Oc4c([H])c([H])c(F)c([H])c4F)c([H])c3[H])c(C(=O)N([H])[H])c2N([H])[H])C1([H])[H])c1c([H])c(F)c([H])c(OC([H])([H])C(=C([H])[H])C([H])([H])Oc2c([H])c([H])c3c(c2[H])C([H])([H])N(C(=O)C([H])(N([H])C(=O)C([H])(N([H])C([H])([H])[H])C([H])([H])[H])C(C([H])([H])[H])(C([H])([H])[H])C([H])([H])[H])C([H])(C(=O)N([H])C2([H])c4c([H])c([H])c([H])c([H])c4C([H])([H])C([H])([H])C2([H])[H])C3([H])[H])c1C([H])([H])[H]

>  <smiles>  (73) 
[H]N=C(C(=O)N1C([H])([H])C([H])([H])C([H])([H])C([H])(n2nc(-c3c([H])c([H])c(Oc4c([H])c([H])c(F)c([H])c4F)c([H])c3[H])c(C(=O)N([H])[H])c2N([H])[H])C1([H])[H])c1c([H])c(F)c([H])c(OC([H])([H])C(=C([H])[H])C([H])([H])Oc2c([H])c([H])c3c(c2[H])C([H])([H])N(C(=O)C([H])(N([H])C(=O)C([H])(N([H])C([H])([H])[H])C([H])([H])[H])C(C([H])([H])[H])(C([H])([H])[H])C([H])([H])[H])C([H])(C(=O)N([H])C2([H])c4c([H])c([H])c([H])c([H])c4C([H])([H])C([H])([H])C2([H])[H])C3([H])[H])c1C([H])([H])[H]

$$$$
73:0:0
     RDKit          3D

 96104  0  0  1  0  0  0  0  0999 V2000
  -30.2850  -16.9440   22.0470 C   0  0  0  0  0  3  0  0  0  0  0  0
  -30.0240  -18.2940   22.3880 C   0  0  0  0  0  3  0  0  0  0  0  0
  -30.4200  -18.9340   20.1110 C   0  0  0  0  0  3  0  0  0  0  0  0
  -30.6790  -17.6010   19.7440 C   0  0  0  0  0  0  0  0  0  0  0  0
  -30.6560  -16.5460   20.7300 C   0  0  0  0  0  0  0  0  0  0  0  0
  -30.0980  -19.3160   21.4230 C   0  0  0  0  0  0  0  0  0  0  0  0
  -31.4790  -14.3150   21.4550 C   0  0  0  0  0  0  0  0  0  0  0  0
  -31.3850  -11.8850   21.1320 C   0  0  0  0  0  2  0  0  0  0  0  0
  -30.7780  -11.5320   19.7570 C   0  0  0  0  0  2  0  0  0  0  0  0
  -29.2370  -11.5770   19.7780 C   0  0  0  0  0  2  0  0  0  0  0  0
  -28.6150  -12.7510   20.5840 C   0  0  0  0  0  3  0  0  0  0  0  0
  -29.3670  -13.0020   21.9070 C   0  0  0  0  0  2  0  0  0  0  0  0
  -30.7910  -13.1470   21.5800 N   0  0  0  0  0  0  0  0  0  0  0  0
  -32.6820  -14.3940   21.7140 O   0  0  0  0  0  0  0  0  0  0  0  0
  -31.0140  -15.1430   20.4680 N   0  0  0  0  0  0  0  0  0  0  0  0
  -26.1470  -13.4670   20.6990 C   0  0  0  0  0  0  0  0  0  0  0  0
  -24.9940  -12.7500   20.8780 C   0  0  0  0  0  0  0  0  0  0  0  0
  -25.4000  -11.3960   21.0800 C   0  0  0  0  0  0  0  0  0  0  0  0
  -27.1840  -12.5500   20.7910 N   0  0  0  0  0  0  0  0  0  0  0  0
  -26.7220  -11.3090   21.0870 N   0  0  0  0  0  0  0  0  0  0  0  0
  -24.6050  -10.1690   21.2150 C   0  0  0  0  0  0  0  0  0  0  0  0
  -24.8410   -9.2450   22.2570 C   0  0  0  0  0  3  0  0  0  0  0  0
  -24.0530   -8.0810   22.3760 C   0  0  0  0  0  3  0  0  0  0  0  0
  -23.0140   -7.8310   21.4470 C   0  0  0  0  0  0  0  0  0  0  0  0
  -22.7990   -8.7390   20.3970 C   0  0  0  0  0  3  0  0  0  0  0  0
  -23.5880   -9.8960   20.2780 C   0  0  0  0  0  3  0  0  0  0  0  0
  -22.2170   -6.7120   21.4640 O   0  0  0  0  0  0  0  0  0  0  0  0
  -21.9930   -6.0080   22.6190 C   0  0  0  0  0  0  0  0  0  0  0  0
  -21.4540   -6.6180   23.7720 C   0  0  0  0  0  3  0  0  0  0  0  0
  -21.1780   -5.8430   24.9170 C   0  0  0  0  0  3  0  0  0  0  0  0
  -21.4310   -4.4580   24.9060 C   0  0  0  0  0  0  0  0  0  0  0  0
  -21.9600   -3.8470   23.7560 C   0  0  0  0  0  3  0  0  0  0  0  0
  -22.2380   -4.6200   22.6150 C   0  0  0  0  0  0  0  0  0  0  0  0
  -22.7310   -4.0230   21.5040 F   0  0  0  0  0  0  0  0  0  0  0  0
  -21.1600   -3.7110   26.0030 F   0  0  0  0  0  0  0  0  0  0  0  0
  -23.5910  -13.2720   20.7710 C   0  0  0  0  0  0  0  0  0  0  0  0
  -22.6620  -12.6840   21.5180 N   0  0  0  0  0  0  0  0  0  0  0  0
  -23.3180  -14.2380   20.0580 O   0  0  0  0  0  0  0  0  0  0  0  0
  -22.8890  -11.9050   22.1150 H   0  0  0  0  0  0  0  0  0  0  0  0
  -21.7090  -13.0200   21.4880 H   0  0  0  0  0  0  0  0  0  0  0  0
  -26.4030  -14.8110   20.4410 N   0  0  0  0  0  0  0  0  0  0  0  0
  -25.6660  -15.4970   20.3350 H   0  0  0  0  0  0  0  0  0  0  0  0
  -27.3280  -15.2010   20.3160 H   0  0  0  0  0  0  0  0  0  0  0  0
  -31.6290  -14.8000   19.1570 C   0  0  0  0  0  2  0  0  0  0  0  0
  -30.9390  -13.6420   17.0130 C   0  0  0  0  0  2  0  0  0  0  0  0
  -30.6180  -14.3150   18.1290 C   0  0  0  0  0  3  0  0  0  0  0  0
  -31.9040  -18.1040   17.6300 C   0  0  0  0  0  2  0  0  0  0  0  0
  -30.9050  -17.4970   18.2920 C   0  0  0  0  0  3  0  0  0  0  0  0
  -29.8700  -20.6330   21.7890 O   0  0  0  0  0  0  0  0  0  0  0  0
  -29.3060  -21.5160   20.8060 C   0  0  0  0  0  2  0  0  0  0  0  0
  -29.1700  -22.9550   21.3360 C   0  0  0  0  0  2  0  0  0  0  0  0
  -30.1090  -23.9770   20.6480 C   0  0  0  0  0  2  0  0  0  0  0  0
  -29.4650  -24.7600   19.4910 C   0  0  0  0  0  0  0  0  0  0  0  0
  -29.8780  -24.6190   18.3370 O   0  0  0  0  0  0  0  0  0  0  0  0
  -28.3120  -25.7230   19.8230 C   0  0  0  0  0  2  0  0  0  0  0  0
  -28.1430  -26.7090   18.7980 O   0  0  0  0  0  0  0  0  0  0  0  0
  -24.6490  -31.3660   22.8810 C   0  0  0  0  0  0  0  0  0  0  0  0
  -27.0110  -27.4600   18.9820 C   0  0  0  0  0  0  0  0  0  0  0  0
  -23.3190  -30.2790   21.0990 C   0  0  0  0  0  3  0  0  0  0  0  0
  -24.6560  -28.9700   19.3600 C   0  0  0  0  0  0  0  0  0  0  0  0
  -25.8350  -30.6230   20.8210 C   0  0  0  0  0  2  0  0  0  0  0  0
  -25.8530  -29.3740   19.9660 C   0  0  0  0  0  0  0  0  0  0  0  0
  -27.0340  -28.6240   19.7790 C   0  0  0  0  0  3  0  0  0  0  0  0
  -25.8040  -27.0640   18.3700 C   0  0  0  0  0  3  0  0  0  0  0  0
  -24.6250  -27.8130   18.5590 C   0  0  0  0  0  3  0  0  0  0  0  0
  -23.4350  -29.8270   19.6170 C   0  0  0  0  0  2  0  0  0  0  0  0
  -24.6220  -30.7600   21.6590 N   0  0  0  0  0  0  0  0  0  0  0  0
  -23.6070  -31.5660   23.5190 O   0  0  0  0  0  0  0  0  0  0  0  0
  -22.6900  -29.1260   21.9150 C   0  0  0  0  0  0  0  0  0  0  0  0
  -21.3590  -28.9810   21.8160 N   0  0  0  0  0  0  0  0  0  0  0  0
  -23.3950  -28.3750   22.5950 O   0  0  0  0  0  0  0  0  0  0  0  0
  -20.8530  -29.6430   21.2460 H   0  0  0  0  0  0  0  0  0  0  0  0
  -17.9930  -27.7310   22.2150 C   0  0  0  0  0  0  0  0  0  0  0  0
  -20.5580  -27.9410   22.4590 C   0  0  0  0  0  3  0  0  0  0  0  0
  -20.6380  -26.6090   21.6770 C   0  0  0  0  0  2  0  0  0  0  0  0
  -19.5090  -26.4410   20.6550 C   0  0  0  0  0  2  0  0  0  0  0  0
  -18.1450  -26.4930   21.3470 C   0  0  0  0  0  2  0  0  0  0  0  0
  -19.1270  -28.4190   22.7250 C   0  0  0  0  0  0  0  0  0  0  0  0
  -18.9290  -29.5850   23.4960 C   0  0  0  0  0  3  0  0  0  0  0  0
  -17.6320  -30.0600   23.7660 C   0  0  0  0  0  3  0  0  0  0  0  0
  -16.5130  -29.3650   23.2740 C   0  0  0  0  0  3  0  0  0  0  0  0
  -16.6950  -28.2030   22.5020 C   0  0  0  0  0  3  0  0  0  0  0  0
  -25.9860  -31.8570   23.5220 C   0  0  0  0  0  3  0  0  0  0  0  0
  -26.5610  -30.8600   24.6020 C   0  0  1  0  0  0  0  0  0  0  0  0
  -25.5320  -30.4510   25.6820 C   0  0  0  0  0  1  0  0  0  0  0  0
  -27.0790  -29.5660   23.9300 C   0  0  0  0  0  1  0  0  0  0  0  0
  -27.7730  -31.5040   25.3170 C   0  0  0  0  0  1  0  0  0  0  0  0
  -25.7320  -33.1770   24.1140 N   0  0  0  0  0  0  0  0  0  0  0  0
  -26.0790  -34.3420   23.5510 C   0  0  0  0  0  0  0  0  0  0  0  0
  -26.7200  -34.4130   22.4980 O   0  0  0  0  0  0  0  0  0  0  0  0
  -25.1630  -33.1970   24.9470 H   0  0  0  0  0  0  0  0  0  0  0  0
  -24.4120  -36.2250   23.5700 C   0  0  0  0  0  1  0  0  0  0  0  0
  -25.6490  -35.6360   24.2690 C   0  0  0  0  0  3  0  0  0  0  0  0
  -27.8250  -36.2760   25.2080 C   0  0  0  0  0  1  0  0  0  0  0  0
  -26.7180  -36.6560   24.3340 N   0  0  0  0  0  0  0  0  0  0  0  0
  -26.3490  -37.5460   24.6580 H   0  0  0  0  0  0  0  0  0  0  0  0
  1  2  1  0
  3  6  1  0
  4  3  2  0
  4  5  1  0
  5  1  2  0
  6 49  1  0
  6  2  2  0
  7 13  1  0
  7 14  2  0
  8 13  1  0
  9 10  1  0
  9  8  1  0
 11 10  1  0
 11 19  1  0
 11 12  1  0
 13 12  1  0
 15  5  1  0
 15  7  1  0
 16 19  1  0
 16 17  2  0
 17 18  1  0
 18 20  2  0
 18 21  1  0
 19 20  1  0
 21 22  1  0
 22 23  2  0
 24 27  1  0
 24 23  1  0
 25 24  2  0
 26 25  1  0
 26 21  2  0
 27 28  1  0
 28 29  1  0
 29 30  2  0
 31 30  1  0
 31 35  1  0
 32 31  2  0
 33 28  2  0
 33 32  1  0
 34 33  1  0
 36 17  1  0
 36 37  1  0
 37 39  1  0
 38 36  2  0
 40 37  1  0
 41 16  1  0
 42 41  1  0
 43 41  1  0
 44 15  1  0
 45 46  2  0
 46 44  1  0
 47 48  2  0
 48  4  1  0
 50 51  1  0
 50 49  1  0
 52 51  1  0
 53 55  1  0
 53 52  1  0
 54 53  2  0
 56 58  1  0
 56 55  1  0
 57 68  2  0
 58 63  1  0
 59 67  1  0
 59 69  1  0
 60 66  1  0
 60 62  1  0
 61 67  1  0
 62 61  1  0
 63 62  2  0
 64 65  1  0
 64 58  2  0
 65 60  2  0
 66 59  1  0
 67 57  1  0
 69 71  2  0
 70 69  1  0
 72 70  1  0
 73 82  2  0
 73 78  1  0
 74 70  1  0
 74 78  1  0
 75 74  1  0
 76 77  1  0
 76 75  1  0
 77 73  1  0
 78 79  2  0
 79 80  1  0
 81 80  2  0
 82 81  1  0
 83 57  1  0
 83 88  1  0
 83 84  1  0
 84 87  1  1
 84 85  1  0
 86 84  1  0
 88 91  1  0
 89 88  1  0
 89 93  1  0
 90 89  2  0
 93 92  1  0
 93 95  1  0
 95 96  1  0
 95 94  1  0
M  ISO  4   7 100  15 100  55 101  56 101
M  END
>  <TORSDO>  (74) 
F 25

>  <SCORE>  (74) 
-7.618

>  <name>  (74) 
73

>  <ligand_id>  (74) 
73

>  <original_smiles>  (74) 
[H]C([H])=C([H])c1c([H])c(OC([H])([H])C([H])([H])C([H])([H])C(=O)C([H])([H])Oc2c([H])c([H])c3c(c2[H])C([H])([H])N(C(=O)C([H])(N([H])C(=O)C([H])(N([H])C([H])([H])[H])C([H])([H])[H])C(C([H])([H])[H])(C([H])([H])[H])C([H])([H])[H])C([H])(C(=O)N([H])C2([H])c4c([H])c([H])c([H])c([H])c4C([H])([H])C([H])([H])C2([H])[H])C3([H])[H])c([H])c([H])c1N(C(=O)N1C([H])([H])C([H])([H])C([H])([H])C([H])(n2nc(-c3c([H])c([H])c(Oc4c([H])c([H])c(F)c([H])c4F)c([H])c3[H])c(C(=O)N([H])[H])c2N([H])[H])C1([H])[H])C([H])([H])C([H])=C([H])[H]

>  <smiles>  (74) 
[H]C([H])=C([H])c1c([H])c(OC([H])([H])C([H])([H])C([H])([H])C(=O)C([H])([H])Oc2c([H])c([H])c3c(c2[H])C([H])([H])N(C(=O)C([H])(N([H])C(=O)C([H])(N([H])C([H])([H])[H])C([H])([H])[H])C(C([H])([H])[H])(C([H])([H])[H])C([H])([H])[H])C([H])(C(=O)N([H])C2([H])c4c([H])c([H])c([H])c([H])c4C([H])([H])C([H])([H])C2([H])[H])C3([H])[H])c([H])c([H])c1N(C(=O)N1C([H])([H])C([H])([H])C([H])([H])C([H])(n2nc(-c3c([H])c([H])c(Oc4c([H])c([H])c(F)c([H])c4F)c([H])c3[H])c(C(=O)N([H])[H])c2N([H])[H])C1([H])[H])C([H])([H])C([H])=C([H])[H]

$$$$
74:0:0
     RDKit          3D

 89 97  0  0  1  0  0  0  0  0999 V2000
  -30.7260  -20.7860   19.5340 C   0  0  0  0  0  3  0  0  0  0  0  0
  -29.4160  -20.9450   19.8850 C   0  0  0  0  0  0  0  0  0  0  0  0
  -28.9850  -19.5920   20.2510 C   0  0  0  0  0  0  0  0  0  0  0  0
  -30.0670  -18.7080   20.1130 C   0  0  0  0  0  0  0  0  0  0  0  0
  -27.6180  -19.2240   20.7650 C   0  0  0  0  0  1  0  0  0  0  0  0
  -31.1160  -19.4680   19.6540 O   0  0  0  0  0  0  0  0  0  0  0  0
  -28.6140  -22.2740   19.8800 C   0  0  0  0  0  3  0  0  0  0  0  0
  -28.9660  -23.6130   19.7400 C   0  0  0  0  0  3  0  0  0  0  0  0
  -27.9520  -24.8300   19.5480 C   0  0  0  0  0  2  0  0  0  0  0  0
  -28.2580  -26.2870   19.8270 O   0  0  0  0  0  0  0  0  0  0  0  0
  -24.4510  -31.6070   23.0670 C   0  0  0  0  0  0  0  0  0  0  0  0
  -27.1550  -27.1890   19.8100 C   0  0  0  0  0  0  0  0  0  0  0  0
  -23.2780  -30.2410   21.3850 C   0  0  0  0  0  3  0  0  0  0  0  0
  -24.7590  -28.7940   19.8830 C   0  0  0  0  0  0  0  0  0  0  0  0
  -25.8140  -30.6220   21.2000 C   0  0  0  0  0  2  0  0  0  0  0  0
  -25.9270  -29.2700   20.4930 C   0  0  0  0  0  0  0  0  0  0  0  0
  -27.1280  -28.4820   20.4460 C   0  0  0  0  0  3  0  0  0  0  0  0
  -25.9540  -26.8010   19.1680 C   0  0  0  0  0  3  0  0  0  0  0  0
  -24.7790  -27.5700   19.2100 C   0  0  0  0  0  3  0  0  0  0  0  0
  -23.5010  -29.6350   19.9760 C   0  0  0  0  0  2  0  0  0  0  0  0
  -24.5340  -30.8400   21.9400 N   0  0  0  0  0  0  0  0  0  0  0  0
  -23.3630  -31.8320   23.6160 O   0  0  0  0  0  0  0  0  0  0  0  0
  -22.6500  -29.1660   22.3070 C   0  0  0  0  0  0  0  0  0  0  0  0
  -21.3290  -28.9530   22.1830 N   0  0  0  0  0  0  0  0  0  0  0  0
  -23.3520  -28.5290   23.0960 O   0  0  0  0  0  0  0  0  0  0  0  0
  -20.8170  -29.5220   21.5220 H   0  0  0  0  0  0  0  0  0  0  0  0
  -17.9900  -27.6410   22.6730 C   0  0  0  0  0  0  0  0  0  0  0  0
  -20.5440  -27.9620   22.9230 C   0  0  0  0  0  3  0  0  0  0  0  0
  -20.6780  -26.5580   22.2880 C   0  0  0  0  0  2  0  0  0  0  0  0
  -19.5730  -26.2470   21.2750 C   0  0  0  0  0  2  0  0  0  0  0  0
  -18.1960  -26.3260   21.9400 C   0  0  0  0  0  2  0  0  0  0  0  0
  -19.0920  -28.4170   23.1210 C   0  0  0  0  0  0  0  0  0  0  0  0
  -18.8450  -29.6460   23.7670 C   0  0  0  0  0  3  0  0  0  0  0  0
  -17.5290  -30.1030   23.9710 C   0  0  0  0  0  3  0  0  0  0  0  0
  -16.4420  -29.3240   23.5380 C   0  0  0  0  0  3  0  0  0  0  0  0
  -16.6740  -28.0950   22.8940 C   0  0  0  0  0  3  0  0  0  0  0  0
  -25.7170  -32.2560   23.7030 C   0  0  0  0  0  3  0  0  0  0  0  0
  -26.2460  -31.4720   24.9680 C   0  0  1  0  0  0  0  0  0  0  0  0
  -25.1530  -31.1910   26.0260 C   0  0  0  0  0  1  0  0  0  0  0  0
  -26.8610  -30.1150   24.5550 C   0  0  0  0  0  1  0  0  0  0  0  0
  -27.3760  -32.2790   25.6490 C   0  0  0  0  0  1  0  0  0  0  0  0
  -25.3760  -33.6400   24.0610 N   0  0  0  0  0  0  0  0  0  0  0  0
  -25.6870  -34.7170   23.3270 C   0  0  0  0  0  0  0  0  0  0  0  0
  -26.3610  -34.6500   22.2950 O   0  0  0  0  0  0  0  0  0  0  0  0
  -24.7780  -33.7640   24.8650 H   0  0  0  0  0  0  0  0  0  0  0  0
  -23.9130  -36.4750   23.0180 C   0  0  0  0  0  1  0  0  0  0  0  0
  -25.1690  -36.0840   23.8130 C   0  0  0  0  0  3  0  0  0  0  0  0
  -27.2840  -37.0110   24.6510 C   0  0  0  0  0  1  0  0  0  0  0  0
  -26.1750  -37.1650   23.7130 N   0  0  0  0  0  0  0  0  0  0  0  0
  -25.7480  -38.0720   23.8740 H   0  0  0  0  0  0  0  0  0  0  0  0
  -30.4850  -17.2490   20.5870 C   0  0  0  0  0  2  0  0  0  0  0  0
  -30.5280  -14.7540   19.8080 C   0  0  0  0  0  0  0  0  0  0  0  0
  -30.1630  -12.5270   18.7220 C   0  0  0  0  0  2  0  0  0  0  0  0
  -29.1190  -12.6470   17.5910 C   0  0  0  0  0  2  0  0  0  0  0  0
  -27.6940  -12.4810   18.1510 C   0  0  0  0  0  2  0  0  0  0  0  0
  -27.4470  -13.3390   19.4220 C   0  0  0  0  0  3  0  0  0  0  0  0
  -28.6020  -13.2090   20.4370 C   0  0  0  0  0  2  0  0  0  0  0  0
  -29.8400  -13.5630   19.7310 N   0  0  0  0  0  0  0  0  0  0  0  0
  -31.6930  -14.8070   19.4050 O   0  0  0  0  0  0  0  0  0  0  0  0
  -29.8600  -15.9170   20.1720 N   0  0  0  0  0  0  0  0  0  0  0  0
  -28.8780  -15.8120   20.3770 H   0  0  0  0  0  0  0  0  0  0  0  0
  -25.1450  -13.9400   20.3790 C   0  0  0  0  0  0  0  0  0  0  0  0
  -24.1040  -13.1700   20.8200 C   0  0  0  0  0  0  0  0  0  0  0  0
  -24.5400  -11.8140   20.7110 C   0  0  0  0  0  0  0  0  0  0  0  0
  -26.1490  -13.0530   20.0270 N   0  0  0  0  0  0  0  0  0  0  0  0
  -25.7980  -11.7680   20.2900 N   0  0  0  0  0  0  0  0  0  0  0  0
  -23.8120  -10.5570   20.9290 C   0  0  0  0  0  0  0  0  0  0  0  0
  -24.2890   -9.5710   21.8210 C   0  0  0  0  0  3  0  0  0  0  0  0
  -23.5610   -8.3800   22.0270 C   0  0  0  0  0  3  0  0  0  0  0  0
  -22.3400   -8.1660   21.3430 C   0  0  0  0  0  0  0  0  0  0  0  0
  -21.8820   -9.1420   20.4400 C   0  0  0  0  0  3  0  0  0  0  0  0
  -22.6110  -10.3230   20.2310 C   0  0  0  0  0  3  0  0  0  0  0  0
  -21.5780   -7.0300   21.4620 O   0  0  0  0  0  0  0  0  0  0  0  0
  -21.5780   -6.2800   22.6110 C   0  0  0  0  0  0  0  0  0  0  0  0
  -21.2040   -6.8250   23.8580 C   0  0  0  0  0  3  0  0  0  0  0  0
  -21.1520   -6.0020   25.0010 C   0  0  0  0  0  3  0  0  0  0  0  0
  -21.4650   -4.6330   24.8970 C   0  0  0  0  0  0  0  0  0  0  0  0
  -21.8320   -4.0870   23.6550 C   0  0  0  0  0  3  0  0  0  0  0  0
  -21.8860   -4.9070   22.5140 C   0  0  0  0  0  0  0  0  0  0  0  0
  -22.2200   -4.3710   21.3160 F   0  0  0  0  0  0  0  0  0  0  0  0
  -21.4070   -3.8400   25.9920 F   0  0  0  0  0  0  0  0  0  0  0  0
  -22.7430  -13.6590   21.2240 C   0  0  0  0  0  0  0  0  0  0  0  0
  -22.0810  -12.9480   22.1310 N   0  0  0  0  0  0  0  0  0  0  0  0
  -22.2790  -14.7050   20.7710 O   0  0  0  0  0  0  0  0  0  0  0  0
  -22.4710  -12.1010   22.5170 H   0  0  0  0  0  0  0  0  0  0  0  0
  -21.1710  -13.2570   22.4430 H   0  0  0  0  0  0  0  0  0  0  0  0
  -25.3140  -15.3130   20.2230 N   0  0  0  0  0  0  0  0  0  0  0  0
  -24.5650  -15.9710   20.4120 H   0  0  0  0  0  0  0  0  0  0  0  0
  -26.1230  -15.7480   19.8000 H   0  0  0  0  0  0  0  0  0  0  0  0
  1  6  1  0
  1  2  2  0
  2  3  1  0
  3  5  1  0
  4  3  2  0
  4 51  1  0
  6  4  1  0
  7  2  1  0
  8  7  2  0
  9  8  1  0
  9 10  1  0
 11 22  2  0
 12 10  1  0
 12 17  1  0
 13 21  1  0
 13 23  1  0
 14 20  1  0
 14 16  1  0
 15 21  1  0
 16 15  1  0
 17 16  2  0
 18 19  1  0
 18 12  2  0
 19 14  2  0
 20 13  1  0
 21 11  1  0
 23 25  2  0
 24 23  1  0
 26 24  1  0
 27 36  2  0
 27 32  1  0
 28 24  1  0
 28 32  1  0
 29 28  1  0
 30 31  1  0
 30 29  1  0
 31 27  1  0
 32 33  2  0
 33 34  1  0
 35 34  2  0
 36 35  1  0
 37 11  1  0
 37 42  1  0
 37 38  1  0
 38 41  1  1
 38 39  1  0
 40 38  1  0
 42 45  1  0
 43 47  1  0
 43 42  1  0
 44 43  2  0
 47 46  1  0
 49 47  1  0
 49 50  1  0
 49 48  1  0
 52 60  1  0
 53 58  1  0
 54 55  1  0
 54 53  1  0
 56 55  1  0
 56 65  1  0
 56 57  1  0
 58 52  1  0
 58 57  1  0
 59 52  2  0
 60 61  1  0
 60 51  1  0
 62 63  2  0
 63 82  1  0
 64 63  1  0
 64 67  1  0
 65 66  1  0
 65 62  1  0
 66 64  2  0
 67 68  1  0
 68 69  2  0
 70 73  1  0
 70 69  1  0
 71 70  2  0
 72 71  1  0
 72 67  2  0
 73 74  1  0
 74 75  1  0
 75 76  2  0
 77 76  1  0
 77 81  1  0
 78 77  2  0
 79 74  2  0
 79 78  1  0
 80 79  1  0
 82 83  1  0
 83 86  1  0
 83 85  1  0
 84 82  2  0
 87 62  1  0
 87 88  1  0
 89 87  1  0
M  ISO  4   9 101  10 101  52 100  60 100
M  END
>  <TORSDO>  (75) 
F 19

>  <SCORE>  (75) 
-12.804

>  <name>  (75) 
74

>  <ligand_id>  (75) 
74

>  <original_smiles>  (75) 
[H]C(=C([H])C([H])([H])Oc1c([H])c([H])c2c(c1[H])C([H])([H])N(C(=O)C([H])(N([H])C(=O)C([H])(N([H])C([H])([H])[H])C([H])([H])[H])C(C([H])([H])[H])(C([H])([H])[H])C([H])([H])[H])C([H])(C(=O)N([H])C1([H])c3c([H])c([H])c([H])c([H])c3C([H])([H])C([H])([H])C1([H])[H])C2([H])[H])c1c([H])oc(C([H])([H])N([H])C(=O)N2C([H])([H])C([H])([H])C([H])([H])C([H])(n3nc(-c4c([H])c([H])c(Oc5c([H])c([H])c(F)c([H])c5F)c([H])c4[H])c(C(=O)N([H])[H])c3N([H])[H])C2([H])[H])c1C([H])([H])[H]

>  <smiles>  (75) 
[H]C(=C([H])C([H])([H])Oc1c([H])c([H])c2c(c1[H])C([H])([H])N(C(=O)C([H])(N([H])C(=O)C([H])(N([H])C([H])([H])[H])C([H])([H])[H])C(C([H])([H])[H])(C([H])([H])[H])C([H])([H])[H])C([H])(C(=O)N([H])C1([H])c3c([H])c([H])c([H])c([H])c3C([H])([H])C([H])([H])C1([H])[H])C2([H])[H])c1c([H])oc(C([H])([H])N([H])C(=O)N2C([H])([H])C([H])([H])C([H])([H])C([H])(n3nc(-c4c([H])c([H])c(Oc5c([H])c([H])c(F)c([H])c5F)c([H])c4[H])c(C(=O)N([H])[H])c3N([H])[H])C2([H])[H])c1C([H])([H])[H]

$$$$
75:0:0
     RDKit          3D

 94102  0  0  1  0  0  0  0  0999 V2000
  -31.9480  -17.5050   20.8790 C   0  0  0  0  0  3  0  0  0  0  0  0
  -31.8610  -19.8880   20.4070 C   0  0  0  0  0  3  0  0  0  0  0  0
  -30.5890  -17.3290   20.5270 C   0  0  0  0  0  0  0  0  0  0  0  0
  -29.8570  -18.5100   20.0960 C   0  0  0  0  0  0  0  0  0  0  0  0
  -30.4840  -19.8140   20.0960 C   0  0  0  0  0  0  0  0  0  0  0  0
  -32.5830  -18.7480   20.7920 C   0  0  0  0  0  0  0  0  0  0  0  0
  -33.8940  -18.8530   21.1130 F   0  0  0  0  0  0  0  0  0  0  0  0
  -29.9750  -15.9380   20.7580 C   0  0  0  0  0  0  0  0  0  0  0  0
  -28.9310  -15.8760   21.4730 N   0  0  0  0  0  0  0  0  0  0  0  0
  -28.6510  -16.7940   21.7950 H   0  0  0  0  0  0  0  0  0  0  0  0
  -30.6670  -14.6690   20.1150 C   0  0  0  0  0  0  0  0  0  0  0  0
  -30.3480  -12.4980   18.9710 C   0  0  0  0  0  2  0  0  0  0  0  0
  -29.3370  -12.7080   17.8210 C   0  0  0  0  0  2  0  0  0  0  0  0
  -27.8900  -12.5250   18.3210 C   0  0  0  0  0  2  0  0  0  0  0  0
  -27.6130  -13.3160   19.6270 C   0  0  0  0  0  3  0  0  0  0  0  0
  -28.7340  -13.0440   20.6570 C   0  0  0  0  0  2  0  0  0  0  0  0
  -30.0080  -13.4600   20.0430 N   0  0  0  0  0  0  0  0  0  0  0  0
  -31.7680  -14.8000   19.5720 O   0  0  0  0  0  0  0  0  0  0  0  0
  -25.2520  -13.8910   20.4700 C   0  0  0  0  0  0  0  0  0  0  0  0
  -24.2050  -13.1020   20.8670 C   0  0  0  0  0  0  0  0  0  0  0  0
  -24.6730  -11.7540   20.7770 C   0  0  0  0  0  0  0  0  0  0  0  0
  -26.2880  -13.0210   20.1650 N   0  0  0  0  0  0  0  0  0  0  0  0
  -25.9460  -11.7290   20.4060 N   0  0  0  0  0  0  0  0  0  0  0  0
  -23.9670  -10.4820   20.9730 C   0  0  0  0  0  0  0  0  0  0  0  0
  -24.4230   -9.5230   21.9020 C   0  0  0  0  0  3  0  0  0  0  0  0
  -23.7190   -8.3130   22.0850 C   0  0  0  0  0  3  0  0  0  0  0  0
  -22.5450   -8.0540   21.3390 C   0  0  0  0  0  0  0  0  0  0  0  0
  -22.1090   -9.0030   20.3980 C   0  0  0  0  0  3  0  0  0  0  0  0
  -22.8120  -10.2050   20.2140 C   0  0  0  0  0  3  0  0  0  0  0  0
  -21.8120   -6.8960   21.4300 O   0  0  0  0  0  0  0  0  0  0  0  0
  -21.7360   -6.1830   22.6000 C   0  0  0  0  0  0  0  0  0  0  0  0
  -21.2320   -6.7530   23.7900 C   0  0  0  0  0  3  0  0  0  0  0  0
  -21.1060   -5.9640   24.9510 C   0  0  0  0  0  3  0  0  0  0  0  0
  -21.4720   -4.6040   24.9220 C   0  0  0  0  0  0  0  0  0  0  0  0
  -21.9680   -4.0340   23.7360 C   0  0  0  0  0  3  0  0  0  0  0  0
  -22.0950   -4.8210   22.5780 C   0  0  0  0  0  0  0  0  0  0  0  0
  -22.5520   -4.2600   21.4320 F   0  0  0  0  0  0  0  0  0  0  0  0
  -21.3440   -3.8430   26.0340 F   0  0  0  0  0  0  0  0  0  0  0  0
  -22.8230  -13.5610   21.2270 C   0  0  0  0  0  0  0  0  0  0  0  0
  -22.1450  -12.8270   22.1040 N   0  0  0  0  0  0  0  0  0  0  0  0
  -22.3530  -14.6000   20.7690 O   0  0  0  0  0  0  0  0  0  0  0  0
  -22.5400  -11.9830   22.4920 H   0  0  0  0  0  0  0  0  0  0  0  0
  -21.2180  -13.1090   22.3880 H   0  0  0  0  0  0  0  0  0  0  0  0
  -25.4080  -15.2650   20.3230 N   0  0  0  0  0  0  0  0  0  0  0  0
  -24.6790  -15.9350   20.5430 H   0  0  0  0  0  0  0  0  0  0  0  0
  -26.3020  -15.6950   20.1160 H   0  0  0  0  0  0  0  0  0  0  0  0
  -27.4520  -19.2750   19.5950 C   0  0  0  0  0  2  0  0  0  0  0  0
  -28.4370  -18.3580   19.6640 C   0  0  0  0  0  3  0  0  0  0  0  0
  -29.7600  -20.9740   19.7750 O   0  0  0  0  0  0  0  0  0  0  0  0
  -30.2950  -22.3080   20.0100 C   0  0  0  0  0  2  0  0  0  0  0  0
  -29.1880  -23.4110   20.2340 C   0  0  0  0  0  2  0  0  0  0  0  0
  -29.0390  -24.4640   19.1170 C   0  0  0  0  0  3  0  0  0  0  0  0
  -28.7180  -25.7940   19.1380 C   0  0  0  0  0  3  0  0  0  0  0  0
  -28.4390  -26.6250   20.2150 O   0  0  0  0  0  0  0  0  0  0  0  0
  -24.6040  -31.9020   23.2490 C   0  0  0  0  0  0  0  0  0  0  0  0
  -27.3020  -27.4350   20.1640 C   0  0  0  0  0  0  0  0  0  0  0  0
  -23.4230  -30.4970   21.5940 C   0  0  0  0  0  3  0  0  0  0  0  0
  -24.9010  -28.9720   20.1700 C   0  0  0  0  0  0  0  0  0  0  0  0
  -25.9580  -30.8510   21.4280 C   0  0  0  0  0  2  0  0  0  0  0  0
  -26.0560  -29.4830   20.7750 C   0  0  0  0  0  0  0  0  0  0  0  0
  -27.2580  -28.7210   20.7720 C   0  0  0  0  0  3  0  0  0  0  0  0
  -26.1180  -26.9530   19.5600 C   0  0  0  0  0  3  0  0  0  0  0  0
  -24.9310  -27.7090   19.5570 C   0  0  0  0  0  3  0  0  0  0  0  0
  -23.6510  -29.8240   20.2160 C   0  0  0  0  0  2  0  0  0  0  0  0
  -24.6780  -31.1000   22.1480 N   0  0  0  0  0  0  0  0  0  0  0  0
  -23.5140  -32.1690   23.7760 O   0  0  0  0  0  0  0  0  0  0  0  0
  -22.7660  -29.4720   22.5470 C   0  0  0  0  0  0  0  0  0  0  0  0
  -21.4380  -29.2980   22.4240 N   0  0  0  0  0  0  0  0  0  0  0  0
  -23.4470  -28.8350   23.3570 O   0  0  0  0  0  0  0  0  0  0  0  0
  -20.9490  -29.8650   21.7460 H   0  0  0  0  0  0  0  0  0  0  0  0
  -18.0570  -28.1280   22.9340 C   0  0  0  0  0  0  0  0  0  0  0  0
  -20.6190  -28.3570   23.1870 C   0  0  0  0  0  3  0  0  0  0  0  0
  -20.7010  -26.9340   22.5870 C   0  0  0  0  0  2  0  0  0  0  0  0
  -19.5870  -26.6380   21.5770 C   0  0  0  0  0  2  0  0  0  0  0  0
  -18.2130  -26.7870   22.2350 C   0  0  0  0  0  2  0  0  0  0  0  0
  -19.1870  -28.8720   23.3660 C   0  0  0  0  0  0  0  0  0  0  0  0
  -18.9860  -30.1270   23.9790 C   0  0  0  0  0  3  0  0  0  0  0  0
  -17.6880  -30.6370   24.1680 C   0  0  0  0  0  3  0  0  0  0  0  0
  -16.5720  -29.8900   23.7530 C   0  0  0  0  0  3  0  0  0  0  0  0
  -16.7580  -28.6380   23.1400 C   0  0  0  0  0  3  0  0  0  0  0  0
  -25.8780  -32.5410   23.8830 C   0  0  0  0  0  3  0  0  0  0  0  0
  -25.5610  -33.9420   24.1960 N   0  0  0  0  0  0  0  0  0  0  0  0
  -25.9020  -34.9870   23.4310 C   0  0  0  0  0  0  0  0  0  0  0  0
  -26.5820  -34.8760   22.4070 O   0  0  0  0  0  0  0  0  0  0  0  0
  -24.9580  -34.1050   24.9880 H   0  0  0  0  0  0  0  0  0  0  0  0
  -24.1740  -36.7740   23.0440 C   0  0  0  0  0  1  0  0  0  0  0  0
  -25.4070  -36.3790   23.8720 C   0  0  0  0  0  3  0  0  0  0  0  0
  -27.5290  -37.2760   24.7230 C   0  0  0  0  0  1  0  0  0  0  0  0
  -26.4400  -37.4330   23.7630 N   0  0  0  0  0  0  0  0  0  0  0  0
  -26.0290  -38.3540   23.8940 H   0  0  0  0  0  0  0  0  0  0  0  0
  -26.3770  -31.7840   25.1750 C   0  0  1  0  0  0  0  0  0  0  0  0
  -25.2690  -31.5570   26.2300 C   0  0  0  0  0  1  0  0  0  0  0  0
  -26.9680  -30.4020   24.8050 C   0  0  0  0  0  1  0  0  0  0  0  0
  -27.5140  -32.5890   25.8470 C   0  0  0  0  0  1  0  0  0  0  0  0
  2  6  2  0
  3  8  1  0
  3  1  2  0
  4  3  1  0
  5  4  2  0
  5  2  1  0
  6  1  1  0
  6  7  1  0
  8  9  2  0
  9 10  1  0
 11  8  1  0
 12 17  1  0
 13 14  1  0
 13 12  1  0
 15 14  1  0
 15 22  1  0
 15 16  1  0
 17 11  1  0
 17 16  1  0
 18 11  2  0
 19 20  2  0
 20 39  1  0
 21 20  1  0
 21 24  1  0
 22 23  1  0
 22 19  1  0
 23 21  2  0
 24 25  1  0
 25 26  2  0
 27 30  1  0
 27 26  1  0
 28 27  2  0
 29 28  1  0
 29 24  2  0
 30 31  1  0
 31 32  1  0
 32 33  2  0
 34 33  1  0
 34 38  1  0
 35 34  2  0
 36 31  2  0
 36 35  1  0
 37 36  1  0
 39 40  1  0
 40 43  1  0
 40 42  1  0
 41 39  2  0
 44 19  1  0
 44 45  1  0
 46 44  1  0
 47 48  2  0
 48  4  1  0
 49 50  1  0
 49  5  1  0
 50 51  1  0
 52 53  2  0
 52 51  1  0
 53 54  1  0
 55 66  2  0
 56 54  1  0
 56 61  1  0
 57 65  1  0
 57 67  1  0
 58 64  1  0
 58 60  1  0
 59 65  1  0
 60 59  1  0
 61 60  2  0
 62 56  2  0
 63 62  1  0
 63 58  2  0
 64 57  1  0
 65 55  1  0
 67 69  2  0
 68 67  1  0
 70 68  1  0
 71 80  2  0
 71 76  1  0
 72 68  1  0
 72 76  1  0
 73 72  1  0
 74 75  1  0
 74 73  1  0
 75 71  1  0
 76 77  2  0
 77 78  1  0
 79 78  2  0
 80 79  1  0
 81 55  1  0
 81 82  1  0
 81 91  1  0
 82 85  1  0
 83 87  1  0
 83 82  1  0
 84 83  2  0
 87 86  1  0
 89 87  1  0
 89 90  1  0
 89 88  1  0
 91 94  1  1
 91 92  1  0
 93 91  1  0
M  ISO  4   8 100  11 100  53 101  54 101
M  END
>  <TORSDO>  (76) 
F 22

>  <SCORE>  (76) 
-13.320

>  <name>  (76) 
75

>  <ligand_id>  (76) 
75

>  <original_smiles>  (76) 
[H]N=C(C(=O)N1C([H])([H])C([H])([H])C([H])([H])C([H])(n2nc(-c3c([H])c([H])c(Oc4c([H])c([H])c(F)c([H])c4F)c([H])c3[H])c(C(=O)N([H])[H])c2N([H])[H])C1([H])[H])c1c([H])c(F)c([H])c(OC([H])([H])C([H])([H])C([H])=C([H])Oc2c([H])c([H])c3c(c2[H])C([H])([H])N(C(=O)C([H])(N([H])C(=O)C([H])(N([H])C([H])([H])[H])C([H])([H])[H])C(C([H])([H])[H])(C([H])([H])[H])C([H])([H])[H])C([H])(C(=O)N([H])C2([H])c4c([H])c([H])c([H])c([H])c4C([H])([H])C([H])([H])C2([H])[H])C3([H])[H])c1C([H])=C([H])[H]

>  <smiles>  (76) 
[H]N=C(C(=O)N1C([H])([H])C([H])([H])C([H])([H])C([H])(n2nc(-c3c([H])c([H])c(Oc4c([H])c([H])c(F)c([H])c4F)c([H])c3[H])c(C(=O)N([H])[H])c2N([H])[H])C1([H])[H])c1c([H])c(F)c([H])c(OC([H])([H])C([H])([H])C([H])=C([H])Oc2c([H])c([H])c3c(c2[H])C([H])([H])N(C(=O)C([H])(N([H])C(=O)C([H])(N([H])C([H])([H])[H])C([H])([H])[H])C(C([H])([H])[H])(C([H])([H])[H])C([H])([H])[H])C([H])(C(=O)N([H])C2([H])c4c([H])c([H])c([H])c([H])c4C([H])([H])C([H])([H])C2([H])[H])C3([H])[H])c1C([H])=C([H])[H]

$$$$
76:0:0
     RDKit          3D

 89 97  0  0  1  0  0  0  0  0999 V2000
  -29.2940  -20.8800   20.6220 C   0  0  0  0  0  3  0  0  0  0  0  0
  -28.7720  -22.0120   19.9640 C   0  0  0  0  0  3  0  0  0  0  0  0
  -30.4390  -14.9990   19.9790 C   0  0  0  0  0  0  0  0  0  0  0  0
  -30.1830  -12.6960   18.9820 C   0  0  0  0  0  2  0  0  0  0  0  0
  -29.1850  -12.7080   17.8030 C   0  0  0  0  0  2  0  0  0  0  0  0
  -27.7500  -12.5010   18.3160 C   0  0  0  0  0  2  0  0  0  0  0  0
  -27.4210  -13.3980   19.5400 C   0  0  0  0  0  3  0  0  0  0  0  0
  -28.5410  -13.3840   20.6040 C   0  0  0  0  0  2  0  0  0  0  0  0
  -29.7810  -13.7770   19.9250 N   0  0  0  0  0  0  0  0  0  0  0  0
  -31.6140  -15.0250   19.5940 O   0  0  0  0  0  0  0  0  0  0  0  0
  -29.8630  -18.4160   21.4370 C   0  0  0  0  0  3  0  0  0  0  0  0
  -29.0810  -18.6430   19.2570 C   0  0  0  0  0  3  0  0  0  0  0  0
  -29.3510  -19.3400   20.3930 C   0  0  0  0  0  0  0  0  0  0  0  0
  -30.0400  -17.0420   21.3770 C   0  0  0  0  0  3  0  0  0  0  0  0
  -29.2710  -17.0800   19.0660 C   0  0  0  0  0  3  0  0  0  0  0  0
  -29.7630  -16.2330   20.2190 N   0  0  0  0  0  0  0  0  0  0  0  0
  -25.0860  -13.9530   20.4250 C   0  0  0  0  0  0  0  0  0  0  0  0
  -24.0450  -13.1660   20.8320 C   0  0  0  0  0  0  0  0  0  0  0  0
  -24.5100  -11.8180   20.7490 C   0  0  0  0  0  0  0  0  0  0  0  0
  -26.1170  -13.0840   20.1080 N   0  0  0  0  0  0  0  0  0  0  0  0
  -25.7830  -11.7920   20.3690 N   0  0  0  0  0  0  0  0  0  0  0  0
  -23.7980  -10.5490   20.9530 C   0  0  0  0  0  0  0  0  0  0  0  0
  -24.2550   -9.5870   21.8800 C   0  0  0  0  0  3  0  0  0  0  0  0
  -23.5410   -8.3840   22.0760 C   0  0  0  0  0  3  0  0  0  0  0  0
  -22.3560   -8.1360   21.3430 C   0  0  0  0  0  0  0  0  0  0  0  0
  -21.9190   -9.0860   20.4030 C   0  0  0  0  0  3  0  0  0  0  0  0
  -22.6320  -10.2800   20.2080 C   0  0  0  0  0  3  0  0  0  0  0  0
  -21.6130   -6.9840   21.4450 O   0  0  0  0  0  0  0  0  0  0  0  0
  -21.5560   -6.2660   22.6130 C   0  0  0  0  0  0  0  0  0  0  0  0
  -21.1040   -6.8430   23.8200 C   0  0  0  0  0  3  0  0  0  0  0  0
  -20.9950   -6.0520   24.9800 C   0  0  0  0  0  3  0  0  0  0  0  0
  -21.3260   -4.6840   24.9340 C   0  0  0  0  0  0  0  0  0  0  0  0
  -21.7720   -4.1070   23.7330 C   0  0  0  0  0  3  0  0  0  0  0  0
  -21.8830   -4.8960   22.5740 C   0  0  0  0  0  0  0  0  0  0  0  0
  -22.2910   -4.3300   21.4130 F   0  0  0  0  0  0  0  0  0  0  0  0
  -21.2130   -3.9230   26.0470 F   0  0  0  0  0  0  0  0  0  0  0  0
  -22.6640  -13.6320   21.1890 C   0  0  0  0  0  0  0  0  0  0  0  0
  -21.9880  -12.9170   22.0820 N   0  0  0  0  0  0  0  0  0  0  0  0
  -22.1950  -14.6650   20.7150 O   0  0  0  0  0  0  0  0  0  0  0  0
  -22.3820  -12.0820   22.4870 H   0  0  0  0  0  0  0  0  0  0  0  0
  -21.0650  -13.2110   22.3640 H   0  0  0  0  0  0  0  0  0  0  0  0
  -25.2370  -15.3280   20.2730 N   0  0  0  0  0  0  0  0  0  0  0  0
  -24.4860  -15.9820   20.4660 H   0  0  0  0  0  0  0  0  0  0  0  0
  -26.0870  -15.7820   19.9630 H   0  0  0  0  0  0  0  0  0  0  0  0
  -31.7030  -16.7270   23.1770 C   0  0  0  0  0  2  0  0  0  0  0  0
  -30.5580  -16.3780   22.5670 C   0  0  0  0  0  3  0  0  0  0  0  0
  -28.9540  -23.5980   20.3420 C   0  0  0  0  0  3  0  0  0  0  0  0
  -27.9020  -24.8400   19.9730 C   0  0  0  0  0  3  0  0  0  0  0  0
  -28.1470  -26.3400   20.2470 O   0  0  0  0  0  0  0  0  0  0  0  0
  -24.5730  -31.9510   23.3360 C   0  0  0  0  0  0  0  0  0  0  0  0
  -27.0840  -27.3030   20.1950 C   0  0  0  0  0  0  0  0  0  0  0  0
  -23.3410  -30.5910   21.6870 C   0  0  0  0  0  3  0  0  0  0  0  0
  -24.7600  -29.0370   20.2150 C   0  0  0  0  0  0  0  0  0  0  0  0
  -25.8920  -30.8540   21.4900 C   0  0  0  0  0  2  0  0  0  0  0  0
  -25.9470  -29.4750   20.8170 C   0  0  0  0  0  0  0  0  0  0  0  0
  -27.1090  -28.6230   20.7920 C   0  0  0  0  0  3  0  0  0  0  0  0
  -25.8730  -26.9600   19.5550 C   0  0  0  0  0  3  0  0  0  0  0  0
  -24.7340  -27.7920   19.5690 C   0  0  0  0  0  3  0  0  0  0  0  0
  -23.5370  -29.9360   20.2930 C   0  0  0  0  0  2  0  0  0  0  0  0
  -24.6230  -31.1520   22.2260 N   0  0  0  0  0  0  0  0  0  0  0  0
  -23.4980  -32.2330   23.8820 O   0  0  0  0  0  0  0  0  0  0  0  0
  -22.6720  -29.5700   22.6420 C   0  0  0  0  0  0  0  0  0  0  0  0
  -21.3480  -29.3780   22.5010 N   0  0  0  0  0  0  0  0  0  0  0  0
  -23.3450  -28.9530   23.4710 O   0  0  0  0  0  0  0  0  0  0  0  0
  -20.8620  -29.9320   21.8090 H   0  0  0  0  0  0  0  0  0  0  0  0
  -17.9850  -28.1080   22.9420 C   0  0  0  0  0  0  0  0  0  0  0  0
  -20.5320  -28.4290   23.2640 C   0  0  0  0  0  3  0  0  0  0  0  0
  -20.6770  -26.9950   22.7060 C   0  0  0  0  0  2  0  0  0  0  0  0
  -19.6060  -26.6390   21.6700 C   0  0  0  0  0  2  0  0  0  0  0  0
  -18.2070  -26.7570   22.2830 C   0  0  0  0  0  2  0  0  0  0  0  0
  -19.0780  -28.8990   23.3870 C   0  0  0  0  0  0  0  0  0  0  0  0
  -18.8170  -30.1600   23.9660 C   0  0  0  0  0  3  0  0  0  0  0  0
  -17.4970  -30.6310   24.1040 C   0  0  0  0  0  3  0  0  0  0  0  0
  -16.4190  -29.8380   23.6740 C   0  0  0  0  0  3  0  0  0  0  0  0
  -16.6640  -28.5790   23.0970 C   0  0  0  0  0  3  0  0  0  0  0  0
  -25.8650  -32.5670   23.9540 C   0  0  0  0  0  3  0  0  0  0  0  0
  -26.3630  -31.7960   25.2390 C   0  0  1  0  0  0  0  0  0  0  0  0
  -25.2630  -31.5850   26.3050 C   0  0  0  0  0  1  0  0  0  0  0  0
  -26.9280  -30.4080   24.8610 C   0  0  0  0  0  1  0  0  0  0  0  0
  -27.5230  -32.5780   25.9000 C   0  0  0  0  0  1  0  0  0  0  0  0
  -25.5780  -33.9720   24.2800 N   0  0  0  0  0  0  0  0  0  0  0  0
  -25.9040  -35.0180   23.5100 C   0  0  0  0  0  0  0  0  0  0  0  0
  -26.5440  -34.9010   22.4630 O   0  0  0  0  0  0  0  0  0  0  0  0
  -25.0030  -34.1370   25.0940 H   0  0  0  0  0  0  0  0  0  0  0  0
  -24.1770  -36.8270   23.2070 C   0  0  0  0  0  1  0  0  0  0  0  0
  -25.4450  -36.4160   23.9730 C   0  0  0  0  0  3  0  0  0  0  0  0
  -27.6160  -37.2940   24.7140 C   0  0  0  0  0  1  0  0  0  0  0  0
  -26.4820  -37.4600   23.8090 N   0  0  0  0  0  0  0  0  0  0  0  0
  -26.0880  -38.3860   23.9570 H   0  0  0  0  0  0  0  0  0  0  0  0
  2 47  1  0
  2  1  2  0
  3 16  1  0
  4  9  1  0
  5  6  1  0
  5  4  1  0
  7  6  1  0
  7 20  1  0
  7  8  1  0
  9  3  1  0
  9  8  1  0
 10  3  2  0
 12 13  1  0
 13  1  1  0
 13 11  2  0
 14 11  1  0
 14 46  1  0
 15 12  2  0
 15 16  1  0
 16 14  1  0
 17 18  2  0
 18 37  1  0
 19 18  1  0
 19 22  1  0
 20 21  1  0
 20 17  1  0
 21 19  2  0
 22 23  1  0
 23 24  2  0
 25 28  1  0
 25 24  1  0
 26 25  2  0
 27 26  1  0
 27 22  2  0
 28 29  1  0
 29 30  1  0
 30 31  2  0
 32 31  1  0
 32 36  1  0
 33 32  2  0
 34 29  2  0
 34 33  1  0
 35 34  1  0
 37 38  1  0
 38 41  1  0
 38 40  1  0
 39 37  2  0
 42 17  1  0
 42 43  1  0
 44 42  1  0
 46 45  2  0
 48 49  1  0
 48 47  2  0
 50 61  2  0
 51 49  1  0
 51 56  1  0
 52 60  1  0
 52 62  1  0
 53 59  1  0
 53 55  1  0
 54 60  1  0
 55 54  1  0
 56 55  2  0
 57 58  1  0
 57 51  2  0
 58 53  2  0
 59 52  1  0
 60 50  1  0
 62 64  2  0
 63 62  1  0
 65 63  1  0
 66 75  2  0
 66 71  1  0
 67 63  1  0
 67 71  1  0
 68 67  1  0
 69 70  1  0
 69 68  1  0
 70 66  1  0
 71 72  2  0
 72 73  1  0
 74 73  2  0
 75 74  1  0
 76 50  1  0
 76 81  1  0
 76 77  1  0
 77 80  1  1
 77 78  1  0
 79 77  1  0
 81 84  1  0
 82 86  1  0
 82 81  1  0
 83 82  2  0
 86 85  1  0
 88 89  1  0
 88 86  1  0
 88 87  1  0
M  ISO  4   3 100  16 100  48 101  49 101
M  END
>  <TORSDO>  (77) 
F 19

>  <SCORE>  (77) 
-11.956

>  <name>  (77) 
76

>  <ligand_id>  (77) 
76

>  <original_smiles>  (77) 
[H]C([H])=C([H])C1=C([H])C(C([H])=C([H])C([H])([H])C([H])([H])Oc2c([H])c([H])c3c(c2[H])C([H])([H])N(C(=O)C([H])(N([H])C(=O)C([H])(N([H])C([H])([H])[H])C([H])([H])[H])C(C([H])([H])[H])(C([H])([H])[H])C([H])([H])[H])C([H])(C(=O)N([H])C2([H])c4c([H])c([H])c([H])c([H])c4C([H])([H])C([H])([H])C2([H])[H])C3([H])[H])=C([H])C([H])([H])N1C(=O)N1C([H])([H])C([H])([H])C([H])([H])C([H])(n2nc(-c3c([H])c([H])c(Oc4c([H])c([H])c(F)c([H])c4F)c([H])c3[H])c(C(=O)N([H])[H])c2N([H])[H])C1([H])[H]

>  <smiles>  (77) 
[H]C([H])=C([H])C1=C([H])C(C([H])=C([H])C([H])([H])C([H])([H])Oc2c([H])c([H])c3c(c2[H])C([H])([H])N(C(=O)C([H])(N([H])C(=O)C([H])(N([H])C([H])([H])[H])C([H])([H])[H])C(C([H])([H])[H])(C([H])([H])[H])C([H])([H])[H])C([H])(C(=O)N([H])C2([H])c4c([H])c([H])c([H])c([H])c4C([H])([H])C([H])([H])C2([H])[H])C3([H])[H])=C([H])C([H])([H])N1C(=O)N1C([H])([H])C([H])([H])C([H])([H])C([H])(n2nc(-c3c([H])c([H])c(Oc4c([H])c([H])c(F)c([H])c4F)c([H])c3[H])c(C(=O)N([H])[H])c2N([H])[H])C1([H])[H]

$$$$
77:0:0
     RDKit          3D

 91 99  0  0  1  0  0  0  0  0999 V2000
  -29.9300  -20.0890   19.0620 C   0  0  0  0  0  3  0  0  0  0  0  0
  -30.2060  -20.6870   20.2560 C   0  0  0  0  0  0  0  0  0  0  0  0
  -30.5920  -19.6480   21.1680 C   0  0  0  0  0  3  0  0  0  0  0  0
  -30.5410  -18.4720   20.4390 C   0  0  0  0  0  0  0  0  0  0  0  0
  -30.1450  -18.7470   19.1590 O   0  0  0  0  0  0  0  0  0  0  0  0
  -30.1500  -22.1450   20.5460 C   0  0  0  0  0  3  0  0  0  0  0  0
  -29.7690  -23.1220   19.6890 C   0  0  0  0  0  3  0  0  0  0  0  0
  -29.7840  -24.6260   19.9870 C   0  0  0  0  0  2  0  0  0  0  0  0
  -28.4460  -25.3480   19.7030 C   0  0  0  0  0  2  0  0  0  0  0  0
  -28.5080  -26.7550   20.0160 O   0  0  0  0  0  0  0  0  0  0  0  0
  -24.6360  -31.8040   23.2320 C   0  0  0  0  0  0  0  0  0  0  0  0
  -27.3290  -27.4830   20.0000 C   0  0  0  0  0  0  0  0  0  0  0  0
  -23.4480  -30.4510   21.5380 C   0  0  0  0  0  3  0  0  0  0  0  0
  -24.9190  -28.9820   20.0590 C   0  0  0  0  0  0  0  0  0  0  0  0
  -25.9720  -30.8370   21.3590 C   0  0  0  0  0  2  0  0  0  0  0  0
  -26.0730  -29.4900   20.6700 C   0  0  0  0  0  0  0  0  0  0  0  0
  -27.2780  -28.7480   20.6380 C   0  0  0  0  0  3  0  0  0  0  0  0
  -26.1540  -27.0040   19.3720 C   0  0  0  0  0  3  0  0  0  0  0  0
  -24.9560  -27.7400   19.4080 C   0  0  0  0  0  3  0  0  0  0  0  0
  -23.6670  -29.8270   20.1350 C   0  0  0  0  0  2  0  0  0  0  0  0
  -24.7040  -31.0440   22.1020 N   0  0  0  0  0  0  0  0  0  0  0  0
  -23.5500  -32.0440   23.7790 O   0  0  0  0  0  0  0  0  0  0  0  0
  -22.8060  -29.3880   22.4590 C   0  0  0  0  0  0  0  0  0  0  0  0
  -21.4830  -29.2000   22.3250 N   0  0  0  0  0  0  0  0  0  0  0  0
  -23.4950  -28.7360   23.2480 O   0  0  0  0  0  0  0  0  0  0  0  0
  -20.9870  -29.7790   21.6620 H   0  0  0  0  0  0  0  0  0  0  0  0
  -18.1200  -27.9490   22.7630 C   0  0  0  0  0  0  0  0  0  0  0  0
  -20.6740  -28.2260   23.0580 C   0  0  0  0  0  3  0  0  0  0  0  0
  -20.7960  -26.8180   22.4330 C   0  0  0  0  0  2  0  0  0  0  0  0
  -19.7020  -26.5170   21.4040 C   0  0  0  0  0  2  0  0  0  0  0  0
  -18.3160  -26.6250   22.0450 C   0  0  0  0  0  2  0  0  0  0  0  0
  -19.2280  -28.7080   23.2260 C   0  0  0  0  0  0  0  0  0  0  0  0
  -18.9920  -29.9490   23.8570 C   0  0  0  0  0  3  0  0  0  0  0  0
  -17.6810  -30.4300   24.0310 C   0  0  0  0  0  3  0  0  0  0  0  0
  -16.5870  -29.6670   23.5860 C   0  0  0  0  0  3  0  0  0  0  0  0
  -16.8080  -28.4290   22.9580 C   0  0  0  0  0  3  0  0  0  0  0  0
  -25.9140  -32.4250   23.8780 C   0  0  0  0  0  3  0  0  0  0  0  0
  -25.6110  -33.8260   24.1960 N   0  0  0  0  0  0  0  0  0  0  0  0
  -25.9440  -34.8700   23.4240 C   0  0  0  0  0  0  0  0  0  0  0  0
  -26.6110  -34.7550   22.3920 O   0  0  0  0  0  0  0  0  0  0  0  0
  -25.0190  -33.9910   24.9960 H   0  0  0  0  0  0  0  0  0  0  0  0
  -24.2120  -36.6580   23.0660 C   0  0  0  0  0  1  0  0  0  0  0  0
  -25.4620  -36.2650   23.8700 C   0  0  0  0  0  3  0  0  0  0  0  0
  -27.6030  -37.1620   24.6690 C   0  0  0  0  0  1  0  0  0  0  0  0
  -26.4930  -37.3160   23.7330 N   0  0  0  0  0  0  0  0  0  0  0  0
  -26.0880  -38.2380   23.8700 H   0  0  0  0  0  0  0  0  0  0  0  0
  -26.3980  -31.6530   25.1660 C   0  0  1  0  0  0  0  0  0  0  0  0
  -25.2850  -31.4400   26.2180 C   0  0  0  0  0  1  0  0  0  0  0  0
  -26.9640  -30.2630   24.7880 C   0  0  0  0  0  1  0  0  0  0  0  0
  -27.5520  -32.4310   25.8420 C   0  0  0  0  0  1  0  0  0  0  0  0
  -30.8310  -17.0720   20.6760 C   0  0  0  0  0  0  0  0  0  0  0  0
  -30.9720  -15.8750   21.3130 C   0  0  0  0  0  3  0  0  0  0  0  0
  -31.6340  -14.7780   20.6030 C   0  0  0  0  0  0  0  0  0  0  0  0
  -31.2620  -12.6860   19.3430 C   0  0  0  0  0  2  0  0  0  0  0  0
  -30.3720  -13.0010   18.1220 C   0  0  0  0  0  2  0  0  0  0  0  0
  -28.8780  -12.9140   18.4970 C   0  0  0  0  0  2  0  0  0  0  0  0
  -28.5440  -13.6980   19.7950 C   0  0  0  0  0  3  0  0  0  0  0  0
  -29.5500  -13.3610   20.9160 C   0  0  0  0  0  2  0  0  0  0  0  0
  -30.9080  -13.6370   20.4140 N   0  0  0  0  0  0  0  0  0  0  0  0
  -32.7630  -14.9120   20.1190 O   0  0  0  0  0  0  0  0  0  0  0  0
  -26.1520  -14.3880   20.4430 C   0  0  0  0  0  0  0  0  0  0  0  0
  -25.0400  -13.6540   20.7550 C   0  0  0  0  0  0  0  0  0  0  0  0
  -25.4430  -12.2850   20.7010 C   0  0  0  0  0  0  0  0  0  0  0  0
  -27.1650  -13.4690   20.2200 N   0  0  0  0  0  0  0  0  0  0  0  0
  -26.7390  -12.1970   20.4300 N   0  0  0  0  0  0  0  0  0  0  0  0
  -24.6590  -11.0510   20.8330 C   0  0  0  0  0  0  0  0  0  0  0  0
  -25.0040  -10.0530   21.7710 C   0  0  0  0  0  3  0  0  0  0  0  0
  -24.2240   -8.8830   21.8920 C   0  0  0  0  0  3  0  0  0  0  0  0
  -23.0830   -8.7030   21.0730 C   0  0  0  0  0  0  0  0  0  0  0  0
  -22.7570   -9.6890   20.1250 C   0  0  0  0  0  3  0  0  0  0  0  0
  -23.5380  -10.8500   20.0030 C   0  0  0  0  0  3  0  0  0  0  0  0
  -22.2810   -7.5880   21.1030 O   0  0  0  0  0  0  0  0  0  0  0  0
  -22.0510   -6.8970   22.2650 C   0  0  0  0  0  0  0  0  0  0  0  0
  -21.5100   -7.5230   23.4110 C   0  0  0  0  0  3  0  0  0  0  0  0
  -21.2260   -6.7600   24.5610 C   0  0  0  0  0  3  0  0  0  0  0  0
  -21.4700   -5.3750   24.5660 C   0  0  0  0  0  0  0  0  0  0  0  0
  -22.0040   -4.7490   23.4260 C   0  0  0  0  0  3  0  0  0  0  0  0
  -22.2910   -5.5080   22.2770 C   0  0  0  0  0  0  0  0  0  0  0  0
  -22.7850   -4.8970   21.1740 F   0  0  0  0  0  0  0  0  0  0  0  0
  -21.1910   -4.6400   25.6690 F   0  0  0  0  0  0  0  0  0  0  0  0
  -23.6560  -14.1840   21.0000 C   0  0  0  0  0  0  0  0  0  0  0  0
  -22.8840  -13.5150   21.8500 N   0  0  0  0  0  0  0  0  0  0  0  0
  -23.2690  -15.2260   20.4740 O   0  0  0  0  0  0  0  0  0  0  0  0
  -23.2080  -12.6720   22.2990 H   0  0  0  0  0  0  0  0  0  0  0  0
  -21.9540  -13.8530   22.0560 H   0  0  0  0  0  0  0  0  0  0  0  0
  -26.3820  -15.7540   20.3110 N   0  0  0  0  0  0  0  0  0  0  0  0
  -25.6450  -16.4430   20.4210 H   0  0  0  0  0  0  0  0  0  0  0  0
  -27.2700  -16.1630   20.0450 H   0  0  0  0  0  0  0  0  0  0  0  0
  -31.0090  -19.8270   22.6090 C   0  0  0  0  0  2  0  0  0  0  0  0
  -30.6040  -21.0540   24.5840 C   0  0  0  0  0  1  0  0  0  0  0  0
  -30.1410  -20.7270   23.2840 O   0  0  0  0  0  0  0  0  0  0  0  0
  1  5  1  0
  1  2  2  0
  2  6  1  0
  2  3  1  0
  3 89  1  0
  4 51  2  0
  4  3  1  0
  5  4  1  0
  7  8  1  0
  7  6  2  0
  9  8  1  0
  9 10  1  0
 11 22  2  0
 12 10  1  0
 12 17  1  0
 13 21  1  0
 13 23  1  0
 14 20  1  0
 14 16  1  0
 15 21  1  0
 16 15  1  0
 17 16  2  0
 18 19  1  0
 18 12  2  0
 19 14  2  0
 20 13  1  0
 21 11  1  0
 23 25  2  0
 24 23  1  0
 26 24  1  0
 27 36  2  0
 27 32  1  0
 28 24  1  0
 28 32  1  0
 29 28  1  0
 30 31  1  0
 30 29  1  0
 31 27  1  0
 32 33  2  0
 33 34  1  0
 35 34  2  0
 36 35  1  0
 37 11  1  0
 37 38  1  0
 37 47  1  0
 38 41  1  0
 39 43  1  0
 39 38  1  0
 40 39  2  0
 43 42  1  0
 45 46  1  0
 45 43  1  0
 45 44  1  0
 47 50  1  1
 47 48  1  0
 49 47  1  0
 51 52  2  0
 53 52  1  0
 54 59  1  0
 55 56  1  0
 55 54  1  0
 57 56  1  0
 57 64  1  0
 57 58  1  0
 59 53  1  0
 59 58  1  0
 60 53  2  0
 61 62  2  0
 62 81  1  0
 63 62  1  0
 63 66  1  0
 64 65  1  0
 64 61  1  0
 65 63  2  0
 66 67  1  0
 67 68  2  0
 69 72  1  0
 69 68  1  0
 70 69  2  0
 71 70  1  0
 71 66  2  0
 72 73  1  0
 73 78  2  0
 73 74  1  0
 74 75  2  0
 75 76  1  0
 76 80  1  0
 77 76  2  0
 78 77  1  0
 79 78  1  0
 81 82  1  0
 82 85  1  0
 82 84  1  0
 83 81  2  0
 86 87  1  0
 86 61  1  0
 88 86  1  0
 89 91  1  0
 91 90  1  0
M  ISO  4   9 101  10 101  52 100  53 100
M  END
>  <TORSDO>  (78) 
F 22

>  <SCORE>  (78) 
-12.204

>  <name>  (78) 
77

>  <ligand_id>  (78) 
77

>  <original_smiles>  (78) 
[H]C(C(=O)N1C([H])([H])C([H])([H])C([H])([H])C([H])(n2nc(-c3c([H])c([H])c(Oc4c([H])c([H])c(F)c([H])c4F)c([H])c3[H])c(C(=O)N([H])[H])c2N([H])[H])C1([H])[H])=C([H])c1oc([H])c(C([H])=C([H])C([H])([H])C([H])([H])Oc2c([H])c([H])c3c(c2[H])C([H])([H])N(C(=O)C([H])(N([H])C(=O)C([H])(N([H])C([H])([H])[H])C([H])([H])[H])C(C([H])([H])[H])(C([H])([H])[H])C([H])([H])[H])C([H])(C(=O)N([H])C2([H])c4c([H])c([H])c([H])c([H])c4C([H])([H])C([H])([H])C2([H])[H])C3([H])[H])c1C([H])([H])OC([H])([H])[H]

>  <smiles>  (78) 
[H]C(C(=O)N1C([H])([H])C([H])([H])C([H])([H])C([H])(n2nc(-c3c([H])c([H])c(Oc4c([H])c([H])c(F)c([H])c4F)c([H])c3[H])c(C(=O)N([H])[H])c2N([H])[H])C1([H])[H])=C([H])c1oc([H])c(C([H])=C([H])C([H])([H])C([H])([H])Oc2c([H])c([H])c3c(c2[H])C([H])([H])N(C(=O)C([H])(N([H])C(=O)C([H])(N([H])C([H])([H])[H])C([H])([H])[H])C(C([H])([H])[H])(C([H])([H])[H])C([H])([H])[H])C([H])(C(=O)N([H])C2([H])c4c([H])c([H])c([H])c([H])c4C([H])([H])C([H])([H])C2([H])[H])C3([H])[H])c1C([H])([H])OC([H])([H])[H]

$$$$
78:0:0
     RDKit          3D

 94102  0  0  1  0  0  0  0  0999 V2000
  -31.1150  -18.1420   19.0950 C   0  0  0  0  0  3  0  0  0  0  0  0
  -28.9610  -18.9260   19.8760 C   0  0  0  0  0  3  0  0  0  0  0  0
  -30.8900  -16.8260   19.6330 C   0  0  0  0  0  0  0  0  0  0  0  0
  -28.6870  -17.6530   20.4020 C   0  0  0  0  0  0  0  0  0  0  0  0
  -29.6600  -16.6170   20.3430 C   0  0  0  0  0  0  0  0  0  0  0  0
  -30.1820  -19.2240   19.2360 C   0  0  0  0  0  0  0  0  0  0  0  0
  -27.3230  -17.4490   21.0530 C   0  0  0  0  0  1  0  0  0  0  0  0
  -31.9900  -15.7590   19.6590 C   0  0  0  0  0  0  0  0  0  0  0  0
  -32.9540  -15.8850   20.4750 N   0  0  0  0  0  0  0  0  0  0  0  0
  -33.6270  -15.1380   20.3490 H   0  0  0  0  0  0  0  0  0  0  0  0
  -32.0460  -14.5730   18.6620 C   0  0  0  0  0  0  0  0  0  0  0  0
  -31.5930  -12.1840   18.1320 C   0  0  0  0  0  2  0  0  0  0  0  0
  -30.4990  -12.0190   17.0600 C   0  0  0  0  0  2  0  0  0  0  0  0
  -29.1080  -11.9790   17.7150 C   0  0  0  0  0  2  0  0  0  0  0  0
  -28.9060  -13.1400   18.7210 C   0  0  0  0  0  3  0  0  0  0  0  0
  -30.1010  -13.2730   19.6890 C   0  0  0  0  0  2  0  0  0  0  0  0
  -31.3320  -13.4230   18.9010 N   0  0  0  0  0  0  0  0  0  0  0  0
  -32.9280  -14.6100   17.7980 O   0  0  0  0  0  0  0  0  0  0  0  0
  -26.8100  -14.0060   19.9300 C   0  0  0  0  0  0  0  0  0  0  0  0
  -25.7240  -13.3610   20.4570 C   0  0  0  0  0  0  0  0  0  0  0  0
  -25.9570  -11.9650   20.2540 C   0  0  0  0  0  0  0  0  0  0  0  0
  -27.6430  -13.0120   19.4420 N   0  0  0  0  0  0  0  0  0  0  0  0
  -27.1440  -11.7740   19.6940 N   0  0  0  0  0  0  0  0  0  0  0  0
  -25.0930  -10.8050   20.5100 C   0  0  0  0  0  0  0  0  0  0  0  0
  -25.4400   -9.8200   21.4610 C   0  0  0  0  0  3  0  0  0  0  0  0
  -24.5840   -8.7240   21.7020 C   0  0  0  0  0  3  0  0  0  0  0  0
  -23.3660   -8.6070   20.9930 C   0  0  0  0  0  0  0  0  0  0  0  0
  -23.0340   -9.5790   20.0330 C   0  0  0  0  0  3  0  0  0  0  0  0
  -23.8900  -10.6670   19.7900 C   0  0  0  0  0  3  0  0  0  0  0  0
  -22.4830   -7.5650   21.1440 O   0  0  0  0  0  0  0  0  0  0  0  0
  -22.2000   -7.0330   22.3760 C   0  0  0  0  0  0  0  0  0  0  0  0
  -21.6620   -7.8170   23.4200 C   0  0  0  0  0  3  0  0  0  0  0  0
  -21.3210   -7.2150   24.6470 C   0  0  0  0  0  3  0  0  0  0  0  0
  -21.5080   -5.8310   24.8290 C   0  0  0  0  0  0  0  0  0  0  0  0
  -22.0400   -5.0490   23.7900 C   0  0  0  0  0  3  0  0  0  0  0  0
  -22.3820   -5.6480   22.5660 C   0  0  0  0  0  0  0  0  0  0  0  0
  -22.8750   -4.8870   21.5590 F   0  0  0  0  0  0  0  0  0  0  0  0
  -21.1720   -5.2510   26.0060 F   0  0  0  0  0  0  0  0  0  0  0  0
  -24.4930  -14.0030   21.0290 C   0  0  0  0  0  0  0  0  0  0  0  0
  -23.8520  -13.3500   21.9940 N   0  0  0  0  0  0  0  0  0  0  0  0
  -24.1220  -15.1150   20.6570 O   0  0  0  0  0  0  0  0  0  0  0  0
  -24.1670  -12.4450   22.3060 H   0  0  0  0  0  0  0  0  0  0  0  0
  -23.0350  -13.7640   22.4190 H   0  0  0  0  0  0  0  0  0  0  0  0
  -27.1510  -15.3480   19.8080 N   0  0  0  0  0  0  0  0  0  0  0  0
  -26.5360  -16.0920   20.1240 H   0  0  0  0  0  0  0  0  0  0  0  0
  -28.0020  -15.6940   19.3850 H   0  0  0  0  0  0  0  0  0  0  0  0
  -29.5090  -15.5150   22.6500 C   0  0  0  0  0  1  0  0  0  0  0  0
  -29.3740  -15.3260   21.1300 C   0  0  0  0  0  2  0  0  0  0  0  0
  -30.4570  -20.5250   18.7670 O   0  0  0  0  0  0  0  0  0  0  0  0
  -29.6180  -21.6490   19.2000 C   0  0  0  0  0  3  0  0  0  0  0  0
  -29.8980  -23.0610   18.5610 C   0  0  0  0  0  3  0  0  0  0  0  0
  -29.0590  -24.2730   19.1430 C   0  0  0  0  0  2  0  0  0  0  0  0
  -29.2750  -25.6810   18.4760 C   0  0  0  0  0  2  0  0  0  0  0  0
  -29.0080  -26.8560   19.3040 O   0  0  0  0  0  0  0  0  0  0  0  0
  -24.7680  -31.1760   23.1440 C   0  0  0  0  0  0  0  0  0  0  0  0
  -27.7620  -27.4710   19.3920 C   0  0  0  0  0  0  0  0  0  0  0  0
  -23.6750  -29.9490   21.2970 C   0  0  0  0  0  3  0  0  0  0  0  0
  -25.2430  -28.7810   19.6480 C   0  0  0  0  0  0  0  0  0  0  0  0
  -26.1620  -30.5440   21.1600 C   0  0  0  0  0  2  0  0  0  0  0  0
  -26.3610  -29.2940   20.3160 C   0  0  0  0  0  0  0  0  0  0  0  0
  -27.6180  -28.6460   20.1830 C   0  0  0  0  0  3  0  0  0  0  0  0
  -26.6120  -26.9790   18.7320 C   0  0  0  0  0  3  0  0  0  0  0  0
  -25.3660  -27.6270   18.8560 C   0  0  0  0  0  3  0  0  0  0  0  0
  -23.9320  -29.5180   19.8260 C   0  0  0  0  0  2  0  0  0  0  0  0
  -24.8880  -30.5650   21.9280 N   0  0  0  0  0  0  0  0  0  0  0  0
  -23.6740  -31.2600   23.7170 O   0  0  0  0  0  0  0  0  0  0  0  0
  -23.1240  -28.7360   22.0840 C   0  0  0  0  0  0  0  0  0  0  0  0
  -21.8400  -28.4040   21.8650 N   0  0  0  0  0  0  0  0  0  0  0  0
  -23.8520  -28.1000   22.8500 O   0  0  0  0  0  0  0  0  0  0  0  0
  -21.3020  -28.9900   21.2420 H   0  0  0  0  0  0  0  0  0  0  0  0
  -18.6600  -26.6840   21.9620 C   0  0  0  0  0  0  0  0  0  0  0  0
  -21.1280  -27.2720   22.4620 C   0  0  0  0  0  3  0  0  0  0  0  0
  -21.4780  -25.9460   21.7460 C   0  0  0  0  0  2  0  0  0  0  0  0
  -20.5040  -25.5930   20.6180 C   0  0  0  0  0  2  0  0  0  0  0  0
  -19.0790  -25.4620   21.1620 C   0  0  0  0  0  2  0  0  0  0  0  0
  -19.6210  -27.5420   22.5600 C   0  0  0  0  0  0  0  0  0  0  0  0
  -19.1760  -28.6810   23.2640 C   0  0  0  0  0  3  0  0  0  0  0  0
  -17.8020  -28.9670   23.3760 C   0  0  0  0  0  3  0  0  0  0  0  0
  -16.8550  -28.1070   22.7950 C   0  0  0  0  0  3  0  0  0  0  0  0
  -17.2850  -26.9660   22.0940 C   0  0  0  0  0  3  0  0  0  0  0  0
  -25.9950  -31.8170   23.8620 C   0  0  0  0  0  3  0  0  0  0  0  0
  -25.6310  -33.1950   24.2240 N   0  0  0  0  0  0  0  0  0  0  0  0
  -26.0020  -34.2850   23.5380 C   0  0  0  0  0  0  0  0  0  0  0  0
  -26.7530  -34.2370   22.5620 O   0  0  0  0  0  0  0  0  0  0  0  0
  -24.9720  -33.3050   24.9810 H   0  0  0  0  0  0  0  0  0  0  0  0
  -24.2760  -36.0700   23.1130 C   0  0  0  0  0  1  0  0  0  0  0  0
  -25.4490  -35.6450   24.0120 C   0  0  0  0  0  3  0  0  0  0  0  0
  -27.4820  -36.5310   25.0680 C   0  0  0  0  0  1  0  0  0  0  0  0
  -26.4690  -36.7170   24.0350 N   0  0  0  0  0  0  0  0  0  0  0  0
  -26.0330  -37.6250   24.1790 H   0  0  0  0  0  0  0  0  0  0  0  0
  -26.4620  -31.0140   25.1370 C   0  0  1  0  0  0  0  0  0  0  0  0
  -25.3210  -30.7050   26.1360 C   0  0  0  0  0  1  0  0  0  0  0  0
  -27.1030  -29.6700   24.7220 C   0  0  0  0  0  1  0  0  0  0  0  0
  -27.5540  -31.8110   25.8920 C   0  0  0  0  0  1  0  0  0  0  0  0
  1  6  2  0
  1  3  1  0
  2  4  2  0
  3  8  1  0
  3  5  2  0
  4  7  1  0
  5  4  1  0
  5 48  1  0
  6  2  1  0
  8  9  2  0
 10  9  1  0
 11 17  1  0
 11  8  1  0
 12 17  1  0
 13 14  1  0
 13 12  1  0
 15 14  1  0
 15 22  1  0
 15 16  1  0
 17 16  1  0
 18 11  2  0
 19 20  2  0
 20 39  1  0
 21 20  1  0
 21 24  1  0
 22 23  1  0
 22 19  1  0
 23 21  2  0
 24 25  1  0
 25 26  2  0
 27 30  1  0
 27 26  1  0
 28 27  2  0
 29 28  1  0
 29 24  2  0
 30 31  1  0
 31 36  2  0
 31 32  1  0
 32 33  2  0
 33 34  1  0
 34 38  1  0
 35 34  2  0
 36 35  1  0
 37 36  1  0
 39 40  1  0
 40 42  1  0
 40 43  1  0
 41 39  2  0
 44 19  1  0
 44 45  1  0
 46 44  1  0
 48 47  1  0
 49 50  1  0
 49  6  1  0
 51 52  1  0
 51 50  2  0
 53 52  1  0
 53 54  1  0
 54 56  1  0
 55 66  2  0
 56 61  1  0
 57 65  1  0
 57 67  1  0
 58 64  1  0
 58 60  1  0
 59 65  1  0
 60 59  1  0
 61 60  2  0
 62 63  1  0
 62 56  2  0
 63 58  2  0
 64 57  1  0
 65 55  1  0
 67 69  2  0
 68 67  1  0
 70 68  1  0
 71 80  2  0
 71 76  1  0
 72 68  1  0
 72 76  1  0
 73 72  1  0
 74 75  1  0
 74 73  1  0
 75 71  1  0
 76 77  2  0
 77 78  1  0
 79 78  2  0
 80 79  1  0
 81 55  1  0
 81 82  1  0
 81 91  1  0
 82 85  1  0
 83 87  1  0
 83 82  1  0
 84 83  2  0
 87 86  1  0
 87 89  1  0
 89 90  1  0
 89 88  1  0
 91 94  1  1
 91 92  1  0
 93 91  1  0
M  ISO  4   8 100  11 100  53 101  54 101
M  END
>  <TORSDO>  (79) 
F 23

>  <SCORE>  (79) 
-4.898

>  <name>  (79) 
78

>  <ligand_id>  (79) 
78

>  <original_smiles>  (79) 
[H]N=C(C(=O)N1C([H])([H])C([H])([H])C([H])([H])C([H])(n2nc(-c3c([H])c([H])c(Oc4c([H])c([H])c(F)c([H])c4F)c([H])c3[H])c(C(=O)N([H])[H])c2N([H])[H])C1([H])[H])c1c([H])c(OC([H])([H])C([H])([H])C([H])([H])C([H])([H])Oc2c([H])c([H])c3c(c2[H])C([H])([H])N(C(=O)C([H])(N([H])C(=O)C([H])(N([H])C([H])([H])[H])C([H])([H])[H])C(C([H])([H])[H])(C([H])([H])[H])C([H])([H])[H])C([H])(C(=O)N([H])C2([H])c4c([H])c([H])c([H])c([H])c4C([H])([H])C([H])([H])C2([H])[H])C3([H])[H])c([H])c(C([H])([H])[H])c1C([H])([H])C([H])([H])[H]

>  <smiles>  (79) 
[H]N=C(C(=O)N1C([H])([H])C([H])([H])C([H])([H])C([H])(n2nc(-c3c([H])c([H])c(Oc4c([H])c([H])c(F)c([H])c4F)c([H])c3[H])c(C(=O)N([H])[H])c2N([H])[H])C1([H])[H])c1c([H])c(OC([H])([H])C([H])([H])C([H])([H])C([H])([H])Oc2c([H])c([H])c3c(c2[H])C([H])([H])N(C(=O)C([H])(N([H])C(=O)C([H])(N([H])C([H])([H])[H])C([H])([H])[H])C(C([H])([H])[H])(C([H])([H])[H])C([H])([H])[H])C([H])(C(=O)N([H])C2([H])c4c([H])c([H])c([H])c([H])c4C([H])([H])C([H])([H])C2([H])[H])C3([H])[H])c([H])c(C([H])([H])[H])c1C([H])([H])C([H])([H])[H]

$$$$
79:0:0
     RDKit          3D

 94102  0  0  1  0  0  0  0  0999 V2000
  -27.3440  -17.9970   19.0920 C   0  0  0  0  0  3  0  0  0  0  0  0
  -29.6480  -18.1280   20.6510 C   0  0  0  0  0  3  0  0  0  0  0  0
  -27.6140  -19.1850   19.7950 C   0  0  0  0  0  0  0  0  0  0  0  0
  -29.3590  -16.8940   19.9840 C   0  0  0  0  0  0  0  0  0  0  0  0
  -28.2220  -16.8980   19.1150 C   0  0  0  0  0  0  0  0  0  0  0  0
  -28.8410  -19.2980   20.4960 C   0  0  0  0  0  0  0  0  0  0  0  0
  -27.9050  -15.8090   18.0880 C   0  0  0  0  0  1  0  0  0  0  0  0
  -30.3770  -15.7690   19.9400 C   0  0  0  0  0  0  0  0  0  0  0  0
  -31.0250  -15.6350   18.8540 N   0  0  0  0  0  0  0  0  0  0  0  0
  -30.7130  -16.3080   18.1650 H   0  0  0  0  0  0  0  0  0  0  0  0
  -30.7450  -14.8580   21.1550 C   0  0  0  0  0  0  0  0  0  0  0  0
  -30.6870  -12.5130   20.4400 C   0  0  0  0  0  2  0  0  0  0  0  0
  -29.9090  -12.4070   19.1130 C   0  0  0  0  0  2  0  0  0  0  0  0
  -28.3910  -12.2950   19.3620 C   0  0  0  0  0  2  0  0  0  0  0  0
  -27.8470  -13.2810   20.4350 C   0  0  0  0  0  3  0  0  0  0  0  0
  -28.7630  -13.3500   21.6680 C   0  0  0  0  0  2  0  0  0  0  0  0
  -30.1210  -13.6430   21.1880 N   0  0  0  0  0  0  0  0  0  0  0  0
  -31.9330  -14.9630   21.4620 O   0  0  0  0  0  0  0  0  0  0  0  0
  -25.3770  -13.8730   20.8210 C   0  0  0  0  0  0  0  0  0  0  0  0
  -24.2770  -13.0920   21.0520 C   0  0  0  0  0  0  0  0  0  0  0  0
  -24.7570  -11.7490   21.1260 C   0  0  0  0  0  0  0  0  0  0  0  0
  -26.4530  -13.0020   20.7620 N   0  0  0  0  0  0  0  0  0  0  0  0
  -26.0780  -11.7230   21.0100 N   0  0  0  0  0  0  0  0  0  0  0  0
  -24.0310  -10.4790   21.2480 C   0  0  0  0  0  0  0  0  0  0  0  0
  -24.3770   -9.5260   22.2310 C   0  0  0  0  0  3  0  0  0  0  0  0
  -23.6510   -8.3210   22.3420 C   0  0  0  0  0  3  0  0  0  0  0  0
  -22.5670   -8.0610   21.4710 C   0  0  0  0  0  0  0  0  0  0  0  0
  -22.2440   -9.0040   20.4790 C   0  0  0  0  0  3  0  0  0  0  0  0
  -22.9700  -10.2000   20.3650 C   0  0  0  0  0  3  0  0  0  0  0  0
  -21.8220   -6.9070   21.4900 O   0  0  0  0  0  0  0  0  0  0  0  0
  -21.6960   -6.1510   22.6280 C   0  0  0  0  0  0  0  0  0  0  0  0
  -21.1780   -6.6910   23.8250 C   0  0  0  0  0  3  0  0  0  0  0  0
  -20.9990   -5.8610   24.9510 C   0  0  0  0  0  3  0  0  0  0  0  0
  -21.3290   -4.4950   24.8790 C   0  0  0  0  0  0  0  0  0  0  0  0
  -21.8400   -3.9550   23.6860 C   0  0  0  0  0  3  0  0  0  0  0  0
  -22.0200   -4.7810   22.5630 C   0  0  0  0  0  0  0  0  0  0  0  0
  -22.4910   -4.2510   21.4080 F   0  0  0  0  0  0  0  0  0  0  0  0
  -21.1500   -3.6960   25.9580 F   0  0  0  0  0  0  0  0  0  0  0  0
  -22.8500  -13.5510   21.1080 C   0  0  0  0  0  0  0  0  0  0  0  0
  -22.0190  -12.8710   21.8910 N   0  0  0  0  0  0  0  0  0  0  0  0
  -22.4720  -14.5490   20.4950 O   0  0  0  0  0  0  0  0  0  0  0  0
  -22.3330  -12.0610   22.4040 H   0  0  0  0  0  0  0  0  0  0  0  0
  -21.0560  -13.1610   21.9720 H   0  0  0  0  0  0  0  0  0  0  0  0
  -25.5420  -15.2430   20.6390 N   0  0  0  0  0  0  0  0  0  0  0  0
  -24.7610  -15.8880   20.6490 H   0  0  0  0  0  0  0  0  0  0  0  0
  -26.4300  -15.7050   20.4930 H   0  0  0  0  0  0  0  0  0  0  0  0
  -25.7750  -20.5530   18.7540 C   0  0  0  0  0  2  0  0  0  0  0  0
  -26.6540  -20.3020   19.7390 C   0  0  0  0  0  3  0  0  0  0  0  0
  -29.2440  -20.5190   21.0350 O   0  0  0  0  0  0  0  0  0  0  0  0
  -29.2570  -21.6810   20.1580 C   0  0  0  0  0  2  0  0  0  0  0  0
  -28.7430  -23.0050   20.8220 C   0  0  0  0  0  2  0  0  0  0  0  0
  -28.7450  -24.2920   19.9240 C   0  0  0  0  0  2  0  0  0  0  0  0
  -28.1360  -25.5620   20.6030 C   0  0  0  0  0  2  0  0  0  0  0  0
  -28.1610  -26.7840   19.8160 O   0  0  0  0  0  0  0  0  0  0  0  0
  -24.5600  -31.9680   23.1980 C   0  0  0  0  0  0  0  0  0  0  0  0
  -27.0200  -27.5690   19.8870 C   0  0  0  0  0  0  0  0  0  0  0  0
  -23.2670  -30.6160   21.5840 C   0  0  0  0  0  3  0  0  0  0  0  0
  -24.6410  -29.1080   20.0450 C   0  0  0  0  0  0  0  0  0  0  0  0
  -25.7840  -30.9670   21.2640 C   0  0  0  0  0  2  0  0  0  0  0  0
  -25.8330  -29.6090   20.5840 C   0  0  0  0  0  0  0  0  0  0  0  0
  -27.0290  -28.8510   20.4930 C   0  0  0  0  0  3  0  0  0  0  0  0
  -25.8100  -27.0920   19.3380 C   0  0  0  0  0  3  0  0  0  0  0  0
  -24.6260  -27.8510   19.4180 C   0  0  0  0  0  3  0  0  0  0  0  0
  -23.4040  -29.9710   20.1780 C   0  0  0  0  0  2  0  0  0  0  0  0
  -24.5590  -31.1970   22.0730 N   0  0  0  0  0  0  0  0  0  0  0  0
  -23.5080  -32.2270   23.7990 O   0  0  0  0  0  0  0  0  0  0  0  0
  -22.6580  -29.5720   22.5480 C   0  0  0  0  0  0  0  0  0  0  0  0
  -21.3370  -29.3510   22.4380 N   0  0  0  0  0  0  0  0  0  0  0  0
  -23.3700  -28.9630   23.3500 O   0  0  0  0  0  0  0  0  0  0  0  0
  -20.8210  -29.8960   21.7610 H   0  0  0  0  0  0  0  0  0  0  0  0
  -18.0200  -28.0000   22.9230 C   0  0  0  0  0  0  0  0  0  0  0  0
  -20.5590  -28.3860   23.2130 C   0  0  0  0  0  3  0  0  0  0  0  0
  -20.7370  -26.9540   22.6570 C   0  0  0  0  0  2  0  0  0  0  0  0
  -19.6610  -26.5640   21.6380 C   0  0  0  0  0  2  0  0  0  0  0  0
  -18.2680  -26.6510   22.2670 C   0  0  0  0  0  2  0  0  0  0  0  0
  -19.0960  -28.8210   23.3520 C   0  0  0  0  0  0  0  0  0  0  0  0
  -18.8110  -30.0810   23.9210 C   0  0  0  0  0  3  0  0  0  0  0  0
  -17.4820  -30.5210   24.0690 C   0  0  0  0  0  3  0  0  0  0  0  0
  -16.4200  -29.6970   23.6570 C   0  0  0  0  0  3  0  0  0  0  0  0
  -16.6900  -28.4380   23.0900 C   0  0  0  0  0  3  0  0  0  0  0  0
  -25.8770  -32.5790   23.7710 C   0  0  0  0  0  3  0  0  0  0  0  0
  -25.5930  -33.9710   24.1440 N   0  0  0  0  0  0  0  0  0  0  0  0
  -25.9090  -35.0380   23.3990 C   0  0  0  0  0  0  0  0  0  0  0  0
  -26.5430  -34.9540   22.3430 O   0  0  0  0  0  0  0  0  0  0  0  0
  -25.0290  -34.1110   24.9700 H   0  0  0  0  0  0  0  0  0  0  0  0
  -24.1880  -36.8550   23.1470 C   0  0  0  0  0  1  0  0  0  0  0  0
  -25.4510  -36.4190   23.9050 C   0  0  0  0  0  3  0  0  0  0  0  0
  -27.6220  -37.2630   24.6840 C   0  0  0  0  0  1  0  0  0  0  0  0
  -26.4900  -37.4650   23.7830 N   0  0  0  0  0  0  0  0  0  0  0  0
  -26.0980  -38.3850   23.9690 H   0  0  0  0  0  0  0  0  0  0  0  0
  -26.4520  -31.7780   25.0020 C   0  0  1  0  0  0  0  0  0  0  0  0
  -25.4120  -31.5150   26.1170 C   0  0  0  0  0  1  0  0  0  0  0  0
  -27.0120  -30.4090   24.5480 C   0  0  0  0  0  1  0  0  0  0  0  0
  -27.6360  -32.5540   25.6280 C   0  0  0  0  0  1  0  0  0  0  0  0
  1  5  2  0
  1  3  1  0
  3  6  2  0
  4  2  2  0
  5  4  1  0
  6  2  1  0
  6 49  1  0
  7  5  1  0
  8  4  1  0
  8 11  1  0
  9  8  2  0
 10  9  1  0
 11 17  1  0
 11 18  2  0
 12 17  1  0
 13 14  1  0
 13 12  1  0
 15 14  1  0
 15 22  1  0
 15 16  1  0
 17 16  1  0
 19 20  2  0
 20 39  1  0
 20 21  1  0
 21 24  1  0
 22 19  1  0
 22 23  1  0
 23 21  2  0
 24 25  1  0
 25 26  2  0
 27 30  1  0
 27 26  1  0
 28 27  2  0
 29 28  1  0
 29 24  2  0
 30 31  1  0
 31 32  1  0
 32 33  2  0
 34 33  1  0
 34 38  1  0
 35 34  2  0
 36 31  2  0
 36 35  1  0
 37 36  1  0
 39 40  1  0
 40 43  1  0
 40 42  1  0
 41 39  2  0
 44 45  1  0
 44 19  1  0
 46 44  1  0
 47 48  2  0
 48  3  1  0
 50 51  1  0
 50 49  1  0
 52 53  1  0
 52 51  1  0
 54 56  1  0
 54 53  1  0
 55 66  2  0
 56 61  1  0
 57 65  1  0
 57 67  1  0
 58 64  1  0
 58 60  1  0
 59 65  1  0
 60 59  1  0
 61 60  2  0
 62 63  1  0
 62 56  2  0
 63 58  2  0
 64 57  1  0
 65 55  1  0
 67 69  2  0
 68 67  1  0
 70 68  1  0
 71 80  2  0
 71 76  1  0
 72 68  1  0
 72 76  1  0
 73 72  1  0
 74 75  1  0
 74 73  1  0
 75 71  1  0
 76 77  2  0
 77 78  1  0
 79 78  2  0
 80 79  1  0
 81 55  1  0
 81 82  1  0
 81 91  1  0
 82 85  1  0
 83 87  1  0
 83 82  1  0
 84 83  2  0
 87 86  1  0
 89 87  1  0
 89 90  1  0
 89 88  1  0
 91 94  1  1
 91 92  1  0
 93 91  1  0
M  ISO  4   8 100  11 100  53 101  54 101
M  END
>  <TORSDO>  (80) 
F 23

>  <SCORE>  (80) 
-10.299

>  <name>  (80) 
79

>  <ligand_id>  (80) 
79

>  <original_smiles>  (80) 
[H]N=C(C(=O)N1C([H])([H])C([H])([H])C([H])([H])C([H])(n2nc(-c3c([H])c([H])c(Oc4c([H])c([H])c(F)c([H])c4F)c([H])c3[H])c(C(=O)N([H])[H])c2N([H])[H])C1([H])[H])c1c([H])c(OC([H])([H])C([H])([H])C([H])([H])C([H])([H])Oc2c([H])c([H])c3c(c2[H])C([H])([H])N(C(=O)C([H])(N([H])C(=O)C([H])(N([H])C([H])([H])[H])C([H])([H])[H])C(C([H])([H])[H])(C([H])([H])[H])C([H])([H])[H])C([H])(C(=O)N([H])C2([H])c4c([H])c([H])c([H])c([H])c4C([H])([H])C([H])([H])C2([H])[H])C3([H])[H])c(C([H])=C([H])[H])c([H])c1C([H])([H])[H]

>  <smiles>  (80) 
[H]N=C(C(=O)N1C([H])([H])C([H])([H])C([H])([H])C([H])(n2nc(-c3c([H])c([H])c(Oc4c([H])c([H])c(F)c([H])c4F)c([H])c3[H])c(C(=O)N([H])[H])c2N([H])[H])C1([H])[H])c1c([H])c(OC([H])([H])C([H])([H])C([H])([H])C([H])([H])Oc2c([H])c([H])c3c(c2[H])C([H])([H])N(C(=O)C([H])(N([H])C(=O)C([H])(N([H])C([H])([H])[H])C([H])([H])[H])C(C([H])([H])[H])(C([H])([H])[H])C([H])([H])[H])C([H])(C(=O)N([H])C2([H])c4c([H])c([H])c([H])c([H])c4C([H])([H])C([H])([H])C2([H])[H])C3([H])[H])c(C([H])=C([H])[H])c([H])c1C([H])([H])[H]

$$$$
80:0:0
     RDKit          3D

 95103  0  0  1  0  0  0  0  0999 V2000
  -30.4040  -19.4750   21.1360 C   0  0  0  0  0  3  0  0  0  0  0  0
  -28.2770  -18.6880   20.2870 C   0  0  0  0  0  3  0  0  0  0  0  0
  -29.0830  -19.7680   20.6990 C   0  0  0  0  0  0  0  0  0  0  0  0
  -30.0330  -17.0630   20.8190 C   0  0  0  0  0  0  0  0  0  0  0  0
  -30.8840  -18.1290   21.2110 C   0  0  0  0  0  0  0  0  0  0  0  0
  -28.7410  -17.3640   20.3440 C   0  0  0  0  0  0  0  0  0  0  0  0
  -27.8990  -16.3720   19.9940 F   0  0  0  0  0  0  0  0  0  0  0  0
  -30.7400  -14.8670   20.0100 C   0  0  0  0  0  0  0  0  0  0  0  0
  -30.4090  -12.6770   18.9020 C   0  0  0  0  0  2  0  0  0  0  0  0
  -29.3610  -12.7660   17.7770 C   0  0  0  0  0  2  0  0  0  0  0  0
  -27.9570  -12.4950   18.3410 C   0  0  0  0  0  2  0  0  0  0  0  0
  -27.6560  -13.3770   19.5760 C   0  0  0  0  0  3  0  0  0  0  0  0
  -28.8080  -13.3340   20.6130 C   0  0  0  0  0  2  0  0  0  0  0  0
  -30.0730  -13.6750   19.9360 N   0  0  0  0  0  0  0  0  0  0  0  0
  -31.6970  -15.1300   19.2780 O   0  0  0  0  0  0  0  0  0  0  0  0
  -30.4330  -15.7010   21.0180 N   0  0  0  0  0  0  0  0  0  0  0  0
  -31.1480  -15.6440   21.7280 H   0  0  0  0  0  0  0  0  0  0  0  0
  -25.3380  -13.8950   20.5700 C   0  0  0  0  0  0  0  0  0  0  0  0
  -24.3260  -13.0770   20.9960 C   0  0  0  0  0  0  0  0  0  0  0  0
  -24.8030  -11.7420   20.8280 C   0  0  0  0  0  0  0  0  0  0  0  0
  -26.3670  -13.0490   20.1770 N   0  0  0  0  0  0  0  0  0  0  0  0
  -26.0550  -11.7470   20.3880 N   0  0  0  0  0  0  0  0  0  0  0  0
  -24.1190  -10.4550   21.0040 C   0  0  0  0  0  0  0  0  0  0  0  0
  -24.5940   -9.4890   21.9190 C   0  0  0  0  0  3  0  0  0  0  0  0
  -23.9120   -8.2640   22.0840 C   0  0  0  0  0  3  0  0  0  0  0  0
  -22.7430   -7.9990   21.3320 C   0  0  0  0  0  0  0  0  0  0  0  0
  -22.2870   -8.9540   20.4080 C   0  0  0  0  0  3  0  0  0  0  0  0
  -22.9690  -10.1710   20.2420 C   0  0  0  0  0  3  0  0  0  0  0  0
  -22.0310   -6.8260   21.4080 O   0  0  0  0  0  0  0  0  0  0  0  0
  -21.9110   -6.1300   22.5840 C   0  0  0  0  0  0  0  0  0  0  0  0
  -21.3280   -6.7040   23.7360 C   0  0  0  0  0  3  0  0  0  0  0  0
  -21.1610   -5.9300   24.9010 C   0  0  0  0  0  3  0  0  0  0  0  0
  -21.5680   -4.5830   24.9150 C   0  0  0  0  0  0  0  0  0  0  0  0
  -22.1460   -4.0080   23.7700 C   0  0  0  0  0  3  0  0  0  0  0  0
  -22.3140   -4.7790   22.6070 C   0  0  0  0  0  0  0  0  0  0  0  0
  -22.8490   -4.2140   21.4980 F   0  0  0  0  0  0  0  0  0  0  0  0
  -21.4010   -3.8370   26.0320 F   0  0  0  0  0  0  0  0  0  0  0  0
  -22.9590  -13.5040   21.4510 C   0  0  0  0  0  0  0  0  0  0  0  0
  -22.3450  -12.7350   22.3450 N   0  0  0  0  0  0  0  0  0  0  0  0
  -22.4470  -14.5490   21.0490 O   0  0  0  0  0  0  0  0  0  0  0  0
  -22.7760  -11.8890   22.6840 H   0  0  0  0  0  0  0  0  0  0  0  0
  -21.4310  -12.9920   22.6880 H   0  0  0  0  0  0  0  0  0  0  0  0
  -25.4650  -15.2770   20.4730 N   0  0  0  0  0  0  0  0  0  0  0  0
  -24.7250  -15.9280   20.7100 H   0  0  0  0  0  0  0  0  0  0  0  0
  -26.3360  -15.7350   20.2130 H   0  0  0  0  0  0  0  0  0  0  0  0
  -29.0440  -22.1660   20.7950 C   0  0  0  0  0  3  0  0  0  0  0  0
  -28.4530  -21.0310   20.7660 N   0  0  0  0  0  0  0  0  0  0  0  0
  -28.2660  -23.4420   21.1470 C   0  0  0  0  0  2  0  0  0  0  0  0
  -28.3650  -24.6350   20.1890 C   0  0  0  0  0  3  0  0  0  0  0  0
  -27.7790  -25.8230   20.4640 C   0  0  0  0  0  3  0  0  0  0  0  0
  -27.8190  -26.9480   19.6620 O   0  0  0  0  0  0  0  0  0  0  0  0
  -24.5410  -32.0690   23.3830 C   0  0  0  0  0  0  0  0  0  0  0  0
  -26.7280  -27.7830   19.7770 C   0  0  0  0  0  0  0  0  0  0  0  0
  -23.1480  -30.8660   21.7320 C   0  0  0  0  0  3  0  0  0  0  0  0
  -24.4200  -29.3900   20.0800 C   0  0  0  0  0  0  0  0  0  0  0  0
  -25.6680  -31.1360   21.3610 C   0  0  0  0  0  2  0  0  0  0  0  0
  -25.6430  -29.8160   20.6140 C   0  0  0  0  0  0  0  0  0  0  0  0
  -26.8040  -29.0200   20.4590 C   0  0  0  0  0  3  0  0  0  0  0  0
  -25.4910  -27.3740   19.2370 C   0  0  0  0  0  3  0  0  0  0  0  0
  -24.3380  -28.1700   19.3860 C   0  0  0  0  0  3  0  0  0  0  0  0
  -23.2250  -30.2940   20.2900 C   0  0  0  0  0  2  0  0  0  0  0  0
  -24.4760  -31.3650   22.2170 N   0  0  0  0  0  0  0  0  0  0  0  0
  -23.5170  -32.3390   24.0250 O   0  0  0  0  0  0  0  0  0  0  0  0
  -22.5220  -29.7940   22.6540 C   0  0  0  0  0  0  0  0  0  0  0  0
  -21.1970  -29.6030   22.5420 N   0  0  0  0  0  0  0  0  0  0  0  0
  -23.2260  -29.1390   23.4270 O   0  0  0  0  0  0  0  0  0  0  0  0
  -20.6880  -30.1860   21.8940 H   0  0  0  0  0  0  0  0  0  0  0  0
  -17.8600  -28.2780   22.9440 C   0  0  0  0  0  0  0  0  0  0  0  0
  -20.4000  -28.6230   23.2810 C   0  0  0  0  0  3  0  0  0  0  0  0
  -20.5700  -27.2050   22.6860 C   0  0  0  0  0  2  0  0  0  0  0  0
  -19.5040  -26.8590   21.6420 C   0  0  0  0  0  2  0  0  0  0  0  0
  -18.1030  -26.9460   22.2540 C   0  0  0  0  0  2  0  0  0  0  0  0
  -18.9400  -29.0730   23.4120 C   0  0  0  0  0  0  0  0  0  0  0  0
  -18.6620  -30.3190   24.0130 C   0  0  0  0  0  3  0  0  0  0  0  0
  -17.3380  -30.7700   24.1540 C   0  0  0  0  0  3  0  0  0  0  0  0
  -16.2720  -29.9690   23.7100 C   0  0  0  0  0  3  0  0  0  0  0  0
  -16.5340  -28.7260   23.1070 C   0  0  0  0  0  3  0  0  0  0  0  0
  -25.8970  -32.5910   23.9530 C   0  0  0  0  0  3  0  0  0  0  0  0
  -25.7080  -33.9990   24.3290 N   0  0  0  0  0  0  0  0  0  0  0  0
  -26.0780  -35.0440   23.5740 C   0  0  0  0  0  0  0  0  0  0  0  0
  -26.6870  -34.9140   22.5100 O   0  0  0  0  0  0  0  0  0  0  0  0
  -25.1700  -34.1780   25.1650 H   0  0  0  0  0  0  0  0  0  0  0  0
  -24.4640  -36.9590   23.3510 C   0  0  0  0  0  1  0  0  0  0  0  0
  -25.7140  -36.4500   24.0850 C   0  0  0  0  0  3  0  0  0  0  0  0
  -27.9440  -37.1700   24.8150 C   0  0  0  0  0  1  0  0  0  0  0  0
  -26.8090  -37.4330   23.9340 N   0  0  0  0  0  0  0  0  0  0  0  0
  -26.4750  -38.3750   24.1210 H   0  0  0  0  0  0  0  0  0  0  0  0
  -26.4210  -31.7520   25.1830 C   0  0  1  0  0  0  0  0  0  0  0  0
  -25.3620  -31.5360   26.2900 C   0  0  0  0  0  1  0  0  0  0  0  0
  -26.9120  -30.3610   24.7190 C   0  0  0  0  0  1  0  0  0  0  0  0
  -27.6400  -32.4610   25.8190 C   0  0  0  0  0  1  0  0  0  0  0  0
  -32.1470  -17.7790   21.6630 O   0  0  0  0  0  0  0  0  0  0  0  0
  -33.1180  -18.7950   21.9250 C   0  0  0  0  0  2  0  0  0  0  0  0
  -33.5070  -18.9790   19.4100 C   0  0  0  0  0  2  0  0  0  0  0  0
  -33.6750  -19.4370   20.6620 C   0  0  0  0  0  3  0  0  0  0  0  0
  1  5  1  0
  2  6  2  0
  2  3  1  0
  3 47  1  0
  3  1  2  0
  4 16  1  0
  4  5  2  0
  5 92  1  0
  6  4  1  0
  7  6  1  0
  8 16  1  0
  9 14  1  0
 10 11  1  0
 10  9  1  0
 12 11  1  0
 12 21  1  0
 12 13  1  0
 14  8  1  0
 14 13  1  0
 15  8  2  0
 16 17  1  0
 18 19  2  0
 19 38  1  0
 20 19  1  0
 20 23  1  0
 21 22  1  0
 21 18  1  0
 22 20  2  0
 23 24  1  0
 24 25  2  0
 26 29  1  0
 26 25  1  0
 27 26  2  0
 28 27  1  0
 28 23  2  0
 29 30  1  0
 30 35  2  0
 30 31  1  0
 31 32  2  0
 32 33  1  0
 33 37  1  0
 34 33  2  0
 35 34  1  0
 36 35  1  0
 38 39  1  0
 39 41  1  0
 39 42  1  0
 40 38  2  0
 43 18  1  0
 43 44  1  0
 45 43  1  0
 46 48  1  0
 47 46  2  0
 49 50  2  0
 49 48  1  0
 51 53  1  0
 51 50  1  0
 52 63  2  0
 53 58  1  0
 54 62  1  0
 54 64  1  0
 55 61  1  0
 55 57  1  0
 56 62  1  0
 57 56  1  0
 58 57  2  0
 59 60  1  0
 59 53  2  0
 60 55  2  0
 61 54  1  0
 62 52  1  0
 64 66  2  0
 65 64  1  0
 67 65  1  0
 68 77  2  0
 68 73  1  0
 69 65  1  0
 69 73  1  0
 70 69  1  0
 71 72  1  0
 71 70  1  0
 72 68  1  0
 73 74  2  0
 74 75  1  0
 76 75  2  0
 77 76  1  0
 78 52  1  0
 78 79  1  0
 78 88  1  0
 79 82  1  0
 80 84  1  0
 80 79  1  0
 81 80  2  0
 84 83  1  0
 86 84  1  0
 86 87  1  0
 86 85  1  0
 88 91  1  1
 88 89  1  0
 90 88  1  0
 92 93  1  0
 94 95  2  0
 95 93  1  0
M  ISO  4   8 100  16 100  50 101  51 101
M  END
>  <TORSDO>  (81) 
F 22

>  <SCORE>  (81) 
-12.319

>  <name>  (81) 
80

>  <ligand_id>  (81) 
80

>  <original_smiles>  (81) 
[H]C(=Nc1c([H])c(F)c(N([H])C(=O)N2C([H])([H])C([H])([H])C([H])([H])C([H])(n3nc(-c4c([H])c([H])c(Oc5c([H])c([H])c(F)c([H])c5F)c([H])c4[H])c(C(=O)N([H])[H])c3N([H])[H])C2([H])[H])c(OC([H])([H])C([H])=C([H])[H])c1[H])C([H])([H])C([H])=C([H])Oc1c([H])c([H])c2c(c1[H])C([H])([H])N(C(=O)C([H])(N([H])C(=O)C([H])(N([H])C([H])([H])[H])C([H])([H])[H])C(C([H])([H])[H])(C([H])([H])[H])C([H])([H])[H])C([H])(C(=O)N([H])C1([H])c3c([H])c([H])c([H])c([H])c3C([H])([H])C([H])([H])C1([H])[H])C2([H])[H]

>  <smiles>  (81) 
[H]C(=Nc1c([H])c(F)c(N([H])C(=O)N2C([H])([H])C([H])([H])C([H])([H])C([H])(n3nc(-c4c([H])c([H])c(Oc5c([H])c([H])c(F)c([H])c5F)c([H])c4[H])c(C(=O)N([H])[H])c3N([H])[H])C2([H])[H])c(OC([H])([H])C([H])=C([H])[H])c1[H])C([H])([H])C([H])=C([H])Oc1c([H])c([H])c2c(c1[H])C([H])([H])N(C(=O)C([H])(N([H])C(=O)C([H])(N([H])C([H])([H])[H])C([H])([H])[H])C(C([H])([H])[H])(C([H])([H])[H])C([H])([H])[H])C([H])(C(=O)N([H])C1([H])c3c([H])c([H])c([H])c([H])c3C([H])([H])C([H])([H])C1([H])[H])C2([H])[H]

$$$$
81:0:0
     RDKit          3D

 93101  0  0  1  0  0  0  0  0999 V2000
  -28.2440  -20.7260   19.0360 C   0  0  0  0  0  3  0  0  0  0  0  0
  -28.0090  -22.0460   18.8410 C   0  0  0  0  0  3  0  0  0  0  0  0
  -29.5940  -20.6760   21.1630 C   0  0  0  0  0  3  0  0  0  0  0  0
  -29.8360  -18.8650   19.5580 C   0  0  0  0  0  3  0  0  0  0  0  0
  -31.1590  -18.8620   21.6120 C   0  0  0  0  0  3  0  0  0  0  0  0
  -29.2280  -20.0830   19.9330 C   0  0  0  0  0  0  0  0  0  0  0  0
  -30.5520  -20.0730   22.0010 C   0  0  0  0  0  0  0  0  0  0  0  0
  -30.8090  -18.2620   20.3830 C   0  0  0  0  0  0  0  0  0  0  0  0
  -30.9500  -20.7470   23.3010 C   0  0  0  0  0  1  0  0  0  0  0  0
  -31.5630  -17.0400   19.8920 C   0  0  0  0  0  2  0  0  0  0  0  0
  -31.5270  -14.6000   19.8280 C   0  0  0  0  0  0  0  0  0  0  0  0
  -31.0740  -12.3360   18.9990 C   0  0  0  0  0  2  0  0  0  0  0  0
  -30.1190  -12.4100   17.7900 C   0  0  0  0  0  2  0  0  0  0  0  0
  -28.6520  -12.3960   18.2630 C   0  0  0  0  0  2  0  0  0  0  0  0
  -28.3750  -13.4250   19.3920 C   0  0  0  0  0  3  0  0  0  0  0  0
  -29.4450  -13.3380   20.5050 C   0  0  0  0  0  2  0  0  0  0  0  0
  -30.7680  -13.4750   19.8760 N   0  0  0  0  0  0  0  0  0  0  0  0
  -32.6650  -14.6180   19.3530 O   0  0  0  0  0  0  0  0  0  0  0  0
  -30.9170  -15.7500   20.1430 N   0  0  0  0  0  0  0  0  0  0  0  0
  -29.9620  -15.7410   20.4620 H   0  0  0  0  0  0  0  0  0  0  0  0
  -26.0730  -14.2430   20.1990 C   0  0  0  0  0  0  0  0  0  0  0  0
  -24.9510  -13.5680   20.6030 C   0  0  0  0  0  0  0  0  0  0  0  0
  -25.2860  -12.1800   20.5490 C   0  0  0  0  0  0  0  0  0  0  0  0
  -27.0230  -13.2720   19.9260 N   0  0  0  0  0  0  0  0  0  0  0  0
  -26.5550  -12.0250   20.1940 N   0  0  0  0  0  0  0  0  0  0  0  0
  -24.4530  -10.9900   20.7610 C   0  0  0  0  0  0  0  0  0  0  0  0
  -24.8140   -9.9970   21.6970 C   0  0  0  0  0  3  0  0  0  0  0  0
  -23.9930   -8.8660   21.8960 C   0  0  0  0  0  3  0  0  0  0  0  0
  -22.7950   -8.7230   21.1560 C   0  0  0  0  0  0  0  0  0  0  0  0
  -22.4520   -9.7030   20.2070 C   0  0  0  0  0  3  0  0  0  0  0  0
  -23.2730  -10.8250   20.0090 C   0  0  0  0  0  3  0  0  0  0  0  0
  -21.9460   -7.6480   21.2640 O   0  0  0  0  0  0  0  0  0  0  0  0
  -21.8160   -6.9480   22.4370 C   0  0  0  0  0  0  0  0  0  0  0  0
  -21.4310   -7.5760   23.6410 C   0  0  0  0  0  3  0  0  0  0  0  0
  -21.2450   -6.8070   24.8070 C   0  0  0  0  0  3  0  0  0  0  0  0
  -21.4310   -5.4130   24.7690 C   0  0  0  0  0  0  0  0  0  0  0  0
  -21.8040   -4.7850   23.5690 C   0  0  0  0  0  3  0  0  0  0  0  0
  -21.9950   -5.5500   22.4060 C   0  0  0  0  0  0  0  0  0  0  0  0
  -22.3390   -4.9390   21.2460 F   0  0  0  0  0  0  0  0  0  0  0  0
  -21.2430   -4.6730   25.8870 F   0  0  0  0  0  0  0  0  0  0  0  0
  -23.6140  -14.1700   20.9260 C   0  0  0  0  0  0  0  0  0  0  0  0
  -22.8610  -13.5450   21.8280 N   0  0  0  0  0  0  0  0  0  0  0  0
  -23.2460  -15.2260   20.4160 O   0  0  0  0  0  0  0  0  0  0  0  0
  -23.1760  -12.6950   22.2690 H   0  0  0  0  0  0  0  0  0  0  0  0
  -21.9610  -13.9270   22.0860 H   0  0  0  0  0  0  0  0  0  0  0  0
  -26.3560  -15.5920   20.0230 N   0  0  0  0  0  0  0  0  0  0  0  0
  -25.6550  -16.3140   20.1590 H   0  0  0  0  0  0  0  0  0  0  0  0
  -27.2360  -15.9560   19.6750 H   0  0  0  0  0  0  0  0  0  0  0  0
  -28.8080  -23.1440   19.4180 C   0  0  0  0  0  0  0  0  0  0  0  0
  -30.0330  -23.0840   19.5550 O   0  0  0  0  0  0  0  0  0  0  0  0
  -28.0860  -24.4290   19.8290 C   0  0  0  0  0  2  0  0  0  0  0  0
  -28.3750  -25.6170   18.8880 C   0  0  0  0  0  2  0  0  0  0  0  0
  -28.2760  -26.8790   19.5610 O   0  0  0  0  0  0  0  0  0  0  0  0
  -24.4910  -31.7580   23.0950 C   0  0  0  0  0  0  0  0  0  0  0  0
  -27.0650  -27.5350   19.6510 C   0  0  0  0  0  0  0  0  0  0  0  0
  -23.2380  -30.4410   21.4170 C   0  0  0  0  0  3  0  0  0  0  0  0
  -24.6510  -28.9970   19.8600 C   0  0  0  0  0  0  0  0  0  0  0  0
  -25.7530  -30.8290   21.1570 C   0  0  0  0  0  2  0  0  0  0  0  0
  -25.8230  -29.4960   20.4400 C   0  0  0  0  0  0  0  0  0  0  0  0
  -27.0260  -28.7660   20.3440 C   0  0  0  0  0  3  0  0  0  0  0  0
  -25.8700  -27.0450   19.0720 C   0  0  0  0  0  3  0  0  0  0  0  0
  -24.6680  -27.7680   19.1790 C   0  0  0  0  0  3  0  0  0  0  0  0
  -23.4060  -29.8400   19.9950 C   0  0  0  0  0  2  0  0  0  0  0  0
  -24.5140  -31.0220   21.9470 N   0  0  0  0  0  0  0  0  0  0  0  0
  -23.4270  -31.9890   23.6870 O   0  0  0  0  0  0  0  0  0  0  0  0
  -22.6290  -29.3590   22.3370 C   0  0  0  0  0  0  0  0  0  0  0  0
  -21.3060  -29.1520   22.2270 N   0  0  0  0  0  0  0  0  0  0  0  0
  -23.3430  -28.7100   23.1070 O   0  0  0  0  0  0  0  0  0  0  0  0
  -20.7880  -29.7350   21.5830 H   0  0  0  0  0  0  0  0  0  0  0  0
  -17.9830  -27.8180   22.6900 C   0  0  0  0  0  0  0  0  0  0  0  0
  -20.5280  -28.1580   22.9650 C   0  0  0  0  0  3  0  0  0  0  0  0
  -20.6810  -26.7520   22.3400 C   0  0  0  0  0  2  0  0  0  0  0  0
  -19.5890  -26.4210   21.3170 C   0  0  0  0  0  2  0  0  0  0  0  0
  -18.2060  -26.4970   21.9690 C   0  0  0  0  0  2  0  0  0  0  0  0
  -19.0750  -28.6040   23.1460 C   0  0  0  0  0  0  0  0  0  0  0  0
  -18.8100  -29.8400   23.7770 C   0  0  0  0  0  3  0  0  0  0  0  0
  -17.4890  -30.2880   23.9590 C   0  0  0  0  0  3  0  0  0  0  0  0
  -16.4120  -29.4970   23.5200 C   0  0  0  0  0  3  0  0  0  0  0  0
  -16.6620  -28.2660   22.8910 C   0  0  0  0  0  3  0  0  0  0  0  0
  -25.7940  -32.3640   23.7040 C   0  0  0  0  0  3  0  0  0  0  0  0
  -25.4880  -33.7390   24.1250 N   0  0  0  0  0  0  0  0  0  0  0  0
  -25.7990  -34.8350   23.4210 C   0  0  0  0  0  0  0  0  0  0  0  0
  -26.4440  -34.7960   22.3700 O   0  0  0  0  0  0  0  0  0  0  0  0
  -24.9120  -33.8430   24.9470 H   0  0  0  0  0  0  0  0  0  0  0  0
  -24.0510  -36.6330   23.2140 C   0  0  0  0  0  1  0  0  0  0  0  0
  -25.3140  -36.1900   23.9690 C   0  0  0  0  0  3  0  0  0  0  0  0
  -27.4640  -37.0390   24.7990 C   0  0  0  0  0  1  0  0  0  0  0  0
  -26.3380  -37.2550   23.8950 N   0  0  0  0  0  0  0  0  0  0  0  0
  -25.9310  -38.1610   24.1100 H   0  0  0  0  0  0  0  0  0  0  0  0
  -26.3660  -31.5260   24.9130 C   0  0  1  0  0  0  0  0  0  0  0  0
  -25.3200  -31.2210   26.0090 C   0  0  0  0  0  1  0  0  0  0  0  0
  -26.9380  -30.1760   24.4200 C   0  0  0  0  0  1  0  0  0  0  0  0
  -27.5400  -32.2900   25.5740 C   0  0  0  0  0  1  0  0  0  0  0  0
  1  6  1  0
  2  1  2  0
  2 49  1  0
  3  7  1  0
  4  6  1  0
  4  8  2  0
  5  7  2  0
  6  3  2  0
  7  9  1  0
  8  5  1  0
 10 19  1  0
 10  8  1  0
 11 17  1  0
 11 19  1  0
 12 17  1  0
 13 14  1  0
 13 12  1  0
 15 14  1  0
 15 24  1  0
 15 16  1  0
 17 16  1  0
 18 11  2  0
 19 20  1  0
 21 22  2  0
 22 41  1  0
 23 22  1  0
 23 26  1  0
 24 25  1  0
 24 21  1  0
 25 23  2  0
 26 27  1  0
 27 28  2  0
 29 32  1  0
 29 28  1  0
 30 29  2  0
 31 30  1  0
 31 26  2  0
 32 33  1  0
 33 34  1  0
 34 35  2  0
 36 35  1  0
 36 40  1  0
 37 36  2  0
 38 33  2  0
 38 37  1  0
 39 38  1  0
 41 42  1  0
 42 45  1  0
 42 44  1  0
 43 41  2  0
 46 47  1  0
 46 21  1  0
 48 46  1  0
 49 50  2  0
 49 51  1  0
 52 53  1  0
 52 51  1  0
 53 55  1  0
 54 65  2  0
 55 60  1  0
 56 64  1  0
 56 66  1  0
 57 63  1  0
 57 59  1  0
 58 64  1  0
 59 58  1  0
 60 59  2  0
 61 62  1  0
 61 55  2  0
 62 57  2  0
 63 56  1  0
 64 54  1  0
 66 68  2  0
 67 66  1  0
 69 67  1  0
 70 79  2  0
 70 75  1  0
 71 67  1  0
 71 75  1  0
 72 71  1  0
 73 74  1  0
 73 72  1  0
 74 70  1  0
 75 76  2  0
 76 77  1  0
 78 77  2  0
 79 78  1  0
 80 54  1  0
 80 81  1  0
 80 90  1  0
 81 84  1  0
 82 86  1  0
 82 81  1  0
 83 82  2  0
 86 85  1  0
 88 86  1  0
 88 89  1  0
 88 87  1  0
 90 93  1  1
 90 91  1  0
 92 90  1  0
M  ISO  4  11 100  19 100  52 101  53 101
M  END
>  <TORSDO>  (82) 
F 21

>  <SCORE>  (82) 
-12.730

>  <name>  (82) 
81

>  <ligand_id>  (82) 
81

>  <original_smiles>  (82) 
[H]C(C(=O)C([H])([H])C([H])([H])Oc1c([H])c([H])c2c(c1[H])C([H])([H])N(C(=O)C([H])(N([H])C(=O)C([H])(N([H])C([H])([H])[H])C([H])([H])[H])C(C([H])([H])[H])(C([H])([H])[H])C([H])([H])[H])C([H])(C(=O)N([H])C1([H])c3c([H])c([H])c([H])c([H])c3C([H])([H])C([H])([H])C1([H])[H])C2([H])[H])=C([H])c1c([H])c(C([H])([H])[H])c([H])c(C([H])([H])N([H])C(=O)N2C([H])([H])C([H])([H])C([H])([H])C([H])(n3nc(-c4c([H])c([H])c(Oc5c([H])c([H])c(F)c([H])c5F)c([H])c4[H])c(C(=O)N([H])[H])c3N([H])[H])C2([H])[H])c1[H]

>  <smiles>  (82) 
[H]C(C(=O)C([H])([H])C([H])([H])Oc1c([H])c([H])c2c(c1[H])C([H])([H])N(C(=O)C([H])(N([H])C(=O)C([H])(N([H])C([H])([H])[H])C([H])([H])[H])C(C([H])([H])[H])(C([H])([H])[H])C([H])([H])[H])C([H])(C(=O)N([H])C1([H])c3c([H])c([H])c([H])c([H])c3C([H])([H])C([H])([H])C1([H])[H])C2([H])[H])=C([H])c1c([H])c(C([H])([H])[H])c([H])c(C([H])([H])N([H])C(=O)N2C([H])([H])C([H])([H])C([H])([H])C([H])(n3nc(-c4c([H])c([H])c(Oc5c([H])c([H])c(F)c([H])c5F)c([H])c4[H])c(C(=O)N([H])[H])c3N([H])[H])C2([H])[H])c1[H]

$$$$
82:0:0
     RDKit          3D

 93101  0  0  1  0  0  0  0  0999 V2000
  -29.2200  -19.8030   20.0850 C   0  0  0  0  0  3  0  0  0  0  0  0
  -30.9120  -18.8540   21.5280 C   0  0  0  0  0  3  0  0  0  0  0  0
  -29.9480  -18.6270   20.5340 C   0  0  0  0  0  0  0  0  0  0  0  0
  -29.4440  -21.1490   20.6090 C   0  0  0  0  0  0  0  0  0  0  0  0
  -30.5050  -21.2810   21.5630 C   0  0  0  0  0  0  0  0  0  0  0  0
  -31.2620  -20.1480   21.9700 C   0  0  0  0  0  0  0  0  0  0  0  0
  -30.7700  -23.0490   23.3290 C   0  0  0  0  0  2  0  0  0  0  0  0
  -30.9430  -22.5950   22.0750 C   0  0  0  0  0  3  0  0  0  0  0  0
  -29.9810  -17.1900   19.9720 C   0  0  0  0  0  2  0  0  0  0  0  0
  -30.2110  -16.0110   20.6670 C   0  0  0  0  0  2  0  0  0  0  0  0
  -30.7940  -14.7640   20.0770 C   0  0  0  0  0  0  0  0  0  0  0  0
  -30.4840  -12.4990   19.1150 C   0  0  0  0  0  2  0  0  0  0  0  0
  -29.5650  -12.6680   17.8860 C   0  0  0  0  0  2  0  0  0  0  0  0
  -28.0970  -12.5140   18.3190 C   0  0  0  0  0  2  0  0  0  0  0  0
  -27.7480  -13.3760   19.5670 C   0  0  0  0  0  3  0  0  0  0  0  0
  -28.8190  -13.2740   20.6730 C   0  0  0  0  0  2  0  0  0  0  0  0
  -30.1200  -13.5680   20.0740 N   0  0  0  0  0  0  0  0  0  0  0  0
  -31.9180  -14.8120   19.5740 O   0  0  0  0  0  0  0  0  0  0  0  0
  -25.3600  -13.9430   20.3130 C   0  0  0  0  0  0  0  0  0  0  0  0
  -24.3050  -13.1660   20.6980 C   0  0  0  0  0  0  0  0  0  0  0  0
  -24.7820  -11.8190   20.6790 C   0  0  0  0  0  0  0  0  0  0  0  0
  -26.4120  -13.0750   20.0770 N   0  0  0  0  0  0  0  0  0  0  0  0
  -26.0710  -11.7890   20.3570 N   0  0  0  0  0  0  0  0  0  0  0  0
  -24.0650  -10.5520   20.8830 C   0  0  0  0  0  0  0  0  0  0  0  0
  -24.4890   -9.6100   21.8440 C   0  0  0  0  0  3  0  0  0  0  0  0
  -23.7680   -8.4130   22.0430 C   0  0  0  0  0  3  0  0  0  0  0  0
  -22.6090   -8.1460   21.2760 C   0  0  0  0  0  0  0  0  0  0  0  0
  -22.2040   -9.0750   20.3020 C   0  0  0  0  0  3  0  0  0  0  0  0
  -22.9260  -10.2660   20.1030 C   0  0  0  0  0  3  0  0  0  0  0  0
  -21.8580   -7.0010   21.3820 O   0  0  0  0  0  0  0  0  0  0  0  0
  -21.7630   -6.3090   22.5620 C   0  0  0  0  0  0  0  0  0  0  0  0
  -21.2810   -6.9120   23.7430 C   0  0  0  0  0  3  0  0  0  0  0  0
  -21.1340   -6.1450   24.9150 C   0  0  0  0  0  3  0  0  0  0  0  0
  -21.4600   -4.7760   24.9080 C   0  0  0  0  0  0  0  0  0  0  0  0
  -21.9320   -4.1730   23.7290 C   0  0  0  0  0  3  0  0  0  0  0  0
  -22.0810   -4.9360   22.5600 C   0  0  0  0  0  0  0  0  0  0  0  0
  -22.5170   -4.3430   21.4200 F   0  0  0  0  0  0  0  0  0  0  0  0
  -21.3090   -4.0360   26.0320 F   0  0  0  0  0  0  0  0  0  0  0  0
  -22.9040  -13.6320   20.9710 C   0  0  0  0  0  0  0  0  0  0  0  0
  -22.1930  -12.9530   21.8660 N   0  0  0  0  0  0  0  0  0  0  0  0
  -22.4480  -14.6390   20.4310 O   0  0  0  0  0  0  0  0  0  0  0  0
  -22.5720  -12.1410   22.3310 H   0  0  0  0  0  0  0  0  0  0  0  0
  -21.2500  -13.2440   22.0850 H   0  0  0  0  0  0  0  0  0  0  0  0
  -25.5110  -15.3160   20.1230 N   0  0  0  0  0  0  0  0  0  0  0  0
  -24.7500  -15.9780   20.2390 H   0  0  0  0  0  0  0  0  0  0  0  0
  -26.3720  -15.7550   19.8240 H   0  0  0  0  0  0  0  0  0  0  0  0
  -28.5860  -22.3640   20.1510 C   0  0  0  0  0  3  0  0  0  0  0  0
  -28.6520  -23.7430   20.3580 C   0  0  0  0  0  3  0  0  0  0  0  0
  -27.6220  -24.8350   19.8720 C   0  0  0  0  0  2  0  0  0  0  0  0
  -27.9610  -26.3030   19.8560 O   0  0  0  0  0  0  0  0  0  0  0  0
  -24.5420  -31.8340   23.0690 C   0  0  0  0  0  0  0  0  0  0  0  0
  -26.8940  -27.2340   19.8270 C   0  0  0  0  0  0  0  0  0  0  0  0
  -23.2260  -30.4800   21.4830 C   0  0  0  0  0  3  0  0  0  0  0  0
  -24.5730  -28.9280   19.9540 C   0  0  0  0  0  0  0  0  0  0  0  0
  -25.7640  -30.7400   21.1770 C   0  0  0  0  0  2  0  0  0  0  0  0
  -25.7830  -29.3720   20.5000 C   0  0  0  0  0  0  0  0  0  0  0  0
  -26.9460  -28.5350   20.4280 C   0  0  0  0  0  3  0  0  0  0  0  0
  -25.6630  -26.8730   19.2270 C   0  0  0  0  0  3  0  0  0  0  0  0
  -24.5190  -27.6860   19.3070 C   0  0  0  0  0  3  0  0  0  0  0  0
  -23.3540  -29.8230   20.0860 C   0  0  0  0  0  2  0  0  0  0  0  0
  -24.5330  -31.0340   21.9630 N   0  0  0  0  0  0  0  0  0  0  0  0
  -23.4930  -32.1260   23.6630 O   0  0  0  0  0  0  0  0  0  0  0  0
  -22.5930  -29.4650   22.4650 C   0  0  0  0  0  0  0  0  0  0  0  0
  -21.2700  -29.2630   22.3600 N   0  0  0  0  0  0  0  0  0  0  0  0
  -23.2950  -28.8580   23.2790 O   0  0  0  0  0  0  0  0  0  0  0  0
  -20.7640  -29.7890   21.6640 H   0  0  0  0  0  0  0  0  0  0  0  0
  -17.9420  -27.9470   22.8810 C   0  0  0  0  0  0  0  0  0  0  0  0
  -20.4830  -28.3240   23.1620 C   0  0  0  0  0  3  0  0  0  0  0  0
  -20.6550  -26.8790   22.6410 C   0  0  0  0  0  2  0  0  0  0  0  0
  -19.5790  -26.4700   21.6310 C   0  0  0  0  0  2  0  0  0  0  0  0
  -18.1830  -26.5840   22.2530 C   0  0  0  0  0  2  0  0  0  0  0  0
  -19.0230  -28.7730   23.2910 C   0  0  0  0  0  0  0  0  0  0  0  0
  -18.7470  -30.0440   23.8340 C   0  0  0  0  0  3  0  0  0  0  0  0
  -17.4230  -30.4960   23.9750 C   0  0  0  0  0  3  0  0  0  0  0  0
  -16.3540  -29.6710   23.5830 C   0  0  0  0  0  3  0  0  0  0  0  0
  -16.6150  -28.3980   23.0450 C   0  0  0  0  0  3  0  0  0  0  0  0
  -25.8650  -32.4420   23.6230 C   0  0  0  0  0  3  0  0  0  0  0  0
  -25.5780  -33.8250   24.0340 N   0  0  0  0  0  0  0  0  0  0  0  0
  -25.9200  -34.9170   23.3340 C   0  0  0  0  0  0  0  0  0  0  0  0
  -26.5760  -34.8620   22.2920 O   0  0  0  0  0  0  0  0  0  0  0  0
  -24.9950  -33.9370   24.8490 H   0  0  0  0  0  0  0  0  0  0  0  0
  -24.2230  -36.7610   23.0950 C   0  0  0  0  0  1  0  0  0  0  0  0
  -25.4590  -36.2850   23.8760 C   0  0  0  0  0  3  0  0  0  0  0  0
  -27.6090  -37.0790   24.7530 C   0  0  0  0  0  1  0  0  0  0  0  0
  -26.5110  -37.3240   23.8250 N   0  0  0  0  0  0  0  0  0  0  0  0
  -26.1210  -38.2390   24.0360 H   0  0  0  0  0  0  0  0  0  0  0  0
  -26.4670  -31.6220   24.8300 C   0  0  1  0  0  0  0  0  0  0  0  0
  -25.4520  -31.3350   25.9620 C   0  0  0  0  0  1  0  0  0  0  0  0
  -27.0180  -30.2600   24.3520 C   0  0  0  0  0  1  0  0  0  0  0  0
  -27.6670  -32.3890   25.4370 C   0  0  0  0  0  1  0  0  0  0  0  0
  -32.3930  -20.3350   22.7430 O   0  0  0  0  0  0  0  0  0  0  0  0
  -34.8340  -20.3760   22.8410 C   0  0  0  0  0  1  0  0  0  0  0  0
  -33.5860  -19.6800   22.2980 C   0  0  0  0  0  2  0  0  0  0  0  0
  1  3  2  0
  1  4  1  0
  2  6  2  0
  3  2  1  0
  4  5  2  0
  5  6  1  0
  5  8  1  0
  6 91  1  0
  8  7  2  0
  9  3  1  0
  9 10  1  0
 11 10  1  0
 12 17  1  0
 13 14  1  0
 13 12  1  0
 15 14  1  0
 15 22  1  0
 15 16  1  0
 17 11  1  0
 17 16  1  0
 18 11  2  0
 19 20  2  0
 20 39  1  0
 21 20  1  0
 21 24  1  0
 22 19  1  0
 22 23  1  0
 23 21  2  0
 24 25  1  0
 25 26  2  0
 27 30  1  0
 27 26  1  0
 28 27  2  0
 29 28  1  0
 29 24  2  0
 30 31  1  0
 31 32  1  0
 32 33  2  0
 34 33  1  0
 34 38  1  0
 35 34  2  0
 36 31  2  0
 36 35  1  0
 37 36  1  0
 39 40  1  0
 40 43  1  0
 40 42  1  0
 41 39  2  0
 44 45  1  0
 44 19  1  0
 46 44  1  0
 47 48  2  0
 47  4  1  0
 49 48  1  0
 50 49  1  0
 51 62  2  0
 52 50  1  0
 52 57  1  0
 53 61  1  0
 53 63  1  0
 54 60  1  0
 54 56  1  0
 55 61  1  0
 56 55  1  0
 57 56  2  0
 58 59  1  0
 58 52  2  0
 59 54  2  0
 60 53  1  0
 61 51  1  0
 63 65  2  0
 64 63  1  0
 66 64  1  0
 67 76  2  0
 67 72  1  0
 68 64  1  0
 68 72  1  0
 69 68  1  0
 70 71  1  0
 70 69  1  0
 71 67  1  0
 72 73  2  0
 73 74  1  0
 75 74  2  0
 76 75  1  0
 77 51  1  0
 77 78  1  0
 77 87  1  0
 78 81  1  0
 79 83  1  0
 79 78  1  0
 80 79  2  0
 83 82  1  0
 85 83  1  0
 85 86  1  0
 85 84  1  0
 87 90  1  1
 87 88  1  0
 89 87  1  0
 93 91  1  0
 93 92  1  0
M  ISO  4  10 100  11 100  49 101  50 101
M  END
>  <TORSDO>  (83) 
F 22

>  <SCORE>  (83) 
-12.695

>  <name>  (83) 
82

>  <ligand_id>  (83) 
82

>  <original_smiles>  (83) 
[H]C([H])=C([H])c1c(OC([H])([H])C([H])([H])[H])c([H])c(C([H])=C([H])C(=O)N2C([H])([H])C([H])([H])C([H])([H])C([H])(n3nc(-c4c([H])c([H])c(Oc5c([H])c([H])c(F)c([H])c5F)c([H])c4[H])c(C(=O)N([H])[H])c3N([H])[H])C2([H])[H])c([H])c1C([H])=C([H])C([H])([H])Oc1c([H])c([H])c2c(c1[H])C([H])([H])N(C(=O)C([H])(N([H])C(=O)C([H])(N([H])C([H])([H])[H])C([H])([H])[H])C(C([H])([H])[H])(C([H])([H])[H])C([H])([H])[H])C([H])(C(=O)N([H])C1([H])c3c([H])c([H])c([H])c([H])c3C([H])([H])C([H])([H])C1([H])[H])C2([H])[H]

>  <smiles>  (83) 
[H]C([H])=C([H])c1c(OC([H])([H])C([H])([H])[H])c([H])c(C([H])=C([H])C(=O)N2C([H])([H])C([H])([H])C([H])([H])C([H])(n3nc(-c4c([H])c([H])c(Oc5c([H])c([H])c(F)c([H])c5F)c([H])c4[H])c(C(=O)N([H])[H])c3N([H])[H])C2([H])[H])c([H])c1C([H])=C([H])C([H])([H])Oc1c([H])c([H])c2c(c1[H])C([H])([H])N(C(=O)C([H])(N([H])C(=O)C([H])(N([H])C([H])([H])[H])C([H])([H])[H])C(C([H])([H])[H])(C([H])([H])[H])C([H])([H])[H])C([H])(C(=O)N([H])C1([H])c3c([H])c([H])c([H])c([H])c3C([H])([H])C([H])([H])C1([H])[H])C2([H])[H]

$$$$
83:0:0
     RDKit          3D

 93101  0  0  1  0  0  0  0  0999 V2000
  -29.3880  -18.4680   20.3720 C   0  0  0  0  0  3  0  0  0  0  0  0
  -31.1170  -20.0430   21.0210 C   0  0  0  0  0  3  0  0  0  0  0  0
  -31.5300  -17.6320   21.1540 C   0  0  0  0  0  3  0  0  0  0  0  0
  -29.8080  -19.8560   20.5250 C   0  0  0  0  0  0  0  0  0  0  0  0
  -30.2390  -17.3210   20.6670 C   0  0  0  0  0  0  0  0  0  0  0  0
  -31.9760  -18.9580   21.3300 C   0  0  0  0  0  0  0  0  0  0  0  0
  -30.5890  -14.7400   20.3530 C   0  0  0  0  0  0  0  0  0  0  0  0
  -30.3500  -12.4790   19.3160 C   0  0  0  0  0  2  0  0  0  0  0  0
  -29.4020  -12.5680   18.1010 C   0  0  0  0  0  2  0  0  0  0  0  0
  -27.9370  -12.3990   18.5450 C   0  0  0  0  0  2  0  0  0  0  0  0
  -27.5770  -13.2810   19.7700 C   0  0  0  0  0  3  0  0  0  0  0  0
  -28.6460  -13.1850   20.8810 C   0  0  0  0  0  2  0  0  0  0  0  0
  -29.9360  -13.5310   20.2720 N   0  0  0  0  0  0  0  0  0  0  0  0
  -31.7790  -14.8060   20.0310 O   0  0  0  0  0  0  0  0  0  0  0  0
  -29.8320  -15.8920   20.5450 N   0  0  0  0  0  0  0  0  0  0  0  0
  -28.8390  -15.7200   20.5990 H   0  0  0  0  0  0  0  0  0  0  0  0
  -25.1940  -13.8740   20.5110 C   0  0  0  0  0  0  0  0  0  0  0  0
  -24.1310  -13.0990   20.8860 C   0  0  0  0  0  0  0  0  0  0  0  0
  -24.5940  -11.7480   20.8530 C   0  0  0  0  0  0  0  0  0  0  0  0
  -26.2370  -12.9940   20.2690 N   0  0  0  0  0  0  0  0  0  0  0  0
  -25.8830  -11.7110   20.5390 N   0  0  0  0  0  0  0  0  0  0  0  0
  -23.8680  -10.4850   21.0430 C   0  0  0  0  0  0  0  0  0  0  0  0
  -24.3100   -9.5100   21.9650 C   0  0  0  0  0  3  0  0  0  0  0  0
  -23.5830   -8.3140   22.1440 C   0  0  0  0  0  3  0  0  0  0  0  0
  -22.3990   -8.0840   21.4030 C   0  0  0  0  0  0  0  0  0  0  0  0
  -21.9760   -9.0470   20.4700 C   0  0  0  0  0  3  0  0  0  0  0  0
  -22.7040  -10.2350   20.2880 C   0  0  0  0  0  3  0  0  0  0  0  0
  -21.6440   -6.9400   21.4930 O   0  0  0  0  0  0  0  0  0  0  0  0
  -21.6170   -6.1830   22.6380 C   0  0  0  0  0  0  0  0  0  0  0  0
  -21.2240   -6.7260   23.8800 C   0  0  0  0  0  3  0  0  0  0  0  0
  -21.1440   -5.8960   25.0160 C   0  0  0  0  0  3  0  0  0  0  0  0
  -21.4460   -4.5250   24.9110 C   0  0  0  0  0  0  0  0  0  0  0  0
  -21.8310   -3.9820   23.6740 C   0  0  0  0  0  3  0  0  0  0  0  0
  -21.9130   -4.8090   22.5390 C   0  0  0  0  0  0  0  0  0  0  0  0
  -22.2650   -4.2760   21.3440 F   0  0  0  0  0  0  0  0  0  0  0  0
  -21.3610   -3.7270   26.0010 F   0  0  0  0  0  0  0  0  0  0  0  0
  -22.7350  -13.5760   21.1630 C   0  0  0  0  0  0  0  0  0  0  0  0
  -22.0090  -12.8780   22.0280 N   0  0  0  0  0  0  0  0  0  0  0  0
  -22.2950  -14.6030   20.6460 O   0  0  0  0  0  0  0  0  0  0  0  0
  -22.3770  -12.0460   22.4660 H   0  0  0  0  0  0  0  0  0  0  0  0
  -21.0720  -13.1790   22.2570 H   0  0  0  0  0  0  0  0  0  0  0  0
  -25.3560  -15.2440   20.3310 N   0  0  0  0  0  0  0  0  0  0  0  0
  -24.5830  -15.8930   20.4380 H   0  0  0  0  0  0  0  0  0  0  0  0
  -26.1890  -15.6830   19.9620 H   0  0  0  0  0  0  0  0  0  0  0  0
  -28.9900  -21.1200   20.1540 C   0  0  0  0  0  3  0  0  0  0  0  0
  -29.2720  -22.4630   20.3760 C   0  0  0  0  0  3  0  0  0  0  0  0
  -28.5530  -23.7790   19.8390 C   0  0  0  0  0  2  0  0  0  0  0  0
  -28.3350  -25.0680   20.7850 C   0  0  0  0  0  2  0  0  0  0  0  0
  -28.4170  -26.4690   20.2650 O   0  0  0  0  0  0  0  0  0  0  0  0
  -24.6250  -31.8900   23.2600 C   0  0  0  0  0  0  0  0  0  0  0  0
  -27.2860  -27.3030   20.2700 C   0  0  0  0  0  0  0  0  0  0  0  0
  -23.4420  -30.4750   21.6170 C   0  0  0  0  0  3  0  0  0  0  0  0
  -24.9130  -28.9120   20.2200 C   0  0  0  0  0  0  0  0  0  0  0  0
  -25.9810  -30.8020   21.4520 C   0  0  0  0  0  2  0  0  0  0  0  0
  -26.0750  -29.4140   20.8200 C   0  0  0  0  0  0  0  0  0  0  0  0
  -27.2670  -28.6240   20.8260 C   0  0  0  0  0  3  0  0  0  0  0  0
  -26.1010  -26.8510   19.6550 C   0  0  0  0  0  3  0  0  0  0  0  0
  -24.9290  -27.6360   19.6260 C   0  0  0  0  0  3  0  0  0  0  0  0
  -23.6730  -29.7850   20.2450 C   0  0  0  0  0  2  0  0  0  0  0  0
  -24.7020  -31.0740   22.1670 N   0  0  0  0  0  0  0  0  0  0  0  0
  -23.5360  -32.1660   23.7830 O   0  0  0  0  0  0  0  0  0  0  0  0
  -22.7740  -29.4640   22.5810 C   0  0  0  0  0  0  0  0  0  0  0  0
  -21.4480  -29.2890   22.4510 N   0  0  0  0  0  0  0  0  0  0  0  0
  -23.4490  -28.8380   23.4020 O   0  0  0  0  0  0  0  0  0  0  0  0
  -20.9620  -29.8470   21.7630 H   0  0  0  0  0  0  0  0  0  0  0  0
  -18.0640  -28.1130   22.9560 C   0  0  0  0  0  0  0  0  0  0  0  0
  -20.6240  -28.3550   23.2220 C   0  0  0  0  0  3  0  0  0  0  0  0
  -20.7160  -26.9250   22.6420 C   0  0  0  0  0  2  0  0  0  0  0  0
  -19.6100  -26.6120   21.6300 C   0  0  0  0  0  2  0  0  0  0  0  0
  -18.2310  -26.7640   22.2760 C   0  0  0  0  0  2  0  0  0  0  0  0
  -19.1880  -28.8680   23.3850 C   0  0  0  0  0  0  0  0  0  0  0  0
  -18.9790  -30.1300   23.9810 C   0  0  0  0  0  3  0  0  0  0  0  0
  -17.6780  -30.6390   24.1510 C   0  0  0  0  0  3  0  0  0  0  0  0
  -16.5680  -29.8820   23.7380 C   0  0  0  0  0  3  0  0  0  0  0  0
  -16.7620  -28.6200   23.1470 C   0  0  0  0  0  3  0  0  0  0  0  0
  -25.8990  -32.5330   23.8890 C   0  0  0  0  0  3  0  0  0  0  0  0
  -25.5830  -33.9330   24.2060 N   0  0  0  0  0  0  0  0  0  0  0  0
  -25.9150  -34.9810   23.4390 C   0  0  0  0  0  0  0  0  0  0  0  0
  -26.5920  -34.8700   22.4140 O   0  0  0  0  0  0  0  0  0  0  0  0
  -24.9830  -34.0910   25.0020 H   0  0  0  0  0  0  0  0  0  0  0  0
  -24.1860  -36.7660   23.0590 C   0  0  0  0  0  1  0  0  0  0  0  0
  -25.4220  -36.3720   23.8830 C   0  0  0  0  0  3  0  0  0  0  0  0
  -27.5490  -37.2710   24.7180 C   0  0  0  0  0  1  0  0  0  0  0  0
  -26.4520  -37.4270   23.7670 N   0  0  0  0  0  0  0  0  0  0  0  0
  -26.0430  -38.3460   23.9040 H   0  0  0  0  0  0  0  0  0  0  0  0
  -26.4030  -31.7750   25.1790 C   0  0  1  0  0  0  0  0  0  0  0  0
  -25.2990  -31.5460   26.2380 C   0  0  0  0  0  1  0  0  0  0  0  0
  -26.9920  -30.3950   24.8060 C   0  0  0  0  0  1  0  0  0  0  0  0
  -27.5450  -32.5780   25.8450 C   0  0  0  0  0  1  0  0  0  0  0  0
  -33.2640  -19.1090   21.8050 O   0  0  0  0  0  0  0  0  0  0  0  0
  -33.7970  -20.4240   21.9310 C   0  0  0  0  0  2  0  0  0  0  0  0
  -35.9130  -21.6910   22.5910 C   0  0  0  0  0  1  0  0  0  0  0  0
  -35.2320  -20.3230   22.4620 C   0  0  0  0  0  2  0  0  0  0  0  0
  1  4  2  0
  1  5  1  0
  2  6  2  0
  3  6  1  0
  4  2  1  0
  5  3  2  0
  6 90  1  0
  7 15  1  0
  8 13  1  0
  9 10  1  0
  9  8  1  0
 11 10  1  0
 11 20  1  0
 11 12  1  0
 13  7  1  0
 13 12  1  0
 14  7  2  0
 15 16  1  0
 15  5  1  0
 17 18  2  0
 18 37  1  0
 19 18  1  0
 19 22  1  0
 20 17  1  0
 20 21  1  0
 21 19  2  0
 22 23  1  0
 23 24  2  0
 25 28  1  0
 25 24  1  0
 26 25  2  0
 27 26  1  0
 27 22  2  0
 28 29  1  0
 29 30  1  0
 30 31  2  0
 32 31  1  0
 32 36  1  0
 33 32  2  0
 34 29  2  0
 34 33  1  0
 35 34  1  0
 37 38  1  0
 38 41  1  0
 38 40  1  0
 39 37  2  0
 42 43  1  0
 42 17  1  0
 44 42  1  0
 45 46  2  0
 45  4  1  0
 47 46  1  0
 47 48  1  0
 49 51  1  0
 49 48  1  0
 50 61  2  0
 51 56  1  0
 52 60  1  0
 52 62  1  0
 53 59  1  0
 53 55  1  0
 54 60  1  0
 55 56  2  0
 55 54  1  0
 57 51  2  0
 58 57  1  0
 58 53  2  0
 59 52  1  0
 60 50  1  0
 62 64  2  0
 63 62  1  0
 65 63  1  0
 66 75  2  0
 66 71  1  0
 67 63  1  0
 67 71  1  0
 68 67  1  0
 69 70  1  0
 69 68  1  0
 70 66  1  0
 71 72  2  0
 72 73  1  0
 74 73  2  0
 75 74  1  0
 76 50  1  0
 76 77  1  0
 76 86  1  0
 77 80  1  0
 78 82  1  0
 78 77  1  0
 79 78  2  0
 82 81  1  0
 84 82  1  0
 84 85  1  0
 84 83  1  0
 86 89  1  1
 86 87  1  0
 88 86  1  0
 90 91  1  0
 91 93  1  0
 93 92  1  0
M  ISO  4   7 100  15 100  48 101  49 101
M  END
>  <TORSDO>  (84) 
F 22

>  <SCORE>  (84) 
-13.629

>  <name>  (84) 
83

>  <ligand_id>  (84) 
83

>  <original_smiles>  (84) 
[H]C(=C([H])C([H])([H])C([H])([H])Oc1c([H])c([H])c2c(c1[H])C([H])([H])N(C(=O)C([H])(N([H])C(=O)C([H])(N([H])C([H])([H])[H])C([H])([H])[H])C(C([H])([H])[H])(C([H])([H])[H])C([H])([H])[H])C([H])(C(=O)N([H])C1([H])c3c([H])c([H])c([H])c([H])c3C([H])([H])C([H])([H])C1([H])[H])C2([H])[H])c1c([H])c(OC([H])([H])C([H])([H])C([H])([H])[H])c([H])c(N([H])C(=O)N2C([H])([H])C([H])([H])C([H])([H])C([H])(n3nc(-c4c([H])c([H])c(Oc5c([H])c([H])c(F)c([H])c5F)c([H])c4[H])c(C(=O)N([H])[H])c3N([H])[H])C2([H])[H])c1[H]

>  <smiles>  (84) 
[H]C(=C([H])C([H])([H])C([H])([H])Oc1c([H])c([H])c2c(c1[H])C([H])([H])N(C(=O)C([H])(N([H])C(=O)C([H])(N([H])C([H])([H])[H])C([H])([H])[H])C(C([H])([H])[H])(C([H])([H])[H])C([H])([H])[H])C([H])(C(=O)N([H])C1([H])c3c([H])c([H])c([H])c([H])c3C([H])([H])C([H])([H])C1([H])[H])C2([H])[H])c1c([H])c(OC([H])([H])C([H])([H])C([H])([H])[H])c([H])c(N([H])C(=O)N2C([H])([H])C([H])([H])C([H])([H])C([H])(n3nc(-c4c([H])c([H])c(Oc5c([H])c([H])c(F)c([H])c5F)c([H])c4[H])c(C(=O)N([H])[H])c3N([H])[H])C2([H])[H])c1[H]

$$$$
84:0:0
     RDKit          3D

 91 99  0  0  1  0  0  0  0  0999 V2000
  -29.2120  -21.2890   20.6700 C   0  0  0  0  0  3  0  0  0  0  0  0
  -29.0480  -22.4910   19.9870 C   0  0  0  0  0  3  0  0  0  0  0  0
  -30.3040  -19.9360   18.8480 C   0  0  0  0  0  3  0  0  0  0  0  0
  -30.7810  -18.7630   18.2460 C   0  0  0  0  0  3  0  0  0  0  0  0
  -29.7110  -18.6280   20.8020 C   0  0  0  0  0  3  0  0  0  0  0  0
  -29.7380  -19.9320   20.1370 C   0  0  0  0  0  0  0  0  0  0  0  0
  -30.7230  -17.5100   18.8870 C   0  0  0  0  0  0  0  0  0  0  0  0
  -30.2190  -17.3850   20.2170 C   0  0  0  0  0  0  0  0  0  0  0  0
  -31.1250  -16.3200   18.0330 C   0  0  0  0  0  1  0  0  0  0  0  0
  -30.8790  -14.8900   20.7640 C   0  0  0  0  0  0  0  0  0  0  0  0
  -30.7550  -12.5740   19.8390 C   0  0  0  0  0  2  0  0  0  0  0  0
  -29.9080  -12.5890   18.5460 C   0  0  0  0  0  2  0  0  0  0  0  0
  -28.4070  -12.4570   18.8710 C   0  0  0  0  0  2  0  0  0  0  0  0
  -27.9490  -13.3770   20.0340 C   0  0  0  0  0  3  0  0  0  0  0  0
  -28.9260  -13.3220   21.2280 C   0  0  0  0  0  2  0  0  0  0  0  0
  -30.2600  -13.6590   20.7190 N   0  0  0  0  0  0  0  0  0  0  0  0
  -32.0930  -14.9640   20.5610 O   0  0  0  0  0  0  0  0  0  0  0  0
  -30.0900  -16.0360   20.8550 N   0  0  0  0  0  0  0  0  0  0  0  0
  -29.1820  -15.8610   21.2550 H   0  0  0  0  0  0  0  0  0  0  0  0
  -25.5150  -13.9740   20.5900 C   0  0  0  0  0  0  0  0  0  0  0  0
  -24.4270  -13.2040   20.9010 C   0  0  0  0  0  0  0  0  0  0  0  0
  -24.8940  -11.8540   20.9280 C   0  0  0  0  0  0  0  0  0  0  0  0
  -26.5740  -13.0940   20.4400 N   0  0  0  0  0  0  0  0  0  0  0  0
  -26.2030  -11.8140   20.7090 N   0  0  0  0  0  0  0  0  0  0  0  0
  -24.1580  -10.5920   21.0900 C   0  0  0  0  0  0  0  0  0  0  0  0
  -24.5240   -9.6430   22.0700 C   0  0  0  0  0  3  0  0  0  0  0  0
  -23.7890   -8.4470   22.2190 C   0  0  0  0  0  3  0  0  0  0  0  0
  -22.6730   -8.1910   21.3860 C   0  0  0  0  0  0  0  0  0  0  0  0
  -22.3270   -9.1290   20.3960 C   0  0  0  0  0  3  0  0  0  0  0  0
  -23.0650  -10.3150   20.2460 C   0  0  0  0  0  3  0  0  0  0  0  0
  -21.9140   -7.0460   21.4430 O   0  0  0  0  0  0  0  0  0  0  0  0
  -21.7760   -6.3310   22.6040 C   0  0  0  0  0  0  0  0  0  0  0  0
  -21.2340   -6.9070   23.7740 C   0  0  0  0  0  3  0  0  0  0  0  0
  -21.0450   -6.1160   24.9250 C   0  0  0  0  0  3  0  0  0  0  0  0
  -21.3880   -4.7510   24.9060 C   0  0  0  0  0  0  0  0  0  0  0  0
  -21.9220   -4.1750   23.7410 C   0  0  0  0  0  3  0  0  0  0  0  0
  -22.1130   -4.9630   22.5920 C   0  0  0  0  0  0  0  0  0  0  0  0
  -22.6090   -4.3970   21.4640 F   0  0  0  0  0  0  0  0  0  0  0  0
  -21.1980   -3.9900   26.0100 F   0  0  0  0  0  0  0  0  0  0  0  0
  -23.0130  -13.6800   21.0650 C   0  0  0  0  0  0  0  0  0  0  0  0
  -22.2280  -13.0000   21.8940 N   0  0  0  0  0  0  0  0  0  0  0  0
  -22.6100  -14.6910   20.4920 O   0  0  0  0  0  0  0  0  0  0  0  0
  -22.5660  -12.1820   22.3790 H   0  0  0  0  0  0  0  0  0  0  0  0
  -21.2770  -13.3030   22.0470 H   0  0  0  0  0  0  0  0  0  0  0  0
  -25.6890  -15.3410   20.3980 N   0  0  0  0  0  0  0  0  0  0  0  0
  -24.9130  -15.9940   20.4340 H   0  0  0  0  0  0  0  0  0  0  0  0
  -26.5530  -15.7730   20.0960 H   0  0  0  0  0  0  0  0  0  0  0  0
  -28.5760  -23.8560   20.5250 C   0  0  0  0  0  0  0  0  0  0  0  0
  -28.3300  -24.0170   21.7240 O   0  0  0  0  0  0  0  0  0  0  0  0
  -28.4020  -25.1090   19.5430 C   0  0  0  0  0  2  0  0  0  0  0  0
  -28.3410  -26.4890   20.1290 O   0  0  0  0  0  0  0  0  0  0  0  0
  -24.5880  -31.8850   23.1460 C   0  0  0  0  0  0  0  0  0  0  0  0
  -27.2060  -27.3250   20.0560 C   0  0  0  0  0  0  0  0  0  0  0  0
  -23.3820  -30.4880   21.5050 C   0  0  0  0  0  3  0  0  0  0  0  0
  -24.8330  -28.9450   20.0650 C   0  0  0  0  0  0  0  0  0  0  0  0
  -25.9200  -30.8140   21.3090 C   0  0  0  0  0  2  0  0  0  0  0  0
  -26.0020  -29.4350   20.6570 C   0  0  0  0  0  0  0  0  0  0  0  0
  -27.1880  -28.6350   20.6450 C   0  0  0  0  0  3  0  0  0  0  0  0
  -26.0040  -26.8950   19.4450 C   0  0  0  0  0  3  0  0  0  0  0  0
  -24.8380  -27.6850   19.4510 C   0  0  0  0  0  3  0  0  0  0  0  0
  -23.5920  -29.8150   20.1220 C   0  0  0  0  0  2  0  0  0  0  0  0
  -24.6490  -31.0800   22.0430 N   0  0  0  0  0  0  0  0  0  0  0  0
  -23.5060  -32.1540   23.6870 O   0  0  0  0  0  0  0  0  0  0  0  0
  -22.7280  -29.4650   22.4670 C   0  0  0  0  0  0  0  0  0  0  0  0
  -21.4000  -29.2860   22.3490 N   0  0  0  0  0  0  0  0  0  0  0  0
  -23.4130  -28.8370   23.2780 O   0  0  0  0  0  0  0  0  0  0  0  0
  -20.9070  -29.8480   21.6700 H   0  0  0  0  0  0  0  0  0  0  0  0
  -18.0290  -28.0830   22.8730 C   0  0  0  0  0  0  0  0  0  0  0  0
  -20.5890  -28.3430   23.1210 C   0  0  0  0  0  3  0  0  0  0  0  0
  -20.6860  -26.9150   22.5360 C   0  0  0  0  0  2  0  0  0  0  0  0
  -19.5760  -26.5980   21.5300 C   0  0  0  0  0  2  0  0  0  0  0  0
  -18.2000  -26.7380   22.1870 C   0  0  0  0  0  2  0  0  0  0  0  0
  -19.1500  -28.8430   23.2970 C   0  0  0  0  0  0  0  0  0  0  0  0
  -18.9360  -30.1010   23.9000 C   0  0  0  0  0  3  0  0  0  0  0  0
  -17.6310  -30.6000   24.0810 C   0  0  0  0  0  3  0  0  0  0  0  0
  -16.5250  -29.8370   23.6710 C   0  0  0  0  0  3  0  0  0  0  0  0
  -16.7240  -28.5800   23.0740 C   0  0  0  0  0  3  0  0  0  0  0  0
  -25.8700  -32.5220   23.7650 C   0  0  0  0  0  3  0  0  0  0  0  0
  -26.4030  -31.7400   25.0280 C   0  0  1  0  0  0  0  0  0  0  0  0
  -25.3200  -31.4840   26.1040 C   0  0  0  0  0  1  0  0  0  0  0  0
  -26.9900  -30.3710   24.6150 C   0  0  0  0  0  1  0  0  0  0  0  0
  -27.5550  -32.5330   25.6880 C   0  0  0  0  0  1  0  0  0  0  0  0
  -25.5500  -33.9130   24.1170 N   0  0  0  0  0  0  0  0  0  0  0  0
  -25.8920  -34.9820   23.3860 C   0  0  0  0  0  0  0  0  0  0  0  0
  -26.5780  -34.9010   22.3620 O   0  0  0  0  0  0  0  0  0  0  0  0
  -24.9420  -34.0500   24.9110 H   0  0  0  0  0  0  0  0  0  0  0  0
  -24.1880  -36.7960   23.0160 C   0  0  0  0  0  1  0  0  0  0  0  0
  -25.3940  -36.3600   23.8630 C   0  0  0  0  0  3  0  0  0  0  0  0
  -27.4980  -37.2120   24.8020 C   0  0  0  0  0  1  0  0  0  0  0  0
  -26.4350  -37.4100   23.8190 N   0  0  0  0  0  0  0  0  0  0  0  0
  -26.0280  -38.3290   23.9710 H   0  0  0  0  0  0  0  0  0  0  0  0
  2 48  1  0
  2  1  2  0
  3  6  1  0
  4  3  2  0
  4  7  1  0
  6  1  1  0
  6  5  2  0
  7  8  2  0
  8  5  1  0
  8 18  1  0
  9  7  1  0
 10 18  1  0
 11 16  1  0
 12 13  1  0
 12 11  1  0
 14 13  1  0
 14 23  1  0
 14 15  1  0
 16 10  1  0
 16 15  1  0
 17 10  2  0
 18 19  1  0
 20 21  2  0
 21 22  1  0
 21 40  1  0
 22 25  1  0
 23 20  1  0
 23 24  1  0
 24 22  2  0
 25 26  1  0
 26 27  2  0
 28 31  1  0
 28 27  1  0
 29 28  2  0
 30 29  1  0
 30 25  2  0
 31 32  1  0
 32 33  1  0
 33 34  2  0
 35 34  1  0
 35 39  1  0
 36 35  2  0
 37 32  2  0
 37 36  1  0
 38 37  1  0
 40 41  1  0
 41 44  1  0
 41 43  1  0
 42 40  2  0
 45 46  1  0
 45 20  1  0
 47 45  1  0
 48 49  2  0
 50 51  1  0
 50 48  1  0
 52 63  2  0
 53 51  1  0
 53 58  1  0
 54 62  1  0
 54 64  1  0
 55 61  1  0
 55 57  1  0
 56 62  1  0
 57 56  1  0
 58 57  2  0
 59 60  1  0
 59 53  2  0
 60 55  2  0
 61 54  1  0
 62 52  1  0
 64 66  2  0
 65 64  1  0
 67 65  1  0
 68 77  2  0
 68 73  1  0
 69 65  1  0
 69 73  1  0
 70 69  1  0
 71 72  1  0
 71 70  1  0
 72 68  1  0
 73 74  2  0
 74 75  1  0
 76 75  2  0
 77 76  1  0
 78 52  1  0
 78 83  1  0
 78 79  1  0
 79 82  1  1
 79 80  1  0
 81 79  1  0
 83 86  1  0
 84 88  1  0
 84 83  1  0
 85 84  2  0
 88 87  1  0
 90 88  1  0
 90 91  1  0
 90 89  1  0
M  ISO  4  10 100  18 100  50 101  51 101
M  END
>  <TORSDO>  (85) 
F 19

>  <SCORE>  (85) 
-13.893

>  <name>  (85) 
84

>  <ligand_id>  (85) 
84

>  <original_smiles>  (85) 
[H]C(C(=O)C([H])([H])Oc1c([H])c([H])c2c(c1[H])C([H])([H])N(C(=O)C([H])(N([H])C(=O)C([H])(N([H])C([H])([H])[H])C([H])([H])[H])C(C([H])([H])[H])(C([H])([H])[H])C([H])([H])[H])C([H])(C(=O)N([H])C1([H])c3c([H])c([H])c([H])c([H])c3C([H])([H])C([H])([H])C1([H])[H])C2([H])[H])=C([H])c1c([H])c([H])c(C([H])([H])[H])c(N([H])C(=O)N2C([H])([H])C([H])([H])C([H])([H])C([H])(n3nc(-c4c([H])c([H])c(Oc5c([H])c([H])c(F)c([H])c5F)c([H])c4[H])c(C(=O)N([H])[H])c3N([H])[H])C2([H])[H])c1[H]

>  <smiles>  (85) 
[H]C(C(=O)C([H])([H])Oc1c([H])c([H])c2c(c1[H])C([H])([H])N(C(=O)C([H])(N([H])C(=O)C([H])(N([H])C([H])([H])[H])C([H])([H])[H])C(C([H])([H])[H])(C([H])([H])[H])C([H])([H])[H])C([H])(C(=O)N([H])C1([H])c3c([H])c([H])c([H])c([H])c3C([H])([H])C([H])([H])C1([H])[H])C2([H])[H])=C([H])c1c([H])c([H])c(C([H])([H])[H])c(N([H])C(=O)N2C([H])([H])C([H])([H])C([H])([H])C([H])(n3nc(-c4c([H])c([H])c(Oc5c([H])c([H])c(F)c([H])c5F)c([H])c4[H])c(C(=O)N([H])[H])c3N([H])[H])C2([H])[H])c1[H]

$$$$
85:0:0
     RDKit          3D

 89 97  0  0  1  0  0  0  0  0999 V2000
  -29.7090  -21.9520   20.7560 C   0  0  0  0  0  3  0  0  0  0  0  0
  -29.5590  -23.0030   19.9170 C   0  0  0  0  0  3  0  0  0  0  0  0
  -29.5670  -20.0140   19.1140 C   0  0  0  0  0  3  0  0  0  0  0  0
  -29.7750  -20.5180   20.3640 C   0  0  0  0  0  0  0  0  0  0  0  0
  -30.1080  -19.4100   21.2110 C   0  0  0  0  0  3  0  0  0  0  0  0
  -30.0840  -18.2930   20.3970 C   0  0  0  0  0  0  0  0  0  0  0  0
  -30.4420  -19.4610   22.6820 C   0  0  0  0  0  1  0  0  0  0  0  0
  -29.7650  -18.6660   19.1210 O   0  0  0  0  0  0  0  0  0  0  0  0
  -30.3460  -16.8770   20.5540 C   0  0  0  0  0  0  0  0  0  0  0  0
  -30.4770  -15.6480   21.1260 C   0  0  0  0  0  3  0  0  0  0  0  0
  -31.1100  -14.5800   20.3480 C   0  0  0  0  0  0  0  0  0  0  0  0
  -30.7090  -12.5070   19.0650 C   0  0  0  0  0  2  0  0  0  0  0  0
  -29.7570  -12.8250   17.8940 C   0  0  0  0  0  2  0  0  0  0  0  0
  -28.2850  -12.7040   18.3390 C   0  0  0  0  0  2  0  0  0  0  0  0
  -28.0000  -13.4610   19.6630 C   0  0  0  0  0  3  0  0  0  0  0  0
  -29.0650  -13.1260   20.7310 C   0  0  0  0  0  2  0  0  0  0  0  0
  -30.3910  -13.4330   20.1680 N   0  0  0  0  0  0  0  0  0  0  0  0
  -32.2090  -14.7430   19.8090 O   0  0  0  0  0  0  0  0  0  0  0  0
  -25.6150  -14.0930   20.3940 C   0  0  0  0  0  0  0  0  0  0  0  0
  -24.5410  -13.3330   20.7670 C   0  0  0  0  0  0  0  0  0  0  0  0
  -24.9840  -11.9760   20.7260 C   0  0  0  0  0  0  0  0  0  0  0  0
  -26.6470  -13.2000   20.1490 N   0  0  0  0  0  0  0  0  0  0  0  0
  -26.2710  -11.9210   20.4060 N   0  0  0  0  0  0  0  0  0  0  0  0
  -24.2440  -10.7220   20.9180 C   0  0  0  0  0  0  0  0  0  0  0  0
  -24.6360   -9.7740   21.8890 C   0  0  0  0  0  3  0  0  0  0  0  0
  -23.8980   -8.5840   22.0660 C   0  0  0  0  0  3  0  0  0  0  0  0
  -22.7540   -8.3330   21.2720 C   0  0  0  0  0  0  0  0  0  0  0  0
  -22.3820   -9.2690   20.2910 C   0  0  0  0  0  3  0  0  0  0  0  0
  -23.1200  -10.4500   20.1120 C   0  0  0  0  0  3  0  0  0  0  0  0
  -21.9910   -7.1930   21.3550 O   0  0  0  0  0  0  0  0  0  0  0  0
  -21.8290   -6.5220   22.5400 C   0  0  0  0  0  0  0  0  0  0  0  0
  -21.2800   -7.1450   23.6810 C   0  0  0  0  0  3  0  0  0  0  0  0
  -21.0660   -6.3990   24.8570 C   0  0  0  0  0  3  0  0  0  0  0  0
  -21.3910   -5.0290   24.8920 C   0  0  0  0  0  0  0  0  0  0  0  0
  -21.9330   -4.4060   23.7550 C   0  0  0  0  0  3  0  0  0  0  0  0
  -22.1480   -5.1490   22.5810 C   0  0  0  0  0  0  0  0  0  0  0  0
  -22.6510   -4.5380   21.4820 F   0  0  0  0  0  0  0  0  0  0  0  0
  -21.1790   -4.3110   26.0200 F   0  0  0  0  0  0  0  0  0  0  0  0
  -23.1510  -13.8260   21.0560 C   0  0  0  0  0  0  0  0  0  0  0  0
  -22.4280  -13.1420   21.9360 N   0  0  0  0  0  0  0  0  0  0  0  0
  -22.7170  -14.8530   20.5360 O   0  0  0  0  0  0  0  0  0  0  0  0
  -22.7920  -12.3110   22.3780 H   0  0  0  0  0  0  0  0  0  0  0  0
  -21.4970  -13.4550   22.1710 H   0  0  0  0  0  0  0  0  0  0  0  0
  -25.7970  -15.4630   20.2230 N   0  0  0  0  0  0  0  0  0  0  0  0
  -25.0430  -16.1290   20.3490 H   0  0  0  0  0  0  0  0  0  0  0  0
  -26.6600  -15.8920   19.9140 H   0  0  0  0  0  0  0  0  0  0  0  0
  -29.5540  -24.4820   20.3200 C   0  0  0  0  0  2  0  0  0  0  0  0
  -28.3080  -25.2660   19.8420 C   0  0  0  0  0  2  0  0  0  0  0  0
  -28.4030  -26.6780   20.1260 O   0  0  0  0  0  0  0  0  0  0  0  0
  -24.6420  -31.8900   23.2140 C   0  0  0  0  0  0  0  0  0  0  0  0
  -27.2360  -27.4260   20.0970 C   0  0  0  0  0  0  0  0  0  0  0  0
  -23.4180  -30.5060   21.5700 C   0  0  0  0  0  3  0  0  0  0  0  0
  -24.8540  -28.9690   20.1280 C   0  0  0  0  0  0  0  0  0  0  0  0
  -25.9480  -30.8430   21.3650 C   0  0  0  0  0  2  0  0  0  0  0  0
  -26.0200  -29.4750   20.7140 C   0  0  0  0  0  0  0  0  0  0  0  0
  -27.2130  -28.7110   20.6940 C   0  0  0  0  0  3  0  0  0  0  0  0
  -26.0480  -26.9480   19.4950 C   0  0  0  0  0  3  0  0  0  0  0  0
  -24.8630  -27.7060   19.5150 C   0  0  0  0  0  3  0  0  0  0  0  0
  -23.6160  -29.8360   20.1860 C   0  0  0  0  0  2  0  0  0  0  0  0
  -24.6890  -31.0940   22.1080 N   0  0  0  0  0  0  0  0  0  0  0  0
  -23.5640  -32.1670   23.7600 O   0  0  0  0  0  0  0  0  0  0  0  0
  -22.7650  -29.4830   22.5270 C   0  0  0  0  0  0  0  0  0  0  0  0
  -21.4450  -29.2830   22.3800 N   0  0  0  0  0  0  0  0  0  0  0  0
  -23.4430  -28.8710   23.3570 O   0  0  0  0  0  0  0  0  0  0  0  0
  -20.9590  -29.8270   21.6820 H   0  0  0  0  0  0  0  0  0  0  0  0
  -18.0850  -28.0190   22.8010 C   0  0  0  0  0  0  0  0  0  0  0  0
  -20.6280  -28.3410   23.1450 C   0  0  0  0  0  3  0  0  0  0  0  0
  -20.7800  -26.9020   22.5980 C   0  0  0  0  0  2  0  0  0  0  0  0
  -19.7160  -26.5360   21.5590 C   0  0  0  0  0  2  0  0  0  0  0  0
  -18.3130  -26.6620   22.1590 C   0  0  0  0  0  2  0  0  0  0  0  0
  -19.1730  -28.8150   23.2490 C   0  0  0  0  0  0  0  0  0  0  0  0
  -18.9090  -30.0850   23.8080 C   0  0  0  0  0  3  0  0  0  0  0  0
  -17.5890  -30.5590   23.9230 C   0  0  0  0  0  3  0  0  0  0  0  0
  -16.5160  -29.7610   23.4930 C   0  0  0  0  0  3  0  0  0  0  0  0
  -16.7640  -28.4940   22.9370 C   0  0  0  0  0  3  0  0  0  0  0  0
  -25.9350  -32.5090   23.8310 C   0  0  0  0  0  3  0  0  0  0  0  0
  -26.4690  -31.7120   25.0830 C   0  0  1  0  0  0  0  0  0  0  0  0
  -25.3890  -31.4500   26.1590 C   0  0  0  0  0  1  0  0  0  0  0  0
  -27.0500  -30.3440   24.6550 C   0  0  0  0  0  1  0  0  0  0  0  0
  -27.6250  -32.4950   25.7490 C   0  0  0  0  0  1  0  0  0  0  0  0
  -25.6300  -33.8990   24.1900 N   0  0  0  0  0  0  0  0  0  0  0  0
  -25.9440  -34.9650   23.4410 C   0  0  0  0  0  0  0  0  0  0  0  0
  -26.5940  -34.8800   22.3950 O   0  0  0  0  0  0  0  0  0  0  0  0
  -25.0500  -34.0400   25.0040 H   0  0  0  0  0  0  0  0  0  0  0  0
  -24.2060  -36.7590   23.1490 C   0  0  0  0  0  1  0  0  0  0  0  0
  -25.4620  -36.3450   23.9310 C   0  0  0  0  0  3  0  0  0  0  0  0
  -27.6090  -37.2220   24.7410 C   0  0  0  0  0  1  0  0  0  0  0  0
  -26.4910  -37.4010   23.8180 N   0  0  0  0  0  0  0  0  0  0  0  0
  -26.0860  -38.3180   23.9860 H   0  0  0  0  0  0  0  0  0  0  0  0
  2 47  1  0
  2  1  2  0
  3  8  1  0
  3  4  2  0
  4  1  1  0
  4  5  1  0
  5  7  1  0
  6  9  2  0
  6  5  1  0
  8  6  1  0
  9 10  2  0
 11 10  1  0
 12 17  1  0
 13 14  1  0
 13 12  1  0
 15 14  1  0
 15 22  1  0
 15 16  1  0
 17 11  1  0
 17 16  1  0
 18 11  2  0
 19 20  2  0
 20 39  1  0
 21 20  1  0
 21 24  1  0
 22 19  1  0
 22 23  1  0
 23 21  2  0
 24 25  1  0
 25 26  2  0
 27 30  1  0
 27 26  1  0
 28 27  2  0
 29 28  1  0
 29 24  2  0
 30 31  1  0
 31 36  2  0
 31 32  1  0
 32 33  2  0
 33 34  1  0
 34 38  1  0
 35 34  2  0
 36 35  1  0
 37 36  1  0
 39 40  1  0
 40 43  1  0
 40 42  1  0
 41 39  2  0
 44 45  1  0
 44 19  1  0
 46 44  1  0
 48 49  1  0
 48 47  1  0
 50 61  2  0
 51 49  1  0
 51 56  1  0
 52 60  1  0
 52 62  1  0
 53 59  1  0
 53 55  1  0
 54 60  1  0
 55 54  1  0
 56 55  2  0
 57 58  1  0
 57 51  2  0
 58 53  2  0
 59 52  1  0
 60 50  1  0
 62 64  2  0
 63 62  1  0
 65 63  1  0
 66 75  2  0
 66 71  1  0
 67 63  1  0
 67 71  1  0
 68 67  1  0
 69 70  1  0
 69 68  1  0
 70 66  1  0
 71 72  2  0
 72 73  1  0
 74 73  2  0
 75 74  1  0
 76 50  1  0
 76 81  1  0
 76 77  1  0
 77 80  1  1
 77 78  1  0
 79 77  1  0
 81 84  1  0
 82 86  1  0
 82 81  1  0
 83 82  2  0
 86 85  1  0
 88 86  1  0
 88 89  1  0
 88 87  1  0
M  ISO  4  10 100  11 100  48 101  49 101
M  END
>  <TORSDO>  (86) 
F 20

>  <SCORE>  (86) 
-13.130

>  <name>  (86) 
85

>  <ligand_id>  (86) 
85

>  <original_smiles>  (86) 
[H]C(C(=O)N1C([H])([H])C([H])([H])C([H])([H])C([H])(n2nc(-c3c([H])c([H])c(Oc4c([H])c([H])c(F)c([H])c4F)c([H])c3[H])c(C(=O)N([H])[H])c2N([H])[H])C1([H])[H])=C([H])c1oc([H])c(C([H])=C([H])C([H])([H])C([H])([H])Oc2c([H])c([H])c3c(c2[H])C([H])([H])N(C(=O)C([H])(N([H])C(=O)C([H])(N([H])C([H])([H])[H])C([H])([H])[H])C(C([H])([H])[H])(C([H])([H])[H])C([H])([H])[H])C([H])(C(=O)N([H])C2([H])c4c([H])c([H])c([H])c([H])c4C([H])([H])C([H])([H])C2([H])[H])C3([H])[H])c1C([H])([H])[H]

>  <smiles>  (86) 
[H]C(C(=O)N1C([H])([H])C([H])([H])C([H])([H])C([H])(n2nc(-c3c([H])c([H])c(Oc4c([H])c([H])c(F)c([H])c4F)c([H])c3[H])c(C(=O)N([H])[H])c2N([H])[H])C1([H])[H])=C([H])c1oc([H])c(C([H])=C([H])C([H])([H])C([H])([H])Oc2c([H])c([H])c3c(c2[H])C([H])([H])N(C(=O)C([H])(N([H])C(=O)C([H])(N([H])C([H])([H])[H])C([H])([H])[H])C(C([H])([H])[H])(C([H])([H])[H])C([H])([H])[H])C([H])(C(=O)N([H])C2([H])c4c([H])c([H])c([H])c([H])c4C([H])([H])C([H])([H])C2([H])[H])C3([H])[H])c1C([H])([H])[H]

$$$$
86:0:0
     RDKit          3D

 95103  0  0  1  0  0  0  0  0999 V2000
  -30.5710  -23.8850   19.8020 C   0  0  0  0  0  3  0  0  0  0  0  0
  -30.2650  -22.8820   18.9530 C   0  0  0  0  0  0  0  0  0  0  0  0
  -30.0050  -22.5530   16.4980 C   0  0  0  0  0  2  0  0  0  0  0  0
  -30.6020  -23.1240   17.5560 C   0  0  0  0  0  3  0  0  0  0  0  0
  -30.3000  -24.0040   21.2900 C   0  0  0  0  0  2  0  0  0  0  0  0
  -29.6360  -25.3560   21.6150 C   0  0  0  0  0  2  0  0  0  0  0  0
  -28.3010  -25.6200   20.8850 C   0  0  0  0  0  2  0  0  0  0  0  0
  -28.3990  -26.8450   20.1530 O   0  0  0  0  0  0  0  0  0  0  0  0
  -24.5710  -31.9530   23.2170 C   0  0  0  0  0  0  0  0  0  0  0  0
  -27.2330  -27.5650   20.1180 C   0  0  0  0  0  0  0  0  0  0  0  0
  -23.3680  -30.5530   21.5690 C   0  0  0  0  0  3  0  0  0  0  0  0
  -24.8280  -29.0360   20.1300 C   0  0  0  0  0  0  0  0  0  0  0  0
  -25.8880  -30.9410   21.3600 C   0  0  0  0  0  2  0  0  0  0  0  0
  -25.9820  -29.5760   20.7120 C   0  0  0  0  0  0  0  0  0  0  0  0
  -27.1920  -28.8510   20.6940 C   0  0  0  0  0  3  0  0  0  0  0  0
  -26.0670  -27.0290   19.5310 C   0  0  0  0  0  3  0  0  0  0  0  0
  -24.8640  -27.7630   19.5330 C   0  0  0  0  0  3  0  0  0  0  0  0
  -23.5760  -29.8810   20.1850 C   0  0  0  0  0  2  0  0  0  0  0  0
  -24.6280  -31.1620   22.1080 N   0  0  0  0  0  0  0  0  0  0  0  0
  -23.4900  -32.2150   23.7620 O   0  0  0  0  0  0  0  0  0  0  0  0
  -22.7260  -29.5230   22.5240 C   0  0  0  0  0  0  0  0  0  0  0  0
  -21.4040  -29.3290   22.3900 N   0  0  0  0  0  0  0  0  0  0  0  0
  -23.4140  -28.9010   23.3370 O   0  0  0  0  0  0  0  0  0  0  0  0
  -20.9120  -29.8820   21.7030 H   0  0  0  0  0  0  0  0  0  0  0  0
  -18.0390  -28.1040   22.8600 C   0  0  0  0  0  0  0  0  0  0  0  0
  -20.5920  -28.3830   23.1540 C   0  0  0  0  0  3  0  0  0  0  0  0
  -20.7120  -26.9550   22.5760 C   0  0  0  0  0  2  0  0  0  0  0  0
  -19.6220  -26.6240   21.5530 C   0  0  0  0  0  2  0  0  0  0  0  0
  -18.2340  -26.7560   22.1860 C   0  0  0  0  0  2  0  0  0  0  0  0
  -19.1470  -28.8750   23.3000 C   0  0  0  0  0  0  0  0  0  0  0  0
  -18.9120  -30.1380   23.8880 C   0  0  0  0  0  3  0  0  0  0  0  0
  -17.6020  -30.6270   24.0410 C   0  0  0  0  0  3  0  0  0  0  0  0
  -16.5080  -29.8520   23.6200 C   0  0  0  0  0  3  0  0  0  0  0  0
  -16.7270  -28.5930   23.0340 C   0  0  0  0  0  3  0  0  0  0  0  0
  -25.8550  -32.5840   23.8390 C   0  0  0  0  0  3  0  0  0  0  0  0
  -25.5380  -33.9750   24.1900 N   0  0  0  0  0  0  0  0  0  0  0  0
  -25.8670  -35.0390   23.4460 C   0  0  0  0  0  0  0  0  0  0  0  0
  -26.5390  -34.9550   22.4160 O   0  0  0  0  0  0  0  0  0  0  0  0
  -24.9380  -34.1130   24.9890 H   0  0  0  0  0  0  0  0  0  0  0  0
  -24.1310  -36.8280   23.1060 C   0  0  0  0  0  1  0  0  0  0  0  0
  -25.3680  -36.4170   23.9220 C   0  0  0  0  0  3  0  0  0  0  0  0
  -27.4930  -37.2960   24.7810 C   0  0  0  0  0  1  0  0  0  0  0  0
  -26.3960  -37.4770   23.8340 N   0  0  0  0  0  0  0  0  0  0  0  0
  -25.9840  -38.3930   23.9970 H   0  0  0  0  0  0  0  0  0  0  0  0
  -26.3880  -31.7980   25.0980 C   0  0  1  0  0  0  0  0  0  0  0  0
  -25.3060  -31.5350   26.1700 C   0  0  0  0  0  1  0  0  0  0  0  0
  -26.9790  -30.4330   24.6760 C   0  0  0  0  0  1  0  0  0  0  0  0
  -27.5370  -32.5920   25.7640 C   0  0  0  0  0  1  0  0  0  0  0  0
  -29.6310  -21.5610   19.4080 C   0  0  0  0  0  2  0  0  0  0  0  0
  -30.6930  -20.4570   19.6390 C   0  0  0  0  0  2  0  0  0  0  0  0
  -29.3390  -16.3980   18.8370 C   0  0  0  0  0  3  0  0  0  0  0  0
  -29.3800  -17.3510   17.8060 C   0  0  0  0  0  3  0  0  0  0  0  0
  -30.1740  -18.0630   20.4150 C   0  0  0  0  0  3  0  0  0  0  0  0
  -30.2050  -19.0320   19.3770 C   0  0  0  0  0  0  0  0  0  0  0  0
  -29.7700  -16.7320   20.1410 C   0  0  0  0  0  0  0  0  0  0  0  0
  -29.8330  -18.6520   18.0670 C   0  0  0  0  0  0  0  0  0  0  0  0
  -29.9160  -19.5290   17.0420 F   0  0  0  0  0  0  0  0  0  0  0  0
  -30.6170  -14.6900   21.1180 C   0  0  0  0  0  0  0  0  0  0  0  0
  -30.5430  -12.4200   20.1970 C   0  0  0  0  0  2  0  0  0  0  0  0
  -29.7470  -12.4900   18.8770 C   0  0  0  0  0  2  0  0  0  0  0  0
  -28.2300  -12.3520   19.1400 C   0  0  0  0  0  2  0  0  0  0  0  0
  -27.7190  -13.2550   20.2970 C   0  0  0  0  0  3  0  0  0  0  0  0
  -28.6530  -13.1710   21.5280 C   0  0  0  0  0  2  0  0  0  0  0  0
  -30.0230  -13.4700   21.0830 N   0  0  0  0  0  0  0  0  0  0  0  0
  -31.8160  -14.8690   20.8900 O   0  0  0  0  0  0  0  0  0  0  0  0
  -29.7610  -15.7290   21.1540 N   0  0  0  0  0  0  0  0  0  0  0  0
  -28.8400  -15.4600   21.4640 H   0  0  0  0  0  0  0  0  0  0  0  0
  -25.2510  -13.8220   20.7530 C   0  0  0  0  0  0  0  0  0  0  0  0
  -24.1680  -13.0310   21.0280 C   0  0  0  0  0  0  0  0  0  0  0  0
  -24.6600  -11.6900   21.0700 C   0  0  0  0  0  0  0  0  0  0  0  0
  -26.3330  -12.9600   20.6460 N   0  0  0  0  0  0  0  0  0  0  0  0
  -25.9750  -11.6760   20.8950 N   0  0  0  0  0  0  0  0  0  0  0  0
  -23.9460  -10.4150   21.2070 C   0  0  0  0  0  0  0  0  0  0  0  0
  -24.3330   -9.4570   22.1710 C   0  0  0  0  0  3  0  0  0  0  0  0
  -23.6230   -8.2430   22.3000 C   0  0  0  0  0  3  0  0  0  0  0  0
  -22.5140   -7.9800   21.4620 C   0  0  0  0  0  0  0  0  0  0  0  0
  -22.1470   -8.9270   20.4900 C   0  0  0  0  0  3  0  0  0  0  0  0
  -22.8580  -10.1320   20.3600 C   0  0  0  0  0  3  0  0  0  0  0  0
  -21.7790   -6.8200   21.4990 O   0  0  0  0  0  0  0  0  0  0  0  0
  -21.6880   -6.0580   22.6370 C   0  0  0  0  0  0  0  0  0  0  0  0
  -21.1980   -6.5880   23.8500 C   0  0  0  0  0  3  0  0  0  0  0  0
  -21.0590   -5.7520   24.9770 C   0  0  0  0  0  3  0  0  0  0  0  0
  -21.3990   -4.3890   24.8900 C   0  0  0  0  0  0  0  0  0  0  0  0
  -21.8820   -3.8590   23.6810 C   0  0  0  0  0  3  0  0  0  0  0  0
  -22.0240   -4.6910   22.5560 C   0  0  0  0  0  0  0  0  0  0  0  0
  -22.4700   -4.1700   21.3890 F   0  0  0  0  0  0  0  0  0  0  0  0
  -21.2570   -3.5850   25.9690 F   0  0  0  0  0  0  0  0  0  0  0  0
  -22.7400  -13.4770   21.1480 C   0  0  0  0  0  0  0  0  0  0  0  0
  -21.9420  -12.7820   21.9520 N   0  0  0  0  0  0  0  0  0  0  0  0
  -22.3330  -14.4810   20.5620 O   0  0  0  0  0  0  0  0  0  0  0  0
  -22.2780  -11.9720   22.4510 H   0  0  0  0  0  0  0  0  0  0  0  0
  -20.9790  -13.0650   22.0700 H   0  0  0  0  0  0  0  0  0  0  0  0
  -25.4040  -15.1920   20.5670 N   0  0  0  0  0  0  0  0  0  0  0  0
  -24.6150  -15.8320   20.5850 H   0  0  0  0  0  0  0  0  0  0  0  0
  -26.2720  -15.6460   20.3150 H   0  0  0  0  0  0  0  0  0  0  0  0
  1  5  1  0
  2 49  1  0
  2  1  2  0
  3  4  2  0
  4  2  1  0
  5  6  1  0
  7  6  1  0
  8  7  1  0
  9 20  2  0
 10  8  1  0
 10 15  1  0
 11 19  1  0
 11 21  1  0
 12 18  1  0
 12 14  1  0
 13 19  1  0
 14 13  1  0
 15 14  2  0
 16 17  1  0
 16 10  2  0
 17 12  2  0
 18 11  1  0
 19  9  1  0
 21 23  2  0
 22 21  1  0
 24 22  1  0
 25 34  2  0
 25 30  1  0
 26 22  1  0
 26 30  1  0
 27 26  1  0
 28 29  1  0
 28 27  1  0
 29 25  1  0
 30 31  2  0
 31 32  1  0
 33 32  2  0
 34 33  1  0
 35  9  1  0
 35 36  1  0
 35 45  1  0
 36 39  1  0
 37 41  1  0
 37 36  1  0
 38 37  2  0
 41 40  1  0
 43 41  1  0
 43 44  1  0
 43 42  1  0
 45 48  1  1
 45 46  1  0
 47 45  1  0
 49 50  1  0
 51 55  1  0
 52 56  1  0
 52 51  2  0
 54 50  1  0
 54 53  1  0
 55 53  2  0
 55 66  1  0
 56 54  2  0
 57 56  1  0
 58 66  1  0
 59 64  1  0
 60 61  1  0
 60 59  1  0
 62 61  1  0
 62 71  1  0
 62 63  1  0
 64 58  1  0
 64 63  1  0
 65 58  2  0
 66 67  1  0
 68 69  2  0
 69 70  1  0
 69 88  1  0
 70 73  1  0
 71 68  1  0
 71 72  1  0
 72 70  2  0
 73 74  1  0
 74 75  2  0
 76 79  1  0
 76 75  1  0
 77 76  2  0
 78 77  1  0
 78 73  2  0
 79 80  1  0
 80 81  1  0
 81 82  2  0
 83 82  1  0
 83 87  1  0
 84 83  2  0
 85 80  2  0
 85 84  1  0
 86 85  1  0
 88 89  1  0
 89 92  1  0
 89 91  1  0
 90 88  2  0
 93 94  1  0
 93 68  1  0
 95 93  1  0
M  ISO  4   7 101   8 101  58 100  66 100
M  END
>  <TORSDO>  (87) 
F 23

>  <SCORE>  (87) 
-12.164

>  <name>  (87) 
86

>  <ligand_id>  (87) 
86

>  <original_smiles>  (87) 
[H]C([H])=C([H])C(=C([H])C([H])([H])C([H])([H])C([H])([H])Oc1c([H])c([H])c2c(c1[H])C([H])([H])N(C(=O)C([H])(N([H])C(=O)C([H])(N([H])C([H])([H])[H])C([H])([H])[H])C(C([H])([H])[H])(C([H])([H])[H])C([H])([H])[H])C([H])(C(=O)N([H])C1([H])c3c([H])c([H])c([H])c([H])c3C([H])([H])C([H])([H])C1([H])[H])C2([H])[H])C([H])([H])C([H])([H])c1c([H])c(N([H])C(=O)N2C([H])([H])C([H])([H])C([H])([H])C([H])(n3nc(-c4c([H])c([H])c(Oc5c([H])c([H])c(F)c([H])c5F)c([H])c4[H])c(C(=O)N([H])[H])c3N([H])[H])C2([H])[H])c([H])c([H])c1F

>  <smiles>  (87) 
[H]C([H])=C([H])C(=C([H])C([H])([H])C([H])([H])C([H])([H])Oc1c([H])c([H])c2c(c1[H])C([H])([H])N(C(=O)C([H])(N([H])C(=O)C([H])(N([H])C([H])([H])[H])C([H])([H])[H])C(C([H])([H])[H])(C([H])([H])[H])C([H])([H])[H])C([H])(C(=O)N([H])C1([H])c3c([H])c([H])c([H])c([H])c3C([H])([H])C([H])([H])C1([H])[H])C2([H])[H])C([H])([H])C([H])([H])c1c([H])c(N([H])C(=O)N2C([H])([H])C([H])([H])C([H])([H])C([H])(n3nc(-c4c([H])c([H])c(Oc5c([H])c([H])c(F)c([H])c5F)c([H])c4[H])c(C(=O)N([H])[H])c3N([H])[H])C2([H])[H])c([H])c([H])c1F

$$$$
87:0:0
     RDKit          3D

 91 99  0  0  1  0  0  0  0  0999 V2000
  -30.0910  -22.4360   21.6660 C   0  0  0  0  0  3  0  0  0  0  0  0
  -29.4000  -23.2300   20.8260 C   0  0  0  0  0  3  0  0  0  0  0  0
  -29.3100  -18.7970   20.8120 C   0  0  0  0  0  3  0  0  0  0  0  0
  -29.1530  -20.1880   21.0070 C   0  0  0  0  0  3  0  0  0  0  0  0
  -31.5480  -18.9400   21.7400 C   0  0  0  0  0  3  0  0  0  0  0  0
  -30.5270  -18.1690   21.1440 C   0  0  0  0  0  0  0  0  0  0  0  0
  -30.1940  -20.9680   21.5650 C   0  0  0  0  0  0  0  0  0  0  0  0
  -31.4000  -20.3270   21.9390 C   0  0  0  0  0  0  0  0  0  0  0  0
  -32.5730  -21.1230   22.4890 C   0  0  0  0  0  1  0  0  0  0  0  0
  -30.8400  -16.7680   20.8140 C   0  0  0  0  0  3  0  0  0  0  0  0
  -30.0210  -15.7150   20.5690 C   0  0  0  0  0  3  0  0  0  0  0  0
  -30.6420  -14.4980   20.0360 C   0  0  0  0  0  0  0  0  0  0  0  0
  -30.1870  -12.3570   18.9220 C   0  0  0  0  0  2  0  0  0  0  0  0
  -29.1850  -12.5810   17.7740 C   0  0  0  0  0  2  0  0  0  0  0  0
  -27.7450  -12.4370   18.2920 C   0  0  0  0  0  2  0  0  0  0  0  0
  -27.4850  -13.2700   19.5760 C   0  0  0  0  0  3  0  0  0  0  0  0
  -28.6120  -13.0860   20.6180 C   0  0  0  0  0  2  0  0  0  0  0  0
  -29.8980  -13.3590   19.9620 N   0  0  0  0  0  0  0  0  0  0  0  0
  -31.7510  -14.5590   19.4990 O   0  0  0  0  0  0  0  0  0  0  0  0
  -25.1460  -13.8490   20.4730 C   0  0  0  0  0  0  0  0  0  0  0  0
  -24.1020  -13.0630   20.8850 C   0  0  0  0  0  0  0  0  0  0  0  0
  -24.5570  -11.7130   20.7770 C   0  0  0  0  0  0  0  0  0  0  0  0
  -26.1700  -12.9760   20.1400 N   0  0  0  0  0  0  0  0  0  0  0  0
  -25.8250  -11.6840   20.3820 N   0  0  0  0  0  0  0  0  0  0  0  0
  -23.8410  -10.4450   20.9710 C   0  0  0  0  0  0  0  0  0  0  0  0
  -24.2930   -9.4750   21.8920 C   0  0  0  0  0  3  0  0  0  0  0  0
  -23.5760   -8.2730   22.0750 C   0  0  0  0  0  3  0  0  0  0  0  0
  -22.3930   -8.0330   21.3360 C   0  0  0  0  0  0  0  0  0  0  0  0
  -21.9610   -8.9920   20.4030 C   0  0  0  0  0  3  0  0  0  0  0  0
  -22.6790  -10.1850   20.2190 C   0  0  0  0  0  3  0  0  0  0  0  0
  -21.6450   -6.8840   21.4270 O   0  0  0  0  0  0  0  0  0  0  0  0
  -21.5710   -6.1650   22.5940 C   0  0  0  0  0  0  0  0  0  0  0  0
  -21.0620   -6.7290   23.7840 C   0  0  0  0  0  3  0  0  0  0  0  0
  -20.9380   -5.9350   24.9430 C   0  0  0  0  0  3  0  0  0  0  0  0
  -21.3120   -4.5780   24.9090 C   0  0  0  0  0  0  0  0  0  0  0  0
  -21.8150   -4.0140   23.7240 C   0  0  0  0  0  3  0  0  0  0  0  0
  -21.9400   -4.8050   22.5690 C   0  0  0  0  0  0  0  0  0  0  0  0
  -22.4040   -4.2520   21.4220 F   0  0  0  0  0  0  0  0  0  0  0  0
  -21.1860   -3.8120   26.0180 F   0  0  0  0  0  0  0  0  0  0  0  0
  -22.7290  -13.5310   21.2680 C   0  0  0  0  0  0  0  0  0  0  0  0
  -22.0590  -12.8020   22.1550 N   0  0  0  0  0  0  0  0  0  0  0  0
  -22.2610  -14.5750   20.8170 O   0  0  0  0  0  0  0  0  0  0  0  0
  -22.4540  -11.9580   22.5400 H   0  0  0  0  0  0  0  0  0  0  0  0
  -21.1380  -13.0950   22.4510 H   0  0  0  0  0  0  0  0  0  0  0  0
  -25.3060  -15.2240   20.3310 N   0  0  0  0  0  0  0  0  0  0  0  0
  -24.5540  -15.8790   20.5140 H   0  0  0  0  0  0  0  0  0  0  0  0
  -26.1400  -15.6680   19.9700 H   0  0  0  0  0  0  0  0  0  0  0  0
  -29.3760  -24.6940   20.9870 C   0  0  0  0  0  0  0  0  0  0  0  0
  -29.9640  -25.2860   21.9010 O   0  0  0  0  0  0  0  0  0  0  0  0
  -28.5660  -25.4870   19.9550 C   0  0  0  0  0  2  0  0  0  0  0  0
  -28.5920  -26.8900   20.2510 O   0  0  0  0  0  0  0  0  0  0  0  0
  -24.6280  -31.9370   23.2840 C   0  0  0  0  0  0  0  0  0  0  0  0
  -27.3950  -27.5730   20.2120 C   0  0  0  0  0  0  0  0  0  0  0  0
  -23.4760  -30.5330   21.6070 C   0  0  0  0  0  3  0  0  0  0  0  0
  -24.9770  -29.0370   20.1940 C   0  0  0  0  0  0  0  0  0  0  0  0
  -25.9990  -30.9370   21.4590 C   0  0  0  0  0  2  0  0  0  0  0  0
  -26.1160  -29.5730   20.8080 C   0  0  0  0  0  0  0  0  0  0  0  0
  -27.3260  -28.8480   20.8150 C   0  0  0  0  0  3  0  0  0  0  0  0
  -26.2390  -27.0550   19.5820 C   0  0  0  0  0  3  0  0  0  0  0  0
  -25.0330  -27.7760   19.5810 C   0  0  0  0  0  3  0  0  0  0  0  0
  -23.7220  -29.8770   20.2240 C   0  0  0  0  0  2  0  0  0  0  0  0
  -24.7180  -31.1490   22.1770 N   0  0  0  0  0  0  0  0  0  0  0  0
  -23.5320  -32.1860   23.8070 O   0  0  0  0  0  0  0  0  0  0  0  0
  -22.8270  -29.4880   22.5430 C   0  0  0  0  0  0  0  0  0  0  0  0
  -21.5060  -29.2940   22.3960 N   0  0  0  0  0  0  0  0  0  0  0  0
  -23.5070  -28.8580   23.3570 O   0  0  0  0  0  0  0  0  0  0  0  0
  -21.0200  -29.8550   21.7110 H   0  0  0  0  0  0  0  0  0  0  0  0
  -18.1320  -28.0870   22.8530 C   0  0  0  0  0  0  0  0  0  0  0  0
  -20.6880  -28.3380   23.1400 C   0  0  0  0  0  3  0  0  0  0  0  0
  -20.7950  -26.9210   22.5280 C   0  0  0  0  0  2  0  0  0  0  0  0
  -19.6950  -26.6240   21.5040 C   0  0  0  0  0  2  0  0  0  0  0  0
  -18.3110  -26.7540   22.1470 C   0  0  0  0  0  2  0  0  0  0  0  0
  -19.2490  -28.8390   23.3050 C   0  0  0  0  0  0  0  0  0  0  0  0
  -19.0290  -30.0890   23.9240 C   0  0  0  0  0  3  0  0  0  0  0  0
  -17.7240  -30.5860   24.0980 C   0  0  0  0  0  3  0  0  0  0  0  0
  -16.6210  -29.8310   23.6620 C   0  0  0  0  0  3  0  0  0  0  0  0
  -16.8250  -28.5840   23.0450 C   0  0  0  0  0  3  0  0  0  0  0  0
  -25.8930  -32.5810   23.9330 C   0  0  0  0  0  3  0  0  0  0  0  0
  -26.3750  -31.8260   25.2310 C   0  0  1  0  0  0  0  0  0  0  0  0
  -25.2530  -31.5850   26.2650 C   0  0  0  0  0  1  0  0  0  0  0  0
  -26.9850  -30.4510   24.8670 C   0  0  0  0  0  1  0  0  0  0  0  0
  -27.4970  -32.6360   25.9240 C   0  0  0  0  0  1  0  0  0  0  0  0
  -25.5700  -33.9810   24.2350 N   0  0  0  0  0  0  0  0  0  0  0  0
  -25.8890  -35.0200   23.4520 C   0  0  0  0  0  0  0  0  0  0  0  0
  -26.5590  -34.9020   22.4220 O   0  0  0  0  0  0  0  0  0  0  0  0
  -24.9760  -34.1460   25.0340 H   0  0  0  0  0  0  0  0  0  0  0  0
  -24.1250  -36.7720   23.0720 C   0  0  0  0  0  1  0  0  0  0  0  0
  -25.3820  -36.4110   23.8800 C   0  0  0  0  0  3  0  0  0  0  0  0
  -27.5060  -37.3570   24.6670 C   0  0  0  0  0  1  0  0  0  0  0  0
  -26.3940  -37.4790   23.7280 N   0  0  0  0  0  0  0  0  0  0  0  0
  -25.9710  -38.3950   23.8590 H   0  0  0  0  0  0  0  0  0  0  0  0
  2 48  1  0
  2  1  2  0
  3  4  2  0
  3  6  1  0
  4  7  1  0
  5  8  1  0
  6  5  2  0
  7  1  1  0
  7  8  2  0
  8  9  1  0
 10  6  1  0
 11 10  2  0
 12 11  1  0
 13 18  1  0
 14 15  1  0
 14 13  1  0
 16 15  1  0
 16 23  1  0
 16 17  1  0
 18 12  1  0
 18 17  1  0
 19 12  2  0
 20 21  2  0
 21 40  1  0
 22 21  1  0
 22 25  1  0
 23 24  1  0
 23 20  1  0
 24 22  2  0
 25 26  1  0
 26 27  2  0
 28 31  1  0
 28 27  1  0
 29 28  2  0
 30 29  1  0
 30 25  2  0
 31 32  1  0
 32 33  1  0
 33 34  2  0
 35 34  1  0
 35 39  1  0
 36 35  2  0
 37 32  2  0
 37 36  1  0
 38 37  1  0
 40 41  1  0
 41 44  1  0
 41 43  1  0
 42 40  2  0
 45 20  1  0
 45 46  1  0
 47 45  1  0
 48 49  2  0
 50 51  1  0
 50 48  1  0
 52 63  2  0
 53 51  1  0
 53 58  1  0
 54 62  1  0
 54 64  1  0
 55 61  1  0
 55 57  1  0
 56 62  1  0
 57 58  2  0
 57 56  1  0
 59 53  2  0
 60 59  1  0
 60 55  2  0
 61 54  1  0
 62 52  1  0
 64 66  2  0
 65 64  1  0
 67 65  1  0
 68 77  2  0
 68 73  1  0
 69 65  1  0
 69 73  1  0
 70 69  1  0
 71 72  1  0
 71 70  1  0
 72 68  1  0
 73 74  2  0
 74 75  1  0
 76 75  2  0
 77 76  1  0
 78 52  1  0
 78 83  1  0
 78 79  1  0
 79 82  1  1
 79 80  1  0
 81 79  1  0
 83 86  1  0
 84 88  1  0
 84 83  1  0
 85 84  2  0
 88 87  1  0
 90 91  1  0
 90 88  1  0
 90 89  1  0
M  ISO  4  11 100  12 100  50 101  51 101
M  END
>  <TORSDO>  (88) 
F 20

>  <SCORE>  (88) 
-13.887

>  <name>  (88) 
87

>  <ligand_id>  (88) 
87

>  <original_smiles>  (88) 
[H]C(C(=O)N1C([H])([H])C([H])([H])C([H])([H])C([H])(n2nc(-c3c([H])c([H])c(Oc4c([H])c([H])c(F)c([H])c4F)c([H])c3[H])c(C(=O)N([H])[H])c2N([H])[H])C1([H])[H])=C([H])c1c([H])c([H])c(C([H])=C([H])C(=O)C([H])([H])Oc2c([H])c([H])c3c(c2[H])C([H])([H])N(C(=O)C([H])(N([H])C(=O)C([H])(N([H])C([H])([H])[H])C([H])([H])[H])C(C([H])([H])[H])(C([H])([H])[H])C([H])([H])[H])C([H])(C(=O)N([H])C2([H])c4c([H])c([H])c([H])c([H])c4C([H])([H])C([H])([H])C2([H])[H])C3([H])[H])c(C([H])([H])[H])c1[H]

>  <smiles>  (88) 
[H]C(C(=O)N1C([H])([H])C([H])([H])C([H])([H])C([H])(n2nc(-c3c([H])c([H])c(Oc4c([H])c([H])c(F)c([H])c4F)c([H])c3[H])c(C(=O)N([H])[H])c2N([H])[H])C1([H])[H])=C([H])c1c([H])c([H])c(C([H])=C([H])C(=O)C([H])([H])Oc2c([H])c([H])c3c(c2[H])C([H])([H])N(C(=O)C([H])(N([H])C(=O)C([H])(N([H])C([H])([H])[H])C([H])([H])[H])C(C([H])([H])[H])(C([H])([H])[H])C([H])([H])[H])C([H])(C(=O)N([H])C2([H])c4c([H])c([H])c([H])c([H])c4C([H])([H])C([H])([H])C2([H])[H])C3([H])[H])c(C([H])([H])[H])c1[H]

$$$$
88:0:0
     RDKit          3D

 92100  0  0  1  0  0  0  0  0999 V2000
  -31.7270  -18.2100   19.9830 C   0  0  0  0  0  3  0  0  0  0  0  0
  -31.5560  -20.4990   19.1520 C   0  0  0  0  0  3  0  0  0  0  0  0
  -30.3220  -18.1310   20.1060 C   0  0  0  0  0  0  0  0  0  0  0  0
  -30.1450  -20.4830   19.2530 C   0  0  0  0  0  0  0  0  0  0  0  0
  -29.5280  -19.2590   19.6850 C   0  0  0  0  0  0  0  0  0  0  0  0
  -32.3350  -19.3810   19.4960 C   0  0  0  0  0  0  0  0  0  0  0  0
  -33.6870  -19.4490   19.3990 F   0  0  0  0  0  0  0  0  0  0  0  0
  -29.7090  -16.9700   20.8290 C   0  0  0  0  0  3  0  0  0  0  0  0
  -29.7610  -15.6030   20.8100 C   0  0  0  0  0  3  0  0  0  0  0  0
  -30.4380  -14.6350   19.9190 C   0  0  0  0  0  0  0  0  0  0  0  0
  -30.2150  -12.3920   18.8670 C   0  0  0  0  0  2  0  0  0  0  0  0
  -29.1740  -12.4580   17.7270 C   0  0  0  0  0  2  0  0  0  0  0  0
  -27.7320  -12.2790   18.2510 C   0  0  0  0  0  2  0  0  0  0  0  0
  -27.4440  -13.1700   19.4890 C   0  0  0  0  0  3  0  0  0  0  0  0
  -28.5750  -13.0060   20.5210 C   0  0  0  0  0  2  0  0  0  0  0  0
  -29.8450  -13.3990   19.8750 N   0  0  0  0  0  0  0  0  0  0  0  0
  -31.4580  -14.8770   19.2690 O   0  0  0  0  0  0  0  0  0  0  0  0
  -25.1280  -13.7750   20.4440 C   0  0  0  0  0  0  0  0  0  0  0  0
  -24.0900  -12.9990   20.8800 C   0  0  0  0  0  0  0  0  0  0  0  0
  -24.5290  -11.6450   20.7510 C   0  0  0  0  0  0  0  0  0  0  0  0
  -26.1340  -12.8930   20.0720 N   0  0  0  0  0  0  0  0  0  0  0  0
  -25.7820  -11.6060   20.3150 N   0  0  0  0  0  0  0  0  0  0  0  0
  -23.8080  -10.3830   20.9550 C   0  0  0  0  0  0  0  0  0  0  0  0
  -24.2960   -9.3800   21.8220 C   0  0  0  0  0  3  0  0  0  0  0  0
  -23.5720   -8.1840   22.0120 C   0  0  0  0  0  3  0  0  0  0  0  0
  -22.3430   -7.9830   21.3390 C   0  0  0  0  0  0  0  0  0  0  0  0
  -21.8750   -8.9740   20.4580 C   0  0  0  0  0  3  0  0  0  0  0  0
  -22.6010  -10.1600   20.2650 C   0  0  0  0  0  3  0  0  0  0  0  0
  -21.5800   -6.8460   21.4480 O   0  0  0  0  0  0  0  0  0  0  0  0
  -21.6020   -6.0730   22.5800 C   0  0  0  0  0  0  0  0  0  0  0  0
  -21.2610   -6.5940   23.8470 C   0  0  0  0  0  3  0  0  0  0  0  0
  -21.2340   -5.7460   24.9730 C   0  0  0  0  0  3  0  0  0  0  0  0
  -21.5310   -4.3780   24.8330 C   0  0  0  0  0  0  0  0  0  0  0  0
  -21.8590   -3.8560   23.5690 C   0  0  0  0  0  3  0  0  0  0  0  0
  -21.8930   -4.7000   22.4470 C   0  0  0  0  0  0  0  0  0  0  0  0
  -22.1940   -4.1880   21.2300 F   0  0  0  0  0  0  0  0  0  0  0  0
  -21.4930   -3.5610   25.9120 F   0  0  0  0  0  0  0  0  0  0  0  0
  -22.7310  -13.4760   21.3050 C   0  0  0  0  0  0  0  0  0  0  0  0
  -22.0760  -12.7580   22.2140 N   0  0  0  0  0  0  0  0  0  0  0  0
  -22.2570  -14.5220   20.8640 O   0  0  0  0  0  0  0  0  0  0  0  0
  -22.4600  -11.9060   22.5950 H   0  0  0  0  0  0  0  0  0  0  0  0
  -21.1740  -13.0760   22.5410 H   0  0  0  0  0  0  0  0  0  0  0  0
  -25.2910  -15.1520   20.3170 N   0  0  0  0  0  0  0  0  0  0  0  0
  -24.5500  -15.8000   20.5600 H   0  0  0  0  0  0  0  0  0  0  0  0
  -26.1260  -15.6090   19.9770 H   0  0  0  0  0  0  0  0  0  0  0  0
  -29.3870  -21.7520   18.9450 C   0  0  0  0  0  3  0  0  0  0  0  0
  -29.7440  -23.0260   19.2760 C   0  0  0  0  0  3  0  0  0  0  0  0
  -29.0340  -24.3370   18.8500 C   0  0  0  0  0  2  0  0  0  0  0  0
  -28.8030  -25.4290   19.9470 C   0  0  0  0  0  2  0  0  0  0  0  0
  -28.6990  -26.7920   19.4610 O   0  0  0  0  0  0  0  0  0  0  0  0
  -24.6770  -31.6120   22.9330 C   0  0  0  0  0  0  0  0  0  0  0  0
  -27.4880  -27.4580   19.5570 C   0  0  0  0  0  0  0  0  0  0  0  0
  -23.5250  -30.2730   21.2020 C   0  0  0  0  0  3  0  0  0  0  0  0
  -25.0330  -28.8760   19.6880 C   0  0  0  0  0  0  0  0  0  0  0  0
  -26.0410  -30.7310   21.0340 C   0  0  0  0  0  2  0  0  0  0  0  0
  -26.1760  -29.4090   20.2970 C   0  0  0  0  0  0  0  0  0  0  0  0
  -27.4090  -28.7150   20.2110 C   0  0  0  0  0  3  0  0  0  0  0  0
  -26.3240  -26.9390   18.9560 C   0  0  0  0  0  3  0  0  0  0  0  0
  -25.1030  -27.6430   19.0160 C   0  0  0  0  0  3  0  0  0  0  0  0
  -23.7580  -29.6820   19.7860 C   0  0  0  0  0  2  0  0  0  0  0  0
  -24.7650  -30.8850   21.7810 N   0  0  0  0  0  0  0  0  0  0  0  0
  -23.5870  -31.8070   23.4880 O   0  0  0  0  0  0  0  0  0  0  0  0
  -22.9080  -29.1730   22.0950 C   0  0  0  0  0  0  0  0  0  0  0  0
  -21.5790  -28.9910   22.0020 N   0  0  0  0  0  0  0  0  0  0  0  0
  -23.6220  -28.4850   22.8280 O   0  0  0  0  0  0  0  0  0  0  0  0
  -21.0530  -29.6070   21.3970 H   0  0  0  0  0  0  0  0  0  0  0  0
  -18.2300  -27.7610   22.5630 C   0  0  0  0  0  0  0  0  0  0  0  0
  -20.8010  -27.9780   22.7130 C   0  0  0  0  0  3  0  0  0  0  0  0
  -20.8560  -26.6090   21.9950 C   0  0  0  0  0  2  0  0  0  0  0  0
  -19.7040  -26.4000   21.0080 C   0  0  0  0  0  2  0  0  0  0  0  0
  -18.3600  -26.4880   21.7400 C   0  0  0  0  0  2  0  0  0  0  0  0
  -19.3790  -28.4670   23.0080 C   0  0  0  0  0  0  0  0  0  0  0  0
  -19.2100  -29.6610   23.7410 C   0  0  0  0  0  3  0  0  0  0  0  0
  -17.9230  -30.1550   24.0250 C   0  0  0  0  0  3  0  0  0  0  0  0
  -16.7890  -29.4400   23.6050 C   0  0  0  0  0  3  0  0  0  0  0  0
  -16.9430  -28.2430   22.8840 C   0  0  0  0  0  3  0  0  0  0  0  0
  -25.9360  -32.2560   23.5950 C   0  0  0  0  0  3  0  0  0  0  0  0
  -25.5860  -33.6280   23.9910 N   0  0  0  0  0  0  0  0  0  0  0  0
  -25.9160  -34.7230   23.2960 C   0  0  0  0  0  0  0  0  0  0  0  0
  -26.6120  -34.6870   22.2780 O   0  0  0  0  0  0  0  0  0  0  0  0
  -24.9640  -33.7370   24.7800 H   0  0  0  0  0  0  0  0  0  0  0  0
  -24.1480  -36.4830   23.0040 C   0  0  0  0  0  1  0  0  0  0  0  0
  -25.3870  -36.0740   23.8150 C   0  0  0  0  0  3  0  0  0  0  0  0
  -27.4820  -36.9610   24.7310 C   0  0  0  0  0  1  0  0  0  0  0  0
  -26.3920  -37.1560   23.7790 N   0  0  0  0  0  0  0  0  0  0  0  0
  -25.9580  -38.0540   23.9810 H   0  0  0  0  0  0  0  0  0  0  0  0
  -26.4800  -31.4430   24.8330 C   0  0  1  0  0  0  0  0  0  0  0  0
  -25.3990  -31.1240   25.8920 C   0  0  0  0  0  1  0  0  0  0  0  0
  -27.0950  -30.1040   24.3780 C   0  0  0  0  0  1  0  0  0  0  0  0
  -27.6140  -32.2350   25.5280 C   0  0  0  0  0  1  0  0  0  0  0  0
  -27.3360  -19.9750   20.8220 C   0  0  0  0  0  1  0  0  0  0  0  0
  -28.0000  -19.1610   19.7010 C   0  0  0  0  0  2  0  0  0  0  0  0
  1  3  1  0
  2  4  2  0
  2  6  1  0
  3  8  1  0
  4  5  1  0
  5 92  1  0
  5  3  2  0
  6  1  2  0
  7  6  1  0
  9  8  2  0
 10  9  1  0
 11 16  1  0
 12 13  1  0
 12 11  1  0
 14 13  1  0
 14 21  1  0
 14 15  1  0
 16 10  1  0
 16 15  1  0
 17 10  2  0
 18 19  2  0
 19 38  1  0
 20 19  1  0
 20 23  1  0
 21 22  1  0
 21 18  1  0
 22 20  2  0
 23 24  1  0
 24 25  2  0
 26 29  1  0
 26 25  1  0
 27 26  2  0
 28 27  1  0
 28 23  2  0
 29 30  1  0
 30 31  1  0
 31 32  2  0
 33 32  1  0
 33 37  1  0
 34 33  2  0
 35 30  2  0
 35 34  1  0
 36 35  1  0
 38 39  1  0
 39 42  1  0
 39 41  1  0
 40 38  2  0
 43 18  1  0
 43 44  1  0
 45 43  1  0
 46  4  1  0
 46 47  2  0
 48 47  1  0
 48 49  1  0
 50 52  1  0
 50 49  1  0
 51 62  2  0
 52 57  1  0
 53 61  1  0
 53 63  1  0
 54 60  1  0
 54 56  1  0
 55 61  1  0
 56 55  1  0
 57 56  2  0
 58 59  1  0
 58 52  2  0
 59 54  2  0
 60 53  1  0
 61 51  1  0
 63 65  2  0
 64 63  1  0
 66 64  1  0
 67 76  2  0
 67 72  1  0
 68 64  1  0
 68 72  1  0
 69 68  1  0
 70 71  1  0
 70 69  1  0
 71 67  1  0
 72 73  2  0
 73 74  1  0
 75 74  2  0
 76 75  1  0
 77 51  1  0
 77 78  1  0
 77 87  1  0
 78 81  1  0
 79 83  1  0
 79 78  1  0
 80 79  2  0
 83 82  1  0
 85 83  1  0
 85 86  1  0
 85 84  1  0
 87 90  1  1
 87 88  1  0
 89 87  1  0
 92 91  1  0
M  ISO  4   9 100  10 100  49 101  50 101
M  END
>  <TORSDO>  (89) 
F 21

>  <SCORE>  (89) 
-11.567

>  <name>  (89) 
88

>  <ligand_id>  (89) 
88

>  <original_smiles>  (89) 
[H]C(C(=O)N1C([H])([H])C([H])([H])C([H])([H])C([H])(n2nc(-c3c([H])c([H])c(Oc4c([H])c([H])c(F)c([H])c4F)c([H])c3[H])c(C(=O)N([H])[H])c2N([H])[H])C1([H])[H])=C([H])c1c([H])c(F)c([H])c(C([H])=C([H])C([H])([H])C([H])([H])Oc2c([H])c([H])c3c(c2[H])C([H])([H])N(C(=O)C([H])(N([H])C(=O)C([H])(N([H])C([H])([H])[H])C([H])([H])[H])C(C([H])([H])[H])(C([H])([H])[H])C([H])([H])[H])C([H])(C(=O)N([H])C2([H])c4c([H])c([H])c([H])c([H])c4C([H])([H])C([H])([H])C2([H])[H])C3([H])[H])c1C([H])([H])C([H])([H])[H]

>  <smiles>  (89) 
[H]C(C(=O)N1C([H])([H])C([H])([H])C([H])([H])C([H])(n2nc(-c3c([H])c([H])c(Oc4c([H])c([H])c(F)c([H])c4F)c([H])c3[H])c(C(=O)N([H])[H])c2N([H])[H])C1([H])[H])=C([H])c1c([H])c(F)c([H])c(C([H])=C([H])C([H])([H])C([H])([H])Oc2c([H])c([H])c3c(c2[H])C([H])([H])N(C(=O)C([H])(N([H])C(=O)C([H])(N([H])C([H])([H])[H])C([H])([H])[H])C(C([H])([H])[H])(C([H])([H])[H])C([H])([H])[H])C([H])(C(=O)N([H])C2([H])c4c([H])c([H])c([H])c([H])c4C([H])([H])C([H])([H])C2([H])[H])C3([H])[H])c1C([H])([H])C([H])([H])[H]

$$$$
89:0:0
     RDKit          3D

 91 99  0  0  1  0  0  0  0  0999 V2000
  -29.0920  -18.0620   20.4100 C   0  0  0  0  0  3  0  0  0  0  0  0
  -31.4780  -18.0560   20.1910 C   0  0  0  0  0  3  0  0  0  0  0  0
  -30.2500  -20.2440   20.0890 C   0  0  0  0  0  0  0  0  0  0  0  0
  -29.0550  -19.4790   20.2630 C   0  0  0  0  0  0  0  0  0  0  0  0
  -31.4620  -19.4780   20.0400 C   0  0  0  0  0  0  0  0  0  0  0  0
  -30.2900  -17.3120   20.3900 C   0  0  0  0  0  0  0  0  0  0  0  0
  -27.6900  -20.1390   20.3500 C   0  0  0  0  0  1  0  0  0  0  0  0
  -32.8030  -20.1690   19.8400 C   0  0  0  0  0  1  0  0  0  0  0  0
  -30.9830  -14.8200   20.1990 C   0  0  0  0  0  0  0  0  0  0  0  0
  -30.7330  -12.5670   19.1900 C   0  0  0  0  0  2  0  0  0  0  0  0
  -29.7760  -12.6880   17.9840 C   0  0  0  0  0  2  0  0  0  0  0  0
  -28.3060  -12.5570   18.4300 C   0  0  0  0  0  2  0  0  0  0  0  0
  -27.9720  -13.4480   19.6560 C   0  0  0  0  0  3  0  0  0  0  0  0
  -29.0410  -13.2960   20.7630 C   0  0  0  0  0  2  0  0  0  0  0  0
  -30.3520  -13.6040   20.1660 N   0  0  0  0  0  0  0  0  0  0  0  0
  -32.1330  -14.9640   19.7760 O   0  0  0  0  0  0  0  0  0  0  0  0
  -30.1960  -15.8690   20.5780 N   0  0  0  0  0  0  0  0  0  0  0  0
  -29.3080  -15.5560   20.9350 H   0  0  0  0  0  0  0  0  0  0  0  0
  -25.5980  -14.0910   20.4100 C   0  0  0  0  0  0  0  0  0  0  0  0
  -24.5220  -13.3360   20.7920 C   0  0  0  0  0  0  0  0  0  0  0  0
  -24.9580  -11.9760   20.7480 C   0  0  0  0  0  0  0  0  0  0  0  0
  -26.6230  -13.1920   20.1570 N   0  0  0  0  0  0  0  0  0  0  0  0
  -26.2430  -11.9150   20.4200 N   0  0  0  0  0  0  0  0  0  0  0  0
  -24.2120  -10.7260   20.9430 C   0  0  0  0  0  0  0  0  0  0  0  0
  -24.6250   -9.7590   21.8860 C   0  0  0  0  0  3  0  0  0  0  0  0
  -23.8800   -8.5740   22.0680 C   0  0  0  0  0  3  0  0  0  0  0  0
  -22.7080   -8.3470   21.3080 C   0  0  0  0  0  0  0  0  0  0  0  0
  -22.3140   -9.3040   20.3550 C   0  0  0  0  0  3  0  0  0  0  0  0
  -23.0590  -10.4810   20.1700 C   0  0  0  0  0  3  0  0  0  0  0  0
  -21.9360   -7.2140   21.3980 O   0  0  0  0  0  0  0  0  0  0  0  0
  -21.8430   -6.4990   22.5650 C   0  0  0  0  0  0  0  0  0  0  0  0
  -21.2980   -7.0590   23.7410 C   0  0  0  0  0  3  0  0  0  0  0  0
  -21.1570   -6.2670   24.8990 C   0  0  0  0  0  3  0  0  0  0  0  0
  -21.5500   -4.9160   24.8800 C   0  0  0  0  0  0  0  0  0  0  0  0
  -22.0880   -4.3550   23.7070 C   0  0  0  0  0  3  0  0  0  0  0  0
  -22.2310   -5.1440   22.5530 C   0  0  0  0  0  0  0  0  0  0  0  0
  -22.7300   -4.5930   21.4210 F   0  0  0  0  0  0  0  0  0  0  0  0
  -21.4080   -4.1520   25.9880 F   0  0  0  0  0  0  0  0  0  0  0  0
  -23.1370  -13.8370   21.0870 C   0  0  0  0  0  0  0  0  0  0  0  0
  -22.4120  -13.1530   21.9650 N   0  0  0  0  0  0  0  0  0  0  0  0
  -22.7070  -14.8700   20.5730 O   0  0  0  0  0  0  0  0  0  0  0  0
  -22.7720  -12.3190   22.4040 H   0  0  0  0  0  0  0  0  0  0  0  0
  -21.4820  -13.4720   22.2020 H   0  0  0  0  0  0  0  0  0  0  0  0
  -25.7850  -15.4590   20.2350 N   0  0  0  0  0  0  0  0  0  0  0  0
  -25.0260  -16.1220   20.3460 H   0  0  0  0  0  0  0  0  0  0  0  0
  -26.6230  -15.8780   19.8510 H   0  0  0  0  0  0  0  0  0  0  0  0
  -30.3130  -21.7720   19.9750 C   0  0  0  0  0  3  0  0  0  0  0  0
  -29.3740  -22.7540   19.8040 C   0  0  0  0  0  3  0  0  0  0  0  0
  -29.6580  -24.2920   19.7960 C   0  0  0  0  0  3  0  0  0  0  0  0
  -28.4540  -25.2510   19.4440 C   0  0  0  0  0  3  0  0  0  0  0  0
  -28.5730  -26.6770   19.8030 O   0  0  0  0  0  0  0  0  0  0  0  0
  -24.5170  -31.6500   23.0700 C   0  0  0  0  0  0  0  0  0  0  0  0
  -27.4080  -27.4550   19.7770 C   0  0  0  0  0  0  0  0  0  0  0  0
  -23.4170  -30.3240   21.3010 C   0  0  0  0  0  3  0  0  0  0  0  0
  -24.9700  -28.9460   19.8140 C   0  0  0  0  0  0  0  0  0  0  0  0
  -25.9430  -30.7660   21.2150 C   0  0  0  0  0  2  0  0  0  0  0  0
  -26.0990  -29.4450   20.4750 C   0  0  0  0  0  0  0  0  0  0  0  0
  -27.3200  -28.7120   20.4480 C   0  0  0  0  0  3  0  0  0  0  0  0
  -26.2510  -27.0060   19.0960 C   0  0  0  0  0  3  0  0  0  0  0  0
  -25.0470  -27.7310   19.1180 C   0  0  0  0  0  3  0  0  0  0  0  0
  -23.6950  -29.7580   19.8850 C   0  0  0  0  0  2  0  0  0  0  0  0
  -24.6420  -30.9260   21.9200 N   0  0  0  0  0  0  0  0  0  0  0  0
  -23.4090  -31.8430   23.5900 O   0  0  0  0  0  0  0  0  0  0  0  0
  -22.7760  -29.2140   22.1660 C   0  0  0  0  0  0  0  0  0  0  0  0
  -21.4480  -29.0430   22.0430 N   0  0  0  0  0  0  0  0  0  0  0  0
  -23.4700  -28.5130   22.9080 O   0  0  0  0  0  0  0  0  0  0  0  0
  -20.9480  -29.6640   21.4220 H   0  0  0  0  0  0  0  0  0  0  0  0
  -18.0670  -27.8770   22.5700 C   0  0  0  0  0  0  0  0  0  0  0  0
  -20.6430  -28.0340   22.7310 C   0  0  0  0  0  3  0  0  0  0  0  0
  -20.6700  -26.6870   21.9720 C   0  0  0  0  0  2  0  0  0  0  0  0
  -19.5070  -26.5270   20.9860 C   0  0  0  0  0  2  0  0  0  0  0  0
  -18.1660  -26.6220   21.7190 C   0  0  0  0  0  2  0  0  0  0  0  0
  -19.2290  -28.5490   23.0320 C   0  0  0  0  0  0  0  0  0  0  0  0
  -19.0820  -29.7290   23.7910 C   0  0  0  0  0  3  0  0  0  0  0  0
  -17.8040  -30.2370   24.0920 C   0  0  0  0  0  3  0  0  0  0  0  0
  -16.6560  -29.5580   23.6470 C   0  0  0  0  0  3  0  0  0  0  0  0
  -16.7890  -28.3800   22.8910 C   0  0  0  0  0  3  0  0  0  0  0  0
  -25.7550  -32.2870   23.7730 C   0  0  0  0  0  3  0  0  0  0  0  0
  -26.2040  -31.5060   25.0690 C   0  0  1  0  0  0  0  0  0  0  0  0
  -25.0560  -31.2640   26.0780 C   0  0  0  0  0  1  0  0  0  0  0  0
  -26.8060  -30.1300   24.6980 C   0  0  0  0  0  1  0  0  0  0  0  0
  -27.3210  -32.2920   25.7950 C   0  0  0  0  0  1  0  0  0  0  0  0
  -25.4140  -33.6790   24.1010 N   0  0  0  0  0  0  0  0  0  0  0  0
  -25.7390  -34.7380   23.3500 C   0  0  0  0  0  0  0  0  0  0  0  0
  -26.4270  -34.6500   22.3290 O   0  0  0  0  0  0  0  0  0  0  0  0
  -24.8060  -33.8190   24.8930 H   0  0  0  0  0  0  0  0  0  0  0  0
  -23.9740  -36.4920   22.9780 C   0  0  0  0  0  1  0  0  0  0  0  0
  -25.2160  -36.1160   23.8020 C   0  0  0  0  0  3  0  0  0  0  0  0
  -27.3060  -37.0670   24.6720 C   0  0  0  0  0  1  0  0  0  0  0  0
  -26.2260  -37.1910   23.6970 N   0  0  0  0  0  0  0  0  0  0  0  0
  -25.7940  -38.1040   23.8160 H   0  0  0  0  0  0  0  0  0  0  0  0
  2  6  2  0
  3  4  1  0
  4  7  1  0
  4  1  2  0
  5  3  2  0
  5  2  1  0
  6  1  1  0
  6 17  1  0
  8  5  1  0
  9 17  1  0
 10 15  1  0
 11 12  1  0
 11 10  1  0
 13 12  1  0
 13 22  1  0
 13 14  1  0
 15  9  1  0
 15 14  1  0
 16  9  2  0
 17 18  1  0
 19 20  2  0
 20 39  1  0
 21 20  1  0
 21 24  1  0
 22 19  1  0
 22 23  1  0
 23 21  2  0
 24 25  1  0
 25 26  2  0
 27 30  1  0
 27 26  1  0
 28 27  2  0
 29 28  1  0
 29 24  2  0
 30 31  1  0
 31 32  1  0
 32 33  2  0
 34 33  1  0
 34 38  1  0
 35 34  2  0
 36 31  2  0
 36 35  1  0
 37 36  1  0
 39 40  1  0
 40 43  1  0
 40 42  1  0
 41 39  2  0
 44 45  1  0
 44 19  1  0
 46 44  1  0
 47  3  1  0
 48 47  2  0
 49 48  1  0
 50 49  2  0
 50 51  1  0
 52 63  2  0
 53 51  1  0
 53 58  1  0
 54 62  1  0
 54 64  1  0
 55 61  1  0
 55 57  1  0
 56 62  1  0
 57 56  1  0
 58 57  2  0
 59 60  1  0
 59 53  2  0
 60 55  2  0
 61 54  1  0
 62 52  1  0
 64 66  2  0
 65 64  1  0
 67 65  1  0
 68 77  2  0
 68 73  1  0
 69 65  1  0
 69 73  1  0
 70 69  1  0
 71 72  1  0
 71 70  1  0
 72 68  1  0
 73 74  2  0
 74 75  1  0
 76 75  2  0
 77 76  1  0
 78 52  1  0
 78 83  1  0
 78 79  1  0
 79 82  1  1
 79 80  1  0
 81 79  1  0
 83 86  1  0
 84 88  1  0
 84 83  1  0
 85 84  2  0
 88 87  1  0
 90 88  1  0
 90 91  1  0
 90 89  1  0
M  ISO  4   9 100  17 100  50 101  51 101
M  END
>  <TORSDO>  (90) 
F 19

>  <SCORE>  (90) 
-13.627

>  <name>  (90) 
89

>  <ligand_id>  (90) 
89

>  <original_smiles>  (90) 
[H]C(=C([H])C([H])([H])C([H])([H])Oc1c([H])c([H])c2c(c1[H])C([H])([H])N(C(=O)C([H])(N([H])C(=O)C([H])(N([H])C([H])([H])[H])C([H])([H])[H])C(C([H])([H])[H])(C([H])([H])[H])C([H])([H])[H])C([H])(C(=O)N([H])C1([H])c3c([H])c([H])c([H])c([H])c3C([H])([H])C([H])([H])C1([H])[H])C2([H])[H])c1c(C([H])([H])[H])c([H])c(N([H])C(=O)N2C([H])([H])C([H])([H])C([H])([H])C([H])(n3nc(-c4c([H])c([H])c(Oc5c([H])c([H])c(F)c([H])c5F)c([H])c4[H])c(C(=O)N([H])[H])c3N([H])[H])C2([H])[H])c([H])c1C([H])([H])[H]

>  <smiles>  (90) 
[H]C(=C([H])C([H])([H])C([H])([H])Oc1c([H])c([H])c2c(c1[H])C([H])([H])N(C(=O)C([H])(N([H])C(=O)C([H])(N([H])C([H])([H])[H])C([H])([H])[H])C(C([H])([H])[H])(C([H])([H])[H])C([H])([H])[H])C([H])(C(=O)N([H])C1([H])c3c([H])c([H])c([H])c([H])c3C([H])([H])C([H])([H])C1([H])[H])C2([H])[H])c1c(C([H])([H])[H])c([H])c(N([H])C(=O)N2C([H])([H])C([H])([H])C([H])([H])C([H])(n3nc(-c4c([H])c([H])c(Oc5c([H])c([H])c(F)c([H])c5F)c([H])c4[H])c(C(=O)N([H])[H])c3N([H])[H])C2([H])[H])c([H])c1C([H])([H])[H]

$$$$
90:0:0
     RDKit          3D

 93101  0  0  1  0  0  0  0  0999 V2000
  -29.9390  -18.6160   20.9080 C   0  0  0  0  0  3  0  0  0  0  0  0
  -30.4010  -18.5310   18.1840 C   0  0  0  0  0  3  0  0  0  0  0  0
  -29.9090  -19.8880   20.1800 C   0  0  0  0  0  0  0  0  0  0  0  0
  -30.1490  -19.7810   18.7760 C   0  0  0  0  0  0  0  0  0  0  0  0
  -30.4420  -17.3270   18.9040 C   0  0  0  0  0  0  0  0  0  0  0  0
  -30.2250  -17.3140   20.3090 C   0  0  0  0  0  0  0  0  0  0  0  0
  -30.6640  -16.0740   18.0760 C   0  0  0  0  0  1  0  0  0  0  0  0
  -30.9300  -14.8660   20.8900 C   0  0  0  0  0  0  0  0  0  0  0  0
  -30.7920  -12.5790   19.8960 C   0  0  0  0  0  2  0  0  0  0  0  0
  -29.9440  -12.5920   18.6030 C   0  0  0  0  0  2  0  0  0  0  0  0
  -28.4300  -12.5380   18.9010 C   0  0  0  0  0  2  0  0  0  0  0  0
  -27.9860  -13.4250   20.0950 C   0  0  0  0  0  3  0  0  0  0  0  0
  -28.9570  -13.3080   21.2910 C   0  0  0  0  0  2  0  0  0  0  0  0
  -30.2980  -13.6450   20.8000 N   0  0  0  0  0  0  0  0  0  0  0  0
  -32.1450  -14.9470   20.6780 O   0  0  0  0  0  0  0  0  0  0  0  0
  -30.1520  -16.0060   21.0240 N   0  0  0  0  0  0  0  0  0  0  0  0
  -29.2520  -15.8190   21.4400 H   0  0  0  0  0  0  0  0  0  0  0  0
  -25.5430  -14.0410   20.6030 C   0  0  0  0  0  0  0  0  0  0  0  0
  -24.4470  -13.2780   20.9010 C   0  0  0  0  0  0  0  0  0  0  0  0
  -24.9080  -11.9280   20.9500 C   0  0  0  0  0  0  0  0  0  0  0  0
  -26.6020  -13.1560   20.4840 N   0  0  0  0  0  0  0  0  0  0  0  0
  -26.2200  -11.8820   20.7570 N   0  0  0  0  0  0  0  0  0  0  0  0
  -24.1650  -10.6700   21.1110 C   0  0  0  0  0  0  0  0  0  0  0  0
  -24.5180   -9.7270   22.1010 C   0  0  0  0  0  3  0  0  0  0  0  0
  -23.7780   -8.5330   22.2480 C   0  0  0  0  0  3  0  0  0  0  0  0
  -22.6700   -8.2770   21.4070 C   0  0  0  0  0  0  0  0  0  0  0  0
  -22.3400   -9.2070   20.4070 C   0  0  0  0  0  3  0  0  0  0  0  0
  -23.0800  -10.3910   20.2560 C   0  0  0  0  0  3  0  0  0  0  0  0
  -21.9090   -7.1330   21.4620 O   0  0  0  0  0  0  0  0  0  0  0  0
  -21.7650   -6.4200   22.6250 C   0  0  0  0  0  0  0  0  0  0  0  0
  -21.1990   -6.9920   23.7850 C   0  0  0  0  0  3  0  0  0  0  0  0
  -21.0050   -6.2020   24.9370 C   0  0  0  0  0  3  0  0  0  0  0  0
  -21.3660   -4.8420   24.9280 C   0  0  0  0  0  0  0  0  0  0  0  0
  -21.9240   -4.2690   23.7720 C   0  0  0  0  0  3  0  0  0  0  0  0
  -22.1190   -5.0560   22.6220 C   0  0  0  0  0  0  0  0  0  0  0  0
  -22.6380   -4.4950   21.5030 F   0  0  0  0  0  0  0  0  0  0  0  0
  -21.1740   -4.0800   26.0300 F   0  0  0  0  0  0  0  0  0  0  0  0
  -23.0320  -13.7610   21.0400 C   0  0  0  0  0  0  0  0  0  0  0  0
  -22.2400  -13.0990   21.8770 N   0  0  0  0  0  0  0  0  0  0  0  0
  -22.6360  -14.7590   20.4390 O   0  0  0  0  0  0  0  0  0  0  0  0
  -22.5710  -12.2900   22.3800 H   0  0  0  0  0  0  0  0  0  0  0  0
  -21.2890  -13.4050   22.0190 H   0  0  0  0  0  0  0  0  0  0  0  0
  -25.7250  -15.4060   20.3990 N   0  0  0  0  0  0  0  0  0  0  0  0
  -24.9510  -16.0620   20.4120 H   0  0  0  0  0  0  0  0  0  0  0  0
  -26.6040  -15.8370   20.1390 H   0  0  0  0  0  0  0  0  0  0  0  0
  -29.6900  -21.2830   20.8300 C   0  0  0  0  0  3  0  0  0  0  0  0
  -29.0940  -22.4340   20.3240 C   0  0  0  0  0  3  0  0  0  0  0  0
  -29.0710  -23.8650   20.8980 C   0  0  0  0  0  0  0  0  0  0  0  0
  -29.7530  -24.1720   21.8810 O   0  0  0  0  0  0  0  0  0  0  0  0
  -28.1680  -24.9960   20.2140 C   0  0  0  0  0  2  0  0  0  0  0  0
  -28.4080  -26.4550   20.5010 O   0  0  0  0  0  0  0  0  0  0  0  0
  -24.5800  -31.9720   23.2600 C   0  0  0  0  0  0  0  0  0  0  0  0
  -27.3110  -27.3440   20.3720 C   0  0  0  0  0  0  0  0  0  0  0  0
  -23.4360  -30.5320   21.6150 C   0  0  0  0  0  3  0  0  0  0  0  0
  -24.9400  -28.9700   20.2540 C   0  0  0  0  0  0  0  0  0  0  0  0
  -25.9810  -30.8600   21.5030 C   0  0  0  0  0  2  0  0  0  0  0  0
  -26.0910  -29.4690   20.8800 C   0  0  0  0  0  0  0  0  0  0  0  0
  -27.2780  -28.6690   20.9270 C   0  0  0  0  0  3  0  0  0  0  0  0
  -26.1380  -26.9210   19.7040 C   0  0  0  0  0  3  0  0  0  0  0  0
  -24.9690  -27.7050   19.6540 C   0  0  0  0  0  3  0  0  0  0  0  0
  -23.6960  -29.8380   20.2530 C   0  0  0  0  0  2  0  0  0  0  0  0
  -24.6830  -31.1410   22.1810 N   0  0  0  0  0  0  0  0  0  0  0  0
  -23.4810  -32.2480   23.7590 O   0  0  0  0  0  0  0  0  0  0  0  0
  -22.7540  -29.5270   22.5760 C   0  0  0  0  0  0  0  0  0  0  0  0
  -21.4300  -29.3460   22.4270 N   0  0  0  0  0  0  0  0  0  0  0  0
  -23.4150  -28.9160   23.4190 O   0  0  0  0  0  0  0  0  0  0  0  0
  -20.9550  -29.8880   21.7200 H   0  0  0  0  0  0  0  0  0  0  0  0
  -18.0390  -28.1790   22.9170 C   0  0  0  0  0  0  0  0  0  0  0  0
  -20.5990  -28.4190   23.1980 C   0  0  0  0  0  3  0  0  0  0  0  0
  -20.6920  -26.9840   22.6290 C   0  0  0  0  0  2  0  0  0  0  0  0
  -19.5920  -26.6660   21.6090 C   0  0  0  0  0  2  0  0  0  0  0  0
  -18.2080  -26.8260   22.2450 C   0  0  0  0  0  2  0  0  0  0  0  0
  -19.1620  -28.9320   23.3500 C   0  0  0  0  0  0  0  0  0  0  0  0
  -18.9490  -30.1970   23.9390 C   0  0  0  0  0  3  0  0  0  0  0  0
  -17.6480  -30.7100   24.0970 C   0  0  0  0  0  3  0  0  0  0  0  0
  -16.5390  -29.9530   23.6800 C   0  0  0  0  0  3  0  0  0  0  0  0
  -16.7360  -28.6880   23.0970 C   0  0  0  0  0  3  0  0  0  0  0  0
  -25.8390  -32.6300   23.9040 C   0  0  0  0  0  3  0  0  0  0  0  0
  -26.3180  -31.9010   25.2190 C   0  0  1  0  0  0  0  0  0  0  0  0
  -25.1890  -31.6730   26.2500 C   0  0  0  0  0  1  0  0  0  0  0  0
  -26.9350  -30.5220   24.8890 C   0  0  0  0  0  1  0  0  0  0  0  0
  -27.4300  -32.7300   25.9020 C   0  0  0  0  0  1  0  0  0  0  0  0
  -25.5110  -34.0350   24.1830 N   0  0  0  0  0  0  0  0  0  0  0  0
  -25.8750  -35.0720   23.4160 C   0  0  0  0  0  0  0  0  0  0  0  0
  -26.5910  -34.9460   22.4190 O   0  0  0  0  0  0  0  0  0  0  0  0
  -24.8850  -34.2060   24.9570 H   0  0  0  0  0  0  0  0  0  0  0  0
  -24.1740  -36.8590   22.9270 C   0  0  0  0  0  1  0  0  0  0  0  0
  -25.3650  -36.4690   23.8180 C   0  0  0  0  0  3  0  0  0  0  0  0
  -27.4430  -37.3770   24.7600 C   0  0  0  0  0  1  0  0  0  0  0  0
  -26.4050  -37.5200   23.7440 N   0  0  0  0  0  0  0  0  0  0  0  0
  -25.9910  -38.4430   23.8430 H   0  0  0  0  0  0  0  0  0  0  0  0
  -28.9490  -21.1090   16.9530 C   0  0  0  0  0  1  0  0  0  0  0  0
  -30.2220  -20.9600   17.8030 C   0  0  0  0  0  2  0  0  0  0  0  0
  2  4  2  0
  2  5  1  0
  3 46  1  0
  3  1  2  0
  4  3  1  0
  5  6  2  0
  6  1  1  0
  6 16  1  0
  7  5  1  0
  8 16  1  0
  9 14  1  0
 10 11  1  0
 10  9  1  0
 12 11  1  0
 12 21  1  0
 12 13  1  0
 14  8  1  0
 14 13  1  0
 15  8  2  0
 16 17  1  0
 18 19  2  0
 19 20  1  0
 19 38  1  0
 20 23  1  0
 21 18  1  0
 21 22  1  0
 22 20  2  0
 23 24  1  0
 24 25  2  0
 26 29  1  0
 26 25  1  0
 27 26  2  0
 28 27  1  0
 28 23  2  0
 29 30  1  0
 30 31  1  0
 31 32  2  0
 33 32  1  0
 33 37  1  0
 34 33  2  0
 35 30  2  0
 35 34  1  0
 36 35  1  0
 38 39  1  0
 39 42  1  0
 39 41  1  0
 40 38  2  0
 43 44  1  0
 43 18  1  0
 45 43  1  0
 47 46  2  0
 47 48  1  0
 48 49  2  0
 50 51  1  0
 50 48  1  0
 52 63  2  0
 53 51  1  0
 53 58  1  0
 54 62  1  0
 54 64  1  0
 55 57  1  0
 56 62  1  0
 57 58  2  0
 57 56  1  0
 59 53  2  0
 60 59  1  0
 60 55  2  0
 61 55  1  0
 61 54  1  0
 62 52  1  0
 64 66  2  0
 65 64  1  0
 67 65  1  0
 68 77  2  0
 68 73  1  0
 69 65  1  0
 69 73  1  0
 70 69  1  0
 71 72  1  0
 71 70  1  0
 72 68  1  0
 73 74  2  0
 74 75  1  0
 76 75  2  0
 77 76  1  0
 78 52  1  0
 78 83  1  0
 78 79  1  0
 79 82  1  1
 79 80  1  0
 81 79  1  0
 83 86  1  0
 84 88  1  0
 84 83  1  0
 85 84  2  0
 88 87  1  0
 90 88  1  0
 90 91  1  0
 90 89  1  0
 92 93  1  0
 93  4  1  0
M  ISO  4   8 100  16 100  50 101  51 101
M  END
>  <TORSDO>  (91) 
F 20

>  <SCORE>  (91) 
-13.380

>  <name>  (91) 
90

>  <ligand_id>  (91) 
90

>  <original_smiles>  (91) 
[H]C(C(=O)C([H])([H])Oc1c([H])c([H])c2c(c1[H])C([H])([H])N(C(=O)C([H])(N([H])C(=O)C([H])(N([H])C([H])([H])[H])C([H])([H])[H])C(C([H])([H])[H])(C([H])([H])[H])C([H])([H])[H])C([H])(C(=O)N([H])C1([H])c3c([H])c([H])c([H])c([H])c3C([H])([H])C([H])([H])C1([H])[H])C2([H])[H])=C([H])c1c([H])c(N([H])C(=O)N2C([H])([H])C([H])([H])C([H])([H])C([H])(n3nc(-c4c([H])c([H])c(Oc5c([H])c([H])c(F)c([H])c5F)c([H])c4[H])c(C(=O)N([H])[H])c3N([H])[H])C2([H])[H])c(C([H])([H])[H])c([H])c1C([H])([H])C([H])([H])[H]

>  <smiles>  (91) 
[H]C(C(=O)C([H])([H])Oc1c([H])c([H])c2c(c1[H])C([H])([H])N(C(=O)C([H])(N([H])C(=O)C([H])(N([H])C([H])([H])[H])C([H])([H])[H])C(C([H])([H])[H])(C([H])([H])[H])C([H])([H])[H])C([H])(C(=O)N([H])C1([H])c3c([H])c([H])c([H])c([H])c3C([H])([H])C([H])([H])C1([H])[H])C2([H])[H])=C([H])c1c([H])c(N([H])C(=O)N2C([H])([H])C([H])([H])C([H])([H])C([H])(n3nc(-c4c([H])c([H])c(Oc5c([H])c([H])c(F)c([H])c5F)c([H])c4[H])c(C(=O)N([H])[H])c3N([H])[H])C2([H])[H])c(C([H])([H])[H])c([H])c1C([H])([H])C([H])([H])[H]

$$$$
91:0:0
     RDKit          3D

 94102  0  0  1  0  0  0  0  0999 V2000
  -32.1590  -18.8410   21.1700 C   0  0  0  0  0  3  0  0  0  0  0  0
  -31.9960  -17.5380   20.6650 C   0  0  0  0  0  3  0  0  0  0  0  0
  -31.3170  -19.8790   20.7460 C   0  0  0  0  0  3  0  0  0  0  0  0
  -30.9580  -17.2090   19.7570 C   0  0  0  0  0  0  0  0  0  0  0  0
  -30.0140  -18.2620   19.4440 C   0  0  0  0  0  0  0  0  0  0  0  0
  -30.2440  -19.6110   19.8690 C   0  0  0  0  0  0  0  0  0  0  0  0
  -31.0040  -15.8770   19.0020 C   0  0  0  0  0  0  0  0  0  0  0  0
  -30.5750  -15.8790   17.8100 N   0  0  0  0  0  0  0  0  0  0  0  0
  -30.2160  -16.7940   17.5700 H   0  0  0  0  0  0  0  0  0  0  0  0
  -31.7550  -14.6210   19.5610 C   0  0  0  0  0  0  0  0  0  0  0  0
  -31.3470  -12.2530   19.0100 C   0  0  0  0  0  2  0  0  0  0  0  0
  -30.3620  -12.1790   17.8280 C   0  0  0  0  0  2  0  0  0  0  0  0
  -28.9090  -12.1320   18.3470 C   0  0  0  0  0  2  0  0  0  0  0  0
  -28.6070  -13.2360   19.3930 C   0  0  0  0  0  3  0  0  0  0  0  0
  -29.7290  -13.3670   20.4480 C   0  0  0  0  0  2  0  0  0  0  0  0
  -31.0220  -13.4810   19.7560 N   0  0  0  0  0  0  0  0  0  0  0  0
  -32.9670  -14.5660   19.3470 O   0  0  0  0  0  0  0  0  0  0  0  0
  -26.3970  -14.0870   20.3730 C   0  0  0  0  0  0  0  0  0  0  0  0
  -25.2680  -13.4330   20.7840 C   0  0  0  0  0  0  0  0  0  0  0  0
  -25.5440  -12.0400   20.6270 C   0  0  0  0  0  0  0  0  0  0  0  0
  -27.2890  -13.0970   19.9920 N   0  0  0  0  0  0  0  0  0  0  0  0
  -26.7880  -11.8570   20.2070 N   0  0  0  0  0  0  0  0  0  0  0  0
  -24.6760  -10.8700   20.7950 C   0  0  0  0  0  0  0  0  0  0  0  0
  -25.0470   -9.7940   21.6320 C   0  0  0  0  0  3  0  0  0  0  0  0
  -24.1870   -8.6860   21.7910 C   0  0  0  0  0  3  0  0  0  0  0  0
  -22.9460   -8.6470   21.1120 C   0  0  0  0  0  0  0  0  0  0  0  0
  -22.5960   -9.7100   20.2610 C   0  0  0  0  0  3  0  0  0  0  0  0
  -23.4540  -10.8090   20.0990 C   0  0  0  0  0  3  0  0  0  0  0  0
  -22.0600   -7.6000   21.1850 O   0  0  0  0  0  0  0  0  0  0  0  0
  -21.9550   -6.8280   22.3140 C   0  0  0  0  0  0  0  0  0  0  0  0
  -21.6460   -7.3850   23.5730 C   0  0  0  0  0  3  0  0  0  0  0  0
  -21.4820   -6.5450   24.6940 C   0  0  0  0  0  3  0  0  0  0  0  0
  -21.6150   -5.1500   24.5540 C   0  0  0  0  0  0  0  0  0  0  0  0
  -21.9190   -4.5930   23.2980 C   0  0  0  0  0  3  0  0  0  0  0  0
  -22.0860   -5.4310   22.1820 C   0  0  0  0  0  0  0  0  0  0  0  0
  -22.3590   -4.8880   20.9710 F   0  0  0  0  0  0  0  0  0  0  0  0
  -21.4470   -4.3430   25.6260 F   0  0  0  0  0  0  0  0  0  0  0  0
  -23.9730  -14.0620   21.2060 C   0  0  0  0  0  0  0  0  0  0  0  0
  -23.2400  -13.4090   22.1000 N   0  0  0  0  0  0  0  0  0  0  0  0
  -23.6280  -15.1620   20.7770 O   0  0  0  0  0  0  0  0  0  0  0  0
  -23.5350  -12.5140   22.4610 H   0  0  0  0  0  0  0  0  0  0  0  0
  -22.3730  -13.8100   22.4290 H   0  0  0  0  0  0  0  0  0  0  0  0
  -26.7320  -15.4340   20.2660 N   0  0  0  0  0  0  0  0  0  0  0  0
  -26.0770  -16.1810   20.4720 H   0  0  0  0  0  0  0  0  0  0  0  0
  -27.6000  -15.7610   19.8640 H   0  0  0  0  0  0  0  0  0  0  0  0
  -28.7300  -17.9840   18.6360 C   0  0  0  0  0  2  0  0  0  0  0  0
  -27.1910  -18.0510   20.7140 C   0  0  0  0  0  1  0  0  0  0  0  0
  -27.4060  -18.4880   19.2590 C   0  0  0  0  0  2  0  0  0  0  0  0
  -29.4580  -20.6320   19.3470 O   0  0  0  0  0  0  0  0  0  0  0  0
  -29.1020  -21.7840   20.1360 C   0  0  0  0  0  2  0  0  0  0  0  0
  -28.4500  -24.1080   19.2440 C   0  0  0  0  0  3  0  0  0  0  0  0
  -29.3510  -23.1100   19.4140 C   0  0  0  0  0  3  0  0  0  0  0  0
  -28.7280  -25.4350   18.5270 C   0  0  0  0  0  2  0  0  0  0  0  0
  -28.5330  -26.5940   19.3570 O   0  0  0  0  0  0  0  0  0  0  0  0
  -24.6160  -31.3430   22.9210 C   0  0  0  0  0  0  0  0  0  0  0  0
  -27.3180  -27.2620   19.4060 C   0  0  0  0  0  0  0  0  0  0  0  0
  -23.4210  -30.0930   21.1540 C   0  0  0  0  0  3  0  0  0  0  0  0
  -24.8900  -28.7270   19.5770 C   0  0  0  0  0  0  0  0  0  0  0  0
  -25.9400  -30.5100   20.9780 C   0  0  0  0  0  2  0  0  0  0  0  0
  -26.0430  -29.2100   20.2050 C   0  0  0  0  0  0  0  0  0  0  0  0
  -27.2550  -28.4860   20.1160 C   0  0  0  0  0  3  0  0  0  0  0  0
  -26.1360  -26.7830   18.7910 C   0  0  0  0  0  3  0  0  0  0  0  0
  -24.9320  -27.5140   18.8690 C   0  0  0  0  0  3  0  0  0  0  0  0
  -23.6320  -29.5560   19.7140 C   0  0  0  0  0  2  0  0  0  0  0  0
  -24.6780  -30.6590   21.7430 N   0  0  0  0  0  0  0  0  0  0  0  0
  -23.5350  -31.5390   23.4920 O   0  0  0  0  0  0  0  0  0  0  0  0
  -22.7920  -28.9710   22.0120 C   0  0  0  0  0  0  0  0  0  0  0  0
  -21.4630  -28.8040   21.9030 N   0  0  0  0  0  0  0  0  0  0  0  0
  -23.4970  -28.2580   22.7320 O   0  0  0  0  0  0  0  0  0  0  0  0
  -20.9530  -29.4350   21.3010 H   0  0  0  0  0  0  0  0  0  0  0  0
  -18.1030  -27.5660   22.3650 C   0  0  0  0  0  0  0  0  0  0  0  0
  -20.6690  -27.7850   22.5860 C   0  0  0  0  0  3  0  0  0  0  0  0
  -20.7460  -26.4260   21.8520 C   0  0  0  0  0  2  0  0  0  0  0  0
  -19.6130  -26.2160   20.8430 C   0  0  0  0  0  2  0  0  0  0  0  0
  -18.2500  -26.2980   21.5390 C   0  0  0  0  0  2  0  0  0  0  0  0
  -19.2380  -28.2720   22.8430 C   0  0  0  0  0  0  0  0  0  0  0  0
  -19.0460  -29.4630   23.5750 C   0  0  0  0  0  3  0  0  0  0  0  0
  -17.7500  -29.9470   23.8360 C   0  0  0  0  0  3  0  0  0  0  0  0
  -16.6280  -29.2340   23.3750 C   0  0  0  0  0  3  0  0  0  0  0  0
  -16.8080  -28.0440   22.6490 C   0  0  0  0  0  3  0  0  0  0  0  0
  -25.8960  -31.9330   23.5930 C   0  0  0  0  0  3  0  0  0  0  0  0
  -25.5780  -33.2990   24.0280 N   0  0  0  0  0  0  0  0  0  0  0  0
  -25.9300  -34.4100   23.3660 C   0  0  0  0  0  0  0  0  0  0  0  0
  -26.6260  -34.3900   22.3470 O   0  0  0  0  0  0  0  0  0  0  0  0
  -24.9640  -33.3900   24.8250 H   0  0  0  0  0  0  0  0  0  0  0  0
  -24.2050  -36.2220   23.1160 C   0  0  0  0  0  1  0  0  0  0  0  0
  -25.4290  -35.7560   23.9210 C   0  0  0  0  0  3  0  0  0  0  0  0
  -27.5420  -36.5730   24.8680 C   0  0  0  0  0  1  0  0  0  0  0  0
  -26.4620  -36.8160   23.9160 N   0  0  0  0  0  0  0  0  0  0  0  0
  -26.0490  -37.7210   24.1260 H   0  0  0  0  0  0  0  0  0  0  0  0
  -26.4160  -31.0670   24.8060 C   0  0  1  0  0  0  0  0  0  0  0  0
  -25.3270  -30.7520   25.8570 C   0  0  0  0  0  1  0  0  0  0  0  0
  -26.9960  -29.7230   24.3080 C   0  0  0  0  0  1  0  0  0  0  0  0
  -27.5720  -31.8080   25.5210 C   0  0  0  0  0  1  0  0  0  0  0  0
  2  1  2  0
  3  1  1  0
  4  2  1  0
  5  4  2  0
  5  6  1  0
  6  3  2  0
  7 10  1  0
  7  4  1  0
  8  7  2  0
  9  8  1  0
 10 16  1  0
 11 16  1  0
 12 13  1  0
 12 11  1  0
 14 13  1  0
 14 21  1  0
 14 15  1  0
 16 15  1  0
 17 10  2  0
 18 19  2  0
 19 38  1  0
 20 19  1  0
 20 23  1  0
 21 22  1  0
 21 18  1  0
 22 20  2  0
 23 24  1  0
 24 25  2  0
 26 29  1  0
 26 25  1  0
 27 26  2  0
 28 27  1  0
 28 23  2  0
 29 30  1  0
 30 31  1  0
 31 32  2  0
 33 32  1  0
 33 37  1  0
 34 33  2  0
 35 30  2  0
 35 34  1  0
 36 35  1  0
 38 39  1  0
 39 42  1  0
 39 41  1  0
 40 38  2  0
 43 18  1  0
 43 44  1  0
 45 43  1  0
 46 48  1  0
 46  5  1  0
 48 47  1  0
 49  6  1  0
 49 50  1  0
 51 52  2  0
 52 50  1  0
 53 51  1  0
 53 54  1  0
 54 56  1  0
 55 66  2  0
 56 61  1  0
 57 65  1  0
 57 67  1  0
 58 64  1  0
 58 60  1  0
 59 65  1  0
 60 59  1  0
 61 60  2  0
 62 63  1  0
 62 56  2  0
 63 58  2  0
 64 57  1  0
 65 55  1  0
 67 69  2  0
 68 67  1  0
 70 68  1  0
 71 80  2  0
 71 76  1  0
 72 68  1  0
 72 76  1  0
 73 72  1  0
 74 75  1  0
 74 73  1  0
 75 71  1  0
 76 77  2  0
 77 78  1  0
 79 78  2  0
 80 79  1  0
 81 55  1  0
 81 82  1  0
 81 91  1  0
 82 85  1  0
 83 87  1  0
 83 82  1  0
 84 83  2  0
 87 86  1  0
 89 87  1  0
 89 90  1  0
 89 88  1  0
 91 94  1  1
 91 92  1  0
 93 91  1  0
M  ISO  4   7 100  10 100  53 101  54 101
M  END
>  <TORSDO>  (92) 
F 23

>  <SCORE>  (92) 
-10.456

>  <name>  (92) 
91

>  <ligand_id>  (92) 
91

>  <original_smiles>  (92) 
[H]N=C(C(=O)N1C([H])([H])C([H])([H])C([H])([H])C([H])(n2nc(-c3c([H])c([H])c(Oc4c([H])c([H])c(F)c([H])c4F)c([H])c3[H])c(C(=O)N([H])[H])c2N([H])[H])C1([H])[H])c1c([H])c([H])c([H])c(OC([H])([H])C([H])=C([H])C([H])([H])Oc2c([H])c([H])c3c(c2[H])C([H])([H])N(C(=O)C([H])(N([H])C(=O)C([H])(N([H])C([H])([H])[H])C([H])([H])[H])C(C([H])([H])[H])(C([H])([H])[H])C([H])([H])[H])C([H])(C(=O)N([H])C2([H])c4c([H])c([H])c([H])c([H])c4C([H])([H])C([H])([H])C2([H])[H])C3([H])[H])c1C([H])([H])C([H])([H])C([H])([H])[H]

>  <smiles>  (92) 
[H]N=C(C(=O)N1C([H])([H])C([H])([H])C([H])([H])C([H])(n2nc(-c3c([H])c([H])c(Oc4c([H])c([H])c(F)c([H])c4F)c([H])c3[H])c(C(=O)N([H])[H])c2N([H])[H])C1([H])[H])c1c([H])c([H])c([H])c(OC([H])([H])C([H])=C([H])C([H])([H])Oc2c([H])c([H])c3c(c2[H])C([H])([H])N(C(=O)C([H])(N([H])C(=O)C([H])(N([H])C([H])([H])[H])C([H])([H])[H])C(C([H])([H])[H])(C([H])([H])[H])C([H])([H])[H])C([H])(C(=O)N([H])C2([H])c4c([H])c([H])c([H])c([H])c4C([H])([H])C([H])([H])C2([H])[H])C3([H])[H])c1C([H])([H])C([H])([H])C([H])([H])[H]

$$$$
92:0:0
     RDKit          3D

 89 97  0  0  1  0  0  0  0  0999 V2000
  -29.1870  -21.2240   19.9740 C   0  0  0  0  0  3  0  0  0  0  0  0
  -29.0980  -22.4530   20.6150 C   0  0  0  0  0  3  0  0  0  0  0  0
  -30.4560  -19.5850   21.5560 C   0  0  0  0  0  3  0  0  0  0  0  0
  -29.6770  -19.8390   20.4620 C   0  0  0  0  0  0  0  0  0  0  0  0
  -29.3860  -18.5120   19.9220 C   0  0  0  0  0  0  0  0  0  0  0  0
  -29.9890  -17.5420   20.7360 C   0  0  0  0  0  0  0  0  0  0  0  0
  -28.5060  -18.2310   18.7320 C   0  0  0  0  0  1  0  0  0  0  0  0
  -30.6540  -18.2290   21.7240 O   0  0  0  0  0  0  0  0  0  0  0  0
  -29.8120  -15.9900   20.9960 C   0  0  0  0  0  2  0  0  0  0  0  0
  -30.6570  -14.7720   20.3720 C   0  0  0  0  0  0  0  0  0  0  0  0
  -30.5060  -12.5230   19.2510 C   0  0  0  0  0  2  0  0  0  0  0  0
  -29.5470  -12.6380   18.0420 C   0  0  0  0  0  2  0  0  0  0  0  0
  -28.0760  -12.4610   18.4740 C   0  0  0  0  0  2  0  0  0  0  0  0
  -27.7200  -13.3040   19.7250 C   0  0  0  0  0  3  0  0  0  0  0  0
  -28.7860  -13.1330   20.8300 C   0  0  0  0  0  2  0  0  0  0  0  0
  -30.0840  -13.5220   20.2580 N   0  0  0  0  0  0  0  0  0  0  0  0
  -31.7990  -14.9570   19.9340 O   0  0  0  0  0  0  0  0  0  0  0  0
  -25.3250  -13.9040   20.4420 C   0  0  0  0  0  0  0  0  0  0  0  0
  -24.2600  -13.1320   20.8160 C   0  0  0  0  0  0  0  0  0  0  0  0
  -24.7250  -11.7810   20.7920 C   0  0  0  0  0  0  0  0  0  0  0  0
  -26.3710  -13.0240   20.2110 N   0  0  0  0  0  0  0  0  0  0  0  0
  -26.0160  -11.7420   20.4840 N   0  0  0  0  0  0  0  0  0  0  0  0
  -24.0000  -10.5190   20.9890 C   0  0  0  0  0  0  0  0  0  0  0  0
  -24.4310   -9.5600   21.9320 C   0  0  0  0  0  3  0  0  0  0  0  0
  -23.7070   -8.3630   22.1170 C   0  0  0  0  0  3  0  0  0  0  0  0
  -22.5380   -8.1160   21.3570 C   0  0  0  0  0  0  0  0  0  0  0  0
  -22.1280   -9.0630   20.4030 C   0  0  0  0  0  3  0  0  0  0  0  0
  -22.8520  -10.2520   20.2170 C   0  0  0  0  0  3  0  0  0  0  0  0
  -21.7860   -6.9700   21.4510 O   0  0  0  0  0  0  0  0  0  0  0  0
  -21.7260   -6.2410   22.6110 C   0  0  0  0  0  0  0  0  0  0  0  0
  -21.2770   -6.8050   23.8250 C   0  0  0  0  0  3  0  0  0  0  0  0
  -21.1660   -6.0010   24.9760 C   0  0  0  0  0  3  0  0  0  0  0  0
  -21.4950   -4.6340   24.9150 C   0  0  0  0  0  0  0  0  0  0  0  0
  -21.9370   -4.0690   23.7060 C   0  0  0  0  0  3  0  0  0  0  0  0
  -22.0500   -4.8700   22.5570 C   0  0  0  0  0  0  0  0  0  0  0  0
  -22.4570   -4.3160   21.3900 F   0  0  0  0  0  0  0  0  0  0  0  0
  -21.3800   -3.8610   26.0200 F   0  0  0  0  0  0  0  0  0  0  0  0
  -22.8610  -13.6070   21.0840 C   0  0  0  0  0  0  0  0  0  0  0  0
  -22.1330  -12.9110   21.9500 N   0  0  0  0  0  0  0  0  0  0  0  0
  -22.4220  -14.6310   20.5610 O   0  0  0  0  0  0  0  0  0  0  0  0
  -22.5010  -12.0840   22.3950 H   0  0  0  0  0  0  0  0  0  0  0  0
  -21.1940  -13.2120   22.1700 H   0  0  0  0  0  0  0  0  0  0  0  0
  -25.4860  -15.2760   20.2580 N   0  0  0  0  0  0  0  0  0  0  0  0
  -24.7160  -15.9270   20.3720 H   0  0  0  0  0  0  0  0  0  0  0  0
  -26.3300  -15.7180   19.9170 H   0  0  0  0  0  0  0  0  0  0  0  0
  -28.6540  -23.7930   19.9770 C   0  0  0  0  0  0  0  0  0  0  0  0
  -28.5950  -23.9020   18.7480 O   0  0  0  0  0  0  0  0  0  0  0  0
  -28.2290  -25.0740   20.8400 C   0  0  0  0  0  2  0  0  0  0  0  0
  -28.3710  -26.4410   20.2330 O   0  0  0  0  0  0  0  0  0  0  0  0
  -24.6160  -31.8890   23.2350 C   0  0  0  0  0  0  0  0  0  0  0  0
  -27.2550  -27.3000   20.2290 C   0  0  0  0  0  0  0  0  0  0  0  0
  -23.4260  -30.4840   21.5890 C   0  0  0  0  0  3  0  0  0  0  0  0
  -24.8890  -28.9210   20.1840 C   0  0  0  0  0  0  0  0  0  0  0  0
  -25.9670  -30.8010   21.4220 C   0  0  0  0  0  2  0  0  0  0  0  0
  -26.0550  -29.4160   20.7850 C   0  0  0  0  0  0  0  0  0  0  0  0
  -27.2440  -28.6200   20.7880 C   0  0  0  0  0  3  0  0  0  0  0  0
  -26.0680  -26.8580   19.6120 C   0  0  0  0  0  3  0  0  0  0  0  0
  -24.9000  -27.6490   19.5880 C   0  0  0  0  0  3  0  0  0  0  0  0
  -23.6520  -29.7980   20.2160 C   0  0  0  0  0  2  0  0  0  0  0  0
  -24.6880  -31.0760   22.1400 N   0  0  0  0  0  0  0  0  0  0  0  0
  -23.5290  -32.1680   23.7600 O   0  0  0  0  0  0  0  0  0  0  0  0
  -22.7530  -29.4740   22.5500 C   0  0  0  0  0  0  0  0  0  0  0  0
  -21.4240  -29.3100   22.4250 N   0  0  0  0  0  0  0  0  0  0  0  0
  -23.4260  -28.8400   23.3660 O   0  0  0  0  0  0  0  0  0  0  0  0
  -20.9400  -29.8710   21.7390 H   0  0  0  0  0  0  0  0  0  0  0  0
  -18.0370  -28.1500   22.9380 C   0  0  0  0  0  0  0  0  0  0  0  0
  -20.6000  -28.3770   23.1930 C   0  0  0  0  0  3  0  0  0  0  0  0
  -20.6800  -26.9480   22.6070 C   0  0  0  0  0  2  0  0  0  0  0  0
  -19.5690  -26.6470   21.5970 C   0  0  0  0  0  2  0  0  0  0  0  0
  -18.1930  -26.8040   22.2510 C   0  0  0  0  0  2  0  0  0  0  0  0
  -19.1670  -28.8950   23.3660 C   0  0  0  0  0  0  0  0  0  0  0  0
  -18.9670  -30.1550   23.9700 C   0  0  0  0  0  3  0  0  0  0  0  0
  -17.6690  -30.6710   24.1480 C   0  0  0  0  0  3  0  0  0  0  0  0
  -16.5530  -29.9220   23.7360 C   0  0  0  0  0  3  0  0  0  0  0  0
  -16.7380  -28.6640   23.1370 C   0  0  0  0  0  3  0  0  0  0  0  0
  -25.8930  -32.5250   23.8660 C   0  0  0  0  0  3  0  0  0  0  0  0
  -26.3990  -31.7580   25.1490 C   0  0  1  0  0  0  0  0  0  0  0  0
  -25.2980  -31.5250   26.2100 C   0  0  0  0  0  1  0  0  0  0  0  0
  -26.9840  -30.3790   24.7690 C   0  0  0  0  0  1  0  0  0  0  0  0
  -27.5430  -32.5550   25.8190 C   0  0  0  0  0  1  0  0  0  0  0  0
  -25.5800  -33.9240   24.1910 N   0  0  0  0  0  0  0  0  0  0  0  0
  -25.9140  -34.9760   23.4300 C   0  0  0  0  0  0  0  0  0  0  0  0
  -26.5870  -34.8700   22.4010 O   0  0  0  0  0  0  0  0  0  0  0  0
  -24.9840  -34.0800   24.9900 H   0  0  0  0  0  0  0  0  0  0  0  0
  -24.1890  -36.7710   23.0640 C   0  0  0  0  0  1  0  0  0  0  0  0
  -25.4240  -36.3660   23.8840 C   0  0  0  0  0  3  0  0  0  0  0  0
  -27.5540  -37.2500   24.7300 C   0  0  0  0  0  1  0  0  0  0  0  0
  -26.4580  -37.4180   23.7790 N   0  0  0  0  0  0  0  0  0  0  0  0
  -26.0520  -38.3380   23.9240 H   0  0  0  0  0  0  0  0  0  0  0  0
  1  4  1  0
  1  2  2  0
  3  8  1  0
  4  3  2  0
  5  4  1  0
  5  6  2  0
  6  9  1  0
  6  8  1  0
  7  5  1  0
 10  9  1  0
 11 16  1  0
 12 13  1  0
 12 11  1  0
 14 13  1  0
 14 21  1  0
 14 15  1  0
 16 10  1  0
 16 15  1  0
 17 10  2  0
 18 19  2  0
 19 38  1  0
 20 19  1  0
 20 23  1  0
 21 18  1  0
 21 22  1  0
 22 20  2  0
 23 24  1  0
 24 25  2  0
 26 29  1  0
 26 25  1  0
 27 26  2  0
 28 27  1  0
 28 23  2  0
 29 30  1  0
 30 31  1  0
 31 32  2  0
 33 32  1  0
 33 37  1  0
 34 33  2  0
 35 30  2  0
 35 34  1  0
 36 35  1  0
 38 39  1  0
 39 42  1  0
 39 41  1  0
 40 38  2  0
 43 44  1  0
 43 18  1  0
 45 43  1  0
 46  2  1  0
 46 48  1  0
 47 46  2  0
 49 48  1  0
 50 61  2  0
 51 49  1  0
 51 56  1  0
 52 60  1  0
 52 62  1  0
 53 59  1  0
 53 55  1  0
 54 60  1  0
 55 56  2  0
 55 54  1  0
 57 51  2  0
 58 57  1  0
 58 53  2  0
 59 52  1  0
 60 50  1  0
 62 64  2  0
 63 62  1  0
 65 63  1  0
 66 75  2  0
 66 71  1  0
 67 63  1  0
 67 71  1  0
 68 67  1  0
 69 70  1  0
 69 68  1  0
 70 66  1  0
 71 72  2  0
 72 73  1  0
 74 73  2  0
 75 74  1  0
 76 50  1  0
 76 81  1  0
 76 77  1  0
 77 80  1  1
 77 78  1  0
 79 77  1  0
 81 84  1  0
 82 86  1  0
 82 81  1  0
 83 82  2  0
 86 85  1  0
 88 86  1  0
 88 89  1  0
 88 87  1  0
M  ISO  4   9 100  10 100  48 101  49 101
M  END
>  <TORSDO>  (93) 
F 20

>  <SCORE>  (93) 
-13.979

>  <name>  (93) 
92

>  <ligand_id>  (93) 
92

>  <original_smiles>  (93) 
[H]C(C(=O)C([H])([H])Oc1c([H])c([H])c2c(c1[H])C([H])([H])N(C(=O)C([H])(N([H])C(=O)C([H])(N([H])C([H])([H])[H])C([H])([H])[H])C(C([H])([H])[H])(C([H])([H])[H])C([H])([H])[H])C([H])(C(=O)N([H])C1([H])c3c([H])c([H])c([H])c([H])c3C([H])([H])C([H])([H])C1([H])[H])C2([H])[H])=C([H])c1c([H])oc(C([H])([H])C(=O)N2C([H])([H])C([H])([H])C([H])([H])C([H])(n3nc(-c4c([H])c([H])c(Oc5c([H])c([H])c(F)c([H])c5F)c([H])c4[H])c(C(=O)N([H])[H])c3N([H])[H])C2([H])[H])c1C([H])([H])[H]

>  <smiles>  (93) 
[H]C(C(=O)C([H])([H])Oc1c([H])c([H])c2c(c1[H])C([H])([H])N(C(=O)C([H])(N([H])C(=O)C([H])(N([H])C([H])([H])[H])C([H])([H])[H])C(C([H])([H])[H])(C([H])([H])[H])C([H])([H])[H])C([H])(C(=O)N([H])C1([H])c3c([H])c([H])c([H])c([H])c3C([H])([H])C([H])([H])C1([H])[H])C2([H])[H])=C([H])c1c([H])oc(C([H])([H])C(=O)N2C([H])([H])C([H])([H])C([H])([H])C([H])(n3nc(-c4c([H])c([H])c(Oc5c([H])c([H])c(F)c([H])c5F)c([H])c4[H])c(C(=O)N([H])[H])c3N([H])[H])C2([H])[H])c1C([H])([H])[H]

$$$$
93:0:0
     RDKit          3D

 94102  0  0  1  0  0  0  0  0999 V2000
  -31.4050  -20.8900   21.2990 C   0  0  0  0  0  0  0  0  0  0  0  0
  -32.0420  -21.4100   22.2630 N   0  0  0  0  0  0  0  0  0  0  0  0
  -32.1860  -20.7390   23.0090 H   0  0  0  0  0  0  0  0  0  0  0  0
  -31.9000  -18.5290   21.9350 C   0  0  0  0  0  3  0  0  0  0  0  0
  -31.6590  -17.1420   21.9180 C   0  0  0  0  0  3  0  0  0  0  0  0
  -29.5660  -17.5420   20.7480 C   0  0  0  0  0  3  0  0  0  0  0  0
  -31.0040  -19.4490   21.3320 C   0  0  0  0  0  0  0  0  0  0  0  0
  -29.8060  -18.9310   20.7500 C   0  0  0  0  0  0  0  0  0  0  0  0
  -30.4940  -16.6450   21.3040 C   0  0  0  0  0  0  0  0  0  0  0  0
  -28.7210  -19.8120   20.1460 C   0  0  0  0  0  1  0  0  0  0  0  0
  -30.6340  -14.4740   20.2490 C   0  0  0  0  0  0  0  0  0  0  0  0
  -30.1840  -12.4550   18.9140 C   0  0  0  0  0  2  0  0  0  0  0  0
  -29.1810  -12.7600   17.7860 C   0  0  0  0  0  2  0  0  0  0  0  0
  -27.7360  -12.5940   18.2880 C   0  0  0  0  0  2  0  0  0  0  0  0
  -27.4760  -13.3560   19.6120 C   0  0  0  0  0  3  0  0  0  0  0  0
  -28.5830  -13.0540   20.6490 C   0  0  0  0  0  2  0  0  0  0  0  0
  -29.8960  -13.3500   20.0430 N   0  0  0  0  0  0  0  0  0  0  0  0
  -31.6320  -14.7560   19.5770 O   0  0  0  0  0  0  0  0  0  0  0  0
  -30.2240  -15.2620   21.2500 N   0  0  0  0  0  0  0  0  0  0  0  0
  -29.4110  -14.9390   21.7560 H   0  0  0  0  0  0  0  0  0  0  0  0
  -25.1030  -13.9270   20.4380 C   0  0  0  0  0  0  0  0  0  0  0  0
  -24.0620  -13.1390   20.8470 C   0  0  0  0  0  0  0  0  0  0  0  0
  -24.5330  -11.7910   20.7730 C   0  0  0  0  0  0  0  0  0  0  0  0
  -26.1460  -13.0610   20.1460 N   0  0  0  0  0  0  0  0  0  0  0  0
  -25.8070  -11.7710   20.4040 N   0  0  0  0  0  0  0  0  0  0  0  0
  -23.8280  -10.5190   20.9750 C   0  0  0  0  0  0  0  0  0  0  0  0
  -24.3050   -9.5480   21.8830 C   0  0  0  0  0  3  0  0  0  0  0  0
  -23.6040   -8.3390   22.0740 C   0  0  0  0  0  3  0  0  0  0  0  0
  -22.4080   -8.0920   21.3580 C   0  0  0  0  0  0  0  0  0  0  0  0
  -21.9490   -9.0520   20.4400 C   0  0  0  0  0  3  0  0  0  0  0  0
  -22.6520  -10.2520   20.2460 C   0  0  0  0  0  3  0  0  0  0  0  0
  -21.6720   -6.9370   21.4620 O   0  0  0  0  0  0  0  0  0  0  0  0
  -21.6690   -6.1850   22.6090 C   0  0  0  0  0  0  0  0  0  0  0  0
  -21.2840   -6.7270   23.8550 C   0  0  0  0  0  3  0  0  0  0  0  0
  -21.2300   -5.9000   24.9950 C   0  0  0  0  0  3  0  0  0  0  0  0
  -21.5500   -4.5340   24.8900 C   0  0  0  0  0  0  0  0  0  0  0  0
  -21.9290   -3.9920   23.6510 C   0  0  0  0  0  3  0  0  0  0  0  0
  -21.9860   -4.8150   22.5120 C   0  0  0  0  0  0  0  0  0  0  0  0
  -22.3310   -4.2830   21.3150 F   0  0  0  0  0  0  0  0  0  0  0  0
  -21.4910   -3.7370   25.9830 F   0  0  0  0  0  0  0  0  0  0  0  0
  -22.6740  -13.5940   21.1920 C   0  0  0  0  0  0  0  0  0  0  0  0
  -21.9890  -12.8740   22.0730 N   0  0  0  0  0  0  0  0  0  0  0  0
  -22.2030  -14.6270   20.7120 O   0  0  0  0  0  0  0  0  0  0  0  0
  -22.3820  -12.0390   22.4840 H   0  0  0  0  0  0  0  0  0  0  0  0
  -21.0590  -13.1630   22.3430 H   0  0  0  0  0  0  0  0  0  0  0  0
  -25.2480  -15.3020   20.2720 N   0  0  0  0  0  0  0  0  0  0  0  0
  -24.4800  -15.9500   20.4100 H   0  0  0  0  0  0  0  0  0  0  0  0
  -26.0780  -15.7440   19.8980 H   0  0  0  0  0  0  0  0  0  0  0  0
  -31.1140  -21.7500   20.1340 C   0  0  0  0  0  3  0  0  0  0  0  0
  -30.3300  -22.8480   20.1200 C   0  0  0  0  0  3  0  0  0  0  0  0
  -29.5680  -23.4430   21.2970 C   0  0  0  0  0  2  0  0  0  0  0  0
  -29.4300  -24.9690   21.2120 C   0  0  0  0  0  2  0  0  0  0  0  0
  -28.4130  -25.4330   20.1570 C   0  0  0  0  0  2  0  0  0  0  0  0
  -28.4090  -26.8580   20.1740 O   0  0  0  0  0  0  0  0  0  0  0  0
  -24.5780  -31.9530   23.2590 C   0  0  0  0  0  0  0  0  0  0  0  0
  -27.2030  -27.5190   20.1770 C   0  0  0  0  0  0  0  0  0  0  0  0
  -23.3580  -30.5550   21.6200 C   0  0  0  0  0  3  0  0  0  0  0  0
  -24.8010  -29.0070   20.1950 C   0  0  0  0  0  0  0  0  0  0  0  0
  -25.8800  -30.9130   21.4080 C   0  0  0  0  0  2  0  0  0  0  0  0
  -25.9580  -29.5390   20.7770 C   0  0  0  0  0  0  0  0  0  0  0  0
  -27.1580  -28.7990   20.7660 C   0  0  0  0  0  3  0  0  0  0  0  0
  -26.0280  -26.9910   19.5910 C   0  0  0  0  0  3  0  0  0  0  0  0
  -24.8290  -27.7310   19.6020 C   0  0  0  0  0  3  0  0  0  0  0  0
  -23.5610  -29.8720   20.2390 C   0  0  0  0  0  2  0  0  0  0  0  0
  -24.6250  -31.1540   22.1550 N   0  0  0  0  0  0  0  0  0  0  0  0
  -23.5010  -32.2280   23.8030 O   0  0  0  0  0  0  0  0  0  0  0  0
  -22.7100  -29.5370   22.5840 C   0  0  0  0  0  0  0  0  0  0  0  0
  -21.3860  -29.3530   22.4580 N   0  0  0  0  0  0  0  0  0  0  0  0
  -23.3940  -28.9160   23.4010 O   0  0  0  0  0  0  0  0  0  0  0  0
  -20.8960  -29.9050   21.7680 H   0  0  0  0  0  0  0  0  0  0  0  0
  -18.0150  -28.1570   22.9460 C   0  0  0  0  0  0  0  0  0  0  0  0
  -20.5700  -28.4200   23.2310 C   0  0  0  0  0  3  0  0  0  0  0  0
  -20.6770  -26.9860   22.6640 C   0  0  0  0  0  2  0  0  0  0  0  0
  -19.5800  -26.6550   21.6470 C   0  0  0  0  0  2  0  0  0  0  0  0
  -18.1950  -26.8030   22.2820 C   0  0  0  0  0  2  0  0  0  0  0  0
  -19.1290  -28.9220   23.3780 C   0  0  0  0  0  0  0  0  0  0  0  0
  -18.9060  -30.1910   23.9580 C   0  0  0  0  0  3  0  0  0  0  0  0
  -17.5990  -30.6900   24.1170 C   0  0  0  0  0  3  0  0  0  0  0  0
  -16.4990  -29.9220   23.7010 C   0  0  0  0  0  3  0  0  0  0  0  0
  -16.7080  -28.6580   23.1200 C   0  0  0  0  0  3  0  0  0  0  0  0
  -25.8690  -32.5800   23.8710 C   0  0  0  0  0  3  0  0  0  0  0  0
  -25.5730  -33.9820   24.1900 N   0  0  0  0  0  0  0  0  0  0  0  0
  -25.9140  -35.0250   23.4220 C   0  0  0  0  0  0  0  0  0  0  0  0
  -26.5850  -34.9090   22.3930 O   0  0  0  0  0  0  0  0  0  0  0  0
  -24.9800  -34.1480   24.9910 H   0  0  0  0  0  0  0  0  0  0  0  0
  -24.1990  -36.8260   23.0460 C   0  0  0  0  0  1  0  0  0  0  0  0
  -25.4330  -36.4200   23.8670 C   0  0  0  0  0  3  0  0  0  0  0  0
  -27.5700  -37.2950   24.6990 C   0  0  0  0  0  1  0  0  0  0  0  0
  -26.4720  -37.4660   23.7510 N   0  0  0  0  0  0  0  0  0  0  0  0
  -26.0700  -38.3890   23.8920 H   0  0  0  0  0  0  0  0  0  0  0  0
  -26.3870  -31.8120   25.1490 C   0  0  1  0  0  0  0  0  0  0  0  0
  -25.2960  -31.5870   26.2210 C   0  0  0  0  0  1  0  0  0  0  0  0
  -26.9580  -30.4290   24.7570 C   0  0  0  0  0  1  0  0  0  0  0  0
  -27.5420  -32.6020   25.8060 C   0  0  0  0  0  1  0  0  0  0  0  0
  1  7  1  0
  1  2  2  0
  2  3  1  0
  5  4  1  0
  6  8  2  0
  6  9  1  0
  7  4  2  0
  8  7  1  0
  9  5  2  0
 10  8  1  0
 11 19  1  0
 12 17  1  0
 13 14  1  0
 13 12  1  0
 15 14  1  0
 15 24  1  0
 15 16  1  0
 17 11  1  0
 17 16  1  0
 18 11  2  0
 19  9  1  0
 19 20  1  0
 21 22  2  0
 22 41  1  0
 23 22  1  0
 23 26  1  0
 24 25  1  0
 24 21  1  0
 25 23  2  0
 26 27  1  0
 27 28  2  0
 29 32  1  0
 29 28  1  0
 30 29  2  0
 31 30  1  0
 31 26  2  0
 32 33  1  0
 33 34  1  0
 34 35  2  0
 36 35  1  0
 36 40  1  0
 37 36  2  0
 38 33  2  0
 38 37  1  0
 39 38  1  0
 41 42  1  0
 42 45  1  0
 42 44  1  0
 43 41  2  0
 46 47  1  0
 46 21  1  0
 48 46  1  0
 49  1  1  0
 50 49  2  0
 50 51  1  0
 52 51  1  0
 53 54  1  0
 53 52  1  0
 54 56  1  0
 55 66  2  0
 56 61  1  0
 57 65  1  0
 57 67  1  0
 58 64  1  0
 58 60  1  0
 59 65  1  0
 60 59  1  0
 61 60  2  0
 62 63  1  0
 62 56  2  0
 63 58  2  0
 64 57  1  0
 65 55  1  0
 67 69  2  0
 68 67  1  0
 70 68  1  0
 71 80  2  0
 71 76  1  0
 72 68  1  0
 72 76  1  0
 73 72  1  0
 74 75  1  0
 74 73  1  0
 75 71  1  0
 76 77  2  0
 77 78  1  0
 79 78  2  0
 80 79  1  0
 81 55  1  0
 81 82  1  0
 81 91  1  0
 82 85  1  0
 83 87  1  0
 83 82  1  0
 84 83  2  0
 87 86  1  0
 89 87  1  0
 89 90  1  0
 89 88  1  0
 91 94  1  1
 91 92  1  0
 93 91  1  0
M  ISO  4  11 100  19 100  53 101  54 101
M  END
>  <TORSDO>  (94) 
F 21

>  <SCORE>  (94) 
-13.335

>  <name>  (94) 
93

>  <ligand_id>  (94) 
93

>  <original_smiles>  (94) 
[H]N=C(C([H])=C([H])C([H])([H])C([H])([H])C([H])([H])Oc1c([H])c([H])c2c(c1[H])C([H])([H])N(C(=O)C([H])(N([H])C(=O)C([H])(N([H])C([H])([H])[H])C([H])([H])[H])C(C([H])([H])[H])(C([H])([H])[H])C([H])([H])[H])C([H])(C(=O)N([H])C1([H])c3c([H])c([H])c([H])c([H])c3C([H])([H])C([H])([H])C1([H])[H])C2([H])[H])c1c([H])c([H])c(N([H])C(=O)N2C([H])([H])C([H])([H])C([H])([H])C([H])(n3nc(-c4c([H])c([H])c(Oc5c([H])c([H])c(F)c([H])c5F)c([H])c4[H])c(C(=O)N([H])[H])c3N([H])[H])C2([H])[H])c([H])c1C([H])([H])[H]

>  <smiles>  (94) 
[H]N=C(C([H])=C([H])C([H])([H])C([H])([H])C([H])([H])Oc1c([H])c([H])c2c(c1[H])C([H])([H])N(C(=O)C([H])(N([H])C(=O)C([H])(N([H])C([H])([H])[H])C([H])([H])[H])C(C([H])([H])[H])(C([H])([H])[H])C([H])([H])[H])C([H])(C(=O)N([H])C1([H])c3c([H])c([H])c([H])c([H])c3C([H])([H])C([H])([H])C1([H])[H])C2([H])[H])c1c([H])c([H])c(N([H])C(=O)N2C([H])([H])C([H])([H])C([H])([H])C([H])(n3nc(-c4c([H])c([H])c(Oc5c([H])c([H])c(F)c([H])c5F)c([H])c4[H])c(C(=O)N([H])[H])c3N([H])[H])C2([H])[H])c([H])c1C([H])([H])[H]

$$$$
94:0:0
     RDKit          3D

 93101  0  0  1  0  0  0  0  0999 V2000
  -29.3870  -19.1150   20.7320 C   0  0  0  0  0  3  0  0  0  0  0  0
  -31.5330  -17.4510   21.3490 C   0  0  0  0  0  3  0  0  0  0  0  0
  -29.1880  -17.7130   20.7300 C   0  0  0  0  0  0  0  0  0  0  0  0
  -31.7070  -18.8540   21.3720 C   0  0  0  0  0  0  0  0  0  0  0  0
  -30.2870  -16.8530   21.0190 C   0  0  0  0  0  0  0  0  0  0  0  0
  -30.6270  -19.7130   21.0610 C   0  0  0  0  0  0  0  0  0  0  0  0
  -33.0740  -19.4220   21.7300 C   0  0  0  0  0  1  0  0  0  0  0  0
  -30.7400  -14.4680   20.2710 C   0  0  0  0  0  0  0  0  0  0  0  0
  -30.3410  -12.4080   18.9670 C   0  0  0  0  0  2  0  0  0  0  0  0
  -29.3250  -12.7120   17.8460 C   0  0  0  0  0  2  0  0  0  0  0  0
  -27.8780  -12.5630   18.3580 C   0  0  0  0  0  2  0  0  0  0  0  0
  -27.6380  -13.2880   19.7090 C   0  0  0  0  0  3  0  0  0  0  0  0
  -28.7600  -12.9640   20.7210 C   0  0  0  0  0  2  0  0  0  0  0  0
  -30.0490  -13.3070   20.0970 N   0  0  0  0  0  0  0  0  0  0  0  0
  -31.8340  -14.6610   19.7340 O   0  0  0  0  0  0  0  0  0  0  0  0
  -30.0870  -15.4250   20.9690 N   0  0  0  0  0  0  0  0  0  0  0  0
  -29.2120  -15.1050   21.3480 H   0  0  0  0  0  0  0  0  0  0  0  0
  -25.2720  -13.8400   20.5530 C   0  0  0  0  0  0  0  0  0  0  0  0
  -24.2340  -13.0490   20.9640 C   0  0  0  0  0  0  0  0  0  0  0  0
  -24.7000  -11.7040   20.8540 C   0  0  0  0  0  0  0  0  0  0  0  0
  -26.3150  -12.9810   20.2500 N   0  0  0  0  0  0  0  0  0  0  0  0
  -25.9750  -11.6860   20.4790 N   0  0  0  0  0  0  0  0  0  0  0  0
  -23.9880  -10.4310   21.0260 C   0  0  0  0  0  0  0  0  0  0  0  0
  -24.4280   -9.4560   21.9480 C   0  0  0  0  0  3  0  0  0  0  0  0
  -23.7130   -8.2490   22.1060 C   0  0  0  0  0  3  0  0  0  0  0  0
  -22.5460   -8.0080   21.3440 C   0  0  0  0  0  0  0  0  0  0  0  0
  -22.1230   -8.9740   20.4130 C   0  0  0  0  0  3  0  0  0  0  0  0
  -22.8390  -10.1730   20.2520 C   0  0  0  0  0  3  0  0  0  0  0  0
  -21.8020   -6.8560   21.4150 O   0  0  0  0  0  0  0  0  0  0  0  0
  -21.6890   -6.1430   22.5820 C   0  0  0  0  0  0  0  0  0  0  0  0
  -21.1640   -6.7220   23.7570 C   0  0  0  0  0  3  0  0  0  0  0  0
  -21.0010   -5.9380   24.9170 C   0  0  0  0  0  3  0  0  0  0  0  0
  -21.3530   -4.5750   24.9010 C   0  0  0  0  0  0  0  0  0  0  0  0
  -21.8680   -3.9950   23.7290 C   0  0  0  0  0  3  0  0  0  0  0  0
  -22.0330   -4.7770   22.5720 C   0  0  0  0  0  0  0  0  0  0  0  0
  -22.5130   -4.2080   21.4400 F   0  0  0  0  0  0  0  0  0  0  0  0
  -21.1870   -3.8190   26.0100 F   0  0  0  0  0  0  0  0  0  0  0  0
  -22.8530  -13.5090   21.3340 C   0  0  0  0  0  0  0  0  0  0  0  0
  -22.1830  -12.7880   22.2260 N   0  0  0  0  0  0  0  0  0  0  0  0
  -22.3770  -14.5460   20.8710 O   0  0  0  0  0  0  0  0  0  0  0  0
  -22.5750  -11.9500   22.6290 H   0  0  0  0  0  0  0  0  0  0  0  0
  -21.2600  -13.0820   22.5140 H   0  0  0  0  0  0  0  0  0  0  0  0
  -25.4030  -15.2100   20.3810 N   0  0  0  0  0  0  0  0  0  0  0  0
  -24.5950  -15.8210   20.4150 H   0  0  0  0  0  0  0  0  0  0  0  0
  -26.2100  -15.6510   19.9600 H   0  0  0  0  0  0  0  0  0  0  0  0
  -26.9650  -17.6950   19.5090 C   0  0  0  0  0  2  0  0  0  0  0  0
  -27.8430  -17.1800   20.3960 C   0  0  0  0  0  3  0  0  0  0  0  0
  -30.8240  -21.0890   21.1030 O   0  0  0  0  0  0  0  0  0  0  0  0
  -29.6780  -21.9460   20.9970 C   0  0  0  0  0  2  0  0  0  0  0  0
  -30.0430  -23.4480   21.0520 C   0  0  0  0  0  2  0  0  0  0  0  0
  -28.8100  -24.3830   20.8530 C   0  0  0  0  0  2  0  0  0  0  0  0
  -29.0930  -25.8960   21.0740 C   0  0  0  0  0  2  0  0  0  0  0  0
  -28.6950  -26.7120   19.9660 O   0  0  0  0  0  0  0  0  0  0  0  0
  -24.6160  -31.6930   23.1310 C   0  0  0  0  0  0  0  0  0  0  0  0
  -27.5020  -27.3960   20.0600 C   0  0  0  0  0  0  0  0  0  0  0  0
  -23.5080  -30.2980   21.4170 C   0  0  0  0  0  3  0  0  0  0  0  0
  -25.0550  -28.8230   20.0250 C   0  0  0  0  0  0  0  0  0  0  0  0
  -26.0280  -30.7300   21.3150 C   0  0  0  0  0  2  0  0  0  0  0  0
  -26.1750  -29.3680   20.6660 C   0  0  0  0  0  0  0  0  0  0  0  0
  -27.4030  -28.6610   20.6850 C   0  0  0  0  0  3  0  0  0  0  0  0
  -26.3680  -26.8650   19.4110 C   0  0  0  0  0  3  0  0  0  0  0  0
  -25.1460  -27.5680   19.3970 C   0  0  0  0  0  3  0  0  0  0  0  0
  -23.7860  -29.6500   20.0360 C   0  0  0  0  0  2  0  0  0  0  0  0
  -24.7340  -30.9220   22.0130 N   0  0  0  0  0  0  0  0  0  0  0  0
  -23.5090  -31.9220   23.6390 O   0  0  0  0  0  0  0  0  0  0  0  0
  -22.8500  -29.2390   22.3330 C   0  0  0  0  0  0  0  0  0  0  0  0
  -21.5240  -29.0700   22.1970 N   0  0  0  0  0  0  0  0  0  0  0  0
  -23.5290  -28.5730   23.1180 O   0  0  0  0  0  0  0  0  0  0  0  0
  -21.0350  -29.6540   21.5340 H   0  0  0  0  0  0  0  0  0  0  0  0
  -18.1390  -27.9410   22.7280 C   0  0  0  0  0  0  0  0  0  0  0  0
  -20.7090  -28.1030   22.9300 C   0  0  0  0  0  3  0  0  0  0  0  0
  -20.7460  -26.7130   22.2530 C   0  0  0  0  0  2  0  0  0  0  0  0
  -19.6040  -26.4980   21.2550 C   0  0  0  0  0  2  0  0  0  0  0  0
  -18.2490  -26.6380   21.9530 C   0  0  0  0  0  2  0  0  0  0  0  0
  -19.2930  -28.6340   23.1740 C   0  0  0  0  0  0  0  0  0  0  0  0
  -19.1330  -29.8580   23.8600 C   0  0  0  0  0  3  0  0  0  0  0  0
  -17.8510  -30.3860   24.1070 C   0  0  0  0  0  3  0  0  0  0  0  0
  -16.7120  -29.6890   23.6760 C   0  0  0  0  0  3  0  0  0  0  0  0
  -16.8550  -28.4650   22.9930 C   0  0  0  0  0  3  0  0  0  0  0  0
  -25.8610  -32.3450   23.8090 C   0  0  0  0  0  3  0  0  0  0  0  0
  -25.5100  -33.7290   24.1400 N   0  0  0  0  0  0  0  0  0  0  0  0
  -25.8430  -34.7970   23.4020 C   0  0  0  0  0  0  0  0  0  0  0  0
  -26.5520  -34.7150   22.3940 O   0  0  0  0  0  0  0  0  0  0  0  0
  -24.8790  -33.8620   24.9190 H   0  0  0  0  0  0  0  0  0  0  0  0
  -24.0760  -36.5410   23.0120 C   0  0  0  0  0  1  0  0  0  0  0  0
  -25.3070  -36.1670   23.8540 C   0  0  0  0  0  3  0  0  0  0  0  0
  -27.3940  -37.1090   24.7460 C   0  0  0  0  0  1  0  0  0  0  0  0
  -26.3120  -37.2510   23.7740 N   0  0  0  0  0  0  0  0  0  0  0  0
  -25.8780  -38.1600   23.9140 H   0  0  0  0  0  0  0  0  0  0  0  0
  -26.3450  -31.5700   25.0940 C   0  0  1  0  0  0  0  0  0  0  0  0
  -25.2130  -31.3010   26.1150 C   0  0  0  0  0  1  0  0  0  0  0  0
  -26.9750  -30.2100   24.7070 C   0  0  0  0  0  1  0  0  0  0  0  0
  -27.4490  -32.3840   25.8120 C   0  0  0  0  0  1  0  0  0  0  0  0
  1  6  1  0
  2  4  1  0
  3  1  2  0
  3  5  1  0
  4  7  1  0
  5  2  2  0
  6 48  1  0
  6  4  2  0
  8 16  1  0
  9 14  1  0
 10 11  1  0
 10  9  1  0
 12 11  1  0
 12 21  1  0
 12 13  1  0
 14  8  1  0
 14 13  1  0
 15  8  2  0
 16  5  1  0
 16 17  1  0
 18 19  2  0
 19 38  1  0
 20 19  1  0
 20 23  1  0
 21 22  1  0
 21 18  1  0
 22 20  2  0
 23 24  1  0
 24 25  2  0
 26 29  1  0
 26 25  1  0
 27 26  2  0
 28 27  1  0
 28 23  2  0
 29 30  1  0
 30 31  1  0
 31 32  2  0
 33 32  1  0
 33 37  1  0
 34 33  2  0
 35 30  2  0
 35 34  1  0
 36 35  1  0
 38 39  1  0
 39 42  1  0
 39 41  1  0
 40 38  2  0
 43 44  1  0
 43 18  1  0
 45 43  1  0
 46 47  2  0
 47  3  1  0
 49 50  1  0
 49 48  1  0
 51 50  1  0
 51 52  1  0
 53 55  1  0
 53 52  1  0
 54 65  2  0
 55 60  1  0
 56 64  1  0
 56 66  1  0
 57 63  1  0
 57 59  1  0
 58 64  1  0
 59 60  2  0
 59 58  1  0
 61 55  2  0
 62 61  1  0
 62 57  2  0
 63 56  1  0
 64 54  1  0
 66 68  2  0
 67 66  1  0
 69 67  1  0
 70 79  2  0
 70 75  1  0
 71 67  1  0
 71 75  1  0
 72 71  1  0
 73 74  1  0
 73 72  1  0
 74 70  1  0
 75 76  2  0
 76 77  1  0
 78 77  2  0
 79 78  1  0
 80 54  1  0
 80 81  1  0
 80 90  1  0
 81 84  1  0
 82 86  1  0
 82 81  1  0
 83 82  2  0
 86 85  1  0
 88 86  1  0
 88 89  1  0
 88 87  1  0
 90 93  1  1
 90 91  1  0
 92 90  1  0
M  ISO  4   8 100  16 100  52 101  53 101
M  END
>  <TORSDO>  (95) 
F 22

>  <SCORE>  (95) 
-13.243

>  <name>  (95) 
94

>  <ligand_id>  (95) 
94

>  <original_smiles>  (95) 
[H]C([H])=C([H])c1c([H])c(OC([H])([H])C([H])([H])C([H])([H])C([H])([H])Oc2c([H])c([H])c3c(c2[H])C([H])([H])N(C(=O)C([H])(N([H])C(=O)C([H])(N([H])C([H])([H])[H])C([H])([H])[H])C(C([H])([H])[H])(C([H])([H])[H])C([H])([H])[H])C([H])(C(=O)N([H])C2([H])c4c([H])c([H])c([H])c([H])c4C([H])([H])C([H])([H])C2([H])[H])C3([H])[H])c(C([H])([H])[H])c([H])c1N([H])C(=O)N1C([H])([H])C([H])([H])C([H])([H])C([H])(n2nc(-c3c([H])c([H])c(Oc4c([H])c([H])c(F)c([H])c4F)c([H])c3[H])c(C(=O)N([H])[H])c2N([H])[H])C1([H])[H]

>  <smiles>  (95) 
[H]C([H])=C([H])c1c([H])c(OC([H])([H])C([H])([H])C([H])([H])C([H])([H])Oc2c([H])c([H])c3c(c2[H])C([H])([H])N(C(=O)C([H])(N([H])C(=O)C([H])(N([H])C([H])([H])[H])C([H])([H])[H])C(C([H])([H])[H])(C([H])([H])[H])C([H])([H])[H])C([H])(C(=O)N([H])C2([H])c4c([H])c([H])c([H])c([H])c4C([H])([H])C([H])([H])C2([H])[H])C3([H])[H])c(C([H])([H])[H])c([H])c1N([H])C(=O)N1C([H])([H])C([H])([H])C([H])([H])C([H])(n2nc(-c3c([H])c([H])c(Oc4c([H])c([H])c(F)c([H])c4F)c([H])c3[H])c(C(=O)N([H])[H])c2N([H])[H])C1([H])[H]

$$$$
95:0:0
     RDKit          3D

 93101  0  0  1  0  0  0  0  0999 V2000
  -29.1780  -20.5060   20.8880 C   0  0  0  0  0  3  0  0  0  0  0  0
  -29.3730  -21.6960   20.2670 C   0  0  0  0  0  3  0  0  0  0  0  0
  -29.6030  -18.0280   20.8190 C   0  0  0  0  0  3  0  0  0  0  0  0
  -31.8320  -17.1640   21.1240 C   0  0  0  0  0  3  0  0  0  0  0  0
  -30.1130  -19.3480   20.9730 C   0  0  0  0  0  0  0  0  0  0  0  0
  -30.4680  -16.9060   20.8780 C   0  0  0  0  0  0  0  0  0  0  0  0
  -31.5090  -19.4670   21.2150 C   0  0  0  0  0  0  0  0  0  0  0  0
  -32.3350  -18.4020   21.2890 N   0  0  0  0  0  0  0  0  0  0  0  0
  -30.6260  -14.5270   20.1430 C   0  0  0  0  0  0  0  0  0  0  0  0
  -30.2450  -12.4020   18.9470 C   0  0  0  0  0  2  0  0  0  0  0  0
  -29.2480  -12.6430   17.7970 C   0  0  0  0  0  2  0  0  0  0  0  0
  -27.7980  -12.4940   18.2950 C   0  0  0  0  0  2  0  0  0  0  0  0
  -27.5260  -13.2960   19.5970 C   0  0  0  0  0  3  0  0  0  0  0  0
  -28.6360  -13.0530   20.6450 C   0  0  0  0  0  2  0  0  0  0  0  0
  -29.9280  -13.3650   20.0150 N   0  0  0  0  0  0  0  0  0  0  0  0
  -31.7310  -14.6880   19.6190 O   0  0  0  0  0  0  0  0  0  0  0  0
  -29.9730  -15.5620   20.7220 N   0  0  0  0  0  0  0  0  0  0  0  0
  -29.0150  -15.3850   20.9870 H   0  0  0  0  0  0  0  0  0  0  0  0
  -25.1620  -13.8810   20.4230 C   0  0  0  0  0  0  0  0  0  0  0  0
  -24.1160  -13.0990   20.8340 C   0  0  0  0  0  0  0  0  0  0  0  0
  -24.5820  -11.7500   20.7680 C   0  0  0  0  0  0  0  0  0  0  0  0
  -26.1990  -13.0070   20.1360 N   0  0  0  0  0  0  0  0  0  0  0  0
  -25.8570  -11.7210   20.4000 N   0  0  0  0  0  0  0  0  0  0  0  0
  -23.8710  -10.4820   20.9770 C   0  0  0  0  0  0  0  0  0  0  0  0
  -24.3380   -9.5180   21.8970 C   0  0  0  0  0  3  0  0  0  0  0  0
  -23.6260   -8.3140   22.0940 C   0  0  0  0  0  3  0  0  0  0  0  0
  -22.4350   -8.0670   21.3710 C   0  0  0  0  0  0  0  0  0  0  0  0
  -21.9890   -9.0200   20.4400 C   0  0  0  0  0  3  0  0  0  0  0  0
  -22.7000  -10.2150   20.2400 C   0  0  0  0  0  3  0  0  0  0  0  0
  -21.6930   -6.9160   21.4790 O   0  0  0  0  0  0  0  0  0  0  0  0
  -21.6700   -6.1800   22.6360 C   0  0  0  0  0  0  0  0  0  0  0  0
  -21.2540   -6.7350   23.8650 C   0  0  0  0  0  3  0  0  0  0  0  0
  -21.1800   -5.9240   25.0160 C   0  0  0  0  0  3  0  0  0  0  0  0
  -21.5110   -4.5580   24.9370 C   0  0  0  0  0  0  0  0  0  0  0  0
  -21.9200   -4.0020   23.7110 C   0  0  0  0  0  3  0  0  0  0  0  0
  -21.9960   -4.8090   22.5640 C   0  0  0  0  0  0  0  0  0  0  0  0
  -22.3710   -4.2640   21.3820 F   0  0  0  0  0  0  0  0  0  0  0  0
  -21.4330   -3.7760   26.0380 F   0  0  0  0  0  0  0  0  0  0  0  0
  -22.7310  -13.5660   21.1740 C   0  0  0  0  0  0  0  0  0  0  0  0
  -22.0450  -12.8540   22.0610 N   0  0  0  0  0  0  0  0  0  0  0  0
  -22.2670  -14.5980   20.6900 O   0  0  0  0  0  0  0  0  0  0  0  0
  -22.4330  -12.0190   22.4730 H   0  0  0  0  0  0  0  0  0  0  0  0
  -21.1170  -13.1490   22.3320 H   0  0  0  0  0  0  0  0  0  0  0  0
  -25.3140  -15.2530   20.2500 N   0  0  0  0  0  0  0  0  0  0  0  0
  -24.5470  -15.9020   20.3890 H   0  0  0  0  0  0  0  0  0  0  0  0
  -26.1380  -15.6930   19.8610 H   0  0  0  0  0  0  0  0  0  0  0  0
  -33.0810  -21.2610   20.3240 C   0  0  0  0  0  1  0  0  0  0  0  0
  -32.2090  -20.7910   21.4970 C   0  0  0  0  0  2  0  0  0  0  0  0
  -28.3660  -22.8530   20.2710 C   0  0  0  0  0  2  0  0  0  0  0  0
  -28.9880  -24.2700   20.2710 C   0  0  0  0  0  0  0  0  0  0  0  0
  -30.1070  -24.4840   19.7920 O   0  0  0  0  0  0  0  0  0  0  0  0
  -28.1380  -25.4090   20.8780 C   0  0  0  0  0  2  0  0  0  0  0  0
  -28.3480  -26.6940   20.2440 O   0  0  0  0  0  0  0  0  0  0  0  0
  -24.5840  -31.9550   23.2560 C   0  0  0  0  0  0  0  0  0  0  0  0
  -27.2100  -27.4740   20.2110 C   0  0  0  0  0  0  0  0  0  0  0  0
  -23.3720  -30.5440   21.6260 C   0  0  0  0  0  3  0  0  0  0  0  0
  -24.8220  -28.9960   20.2070 C   0  0  0  0  0  0  0  0  0  0  0  0
  -25.9000  -30.8950   21.4220 C   0  0  0  0  0  2  0  0  0  0  0  0
  -25.9840  -29.5200   20.7890 C   0  0  0  0  0  0  0  0  0  0  0  0
  -27.1840  -28.7690   20.7830 C   0  0  0  0  0  3  0  0  0  0  0  0
  -26.0340  -26.9750   19.6100 C   0  0  0  0  0  3  0  0  0  0  0  0
  -24.8430  -27.7230   19.6120 C   0  0  0  0  0  3  0  0  0  0  0  0
  -23.5780  -29.8550   20.2510 C   0  0  0  0  0  2  0  0  0  0  0  0
  -24.6370  -31.1480   22.1580 N   0  0  0  0  0  0  0  0  0  0  0  0
  -23.5030  -32.2330   23.7960 O   0  0  0  0  0  0  0  0  0  0  0  0
  -22.7210  -29.5300   22.5950 C   0  0  0  0  0  0  0  0  0  0  0  0
  -21.3970  -29.3460   22.4690 N   0  0  0  0  0  0  0  0  0  0  0  0
  -23.4060  -28.9130   23.4160 O   0  0  0  0  0  0  0  0  0  0  0  0
  -20.9070  -29.8950   21.7780 H   0  0  0  0  0  0  0  0  0  0  0  0
  -18.0220  -28.1530   22.9710 C   0  0  0  0  0  0  0  0  0  0  0  0
  -20.5800  -28.4150   23.2480 C   0  0  0  0  0  3  0  0  0  0  0  0
  -20.6850  -26.9780   22.6870 C   0  0  0  0  0  2  0  0  0  0  0  0
  -19.5870  -26.6450   21.6720 C   0  0  0  0  0  2  0  0  0  0  0  0
  -18.2020  -26.7980   22.3090 C   0  0  0  0  0  2  0  0  0  0  0  0
  -19.1390  -28.9200   23.3970 C   0  0  0  0  0  0  0  0  0  0  0  0
  -18.9180  -30.1900   23.9740 C   0  0  0  0  0  3  0  0  0  0  0  0
  -17.6130  -30.6910   24.1310 C   0  0  0  0  0  3  0  0  0  0  0  0
  -16.5100  -29.9210   23.7230 C   0  0  0  0  0  3  0  0  0  0  0  0
  -16.7160  -28.6540   23.1480 C   0  0  0  0  0  3  0  0  0  0  0  0
  -25.8710  -32.5890   23.8670 C   0  0  0  0  0  3  0  0  0  0  0  0
  -25.5650  -33.9890   24.1910 N   0  0  0  0  0  0  0  0  0  0  0  0
  -25.9010  -35.0370   23.4260 C   0  0  0  0  0  0  0  0  0  0  0  0
  -26.5720  -34.9270   22.3950 O   0  0  0  0  0  0  0  0  0  0  0  0
  -24.9730  -34.1490   24.9910 H   0  0  0  0  0  0  0  0  0  0  0  0
  -24.1820  -36.8320   23.0500 C   0  0  0  0  0  1  0  0  0  0  0  0
  -25.4140  -36.4280   23.8740 C   0  0  0  0  0  3  0  0  0  0  0  0
  -27.5470  -37.3060   24.7170 C   0  0  0  0  0  1  0  0  0  0  0  0
  -26.4510  -37.4770   23.7670 N   0  0  0  0  0  0  0  0  0  0  0  0
  -26.0470  -38.4000   23.9130 H   0  0  0  0  0  0  0  0  0  0  0  0
  -26.3950  -31.8250   25.1440 C   0  0  1  0  0  0  0  0  0  0  0  0
  -25.3070  -31.5910   26.2180 C   0  0  0  0  0  1  0  0  0  0  0  0
  -26.9760  -30.4450   24.7540 C   0  0  0  0  0  1  0  0  0  0  0  0
  -27.5480  -32.6220   25.7970 C   0  0  0  0  0  1  0  0  0  0  0  0
  1  5  1  0
  2 49  1  0
  2  1  2  0
  3  6  2  0
  3  5  1  0
  4  8  2  0
  5  7  2  0
  6  4  1  0
  7  8  1  0
  7 48  1  0
  9 17  1  0
 10 15  1  0
 11 12  1  0
 11 10  1  0
 13 12  1  0
 13 22  1  0
 13 14  1  0
 15  9  1  0
 15 14  1  0
 16  9  2  0
 17  6  1  0
 17 18  1  0
 19 20  2  0
 20 39  1  0
 21 20  1  0
 21 24  1  0
 22 23  1  0
 22 19  1  0
 23 21  2  0
 24 25  1  0
 25 26  2  0
 27 30  1  0
 27 26  1  0
 28 27  2  0
 29 28  1  0
 29 24  2  0
 30 31  1  0
 31 32  1  0
 32 33  2  0
 34 33  1  0
 34 38  1  0
 35 34  2  0
 36 31  2  0
 36 35  1  0
 37 36  1  0
 39 40  1  0
 40 43  1  0
 40 42  1  0
 41 39  2  0
 44 45  1  0
 44 19  1  0
 46 44  1  0
 47 48  1  0
 50 49  1  0
 50 52  1  0
 51 50  2  0
 53 52  1  0
 54 65  2  0
 55 53  1  0
 55 60  1  0
 56 64  1  0
 56 66  1  0
 57 63  1  0
 57 59  1  0
 58 64  1  0
 59 58  1  0
 60 59  2  0
 61 62  1  0
 61 55  2  0
 62 57  2  0
 63 56  1  0
 64 54  1  0
 66 68  2  0
 67 66  1  0
 69 67  1  0
 70 79  2  0
 70 75  1  0
 71 67  1  0
 71 75  1  0
 72 71  1  0
 73 74  1  0
 73 72  1  0
 74 70  1  0
 75 76  2  0
 76 77  1  0
 78 77  2  0
 79 78  1  0
 80 54  1  0
 80 81  1  0
 80 90  1  0
 81 84  1  0
 82 86  1  0
 82 81  1  0
 83 82  2  0
 86 85  1  0
 88 86  1  0
 88 89  1  0
 88 87  1  0
 90 93  1  1
 90 91  1  0
 92 90  1  0
M  ISO  4   9 100  17 100  52 101  53 101
M  END
>  <TORSDO>  (96) 
F 21

>  <SCORE>  (96) 
-13.571

>  <name>  (96) 
95

>  <ligand_id>  (96) 
95

>  <original_smiles>  (96) 
[H]C(=C([H])C([H])([H])C(=O)C([H])([H])Oc1c([H])c([H])c2c(c1[H])C([H])([H])N(C(=O)C([H])(N([H])C(=O)C([H])(N([H])C([H])([H])[H])C([H])([H])[H])C(C([H])([H])[H])(C([H])([H])[H])C([H])([H])[H])C([H])(C(=O)N([H])C1([H])c3c([H])c([H])c([H])c([H])c3C([H])([H])C([H])([H])C1([H])[H])C2([H])[H])c1c(C([H])([H])C([H])([H])[H])nc([H])c(N([H])C(=O)N2C([H])([H])C([H])([H])C([H])([H])C([H])(n3nc(-c4c([H])c([H])c(Oc5c([H])c([H])c(F)c([H])c5F)c([H])c4[H])c(C(=O)N([H])[H])c3N([H])[H])C2([H])[H])c1[H]

>  <smiles>  (96) 
[H]C(=C([H])C([H])([H])C(=O)C([H])([H])Oc1c([H])c([H])c2c(c1[H])C([H])([H])N(C(=O)C([H])(N([H])C(=O)C([H])(N([H])C([H])([H])[H])C([H])([H])[H])C(C([H])([H])[H])(C([H])([H])[H])C([H])([H])[H])C([H])(C(=O)N([H])C1([H])c3c([H])c([H])c([H])c([H])c3C([H])([H])C([H])([H])C1([H])[H])C2([H])[H])c1c(C([H])([H])C([H])([H])[H])nc([H])c(N([H])C(=O)N2C([H])([H])C([H])([H])C([H])([H])C([H])(n3nc(-c4c([H])c([H])c(Oc5c([H])c([H])c(F)c([H])c5F)c([H])c4[H])c(C(=O)N([H])[H])c3N([H])[H])C2([H])[H])c1[H]

$$$$
