0:0:0
     RDKit          3D

 94102  0  0  1  0  0  0  0  0999 V2000
  -29.1060  -18.4380   20.5240 C   0  0  0  0  0  3  0  0  0  0  0  0
  -31.0470  -17.6110   21.7080 C   0  0  0  0  0  3  0  0  0  0  0  0
  -29.4460  -19.8260   20.8050 C   0  0  0  0  0  0  0  0  0  0  0  0
  -30.6000  -20.0430   21.6190 C   0  0  0  0  0  0  0  0  0  0  0  0
  -29.8980  -17.2990   20.9530 C   0  0  0  0  0  0  0  0  0  0  0  0
  -31.3830  -18.9370   22.0370 C   0  0  0  0  0  0  0  0  0  0  0  0
  -32.4760  -19.1410   22.8140 F   0  0  0  0  0  0  0  0  0  0  0  0
  -30.3230  -14.7920   20.3750 C   0  0  0  0  0  0  0  0  0  0  0  0
  -30.1360  -12.5860   19.2240 C   0  0  0  0  0  2  0  0  0  0  0  0
  -29.1370  -12.6850   18.0510 C   0  0  0  0  0  2  0  0  0  0  0  0
  -27.7010  -12.4250   18.5420 C   0  0  0  0  0  2  0  0  0  0  0  0
  -27.3500  -13.2390   19.8160 C   0  0  0  0  0  3  0  0  0  0  0  0
  -28.4620  -13.1390   20.8830 C   0  0  0  0  0  2  0  0  0  0  0  0
  -29.7170  -13.5650   20.2510 N   0  0  0  0  0  0  0  0  0  0  0  0
  -31.4820  -14.9440   19.9790 O   0  0  0  0  0  0  0  0  0  0  0  0
  -29.5360  -15.8800   20.7190 N   0  0  0  0  0  0  0  0  0  0  0  0
  -28.5580  -15.6580   20.8360 H   0  0  0  0  0  0  0  0  0  0  0  0
  -24.9680  -13.6890   20.6560 C   0  0  0  0  0  0  0  0  0  0  0  0
  -23.9590  -12.8520   21.0450 C   0  0  0  0  0  0  0  0  0  0  0  0
  -24.4850  -11.5280   20.9500 C   0  0  0  0  0  0  0  0  0  0  0  0
  -26.0430  -12.8710   20.3500 N   0  0  0  0  0  0  0  0  0  0  0  0
  -25.7620  -11.5640   20.5890 N   0  0  0  0  0  0  0  0  0  0  0  0
  -23.8310  -10.2250   21.1240 C   0  0  0  0  0  0  0  0  0  0  0  0
  -24.3150   -9.2740   22.0490 C   0  0  0  0  0  3  0  0  0  0  0  0
  -23.6580   -8.0350   22.2140 C   0  0  0  0  0  3  0  0  0  0  0  0
  -22.5020   -7.7390   21.4520 C   0  0  0  0  0  0  0  0  0  0  0  0
  -22.0370   -8.6800   20.5180 C   0  0  0  0  0  3  0  0  0  0  0  0
  -22.6960   -9.9090   20.3510 C   0  0  0  0  0  3  0  0  0  0  0  0
  -21.8130   -6.5520   21.5260 O   0  0  0  0  0  0  0  0  0  0  0  0
  -21.7430   -5.8320   22.6910 C   0  0  0  0  0  0  0  0  0  0  0  0
  -21.1660   -6.3650   23.8640 C   0  0  0  0  0  3  0  0  0  0  0  0
  -21.0520   -5.5660   25.0190 C   0  0  0  0  0  3  0  0  0  0  0  0
  -21.5060   -4.2330   25.0010 C   0  0  0  0  0  0  0  0  0  0  0  0
  -22.0770   -3.6990   23.8340 C   0  0  0  0  0  3  0  0  0  0  0  0
  -22.1930   -4.4950   22.6810 C   0  0  0  0  0  0  0  0  0  0  0  0
  -22.7240   -3.9690   21.5510 F   0  0  0  0  0  0  0  0  0  0  0  0
  -21.3890   -3.4620   26.1080 F   0  0  0  0  0  0  0  0  0  0  0  0
  -22.5520  -13.2480   21.3880 C   0  0  0  0  0  0  0  0  0  0  0  0
  -21.9050  -12.5010   22.2740 N   0  0  0  0  0  0  0  0  0  0  0  0
  -22.0370  -14.2570   20.9060 O   0  0  0  0  0  0  0  0  0  0  0  0
  -22.3380  -11.6850   22.6810 H   0  0  0  0  0  0  0  0  0  0  0  0
  -20.9650  -12.7480   22.5490 H   0  0  0  0  0  0  0  0  0  0  0  0
  -25.0560  -15.0720   20.5160 N   0  0  0  0  0  0  0  0  0  0  0  0
  -24.2570  -15.6770   20.6740 H   0  0  0  0  0  0  0  0  0  0  0  0
  -25.8500  -15.5620   20.1270 H   0  0  0  0  0  0  0  0  0  0  0  0
  -28.4990  -20.9990   20.4140 C   0  0  0  0  0  0  0  0  0  0  0  0
  -27.2820  -20.8660   20.5620 O   0  0  0  0  0  0  0  0  0  0  0  0
  -28.9760  -22.3640   19.7500 C   0  0  0  0  0  2  0  0  0  0  0  0
  -28.7390  -23.7940   20.4650 C   0  0  0  0  0  3  0  0  0  0  0  0
  -28.0980  -24.9980   19.6160 C   0  0  0  0  0  3  0  0  0  0  0  0
  -28.2280  -26.4350   20.0280 O   0  0  0  0  0  0  0  0  0  0  0  0
  -24.5780  -31.8270   23.1870 C   0  0  0  0  0  0  0  0  0  0  0  0
  -27.1240  -27.3180   19.9690 C   0  0  0  0  0  0  0  0  0  0  0  0
  -23.3490  -30.4740   21.5290 C   0  0  0  0  0  3  0  0  0  0  0  0
  -24.7740  -28.9680   20.0290 C   0  0  0  0  0  0  0  0  0  0  0  0
  -25.8870  -30.7850   21.3200 C   0  0  0  0  0  2  0  0  0  0  0  0
  -25.9520  -29.4240   20.6330 C   0  0  0  0  0  0  0  0  0  0  0  0
  -27.1270  -28.6080   20.5990 C   0  0  0  0  0  3  0  0  0  0  0  0
  -25.9290  -26.9490   19.3070 C   0  0  0  0  0  3  0  0  0  0  0  0
  -24.7670  -27.7400   19.3530 C   0  0  0  0  0  3  0  0  0  0  0  0
  -23.5390  -29.8450   20.1250 C   0  0  0  0  0  2  0  0  0  0  0  0
  -24.6230  -31.0460   22.0690 N   0  0  0  0  0  0  0  0  0  0  0  0
  -23.5030  -32.0920   23.7450 O   0  0  0  0  0  0  0  0  0  0  0  0
  -22.7000  -29.4300   22.4700 C   0  0  0  0  0  0  0  0  0  0  0  0
  -21.3750  -29.2430   22.3470 N   0  0  0  0  0  0  0  0  0  0  0  0
  -23.3870  -28.7940   23.2720 O   0  0  0  0  0  0  0  0  0  0  0  0
  -20.8780  -29.8120   21.6760 H   0  0  0  0  0  0  0  0  0  0  0  0
  -18.0100  -28.0080   22.8440 C   0  0  0  0  0  0  0  0  0  0  0  0
  -20.5680  -28.2830   23.1040 C   0  0  0  0  0  3  0  0  0  0  0  0
  -20.6790  -26.8640   22.4980 C   0  0  0  0  0  2  0  0  0  0  0  0
  -19.5730  -26.5530   21.4850 C   0  0  0  0  0  2  0  0  0  0  0  0
  -18.1930  -26.6740   22.1400 C   0  0  0  0  0  2  0  0  0  0  0  0
  -19.1250  -28.7710   23.2820 C   0  0  0  0  0  0  0  0  0  0  0  0
  -18.8990  -30.0180   23.9020 C   0  0  0  0  0  3  0  0  0  0  0  0
  -17.5910  -30.5040   24.0870 C   0  0  0  0  0  3  0  0  0  0  0  0
  -16.4910  -29.7390   23.6630 C   0  0  0  0  0  3  0  0  0  0  0  0
  -16.7010  -28.4920   23.0490 C   0  0  0  0  0  3  0  0  0  0  0  0
  -25.8720  -32.4430   23.8040 C   0  0  0  0  0  3  0  0  0  0  0  0
  -25.5800  -33.8450   24.1360 N   0  0  0  0  0  0  0  0  0  0  0  0
  -25.9220  -34.8940   23.3750 C   0  0  0  0  0  0  0  0  0  0  0  0
  -26.5850  -34.7820   22.3410 O   0  0  0  0  0  0  0  0  0  0  0  0
  -24.9910  -34.0070   24.9390 H   0  0  0  0  0  0  0  0  0  0  0  0
  -24.2240  -36.7180   23.0220 C   0  0  0  0  0  1  0  0  0  0  0  0
  -25.4560  -36.2890   23.8350 C   0  0  0  0  0  3  0  0  0  0  0  0
  -27.5940  -37.1460   24.6860 C   0  0  0  0  0  1  0  0  0  0  0  0
  -26.5060  -37.3260   23.7300 N   0  0  0  0  0  0  0  0  0  0  0  0
  -26.1130  -38.2520   23.8680 H   0  0  0  0  0  0  0  0  0  0  0  0
  -26.3800  -31.6660   25.0800 C   0  0  1  0  0  0  0  0  0  0  0  0
  -25.2850  -31.4390   26.1490 C   0  0  0  0  0  1  0  0  0  0  0  0
  -26.9510  -30.2830   24.6900 C   0  0  0  0  0  1  0  0  0  0  0  0
  -27.5410  -32.4490   25.7410 C   0  0  0  0  0  1  0  0  0  0  0  0
  -31.0000  -21.4240   22.1500 C   0  0  0  0  0  2  0  0  0  0  0  0
  -30.1680  -23.4950   23.4240 C   0  0  0  0  0  1  0  0  0  0  0  0
  -29.9840  -21.9950   23.1590 C   0  0  0  0  0  2  0  0  0  0  0  0
  1  3  2  0
  1  5  1  0
  2  6  1  0
  3  4  1  0
  4  6  2  0
  4 92  1  0
  5  2  2  0
  6  7  1  0
  8 16  1  0
  9 14  1  0
 10 11  1  0
 10  9  1  0
 12 11  1  0
 12 21  1  0
 12 13  1  0
 14  8  1  0
 14 13  1  0
 15  8  2  0
 16 17  1  0
 16  5  1  0
 18 19  2  0
 19 38  1  0
 20 19  1  0
 20 23  1  0
 21 22  1  0
 21 18  1  0
 22 20  2  0
 23 24  1  0
 24 25  2  0
 26 29  1  0
 26 25  1  0
 27 26  2  0
 28 27  1  0
 28 23  2  0
 29 30  1  0
 30 31  1  0
 31 32  2  0
 33 32  1  0
 33 37  1  0
 34 33  2  0
 35 30  2  0
 35 34  1  0
 36 35  1  0
 38 39  1  0
 39 42  1  0
 39 41  1  0
 40 38  2  0
 43 18  1  0
 43 44  1  0
 45 43  1  0
 46 47  2  0
 46  3  1  0
 48 46  1  0
 48 49  1  0
 50 51  1  0
 50 49  2  0
 52 63  2  0
 53 51  1  0
 53 58  1  0
 54 62  1  0
 54 64  1  0
 55 61  1  0
 55 57  1  0
 56 62  1  0
 57 56  1  0
 58 57  2  0
 59 60  1  0
 59 53  2  0
 60 55  2  0
 61 54  1  0
 62 52  1  0
 64 66  2  0
 65 64  1  0
 67 65  1  0
 68 77  2  0
 68 73  1  0
 69 65  1  0
 69 73  1  0
 70 69  1  0
 71 72  1  0
 71 70  1  0
 72 68  1  0
 73 74  2  0
 74 75  1  0
 76 75  2  0
 77 76  1  0
 78 52  1  0
 78 79  1  0
 78 88  1  0
 79 82  1  0
 80 84  1  0
 80 79  1  0
 81 80  2  0
 84 83  1  0
 86 84  1  0
 86 87  1  0
 86 85  1  0
 88 91  1  1
 88 89  1  0
 90 88  1  0
 92 94  1  0
 94 93  1  0
M  ISO  4   8 100  16 100  50 101  51 101
M  END
>  <TORSDO>  (1) 
F 22

>  <SCORE>  (1) 
-12.860

>  <name>  (1) 
0

>  <ligand_id>  (1) 
0

>  <original_smiles>  (1) 
[H]c1c([H])c([H])c2c(c1[H])C([H])([H])C([H])([H])C([H])([H])C2([H])N([H])C(=O)C1([H])N(C(=O)C([H])(N([H])C(=O)C([H])(N([H])C([H])([H])[H])C([H])([H])[H])C(C([H])([H])[H])(C([H])([H])[H])C([H])([H])[H])C([H])([H])c2c([H])c(OC([H])([H])C([H])([H])C([H])([H])C(=O)c3c([H])c(N([H])C(=O)N4C([H])([H])C([H])([H])C([H])([H])C([H])(n5nc(-c6c([H])c([H])c(Oc7c([H])c([H])c(F)c([H])c7F)c([H])c6[H])c(C(=O)N([H])[H])c5N([H])[H])C4([H])[H])c([H])c(F)c3C([H])([H])C([H])([H])C([H])([H])[H])c([H])c([H])c2C1([H])[H]

>  <smiles>  (1) 
[H]c1c([H])c([H])c2c(c1[H])C([H])([H])C([H])([H])C([H])([H])C2([H])N([H])C(=O)C1([H])N(C(=O)C([H])(N([H])C(=O)C([H])(N([H])C([H])([H])[H])C([H])([H])[H])C(C([H])([H])[H])(C([H])([H])[H])C([H])([H])[H])C([H])([H])c2c([H])c(OC([H])([H])C([H])([H])C([H])([H])C(=O)c3c([H])c(N([H])C(=O)N4C([H])([H])C([H])([H])C([H])([H])C([H])(n5nc(-c6c([H])c([H])c(Oc7c([H])c([H])c(F)c([H])c7F)c([H])c6[H])c(C(=O)N([H])[H])c5N([H])[H])C4([H])[H])c([H])c(F)c3C([H])([H])C([H])([H])C([H])([H])[H])c([H])c([H])c2C1([H])[H]

$$$$
1:0:0
     RDKit          3D

 92100  0  0  1  0  0  0  0  0999 V2000
  -30.9020  -20.0770   21.3150 C   0  0  0  0  0  3  0  0  0  0  0  0
  -31.3110  -17.6600   21.4360 C   0  0  0  0  0  3  0  0  0  0  0  0
  -29.7200  -19.9100   20.5630 C   0  0  0  0  0  0  0  0  0  0  0  0
  -29.3370  -18.5210   20.2900 C   0  0  0  0  0  0  0  0  0  0  0  0
  -30.1350  -17.3660   20.7130 C   0  0  0  0  0  0  0  0  0  0  0  0
  -31.6830  -18.9840   21.7340 C   0  0  0  0  0  0  0  0  0  0  0  0
  -28.0600  -18.2610   19.5100 C   0  0  0  0  0  1  0  0  0  0  0  0
  -32.8180  -19.2120   22.4400 F   0  0  0  0  0  0  0  0  0  0  0  0
  -30.5540  -14.7930   20.3770 C   0  0  0  0  0  0  0  0  0  0  0  0
  -30.3450  -12.5210   19.3510 C   0  0  0  0  0  2  0  0  0  0  0  0
  -29.4000  -12.5890   18.1320 C   0  0  0  0  0  2  0  0  0  0  0  0
  -27.9320  -12.4130   18.5700 C   0  0  0  0  0  2  0  0  0  0  0  0
  -27.5600  -13.3040   19.7860 C   0  0  0  0  0  3  0  0  0  0  0  0
  -28.6250  -13.2240   20.9010 C   0  0  0  0  0  2  0  0  0  0  0  0
  -29.9150  -13.5750   20.2970 N   0  0  0  0  0  0  0  0  0  0  0  0
  -31.7510  -14.8730   20.0890 O   0  0  0  0  0  0  0  0  0  0  0  0
  -29.7700  -15.9340   20.5110 N   0  0  0  0  0  0  0  0  0  0  0  0
  -28.7810  -15.7460   20.4930 H   0  0  0  0  0  0  0  0  0  0  0  0
  -25.1730  -13.8920   20.5160 C   0  0  0  0  0  0  0  0  0  0  0  0
  -24.1100  -13.1160   20.8900 C   0  0  0  0  0  0  0  0  0  0  0  0
  -24.5770  -11.7670   20.8630 C   0  0  0  0  0  0  0  0  0  0  0  0
  -26.2200  -13.0150   20.2810 N   0  0  0  0  0  0  0  0  0  0  0  0
  -25.8680  -11.7320   20.5550 N   0  0  0  0  0  0  0  0  0  0  0  0
  -23.8540  -10.5030   21.0560 C   0  0  0  0  0  0  0  0  0  0  0  0
  -24.2970   -9.5310   21.9790 C   0  0  0  0  0  3  0  0  0  0  0  0
  -23.5740   -8.3330   22.1600 C   0  0  0  0  0  3  0  0  0  0  0  0
  -22.3920   -8.0980   21.4180 C   0  0  0  0  0  0  0  0  0  0  0  0
  -21.9680   -9.0590   20.4840 C   0  0  0  0  0  3  0  0  0  0  0  0
  -22.6920  -10.2490   20.3010 C   0  0  0  0  0  3  0  0  0  0  0  0
  -21.6380   -6.9530   21.5090 O   0  0  0  0  0  0  0  0  0  0  0  0
  -21.6150   -6.1960   22.6530 C   0  0  0  0  0  0  0  0  0  0  0  0
  -21.2310   -6.7400   23.8980 C   0  0  0  0  0  3  0  0  0  0  0  0
  -21.1530   -5.9110   25.0350 C   0  0  0  0  0  3  0  0  0  0  0  0
  -21.4500   -4.5390   24.9280 C   0  0  0  0  0  0  0  0  0  0  0  0
  -21.8290   -3.9950   23.6880 C   0  0  0  0  0  3  0  0  0  0  0  0
  -21.9080   -4.8220   22.5530 C   0  0  0  0  0  0  0  0  0  0  0  0
  -22.2530   -4.2880   21.3570 F   0  0  0  0  0  0  0  0  0  0  0  0
  -21.3690   -3.7400   26.0180 F   0  0  0  0  0  0  0  0  0  0  0  0
  -22.7110  -13.5910   21.1580 C   0  0  0  0  0  0  0  0  0  0  0  0
  -21.9850  -12.8950   22.0260 N   0  0  0  0  0  0  0  0  0  0  0  0
  -22.2720  -14.6140   20.6330 O   0  0  0  0  0  0  0  0  0  0  0  0
  -22.3550  -12.0670   22.4710 H   0  0  0  0  0  0  0  0  0  0  0  0
  -21.0460  -13.1940   22.2490 H   0  0  0  0  0  0  0  0  0  0  0  0
  -25.3300  -15.2630   20.3290 N   0  0  0  0  0  0  0  0  0  0  0  0
  -24.5510  -15.9050   20.4260 H   0  0  0  0  0  0  0  0  0  0  0  0
  -26.1530  -15.6980   19.9420 H   0  0  0  0  0  0  0  0  0  0  0  0
  -28.9970  -21.2090   20.1050 C   0  0  0  0  0  3  0  0  0  0  0  0
  -29.1020  -22.5140   20.5810 C   0  0  0  0  0  3  0  0  0  0  0  0
  -28.4650  -23.7940   19.9890 C   0  0  0  0  0  0  0  0  0  0  0  0
  -28.1010  -23.8180   18.8090 O   0  0  0  0  0  0  0  0  0  0  0  0
  -28.2280  -25.1220   20.8550 C   0  0  0  0  0  2  0  0  0  0  0  0
  -28.3410  -26.4690   20.2000 O   0  0  0  0  0  0  0  0  0  0  0  0
  -24.6130  -31.9290   23.2380 C   0  0  0  0  0  0  0  0  0  0  0  0
  -27.2270  -27.3300   20.2170 C   0  0  0  0  0  0  0  0  0  0  0  0
  -23.4110  -30.5180   21.6060 C   0  0  0  0  0  3  0  0  0  0  0  0
  -24.8630  -28.9530   20.1920 C   0  0  0  0  0  0  0  0  0  0  0  0
  -25.9520  -30.8350   21.4180 C   0  0  0  0  0  2  0  0  0  0  0  0
  -26.0350  -29.4480   20.7820 C   0  0  0  0  0  0  0  0  0  0  0  0
  -27.2240  -28.6510   20.7760 C   0  0  0  0  0  3  0  0  0  0  0  0
  -26.0330  -26.8870   19.6140 C   0  0  0  0  0  3  0  0  0  0  0  0
  -24.8670  -27.6800   19.5970 C   0  0  0  0  0  3  0  0  0  0  0  0
  -23.6270  -29.8310   20.2320 C   0  0  0  0  0  2  0  0  0  0  0  0
  -24.6780  -31.1130   22.1430 N   0  0  0  0  0  0  0  0  0  0  0  0
  -23.5290  -32.2070   23.7720 O   0  0  0  0  0  0  0  0  0  0  0  0
  -22.7490  -29.5080   22.5740 C   0  0  0  0  0  0  0  0  0  0  0  0
  -21.4240  -29.3290   22.4480 N   0  0  0  0  0  0  0  0  0  0  0  0
  -23.4280  -28.8910   23.3980 O   0  0  0  0  0  0  0  0  0  0  0  0
  -20.9350  -29.8780   21.7560 H   0  0  0  0  0  0  0  0  0  0  0  0
  -18.0490  -28.1160   22.9450 C   0  0  0  0  0  0  0  0  0  0  0  0
  -20.6060  -28.3930   23.2230 C   0  0  0  0  0  3  0  0  0  0  0  0
  -20.7190  -26.9570   22.6620 C   0  0  0  0  0  2  0  0  0  0  0  0
  -19.6240  -26.6180   21.6460 C   0  0  0  0  0  2  0  0  0  0  0  0
  -18.2370  -26.7610   22.2820 C   0  0  0  0  0  2  0  0  0  0  0  0
  -19.1620  -28.8890   23.3710 C   0  0  0  0  0  0  0  0  0  0  0  0
  -18.9340  -30.1540   23.9520 C   0  0  0  0  0  3  0  0  0  0  0  0
  -17.6250  -30.6500   24.1090 C   0  0  0  0  0  3  0  0  0  0  0  0
  -16.5270  -29.8740   23.6970 C   0  0  0  0  0  3  0  0  0  0  0  0
  -16.7400  -28.6090   23.1210 C   0  0  0  0  0  3  0  0  0  0  0  0
  -25.8950  -32.5670   23.8570 C   0  0  0  0  0  3  0  0  0  0  0  0
  -26.4150  -31.8010   25.1350 C   0  0  1  0  0  0  0  0  0  0  0  0
  -25.3260  -31.5670   26.2060 C   0  0  0  0  0  1  0  0  0  0  0  0
  -26.9990  -30.4230   24.7470 C   0  0  0  0  0  1  0  0  0  0  0  0
  -27.5660  -32.5990   25.7910 C   0  0  0  0  0  1  0  0  0  0  0  0
  -25.5820  -33.9650   24.1860 N   0  0  0  0  0  0  0  0  0  0  0  0
  -25.9100  -35.0200   23.4270 C   0  0  0  0  0  0  0  0  0  0  0  0
  -26.5770  -34.9180   22.3940 O   0  0  0  0  0  0  0  0  0  0  0  0
  -24.9880  -34.1180   24.9880 H   0  0  0  0  0  0  0  0  0  0  0  0
  -24.1750  -36.8090   23.0790 C   0  0  0  0  0  1  0  0  0  0  0  0
  -25.4210  -36.4080   23.8860 C   0  0  0  0  0  3  0  0  0  0  0  0
  -27.5570  -37.2970   24.7060 C   0  0  0  0  0  1  0  0  0  0  0  0
  -26.4500  -37.4640   23.7680 N   0  0  0  0  0  0  0  0  0  0  0  0
  -26.0430  -38.3820   23.9190 H   0  0  0  0  0  0  0  0  0  0  0  0
  1  6  1  0
  2  6  2  0
  3  1  2  0
  4  3  1  0
  4  5  2  0
  5  2  1  0
  6  8  1  0
  7  4  1  0
  9 17  1  0
 10 15  1  0
 11 12  1  0
 11 10  1  0
 13 12  1  0
 13 22  1  0
 13 14  1  0
 15  9  1  0
 15 14  1  0
 16  9  2  0
 17  5  1  0
 18 17  1  0
 19 20  2  0
 20 39  1  0
 21 20  1  0
 21 24  1  0
 22 19  1  0
 22 23  1  0
 23 21  2  0
 24 25  1  0
 25 26  2  0
 27 30  1  0
 27 26  1  0
 28 27  2  0
 29 28  1  0
 29 24  2  0
 30 31  1  0
 31 32  1  0
 32 33  2  0
 34 33  1  0
 34 38  1  0
 35 34  2  0
 36 31  2  0
 36 35  1  0
 37 36  1  0
 39 40  1  0
 40 43  1  0
 40 42  1  0
 41 39  2  0
 44 45  1  0
 44 19  1  0
 46 44  1  0
 47  3  1  0
 47 48  2  0
 49 48  1  0
 49 51  1  0
 50 49  2  0
 52 54  1  0
 52 51  1  0
 53 64  2  0
 54 59  1  0
 55 63  1  0
 55 65  1  0
 56 62  1  0
 56 58  1  0
 57 63  1  0
 58 57  1  0
 59 58  2  0
 60 54  2  0
 61 60  1  0
 61 56  2  0
 62 55  1  0
 63 53  1  0
 65 67  2  0
 66 65  1  0
 68 66  1  0
 69 78  2  0
 69 74  1  0
 70 66  1  0
 70 74  1  0
 71 70  1  0
 72 73  1  0
 72 71  1  0
 73 69  1  0
 74 75  2  0
 75 76  1  0
 77 76  2  0
 78 77  1  0
 79 53  1  0
 79 84  1  0
 79 80  1  0
 80 83  1  1
 80 81  1  0
 82 80  1  0
 84 87  1  0
 85 89  1  0
 85 84  1  0
 86 85  2  0
 89 88  1  0
 91 89  1  0
 91 92  1  0
 91 90  1  0
M  ISO  4   9 100  17 100  51 101  52 101
M  END
>  <TORSDO>  (2) 
F 19

>  <SCORE>  (2) 
-14.576

>  <name>  (2) 
1

>  <ligand_id>  (2) 
1

>  <original_smiles>  (2) 
[H]C(C(=O)C([H])([H])Oc1c([H])c([H])c2c(c1[H])C([H])([H])N(C(=O)C([H])(N([H])C(=O)C([H])(N([H])C([H])([H])[H])C([H])([H])[H])C(C([H])([H])[H])(C([H])([H])[H])C([H])([H])[H])C([H])(C(=O)N([H])C1([H])c3c([H])c([H])c([H])c([H])c3C([H])([H])C([H])([H])C1([H])[H])C2([H])[H])=C([H])c1c([H])c(F)c([H])c(N([H])C(=O)N2C([H])([H])C([H])([H])C([H])([H])C([H])(n3nc(-c4c([H])c([H])c(Oc5c([H])c([H])c(F)c([H])c5F)c([H])c4[H])c(C(=O)N([H])[H])c3N([H])[H])C2([H])[H])c1C([H])([H])[H]

>  <smiles>  (2) 
[H]C(C(=O)C([H])([H])Oc1c([H])c([H])c2c(c1[H])C([H])([H])N(C(=O)C([H])(N([H])C(=O)C([H])(N([H])C([H])([H])[H])C([H])([H])[H])C(C([H])([H])[H])(C([H])([H])[H])C([H])([H])[H])C([H])(C(=O)N([H])C1([H])c3c([H])c([H])c([H])c([H])c3C([H])([H])C([H])([H])C1([H])[H])C2([H])[H])=C([H])c1c([H])c(F)c([H])c(N([H])C(=O)N2C([H])([H])C([H])([H])C([H])([H])C([H])(n3nc(-c4c([H])c([H])c(Oc5c([H])c([H])c(F)c([H])c5F)c([H])c4[H])c(C(=O)N([H])[H])c3N([H])[H])C2([H])[H])c1C([H])([H])[H]

$$$$
2:0:0
     RDKit          3D

 92100  0  0  1  0  0  0  0  0999 V2000
  -31.5530  -20.4350   19.0070 C   0  0  0  0  0  3  0  0  0  0  0  0
  -31.5060  -19.0500   18.8270 C   0  0  0  0  0  3  0  0  0  0  0  0
  -30.1720  -20.2060   20.9920 C   0  0  0  0  0  3  0  0  0  0  0  0
  -30.9010  -21.0240   20.0980 C   0  0  0  0  0  0  0  0  0  0  0  0
  -30.8360  -18.2090   19.7430 C   0  0  0  0  0  0  0  0  0  0  0  0
  -30.1520  -18.7970   20.8410 C   0  0  0  0  0  0  0  0  0  0  0  0
  -30.9620  -22.4830   20.1880 C   0  0  0  0  0  3  0  0  0  0  0  0
  -30.0690  -23.2710   20.8070 C   0  0  0  0  0  3  0  0  0  0  0  0
  -30.2270  -24.7280   20.7800 C   0  0  0  0  0  0  0  0  0  0  0  0
  -31.3120  -25.2930   20.5940 O   0  0  0  0  0  0  0  0  0  0  0  0
  -28.9550  -25.5450   20.9750 C   0  0  0  0  0  2  0  0  0  0  0  0
  -29.0660  -26.7990   20.3080 O   0  0  0  0  0  0  0  0  0  0  0  0
  -24.7670  -31.6490   23.1450 C   0  0  0  0  0  0  0  0  0  0  0  0
  -27.8600  -27.4390   20.2180 C   0  0  0  0  0  0  0  0  0  0  0  0
  -23.7470  -30.1840   21.4290 C   0  0  0  0  0  3  0  0  0  0  0  0
  -25.3770  -28.7560   20.0880 C   0  0  0  0  0  0  0  0  0  0  0  0
  -26.2460  -30.7170   21.3750 C   0  0  0  0  0  2  0  0  0  0  0  0
  -26.4580  -29.3620   20.7390 C   0  0  0  0  0  0  0  0  0  0  0  0
  -27.7080  -28.7120   20.7980 C   0  0  0  0  0  3  0  0  0  0  0  0
  -26.7670  -26.8350   19.5600 C   0  0  0  0  0  3  0  0  0  0  0  0
  -25.5240  -27.4910   19.4940 C   0  0  0  0  0  3  0  0  0  0  0  0
  -24.0780  -29.5270   20.0630 C   0  0  0  0  0  2  0  0  0  0  0  0
  -24.9340  -30.8640   22.0440 N   0  0  0  0  0  0  0  0  0  0  0  0
  -23.6410  -31.8480   23.6230 O   0  0  0  0  0  0  0  0  0  0  0  0
  -23.1110  -29.1160   22.3460 C   0  0  0  0  0  0  0  0  0  0  0  0
  -21.8070  -28.8620   22.1480 N   0  0  0  0  0  0  0  0  0  0  0  0
  -23.7870  -28.5190   23.1870 O   0  0  0  0  0  0  0  0  0  0  0  0
  -21.3210  -29.4020   21.4470 H   0  0  0  0  0  0  0  0  0  0  0  0
  -18.4670  -27.5350   22.5100 C   0  0  0  0  0  0  0  0  0  0  0  0
  -21.0050  -27.8710   22.8660 C   0  0  0  0  0  3  0  0  0  0  0  0
  -21.1740  -26.4630   22.2510 C   0  0  0  0  0  2  0  0  0  0  0  0
  -20.1150  -26.1340   21.1940 C   0  0  0  0  0  2  0  0  0  0  0  0
  -18.7100  -26.2130   21.8000 C   0  0  0  0  0  2  0  0  0  0  0  0
  -19.5460  -28.3210   22.9960 C   0  0  0  0  0  0  0  0  0  0  0  0
  -19.2660  -29.5570   23.6160 C   0  0  0  0  0  3  0  0  0  0  0  0
  -17.9410  -30.0110   23.7550 C   0  0  0  0  0  3  0  0  0  0  0  0
  -16.8770  -29.2210   23.2870 C   0  0  0  0  0  3  0  0  0  0  0  0
  -17.1400  -27.9850   22.6700 C   0  0  0  0  0  3  0  0  0  0  0  0
  -25.9730  -32.3530   23.8410 C   0  0  0  0  0  3  0  0  0  0  0  0
  -25.5610  -33.7270   24.1520 N   0  0  0  0  0  0  0  0  0  0  0  0
  -25.8440  -34.7950   23.3920 C   0  0  0  0  0  0  0  0  0  0  0  0
  -26.5490  -34.7300   22.3810 O   0  0  0  0  0  0  0  0  0  0  0  0
  -24.9290  -33.8450   24.9290 H   0  0  0  0  0  0  0  0  0  0  0  0
  -23.9860  -36.4420   22.9970 C   0  0  0  0  0  1  0  0  0  0  0  0
  -25.2480  -36.1480   23.8220 C   0  0  0  0  0  3  0  0  0  0  0  0
  -27.3000  -37.2090   24.6560 C   0  0  0  0  0  1  0  0  0  0  0  0
  -26.1970  -37.2770   23.7000 N   0  0  0  0  0  0  0  0  0  0  0  0
  -25.7180  -38.1640   23.8330 H   0  0  0  0  0  0  0  0  0  0  0  0
  -26.4630  -31.6070   25.1440 C   0  0  1  0  0  0  0  0  0  0  0  0
  -25.3250  -31.2870   26.1410 C   0  0  0  0  0  1  0  0  0  0  0  0
  -27.1620  -30.2760   24.7790 C   0  0  0  0  0  1  0  0  0  0  0  0
  -27.5150  -32.4720   25.8790 C   0  0  0  0  0  1  0  0  0  0  0  0
  -30.9900  -16.7780   19.4300 C   0  0  0  0  0  3  0  0  0  0  0  0
  -30.4500  -15.6300   19.9100 C   0  0  0  0  0  3  0  0  0  0  0  0
  -30.9870  -14.4020   19.3270 C   0  0  0  0  0  0  0  0  0  0  0  0
  -30.3620  -12.3160   18.2230 C   0  0  0  0  0  2  0  0  0  0  0  0
  -29.2440  -12.6200   17.2080 C   0  0  0  0  0  2  0  0  0  0  0  0
  -27.8700  -12.4750   17.8880 C   0  0  0  0  0  2  0  0  0  0  0  0
  -27.7750  -13.2520   19.2290 C   0  0  0  0  0  3  0  0  0  0  0  0
  -29.0130  -13.0080   20.1200 C   0  0  0  0  0  2  0  0  0  0  0  0
  -30.2210  -13.2800   19.3290 N   0  0  0  0  0  0  0  0  0  0  0  0
  -32.0510  -14.4300   18.7060 O   0  0  0  0  0  0  0  0  0  0  0  0
  -25.5830  -13.8040   20.4550 C   0  0  0  0  0  0  0  0  0  0  0  0
  -24.5800  -13.0090   20.9410 C   0  0  0  0  0  0  0  0  0  0  0  0
  -24.9790  -11.6630   20.6780 C   0  0  0  0  0  0  0  0  0  0  0  0
  -26.5340  -12.9410   19.9330 N   0  0  0  0  0  0  0  0  0  0  0  0
  -26.1840  -11.6420   20.1220 N   0  0  0  0  0  0  0  0  0  0  0  0
  -24.2590  -10.3960   20.8700 C   0  0  0  0  0  0  0  0  0  0  0  0
  -24.7420   -9.3980   21.7440 C   0  0  0  0  0  3  0  0  0  0  0  0
  -24.0250   -8.1960   21.9260 C   0  0  0  0  0  3  0  0  0  0  0  0
  -22.8080   -7.9840   21.2330 C   0  0  0  0  0  0  0  0  0  0  0  0
  -22.3440   -8.9710   20.3460 C   0  0  0  0  0  3  0  0  0  0  0  0
  -23.0620  -10.1640   20.1620 C   0  0  0  0  0  3  0  0  0  0  0  0
  -22.0550   -6.8390   21.3280 O   0  0  0  0  0  0  0  0  0  0  0  0
  -21.9180   -6.1640   22.5150 C   0  0  0  0  0  0  0  0  0  0  0  0
  -21.3780   -6.7800   23.6660 C   0  0  0  0  0  3  0  0  0  0  0  0
  -21.1910   -6.0300   24.8430 C   0  0  0  0  0  3  0  0  0  0  0  0
  -21.5340   -4.6650   24.8720 C   0  0  0  0  0  0  0  0  0  0  0  0
  -22.0650   -4.0480   23.7250 C   0  0  0  0  0  3  0  0  0  0  0  0
  -22.2540   -4.7960   22.5500 C   0  0  0  0  0  0  0  0  0  0  0  0
  -22.7480   -4.1920   21.4430 F   0  0  0  0  0  0  0  0  0  0  0  0
  -21.3470   -3.9420   26.0000 F   0  0  0  0  0  0  0  0  0  0  0  0
  -23.2780  -13.4730   21.5270 C   0  0  0  0  0  0  0  0  0  0  0  0
  -22.7140  -12.7060   22.4530 N   0  0  0  0  0  0  0  0  0  0  0  0
  -22.7760  -14.5470   21.1990 O   0  0  0  0  0  0  0  0  0  0  0  0
  -23.1360  -11.8360   22.7410 H   0  0  0  0  0  0  0  0  0  0  0  0
  -21.8480  -12.9980   22.8850 H   0  0  0  0  0  0  0  0  0  0  0  0
  -25.7610  -15.1820   20.3940 N   0  0  0  0  0  0  0  0  0  0  0  0
  -25.0620  -15.8370   20.7260 H   0  0  0  0  0  0  0  0  0  0  0  0
  -26.5590  -15.6360   19.9680 H   0  0  0  0  0  0  0  0  0  0  0  0
  -28.1840  -17.2810   21.3740 C   0  0  0  0  0  1  0  0  0  0  0  0
  -29.4460  -17.9690   21.9060 C   0  0  0  0  0  2  0  0  0  0  0  0
  1  4  1  0
  2  1  2  0
  2  5  1  0
  4  7  1  0
  4  3  2  0
  5  6  2  0
  6  3  1  0
  6 92  1  0
  7  8  2  0
  9  8  1  0
  9 11  1  0
 10  9  2  0
 12 11  1  0
 13 24  2  0
 14 12  1  0
 14 19  1  0
 15 23  1  0
 15 25  1  0
 16 18  1  0
 17 23  1  0
 18 19  2  0
 18 17  1  0
 20 14  2  0
 21 20  1  0
 21 16  2  0
 22 16  1  0
 22 15  1  0
 23 13  1  0
 25 27  2  0
 26 25  1  0
 28 26  1  0
 29 38  2  0
 29 34  1  0
 30 26  1  0
 30 34  1  0
 31 30  1  0
 32 33  1  0
 32 31  1  0
 33 29  1  0
 34 35  2  0
 35 36  1  0
 37 36  2  0
 38 37  1  0
 39 13  1  0
 39 40  1  0
 39 49  1  0
 40 43  1  0
 41 45  1  0
 41 40  1  0
 42 41  2  0
 45 44  1  0
 47 45  1  0
 47 48  1  0
 47 46  1  0
 49 52  1  1
 49 50  1  0
 51 49  1  0
 53  5  1  0
 53 54  2  0
 55 61  1  0
 55 54  1  0
 56 61  1  0
 57 58  1  0
 57 56  1  0
 59 58  1  0
 59 66  1  0
 59 60  1  0
 61 60  1  0
 62 55  2  0
 63 64  2  0
 64 83  1  0
 65 68  1  0
 65 64  1  0
 66 67  1  0
 66 63  1  0
 67 65  2  0
 68 69  1  0
 69 70  2  0
 71 74  1  0
 71 70  1  0
 72 71  2  0
 73 72  1  0
 73 68  2  0
 74 75  1  0
 75 80  2  0
 75 76  1  0
 76 77  2  0
 77 78  1  0
 78 82  1  0
 79 78  2  0
 80 79  1  0
 81 80  1  0
 83 84  1  0
 84 86  1  0
 84 87  1  0
 85 83  2  0
 88 63  1  0
 88 89  1  0
 90 88  1  0
 91 92  1  0
M  ISO  4  11 101  12 101  54 100  55 100
M  END
>  <TORSDO>  (3) 
F 21

>  <SCORE>  (3) 
-9.651

>  <name>  (3) 
2

>  <ligand_id>  (3) 
2

>  <original_smiles>  (3) 
[H]C(C(=O)C([H])([H])Oc1c([H])c([H])c2c(c1[H])C([H])([H])N(C(=O)C([H])(N([H])C(=O)C([H])(N([H])C([H])([H])[H])C([H])([H])[H])C(C([H])([H])[H])(C([H])([H])[H])C([H])([H])[H])C([H])(C(=O)N([H])C1([H])c3c([H])c([H])c([H])c([H])c3C([H])([H])C([H])([H])C1([H])[H])C2([H])[H])=C([H])c1c([H])c([H])c(C([H])=C([H])C(=O)N2C([H])([H])C([H])([H])C([H])([H])C([H])(n3nc(-c4c([H])c([H])c(Oc5c([H])c([H])c(F)c([H])c5F)c([H])c4[H])c(C(=O)N([H])[H])c3N([H])[H])C2([H])[H])c(C([H])([H])C([H])([H])[H])c1[H]

>  <smiles>  (3) 
[H]C(C(=O)C([H])([H])Oc1c([H])c([H])c2c(c1[H])C([H])([H])N(C(=O)C([H])(N([H])C(=O)C([H])(N([H])C([H])([H])[H])C([H])([H])[H])C(C([H])([H])[H])(C([H])([H])[H])C([H])([H])[H])C([H])(C(=O)N([H])C1([H])c3c([H])c([H])c([H])c([H])c3C([H])([H])C([H])([H])C1([H])[H])C2([H])[H])=C([H])c1c([H])c([H])c(C([H])=C([H])C(=O)N2C([H])([H])C([H])([H])C([H])([H])C([H])(n3nc(-c4c([H])c([H])c(Oc5c([H])c([H])c(F)c([H])c5F)c([H])c4[H])c(C(=O)N([H])[H])c3N([H])[H])C2([H])[H])c(C([H])([H])C([H])([H])[H])c1[H]

$$$$
3:0:0
     RDKit          3D

 91 99  0  0  1  0  0  0  0  0999 V2000
  -29.1250  -19.8350   19.2970 C   0  0  0  0  0  3  0  0  0  0  0  0
  -29.8950  -19.8220   21.5090 C   0  0  0  0  0  3  0  0  0  0  0  0
  -29.6710  -19.0240   20.3490 C   0  0  0  0  0  0  0  0  0  0  0  0
  -29.1370  -22.0770   20.5270 C   0  0  0  0  0  0  0  0  0  0  0  0
  -28.8460  -21.2660   19.3670 C   0  0  0  0  0  0  0  0  0  0  0  0
  -29.6550  -21.2500   21.5940 C   0  0  0  0  0  0  0  0  0  0  0  0
  -29.9640  -21.8280   22.7790 F   0  0  0  0  0  0  0  0  0  0  0  0
  -30.1740  -17.5270   20.1500 C   0  0  0  0  0  3  0  0  0  0  0  0
  -29.9020  -16.2470   20.6760 C   0  0  0  0  0  3  0  0  0  0  0  0
  -30.6620  -14.9520   20.3240 C   0  0  0  0  0  0  0  0  0  0  0  0
  -30.4820  -12.6250   19.3730 C   0  0  0  0  0  2  0  0  0  0  0  0
  -29.5540  -12.6560   18.1380 C   0  0  0  0  0  2  0  0  0  0  0  0
  -28.0860  -12.4600   18.5610 C   0  0  0  0  0  2  0  0  0  0  0  0
  -27.6980  -13.3560   19.7670 C   0  0  0  0  0  3  0  0  0  0  0  0
  -28.7560  -13.3200   20.8900 C   0  0  0  0  0  2  0  0  0  0  0  0
  -30.0450  -13.7060   20.3020 N   0  0  0  0  0  0  0  0  0  0  0  0
  -31.8380  -14.9900   19.9450 O   0  0  0  0  0  0  0  0  0  0  0  0
  -25.3160  -13.9310   20.5080 C   0  0  0  0  0  0  0  0  0  0  0  0
  -24.2550  -13.1540   20.8810 C   0  0  0  0  0  0  0  0  0  0  0  0
  -24.7220  -11.8030   20.8480 C   0  0  0  0  0  0  0  0  0  0  0  0
  -26.3600  -13.0550   20.2640 N   0  0  0  0  0  0  0  0  0  0  0  0
  -26.0120  -11.7700   20.5340 N   0  0  0  0  0  0  0  0  0  0  0  0
  -23.9980  -10.5400   21.0410 C   0  0  0  0  0  0  0  0  0  0  0  0
  -24.4370   -9.5710   21.9690 C   0  0  0  0  0  3  0  0  0  0  0  0
  -23.7120   -8.3720   22.1500 C   0  0  0  0  0  3  0  0  0  0  0  0
  -22.5350   -8.1340   21.4020 C   0  0  0  0  0  0  0  0  0  0  0  0
  -22.1170   -9.0920   20.4610 C   0  0  0  0  0  3  0  0  0  0  0  0
  -22.8410  -10.2810   20.2780 C   0  0  0  0  0  3  0  0  0  0  0  0
  -21.7800   -6.9900   21.4920 O   0  0  0  0  0  0  0  0  0  0  0  0
  -21.7340   -6.2480   22.6460 C   0  0  0  0  0  0  0  0  0  0  0  0
  -21.2990   -6.7990   23.8710 C   0  0  0  0  0  3  0  0  0  0  0  0
  -21.2020   -5.9830   25.0140 C   0  0  0  0  0  3  0  0  0  0  0  0
  -21.5290   -4.6150   24.9340 C   0  0  0  0  0  0  0  0  0  0  0  0
  -21.9550   -4.0640   23.7140 C   0  0  0  0  0  3  0  0  0  0  0  0
  -22.0560   -4.8790   22.5720 C   0  0  0  0  0  0  0  0  0  0  0  0
  -22.4480   -4.3370   21.3930 F   0  0  0  0  0  0  0  0  0  0  0  0
  -21.4270   -3.8290   26.0310 F   0  0  0  0  0  0  0  0  0  0  0  0
  -22.8580  -13.6290   21.1580 C   0  0  0  0  0  0  0  0  0  0  0  0
  -22.1340  -12.9300   22.0250 N   0  0  0  0  0  0  0  0  0  0  0  0
  -22.4180  -14.6530   20.6370 O   0  0  0  0  0  0  0  0  0  0  0  0
  -22.5040  -12.1040   22.4710 H   0  0  0  0  0  0  0  0  0  0  0  0
  -21.1960  -13.2270   22.2500 H   0  0  0  0  0  0  0  0  0  0  0  0
  -25.4760  -15.3020   20.3300 N   0  0  0  0  0  0  0  0  0  0  0  0
  -24.7090  -15.9570   20.4420 H   0  0  0  0  0  0  0  0  0  0  0  0
  -26.3280  -15.7430   20.0040 H   0  0  0  0  0  0  0  0  0  0  0  0
  -29.0900  -23.6920   20.6940 C   0  0  0  0  0  0  0  0  0  0  0  0
  -29.8850  -24.2080   21.4870 O   0  0  0  0  0  0  0  0  0  0  0  0
  -28.1130  -24.7920   19.9860 C   0  0  0  0  0  2  0  0  0  0  0  0
  -28.3090  -26.2960   20.2880 O   0  0  0  0  0  0  0  0  0  0  0  0
  -24.6290  -31.8930   23.2500 C   0  0  0  0  0  0  0  0  0  0  0  0
  -27.2350  -27.2420   20.1970 C   0  0  0  0  0  0  0  0  0  0  0  0
  -23.4340  -30.5010   21.6010 C   0  0  0  0  0  3  0  0  0  0  0  0
  -24.8910  -28.9460   20.1660 C   0  0  0  0  0  0  0  0  0  0  0  0
  -25.9830  -30.7880   21.4380 C   0  0  0  0  0  2  0  0  0  0  0  0
  -26.0640  -29.4050   20.7790 C   0  0  0  0  0  0  0  0  0  0  0  0
  -27.2360  -28.5670   20.7810 C   0  0  0  0  0  3  0  0  0  0  0  0
  -26.0410  -26.8770   19.5400 C   0  0  0  0  0  3  0  0  0  0  0  0
  -24.8910  -27.6940   19.5320 C   0  0  0  0  0  3  0  0  0  0  0  0
  -23.6570  -29.8330   20.2180 C   0  0  0  0  0  2  0  0  0  0  0  0
  -24.7010  -31.0810   22.1520 N   0  0  0  0  0  0  0  0  0  0  0  0
  -23.5420  -32.1700   23.7800 O   0  0  0  0  0  0  0  0  0  0  0  0
  -22.7610  -29.4840   22.5570 C   0  0  0  0  0  0  0  0  0  0  0  0
  -21.4350  -29.3060   22.4290 N   0  0  0  0  0  0  0  0  0  0  0  0
  -23.4370  -28.8570   23.3780 O   0  0  0  0  0  0  0  0  0  0  0  0
  -20.9450  -29.8630   21.7410 H   0  0  0  0  0  0  0  0  0  0  0  0
  -18.0630  -28.0810   22.9180 C   0  0  0  0  0  0  0  0  0  0  0  0
  -20.6180  -28.3630   23.1970 C   0  0  0  0  0  3  0  0  0  0  0  0
  -20.7340  -26.9310   22.6260 C   0  0  0  0  0  2  0  0  0  0  0  0
  -19.6400  -26.5990   21.6050 C   0  0  0  0  0  2  0  0  0  0  0  0
  -18.2530  -26.7330   22.2420 C   0  0  0  0  0  2  0  0  0  0  0  0
  -19.1740  -28.8520   23.3530 C   0  0  0  0  0  0  0  0  0  0  0  0
  -18.9420  -30.1130   23.9460 C   0  0  0  0  0  3  0  0  0  0  0  0
  -17.6330  -30.6030   24.1060 C   0  0  0  0  0  3  0  0  0  0  0  0
  -16.5370  -29.8290   23.6870 C   0  0  0  0  0  3  0  0  0  0  0  0
  -16.7520  -28.5710   23.0990 C   0  0  0  0  0  3  0  0  0  0  0  0
  -25.9060  -32.5300   23.8770 C   0  0  0  0  0  3  0  0  0  0  0  0
  -26.4130  -31.7620   25.1610 C   0  0  1  0  0  0  0  0  0  0  0  0
  -25.3140  -31.5350   26.2250 C   0  0  0  0  0  1  0  0  0  0  0  0
  -26.9970  -30.3800   24.7870 C   0  0  0  0  0  1  0  0  0  0  0  0
  -27.5610  -32.5590   25.8260 C   0  0  0  0  0  1  0  0  0  0  0  0
  -25.5950  -33.9300   24.2040 N   0  0  0  0  0  0  0  0  0  0  0  0
  -25.9200  -34.9820   23.4410 C   0  0  0  0  0  0  0  0  0  0  0  0
  -26.5800  -34.8770   22.4040 O   0  0  0  0  0  0  0  0  0  0  0  0
  -25.0060  -34.0860   25.0090 H   0  0  0  0  0  0  0  0  0  0  0  0
  -24.1840  -36.7720   23.1010 C   0  0  0  0  0  1  0  0  0  0  0  0
  -25.4350  -36.3710   23.8990 C   0  0  0  0  0  3  0  0  0  0  0  0
  -27.5750  -37.2660   24.7070 C   0  0  0  0  0  1  0  0  0  0  0  0
  -26.4650  -37.4270   23.7730 N   0  0  0  0  0  0  0  0  0  0  0  0
  -26.0560  -38.3470   23.9240 H   0  0  0  0  0  0  0  0  0  0  0  0
  -29.2850  -22.5650   17.2190 C   0  0  0  0  0  1  0  0  0  0  0  0
  -28.2410  -21.8980   18.1210 C   0  0  0  0  0  2  0  0  0  0  0  0
  1  5  2  0
  1  3  1  0
  2  6  1  0
  3  2  2  0
  4 46  1  0
  4  6  2  0
  5  4  1  0
  6  7  1  0
  8  3  1  0
  8  9  2  0
 10  9  1  0
 11 16  1  0
 12 13  1  0
 12 11  1  0
 14 13  1  0
 14 21  1  0
 14 15  1  0
 16 10  1  0
 16 15  1  0
 17 10  2  0
 18 19  2  0
 19 38  1  0
 20 19  1  0
 20 23  1  0
 21 18  1  0
 21 22  1  0
 22 20  2  0
 23 24  1  0
 24 25  2  0
 26 29  1  0
 26 25  1  0
 27 26  2  0
 28 27  1  0
 28 23  2  0
 29 30  1  0
 30 31  1  0
 31 32  2  0
 33 32  1  0
 33 37  1  0
 34 33  2  0
 35 30  2  0
 35 34  1  0
 36 35  1  0
 38 39  1  0
 39 42  1  0
 39 41  1  0
 40 38  2  0
 43 44  1  0
 43 18  1  0
 45 43  1  0
 46 47  2  0
 48 49  1  0
 48 46  1  0
 50 61  2  0
 51 49  1  0
 51 56  1  0
 52 60  1  0
 52 62  1  0
 53 59  1  0
 53 55  1  0
 54 60  1  0
 55 56  2  0
 55 54  1  0
 57 51  2  0
 58 57  1  0
 58 53  2  0
 59 52  1  0
 60 50  1  0
 62 64  2  0
 63 62  1  0
 65 63  1  0
 66 75  2  0
 66 71  1  0
 67 63  1  0
 67 71  1  0
 68 67  1  0
 69 70  1  0
 69 68  1  0
 70 66  1  0
 71 72  2  0
 72 73  1  0
 74 73  2  0
 75 74  1  0
 76 50  1  0
 76 81  1  0
 76 77  1  0
 77 80  1  1
 77 78  1  0
 79 77  1  0
 81 84  1  0
 82 86  1  0
 82 81  1  0
 83 82  2  0
 86 85  1  0
 88 86  1  0
 88 89  1  0
 88 87  1  0
 90 91  1  0
 91  5  1  0
M  ISO  4   9 100  10 100  48 101  49 101
M  END
>  <TORSDO>  (4) 
F 20

>  <SCORE>  (4) 
-13.955

>  <name>  (4) 
3

>  <ligand_id>  (4) 
3

>  <original_smiles>  (4) 
[H]C(C(=O)N1C([H])([H])C([H])([H])C([H])([H])C([H])(n2nc(-c3c([H])c([H])c(Oc4c([H])c([H])c(F)c([H])c4F)c([H])c3[H])c(C(=O)N([H])[H])c2N([H])[H])C1([H])[H])=C([H])c1c([H])c(F)c(C(=O)C([H])([H])Oc2c([H])c([H])c3c(c2[H])C([H])([H])N(C(=O)C([H])(N([H])C(=O)C([H])(N([H])C([H])([H])[H])C([H])([H])[H])C(C([H])([H])[H])(C([H])([H])[H])C([H])([H])[H])C([H])(C(=O)N([H])C2([H])c4c([H])c([H])c([H])c([H])c4C([H])([H])C([H])([H])C2([H])[H])C3([H])[H])c(C([H])([H])C([H])([H])[H])c1[H]

>  <smiles>  (4) 
[H]C(C(=O)N1C([H])([H])C([H])([H])C([H])([H])C([H])(n2nc(-c3c([H])c([H])c(Oc4c([H])c([H])c(F)c([H])c4F)c([H])c3[H])c(C(=O)N([H])[H])c2N([H])[H])C1([H])[H])=C([H])c1c([H])c(F)c(C(=O)C([H])([H])Oc2c([H])c([H])c3c(c2[H])C([H])([H])N(C(=O)C([H])(N([H])C(=O)C([H])(N([H])C([H])([H])[H])C([H])([H])[H])C(C([H])([H])[H])(C([H])([H])[H])C([H])([H])[H])C([H])(C(=O)N([H])C2([H])c4c([H])c([H])c([H])c([H])c4C([H])([H])C([H])([H])C2([H])[H])C3([H])[H])c(C([H])([H])C([H])([H])[H])c1[H]

$$$$
4:0:0
     RDKit          3D

 91 99  0  0  1  0  0  0  0  0999 V2000
  -30.4620  -18.7210   22.5950 C   0  0  0  0  0  3  0  0  0  0  0  0
  -30.1680  -18.6770   19.8570 C   0  0  0  0  0  3  0  0  0  0  0  0
  -30.6290  -17.4940   21.9330 C   0  0  0  0  0  0  0  0  0  0  0  0
  -30.1480  -19.9350   21.9450 C   0  0  0  0  0  0  0  0  0  0  0  0
  -30.4910  -17.4140   20.5260 C   0  0  0  0  0  0  0  0  0  0  0  0
  -30.0070  -19.9780   20.5160 C   0  0  0  0  0  0  0  0  0  0  0  0
  -30.8800  -16.2770   22.8140 C   0  0  0  0  0  1  0  0  0  0  0  0
  -29.9740  -21.1160   22.8960 C   0  0  0  0  0  1  0  0  0  0  0  0
  -31.2820  -14.9640   19.8430 C   0  0  0  0  0  0  0  0  0  0  0  0
  -31.0670  -12.6520   18.8790 C   0  0  0  0  0  2  0  0  0  0  0  0
  -30.0710  -12.6670   17.6930 C   0  0  0  0  0  2  0  0  0  0  0  0
  -28.6140  -12.5420   18.1870 C   0  0  0  0  0  2  0  0  0  0  0  0
  -28.3040  -13.4740   19.3880 C   0  0  0  0  0  3  0  0  0  0  0  0
  -29.4040  -13.3950   20.4630 C   0  0  0  0  0  2  0  0  0  0  0  0
  -30.6720  -13.7330   19.8080 N   0  0  0  0  0  0  0  0  0  0  0  0
  -32.4700  -15.0770   19.5240 O   0  0  0  0  0  0  0  0  0  0  0  0
  -30.4240  -16.0600   19.9160 N   0  0  0  0  0  0  0  0  0  0  0  0
  -29.4730  -15.7450   19.8190 H   0  0  0  0  0  0  0  0  0  0  0  0
  -26.0080  -14.1350   20.3170 C   0  0  0  0  0  0  0  0  0  0  0  0
  -24.9360  -13.3860   20.7290 C   0  0  0  0  0  0  0  0  0  0  0  0
  -25.3340  -12.0210   20.5980 C   0  0  0  0  0  0  0  0  0  0  0  0
  -26.9860  -13.2220   19.9560 N   0  0  0  0  0  0  0  0  0  0  0  0
  -26.5940  -11.9450   20.1900 N   0  0  0  0  0  0  0  0  0  0  0  0
  -24.5630  -10.7810   20.7690 C   0  0  0  0  0  0  0  0  0  0  0  0
  -24.9180   -9.8140   21.7340 C   0  0  0  0  0  3  0  0  0  0  0  0
  -24.1440   -8.6430   21.8910 C   0  0  0  0  0  3  0  0  0  0  0  0
  -23.0020   -8.4330   21.0840 C   0  0  0  0  0  0  0  0  0  0  0  0
  -22.6730   -9.3840   20.1020 C   0  0  0  0  0  3  0  0  0  0  0  0
  -23.4480  -10.5460   19.9430 C   0  0  0  0  0  3  0  0  0  0  0  0
  -22.2070   -7.3140   21.1520 O   0  0  0  0  0  0  0  0  0  0  0  0
  -21.9230   -6.7050   22.3490 C   0  0  0  0  0  0  0  0  0  0  0  0
  -21.2750   -7.3910   23.4010 C   0  0  0  0  0  3  0  0  0  0  0  0
  -20.9390   -6.7060   24.5860 C   0  0  0  0  0  3  0  0  0  0  0  0
  -21.2390   -5.3380   24.7200 C   0  0  0  0  0  0  0  0  0  0  0  0
  -21.8800   -4.6520   23.6730 C   0  0  0  0  0  3  0  0  0  0  0  0
  -22.2170   -5.3340   22.4900 C   0  0  0  0  0  0  0  0  0  0  0  0
  -22.8130   -4.6640   21.4750 F   0  0  0  0  0  0  0  0  0  0  0  0
  -20.9110   -4.6770   25.8560 F   0  0  0  0  0  0  0  0  0  0  0  0
  -23.5820  -13.9090   21.1170 C   0  0  0  0  0  0  0  0  0  0  0  0
  -22.8950  -13.2150   22.0200 N   0  0  0  0  0  0  0  0  0  0  0  0
  -23.1430  -14.9560   20.6480 O   0  0  0  0  0  0  0  0  0  0  0  0
  -23.2670  -12.3670   22.4210 H   0  0  0  0  0  0  0  0  0  0  0  0
  -21.9830  -13.5360   22.3120 H   0  0  0  0  0  0  0  0  0  0  0  0
  -26.2220  -15.5050   20.1910 N   0  0  0  0  0  0  0  0  0  0  0  0
  -25.4750  -16.1780   20.3370 H   0  0  0  0  0  0  0  0  0  0  0  0
  -27.0420  -15.9200   19.7670 H   0  0  0  0  0  0  0  0  0  0  0  0
  -29.7200  -21.1650   19.7490 O   0  0  0  0  0  0  0  0  0  0  0  0
  -29.2360  -22.4820   20.2900 C   0  0  0  0  0  2  0  0  0  0  0  0
  -29.0240  -23.8040   19.3820 C   0  0  0  0  0  3  0  0  0  0  0  0
  -28.3900  -25.1080   20.1030 C   0  0  0  0  0  3  0  0  0  0  0  0
  -28.4790  -26.5040   19.5650 O   0  0  0  0  0  0  0  0  0  0  0  0
  -24.5740  -31.5240   23.0810 C   0  0  0  0  0  0  0  0  0  0  0  0
  -27.3410  -27.3330   19.6380 C   0  0  0  0  0  0  0  0  0  0  0  0
  -23.4210  -30.2350   21.3150 C   0  0  0  0  0  3  0  0  0  0  0  0
  -24.9250  -28.8700   19.7600 C   0  0  0  0  0  0  0  0  0  0  0  0
  -25.9480  -30.6550   21.1740 C   0  0  0  0  0  2  0  0  0  0  0  0
  -26.0760  -29.3460   20.3960 C   0  0  0  0  0  0  0  0  0  0  0  0
  -27.2930  -28.5970   20.3110 C   0  0  0  0  0  3  0  0  0  0  0  0
  -26.1610  -26.9090   18.9950 C   0  0  0  0  0  3  0  0  0  0  0  0
  -24.9720  -27.6630   19.0420 C   0  0  0  0  0  3  0  0  0  0  0  0
  -23.6600  -29.6910   19.8810 C   0  0  0  0  0  2  0  0  0  0  0  0
  -24.6650  -30.8200   21.9140 N   0  0  0  0  0  0  0  0  0  0  0  0
  -23.4820  -31.7090   23.6370 O   0  0  0  0  0  0  0  0  0  0  0  0
  -22.7970  -29.1140   22.1800 C   0  0  0  0  0  0  0  0  0  0  0  0
  -21.4760  -28.9060   22.0420 N   0  0  0  0  0  0  0  0  0  0  0  0
  -23.4990  -28.4390   22.9390 O   0  0  0  0  0  0  0  0  0  0  0  0
  -20.9690  -29.5120   21.4120 H   0  0  0  0  0  0  0  0  0  0  0  0
  -18.1480  -27.5360   22.4210 C   0  0  0  0  0  0  0  0  0  0  0  0
  -20.6920  -27.8760   22.7240 C   0  0  0  0  0  3  0  0  0  0  0  0
  -20.8530  -26.5010   22.0340 C   0  0  0  0  0  2  0  0  0  0  0  0
  -19.7670  -26.2220   20.9900 C   0  0  0  0  0  2  0  0  0  0  0  0
  -18.3790  -26.2570   21.6340 C   0  0  0  0  0  2  0  0  0  0  0  0
  -19.2340  -28.3030   22.9170 C   0  0  0  0  0  0  0  0  0  0  0  0
  -18.9650  -29.4980   23.6170 C   0  0  0  0  0  3  0  0  0  0  0  0
  -17.6410  -29.9290   23.8260 C   0  0  0  0  0  3  0  0  0  0  0  0
  -16.5680  -29.1620   23.3430 C   0  0  0  0  0  3  0  0  0  0  0  0
  -16.8220  -27.9650   22.6460 C   0  0  0  0  0  3  0  0  0  0  0  0
  -25.8340  -32.1440   23.7600 C   0  0  0  0  0  3  0  0  0  0  0  0
  -26.3350  -31.3280   25.0190 C   0  0  1  0  0  0  0  0  0  0  0  0
  -25.2190  -31.0340   26.0470 C   0  0  0  0  0  1  0  0  0  0  0  0
  -26.9510  -29.9750   24.5920 C   0  0  0  0  0  1  0  0  0  0  0  0
  -27.4460  -32.1190   25.7490 C   0  0  0  0  0  1  0  0  0  0  0  0
  -25.5000  -33.5220   24.1460 N   0  0  0  0  0  0  0  0  0  0  0  0
  -25.8450  -34.6150   23.4530 C   0  0  0  0  0  0  0  0  0  0  0  0
  -26.5470  -34.5700   22.4390 O   0  0  0  0  0  0  0  0  0  0  0  0
  -24.8930  -33.6330   24.9460 H   0  0  0  0  0  0  0  0  0  0  0  0
  -24.1150  -36.4130   23.1290 C   0  0  0  0  0  1  0  0  0  0  0  0
  -25.3300  -35.9760   23.9640 C   0  0  0  0  0  3  0  0  0  0  0  0
  -27.4190  -36.8330   24.9210 C   0  0  0  0  0  1  0  0  0  0  0  0
  -26.3550  -37.0420   23.9440 N   0  0  0  0  0  0  0  0  0  0  0  0
  -25.9310  -37.9480   24.1290 H   0  0  0  0  0  0  0  0  0  0  0  0
  2  6  1  0
  2  5  2  0
  3  1  2  0
  3  7  1  0
  4  1  1  0
  4  8  1  0
  5  3  1  0
  6  4  2  0
  9 17  1  0
 10 15  1  0
 11 12  1  0
 11 10  1  0
 13 12  1  0
 13 22  1  0
 13 14  1  0
 15  9  1  0
 15 14  1  0
 16  9  2  0
 17  5  1  0
 18 17  1  0
 19 20  2  0
 20 39  1  0
 21 20  1  0
 21 24  1  0
 22 23  1  0
 22 19  1  0
 23 21  2  0
 24 25  1  0
 25 26  2  0
 27 30  1  0
 27 26  1  0
 28 27  2  0
 29 28  1  0
 29 24  2  0
 30 31  1  0
 31 36  2  0
 31 32  1  0
 32 33  2  0
 33 34  1  0
 34 38  1  0
 35 34  2  0
 36 35  1  0
 37 36  1  0
 39 40  1  0
 40 43  1  0
 40 42  1  0
 41 39  2  0
 44 19  1  0
 44 45  1  0
 46 44  1  0
 47 48  1  0
 47  6  1  0
 49 50  2  0
 49 48  1  0
 51 53  1  0
 51 50  1  0
 52 63  2  0
 53 58  1  0
 54 62  1  0
 54 64  1  0
 55 61  1  0
 55 57  1  0
 56 62  1  0
 57 56  1  0
 58 57  2  0
 59 60  1  0
 59 53  2  0
 60 55  2  0
 61 54  1  0
 62 52  1  0
 64 66  2  0
 65 64  1  0
 67 65  1  0
 68 77  2  0
 68 73  1  0
 69 65  1  0
 69 73  1  0
 70 69  1  0
 71 72  1  0
 71 70  1  0
 72 68  1  0
 73 74  2  0
 74 75  1  0
 76 75  2  0
 77 76  1  0
 78 52  1  0
 78 83  1  0
 78 79  1  0
 79 82  1  1
 79 80  1  0
 81 79  1  0
 83 86  1  0
 84 88  1  0
 84 83  1  0
 85 84  2  0
 88 87  1  0
 90 88  1  0
 90 91  1  0
 90 89  1  0
M  ISO  4   9 100  17 100  50 101  51 101
M  END
>  <TORSDO>  (5) 
F 20

>  <SCORE>  (5) 
-11.066

>  <name>  (5) 
4

>  <ligand_id>  (5) 
4

>  <original_smiles>  (5) 
[H]c1c([H])c([H])c2c(c1[H])C([H])([H])C([H])([H])C([H])([H])C2([H])N([H])C(=O)C1([H])N(C(=O)C([H])(N([H])C(=O)C([H])(N([H])C([H])([H])[H])C([H])([H])[H])C(C([H])([H])[H])(C([H])([H])[H])C([H])([H])[H])C([H])([H])c2c([H])c(OC([H])([H])C([H])([H])C([H])([H])Oc3c([H])c(N([H])C(=O)N4C([H])([H])C([H])([H])C([H])([H])C([H])(n5nc(-c6c([H])c([H])c(Oc7c([H])c([H])c(F)c([H])c7F)c([H])c6[H])c(C(=O)N([H])[H])c5N([H])[H])C4([H])[H])c(C([H])([H])[H])c([H])c3C([H])([H])[H])c([H])c([H])c2C1([H])[H]

>  <smiles>  (5) 
[H]c1c([H])c([H])c2c(c1[H])C([H])([H])C([H])([H])C([H])([H])C2([H])N([H])C(=O)C1([H])N(C(=O)C([H])(N([H])C(=O)C([H])(N([H])C([H])([H])[H])C([H])([H])[H])C(C([H])([H])[H])(C([H])([H])[H])C([H])([H])[H])C([H])([H])c2c([H])c(OC([H])([H])C([H])([H])C([H])([H])Oc3c([H])c(N([H])C(=O)N4C([H])([H])C([H])([H])C([H])([H])C([H])(n5nc(-c6c([H])c([H])c(Oc7c([H])c([H])c(F)c([H])c7F)c([H])c6[H])c(C(=O)N([H])[H])c5N([H])[H])C4([H])[H])c(C([H])([H])[H])c([H])c3C([H])([H])[H])c([H])c([H])c2C1([H])[H]

$$$$
5:0:0
     RDKit          3D

 91 99  0  0  1  0  0  0  0  0999 V2000
  -30.0230  -22.5280   19.2330 C   0  0  0  0  0  2  0  0  0  0  0  0
  -31.1400  -19.3970   21.1350 C   0  0  0  0  0  3  0  0  0  0  0  0
  -30.9860  -20.7630   20.7990 C   0  0  0  0  0  3  0  0  0  0  0  0
  -29.0600  -18.8690   20.0190 C   0  0  0  0  0  3  0  0  0  0  0  0
  -30.2280  -18.4160   20.6790 C   0  0  0  0  0  0  0  0  0  0  0  0
  -29.9090  -21.1890   19.9920 C   0  0  0  0  0  0  0  0  0  0  0  0
  -28.9120  -20.2360   19.6600 C   0  0  0  0  0  0  0  0  0  0  0  0
  -27.8580  -20.6080   18.8950 F   0  0  0  0  0  0  0  0  0  0  0  0
  -30.6340  -16.9810   20.7780 C   0  0  0  0  0  3  0  0  0  0  0  0
  -29.9330  -15.8250   20.6060 C   0  0  0  0  0  3  0  0  0  0  0  0
  -30.6780  -14.5570   20.4540 C   0  0  0  0  0  0  0  0  0  0  0  0
  -30.3520  -12.3590   19.3940 C   0  0  0  0  0  2  0  0  0  0  0  0
  -29.4470  -12.5420   18.1580 C   0  0  0  0  0  2  0  0  0  0  0  0
  -27.9650  -12.4040   18.5590 C   0  0  0  0  0  2  0  0  0  0  0  0
  -27.5970  -13.2710   19.7930 C   0  0  0  0  0  3  0  0  0  0  0  0
  -28.6360  -13.1310   20.9270 C   0  0  0  0  0  2  0  0  0  0  0  0
  -29.9670  -13.3950   20.3690 N   0  0  0  0  0  0  0  0  0  0  0  0
  -31.8720  -14.5790   20.1460 O   0  0  0  0  0  0  0  0  0  0  0  0
  -25.1950  -13.8730   20.4760 C   0  0  0  0  0  0  0  0  0  0  0  0
  -24.1230  -13.1020   20.8370 C   0  0  0  0  0  0  0  0  0  0  0  0
  -24.5870  -11.7510   20.8270 C   0  0  0  0  0  0  0  0  0  0  0  0
  -26.2430  -12.9920   20.2640 N   0  0  0  0  0  0  0  0  0  0  0  0
  -25.8820  -11.7110   20.5380 N   0  0  0  0  0  0  0  0  0  0  0  0
  -23.8590  -10.4900   21.0160 C   0  0  0  0  0  0  0  0  0  0  0  0
  -24.2740   -9.5350   21.9720 C   0  0  0  0  0  3  0  0  0  0  0  0
  -23.5470   -8.3380   22.1490 C   0  0  0  0  0  3  0  0  0  0  0  0
  -22.3910   -8.0880   21.3700 C   0  0  0  0  0  0  0  0  0  0  0  0
  -21.9970   -9.0310   20.4050 C   0  0  0  0  0  3  0  0  0  0  0  0
  -22.7240  -10.2190   20.2260 C   0  0  0  0  0  3  0  0  0  0  0  0
  -21.6370   -6.9430   21.4560 O   0  0  0  0  0  0  0  0  0  0  0  0
  -21.5610   -6.2150   22.6170 C   0  0  0  0  0  0  0  0  0  0  0  0
  -21.0960   -6.7820   23.8230 C   0  0  0  0  0  3  0  0  0  0  0  0
  -20.9690   -5.9810   24.9750 C   0  0  0  0  0  3  0  0  0  0  0  0
  -21.2980   -4.6120   24.9210 C   0  0  0  0  0  0  0  0  0  0  0  0
  -21.7560   -4.0440   23.7190 C   0  0  0  0  0  3  0  0  0  0  0  0
  -21.8840   -4.8430   22.5700 C   0  0  0  0  0  0  0  0  0  0  0  0
  -22.3060   -4.2870   21.4090 F   0  0  0  0  0  0  0  0  0  0  0  0
  -21.1680   -3.8390   26.0250 F   0  0  0  0  0  0  0  0  0  0  0  0
  -22.7210  -13.5800   21.0790 C   0  0  0  0  0  0  0  0  0  0  0  0
  -21.9760  -12.8880   21.9330 N   0  0  0  0  0  0  0  0  0  0  0  0
  -22.2940  -14.6040   20.5470 O   0  0  0  0  0  0  0  0  0  0  0  0
  -22.3340  -12.0610   22.3880 H   0  0  0  0  0  0  0  0  0  0  0  0
  -21.0340  -13.1890   22.1370 H   0  0  0  0  0  0  0  0  0  0  0  0
  -25.3590  -15.2430   20.2890 N   0  0  0  0  0  0  0  0  0  0  0  0
  -24.5880  -15.8940   20.3810 H   0  0  0  0  0  0  0  0  0  0  0  0
  -26.2140  -15.6830   19.9740 H   0  0  0  0  0  0  0  0  0  0  0  0
  -29.5660  -24.9560   18.9070 C   0  0  0  0  0  3  0  0  0  0  0  0
  -29.3790  -23.8520   19.6780 C   0  0  0  0  0  3  0  0  0  0  0  0
  -29.0320  -26.3410   19.0470 C   0  0  0  0  0  0  0  0  0  0  0  0
  -29.1410  -27.1600   18.1300 O   0  0  0  0  0  0  0  0  0  0  0  0
  -28.3710  -26.6180   20.1970 O   0  0  0  0  0  0  0  0  0  0  0  0
  -24.5990  -31.8860   23.2470 C   0  0  0  0  0  0  0  0  0  0  0  0
  -27.2560  -27.4370   20.1630 C   0  0  0  0  0  0  0  0  0  0  0  0
  -23.3990  -30.4780   21.6050 C   0  0  0  0  0  3  0  0  0  0  0  0
  -24.8600  -28.9470   20.1790 C   0  0  0  0  0  0  0  0  0  0  0  0
  -25.9260  -30.8410   21.4100 C   0  0  0  0  0  2  0  0  0  0  0  0
  -26.0190  -29.4690   20.7700 C   0  0  0  0  0  0  0  0  0  0  0  0
  -27.2220  -28.7180   20.7700 C   0  0  0  0  0  3  0  0  0  0  0  0
  -26.0760  -26.9310   19.5790 C   0  0  0  0  0  3  0  0  0  0  0  0
  -24.8830  -27.6770   19.5800 C   0  0  0  0  0  3  0  0  0  0  0  0
  -23.6130  -29.8010   20.2250 C   0  0  0  0  0  2  0  0  0  0  0  0
  -24.6590  -31.0840   22.1450 N   0  0  0  0  0  0  0  0  0  0  0  0
  -23.5160  -32.1540   23.7860 O   0  0  0  0  0  0  0  0  0  0  0  0
  -22.7510  -29.4550   22.5660 C   0  0  0  0  0  0  0  0  0  0  0  0
  -21.4270  -29.2710   22.4420 N   0  0  0  0  0  0  0  0  0  0  0  0
  -23.4370  -28.8290   23.3790 O   0  0  0  0  0  0  0  0  0  0  0  0
  -20.9340  -29.8280   21.7580 H   0  0  0  0  0  0  0  0  0  0  0  0
  -18.0520  -28.0780   22.9520 C   0  0  0  0  0  0  0  0  0  0  0  0
  -20.6120  -28.3310   23.2130 C   0  0  0  0  0  3  0  0  0  0  0  0
  -20.7100  -26.9020   22.6310 C   0  0  0  0  0  2  0  0  0  0  0  0
  -19.6030  -26.5850   21.6210 C   0  0  0  0  0  2  0  0  0  0  0  0
  -18.2240  -26.7300   22.2720 C   0  0  0  0  0  2  0  0  0  0  0  0
  -19.1740  -28.8370   23.3800 C   0  0  0  0  0  0  0  0  0  0  0  0
  -18.9600  -30.0980   23.9750 C   0  0  0  0  0  3  0  0  0  0  0  0
  -17.6560  -30.6010   24.1480 C   0  0  0  0  0  3  0  0  0  0  0  0
  -16.5490  -29.8390   23.7360 C   0  0  0  0  0  3  0  0  0  0  0  0
  -16.7480  -28.5790   23.1440 C   0  0  0  0  0  3  0  0  0  0  0  0
  -25.8820  -32.5220   23.8660 C   0  0  0  0  0  3  0  0  0  0  0  0
  -26.4020  -31.7560   25.1430 C   0  0  1  0  0  0  0  0  0  0  0  0
  -25.3100  -31.5180   26.2130 C   0  0  0  0  0  1  0  0  0  0  0  0
  -26.9880  -30.3790   24.7540 C   0  0  0  0  0  1  0  0  0  0  0  0
  -27.5510  -32.5550   25.8020 C   0  0  0  0  0  1  0  0  0  0  0  0
  -25.5710  -33.9200   24.1880 N   0  0  0  0  0  0  0  0  0  0  0  0
  -25.9050  -34.9690   23.4250 C   0  0  0  0  0  0  0  0  0  0  0  0
  -26.5770  -34.8620   22.3960 O   0  0  0  0  0  0  0  0  0  0  0  0
  -24.9730  -34.0780   24.9860 H   0  0  0  0  0  0  0  0  0  0  0  0
  -24.1800  -36.7600   23.0490 C   0  0  0  0  0  1  0  0  0  0  0  0
  -25.4130  -36.3590   23.8740 C   0  0  0  0  0  3  0  0  0  0  0  0
  -27.5390  -37.2460   24.7240 C   0  0  0  0  0  1  0  0  0  0  0  0
  -26.4480  -37.4110   23.7670 N   0  0  0  0  0  0  0  0  0  0  0  0
  -26.0400  -38.3320   23.9050 H   0  0  0  0  0  0  0  0  0  0  0  0
  1 48  1  0
  1  6  1  0
  3  2  1  0
  4  5  1  0
  5  9  1  0
  5  2  2  0
  6  3  2  0
  7  6  1  0
  7  4  2  0
  8  7  1  0
 10  9  2  0
 11 10  1  0
 12 17  1  0
 13 14  1  0
 13 12  1  0
 15 14  1  0
 15 22  1  0
 15 16  1  0
 17 11  1  0
 17 16  1  0
 18 11  2  0
 19 20  2  0
 20 39  1  0
 21 20  1  0
 21 24  1  0
 22 19  1  0
 22 23  1  0
 23 21  2  0
 24 25  1  0
 25 26  2  0
 27 30  1  0
 27 26  1  0
 28 27  2  0
 29 28  1  0
 29 24  2  0
 30 31  1  0
 31 32  1  0
 32 33  2  0
 34 33  1  0
 34 38  1  0
 35 34  2  0
 36 31  2  0
 36 35  1  0
 37 36  1  0
 39 40  1  0
 40 43  1  0
 40 42  1  0
 41 39  2  0
 44 45  1  0
 44 19  1  0
 46 44  1  0
 47 49  1  0
 47 48  2  0
 49 51  1  0
 50 49  2  0
 52 63  2  0
 53 51  1  0
 53 58  1  0
 54 62  1  0
 54 64  1  0
 55 61  1  0
 55 57  1  0
 56 62  1  0
 57 58  2  0
 57 56  1  0
 59 60  1  0
 59 53  2  0
 60 55  2  0
 61 54  1  0
 62 52  1  0
 64 66  2  0
 65 64  1  0
 67 65  1  0
 68 77  2  0
 68 73  1  0
 69 65  1  0
 69 73  1  0
 70 69  1  0
 71 72  1  0
 71 70  1  0
 72 68  1  0
 73 74  2  0
 74 75  1  0
 76 75  2  0
 77 76  1  0
 78 52  1  0
 78 83  1  0
 78 79  1  0
 79 82  1  1
 79 80  1  0
 81 79  1  0
 83 86  1  0
 84 88  1  0
 84 83  1  0
 85 84  2  0
 88 87  1  0
 90 88  1  0
 90 91  1  0
 90 89  1  0
M  ISO  4  10 100  11 100  49 101  51 101
M  END
>  <TORSDO>  (6) 
F 20

>  <SCORE>  (6) 
-13.912

>  <name>  (6) 
5

>  <ligand_id>  (6) 
5

>  <original_smiles>  (6) 
[H]C(C(=O)N1C([H])([H])C([H])([H])C([H])([H])C([H])(n2nc(-c3c([H])c([H])c(Oc4c([H])c([H])c(F)c([H])c4F)c([H])c3[H])c(C(=O)N([H])[H])c2N([H])[H])C1([H])[H])=C([H])c1c([H])c([H])c(C([H])([H])C([H])=C([H])C(=O)Oc2c([H])c([H])c3c(c2[H])C([H])([H])N(C(=O)C([H])(N([H])C(=O)C([H])(N([H])C([H])([H])[H])C([H])([H])[H])C(C([H])([H])[H])(C([H])([H])[H])C([H])([H])[H])C([H])(C(=O)N([H])C2([H])c4c([H])c([H])c([H])c([H])c4C([H])([H])C([H])([H])C2([H])[H])C3([H])[H])c(F)c1[H]

>  <smiles>  (6) 
[H]C(C(=O)N1C([H])([H])C([H])([H])C([H])([H])C([H])(n2nc(-c3c([H])c([H])c(Oc4c([H])c([H])c(F)c([H])c4F)c([H])c3[H])c(C(=O)N([H])[H])c2N([H])[H])C1([H])[H])=C([H])c1c([H])c([H])c(C([H])([H])C([H])=C([H])C(=O)Oc2c([H])c([H])c3c(c2[H])C([H])([H])N(C(=O)C([H])(N([H])C(=O)C([H])(N([H])C([H])([H])[H])C([H])([H])[H])C(C([H])([H])[H])(C([H])([H])[H])C([H])([H])[H])C([H])(C(=O)N([H])C2([H])c4c([H])c([H])c([H])c([H])c4C([H])([H])C([H])([H])C2([H])[H])C3([H])[H])c(F)c1[H]

$$$$
6:0:0
     RDKit          3D

 93101  0  0  1  0  0  0  0  0999 V2000
  -30.6710  -21.2350   20.9090 C   0  0  0  0  0  3  0  0  0  0  0  0
  -29.6950  -22.1510   20.7010 C   0  0  0  0  0  3  0  0  0  0  0  0
  -29.3070  -19.1080   20.7560 C   0  0  0  0  0  3  0  0  0  0  0  0
  -31.6010  -17.5140   20.9200 C   0  0  0  0  0  3  0  0  0  0  0  0
  -30.5620  -19.7480   20.8620 C   0  0  0  0  0  0  0  0  0  0  0  0
  -29.1890  -17.6970   20.7600 C   0  0  0  0  0  0  0  0  0  0  0  0
  -31.7170  -18.9250   20.9300 C   0  0  0  0  0  0  0  0  0  0  0  0
  -30.3400  -16.8720   20.8330 C   0  0  0  0  0  0  0  0  0  0  0  0
  -27.8000  -17.0850   20.7020 C   0  0  0  0  0  1  0  0  0  0  0  0
  -33.1080  -19.5350   21.0210 C   0  0  0  0  0  1  0  0  0  0  0  0
  -30.8040  -14.4780   20.1250 C   0  0  0  0  0  0  0  0  0  0  0  0
  -30.4570  -12.3460   18.9240 C   0  0  0  0  0  2  0  0  0  0  0  0
  -29.4740  -12.5780   17.7580 C   0  0  0  0  0  2  0  0  0  0  0  0
  -28.0160  -12.4250   18.2340 C   0  0  0  0  0  2  0  0  0  0  0  0
  -27.7210  -13.2310   19.5270 C   0  0  0  0  0  3  0  0  0  0  0  0
  -28.8140  -12.9850   20.5930 C   0  0  0  0  0  2  0  0  0  0  0  0
  -30.1230  -13.3040   19.9920 N   0  0  0  0  0  0  0  0  0  0  0  0
  -31.8930  -14.6650   19.5760 O   0  0  0  0  0  0  0  0  0  0  0  0
  -30.1620  -15.4430   20.8210 N   0  0  0  0  0  0  0  0  0  0  0  0
  -29.3120  -15.1170   21.2520 H   0  0  0  0  0  0  0  0  0  0  0  0
  -25.3310  -13.8090   20.2920 C   0  0  0  0  0  0  0  0  0  0  0  0
  -24.2870  -13.0260   20.7040 C   0  0  0  0  0  0  0  0  0  0  0  0
  -24.7640  -11.6810   20.6660 C   0  0  0  0  0  0  0  0  0  0  0  0
  -26.3840  -12.9410   20.0430 N   0  0  0  0  0  0  0  0  0  0  0  0
  -26.0470  -11.6560   20.3220 N   0  0  0  0  0  0  0  0  0  0  0  0
  -24.0580  -10.4110   20.8800 C   0  0  0  0  0  0  0  0  0  0  0  0
  -24.4730   -9.4940   21.8690 C   0  0  0  0  0  3  0  0  0  0  0  0
  -23.7670   -8.2880   22.0690 C   0  0  0  0  0  3  0  0  0  0  0  0
  -22.6320   -7.9920   21.2770 C   0  0  0  0  0  0  0  0  0  0  0  0
  -22.2360   -8.8980   20.2780 C   0  0  0  0  0  3  0  0  0  0  0  0
  -22.9450  -10.0950   20.0770 C   0  0  0  0  0  3  0  0  0  0  0  0
  -21.8980   -6.8340   21.3830 O   0  0  0  0  0  0  0  0  0  0  0  0
  -21.7330   -6.1950   22.5860 C   0  0  0  0  0  0  0  0  0  0  0  0
  -21.1490   -6.8380   23.6980 C   0  0  0  0  0  3  0  0  0  0  0  0
  -20.9350   -6.1230   24.8940 C   0  0  0  0  0  3  0  0  0  0  0  0
  -21.2940   -4.7650   24.9760 C   0  0  0  0  0  0  0  0  0  0  0  0
  -21.8720   -4.1210   23.8670 C   0  0  0  0  0  3  0  0  0  0  0  0
  -22.0880   -4.8340   22.6740 C   0  0  0  0  0  0  0  0  0  0  0  0
  -22.6250   -4.2020   21.6020 F   0  0  0  0  0  0  0  0  0  0  0  0
  -21.0820   -4.0740   26.1200 F   0  0  0  0  0  0  0  0  0  0  0  0
  -22.8930  -13.4890   21.0150 C   0  0  0  0  0  0  0  0  0  0  0  0
  -22.2090  -12.8040   21.9250 N   0  0  0  0  0  0  0  0  0  0  0  0
  -22.4190  -14.4940   20.4880 O   0  0  0  0  0  0  0  0  0  0  0  0
  -22.6060  -11.9910   22.3730 H   0  0  0  0  0  0  0  0  0  0  0  0
  -21.2760  -13.0970   22.1780 H   0  0  0  0  0  0  0  0  0  0  0  0
  -25.4610  -15.1770   20.0830 N   0  0  0  0  0  0  0  0  0  0  0  0
  -24.6690  -15.8050   20.1700 H   0  0  0  0  0  0  0  0  0  0  0  0
  -26.2630  -15.6110   19.6430 H   0  0  0  0  0  0  0  0  0  0  0  0
  -28.8150  -24.4280   20.5700 C   0  0  0  0  0  3  0  0  0  0  0  0
  -29.8500  -23.6040   20.8780 C   0  0  0  0  0  0  0  0  0  0  0  0
  -31.1450  -24.1690   21.4510 C   0  0  0  0  0  1  0  0  0  0  0  0
  -28.7400  -25.9540   20.7370 C   0  0  0  0  0  2  0  0  0  0  0  0
  -28.2910  -26.6160   19.5490 O   0  0  0  0  0  0  0  0  0  0  0  0
  -24.5070  -31.6090   23.0080 C   0  0  0  0  0  0  0  0  0  0  0  0
  -27.1310  -27.3460   19.6720 C   0  0  0  0  0  0  0  0  0  0  0  0
  -23.2770  -30.2590   21.3380 C   0  0  0  0  0  3  0  0  0  0  0  0
  -24.7150  -28.8050   19.8130 C   0  0  0  0  0  0  0  0  0  0  0  0
  -25.7890  -30.6660   21.0890 C   0  0  0  0  0  2  0  0  0  0  0  0
  -25.8790  -29.3220   20.3970 C   0  0  0  0  0  0  0  0  0  0  0  0
  -27.0920  -28.5970   20.3320 C   0  0  0  0  0  3  0  0  0  0  0  0
  -25.9560  -26.8450   19.0800 C   0  0  0  0  0  3  0  0  0  0  0  0
  -24.7480  -27.5640   19.1530 C   0  0  0  0  0  3  0  0  0  0  0  0
  -23.4600  -29.6410   19.9260 C   0  0  0  0  0  2  0  0  0  0  0  0
  -24.5440  -30.8590   21.8700 N   0  0  0  0  0  0  0  0  0  0  0  0
  -23.4380  -31.8400   23.5880 O   0  0  0  0  0  0  0  0  0  0  0  0
  -22.6670  -29.1890   22.2720 C   0  0  0  0  0  0  0  0  0  0  0  0
  -21.3390  -29.0020   22.1810 N   0  0  0  0  0  0  0  0  0  0  0  0
  -23.3820  -28.5330   23.0330 O   0  0  0  0  0  0  0  0  0  0  0  0
  -20.8220  -29.5860   21.5400 H   0  0  0  0  0  0  0  0  0  0  0  0
  -17.9910  -27.7720   22.7550 C   0  0  0  0  0  0  0  0  0  0  0  0
  -20.5570  -28.0220   22.9330 C   0  0  0  0  0  3  0  0  0  0  0  0
  -20.6370  -26.6240   22.2770 C   0  0  0  0  0  2  0  0  0  0  0  0
  -19.4940  -26.3540   21.2930 C   0  0  0  0  0  2  0  0  0  0  0  0
  -18.1400  -26.4600   22.0010 C   0  0  0  0  0  2  0  0  0  0  0  0
  -19.1250  -28.5120   23.1780 C   0  0  0  0  0  0  0  0  0  0  0  0
  -18.9320  -29.7420   23.8450 C   0  0  0  0  0  3  0  0  0  0  0  0
  -17.6350  -30.2290   24.0920 C   0  0  0  0  0  3  0  0  0  0  0  0
  -16.5150  -29.4850   23.6820 C   0  0  0  0  0  3  0  0  0  0  0  0
  -16.6940  -28.2580   23.0200 C   0  0  0  0  0  3  0  0  0  0  0  0
  -25.8020  -32.2310   23.6190 C   0  0  0  0  0  3  0  0  0  0  0  0
  -26.3790  -31.4010   24.8310 C   0  0  1  0  0  0  0  0  0  0  0  0
  -25.3290  -31.0790   25.9190 C   0  0  0  0  0  1  0  0  0  0  0  0
  -26.9770  -30.0620   24.3400 C   0  0  0  0  0  1  0  0  0  0  0  0
  -27.5330  -32.1850   25.5010 C   0  0  0  0  0  1  0  0  0  0  0  0
  -25.4800  -33.6030   24.0340 N   0  0  0  0  0  0  0  0  0  0  0  0
  -25.7870  -34.7010   23.3310 C   0  0  0  0  0  0  0  0  0  0  0  0
  -26.4430  -34.6660   22.2870 O   0  0  0  0  0  0  0  0  0  0  0  0
  -24.8920  -33.7020   24.8480 H   0  0  0  0  0  0  0  0  0  0  0  0
  -24.0260  -36.4840   23.1040 C   0  0  0  0  0  1  0  0  0  0  0  0
  -25.2860  -36.0540   23.8740 C   0  0  0  0  0  3  0  0  0  0  0  0
  -27.4160  -36.9250   24.7280 C   0  0  0  0  0  1  0  0  0  0  0  0
  -26.3010  -37.1270   23.8080 N   0  0  0  0  0  0  0  0  0  0  0  0
  -25.8820  -38.0310   24.0120 H   0  0  0  0  0  0  0  0  0  0  0  0
  2 50  1  0
  2  1  2  0
  3  6  2  0
  3  5  1  0
  4  7  1  0
  5  1  1  0
  5  7  2  0
  6  8  1  0
  7 10  1  0
  8  4  2  0
  9  6  1  0
 11 19  1  0
 12 17  1  0
 13 14  1  0
 13 12  1  0
 15 14  1  0
 15 24  1  0
 15 16  1  0
 17 11  1  0
 17 16  1  0
 18 11  2  0
 19  8  1  0
 19 20  1  0
 21 22  2  0
 22 41  1  0
 23 22  1  0
 23 26  1  0
 24 21  1  0
 24 25  1  0
 25 23  2  0
 26 27  1  0
 27 28  2  0
 29 32  1  0
 29 28  1  0
 30 29  2  0
 31 30  1  0
 31 26  2  0
 32 33  1  0
 33 38  2  0
 33 34  1  0
 34 35  2  0
 35 36  1  0
 36 40  1  0
 37 36  2  0
 38 37  1  0
 39 38  1  0
 41 42  1  0
 42 45  1  0
 42 44  1  0
 43 41  2  0
 46 47  1  0
 46 21  1  0
 48 46  1  0
 49 52  1  0
 49 50  2  0
 50 51  1  0
 53 55  1  0
 53 52  1  0
 54 65  2  0
 55 60  1  0
 56 64  1  0
 56 66  1  0
 57 63  1  0
 57 59  1  0
 58 64  1  0
 59 58  1  0
 60 59  2  0
 61 62  1  0
 61 55  2  0
 62 57  2  0
 63 56  1  0
 64 54  1  0
 66 68  2  0
 67 66  1  0
 69 67  1  0
 70 79  2  0
 70 75  1  0
 71 67  1  0
 71 75  1  0
 72 71  1  0
 73 74  1  0
 73 72  1  0
 74 70  1  0
 75 76  2  0
 76 77  1  0
 78 77  2  0
 79 78  1  0
 80 54  1  0
 80 85  1  0
 80 81  1  0
 81 84  1  1
 81 82  1  0
 83 81  1  0
 85 88  1  0
 86 90  1  0
 86 85  1  0
 87 86  2  0
 90 89  1  0
 92 90  1  0
 92 93  1  0
 92 91  1  0
M  ISO  4  11 100  19 100  52 101  53 101
M  END
>  <TORSDO>  (7) 
F 19

>  <SCORE>  (7) 
-13.201

>  <name>  (7) 
6

>  <ligand_id>  (7) 
6

>  <original_smiles>  (7) 
[H]C(=C([H])c1c([H])c(C([H])([H])[H])c(N([H])C(=O)N2C([H])([H])C([H])([H])C([H])([H])C([H])(n3nc(-c4c([H])c([H])c(Oc5c([H])c([H])c(F)c([H])c5F)c([H])c4[H])c(C(=O)N([H])[H])c3N([H])[H])C2([H])[H])c([H])c1C([H])([H])[H])C(=C([H])C([H])([H])Oc1c([H])c([H])c2c(c1[H])C([H])([H])N(C(=O)C([H])(N([H])C(=O)C([H])(N([H])C([H])([H])[H])C([H])([H])[H])C(C([H])([H])[H])(C([H])([H])[H])C([H])([H])[H])C([H])(C(=O)N([H])C1([H])c3c([H])c([H])c([H])c([H])c3C([H])([H])C([H])([H])C1([H])[H])C2([H])[H])C([H])([H])[H]

>  <smiles>  (7) 
[H]C(=C([H])c1c([H])c(C([H])([H])[H])c(N([H])C(=O)N2C([H])([H])C([H])([H])C([H])([H])C([H])(n3nc(-c4c([H])c([H])c(Oc5c([H])c([H])c(F)c([H])c5F)c([H])c4[H])c(C(=O)N([H])[H])c3N([H])[H])C2([H])[H])c([H])c1C([H])([H])[H])C(=C([H])C([H])([H])Oc1c([H])c([H])c2c(c1[H])C([H])([H])N(C(=O)C([H])(N([H])C(=O)C([H])(N([H])C([H])([H])[H])C([H])([H])[H])C(C([H])([H])[H])(C([H])([H])[H])C([H])([H])[H])C([H])(C(=O)N([H])C1([H])c3c([H])c([H])c([H])c([H])c3C([H])([H])C([H])([H])C1([H])[H])C2([H])[H])C([H])([H])[H]

$$$$
7:0:0
     RDKit          3D

 91 93  0  0  1  0  0  0  0  0999 V2000
  -22.5280  -25.9540   20.3730 C   0  0  0  0  0  1  0  0  0  0  0  0
  -23.7210  -24.8610   20.5060 N   0  0  0  0  0  2  0  0  0  0  0  0
  -25.7480  -22.1250   20.3600 C   0  0  0  0  0  3  0  0  0  0  0  0
  -23.4220  -22.0820   20.5960 C   0  0  0  0  0  3  0  0  0  0  0  0
  -24.3610  -23.1420   20.4410 C   0  0  0  0  0  0  0  0  0  0  0  0
  -26.1440  -20.4470   20.4120 C   0  0  0  0  0  3  0  0  0  0  0  0
  -23.6950  -20.6530   20.6740 C   0  0  0  0  0  0  0  0  0  0  0  0
  -22.4850  -19.7650   20.9000 C   0  0  0  0  0  1  0  0  0  0  0  0
  -24.8900  -19.9300   20.5910 N   0  0  0  0  0  0  0  0  0  0  0  0
  -27.5770  -19.0090   20.3300 C   0  0  0  0  0  1  0  0  0  0  0  0
  -28.0690  -17.4190   20.4100 C   0  0  0  0  0  2  0  0  0  0  0  0
  -29.3960  -16.0760   20.3070 C   0  0  0  0  0  0  0  0  0  0  0  0
  -30.2380  -13.4810   19.6050 C   0  0  0  0  0  2  0  0  0  0  0  0
  -29.5190  -12.7870   18.3940 C   0  0  0  0  0  2  0  0  0  0  0  0
  -28.1310  -12.2720   18.8000 C   0  0  0  0  0  2  0  0  0  0  0  0
  -27.4840  -13.2750   19.7740 C   0  0  0  0  0  3  0  0  0  0  0  0
  -28.3660  -13.7010   20.9400 C   0  0  0  0  0  2  0  0  0  0  0  0
  -29.3430  -14.5690   20.3060 N   0  0  0  0  0  0  0  0  0  0  0  0
  -30.6560  -16.1790   20.1390 O   0  0  0  0  0  0  0  0  0  0  0  0
  -25.1770  -13.8040   20.5560 C   0  0  0  0  0  0  0  0  0  0  0  0
  -24.1300  -13.0250   20.9310 C   0  0  0  0  0  0  0  0  0  0  0  0
  -24.6040  -11.6770   20.8790 C   0  0  0  0  0  0  0  0  0  0  0  0
  -26.1960  -12.9230   20.2720 N   0  0  0  0  0  0  0  0  0  0  0  0
  -25.8870  -11.6390   20.5480 N   0  0  0  0  0  0  0  0  0  0  0  0
  -23.8860  -10.4160   21.0470 C   0  0  0  0  0  0  0  0  0  0  0  0
  -24.3510   -9.4120   21.9220 C   0  0  0  0  0  3  0  0  0  0  0  0
  -23.6230   -8.2140   22.0770 C   0  0  0  0  0  3  0  0  0  0  0  0
  -22.4220   -8.0190   21.3550 C   0  0  0  0  0  0  0  0  0  0  0  0
  -21.9800   -9.0130   20.4650 C   0  0  0  0  0  3  0  0  0  0  0  0
  -22.7080  -10.2010   20.3070 C   0  0  0  0  0  3  0  0  0  0  0  0
  -21.6600   -6.8790   21.4240 O   0  0  0  0  0  0  0  0  0  0  0  0
  -21.6820   -6.0680   22.5290 C   0  0  0  0  0  0  0  0  0  0  0  0
  -21.3990   -6.5610   23.8210 C   0  0  0  0  0  3  0  0  0  0  0  0
  -21.3650   -5.6780   24.9180 C   0  0  0  0  0  3  0  0  0  0  0  0
  -21.6040   -4.3040   24.7240 C   0  0  0  0  0  0  0  0  0  0  0  0
  -21.8820   -3.8120   23.4370 C   0  0  0  0  0  3  0  0  0  0  0  0
  -21.9180   -4.6920   22.3420 C   0  0  0  0  0  0  0  0  0  0  0  0
  -22.1660   -4.2100   21.0990 F   0  0  0  0  0  0  0  0  0  0  0  0
  -21.5630   -3.4540   25.7760 F   0  0  0  0  0  0  0  0  0  0  0  0
  -22.7410  -13.5070   21.2020 C   0  0  0  0  0  0  0  0  0  0  0  0
  -22.0130  -12.8070   22.0610 N   0  0  0  0  0  0  0  0  0  0  0  0
  -22.3150  -14.5400   20.6860 O   0  0  0  0  0  0  0  0  0  0  0  0
  -22.3780  -11.9700   22.4910 H   0  0  0  0  0  0  0  0  0  0  0  0
  -21.0780  -13.1130   22.2920 H   0  0  0  0  0  0  0  0  0  0  0  0
  -25.3390  -15.1740   20.3880 N   0  0  0  0  0  0  0  0  0  0  0  0
  -24.5590  -15.8140   20.4800 H   0  0  0  0  0  0  0  0  0  0  0  0
  -26.1110  -15.5700   19.8730 H   0  0  0  0  0  0  0  0  0  0  0  0
  -21.7590  -28.0800   20.7770 C   0  0  0  0  0 15  0  0  0  0  0  0
  -22.3050  -29.6370   22.5210 C   0  0  0  0  0 15  0  0  0  0  0  0
  -24.3230  -29.4000   23.5420 C   0  0  0  0  0 15  0  0  0  0  0  0
  -25.9710  -28.6760   22.6500 O   0  0  0  0  0  1  0  0  0  0  0  0
  -24.6900  -31.8470   22.7180 C   0  0  0  0  0  0  0  0  0  0  0  0
  -26.6050  -27.9890   21.4390 C   0  0  0  0  0  3  0  0  0  0  0  0
  -24.0930  -29.3900   21.0890 C   0  0  0  0  0  2  0  0  0  0  0  0
  -25.4090  -28.9920   19.4470 C   0  0  0  0  0  3  0  0  0  0  0  0
  -26.0500  -31.0290   20.8620 C   0  0  0  0  0  2  0  0  0  0  0  0
  -26.4060  -29.7200   20.1690 C   0  0  0  0  0  3  0  0  0  0  0  0
  -27.3680  -28.9470   20.8080 C   0  0  0  0  0  2  0  0  0  0  0  0
  -26.1040  -27.0420   20.4630 C   0  0  0  0  0  2  0  0  0  0  0  0
  -25.4270  -27.5950   19.3760 C   0  0  0  0  0  2  0  0  0  0  0  0
  -24.0900  -29.4860   19.5690 C   0  0  0  0  0  2  0  0  0  0  0  0
  -24.8060  -30.8790   21.6100 N   0  0  0  0  0  0  0  0  0  0  0  0
  -23.5970  -32.1200   23.2550 O   0  0  0  0  0  0  0  0  0  0  0  0
  -23.6570  -27.6310   22.1480 C   0  0  0  0  0  2  0  0  0  0  0  0
  -22.4120  -27.3580   23.0070 N   0  0  0  0  0  0  0  0  0  0  0  0
  -24.3730  -26.9690   22.8270 O   0  0  0  0  0  1  0  0  0  0  0  0
  -22.7370  -26.6620   23.6620 H   0  0  0  0  0  0  0  0  0  0  0  0
  -18.1820  -28.0930   22.7650 C   0  0  0  0  0  0  0  0  0  0  0  0
  -20.7910  -27.5560   23.2930 C   0  0  0  0  0  3  0  0  0  0  0  0
  -20.3410  -26.2140   22.7890 C   0  0  0  0  0  2  0  0  0  0  0  0
  -19.3540  -26.1560   21.6290 C   0  0  0  0  0  2  0  0  0  0  0  0
  -18.0520  -26.7730   22.0500 C   0  0  0  0  0  2  0  0  0  0  0  0
  -19.4550  -28.6060   23.2420 C   0  0  0  0  0  0  0  0  0  0  0  0
  -19.2620  -29.8770   23.9150 C   0  0  0  0  0  3  0  0  0  0  0  0
  -17.9960  -30.5320   24.0710 C   0  0  0  0  0  3  0  0  0  0  0  0
  -16.8080  -29.9450   23.6150 C   0  0  0  0  0  3  0  0  0  0  0  0
  -16.9210  -28.7200   22.9600 C   0  0  0  0  0  3  0  0  0  0  0  0
  -25.9120  -32.4610   23.6020 C   0  0  0  0  0  3  0  0  0  0  0  0
  -25.5260  -33.8160   24.0500 N   0  0  0  0  0  0  0  0  0  0  0  0
  -25.9040  -34.9480   23.4460 C   0  0  0  0  0  0  0  0  0  0  0  0
  -26.6140  -34.9420   22.4380 O   0  0  0  0  0  0  0  0  0  0  0  0
  -24.8860  -33.8700   24.8280 H   0  0  0  0  0  0  0  0  0  0  0  0
  -24.1400  -36.7380   23.2730 C   0  0  0  0  0  1  0  0  0  0  0  0
  -25.4060  -36.2910   24.0220 C   0  0  0  0  0  3  0  0  0  0  0  0
  -27.5540  -37.1710   24.8440 C   0  0  0  0  0  1  0  0  0  0  0  0
  -26.4130  -37.3740   23.9550 N   0  0  0  0  0  0  0  0  0  0  0  0
  -25.9920  -38.2700   24.1850 H   0  0  0  0  0  0  0  0  0  0  0  0
  -26.4430  -31.7030   24.9410 C   0  0  1  0  0  0  0  0  0  0  0  0
  -25.3910  -31.5070   26.0830 C   0  0  0  0  0  1  0  0  0  0  0  0
  -27.1540  -30.3650   24.6070 C   0  0  0  0  0  1  0  0  0  0  0  0
  -27.5690  -32.5280   25.6270 C   0  0  0  0  0  1  0  0  0  0  0  0
  1  2  1  0
  3  6  2  0
  3  5  1  0
  4  7  1  0
  5  2  1  0
  5  4  2  0
  6  9  1  0
  7  8  1  0
  9  7  2  0
 10 11  1  0
 12 11  1  0
 13 18  1  0
 14 15  1  0
 14 13  1  0
 16 15  1  0
 16 23  1  0
 16 17  1  0
 18 12  1  0
 18 17  1  0
 19 12  2  0
 20 21  2  0
 21 40  1  0
 22 21  1  0
 22 25  1  0
 23 24  1  0
 23 20  1  0
 24 22  2  0
 25 26  1  0
 26 27  2  0
 28 31  1  0
 28 27  1  0
 29 28  2  0
 30 29  1  0
 30 25  2  0
 31 32  1  0
 32 33  1  0
 33 34  2  0
 35 34  1  0
 35 39  1  0
 36 35  2  0
 37 32  2  0
 37 36  1  0
 38 37  1  0
 40 41  1  0
 41 44  1  0
 41 43  1  0
 42 40  2  0
 45 46  1  0
 45 20  1  0
 47 45  1  0
 52 63  2  0
 53 51  1  0
 54 62  1  0
 55 60  1  0
 55 61  1  0
 55 57  1  0
 56 62  1  0
 57 58  1  0
 57 56  1  0
 58 53  1  0
 59 53  1  0
 60 59  1  0
 61 54  1  0
 62 52  1  0
 64 66  1  0
 64 65  1  0
 65 67  1  0
 68 77  2  0
 68 73  1  0
 69 65  1  0
 70 69  1  0
 71 72  1  0
 71 70  1  0
 72 68  1  0
 73 69  1  0
 73 74  2  0
 74 75  1  0
 76 75  2  0
 77 76  1  0
 78 52  1  0
 78 79  1  0
 78 88  1  0
 79 82  1  0
 80 84  1  0
 80 79  1  0
 81 80  2  0
 84 83  1  0
 86 84  1  0
 86 87  1  0
 86 85  1  0
 88 91  1  1
 88 89  1  0
 90 88  1  0
M  ISO  4  11 100  12 100  50 101  51 101
M  END
>  <TORSDO>  (8) 
F 21

>  <SCORE>  (8) 
12.290

>  <name>  (8) 
7

>  <ligand_id>  (8) 
7

>  <original_smiles>  (8) 
[H]C(=Nc1c([H])c(C([H])=C([H])C(=O)N2C([H])([H])C([H])([H])C([H])([H])C([H])(n3nc(-c4c([H])c([H])c(Oc5c([H])c([H])c(F)c([H])c5F)c([H])c4[H])c(C(=O)N([H])[H])c3N([H])[H])C2([H])[H])nc(C([H])([H])[H])c1[H])C([H])([H])C([H])([H])C([H])([H])Oc1c([H])c([H])c2c(c1[H])C([H])([H])N(C(=O)C([H])(N([H])C(=O)C([H])(N([H])C([H])([H])[H])C([H])([H])[H])C(C([H])([H])[H])(C([H])([H])[H])C([H])([H])[H])C([H])(C(=O)N([H])C1([H])c3c([H])c([H])c([H])c([H])c3C([H])([H])C([H])([H])C1([H])[H])C2([H])[H]

>  <smiles>  (8) 
[H]C(=Nc1c([H])c(C([H])=C([H])C(=O)N2C([H])([H])C([H])([H])C([H])([H])C([H])(n3nc(-c4c([H])c([H])c(Oc5c([H])c([H])c(F)c([H])c5F)c([H])c4[H])c(C(=O)N([H])[H])c3N([H])[H])C2([H])[H])nc(C([H])([H])[H])c1[H])C([H])([H])C([H])([H])C([H])([H])Oc1c([H])c([H])c2c(c1[H])C([H])([H])N(C(=O)C([H])(N([H])C(=O)C([H])(N([H])C([H])([H])[H])C([H])([H])[H])C(C([H])([H])[H])(C([H])([H])[H])C([H])([H])[H])C([H])(C(=O)N([H])C1([H])c3c([H])c([H])c([H])c([H])c3C([H])([H])C([H])([H])C1([H])[H])C2([H])[H]

$$$$
8:0:0
     RDKit          3D

 92100  0  0  1  0  0  0  0  0999 V2000
  -32.0920  -18.9490   21.0040 C   0  0  0  0  0  3  0  0  0  0  0  0
  -31.6420  -17.6280   20.9160 C   0  0  0  0  0  3  0  0  0  0  0  0
  -29.8140  -19.8640   20.7430 C   0  0  0  0  0  0  0  0  0  0  0  0
  -31.2160  -20.0490   20.9400 C   0  0  0  0  0  0  0  0  0  0  0  0
  -29.3720  -18.4630   20.6400 C   0  0  0  0  0  0  0  0  0  0  0  0
  -30.2800  -17.3140   20.7270 C   0  0  0  0  0  0  0  0  0  0  0  0
  -31.8610  -21.4070   21.1830 C   0  0  0  0  0  1  0  0  0  0  0  0
  -30.6330  -14.7190   20.4660 C   0  0  0  0  0  0  0  0  0  0  0  0
  -30.4220  -12.4370   19.4740 C   0  0  0  0  0  2  0  0  0  0  0  0
  -29.5050  -12.5030   18.2350 C   0  0  0  0  0  2  0  0  0  0  0  0
  -28.0310  -12.3330   18.6470 C   0  0  0  0  0  2  0  0  0  0  0  0
  -27.6390  -13.2330   19.8490 C   0  0  0  0  0  3  0  0  0  0  0  0
  -28.6820  -13.1660   20.9860 C   0  0  0  0  0  2  0  0  0  0  0  0
  -29.9850  -13.5060   20.4030 N   0  0  0  0  0  0  0  0  0  0  0  0
  -31.8190  -14.7710   20.1310 O   0  0  0  0  0  0  0  0  0  0  0  0
  -29.8840  -15.8730   20.6820 N   0  0  0  0  0  0  0  0  0  0  0  0
  -28.9000  -15.6950   20.8080 H   0  0  0  0  0  0  0  0  0  0  0  0
  -25.2490  -13.8200   20.5680 C   0  0  0  0  0  0  0  0  0  0  0  0
  -24.1790  -13.0440   20.9220 C   0  0  0  0  0  0  0  0  0  0  0  0
  -24.6390  -11.6920   20.8760 C   0  0  0  0  0  0  0  0  0  0  0  0
  -26.2920  -12.9410   20.3270 N   0  0  0  0  0  0  0  0  0  0  0  0
  -25.9320  -11.6560   20.5760 N   0  0  0  0  0  0  0  0  0  0  0  0
  -23.9070  -10.4300   21.0410 C   0  0  0  0  0  0  0  0  0  0  0  0
  -24.3620   -9.4210   21.9190 C   0  0  0  0  0  3  0  0  0  0  0  0
  -23.6290   -8.2240   22.0760 C   0  0  0  0  0  3  0  0  0  0  0  0
  -22.4270   -8.0280   21.3550 C   0  0  0  0  0  0  0  0  0  0  0  0
  -21.9910   -9.0250   20.4650 C   0  0  0  0  0  3  0  0  0  0  0  0
  -22.7240  -10.2130   20.3060 C   0  0  0  0  0  3  0  0  0  0  0  0
  -21.6640   -6.8880   21.4240 O   0  0  0  0  0  0  0  0  0  0  0  0
  -21.6850   -6.0730   22.5280 C   0  0  0  0  0  0  0  0  0  0  0  0
  -21.4010   -6.5640   23.8210 C   0  0  0  0  0  3  0  0  0  0  0  0
  -21.3660   -5.6790   24.9170 C   0  0  0  0  0  3  0  0  0  0  0  0
  -21.6040   -4.3050   24.7220 C   0  0  0  0  0  0  0  0  0  0  0  0
  -21.8820   -3.8150   23.4340 C   0  0  0  0  0  3  0  0  0  0  0  0
  -21.9190   -4.6960   22.3400 C   0  0  0  0  0  0  0  0  0  0  0  0
  -22.1660   -4.2150   21.0980 F   0  0  0  0  0  0  0  0  0  0  0  0
  -21.5630   -3.4540   25.7740 F   0  0  0  0  0  0  0  0  0  0  0  0
  -22.7810  -13.5220   21.1870 C   0  0  0  0  0  0  0  0  0  0  0  0
  -22.0460  -12.8210   22.0430 N   0  0  0  0  0  0  0  0  0  0  0  0
  -22.3490  -14.5520   20.6710 O   0  0  0  0  0  0  0  0  0  0  0  0
  -22.4080  -11.9880   22.4820 H   0  0  0  0  0  0  0  0  0  0  0  0
  -21.1070  -13.1230   22.2630 H   0  0  0  0  0  0  0  0  0  0  0  0
  -25.4150  -15.1920   20.4030 N   0  0  0  0  0  0  0  0  0  0  0  0
  -24.6360  -15.8340   20.4890 H   0  0  0  0  0  0  0  0  0  0  0  0
  -26.2370  -15.6200   20.0000 H   0  0  0  0  0  0  0  0  0  0  0  0
  -28.8870  -21.1190   20.7370 C   0  0  0  0  0  3  0  0  0  0  0  0
  -29.1100  -22.4340   20.3430 C   0  0  0  0  0  3  0  0  0  0  0  0
  -28.2440  -23.7420   20.6000 C   0  0  0  0  0  2  0  0  0  0  0  0
  -28.4460  -25.0470   19.6720 C   0  0  0  0  0  2  0  0  0  0  0  0
  -28.3570  -26.4430   20.2040 O   0  0  0  0  0  0  0  0  0  0  0  0
  -24.6280  -31.8550   23.1970 C   0  0  0  0  0  0  0  0  0  0  0  0
  -27.2240  -27.2770   20.1250 C   0  0  0  0  0  0  0  0  0  0  0  0
  -23.4240  -30.4750   21.5400 C   0  0  0  0  0  3  0  0  0  0  0  0
  -24.8710  -28.9200   20.1080 C   0  0  0  0  0  0  0  0  0  0  0  0
  -25.9660  -30.7730   21.3730 C   0  0  0  0  0  2  0  0  0  0  0  0
  -26.0390  -29.3950   20.7160 C   0  0  0  0  0  0  0  0  0  0  0  0
  -27.2140  -28.5840   20.7150 C   0  0  0  0  0  3  0  0  0  0  0  0
  -26.0320  -26.8550   19.4980 C   0  0  0  0  0  3  0  0  0  0  0  0
  -24.8720  -27.6580   19.4890 C   0  0  0  0  0  3  0  0  0  0  0  0
  -23.6410  -29.8050   20.1560 C   0  0  0  0  0  2  0  0  0  0  0  0
  -24.6920  -31.0520   22.0930 N   0  0  0  0  0  0  0  0  0  0  0  0
  -23.5450  -32.1360   23.7290 O   0  0  0  0  0  0  0  0  0  0  0  0
  -22.7490  -29.4590   22.4910 C   0  0  0  0  0  0  0  0  0  0  0  0
  -21.4200  -29.3030   22.3670 N   0  0  0  0  0  0  0  0  0  0  0  0
  -23.4200  -28.8130   23.3010 O   0  0  0  0  0  0  0  0  0  0  0  0
  -20.9380  -29.8760   21.6890 H   0  0  0  0  0  0  0  0  0  0  0  0
  -18.0290  -28.1390   22.8480 C   0  0  0  0  0  0  0  0  0  0  0  0
  -20.5890  -28.3680   23.1280 C   0  0  0  0  0  3  0  0  0  0  0  0
  -20.6770  -26.9400   22.5420 C   0  0  0  0  0  2  0  0  0  0  0  0
  -19.5750  -26.6380   21.5210 C   0  0  0  0  0  2  0  0  0  0  0  0
  -18.1930  -26.7930   22.1630 C   0  0  0  0  0  2  0  0  0  0  0  0
  -19.1540  -28.8850   23.2870 C   0  0  0  0  0  0  0  0  0  0  0  0
  -18.9470  -30.1450   23.8890 C   0  0  0  0  0  3  0  0  0  0  0  0
  -17.6460  -30.6580   24.0560 C   0  0  0  0  0  3  0  0  0  0  0  0
  -16.5360  -29.9080   23.6330 C   0  0  0  0  0  3  0  0  0  0  0  0
  -16.7280  -28.6500   23.0350 C   0  0  0  0  0  3  0  0  0  0  0  0
  -25.9120  -32.4750   23.8310 C   0  0  0  0  0  3  0  0  0  0  0  0
  -26.4500  -31.6580   25.0700 C   0  0  1  0  0  0  0  0  0  0  0  0
  -25.3720  -31.3740   26.1420 C   0  0  0  0  0  1  0  0  0  0  0  0
  -27.0340  -30.3000   24.6180 C   0  0  0  0  0  1  0  0  0  0  0  0
  -27.6050  -32.4320   25.7480 C   0  0  0  0  0  1  0  0  0  0  0  0
  -25.5920  -33.8550   24.2240 N   0  0  0  0  0  0  0  0  0  0  0  0
  -25.9060  -34.9440   23.5090 C   0  0  0  0  0  0  0  0  0  0  0  0
  -26.5630  -34.8910   22.4660 O   0  0  0  0  0  0  0  0  0  0  0  0
  -25.0040  -33.9680   25.0370 H   0  0  0  0  0  0  0  0  0  0  0  0
  -24.1490  -36.7280   23.2640 C   0  0  0  0  0  1  0  0  0  0  0  0
  -25.4120  -36.3060   24.0320 C   0  0  0  0  0  3  0  0  0  0  0  0
  -27.5580  -37.1790   24.8460 C   0  0  0  0  0  1  0  0  0  0  0  0
  -26.4290  -37.3760   23.9410 N   0  0  0  0  0  0  0  0  0  0  0  0
  -26.0170  -38.2830   24.1420 H   0  0  0  0  0  0  0  0  0  0  0  0
  -27.4880  -18.2630   18.9550 C   0  0  0  0  0  1  0  0  0  0  0  0
  -27.8890  -18.1810   20.4330 C   0  0  0  0  0  2  0  0  0  0  0  0
  2  1  2  0
  3  4  2  0
  4  1  1  0
  4  7  1  0
  5  6  2  0
  5  3  1  0
  6  2  1  0
  8 16  1  0
  9 14  1  0
 10 11  1  0
 10  9  1  0
 12 11  1  0
 12 21  1  0
 12 13  1  0
 14  8  1  0
 14 13  1  0
 15  8  2  0
 16  6  1  0
 16 17  1  0
 18 19  2  0
 19 38  1  0
 20 19  1  0
 20 23  1  0
 21 18  1  0
 21 22  1  0
 22 20  2  0
 23 24  1  0
 24 25  2  0
 26 29  1  0
 26 25  1  0
 27 26  2  0
 28 27  1  0
 28 23  2  0
 29 30  1  0
 30 31  1  0
 31 32  2  0
 33 32  1  0
 33 37  1  0
 34 33  2  0
 35 30  2  0
 35 34  1  0
 36 35  1  0
 38 39  1  0
 39 42  1  0
 39 41  1  0
 40 38  2  0
 43 44  1  0
 43 18  1  0
 45 43  1  0
 46  3  1  0
 47 48  1  0
 47 46  2  0
 49 50  1  0
 49 48  1  0
 51 62  2  0
 52 50  1  0
 52 57  1  0
 53 61  1  0
 53 63  1  0
 54 60  1  0
 54 56  1  0
 55 61  1  0
 56 55  1  0
 57 56  2  0
 58 52  2  0
 59 58  1  0
 59 54  2  0
 60 53  1  0
 61 51  1  0
 63 65  2  0
 64 63  1  0
 66 64  1  0
 67 76  2  0
 67 72  1  0
 68 64  1  0
 68 72  1  0
 69 68  1  0
 70 71  1  0
 70 69  1  0
 71 67  1  0
 72 73  2  0
 73 74  1  0
 75 74  2  0
 76 75  1  0
 77 51  1  0
 77 82  1  0
 77 78  1  0
 78 81  1  1
 78 79  1  0
 80 78  1  0
 82 85  1  0
 83 87  1  0
 83 82  1  0
 84 83  2  0
 87 86  1  0
 89 87  1  0
 89 90  1  0
 89 88  1  0
 91 92  1  0
 92  5  1  0
M  ISO  4   8 100  16 100  49 101  50 101
M  END
>  <TORSDO>  (9) 
F 20

>  <SCORE>  (9) 
-14.136

>  <name>  (9) 
8

>  <ligand_id>  (9) 
8

>  <original_smiles>  (9) 
[H]C(=C([H])C([H])([H])C([H])([H])Oc1c([H])c([H])c2c(c1[H])C([H])([H])N(C(=O)C([H])(N([H])C(=O)C([H])(N([H])C([H])([H])[H])C([H])([H])[H])C(C([H])([H])[H])(C([H])([H])[H])C([H])([H])[H])C([H])(C(=O)N([H])C1([H])c3c([H])c([H])c([H])c([H])c3C([H])([H])C([H])([H])C1([H])[H])C2([H])[H])c1c(C([H])([H])[H])c([H])c([H])c(N([H])C(=O)N2C([H])([H])C([H])([H])C([H])([H])C([H])(n3nc(-c4c([H])c([H])c(Oc5c([H])c([H])c(F)c([H])c5F)c([H])c4[H])c(C(=O)N([H])[H])c3N([H])[H])C2([H])[H])c1C([H])([H])C([H])([H])[H]

>  <smiles>  (9) 
[H]C(=C([H])C([H])([H])C([H])([H])Oc1c([H])c([H])c2c(c1[H])C([H])([H])N(C(=O)C([H])(N([H])C(=O)C([H])(N([H])C([H])([H])[H])C([H])([H])[H])C(C([H])([H])[H])(C([H])([H])[H])C([H])([H])[H])C([H])(C(=O)N([H])C1([H])c3c([H])c([H])c([H])c([H])c3C([H])([H])C([H])([H])C1([H])[H])C2([H])[H])c1c(C([H])([H])[H])c([H])c([H])c(N([H])C(=O)N2C([H])([H])C([H])([H])C([H])([H])C([H])(n3nc(-c4c([H])c([H])c(Oc5c([H])c([H])c(F)c([H])c5F)c([H])c4[H])c(C(=O)N([H])[H])c3N([H])[H])C2([H])[H])c1C([H])([H])C([H])([H])[H]

$$$$
9:0:0
     RDKit          3D

 92100  0  0  1  0  0  0  0  0999 V2000
  -29.1490  -20.2990   20.0780 C   0  0  0  0  0  3  0  0  0  0  0  0
  -29.5420  -21.5960   20.1990 C   0  0  0  0  0  3  0  0  0  0  0  0
  -29.4380  -17.7430   20.4270 C   0  0  0  0  0  3  0  0  0  0  0  0
  -30.4810  -16.9910   21.0570 C   0  0  0  0  0  0  0  0  0  0  0  0
  -29.7960  -19.0720   20.4970 C   0  0  0  0  0  0  0  0  0  0  0  0
  -31.4100  -17.9060   21.4710 C   0  0  0  0  0  0  0  0  0  0  0  0
  -32.6980  -17.8050   22.2230 C   0  0  0  0  0  1  0  0  0  0  0  0
  -31.0080  -19.1710   21.1240 O   0  0  0  0  0  0  0  0  0  0  0  0
  -30.5240  -15.5140   21.3340 C   0  0  0  0  0  0  0  0  0  0  0  0
  -30.3750  -15.0970   22.5250 N   0  0  0  0  0  0  0  0  0  0  0  0
  -30.4870  -14.0900   22.5630 H   0  0  0  0  0  0  0  0  0  0  0  0
  -30.8720  -14.5800   20.1560 C   0  0  0  0  0  0  0  0  0  0  0  0
  -30.3980  -12.5290   18.8390 C   0  0  0  0  0  2  0  0  0  0  0  0
  -29.3880  -12.8230   17.7070 C   0  0  0  0  0  2  0  0  0  0  0  0
  -27.9400  -12.6850   18.2120 C   0  0  0  0  0  2  0  0  0  0  0  0
  -27.7110  -13.4520   19.5390 C   0  0  0  0  0  3  0  0  0  0  0  0
  -28.8140  -13.1140   20.5640 C   0  0  0  0  0  2  0  0  0  0  0  0
  -30.1250  -13.4430   19.9680 N   0  0  0  0  0  0  0  0  0  0  0  0
  -31.8500  -14.8460   19.4500 O   0  0  0  0  0  0  0  0  0  0  0  0
  -25.3790  -14.0940   20.4210 C   0  0  0  0  0  0  0  0  0  0  0  0
  -24.3120  -13.3380   20.8240 C   0  0  0  0  0  0  0  0  0  0  0  0
  -24.7280  -11.9750   20.7010 C   0  0  0  0  0  0  0  0  0  0  0  0
  -26.3800  -13.1950   20.0850 N   0  0  0  0  0  0  0  0  0  0  0  0
  -25.9940  -11.9130   20.3080 N   0  0  0  0  0  0  0  0  0  0  0  0
  -23.9770  -10.7260   20.8810 C   0  0  0  0  0  0  0  0  0  0  0  0
  -24.4380   -9.7060   21.7420 C   0  0  0  0  0  3  0  0  0  0  0  0
  -23.6900   -8.5210   21.9110 C   0  0  0  0  0  3  0  0  0  0  0  0
  -22.4660   -8.3500   21.2210 C   0  0  0  0  0  0  0  0  0  0  0  0
  -22.0230   -9.3610   20.3490 C   0  0  0  0  0  3  0  0  0  0  0  0
  -22.7710  -10.5360   20.1760 C   0  0  0  0  0  3  0  0  0  0  0  0
  -21.6840   -7.2250   21.3040 O   0  0  0  0  0  0  0  0  0  0  0  0
  -21.6770   -6.4330   22.4260 C   0  0  0  0  0  0  0  0  0  0  0  0
  -21.3610   -6.9520   23.7010 C   0  0  0  0  0  3  0  0  0  0  0  0
  -21.2990   -6.0900   24.8150 C   0  0  0  0  0  3  0  0  0  0  0  0
  -21.5440   -4.7120   24.6540 C   0  0  0  0  0  0  0  0  0  0  0  0
  -21.8530   -4.1950   23.3840 C   0  0  0  0  0  3  0  0  0  0  0  0
  -21.9180   -5.0540   22.2730 C   0  0  0  0  0  0  0  0  0  0  0  0
  -22.1960   -4.5460   21.0470 F   0  0  0  0  0  0  0  0  0  0  0  0
  -21.4760   -3.8830   25.7220 F   0  0  0  0  0  0  0  0  0  0  0  0
  -22.9510  -13.8400   21.2100 C   0  0  0  0  0  0  0  0  0  0  0  0
  -22.2670  -13.1300   22.0990 N   0  0  0  0  0  0  0  0  0  0  0  0
  -22.5070  -14.8940   20.7570 O   0  0  0  0  0  0  0  0  0  0  0  0
  -22.6420  -12.2740   22.4830 H   0  0  0  0  0  0  0  0  0  0  0  0
  -21.3550  -13.4420   22.4000 H   0  0  0  0  0  0  0  0  0  0  0  0
  -25.5770  -15.4650   20.2880 N   0  0  0  0  0  0  0  0  0  0  0  0
  -24.8400  -16.1410   20.4590 H   0  0  0  0  0  0  0  0  0  0  0  0
  -26.4140  -15.8800   19.8980 H   0  0  0  0  0  0  0  0  0  0  0  0
  -28.7250  -22.7420   19.7020 C   0  0  0  0  0  0  0  0  0  0  0  0
  -27.8010  -22.5700   18.9000 O   0  0  0  0  0  0  0  0  0  0  0  0
  -29.0320  -24.1880   20.1960 C   0  0  0  0  0  2  0  0  0  0  0  0
  -28.0270  -25.2630   19.6630 C   0  0  0  0  0  2  0  0  0  0  0  0
  -28.1550  -26.6390   20.1390 O   0  0  0  0  0  0  0  0  0  0  0  0
  -24.4910  -31.9880   23.2370 C   0  0  0  0  0  0  0  0  0  0  0  0
  -27.0110  -27.4430   20.1200 C   0  0  0  0  0  0  0  0  0  0  0  0
  -23.2380  -30.5880   21.6370 C   0  0  0  0  0  3  0  0  0  0  0  0
  -24.6430  -29.0250   20.1940 C   0  0  0  0  0  0  0  0  0  0  0  0
  -25.7720  -30.8980   21.3900 C   0  0  0  0  0  2  0  0  0  0  0  0
  -25.8270  -29.5180   20.7530 C   0  0  0  0  0  0  0  0  0  0  0  0
  -27.0110  -28.7330   20.7210 C   0  0  0  0  0  3  0  0  0  0  0  0
  -25.8010  -27.0000   19.5300 C   0  0  0  0  0  3  0  0  0  0  0  0
  -24.6240  -27.7630   19.5870 C   0  0  0  0  0  3  0  0  0  0  0  0
  -23.4140  -29.9010   20.2590 C   0  0  0  0  0  2  0  0  0  0  0  0
  -24.5210  -31.1730   22.1430 N   0  0  0  0  0  0  0  0  0  0  0  0
  -23.4220  -32.2770   23.7950 O   0  0  0  0  0  0  0  0  0  0  0  0
  -22.5960  -29.5780   22.6160 C   0  0  0  0  0  0  0  0  0  0  0  0
  -21.2730  -29.3820   22.4960 N   0  0  0  0  0  0  0  0  0  0  0  0
  -23.2870  -28.9710   23.4400 O   0  0  0  0  0  0  0  0  0  0  0  0
  -20.7760  -29.9210   21.8010 H   0  0  0  0  0  0  0  0  0  0  0  0
  -17.9150  -28.1430   23.0000 C   0  0  0  0  0  0  0  0  0  0  0  0
  -20.4650  -28.4540   23.2890 C   0  0  0  0  0  3  0  0  0  0  0  0
  -20.5980  -27.0070   22.7600 C   0  0  0  0  0  2  0  0  0  0  0  0
  -19.5120  -26.6340   21.7460 C   0  0  0  0  0  2  0  0  0  0  0  0
  -18.1220  -26.7760   22.3730 C   0  0  0  0  0  2  0  0  0  0  0  0
  -19.0150  -28.9380   23.4160 C   0  0  0  0  0  0  0  0  0  0  0  0
  -18.7680  -30.2170   23.9600 C   0  0  0  0  0  3  0  0  0  0  0  0
  -17.4520  -30.6990   24.0980 C   0  0  0  0  0  3  0  0  0  0  0  0
  -16.3670  -29.9020   23.6990 C   0  0  0  0  0  3  0  0  0  0  0  0
  -16.5990  -28.6260   23.1540 C   0  0  0  0  0  3  0  0  0  0  0  0
  -25.7960  -32.6120   23.8220 C   0  0  0  0  0  3  0  0  0  0  0  0
  -25.5030  -34.0120   24.1530 N   0  0  0  0  0  0  0  0  0  0  0  0
  -25.8160  -35.0580   23.3770 C   0  0  0  0  0  0  0  0  0  0  0  0
  -26.4520  -34.9460   22.3260 O   0  0  0  0  0  0  0  0  0  0  0  0
  -24.9340  -34.1720   24.9710 H   0  0  0  0  0  0  0  0  0  0  0  0
  -24.0740  -36.8490   23.0740 C   0  0  0  0  0  1  0  0  0  0  0  0
  -25.3460  -36.4500   23.8410 C   0  0  0  0  0  3  0  0  0  0  0  0
  -27.5160  -37.3340   24.5770 C   0  0  0  0  0  1  0  0  0  0  0  0
  -26.3720  -37.5040   23.6840 N   0  0  0  0  0  0  0  0  0  0  0  0
  -25.9720  -38.4220   23.8550 H   0  0  0  0  0  0  0  0  0  0  0  0
  -26.3370  -31.8400   25.0880 C   0  0  1  0  0  0  0  0  0  0  0  0
  -25.2690  -31.6100   26.1800 C   0  0  0  0  0  1  0  0  0  0  0  0
  -26.9080  -30.4610   24.6860 C   0  0  0  0  0  1  0  0  0  0  0  0
  -27.5020  -32.6350   25.7250 C   0  0  0  0  0  1  0  0  0  0  0  0
  1  2  2  0
  1  5  1  0
  3  5  2  0
  3  4  1  0
  4  9  1  0
  4  6  2  0
  5  8  1  0
  6  7  1  0
  8  6  1  0
  9 10  2  0
 10 11  1  0
 12  9  1  0
 13 18  1  0
 14 15  1  0
 14 13  1  0
 16 15  1  0
 16 23  1  0
 16 17  1  0
 18 12  1  0
 18 17  1  0
 19 12  2  0
 20 21  2  0
 21 40  1  0
 22 21  1  0
 22 25  1  0
 23 24  1  0
 23 20  1  0
 24 22  2  0
 25 26  1  0
 26 27  2  0
 28 31  1  0
 28 27  1  0
 29 28  2  0
 30 29  1  0
 30 25  2  0
 31 32  1  0
 32 33  1  0
 33 34  2  0
 35 34  1  0
 35 39  1  0
 36 35  2  0
 37 32  2  0
 37 36  1  0
 38 37  1  0
 40 41  1  0
 41 44  1  0
 41 43  1  0
 42 40  2  0
 45 20  1  0
 45 46  1  0
 47 45  1  0
 48 50  1  0
 48  2  1  0
 49 48  2  0
 51 52  1  0
 51 50  1  0
 53 64  2  0
 54 52  1  0
 54 59  1  0
 55 63  1  0
 55 65  1  0
 56 62  1  0
 56 58  1  0
 57 63  1  0
 58 57  1  0
 59 58  2  0
 60 61  1  0
 60 54  2  0
 61 56  2  0
 62 55  1  0
 63 53  1  0
 65 67  2  0
 66 65  1  0
 68 66  1  0
 69 78  2  0
 69 74  1  0
 70 66  1  0
 70 74  1  0
 71 70  1  0
 72 73  1  0
 72 71  1  0
 73 69  1  0
 74 75  2  0
 75 76  1  0
 77 76  2  0
 78 77  1  0
 79 53  1  0
 79 80  1  0
 79 89  1  0
 80 83  1  0
 81 85  1  0
 81 80  1  0
 82 81  2  0
 85 84  1  0
 87 85  1  0
 87 88  1  0
 87 86  1  0
 89 92  1  1
 89 90  1  0
 91 89  1  0
M  ISO  4   9 100  12 100  51 101  52 101
M  END
>  <TORSDO>  (10) 
F 21

>  <SCORE>  (10) 
-10.695

>  <name>  (10) 
9

>  <ligand_id>  (10) 
9

>  <original_smiles>  (10) 
[H]N=C(C(=O)N1C([H])([H])C([H])([H])C([H])([H])C([H])(n2nc(-c3c([H])c([H])c(Oc4c([H])c([H])c(F)c([H])c4F)c([H])c3[H])c(C(=O)N([H])[H])c2N([H])[H])C1([H])[H])c1c(C([H])([H])[H])oc(C([H])=C([H])C(=O)C([H])([H])C([H])([H])Oc2c([H])c([H])c3c(c2[H])C([H])([H])N(C(=O)C([H])(N([H])C(=O)C([H])(N([H])C([H])([H])[H])C([H])([H])[H])C(C([H])([H])[H])(C([H])([H])[H])C([H])([H])[H])C([H])(C(=O)N([H])C2([H])c4c([H])c([H])c([H])c([H])c4C([H])([H])C([H])([H])C2([H])[H])C3([H])[H])c1[H]

>  <smiles>  (10) 
[H]N=C(C(=O)N1C([H])([H])C([H])([H])C([H])([H])C([H])(n2nc(-c3c([H])c([H])c(Oc4c([H])c([H])c(F)c([H])c4F)c([H])c3[H])c(C(=O)N([H])[H])c2N([H])[H])C1([H])[H])c1c(C([H])([H])[H])oc(C([H])=C([H])C(=O)C([H])([H])C([H])([H])Oc2c([H])c([H])c3c(c2[H])C([H])([H])N(C(=O)C([H])(N([H])C(=O)C([H])(N([H])C([H])([H])[H])C([H])([H])[H])C(C([H])([H])[H])(C([H])([H])[H])C([H])([H])[H])C([H])(C(=O)N([H])C2([H])c4c([H])c([H])c([H])c([H])c4C([H])([H])C([H])([H])C2([H])[H])C3([H])[H])c1[H]

$$$$
10:0:0
     RDKit          3D

 92100  0  0  1  0  0  0  0  0999 V2000
  -28.8610  -19.4110   20.8340 C   0  0  0  0  0  3  0  0  0  0  0  0
  -28.8510  -17.9900   20.9400 C   0  0  0  0  0  3  0  0  0  0  0  0
  -30.9780  -17.8840   19.8390 C   0  0  0  0  0  3  0  0  0  0  0  0
  -29.9480  -20.1230   20.2600 C   0  0  0  0  0  0  0  0  0  0  0  0
  -31.0050  -19.3100   19.7270 C   0  0  0  0  0  0  0  0  0  0  0  0
  -29.9150  -17.1810   20.4600 C   0  0  0  0  0  0  0  0  0  0  0  0
  -30.6030  -14.6880   20.1570 C   0  0  0  0  0  0  0  0  0  0  0  0
  -30.3350  -12.4830   19.0440 C   0  0  0  0  0  2  0  0  0  0  0  0
  -29.3420  -12.6620   17.8730 C   0  0  0  0  0  2  0  0  0  0  0  0
  -27.8870  -12.4990   18.3580 C   0  0  0  0  0  2  0  0  0  0  0  0
  -27.5890  -13.3260   19.6370 C   0  0  0  0  0  3  0  0  0  0  0  0
  -28.6900  -13.1230   20.7030 C   0  0  0  0  0  2  0  0  0  0  0  0
  -29.9790  -13.4700   20.0830 N   0  0  0  0  0  0  0  0  0  0  0  0
  -31.7440  -14.8490   19.7140 O   0  0  0  0  0  0  0  0  0  0  0  0
  -29.8270  -15.7250   20.6030 N   0  0  0  0  0  0  0  0  0  0  0  0
  -28.9600  -15.4010   21.0060 H   0  0  0  0  0  0  0  0  0  0  0  0
  -25.2280  -13.9220   20.4620 C   0  0  0  0  0  0  0  0  0  0  0  0
  -24.1720  -13.1460   20.8590 C   0  0  0  0  0  0  0  0  0  0  0  0
  -24.6250  -11.7940   20.7790 C   0  0  0  0  0  0  0  0  0  0  0  0
  -26.2570  -13.0410   20.1670 N   0  0  0  0  0  0  0  0  0  0  0  0
  -25.9010  -11.7550   20.4180 N   0  0  0  0  0  0  0  0  0  0  0  0
  -23.8990  -10.5310   20.9720 C   0  0  0  0  0  0  0  0  0  0  0  0
  -24.3330   -9.5650   21.9070 C   0  0  0  0  0  3  0  0  0  0  0  0
  -23.6100   -8.3670   22.0870 C   0  0  0  0  0  3  0  0  0  0  0  0
  -22.4370   -8.1260   21.3310 C   0  0  0  0  0  0  0  0  0  0  0  0
  -22.0210   -9.0800   20.3870 C   0  0  0  0  0  3  0  0  0  0  0  0
  -22.7460  -10.2710   20.2050 C   0  0  0  0  0  3  0  0  0  0  0  0
  -21.6850   -6.9790   21.4210 O   0  0  0  0  0  0  0  0  0  0  0  0
  -21.5930   -6.2670   22.5900 C   0  0  0  0  0  0  0  0  0  0  0  0
  -21.0750   -6.8400   23.7720 C   0  0  0  0  0  3  0  0  0  0  0  0
  -20.9350   -6.0520   24.9330 C   0  0  0  0  0  3  0  0  0  0  0  0
  -21.3020   -4.6930   24.9110 C   0  0  0  0  0  0  0  0  0  0  0  0
  -21.8120   -4.1200   23.7330 C   0  0  0  0  0  3  0  0  0  0  0  0
  -21.9550   -4.9050   22.5740 C   0  0  0  0  0  0  0  0  0  0  0  0
  -22.4270   -4.3440   21.4360 F   0  0  0  0  0  0  0  0  0  0  0  0
  -21.1590   -3.9340   26.0220 F   0  0  0  0  0  0  0  0  0  0  0  0
  -22.7890  -13.6240   21.1960 C   0  0  0  0  0  0  0  0  0  0  0  0
  -22.0930  -12.9170   22.0790 N   0  0  0  0  0  0  0  0  0  0  0  0
  -22.3340  -14.6590   20.7100 O   0  0  0  0  0  0  0  0  0  0  0  0
  -22.4740  -12.0800   22.4950 H   0  0  0  0  0  0  0  0  0  0  0  0
  -21.1670  -13.2200   22.3470 H   0  0  0  0  0  0  0  0  0  0  0  0
  -25.3940  -15.2950   20.3080 N   0  0  0  0  0  0  0  0  0  0  0  0
  -24.6330  -15.9480   20.4590 H   0  0  0  0  0  0  0  0  0  0  0  0
  -26.2210  -15.7340   19.9240 H   0  0  0  0  0  0  0  0  0  0  0  0
  -32.1690  -20.8990   18.1390 C   0  0  0  0  0  2  0  0  0  0  0  0
  -32.1610  -19.8510   18.9830 C   0  0  0  0  0  3  0  0  0  0  0  0
  -30.0030  -21.6480   20.2570 C   0  0  0  0  0  3  0  0  0  0  0  0
  -29.0190  -22.6040   20.2160 C   0  0  0  0  0  3  0  0  0  0  0  0
  -29.2850  -24.1030   20.2760 C   0  0  0  0  0  0  0  0  0  0  0  0
  -30.3780  -24.5500   20.6400 O   0  0  0  0  0  0  0  0  0  0  0  0
  -28.1620  -25.1240   19.8650 C   0  0  0  0  0  2  0  0  0  0  0  0
  -28.3820  -26.5490   20.2020 O   0  0  0  0  0  0  0  0  0  0  0  0
  -24.6050  -31.8860   23.2620 C   0  0  0  0  0  0  0  0  0  0  0  0
  -27.2570  -27.3890   20.1570 C   0  0  0  0  0  0  0  0  0  0  0  0
  -23.4150  -30.5020   21.6000 C   0  0  0  0  0  3  0  0  0  0  0  0
  -24.8800  -28.9800   20.1640 C   0  0  0  0  0  0  0  0  0  0  0  0
  -25.9540  -30.8360   21.4350 C   0  0  0  0  0  2  0  0  0  0  0  0
  -26.0430  -29.4680   20.7710 C   0  0  0  0  0  0  0  0  0  0  0  0
  -27.2350  -28.6830   20.7600 C   0  0  0  0  0  3  0  0  0  0  0  0
  -26.0670  -26.9550   19.5240 C   0  0  0  0  0  3  0  0  0  0  0  0
  -24.8920  -27.7280   19.5340 C   0  0  0  0  0  3  0  0  0  0  0  0
  -23.6390  -29.8460   20.2140 C   0  0  0  0  0  2  0  0  0  0  0  0
  -24.6770  -31.0910   22.1550 N   0  0  0  0  0  0  0  0  0  0  0  0
  -23.5170  -32.1540   23.7930 O   0  0  0  0  0  0  0  0  0  0  0  0
  -22.7520  -29.4720   22.5430 C   0  0  0  0  0  0  0  0  0  0  0  0
  -21.4260  -29.2930   22.4060 N   0  0  0  0  0  0  0  0  0  0  0  0
  -23.4270  -28.8360   23.3560 O   0  0  0  0  0  0  0  0  0  0  0  0
  -20.9410  -29.8570   21.7230 H   0  0  0  0  0  0  0  0  0  0  0  0
  -18.0420  -28.1160   22.9000 C   0  0  0  0  0  0  0  0  0  0  0  0
  -20.6040  -28.3450   23.1600 C   0  0  0  0  0  3  0  0  0  0  0  0
  -20.6890  -26.9270   22.5520 C   0  0  0  0  0  2  0  0  0  0  0  0
  -19.5780  -26.6360   21.5380 C   0  0  0  0  0  2  0  0  0  0  0  0
  -18.2020  -26.7790   22.1940 C   0  0  0  0  0  2  0  0  0  0  0  0
  -19.1700  -28.8580   23.3390 C   0  0  0  0  0  0  0  0  0  0  0  0
  -18.9660  -30.1100   23.9590 C   0  0  0  0  0  3  0  0  0  0  0  0
  -17.6670  -30.6190   24.1440 C   0  0  0  0  0  3  0  0  0  0  0  0
  -16.5530  -29.8730   23.7210 C   0  0  0  0  0  3  0  0  0  0  0  0
  -16.7410  -28.6240   23.1040 C   0  0  0  0  0  3  0  0  0  0  0  0
  -25.8820  -32.5150   23.8990 C   0  0  0  0  0  3  0  0  0  0  0  0
  -26.3760  -31.7460   25.1870 C   0  0  1  0  0  0  0  0  0  0  0  0
  -25.2620  -31.5100   26.2340 C   0  0  0  0  0  1  0  0  0  0  0  0
  -26.9670  -30.3690   24.8080 C   0  0  0  0  0  1  0  0  0  0  0  0
  -27.5150  -32.5410   25.8660 C   0  0  0  0  0  1  0  0  0  0  0  0
  -25.5740  -33.9160   24.2200 N   0  0  0  0  0  0  0  0  0  0  0  0
  -25.8850  -34.9610   23.4410 C   0  0  0  0  0  0  0  0  0  0  0  0
  -26.5320  -34.8470   22.3960 O   0  0  0  0  0  0  0  0  0  0  0  0
  -24.9960  -34.0770   25.0310 H   0  0  0  0  0  0  0  0  0  0  0  0
  -24.1280  -36.7330   23.1230 C   0  0  0  0  0  1  0  0  0  0  0  0
  -25.4030  -36.3530   23.8930 C   0  0  0  0  0  3  0  0  0  0  0  0
  -27.5540  -37.2750   24.6350 C   0  0  0  0  0  1  0  0  0  0  0  0
  -26.4220  -37.4120   23.7230 N   0  0  0  0  0  0  0  0  0  0  0  0
  -26.0120  -38.3320   23.8600 H   0  0  0  0  0  0  0  0  0  0  0  0
  1  2  1  0
  3  6  1  0
  4  1  2  0
  5  3  2  0
  5  4  1  0
  6 15  1  0
  6  2  2  0
  7 15  1  0
  8 13  1  0
  9 10  1  0
  9  8  1  0
 11 10  1  0
 11 20  1  0
 11 12  1  0
 13  7  1  0
 13 12  1  0
 14  7  2  0
 15 16  1  0
 17 18  2  0
 18 37  1  0
 19 18  1  0
 19 22  1  0
 20 21  1  0
 20 17  1  0
 21 19  2  0
 22 23  1  0
 23 24  2  0
 25 28  1  0
 25 24  1  0
 26 25  2  0
 27 26  1  0
 27 22  2  0
 28 29  1  0
 29 30  1  0
 30 31  2  0
 32 31  1  0
 32 36  1  0
 33 32  2  0
 34 29  2  0
 34 33  1  0
 35 34  1  0
 37 38  1  0
 38 41  1  0
 38 40  1  0
 39 37  2  0
 42 43  1  0
 42 17  1  0
 44 42  1  0
 45 46  2  0
 46  5  1  0
 47  4  1  0
 48 47  2  0
 48 49  1  0
 49 50  2  0
 51 52  1  0
 51 49  1  0
 53 64  2  0
 54 52  1  0
 54 59  1  0
 55 63  1  0
 55 65  1  0
 56 62  1  0
 56 58  1  0
 57 63  1  0
 58 57  1  0
 59 58  2  0
 60 61  1  0
 60 54  2  0
 61 56  2  0
 62 55  1  0
 63 53  1  0
 65 67  2  0
 66 65  1  0
 68 66  1  0
 69 78  2  0
 69 74  1  0
 70 66  1  0
 70 74  1  0
 71 70  1  0
 72 73  1  0
 72 71  1  0
 73 69  1  0
 74 75  2  0
 75 76  1  0
 77 76  2  0
 78 77  1  0
 79 53  1  0
 79 84  1  0
 79 80  1  0
 80 83  1  1
 80 81  1  0
 82 80  1  0
 84 87  1  0
 85 89  1  0
 85 84  1  0
 86 85  2  0
 89 88  1  0
 91 92  1  0
 91 89  1  0
 91 90  1  0
M  ISO  4   7 100  15 100  51 101  52 101
M  END
>  <TORSDO>  (11) 
F 20

>  <SCORE>  (11) 
-13.618

>  <name>  (11) 
10

>  <ligand_id>  (11) 
10

>  <original_smiles>  (11) 
[H]C([H])=C([H])c1c([H])c(N([H])C(=O)N2C([H])([H])C([H])([H])C([H])([H])C([H])(n3nc(-c4c([H])c([H])c(Oc5c([H])c([H])c(F)c([H])c5F)c([H])c4[H])c(C(=O)N([H])[H])c3N([H])[H])C2([H])[H])c([H])c([H])c1C([H])=C([H])C(=O)C([H])([H])Oc1c([H])c([H])c2c(c1[H])C([H])([H])N(C(=O)C([H])(N([H])C(=O)C([H])(N([H])C([H])([H])[H])C([H])([H])[H])C(C([H])([H])[H])(C([H])([H])[H])C([H])([H])[H])C([H])(C(=O)N([H])C1([H])c3c([H])c([H])c([H])c([H])c3C([H])([H])C([H])([H])C1([H])[H])C2([H])[H]

>  <smiles>  (11) 
[H]C([H])=C([H])c1c([H])c(N([H])C(=O)N2C([H])([H])C([H])([H])C([H])([H])C([H])(n3nc(-c4c([H])c([H])c(Oc5c([H])c([H])c(F)c([H])c5F)c([H])c4[H])c(C(=O)N([H])[H])c3N([H])[H])C2([H])[H])c([H])c([H])c1C([H])=C([H])C(=O)C([H])([H])Oc1c([H])c([H])c2c(c1[H])C([H])([H])N(C(=O)C([H])(N([H])C(=O)C([H])(N([H])C([H])([H])[H])C([H])([H])[H])C(C([H])([H])[H])(C([H])([H])[H])C([H])([H])[H])C([H])(C(=O)N([H])C1([H])c3c([H])c([H])c([H])c([H])c3C([H])([H])C([H])([H])C1([H])[H])C2([H])[H]

$$$$
11:0:0
     RDKit          3D

 91 99  0  0  1  0  0  0  0  0999 V2000
  -29.4820  -18.4790   20.6020 C   0  0  0  0  0  3  0  0  0  0  0  0
  -31.3210  -19.0490   18.6390 C   0  0  0  0  0  3  0  0  0  0  0  0
  -29.6940  -19.8850   20.2670 C   0  0  0  0  0  0  0  0  0  0  0  0
  -30.6820  -20.1280   19.2860 C   0  0  0  0  0  0  0  0  0  0  0  0
  -31.0490  -17.6950   18.9270 C   0  0  0  0  0  0  0  0  0  0  0  0
  -30.1600  -17.3440   19.9930 C   0  0  0  0  0  0  0  0  0  0  0  0
  -31.0980  -21.5250   18.8750 C   0  0  0  0  0  1  0  0  0  0  0  0
  -31.7110  -16.6960   17.9880 C   0  0  0  0  0  1  0  0  0  0  0  0
  -30.6170  -14.7620   20.3440 C   0  0  0  0  0  0  0  0  0  0  0  0
  -30.3830  -12.4830   19.3780 C   0  0  0  0  0  2  0  0  0  0  0  0
  -29.4500  -12.5530   18.1500 C   0  0  0  0  0  2  0  0  0  0  0  0
  -27.9800  -12.3840   18.5780 C   0  0  0  0  0  2  0  0  0  0  0  0
  -27.6010  -13.2840   19.7840 C   0  0  0  0  0  3  0  0  0  0  0  0
  -28.6620  -13.2200   20.9040 C   0  0  0  0  0  2  0  0  0  0  0  0
  -29.9600  -13.5540   20.3050 N   0  0  0  0  0  0  0  0  0  0  0  0
  -31.8320  -14.7860   20.1470 O   0  0  0  0  0  0  0  0  0  0  0  0
  -29.8660  -15.9310   20.3940 N   0  0  0  0  0  0  0  0  0  0  0  0
  -28.9220  -15.7790   20.7070 H   0  0  0  0  0  0  0  0  0  0  0  0
  -25.2080  -13.8710   20.5070 C   0  0  0  0  0  0  0  0  0  0  0  0
  -24.1430  -13.0940   20.8760 C   0  0  0  0  0  0  0  0  0  0  0  0
  -24.6110  -11.7460   20.8550 C   0  0  0  0  0  0  0  0  0  0  0  0
  -26.2560  -12.9950   20.2780 N   0  0  0  0  0  0  0  0  0  0  0  0
  -25.9040  -11.7120   20.5530 N   0  0  0  0  0  0  0  0  0  0  0  0
  -23.8870  -10.4820   21.0450 C   0  0  0  0  0  0  0  0  0  0  0  0
  -24.3260   -9.5120   21.9720 C   0  0  0  0  0  3  0  0  0  0  0  0
  -23.6050   -8.3120   22.1510 C   0  0  0  0  0  3  0  0  0  0  0  0
  -22.4270   -8.0740   21.4030 C   0  0  0  0  0  0  0  0  0  0  0  0
  -22.0080   -9.0310   20.4610 C   0  0  0  0  0  3  0  0  0  0  0  0
  -22.7310  -10.2230   20.2810 C   0  0  0  0  0  3  0  0  0  0  0  0
  -21.6750   -6.9290   21.4960 O   0  0  0  0  0  0  0  0  0  0  0  0
  -21.6410   -6.1780   22.6430 C   0  0  0  0  0  0  0  0  0  0  0  0
  -21.2340   -6.7230   23.8800 C   0  0  0  0  0  3  0  0  0  0  0  0
  -21.1490   -5.8980   25.0190 C   0  0  0  0  0  3  0  0  0  0  0  0
  -21.4600   -4.5280   24.9250 C   0  0  0  0  0  0  0  0  0  0  0  0
  -21.8580   -3.9820   23.6910 C   0  0  0  0  0  3  0  0  0  0  0  0
  -21.9460   -4.8040   22.5540 C   0  0  0  0  0  0  0  0  0  0  0  0
  -22.3110   -4.2670   21.3650 F   0  0  0  0  0  0  0  0  0  0  0  0
  -21.3700   -3.7340   26.0170 F   0  0  0  0  0  0  0  0  0  0  0  0
  -22.7430  -13.5680   21.1380 C   0  0  0  0  0  0  0  0  0  0  0  0
  -22.0110  -12.8720   22.0020 N   0  0  0  0  0  0  0  0  0  0  0  0
  -22.3060  -14.5890   20.6100 O   0  0  0  0  0  0  0  0  0  0  0  0
  -22.3780  -12.0500   22.4580 H   0  0  0  0  0  0  0  0  0  0  0  0
  -21.0690  -13.1690   22.2120 H   0  0  0  0  0  0  0  0  0  0  0  0
  -25.3650  -15.2410   20.3230 N   0  0  0  0  0  0  0  0  0  0  0  0
  -24.5930  -15.8910   20.4250 H   0  0  0  0  0  0  0  0  0  0  0  0
  -26.2010  -15.6800   19.9600 H   0  0  0  0  0  0  0  0  0  0  0  0
  -28.8880  -20.9970   20.9770 C   0  0  0  0  0  3  0  0  0  0  0  0
  -28.6650  -22.3740   21.0400 C   0  0  0  0  0  3  0  0  0  0  0  0
  -29.1200  -23.7490   20.3880 C   0  0  0  0  0  3  0  0  0  0  0  0
  -28.0320  -24.9450   20.4570 C   0  0  0  0  0  3  0  0  0  0  0  0
  -28.3270  -26.4060   20.2530 O   0  0  0  0  0  0  0  0  0  0  0  0
  -24.6140  -31.9030   23.2390 C   0  0  0  0  0  0  0  0  0  0  0  0
  -27.2280  -27.3000   20.2080 C   0  0  0  0  0  0  0  0  0  0  0  0
  -23.4140  -30.5010   21.6020 C   0  0  0  0  0  3  0  0  0  0  0  0
  -24.8700  -28.9460   20.1880 C   0  0  0  0  0  0  0  0  0  0  0  0
  -25.9620  -30.8110   21.4270 C   0  0  0  0  0  2  0  0  0  0  0  0
  -26.0430  -29.4260   20.7860 C   0  0  0  0  0  0  0  0  0  0  0  0
  -27.2260  -28.6170   20.7850 C   0  0  0  0  0  3  0  0  0  0  0  0
  -26.0310  -26.8970   19.5720 C   0  0  0  0  0  3  0  0  0  0  0  0
  -24.8700  -27.6870   19.5710 C   0  0  0  0  0  3  0  0  0  0  0  0
  -23.6340  -29.8230   20.2250 C   0  0  0  0  0  2  0  0  0  0  0  0
  -24.6830  -31.0890   22.1460 N   0  0  0  0  0  0  0  0  0  0  0  0
  -23.5260  -32.1820   23.7660 O   0  0  0  0  0  0  0  0  0  0  0  0
  -22.7500  -29.4860   22.5630 C   0  0  0  0  0  0  0  0  0  0  0  0
  -21.4220  -29.3140   22.4390 N   0  0  0  0  0  0  0  0  0  0  0  0
  -23.4260  -28.8580   23.3810 O   0  0  0  0  0  0  0  0  0  0  0  0
  -20.9360  -29.8780   21.7560 H   0  0  0  0  0  0  0  0  0  0  0  0
  -18.0350  -28.1420   22.9540 C   0  0  0  0  0  0  0  0  0  0  0  0
  -20.5980  -28.3810   23.2120 C   0  0  0  0  0  3  0  0  0  0  0  0
  -20.6830  -26.9510   22.6340 C   0  0  0  0  0  2  0  0  0  0  0  0
  -19.5730  -26.6360   21.6260 C   0  0  0  0  0  2  0  0  0  0  0  0
  -18.1960  -26.7910   22.2780 C   0  0  0  0  0  2  0  0  0  0  0  0
  -19.1610  -28.8940   23.3790 C   0  0  0  0  0  0  0  0  0  0  0  0
  -18.9550  -30.1590   23.9720 C   0  0  0  0  0  3  0  0  0  0  0  0
  -17.6540  -30.6670   24.1470 C   0  0  0  0  0  3  0  0  0  0  0  0
  -16.5420  -29.9120   23.7360 C   0  0  0  0  0  3  0  0  0  0  0  0
  -16.7330  -28.6510   23.1430 C   0  0  0  0  0  3  0  0  0  0  0  0
  -25.8910  -32.5390   23.8660 C   0  0  0  0  0  3  0  0  0  0  0  0
  -26.4010  -31.7730   25.1470 C   0  0  1  0  0  0  0  0  0  0  0  0
  -25.3040  -31.5400   26.2110 C   0  0  0  0  0  1  0  0  0  0  0  0
  -26.9860  -30.3920   24.7620 C   0  0  0  0  0  1  0  0  0  0  0  0
  -27.5490  -32.5710   25.8080 C   0  0  0  0  0  1  0  0  0  0  0  0
  -25.5770  -33.9390   24.1910 N   0  0  0  0  0  0  0  0  0  0  0  0
  -25.9110  -34.9900   23.4310 C   0  0  0  0  0  0  0  0  0  0  0  0
  -26.5870  -34.8880   22.4040 O   0  0  0  0  0  0  0  0  0  0  0  0
  -24.9760  -34.0930   24.9860 H   0  0  0  0  0  0  0  0  0  0  0  0
  -24.1850  -36.7860   23.0660 C   0  0  0  0  0  1  0  0  0  0  0  0
  -25.4200  -36.3800   23.8860 C   0  0  0  0  0  3  0  0  0  0  0  0
  -27.5500  -37.2640   24.7320 C   0  0  0  0  0  1  0  0  0  0  0  0
  -26.4540  -37.4320   23.7810 N   0  0  0  0  0  0  0  0  0  0  0  0
  -26.0470  -38.3530   23.9220 H   0  0  0  0  0  0  0  0  0  0  0  0
  2  5  2  0
  2  4  1  0
  3  1  1  0
  3 47  1  0
  4  3  2  0
  5  6  1  0
  6 17  1  0
  6  1  2  0
  7  4  1  0
  8  5  1  0
  9 17  1  0
 10 15  1  0
 11 12  1  0
 11 10  1  0
 13 12  1  0
 13 22  1  0
 13 14  1  0
 15  9  1  0
 15 14  1  0
 16  9  2  0
 17 18  1  0
 19 20  2  0
 20 39  1  0
 21 20  1  0
 21 24  1  0
 22 19  1  0
 22 23  1  0
 23 21  2  0
 24 25  1  0
 25 26  2  0
 27 30  1  0
 27 26  1  0
 28 27  2  0
 29 28  1  0
 29 24  2  0
 30 31  1  0
 31 32  1  0
 32 33  2  0
 34 33  1  0
 34 38  1  0
 35 34  2  0
 36 31  2  0
 36 35  1  0
 37 36  1  0
 39 40  1  0
 40 43  1  0
 40 42  1  0
 41 39  2  0
 44 45  1  0
 44 19  1  0
 46 44  1  0
 47 48  2  0
 49 50  2  0
 49 48  1  0
 51 50  1  0
 52 63  2  0
 53 51  1  0
 53 58  1  0
 54 62  1  0
 54 64  1  0
 55 61  1  0
 55 57  1  0
 56 62  1  0
 57 56  1  0
 58 57  2  0
 59 53  2  0
 60 59  1  0
 60 55  2  0
 61 54  1  0
 62 52  1  0
 64 66  2  0
 65 64  1  0
 67 65  1  0
 68 77  2  0
 68 73  1  0
 69 65  1  0
 69 73  1  0
 70 69  1  0
 71 72  1  0
 71 70  1  0
 72 68  1  0
 73 74  2  0
 74 75  1  0
 76 75  2  0
 77 76  1  0
 78 52  1  0
 78 83  1  0
 78 79  1  0
 79 82  1  1
 79 80  1  0
 81 79  1  0
 83 86  1  0
 84 88  1  0
 84 83  1  0
 85 84  2  0
 88 87  1  0
 90 88  1  0
 90 91  1  0
 90 89  1  0
M  ISO  4   9 100  17 100  50 101  51 101
M  END
>  <TORSDO>  (12) 
F 19

>  <SCORE>  (12) 
-14.386

>  <name>  (12) 
11

>  <ligand_id>  (12) 
11

>  <original_smiles>  (12) 
[H]C(=C([H])C([H])([H])C([H])([H])Oc1c([H])c([H])c2c(c1[H])C([H])([H])N(C(=O)C([H])(N([H])C(=O)C([H])(N([H])C([H])([H])[H])C([H])([H])[H])C(C([H])([H])[H])(C([H])([H])[H])C([H])([H])[H])C([H])(C(=O)N([H])C1([H])c3c([H])c([H])c([H])c([H])c3C([H])([H])C([H])([H])C1([H])[H])C2([H])[H])c1c([H])c(N([H])C(=O)N2C([H])([H])C([H])([H])C([H])([H])C([H])(n3nc(-c4c([H])c([H])c(Oc5c([H])c([H])c(F)c([H])c5F)c([H])c4[H])c(C(=O)N([H])[H])c3N([H])[H])C2([H])[H])c(C([H])([H])[H])c([H])c1C([H])([H])[H]

>  <smiles>  (12) 
[H]C(=C([H])C([H])([H])C([H])([H])Oc1c([H])c([H])c2c(c1[H])C([H])([H])N(C(=O)C([H])(N([H])C(=O)C([H])(N([H])C([H])([H])[H])C([H])([H])[H])C(C([H])([H])[H])(C([H])([H])[H])C([H])([H])[H])C([H])(C(=O)N([H])C1([H])c3c([H])c([H])c([H])c([H])c3C([H])([H])C([H])([H])C1([H])[H])C2([H])[H])c1c([H])c(N([H])C(=O)N2C([H])([H])C([H])([H])C([H])([H])C([H])(n3nc(-c4c([H])c([H])c(Oc5c([H])c([H])c(F)c([H])c5F)c([H])c4[H])c(C(=O)N([H])[H])c3N([H])[H])C2([H])[H])c(C([H])([H])[H])c([H])c1C([H])([H])[H]

$$$$
12:0:0
     RDKit          3D

 90 98  0  0  1  0  0  0  0  0999 V2000
  -30.5890  -19.5720   19.8940 C   0  0  0  0  0  3  0  0  0  0  0  0
  -30.3430  -20.9900   19.8890 C   0  0  0  0  0  3  0  0  0  0  0  0
  -28.3030  -19.2050   20.4940 C   0  0  0  0  0  3  0  0  0  0  0  0
  -29.5670  -18.6370   20.2290 C   0  0  0  0  0  0  0  0  0  0  0  0
  -29.0710  -21.5550   20.2070 C   0  0  0  0  0  3  0  0  0  0  0  0
  -28.0440  -20.6000   20.4780 C   0  0  0  0  0  0  0  0  0  0  0  0
  -26.6200  -21.0290   20.8120 C   0  0  0  0  0  1  0  0  0  0  0  0
  -29.6460  -17.1350   20.4770 C   0  0  0  0  0  0  0  0  0  0  0  0
  -29.8620  -15.7700   20.4830 C   0  0  0  0  0  3  0  0  0  0  0  0
  -30.4770  -14.7770   19.5560 C   0  0  0  0  0  0  0  0  0  0  0  0
  -30.1890  -12.5260   18.5000 C   0  0  0  0  0  2  0  0  0  0  0  0
  -29.1110  -12.6150   17.3980 C   0  0  0  0  0  2  0  0  0  0  0  0
  -27.6930  -12.4450   17.9830 C   0  0  0  0  0  2  0  0  0  0  0  0
  -27.4660  -13.3280   19.2380 C   0  0  0  0  0  3  0  0  0  0  0  0
  -28.6340  -13.1650   20.2300 C   0  0  0  0  0  2  0  0  0  0  0  0
  -29.8750  -13.5420   19.5280 N   0  0  0  0  0  0  0  0  0  0  0  0
  -31.4810  -15.0070   18.8720 O   0  0  0  0  0  0  0  0  0  0  0  0
  -25.1870  -13.9410   20.2600 C   0  0  0  0  0  0  0  0  0  0  0  0
  -24.1580  -13.1720   20.7330 C   0  0  0  0  0  0  0  0  0  0  0  0
  -24.5860  -11.8160   20.5990 C   0  0  0  0  0  0  0  0  0  0  0  0
  -26.1770  -13.0520   19.8690 N   0  0  0  0  0  0  0  0  0  0  0  0
  -25.8260  -11.7670   20.1300 N   0  0  0  0  0  0  0  0  0  0  0  0
  -23.8640  -10.5580   20.8360 C   0  0  0  0  0  0  0  0  0  0  0  0
  -24.3610   -9.5780   21.7210 C   0  0  0  0  0  3  0  0  0  0  0  0
  -23.6410   -8.3850   21.9470 C   0  0  0  0  0  3  0  0  0  0  0  0
  -22.4080   -8.1650   21.2870 C   0  0  0  0  0  0  0  0  0  0  0  0
  -21.9290   -9.1350   20.3890 C   0  0  0  0  0  3  0  0  0  0  0  0
  -22.6510  -10.3190   20.1610 C   0  0  0  0  0  3  0  0  0  0  0  0
  -21.6520   -7.0250   21.4250 O   0  0  0  0  0  0  0  0  0  0  0  0
  -21.6600   -6.2940   22.5860 C   0  0  0  0  0  0  0  0  0  0  0  0
  -21.2940   -6.8600   23.8270 C   0  0  0  0  0  3  0  0  0  0  0  0
  -21.2460   -6.0530   24.9810 C   0  0  0  0  0  3  0  0  0  0  0  0
  -21.5570   -4.6830   24.8960 C   0  0  0  0  0  0  0  0  0  0  0  0
  -21.9160   -4.1160   23.6610 C   0  0  0  0  0  3  0  0  0  0  0  0
  -21.9640   -4.9200   22.5070 C   0  0  0  0  0  0  0  0  0  0  0  0
  -22.2920   -4.3660   21.3160 F   0  0  0  0  0  0  0  0  0  0  0  0
  -21.5050   -3.9060   26.0030 F   0  0  0  0  0  0  0  0  0  0  0  0
  -22.8160  -13.6590   21.1940 C   0  0  0  0  0  0  0  0  0  0  0  0
  -22.1880  -12.9430   22.1210 N   0  0  0  0  0  0  0  0  0  0  0  0
  -22.3360  -14.7090   20.7660 O   0  0  0  0  0  0  0  0  0  0  0  0
  -22.5900  -12.0920   22.4860 H   0  0  0  0  0  0  0  0  0  0  0  0
  -21.2920  -13.2510   22.4680 H   0  0  0  0  0  0  0  0  0  0  0  0
  -25.3560  -15.3150   20.1120 N   0  0  0  0  0  0  0  0  0  0  0  0
  -24.6240  -15.9780   20.3410 H   0  0  0  0  0  0  0  0  0  0  0  0
  -26.1800  -15.7550   19.7250 H   0  0  0  0  0  0  0  0  0  0  0  0
  -28.7620  -23.0490   20.3390 C   0  0  0  0  0  3  0  0  0  0  0  0
  -29.3820  -24.2200   19.9850 C   0  0  0  0  0  3  0  0  0  0  0  0
  -29.6870  -26.1480   21.5890 C   0  0  0  0  0  1  0  0  0  0  0  0
  -28.8390  -25.6290   20.4180 C   0  0  0  0  0  3  0  0  0  0  0  0
  -28.7700  -26.7250   19.4330 O   0  0  0  0  0  0  0  0  0  0  0  0
  -24.6910  -31.5790   22.8760 C   0  0  0  0  0  0  0  0  0  0  0  0
  -27.6020  -27.4950   19.4810 C   0  0  0  0  0  0  0  0  0  0  0  0
  -23.5680  -30.2010   21.1600 C   0  0  0  0  0  3  0  0  0  0  0  0
  -25.1110  -28.8770   19.6070 C   0  0  0  0  0  0  0  0  0  0  0  0
  -26.0620  -30.7520   20.9520 C   0  0  0  0  0  2  0  0  0  0  0  0
  -26.2450  -29.4330   20.2150 C   0  0  0  0  0  0  0  0  0  0  0  0
  -27.4970  -28.7560   20.1410 C   0  0  0  0  0  3  0  0  0  0  0  0
  -26.4470  -26.9850   18.8520 C   0  0  0  0  0  3  0  0  0  0  0  0
  -25.2130  -27.6590   18.9160 C   0  0  0  0  0  3  0  0  0  0  0  0
  -23.8060  -29.6360   19.7340 C   0  0  0  0  0  2  0  0  0  0  0  0
  -24.7930  -30.8590   21.7210 N   0  0  0  0  0  0  0  0  0  0  0  0
  -23.6010  -31.7280   23.4480 O   0  0  0  0  0  0  0  0  0  0  0  0
  -23.0110  -29.0720   22.0580 C   0  0  0  0  0  0  0  0  0  0  0  0
  -21.6910  -28.8310   21.9770 N   0  0  0  0  0  0  0  0  0  0  0  0
  -23.7620  -28.4190   22.7880 O   0  0  0  0  0  0  0  0  0  0  0  0
  -21.1400  -29.4160   21.3640 H   0  0  0  0  0  0  0  0  0  0  0  0
  -18.3980  -27.4690   22.6010 C   0  0  0  0  0  0  0  0  0  0  0  0
  -20.9610  -27.7870   22.7000 C   0  0  0  0  0  3  0  0  0  0  0  0
  -21.0540  -26.4310   21.9620 C   0  0  0  0  0  2  0  0  0  0  0  0
  -19.8830  -26.1830   21.0060 C   0  0  0  0  0  2  0  0  0  0  0  0
  -18.5550  -26.2090   21.7670 C   0  0  0  0  0  2  0  0  0  0  0  0
  -19.5270  -28.2190   23.0250 C   0  0  0  0  0  0  0  0  0  0  0  0
  -19.3240  -29.4010   23.7700 C   0  0  0  0  0  3  0  0  0  0  0  0
  -18.0240  -29.8360   24.0900 C   0  0  0  0  0  3  0  0  0  0  0  0
  -16.9100  -29.0820   23.6790 C   0  0  0  0  0  3  0  0  0  0  0  0
  -17.0980  -27.9000   22.9420 C   0  0  0  0  0  3  0  0  0  0  0  0
  -25.9330  -32.2670   23.5220 C   0  0  0  0  0  3  0  0  0  0  0  0
  -26.5640  -31.4290   24.7020 C   0  0  1  0  0  0  0  0  0  0  0  0
  -25.5380  -30.9940   25.7740 C   0  0  0  0  0  1  0  0  0  0  0  0
  -27.2500  -30.1540   24.1600 C   0  0  0  0  0  1  0  0  0  0  0  0
  -27.6680  -32.2600   25.4010 C   0  0  0  0  0  1  0  0  0  0  0  0
  -25.5110  -33.5930   23.9960 N   0  0  0  0  0  0  0  0  0  0  0  0
  -25.7140  -34.7380   23.3320 C   0  0  0  0  0  0  0  0  0  0  0  0
  -26.3460  -34.7940   22.2730 O   0  0  0  0  0  0  0  0  0  0  0  0
  -24.9380  -33.6170   24.8270 H   0  0  0  0  0  0  0  0  0  0  0  0
  -23.8050  -36.3710   23.2260 C   0  0  0  0  0  1  0  0  0  0  0  0
  -25.1230  -36.0260   23.9370 C   0  0  0  0  0  3  0  0  0  0  0  0
  -27.2020  -37.0490   24.7460 C   0  0  0  0  0  1  0  0  0  0  0  0
  -26.0430  -37.1820   23.8670 N   0  0  0  0  0  0  0  0  0  0  0  0
  -25.5600  -38.0440   24.1080 H   0  0  0  0  0  0  0  0  0  0  0  0
  1  4  1  0
  2  1  2  0
  2  5  1  0
  4  8  2  0
  4  3  1  0
  5 46  1  0
  5  6  1  0
  6  3  2  0
  6  7  1  0
  8  9  2  0
 10  9  1  0
 11 16  1  0
 12 13  1  0
 12 11  1  0
 14 13  1  0
 14 21  1  0
 14 15  1  0
 16 10  1  0
 16 15  1  0
 17 10  2  0
 18 19  2  0
 19 38  1  0
 20 19  1  0
 20 23  1  0
 21 22  1  0
 21 18  1  0
 22 20  2  0
 23 24  1  0
 24 25  2  0
 26 29  1  0
 26 25  1  0
 27 26  2  0
 28 27  1  0
 28 23  2  0
 29 30  1  0
 30 31  1  0
 31 32  2  0
 33 32  1  0
 33 37  1  0
 34 33  2  0
 35 30  2  0
 35 34  1  0
 36 35  1  0
 38 39  1  0
 39 42  1  0
 39 41  1  0
 40 38  2  0
 43 18  1  0
 43 44  1  0
 45 43  1  0
 47 46  2  0
 47 49  1  0
 49 48  1  0
 50 52  1  0
 50 49  1  0
 51 62  2  0
 52 57  1  0
 53 61  1  0
 53 63  1  0
 54 60  1  0
 54 56  1  0
 55 61  1  0
 56 55  1  0
 57 56  2  0
 58 59  1  0
 58 52  2  0
 59 54  2  0
 60 53  1  0
 61 51  1  0
 63 65  2  0
 64 63  1  0
 66 64  1  0
 67 76  2  0
 67 72  1  0
 68 64  1  0
 68 72  1  0
 69 68  1  0
 70 71  1  0
 70 69  1  0
 71 67  1  0
 72 73  2  0
 73 74  1  0
 75 74  2  0
 76 75  1  0
 77 51  1  0
 77 82  1  0
 77 78  1  0
 78 81  1  1
 78 79  1  0
 80 78  1  0
 82 85  1  0
 83 87  1  0
 83 82  1  0
 84 83  2  0
 87 86  1  0
 89 87  1  0
 89 90  1  0
 89 88  1  0
M  ISO  4   9 100  10 100  49 101  50 101
M  END
>  <TORSDO>  (13) 
F 19

>  <SCORE>  (13) 
-10.155

>  <name>  (13) 
12

>  <ligand_id>  (13) 
12

>  <original_smiles>  (13) 
[H]C(C(=O)N1C([H])([H])C([H])([H])C([H])([H])C([H])(n2nc(-c3c([H])c([H])c(Oc4c([H])c([H])c(F)c([H])c4F)c([H])c3[H])c(C(=O)N([H])[H])c2N([H])[H])C1([H])[H])=C([H])c1c([H])c([H])c(C([H])=C([H])C([H])(Oc2c([H])c([H])c3c(c2[H])C([H])([H])N(C(=O)C([H])(N([H])C(=O)C([H])(N([H])C([H])([H])[H])C([H])([H])[H])C(C([H])([H])[H])(C([H])([H])[H])C([H])([H])[H])C([H])(C(=O)N([H])C2([H])c4c([H])c([H])c([H])c([H])c4C([H])([H])C([H])([H])C2([H])[H])C3([H])[H])C([H])([H])[H])c(C([H])([H])[H])c1[H]

>  <smiles>  (13) 
[H]C(C(=O)N1C([H])([H])C([H])([H])C([H])([H])C([H])(n2nc(-c3c([H])c([H])c(Oc4c([H])c([H])c(F)c([H])c4F)c([H])c3[H])c(C(=O)N([H])[H])c2N([H])[H])C1([H])[H])=C([H])c1c([H])c([H])c(C([H])=C([H])C([H])(Oc2c([H])c([H])c3c(c2[H])C([H])([H])N(C(=O)C([H])(N([H])C(=O)C([H])(N([H])C([H])([H])[H])C([H])([H])[H])C(C([H])([H])[H])(C([H])([H])[H])C([H])([H])[H])C([H])(C(=O)N([H])C2([H])c4c([H])c([H])c([H])c([H])c4C([H])([H])C([H])([H])C2([H])[H])C3([H])[H])C([H])([H])[H])c(C([H])([H])[H])c1[H]

$$$$
13:0:0
     RDKit          3D

 88 96  0  0  1  0  0  0  0  0999 V2000
  -30.8580  -20.8370   19.6270 C   0  0  0  0  0  3  0  0  0  0  0  0
  -29.5270  -21.0020   19.9280 C   0  0  0  0  0  0  0  0  0  0  0  0
  -28.9410  -19.7030   20.3070 C   0  0  0  0  0  0  0  0  0  0  0  0
  -29.8250  -18.5970   20.3250 C   0  0  0  0  0  0  0  0  0  0  0  0
  -27.4810  -19.5960   20.6610 C   0  0  0  0  0  1  0  0  0  0  0  0
  -31.3870  -19.1460   19.7560 S   0  0  0  0  0  0  0  0  0  0  0  0
  -28.7570  -22.3520   19.8440 C   0  0  0  0  0  3  0  0  0  0  0  0
  -29.1180  -23.6890   19.7010 C   0  0  0  0  0  3  0  0  0  0  0  0
  -28.1060  -24.9000   19.4450 C   0  0  0  0  0  2  0  0  0  0  0  0
  -28.3460  -26.3400   19.8370 O   0  0  0  0  0  0  0  0  0  0  0  0
  -24.4880  -31.6650   23.0270 C   0  0  0  0  0  0  0  0  0  0  0  0
  -27.2270  -27.2240   19.8180 C   0  0  0  0  0  0  0  0  0  0  0  0
  -23.3240  -30.2760   21.3560 C   0  0  0  0  0  3  0  0  0  0  0  0
  -24.8170  -28.8140   19.8770 C   0  0  0  0  0  0  0  0  0  0  0  0
  -25.8610  -30.6590   21.1810 C   0  0  0  0  0  2  0  0  0  0  0  0
  -25.9790  -29.2990   20.4890 C   0  0  0  0  0  0  0  0  0  0  0  0
  -27.1850  -28.5160   20.4540 C   0  0  0  0  0  3  0  0  0  0  0  0
  -26.0300  -26.8230   19.1740 C   0  0  0  0  0  3  0  0  0  0  0  0
  -24.8490  -27.5830   19.2110 C   0  0  0  0  0  3  0  0  0  0  0  0
  -23.5560  -29.6530   19.9560 C   0  0  0  0  0  2  0  0  0  0  0  0
  -24.5760  -30.8840   21.9100 N   0  0  0  0  0  0  0  0  0  0  0  0
  -23.3970  -31.8950   23.5690 O   0  0  0  0  0  0  0  0  0  0  0  0
  -22.6940  -29.2120   22.2870 C   0  0  0  0  0  0  0  0  0  0  0  0
  -21.3690  -29.0110   22.1730 N   0  0  0  0  0  0  0  0  0  0  0  0
  -23.3960  -28.5730   23.0750 O   0  0  0  0  0  0  0  0  0  0  0  0
  -20.8590  -29.5840   21.5150 H   0  0  0  0  0  0  0  0  0  0  0  0
  -18.0230  -27.7300   22.6890 C   0  0  0  0  0  0  0  0  0  0  0  0
  -20.5810  -28.0300   22.9210 C   0  0  0  0  0  3  0  0  0  0  0  0
  -20.6970  -26.6230   22.2920 C   0  0  0  0  0  2  0  0  0  0  0  0
  -19.5830  -26.3170   21.2860 C   0  0  0  0  0  2  0  0  0  0  0  0
  -18.2120  -26.4110   21.9610 C   0  0  0  0  0  2  0  0  0  0  0  0
  -19.1350  -28.4990   23.1270 C   0  0  0  0  0  0  0  0  0  0  0  0
  -18.9040  -29.7330   23.7710 C   0  0  0  0  0  3  0  0  0  0  0  0
  -17.5940  -30.2010   23.9810 C   0  0  0  0  0  3  0  0  0  0  0  0
  -16.4960  -29.4310   23.5580 C   0  0  0  0  0  3  0  0  0  0  0  0
  -16.7120  -28.1970   22.9180 C   0  0  0  0  0  3  0  0  0  0  0  0
  -25.7500  -32.3220   23.6640 C   0  0  0  0  0  3  0  0  0  0  0  0
  -26.2930  -31.5320   24.9170 C   0  0  1  0  0  0  0  0  0  0  0  0
  -25.2120  -31.2310   25.9820 C   0  0  0  0  0  1  0  0  0  0  0  0
  -26.9190  -30.1840   24.4900 C   0  0  0  0  0  1  0  0  0  0  0  0
  -27.4220  -32.3430   25.5970 C   0  0  0  0  0  1  0  0  0  0  0  0
  -25.3930  -33.6990   24.0360 N   0  0  0  0  0  0  0  0  0  0  0  0
  -25.6880  -34.7860   23.3110 C   0  0  0  0  0  0  0  0  0  0  0  0
  -26.3560  -34.7380   22.2750 O   0  0  0  0  0  0  0  0  0  0  0  0
  -24.7920  -33.8070   24.8390 H   0  0  0  0  0  0  0  0  0  0  0  0
  -23.8980  -36.5320   23.0240 C   0  0  0  0  0  1  0  0  0  0  0  0
  -25.1570  -36.1430   23.8140 C   0  0  0  0  0  3  0  0  0  0  0  0
  -27.2660  -37.0760   24.6600 C   0  0  0  0  0  1  0  0  0  0  0  0
  -26.1530  -37.2340   23.7270 N   0  0  0  0  0  0  0  0  0  0  0  0
  -25.7160  -38.1350   23.9040 H   0  0  0  0  0  0  0  0  0  0  0  0
  -29.5430  -17.2110   20.8250 C   0  0  0  0  0  3  0  0  0  0  0  0
  -29.7370  -15.8250   20.8080 C   0  0  0  0  0  3  0  0  0  0  0  0
  -30.5030  -14.7680   20.0450 C   0  0  0  0  0  0  0  0  0  0  0  0
  -30.3050  -12.5050   18.9520 C   0  0  0  0  0  2  0  0  0  0  0  0
  -29.2800  -12.5940   17.7940 C   0  0  0  0  0  2  0  0  0  0  0  0
  -27.8320  -12.4100   18.3010 C   0  0  0  0  0  2  0  0  0  0  0  0
  -27.5410  -13.2540   19.5690 C   0  0  0  0  0  3  0  0  0  0  0  0
  -28.6640  -13.0660   20.6070 C   0  0  0  0  0  2  0  0  0  0  0  0
  -29.9270  -13.5070   19.9800 N   0  0  0  0  0  0  0  0  0  0  0  0
  -31.5930  -14.9580   19.4920 O   0  0  0  0  0  0  0  0  0  0  0  0
  -25.2080  -13.8580   20.4570 C   0  0  0  0  0  0  0  0  0  0  0  0
  -24.1550  -13.0860   20.8690 C   0  0  0  0  0  0  0  0  0  0  0  0
  -24.5930  -11.7300   20.7650 C   0  0  0  0  0  0  0  0  0  0  0  0
  -26.2220  -12.9710   20.1270 N   0  0  0  0  0  0  0  0  0  0  0  0
  -25.8600  -11.6840   20.3690 N   0  0  0  0  0  0  0  0  0  0  0  0
  -23.8620  -10.4730   20.9620 C   0  0  0  0  0  0  0  0  0  0  0  0
  -24.3090   -9.4920   21.8750 C   0  0  0  0  0  3  0  0  0  0  0  0
  -23.5780   -8.2980   22.0590 C   0  0  0  0  0  3  0  0  0  0  0  0
  -22.3850   -8.0770   21.3320 C   0  0  0  0  0  0  0  0  0  0  0  0
  -21.9560   -9.0470   20.4070 C   0  0  0  0  0  3  0  0  0  0  0  0
  -22.6880  -10.2300   20.2210 C   0  0  0  0  0  3  0  0  0  0  0  0
  -21.6240   -6.9370   21.4250 O   0  0  0  0  0  0  0  0  0  0  0  0
  -21.5660   -6.2040   22.5840 C   0  0  0  0  0  0  0  0  0  0  0  0
  -21.1220   -6.7670   23.8000 C   0  0  0  0  0  3  0  0  0  0  0  0
  -21.0120   -5.9600   24.9500 C   0  0  0  0  0  3  0  0  0  0  0  0
  -21.3370   -4.5920   24.8840 C   0  0  0  0  0  0  0  0  0  0  0  0
  -21.7760   -4.0300   23.6740 C   0  0  0  0  0  3  0  0  0  0  0  0
  -21.8880   -4.8330   22.5260 C   0  0  0  0  0  0  0  0  0  0  0  0
  -22.2900   -4.2810   21.3560 F   0  0  0  0  0  0  0  0  0  0  0  0
  -21.2260   -3.8150   25.9880 F   0  0  0  0  0  0  0  0  0  0  0  0
  -22.7850  -13.5740   21.2490 C   0  0  0  0  0  0  0  0  0  0  0  0
  -22.1030  -12.8580   22.1340 N   0  0  0  0  0  0  0  0  0  0  0  0
  -22.3320  -14.6240   20.7960 O   0  0  0  0  0  0  0  0  0  0  0  0
  -22.4820  -12.0080   22.5240 H   0  0  0  0  0  0  0  0  0  0  0  0
  -21.1870  -13.1670   22.4300 H   0  0  0  0  0  0  0  0  0  0  0  0
  -25.3840  -15.2310   20.3180 N   0  0  0  0  0  0  0  0  0  0  0  0
  -24.6460  -15.8990   20.5100 H   0  0  0  0  0  0  0  0  0  0  0  0
  -26.2330  -15.6660   19.9790 H   0  0  0  0  0  0  0  0  0  0  0  0
  1  6  1  0
  1  2  2  0
  2  3  1  0
  3  4  2  0
  3  5  1  0
  4 51  1  0
  6  4  1  0
  7  2  1  0
  8  7  2  0
  9  8  1  0
  9 10  1  0
 11 22  2  0
 12 10  1  0
 12 17  1  0
 13 21  1  0
 13 23  1  0
 14 20  1  0
 14 16  1  0
 15 21  1  0
 16 15  1  0
 17 16  2  0
 18 19  1  0
 18 12  2  0
 19 14  2  0
 20 13  1  0
 21 11  1  0
 23 25  2  0
 24 23  1  0
 26 24  1  0
 27 36  2  0
 27 32  1  0
 28 24  1  0
 28 32  1  0
 29 28  1  0
 30 31  1  0
 30 29  1  0
 31 27  1  0
 32 33  2  0
 33 34  1  0
 35 34  2  0
 36 35  1  0
 37 11  1  0
 37 42  1  0
 37 38  1  0
 38 41  1  1
 38 39  1  0
 40 38  1  0
 42 45  1  0
 43 47  1  0
 43 42  1  0
 44 43  2  0
 47 46  1  0
 49 47  1  0
 49 50  1  0
 49 48  1  0
 52 51  2  0
 53 52  1  0
 54 59  1  0
 55 56  1  0
 55 54  1  0
 57 56  1  0
 57 64  1  0
 57 58  1  0
 59 53  1  0
 59 58  1  0
 60 53  2  0
 61 62  2  0
 62 81  1  0
 63 62  1  0
 63 66  1  0
 64 65  1  0
 64 61  1  0
 65 63  2  0
 66 67  1  0
 67 68  2  0
 69 72  1  0
 69 68  1  0
 70 69  2  0
 71 70  1  0
 71 66  2  0
 72 73  1  0
 73 74  1  0
 74 75  2  0
 76 75  1  0
 76 80  1  0
 77 76  2  0
 78 73  2  0
 78 77  1  0
 79 78  1  0
 81 82  1  0
 82 85  1  0
 82 84  1  0
 83 81  2  0
 86 61  1  0
 86 87  1  0
 88 86  1  0
M  ISO  4   9 101  10 101  52 100  53 100
M  END
>  <TORSDO>  (14) 
F 19

>  <SCORE>  (14) 
-13.256

>  <name>  (14) 
13

>  <ligand_id>  (14) 
13

>  <original_smiles>  (14) 
[H]C(C(=O)N1C([H])([H])C([H])([H])C([H])([H])C([H])(n2nc(-c3c([H])c([H])c(Oc4c([H])c([H])c(F)c([H])c4F)c([H])c3[H])c(C(=O)N([H])[H])c2N([H])[H])C1([H])[H])=C([H])c1sc([H])c(C([H])=C([H])C([H])([H])Oc2c([H])c([H])c3c(c2[H])C([H])([H])N(C(=O)C([H])(N([H])C(=O)C([H])(N([H])C([H])([H])[H])C([H])([H])[H])C(C([H])([H])[H])(C([H])([H])[H])C([H])([H])[H])C([H])(C(=O)N([H])C2([H])c4c([H])c([H])c([H])c([H])c4C([H])([H])C([H])([H])C2([H])[H])C3([H])[H])c1C([H])([H])[H]

>  <smiles>  (14) 
[H]C(C(=O)N1C([H])([H])C([H])([H])C([H])([H])C([H])(n2nc(-c3c([H])c([H])c(Oc4c([H])c([H])c(F)c([H])c4F)c([H])c3[H])c(C(=O)N([H])[H])c2N([H])[H])C1([H])[H])=C([H])c1sc([H])c(C([H])=C([H])C([H])([H])Oc2c([H])c([H])c3c(c2[H])C([H])([H])N(C(=O)C([H])(N([H])C(=O)C([H])(N([H])C([H])([H])[H])C([H])([H])[H])C(C([H])([H])[H])(C([H])([H])[H])C([H])([H])[H])C([H])(C(=O)N([H])C2([H])c4c([H])c([H])c([H])c([H])c4C([H])([H])C([H])([H])C2([H])[H])C3([H])[H])c1C([H])([H])[H]

$$$$
14:0:0
     RDKit          3D

 91 99  0  0  1  0  0  0  0  0999 V2000
  -28.9490  -19.4310   20.5520 C   0  0  0  0  0  3  0  0  0  0  0  0
  -31.2530  -17.8740   20.2720 C   0  0  0  0  0  3  0  0  0  0  0  0
  -30.1630  -20.1290   20.3570 C   0  0  0  0  0  0  0  0  0  0  0  0
  -28.8770  -18.0090   20.6170 C   0  0  0  0  0  0  0  0  0  0  0  0
  -31.3250  -19.3030   20.2210 C   0  0  0  0  0  0  0  0  0  0  0  0
  -30.0300  -17.1800   20.4730 C   0  0  0  0  0  0  0  0  0  0  0  0
  -27.5020  -17.3980   20.8020 C   0  0  0  0  0  1  0  0  0  0  0  0
  -32.6910  -19.9370   20.0130 C   0  0  0  0  0  1  0  0  0  0  0  0
  -30.6370  -14.6750   20.0590 C   0  0  0  0  0  0  0  0  0  0  0  0
  -30.3190  -12.4980   18.9010 C   0  0  0  0  0  2  0  0  0  0  0  0
  -29.3060  -12.6860   17.7490 C   0  0  0  0  0  2  0  0  0  0  0  0
  -27.8590  -12.5200   18.2550 C   0  0  0  0  0  2  0  0  0  0  0  0
  -27.5830  -13.3340   19.5460 C   0  0  0  0  0  3  0  0  0  0  0  0
  -28.7030  -13.1220   20.5920 C   0  0  0  0  0  2  0  0  0  0  0  0
  -29.9840  -13.4730   19.9560 N   0  0  0  0  0  0  0  0  0  0  0  0
  -31.7760  -14.8230   19.6110 O   0  0  0  0  0  0  0  0  0  0  0  0
  -29.8870  -15.7210   20.5260 N   0  0  0  0  0  0  0  0  0  0  0  0
  -28.9950  -15.4140   20.8790 H   0  0  0  0  0  0  0  0  0  0  0  0
  -25.2160  -13.9100   20.3760 C   0  0  0  0  0  0  0  0  0  0  0  0
  -24.1740  -13.1310   20.7970 C   0  0  0  0  0  0  0  0  0  0  0  0
  -24.6400  -11.7840   20.7230 C   0  0  0  0  0  0  0  0  0  0  0  0
  -26.2580  -13.0420   20.0900 N   0  0  0  0  0  0  0  0  0  0  0  0
  -25.9160  -11.7560   20.3580 N   0  0  0  0  0  0  0  0  0  0  0  0
  -23.9240  -10.5180   20.9210 C   0  0  0  0  0  0  0  0  0  0  0  0
  -24.3400   -9.5790   21.8900 C   0  0  0  0  0  3  0  0  0  0  0  0
  -23.6210   -8.3780   22.0760 C   0  0  0  0  0  3  0  0  0  0  0  0
  -22.4750   -8.1090   21.2900 C   0  0  0  0  0  0  0  0  0  0  0  0
  -22.0780   -9.0380   20.3130 C   0  0  0  0  0  3  0  0  0  0  0  0
  -22.7970  -10.2300   20.1250 C   0  0  0  0  0  3  0  0  0  0  0  0
  -21.7290   -6.9590   21.3850 O   0  0  0  0  0  0  0  0  0  0  0  0
  -21.5700   -6.3030   22.5780 C   0  0  0  0  0  0  0  0  0  0  0  0
  -20.9820   -6.9290   23.7000 C   0  0  0  0  0  3  0  0  0  0  0  0
  -20.7720   -6.1960   24.8860 C   0  0  0  0  0  3  0  0  0  0  0  0
  -21.1410   -4.8390   24.9490 C   0  0  0  0  0  0  0  0  0  0  0  0
  -21.7200   -4.2130   23.8310 C   0  0  0  0  0  3  0  0  0  0  0  0
  -21.9320   -4.9430   22.6490 C   0  0  0  0  0  0  0  0  0  0  0  0
  -22.4720   -4.3290   21.5670 F   0  0  0  0  0  0  0  0  0  0  0  0
  -20.9320   -4.1320   26.0840 F   0  0  0  0  0  0  0  0  0  0  0  0
  -22.7910  -13.6030   21.1400 C   0  0  0  0  0  0  0  0  0  0  0  0
  -22.1060  -12.8980   22.0330 N   0  0  0  0  0  0  0  0  0  0  0  0
  -22.3280  -14.6340   20.6540 O   0  0  0  0  0  0  0  0  0  0  0  0
  -22.4920  -12.0630   22.4500 H   0  0  0  0  0  0  0  0  0  0  0  0
  -21.1810  -13.1990   22.3080 H   0  0  0  0  0  0  0  0  0  0  0  0
  -25.3450  -15.2770   20.1810 N   0  0  0  0  0  0  0  0  0  0  0  0
  -24.5400  -15.8900   20.2560 H   0  0  0  0  0  0  0  0  0  0  0  0
  -26.1020  -15.6890   19.6520 H   0  0  0  0  0  0  0  0  0  0  0  0
  -30.2370  -21.6520   20.3040 C   0  0  0  0  0  3  0  0  0  0  0  0
  -29.2700  -22.6150   20.4190 C   0  0  0  0  0  3  0  0  0  0  0  0
  -29.5130  -24.1620   20.4250 C   0  0  0  0  0  3  0  0  0  0  0  0
  -28.3310  -25.1120   19.9720 C   0  0  0  0  0  3  0  0  0  0  0  0
  -28.4950  -26.5620   20.1900 O   0  0  0  0  0  0  0  0  0  0  0  0
  -24.6940  -31.8460   23.2770 C   0  0  0  0  0  0  0  0  0  0  0  0
  -27.3540  -27.3760   20.1500 C   0  0  0  0  0  0  0  0  0  0  0  0
  -23.5060  -30.4780   21.5950 C   0  0  0  0  0  3  0  0  0  0  0  0
  -24.9730  -28.9640   20.1480 C   0  0  0  0  0  0  0  0  0  0  0  0
  -26.0440  -30.8090   21.4440 C   0  0  0  0  0  2  0  0  0  0  0  0
  -26.1350  -29.4490   20.7630 C   0  0  0  0  0  0  0  0  0  0  0  0
  -27.3250  -28.6690   20.7530 C   0  0  0  0  0  3  0  0  0  0  0  0
  -26.1670  -26.9350   19.5160 C   0  0  0  0  0  3  0  0  0  0  0  0
  -24.9910  -27.7090   19.5170 C   0  0  0  0  0  3  0  0  0  0  0  0
  -23.7320  -29.8300   20.2040 C   0  0  0  0  0  2  0  0  0  0  0  0
  -24.7660  -31.0610   22.1620 N   0  0  0  0  0  0  0  0  0  0  0  0
  -23.6060  -32.1150   23.8070 O   0  0  0  0  0  0  0  0  0  0  0  0
  -22.8390  -29.4400   22.5270 C   0  0  0  0  0  0  0  0  0  0  0  0
  -21.5150  -29.2610   22.3820 N   0  0  0  0  0  0  0  0  0  0  0  0
  -23.5090  -28.8010   23.3410 O   0  0  0  0  0  0  0  0  0  0  0  0
  -21.0370  -29.8270   21.6970 H   0  0  0  0  0  0  0  0  0  0  0  0
  -18.1280  -28.0790   22.8400 C   0  0  0  0  0  0  0  0  0  0  0  0
  -20.6880  -28.3080   23.1230 C   0  0  0  0  0  3  0  0  0  0  0  0
  -20.7790  -26.8930   22.5060 C   0  0  0  0  0  2  0  0  0  0  0  0
  -19.6750  -26.6090   21.4820 C   0  0  0  0  0  2  0  0  0  0  0  0
  -18.2940  -26.7460   22.1280 C   0  0  0  0  0  2  0  0  0  0  0  0
  -19.2530  -28.8200   23.2900 C   0  0  0  0  0  0  0  0  0  0  0  0
  -19.0450  -30.0660   23.9180 C   0  0  0  0  0  3  0  0  0  0  0  0
  -17.7450  -30.5740   24.1010 C   0  0  0  0  0  3  0  0  0  0  0  0
  -16.6340  -29.8270   23.6700 C   0  0  0  0  0  3  0  0  0  0  0  0
  -16.8260  -28.5840   23.0430 C   0  0  0  0  0  3  0  0  0  0  0  0
  -25.9730  -32.4660   23.9220 C   0  0  0  0  0  3  0  0  0  0  0  0
  -26.4590  -31.6900   25.2080 C   0  0  1  0  0  0  0  0  0  0  0  0
  -25.3430  -31.4550   26.2530 C   0  0  0  0  0  1  0  0  0  0  0  0
  -27.0490  -30.3140   24.8260 C   0  0  0  0  0  1  0  0  0  0  0  0
  -27.5980  -32.4810   25.8960 C   0  0  0  0  0  1  0  0  0  0  0  0
  -25.6710  -33.8660   24.2480 N   0  0  0  0  0  0  0  0  0  0  0  0
  -25.9950  -34.9150   23.4780 C   0  0  0  0  0  0  0  0  0  0  0  0
  -26.6510  -34.8040   22.4380 O   0  0  0  0  0  0  0  0  0  0  0  0
  -25.1010  -34.0260   25.0630 H   0  0  0  0  0  0  0  0  0  0  0  0
  -24.2530  -36.6970   23.1510 C   0  0  0  0  0  1  0  0  0  0  0  0
  -25.5160  -36.3050   23.9360 C   0  0  0  0  0  3  0  0  0  0  0  0
  -27.6600  -37.2130   24.7090 C   0  0  0  0  0  1  0  0  0  0  0  0
  -26.5410  -37.3610   23.7850 N   0  0  0  0  0  0  0  0  0  0  0  0
  -26.1330  -38.2810   23.9270 H   0  0  0  0  0  0  0  0  0  0  0  0
  1  4  1  0
  2  6  1  0
  3  1  2  0
  4  7  1  0
  5  2  2  0
  5  3  1  0
  6 17  1  0
  6  4  2  0
  8  5  1  0
  9 17  1  0
 10 15  1  0
 11 12  1  0
 11 10  1  0
 13 12  1  0
 13 22  1  0
 13 14  1  0
 15  9  1  0
 15 14  1  0
 16  9  2  0
 17 18  1  0
 19 20  2  0
 20 39  1  0
 21 20  1  0
 21 24  1  0
 22 23  1  0
 22 19  1  0
 23 21  2  0
 24 25  1  0
 25 26  2  0
 27 30  1  0
 27 26  1  0
 28 27  2  0
 29 28  1  0
 29 24  2  0
 30 31  1  0
 31 36  2  0
 31 32  1  0
 32 33  2  0
 33 34  1  0
 34 38  1  0
 35 34  2  0
 36 35  1  0
 37 36  1  0
 39 40  1  0
 40 43  1  0
 40 42  1  0
 41 39  2  0
 44 45  1  0
 44 19  1  0
 46 44  1  0
 47  3  1  0
 47 48  2  0
 48 49  1  0
 50 51  1  0
 50 49  2  0
 52 63  2  0
 53 51  1  0
 53 58  1  0
 54 62  1  0
 54 64  1  0
 55 61  1  0
 55 57  1  0
 56 62  1  0
 57 56  1  0
 58 57  2  0
 59 60  1  0
 59 53  2  0
 60 55  2  0
 61 54  1  0
 62 52  1  0
 64 66  2  0
 65 64  1  0
 67 65  1  0
 68 77  2  0
 68 73  1  0
 69 65  1  0
 69 73  1  0
 70 69  1  0
 71 72  1  0
 71 70  1  0
 72 68  1  0
 73 74  2  0
 74 75  1  0
 76 75  2  0
 77 76  1  0
 78 52  1  0
 78 83  1  0
 78 79  1  0
 79 82  1  1
 79 80  1  0
 81 79  1  0
 83 86  1  0
 84 88  1  0
 84 83  1  0
 85 84  2  0
 88 87  1  0
 90 91  1  0
 90 88  1  0
 90 89  1  0
M  ISO  4   9 100  17 100  50 101  51 101
M  END
>  <TORSDO>  (15) 
F 19

>  <SCORE>  (15) 
-13.526

>  <name>  (15) 
14

>  <ligand_id>  (15) 
14

>  <original_smiles>  (15) 
[H]C(=C([H])C([H])([H])C([H])([H])Oc1c([H])c([H])c2c(c1[H])C([H])([H])N(C(=O)C([H])(N([H])C(=O)C([H])(N([H])C([H])([H])[H])C([H])([H])[H])C(C([H])([H])[H])(C([H])([H])[H])C([H])([H])[H])C([H])(C(=O)N([H])C1([H])c3c([H])c([H])c([H])c([H])c3C([H])([H])C([H])([H])C1([H])[H])C2([H])[H])c1c([H])c(C([H])([H])[H])c(N([H])C(=O)N2C([H])([H])C([H])([H])C([H])([H])C([H])(n3nc(-c4c([H])c([H])c(Oc5c([H])c([H])c(F)c([H])c5F)c([H])c4[H])c(C(=O)N([H])[H])c3N([H])[H])C2([H])[H])c([H])c1C([H])([H])[H]

>  <smiles>  (15) 
[H]C(=C([H])C([H])([H])C([H])([H])Oc1c([H])c([H])c2c(c1[H])C([H])([H])N(C(=O)C([H])(N([H])C(=O)C([H])(N([H])C([H])([H])[H])C([H])([H])[H])C(C([H])([H])[H])(C([H])([H])[H])C([H])([H])[H])C([H])(C(=O)N([H])C1([H])c3c([H])c([H])c([H])c([H])c3C([H])([H])C([H])([H])C1([H])[H])C2([H])[H])c1c([H])c(C([H])([H])[H])c(N([H])C(=O)N2C([H])([H])C([H])([H])C([H])([H])C([H])(n3nc(-c4c([H])c([H])c(Oc5c([H])c([H])c(F)c([H])c5F)c([H])c4[H])c(C(=O)N([H])[H])c3N([H])[H])C2([H])[H])c([H])c1C([H])([H])[H]

$$$$
15:0:0
     RDKit          3D

 88 96  0  0  1  0  0  0  0  0999 V2000
  -29.5350  -20.6610   21.3440 C   0  0  0  0  0  3  0  0  0  0  0  0
  -28.2780  -21.7730   19.2170 C   0  0  0  0  0  3  0  0  0  0  0  0
  -29.3150  -19.6260   20.3330 C   0  0  0  0  0  0  0  0  0  0  0  0
  -28.6640  -20.3380   19.2430 C   0  0  0  0  0  0  0  0  0  0  0  0
  -28.4790  -22.8000   20.2340 C   0  0  0  0  0  0  0  0  0  0  0  0
  -29.1430  -22.0980   21.3250 C   0  0  0  0  0  0  0  0  0  0  0  0
  -28.3660  -19.5220   17.9980 C   0  0  0  0  0  1  0  0  0  0  0  0
  -29.4120  -22.8180   22.4410 F   0  0  0  0  0  0  0  0  0  0  0  0
  -29.9430  -18.0560   20.3170 C   0  0  0  0  0  3  0  0  0  0  0  0
  -29.5650  -16.6450   20.3930 C   0  0  0  0  0  3  0  0  0  0  0  0
  -30.4120  -15.2750   20.2680 C   0  0  0  0  0  0  0  0  0  0  0  0
  -30.3840  -12.8430   19.3960 C   0  0  0  0  0  2  0  0  0  0  0  0
  -29.4650  -12.6790   18.1580 C   0  0  0  0  0  2  0  0  0  0  0  0
  -28.0140  -12.4050   18.5910 C   0  0  0  0  0  2  0  0  0  0  0  0
  -27.5610  -13.3550   19.7270 C   0  0  0  0  0  3  0  0  0  0  0  0
  -28.6070  -13.4840   20.8540 C   0  0  0  0  0  2  0  0  0  0  0  0
  -29.8530  -13.9700   20.2430 N   0  0  0  0  0  0  0  0  0  0  0  0
  -31.6270  -15.2710   20.0270 O   0  0  0  0  0  0  0  0  0  0  0  0
  -25.1820  -13.8860   20.4780 C   0  0  0  0  0  0  0  0  0  0  0  0
  -24.1300  -13.0960   20.8510 C   0  0  0  0  0  0  0  0  0  0  0  0
  -24.6170  -11.7520   20.8290 C   0  0  0  0  0  0  0  0  0  0  0  0
  -26.2370  -13.0240   20.2380 N   0  0  0  0  0  0  0  0  0  0  0  0
  -25.9090  -11.7360   20.5190 N   0  0  0  0  0  0  0  0  0  0  0  0
  -23.9070  -10.4800   21.0250 C   0  0  0  0  0  0  0  0  0  0  0  0
  -24.3480   -9.5240   21.9660 C   0  0  0  0  0  3  0  0  0  0  0  0
  -23.6350   -8.3190   22.1510 C   0  0  0  0  0  3  0  0  0  0  0  0
  -22.4670   -8.0630   21.3940 C   0  0  0  0  0  0  0  0  0  0  0  0
  -22.0450   -9.0070   20.4430 C   0  0  0  0  0  3  0  0  0  0  0  0
  -22.7590  -10.2040   20.2560 C   0  0  0  0  0  3  0  0  0  0  0  0
  -21.7260   -6.9090   21.4870 O   0  0  0  0  0  0  0  0  0  0  0  0
  -21.6800   -6.1740   22.6450 C   0  0  0  0  0  0  0  0  0  0  0  0
  -21.2320   -6.7300   23.8630 C   0  0  0  0  0  3  0  0  0  0  0  0
  -21.1350   -5.9200   25.0130 C   0  0  0  0  0  3  0  0  0  0  0  0
  -21.4750   -4.5570   24.9450 C   0  0  0  0  0  0  0  0  0  0  0  0
  -21.9170   -4.0000   23.7310 C   0  0  0  0  0  3  0  0  0  0  0  0
  -22.0150   -4.8070   22.5840 C   0  0  0  0  0  0  0  0  0  0  0  0
  -22.4210   -4.2600   21.4130 F   0  0  0  0  0  0  0  0  0  0  0  0
  -21.3750   -3.7770   26.0460 F   0  0  0  0  0  0  0  0  0  0  0  0
  -22.7260  -13.5550   21.1130 C   0  0  0  0  0  0  0  0  0  0  0  0
  -22.0060  -12.8590   21.9860 N   0  0  0  0  0  0  0  0  0  0  0  0
  -22.2750  -14.5680   20.5790 O   0  0  0  0  0  0  0  0  0  0  0  0
  -22.3820  -12.0390   22.4380 H   0  0  0  0  0  0  0  0  0  0  0  0
  -21.0650  -13.1520   22.2050 H   0  0  0  0  0  0  0  0  0  0  0  0
  -25.3240  -15.2590   20.2940 N   0  0  0  0  0  0  0  0  0  0  0  0
  -24.5450  -15.8990   20.4020 H   0  0  0  0  0  0  0  0  0  0  0  0
  -26.1630  -15.7100   19.9560 H   0  0  0  0  0  0  0  0  0  0  0  0
  -27.7170  -24.3630   20.1750 C   0  0  0  0  0  2  0  0  0  0  0  0
  -28.1300  -25.9310   20.3340 O   0  0  0  0  0  0  0  0  0  0  0  0
  -24.6260  -31.9240   23.2560 C   0  0  0  0  0  0  0  0  0  0  0  0
  -27.1430  -27.0400   20.2600 C   0  0  0  0  0  0  0  0  0  0  0  0
  -23.4200  -30.5300   21.6250 C   0  0  0  0  0  3  0  0  0  0  0  0
  -24.8560  -28.9190   20.2080 C   0  0  0  0  0  0  0  0  0  0  0  0
  -25.9870  -30.7300   21.4740 C   0  0  0  0  0  2  0  0  0  0  0  0
  -26.0480  -29.3210   20.8260 C   0  0  0  0  0  0  0  0  0  0  0  0
  -27.1880  -28.4010   20.8300 C   0  0  0  0  0  3  0  0  0  0  0  0
  -25.9220  -26.7890   19.5910 C   0  0  0  0  0  3  0  0  0  0  0  0
  -24.8180  -27.6720   19.5700 C   0  0  0  0  0  3  0  0  0  0  0  0
  -23.6430  -29.8440   20.2510 C   0  0  0  0  0  2  0  0  0  0  0  0
  -24.7000  -31.0870   22.1710 N   0  0  0  0  0  0  0  0  0  0  0  0
  -23.5390  -32.2240   23.7760 O   0  0  0  0  0  0  0  0  0  0  0  0
  -22.7210  -29.5400   22.5940 C   0  0  0  0  0  0  0  0  0  0  0  0
  -21.3920  -29.3780   22.4650 N   0  0  0  0  0  0  0  0  0  0  0  0
  -23.3820  -28.9200   23.4300 O   0  0  0  0  0  0  0  0  0  0  0  0
  -20.9120  -29.9290   21.7660 H   0  0  0  0  0  0  0  0  0  0  0  0
  -18.0050  -28.1770   22.9600 C   0  0  0  0  0  0  0  0  0  0  0  0
  -20.5620  -28.4500   23.2400 C   0  0  0  0  0  3  0  0  0  0  0  0
  -20.6700  -27.0110   22.6860 C   0  0  0  0  0  2  0  0  0  0  0  0
  -19.5770  -26.6720   21.6670 C   0  0  0  0  0  2  0  0  0  0  0  0
  -18.1890  -26.8210   22.3000 C   0  0  0  0  0  2  0  0  0  0  0  0
  -19.1180  -28.9480   23.3880 C   0  0  0  0  0  0  0  0  0  0  0  0
  -18.8900  -30.2140   23.9690 C   0  0  0  0  0  3  0  0  0  0  0  0
  -17.5810  -30.7110   24.1240 C   0  0  0  0  0  3  0  0  0  0  0  0
  -16.4830  -29.9380   23.7090 C   0  0  0  0  0  3  0  0  0  0  0  0
  -16.6950  -28.6730   23.1340 C   0  0  0  0  0  3  0  0  0  0  0  0
  -25.9030  -32.5600   23.8840 C   0  0  0  0  0  3  0  0  0  0  0  0
  -25.5960  -33.9620   24.2120 N   0  0  0  0  0  0  0  0  0  0  0  0
  -25.9160  -35.0170   23.4490 C   0  0  0  0  0  0  0  0  0  0  0  0
  -26.5640  -34.9090   22.4060 O   0  0  0  0  0  0  0  0  0  0  0  0
  -25.0150  -34.1180   25.0230 H   0  0  0  0  0  0  0  0  0  0  0  0
  -24.1770  -36.8120   23.1470 C   0  0  0  0  0  1  0  0  0  0  0  0
  -25.4450  -36.4100   23.9160 C   0  0  0  0  0  3  0  0  0  0  0  0
  -27.6060  -37.3040   24.6680 C   0  0  0  0  0  1  0  0  0  0  0  0
  -26.4740  -37.4630   23.7600 N   0  0  0  0  0  0  0  0  0  0  0  0
  -26.0710  -38.3840   23.9110 H   0  0  0  0  0  0  0  0  0  0  0  0
  -26.4030  -31.7960   25.1730 C   0  0  1  0  0  0  0  0  0  0  0  0
  -25.3010  -31.5800   26.2370 C   0  0  0  0  0  1  0  0  0  0  0  0
  -26.9760  -30.4080   24.8050 C   0  0  0  0  0  1  0  0  0  0  0  0
  -27.5580  -32.5850   25.8330 C   0  0  0  0  0  1  0  0  0  0  0  0
  2  4  2  0
  2  5  1  0
  3  1  2  0
  4  3  1  0
  5  6  2  0
  6  1  1  0
  6  8  1  0
  7  4  1  0
  9  3  1  0
  9 10  2  0
 11 10  1  0
 12 17  1  0
 13 14  1  0
 13 12  1  0
 15 14  1  0
 15 22  1  0
 15 16  1  0
 17 11  1  0
 17 16  1  0
 18 11  2  0
 19 20  2  0
 20 39  1  0
 21 20  1  0
 21 24  1  0
 22 19  1  0
 22 23  1  0
 23 21  2  0
 24 25  1  0
 25 26  2  0
 27 30  1  0
 27 26  1  0
 28 27  2  0
 29 28  1  0
 29 24  2  0
 30 31  1  0
 31 32  1  0
 32 33  2  0
 34 33  1  0
 34 38  1  0
 35 34  2  0
 36 31  2  0
 36 35  1  0
 37 36  1  0
 39 40  1  0
 40 43  1  0
 40 42  1  0
 41 39  2  0
 44 45  1  0
 44 19  1  0
 46 44  1  0
 47  5  1  0
 47 48  1  0
 49 60  2  0
 50 48  1  0
 50 55  1  0
 51 59  1  0
 51 61  1  0
 52 58  1  0
 52 54  1  0
 53 59  1  0
 54 55  2  0
 54 53  1  0
 56 50  2  0
 57 56  1  0
 57 52  2  0
 58 51  1  0
 59 49  1  0
 61 63  2  0
 62 61  1  0
 64 62  1  0
 65 74  2  0
 65 70  1  0
 66 62  1  0
 66 70  1  0
 67 66  1  0
 68 69  1  0
 68 67  1  0
 69 65  1  0
 70 71  2  0
 71 72  1  0
 73 72  2  0
 74 73  1  0
 75 49  1  0
 75 76  1  0
 75 85  1  0
 76 79  1  0
 77 81  1  0
 77 76  1  0
 78 77  2  0
 81 80  1  0
 83 84  1  0
 83 81  1  0
 83 82  1  0
 85 88  1  1
 85 86  1  0
 87 85  1  0
M  ISO  4  10 100  11 100  47 101  48 101
M  END
>  <TORSDO>  (16) 
F 18

>  <SCORE>  (16) 
-15.364

>  <name>  (16) 
15

>  <ligand_id>  (16) 
15

>  <original_smiles>  (16) 
[H]C(C(=O)N1C([H])([H])C([H])([H])C([H])([H])C([H])(n2nc(-c3c([H])c([H])c(Oc4c([H])c([H])c(F)c([H])c4F)c([H])c3[H])c(C(=O)N([H])[H])c2N([H])[H])C1([H])[H])=C([H])c1c([H])c(F)c(C([H])([H])Oc2c([H])c([H])c3c(c2[H])C([H])([H])N(C(=O)C([H])(N([H])C(=O)C([H])(N([H])C([H])([H])[H])C([H])([H])[H])C(C([H])([H])[H])(C([H])([H])[H])C([H])([H])[H])C([H])(C(=O)N([H])C2([H])c4c([H])c([H])c([H])c([H])c4C([H])([H])C([H])([H])C2([H])[H])C3([H])[H])c([H])c1C([H])([H])[H]

>  <smiles>  (16) 
[H]C(C(=O)N1C([H])([H])C([H])([H])C([H])([H])C([H])(n2nc(-c3c([H])c([H])c(Oc4c([H])c([H])c(F)c([H])c4F)c([H])c3[H])c(C(=O)N([H])[H])c2N([H])[H])C1([H])[H])=C([H])c1c([H])c(F)c(C([H])([H])Oc2c([H])c([H])c3c(c2[H])C([H])([H])N(C(=O)C([H])(N([H])C(=O)C([H])(N([H])C([H])([H])[H])C([H])([H])[H])C(C([H])([H])[H])(C([H])([H])[H])C([H])([H])[H])C([H])(C(=O)N([H])C2([H])c4c([H])c([H])c([H])c([H])c4C([H])([H])C([H])([H])C2([H])[H])C3([H])[H])c([H])c1C([H])([H])[H]

$$$$
16:0:0
     RDKit          3D

 88 96  0  0  1  0  0  0  0  0999 V2000
  -28.8370  -22.2800   19.9790 C   0  0  0  0  0  3  0  0  0  0  0  0
  -28.6500  -23.5850   20.4420 C   0  0  0  0  0  3  0  0  0  0  0  0
  -29.5490  -19.1070   21.8870 C   0  0  0  0  0  3  0  0  0  0  0  0
  -29.2090  -20.5050   21.8830 C   0  0  0  0  0  3  0  0  0  0  0  0
  -29.8650  -18.7140   20.6130 C   0  0  0  0  0  0  0  0  0  0  0  0
  -29.2060  -20.9600   20.5900 C   0  0  0  0  0  0  0  0  0  0  0  0
  -29.6250  -19.8530   19.8020 O   0  0  0  0  0  0  0  0  0  0  0  0
  -30.3640  -17.4110   20.0610 C   0  0  0  0  0  3  0  0  0  0  0  0
  -30.2430  -16.0840   20.4700 C   0  0  0  0  0  3  0  0  0  0  0  0
  -30.9620  -14.8980   19.8580 C   0  0  0  0  0  0  0  0  0  0  0  0
  -30.6580  -12.6690   18.7490 C   0  0  0  0  0  2  0  0  0  0  0  0
  -29.6200  -12.8100   17.6120 C   0  0  0  0  0  2  0  0  0  0  0  0
  -28.1840  -12.6640   18.1520 C   0  0  0  0  0  2  0  0  0  0  0  0
  -27.9400  -13.4950   19.4390 C   0  0  0  0  0  3  0  0  0  0  0  0
  -29.0810  -13.2780   20.4550 C   0  0  0  0  0  2  0  0  0  0  0  0
  -30.3300  -13.6710   19.7950 N   0  0  0  0  0  0  0  0  0  0  0  0
  -32.0750  -15.0120   19.3330 O   0  0  0  0  0  0  0  0  0  0  0  0
  -25.6380  -14.1260   20.3840 C   0  0  0  0  0  0  0  0  0  0  0  0
  -24.5760  -13.3640   20.8000 C   0  0  0  0  0  0  0  0  0  0  0  0
  -24.9880  -12.0040   20.6610 C   0  0  0  0  0  0  0  0  0  0  0  0
  -26.6260  -13.2260   20.0170 N   0  0  0  0  0  0  0  0  0  0  0  0
  -26.2470  -11.9420   20.2450 N   0  0  0  0  0  0  0  0  0  0  0  0
  -24.2360  -10.7550   20.8500 C   0  0  0  0  0  0  0  0  0  0  0  0
  -24.6510   -9.7700   21.7730 C   0  0  0  0  0  3  0  0  0  0  0  0
  -23.8990   -8.5880   21.9450 C   0  0  0  0  0  3  0  0  0  0  0  0
  -22.7180   -8.3830   21.1930 C   0  0  0  0  0  0  0  0  0  0  0  0
  -22.3210   -9.3550   20.2580 C   0  0  0  0  0  3  0  0  0  0  0  0
  -23.0750  -10.5280   20.0830 C   0  0  0  0  0  3  0  0  0  0  0  0
  -21.9360   -7.2570   21.2780 O   0  0  0  0  0  0  0  0  0  0  0  0
  -21.7910   -6.5690   22.4550 C   0  0  0  0  0  0  0  0  0  0  0  0
  -21.2750   -7.1830   23.6170 C   0  0  0  0  0  3  0  0  0  0  0  0
  -21.0760   -6.4230   24.7850 C   0  0  0  0  0  3  0  0  0  0  0  0
  -21.3840   -5.0490   24.7940 C   0  0  0  0  0  0  0  0  0  0  0  0
  -21.8970   -4.4350   23.6380 C   0  0  0  0  0  3  0  0  0  0  0  0
  -22.0960   -5.1930   22.4710 C   0  0  0  0  0  0  0  0  0  0  0  0
  -22.5680   -4.5910   21.3520 F   0  0  0  0  0  0  0  0  0  0  0  0
  -21.1870   -4.3150   25.9150 F   0  0  0  0  0  0  0  0  0  0  0  0
  -23.2240  -13.8670   21.2140 C   0  0  0  0  0  0  0  0  0  0  0  0
  -22.5560  -13.1530   22.1140 N   0  0  0  0  0  0  0  0  0  0  0  0
  -22.7690  -14.9230   20.7750 O   0  0  0  0  0  0  0  0  0  0  0  0
  -22.9360  -12.2940   22.4840 H   0  0  0  0  0  0  0  0  0  0  0  0
  -21.6530  -13.4670   22.4380 H   0  0  0  0  0  0  0  0  0  0  0  0
  -25.8380  -15.4970   20.2650 N   0  0  0  0  0  0  0  0  0  0  0  0
  -25.1260  -16.1850   20.4930 H   0  0  0  0  0  0  0  0  0  0  0  0
  -26.6790  -15.9130   19.8840 H   0  0  0  0  0  0  0  0  0  0  0  0
  -28.3240  -24.7530   18.1370 C   0  0  0  0  0  1  0  0  0  0  0  0
  -28.0350  -24.8360   19.6450 C   0  0  0  0  0  3  0  0  0  0  0  0
  -28.2460  -26.2930   20.0480 O   0  0  0  0  0  0  0  0  0  0  0  0
  -24.6740  -31.8900   23.0730 C   0  0  0  0  0  0  0  0  0  0  0  0
  -27.1940  -27.2550   19.9470 C   0  0  0  0  0  0  0  0  0  0  0  0
  -23.4370  -30.4850   21.4690 C   0  0  0  0  0  3  0  0  0  0  0  0
  -24.8580  -28.9560   19.9850 C   0  0  0  0  0  0  0  0  0  0  0  0
  -25.9830  -30.7880   21.2360 C   0  0  0  0  0  2  0  0  0  0  0  0
  -26.0450  -29.4070   20.5780 C   0  0  0  0  0  0  0  0  0  0  0  0
  -27.2130  -28.5640   20.5580 C   0  0  0  0  0  3  0  0  0  0  0  0
  -25.9990  -26.9270   19.2670 C   0  0  0  0  0  3  0  0  0  0  0  0
  -24.8480  -27.7310   19.3080 C   0  0  0  0  0  3  0  0  0  0  0  0
  -23.6200  -29.8280   20.0770 C   0  0  0  0  0  2  0  0  0  0  0  0
  -24.7180  -31.0730   21.9790 N   0  0  0  0  0  0  0  0  0  0  0  0
  -23.6030  -32.1640   23.6340 O   0  0  0  0  0  0  0  0  0  0  0  0
  -22.8060  -29.4590   22.4410 C   0  0  0  0  0  0  0  0  0  0  0  0
  -21.4840  -29.2460   22.3340 N   0  0  0  0  0  0  0  0  0  0  0  0
  -23.5060  -28.8630   23.2630 O   0  0  0  0  0  0  0  0  0  0  0  0
  -20.9710  -29.7760   21.6430 H   0  0  0  0  0  0  0  0  0  0  0  0
  -18.1560  -27.9090   22.8480 C   0  0  0  0  0  0  0  0  0  0  0  0
  -20.7000  -28.2960   23.1290 C   0  0  0  0  0  3  0  0  0  0  0  0
  -20.8720  -26.8530   22.6020 C   0  0  0  0  0  2  0  0  0  0  0  0
  -19.7930  -26.4510   21.5910 C   0  0  0  0  0  2  0  0  0  0  0  0
  -18.3980  -26.5500   22.2170 C   0  0  0  0  0  2  0  0  0  0  0  0
  -19.2360  -28.7350   23.2640 C   0  0  0  0  0  0  0  0  0  0  0  0
  -18.9510  -30.0030   23.8140 C   0  0  0  0  0  3  0  0  0  0  0  0
  -17.6220  -30.4460   23.9580 C   0  0  0  0  0  3  0  0  0  0  0  0
  -16.5580  -29.6190   23.5560 C   0  0  0  0  0  3  0  0  0  0  0  0
  -16.8260  -28.3520   23.0060 C   0  0  0  0  0  3  0  0  0  0  0  0
  -25.9650  -32.5350   23.6590 C   0  0  0  0  0  3  0  0  0  0  0  0
  -26.5680  -31.7280   24.8750 C   0  0  1  0  0  0  0  0  0  0  0  0
  -25.5370  -31.4150   25.9860 C   0  0  0  0  0  1  0  0  0  0  0  0
  -27.1760  -30.3840   24.4080 C   0  0  0  0  0  1  0  0  0  0  0  0
  -27.7270  -32.5330   25.5070 C   0  0  0  0  0  1  0  0  0  0  0  0
  -25.6350  -33.9110   24.0630 N   0  0  0  0  0  0  0  0  0  0  0  0
  -25.9070  -35.0050   23.3380 C   0  0  0  0  0  0  0  0  0  0  0  0
  -26.5330  -34.9620   22.2750 O   0  0  0  0  0  0  0  0  0  0  0  0
  -25.0720  -34.0200   24.8940 H   0  0  0  0  0  0  0  0  0  0  0  0
  -24.1240  -36.7670   23.1350 C   0  0  0  0  0  1  0  0  0  0  0  0
  -25.4060  -36.3600   23.8750 C   0  0  0  0  0  3  0  0  0  0  0  0
  -27.5510  -37.2590   24.6590 C   0  0  0  0  0  1  0  0  0  0  0  0
  -26.4090  -37.4430   23.7690 N   0  0  0  0  0  0  0  0  0  0  0  0
  -25.9880  -38.3440   23.9820 H   0  0  0  0  0  0  0  0  0  0  0  0
  1  2  2  0
  1  6  1  0
  4  3  1  0
  5  3  2  0
  6  4  2  0
  7  6  1  0
  7  5  1  0
  8  9  2  0
  8  5  1  0
 10  9  1  0
 11 16  1  0
 12 13  1  0
 12 11  1  0
 14 13  1  0
 14 21  1  0
 14 15  1  0
 16 10  1  0
 16 15  1  0
 17 10  2  0
 18 19  2  0
 19 38  1  0
 20 19  1  0
 20 23  1  0
 21 22  1  0
 21 18  1  0
 22 20  2  0
 23 24  1  0
 24 25  2  0
 26 29  1  0
 26 25  1  0
 27 26  2  0
 28 27  1  0
 28 23  2  0
 29 30  1  0
 30 35  2  0
 30 31  1  0
 31 32  2  0
 32 33  1  0
 33 37  1  0
 34 33  2  0
 35 34  1  0
 36 35  1  0
 38 39  1  0
 39 42  1  0
 39 41  1  0
 40 38  2  0
 43 18  1  0
 43 44  1  0
 45 43  1  0
 47 46  1  0
 47 48  1  0
 47  2  1  0
 49 60  2  0
 50 48  1  0
 50 55  1  0
 51 59  1  0
 51 61  1  0
 52 58  1  0
 52 54  1  0
 53 59  1  0
 54 53  1  0
 55 54  2  0
 56 57  1  0
 56 50  2  0
 57 52  2  0
 58 51  1  0
 59 49  1  0
 61 63  2  0
 62 61  1  0
 64 62  1  0
 65 74  2  0
 65 70  1  0
 66 62  1  0
 66 70  1  0
 67 66  1  0
 68 69  1  0
 68 67  1  0
 69 65  1  0
 70 71  2  0
 71 72  1  0
 73 72  2  0
 74 73  1  0
 75 49  1  0
 75 80  1  0
 75 76  1  0
 76 79  1  1
 76 77  1  0
 78 76  1  0
 80 83  1  0
 81 85  1  0
 81 80  1  0
 82 81  2  0
 85 84  1  0
 87 85  1  0
 87 88  1  0
 87 86  1  0
M  ISO  4   9 100  10 100  47 101  48 101
M  END
>  <TORSDO>  (17) 
F 19

>  <SCORE>  (17) 
-12.185

>  <name>  (17) 
16

>  <ligand_id>  (17) 
16

>  <original_smiles>  (17) 
[H]C(C(=O)N1C([H])([H])C([H])([H])C([H])([H])C([H])(n2nc(-c3c([H])c([H])c(Oc4c([H])c([H])c(F)c([H])c4F)c([H])c3[H])c(C(=O)N([H])[H])c2N([H])[H])C1([H])[H])=C([H])c1oc(C([H])=C([H])C([H])(Oc2c([H])c([H])c3c(c2[H])C([H])([H])N(C(=O)C([H])(N([H])C(=O)C([H])(N([H])C([H])([H])[H])C([H])([H])[H])C(C([H])([H])[H])(C([H])([H])[H])C([H])([H])[H])C([H])(C(=O)N([H])C2([H])c4c([H])c([H])c([H])c([H])c4C([H])([H])C([H])([H])C2([H])[H])C3([H])[H])C([H])([H])[H])c([H])c1[H]

>  <smiles>  (17) 
[H]C(C(=O)N1C([H])([H])C([H])([H])C([H])([H])C([H])(n2nc(-c3c([H])c([H])c(Oc4c([H])c([H])c(F)c([H])c4F)c([H])c3[H])c(C(=O)N([H])[H])c2N([H])[H])C1([H])[H])=C([H])c1oc(C([H])=C([H])C([H])(Oc2c([H])c([H])c3c(c2[H])C([H])([H])N(C(=O)C([H])(N([H])C(=O)C([H])(N([H])C([H])([H])[H])C([H])([H])[H])C(C([H])([H])[H])(C([H])([H])[H])C([H])([H])[H])C([H])(C(=O)N([H])C2([H])c4c([H])c([H])c([H])c([H])c4C([H])([H])C([H])([H])C2([H])[H])C3([H])[H])C([H])([H])[H])c([H])c1[H]

$$$$
17:0:0
     RDKit          3D

 92100  0  0  1  0  0  0  0  0999 V2000
  -32.0480  -19.0660   19.8950 C   0  0  0  0  0  3  0  0  0  0  0  0
  -31.1230  -21.2770   20.1730 C   0  0  0  0  0  3  0  0  0  0  0  0
  -29.7960  -19.3010   20.7730 C   0  0  0  0  0  3  0  0  0  0  0  0
  -32.1970  -20.4580   19.7890 C   0  0  0  0  0  0  0  0  0  0  0  0
  -30.8690  -18.4480   20.3820 C   0  0  0  0  0  0  0  0  0  0  0  0
  -29.9170  -20.7230   20.6530 C   0  0  0  0  0  0  0  0  0  0  0  0
  -33.7310  -22.2940   19.0060 C   0  0  0  0  0  2  0  0  0  0  0  0
  -33.4610  -21.0030   19.2620 C   0  0  0  0  0  3  0  0  0  0  0  0
  -30.9440  -16.9510   20.3770 C   0  0  0  0  0  3  0  0  0  0  0  0
  -30.1460  -15.8770   20.6720 C   0  0  0  0  0  3  0  0  0  0  0  0
  -30.7420  -14.5360   20.4200 C   0  0  0  0  0  0  0  0  0  0  0  0
  -30.3050  -12.3530   19.3800 C   0  0  0  0  0  2  0  0  0  0  0  0
  -29.4040  -12.5580   18.1490 C   0  0  0  0  0  2  0  0  0  0  0  0
  -27.9290  -12.4390   18.5650 C   0  0  0  0  0  2  0  0  0  0  0  0
  -27.5830  -13.3080   19.8060 C   0  0  0  0  0  3  0  0  0  0  0  0
  -28.6370  -13.1810   20.9300 C   0  0  0  0  0  2  0  0  0  0  0  0
  -29.9630  -13.4150   20.3500 N   0  0  0  0  0  0  0  0  0  0  0  0
  -31.9220  -14.4510   20.0790 O   0  0  0  0  0  0  0  0  0  0  0  0
  -25.1940  -13.9090   20.5270 C   0  0  0  0  0  0  0  0  0  0  0  0
  -24.1230  -13.1380   20.8920 C   0  0  0  0  0  0  0  0  0  0  0  0
  -24.5800  -11.7850   20.8630 C   0  0  0  0  0  0  0  0  0  0  0  0
  -26.2360  -13.0260   20.2940 N   0  0  0  0  0  0  0  0  0  0  0  0
  -25.8720  -11.7430   20.5590 N   0  0  0  0  0  0  0  0  0  0  0  0
  -23.8470  -10.5250   21.0490 C   0  0  0  0  0  0  0  0  0  0  0  0
  -24.2750   -9.5510   21.9780 C   0  0  0  0  0  3  0  0  0  0  0  0
  -23.5410   -8.3580   22.1540 C   0  0  0  0  0  3  0  0  0  0  0  0
  -22.3650   -8.1300   21.4000 C   0  0  0  0  0  0  0  0  0  0  0  0
  -21.9550   -9.0930   20.4600 C   0  0  0  0  0  3  0  0  0  0  0  0
  -22.6910  -10.2770   20.2830 C   0  0  0  0  0  3  0  0  0  0  0  0
  -21.6040   -6.9880   21.4840 O   0  0  0  0  0  0  0  0  0  0  0  0
  -21.5540   -6.2390   22.6320 C   0  0  0  0  0  0  0  0  0  0  0  0
  -21.1460   -6.7890   23.8650 C   0  0  0  0  0  3  0  0  0  0  0  0
  -21.0440   -5.9660   25.0060 C   0  0  0  0  0  3  0  0  0  0  0  0
  -21.3410   -4.5940   24.9120 C   0  0  0  0  0  0  0  0  0  0  0  0
  -21.7440   -4.0420   23.6830 C   0  0  0  0  0  3  0  0  0  0  0  0
  -21.8470   -4.8630   22.5450 C   0  0  0  0  0  0  0  0  0  0  0  0
  -22.2140   -4.3210   21.3590 F   0  0  0  0  0  0  0  0  0  0  0  0
  -21.2370   -3.8010   26.0040 F   0  0  0  0  0  0  0  0  0  0  0  0
  -22.7260  -13.6210   21.1560 C   0  0  0  0  0  0  0  0  0  0  0  0
  -21.9900  -12.9280   22.0170 N   0  0  0  0  0  0  0  0  0  0  0  0
  -22.2970  -14.6500   20.6350 O   0  0  0  0  0  0  0  0  0  0  0  0
  -22.3500  -12.0970   22.4630 H   0  0  0  0  0  0  0  0  0  0  0  0
  -21.0520  -13.2340   22.2350 H   0  0  0  0  0  0  0  0  0  0  0  0
  -25.3640  -15.2780   20.3510 N   0  0  0  0  0  0  0  0  0  0  0  0
  -24.6010  -15.9370   20.4630 H   0  0  0  0  0  0  0  0  0  0  0  0
  -26.2210  -15.7160   20.0380 H   0  0  0  0  0  0  0  0  0  0  0  0
  -28.8900  -21.5780   21.0190 O   0  0  0  0  0  0  0  0  0  0  0  0
  -28.5820  -22.6510   20.0940 C   0  0  0  0  0  2  0  0  0  0  0  0
  -28.8830  -24.0900   20.6030 C   0  0  0  0  0  0  0  0  0  0  0  0
  -29.6250  -24.3210   21.5640 O   0  0  0  0  0  0  0  0  0  0  0  0
  -28.1600  -25.2060   19.8130 C   0  0  0  0  0  2  0  0  0  0  0  0
  -28.3370  -26.5790   20.2790 O   0  0  0  0  0  0  0  0  0  0  0  0
  -24.6010  -31.9160   23.2640 C   0  0  0  0  0  0  0  0  0  0  0  0
  -27.2150  -27.4040   20.1990 C   0  0  0  0  0  0  0  0  0  0  0  0
  -23.4000  -30.5200   21.6200 C   0  0  0  0  0  3  0  0  0  0  0  0
  -24.8500  -28.9890   20.1940 C   0  0  0  0  0  0  0  0  0  0  0  0
  -25.9370  -30.8460   21.4460 C   0  0  0  0  0  2  0  0  0  0  0  0
  -26.0140  -29.4750   20.8010 C   0  0  0  0  0  0  0  0  0  0  0  0
  -27.1980  -28.6880   20.8090 C   0  0  0  0  0  3  0  0  0  0  0  0
  -26.0340  -26.9840   19.5330 C   0  0  0  0  0  3  0  0  0  0  0  0
  -24.8590  -27.7450   19.5550 C   0  0  0  0  0  3  0  0  0  0  0  0
  -23.6130  -29.8560   20.2380 C   0  0  0  0  0  2  0  0  0  0  0  0
  -24.6640  -31.1090   22.1660 N   0  0  0  0  0  0  0  0  0  0  0  0
  -23.5180  -32.1930   23.7950 O   0  0  0  0  0  0  0  0  0  0  0  0
  -22.7410  -29.4950   22.5740 C   0  0  0  0  0  0  0  0  0  0  0  0
  -21.4170  -29.3120   22.4370 N   0  0  0  0  0  0  0  0  0  0  0  0
  -23.4180  -28.8700   23.3940 O   0  0  0  0  0  0  0  0  0  0  0  0
  -20.9310  -29.8680   21.7470 H   0  0  0  0  0  0  0  0  0  0  0  0
  -18.0390  -28.1150   22.9120 C   0  0  0  0  0  0  0  0  0  0  0  0
  -20.5930  -28.3760   23.2050 C   0  0  0  0  0  3  0  0  0  0  0  0
  -20.7020  -26.9420   22.6360 C   0  0  0  0  0  2  0  0  0  0  0  0
  -19.6090  -26.6140   21.6130 C   0  0  0  0  0  2  0  0  0  0  0  0
  -18.2220  -26.7620   22.2450 C   0  0  0  0  0  2  0  0  0  0  0  0
  -19.1530  -28.8800   23.3480 C   0  0  0  0  0  0  0  0  0  0  0  0
  -18.9280  -30.1460   23.9300 C   0  0  0  0  0  3  0  0  0  0  0  0
  -17.6230  -30.6480   24.0820 C   0  0  0  0  0  3  0  0  0  0  0  0
  -16.5220  -29.8810   23.6620 C   0  0  0  0  0  3  0  0  0  0  0  0
  -16.7310  -28.6150   23.0840 C   0  0  0  0  0  3  0  0  0  0  0  0
  -25.8850  -32.5460   23.8850 C   0  0  0  0  0  3  0  0  0  0  0  0
  -25.5770  -33.9440   24.2120 N   0  0  0  0  0  0  0  0  0  0  0  0
  -25.9120  -34.9940   23.4510 C   0  0  0  0  0  0  0  0  0  0  0  0
  -26.5840  -34.8880   22.4220 O   0  0  0  0  0  0  0  0  0  0  0  0
  -24.9800  -34.1010   25.0120 H   0  0  0  0  0  0  0  0  0  0  0  0
  -24.1880  -36.7880   23.0840 C   0  0  0  0  0  1  0  0  0  0  0  0
  -25.4240  -36.3840   23.9040 C   0  0  0  0  0  3  0  0  0  0  0  0
  -27.5550  -37.2650   24.7450 C   0  0  0  0  0  1  0  0  0  0  0  0
  -26.4590  -37.4350   23.7960 N   0  0  0  0  0  0  0  0  0  0  0  0
  -26.0540  -38.3550   23.9410 H   0  0  0  0  0  0  0  0  0  0  0  0
  -26.3990  -31.7730   25.1630 C   0  0  1  0  0  0  0  0  0  0  0  0
  -25.3020  -31.5370   26.2280 C   0  0  0  0  0  1  0  0  0  0  0  0
  -26.9810  -30.3950   24.7720 C   0  0  0  0  0  1  0  0  0  0  0  0
  -27.5480  -32.5670   25.8270 C   0  0  0  0  0  1  0  0  0  0  0  0
  1  5  1  0
  2  6  2  0
  4  1  2  0
  4  2  1  0
  5  3  2  0
  6  3  1  0
  6 47  1  0
  7  8  2  0
  8  4  1  0
  9  5  1  0
  9 10  2  0
 11 10  1  0
 12 17  1  0
 13 14  1  0
 13 12  1  0
 15 14  1  0
 15 22  1  0
 15 16  1  0
 17 11  1  0
 17 16  1  0
 18 11  2  0
 19 20  2  0
 20 39  1  0
 21 20  1  0
 21 24  1  0
 22 19  1  0
 22 23  1  0
 23 21  2  0
 24 25  1  0
 25 26  2  0
 27 30  1  0
 27 26  1  0
 28 27  2  0
 29 28  1  0
 29 24  2  0
 30 31  1  0
 31 32  1  0
 32 33  2  0
 34 33  1  0
 34 38  1  0
 35 34  2  0
 36 31  2  0
 36 35  1  0
 37 36  1  0
 39 40  1  0
 40 43  1  0
 40 42  1  0
 41 39  2  0
 44 45  1  0
 44 19  1  0
 46 44  1  0
 48 49  1  0
 48 47  1  0
 49 50  2  0
 51 52  1  0
 51 49  1  0
 53 64  2  0
 54 52  1  0
 54 59  1  0
 55 63  1  0
 55 65  1  0
 56 62  1  0
 56 58  1  0
 57 63  1  0
 58 59  2  0
 58 57  1  0
 60 61  1  0
 60 54  2  0
 61 56  2  0
 62 55  1  0
 63 53  1  0
 65 67  2  0
 66 65  1  0
 68 66  1  0
 69 78  2  0
 69 74  1  0
 70 66  1  0
 70 74  1  0
 71 70  1  0
 72 73  1  0
 72 71  1  0
 73 69  1  0
 74 75  2  0
 75 76  1  0
 77 76  2  0
 78 77  1  0
 79 53  1  0
 79 80  1  0
 79 89  1  0
 80 83  1  0
 81 85  1  0
 81 80  1  0
 82 81  2  0
 85 84  1  0
 87 85  1  0
 87 88  1  0
 87 86  1  0
 89 92  1  1
 89 90  1  0
 91 89  1  0
M  ISO  4  10 100  11 100  51 101  52 101
M  END
>  <TORSDO>  (18) 
F 22

>  <SCORE>  (18) 
-13.277

>  <name>  (18) 
17

>  <ligand_id>  (18) 
17

>  <original_smiles>  (18) 
[H]C([H])=C([H])c1c([H])c(OC([H])([H])C(=O)C([H])([H])Oc2c([H])c([H])c3c(c2[H])C([H])([H])N(C(=O)C([H])(N([H])C(=O)C([H])(N([H])C([H])([H])[H])C([H])([H])[H])C(C([H])([H])[H])(C([H])([H])[H])C([H])([H])[H])C([H])(C(=O)N([H])C2([H])c4c([H])c([H])c([H])c([H])c4C([H])([H])C([H])([H])C2([H])[H])C3([H])[H])c([H])c(C([H])=C([H])C(=O)N2C([H])([H])C([H])([H])C([H])([H])C([H])(n3nc(-c4c([H])c([H])c(Oc5c([H])c([H])c(F)c([H])c5F)c([H])c4[H])c(C(=O)N([H])[H])c3N([H])[H])C2([H])[H])c1[H]

>  <smiles>  (18) 
[H]C([H])=C([H])c1c([H])c(OC([H])([H])C(=O)C([H])([H])Oc2c([H])c([H])c3c(c2[H])C([H])([H])N(C(=O)C([H])(N([H])C(=O)C([H])(N([H])C([H])([H])[H])C([H])([H])[H])C(C([H])([H])[H])(C([H])([H])[H])C([H])([H])[H])C([H])(C(=O)N([H])C2([H])c4c([H])c([H])c([H])c([H])c4C([H])([H])C([H])([H])C2([H])[H])C3([H])[H])c([H])c(C([H])=C([H])C(=O)N2C([H])([H])C([H])([H])C([H])([H])C([H])(n3nc(-c4c([H])c([H])c(Oc5c([H])c([H])c(F)c([H])c5F)c([H])c4[H])c(C(=O)N([H])[H])c3N([H])[H])C2([H])[H])c1[H]

$$$$
18:0:0
     RDKit          3D

 92100  0  0  1  0  0  0  0  0999 V2000
  -29.1800  -20.8080   21.3310 C   0  0  0  0  0  3  0  0  0  0  0  0
  -29.1730  -22.0900   20.8620 C   0  0  0  0  0  3  0  0  0  0  0  0
  -30.3770  -19.8690   19.3710 C   0  0  0  0  0  3  0  0  0  0  0  0
  -30.8110  -18.8220   18.5630 C   0  0  0  0  0  3  0  0  0  0  0  0
  -29.5900  -18.2410   21.0010 C   0  0  0  0  0  3  0  0  0  0  0  0
  -29.7090  -19.6140   20.5840 C   0  0  0  0  0  0  0  0  0  0  0  0
  -30.6710  -17.4790   18.9500 C   0  0  0  0  0  0  0  0  0  0  0  0
  -30.1110  -17.1440   20.2210 C   0  0  0  0  0  0  0  0  0  0  0  0
  -31.0830  -16.4770   17.8910 C   0  0  0  0  0  1  0  0  0  0  0  0
  -30.7590  -14.6720   20.4720 C   0  0  0  0  0  0  0  0  0  0  0  0
  -30.5660  -12.4700   19.3710 C   0  0  0  0  0  2  0  0  0  0  0  0
  -29.6290  -12.5980   18.1470 C   0  0  0  0  0  2  0  0  0  0  0  0
  -28.1470  -12.4500   18.5560 C   0  0  0  0  0  2  0  0  0  0  0  0
  -27.7730  -13.3080   19.7920 C   0  0  0  0  0  3  0  0  0  0  0  0
  -28.8110  -13.1370   20.9220 C   0  0  0  0  0  2  0  0  0  0  0  0
  -30.1290  -13.4670   20.3660 N   0  0  0  0  0  0  0  0  0  0  0  0
  -31.9640  -14.7870   20.2260 O   0  0  0  0  0  0  0  0  0  0  0  0
  -29.9490  -15.7570   20.6580 N   0  0  0  0  0  0  0  0  0  0  0  0
  -29.0270  -15.5190   20.9880 H   0  0  0  0  0  0  0  0  0  0  0  0
  -25.3630  -13.9110   20.4540 C   0  0  0  0  0  0  0  0  0  0  0  0
  -24.2890  -13.1370   20.8140 C   0  0  0  0  0  0  0  0  0  0  0  0
  -24.7600  -11.7880   20.8180 C   0  0  0  0  0  0  0  0  0  0  0  0
  -26.4140  -13.0300   20.2560 N   0  0  0  0  0  0  0  0  0  0  0  0
  -26.0570  -11.7510   20.5400 N   0  0  0  0  0  0  0  0  0  0  0  0
  -24.0360  -10.5240   21.0080 C   0  0  0  0  0  0  0  0  0  0  0  0
  -24.4570   -9.5700   21.9610 C   0  0  0  0  0  3  0  0  0  0  0  0
  -23.7350   -8.3720   22.1430 C   0  0  0  0  0  3  0  0  0  0  0  0
  -22.5790   -8.1150   21.3670 C   0  0  0  0  0  0  0  0  0  0  0  0
  -22.1770   -9.0580   20.4050 C   0  0  0  0  0  3  0  0  0  0  0  0
  -22.9000  -10.2480   20.2220 C   0  0  0  0  0  3  0  0  0  0  0  0
  -21.8290   -6.9670   21.4560 O   0  0  0  0  0  0  0  0  0  0  0  0
  -21.7630   -6.2370   22.6160 C   0  0  0  0  0  0  0  0  0  0  0  0
  -21.3020   -6.7990   23.8260 C   0  0  0  0  0  3  0  0  0  0  0  0
  -21.1810   -5.9920   24.9760 C   0  0  0  0  0  3  0  0  0  0  0  0
  -21.5180   -4.6280   24.9190 C   0  0  0  0  0  0  0  0  0  0  0  0
  -21.9730   -4.0660   23.7140 C   0  0  0  0  0  3  0  0  0  0  0  0
  -22.0940   -4.8690   22.5650 C   0  0  0  0  0  0  0  0  0  0  0  0
  -22.5110   -4.3140   21.4020 F   0  0  0  0  0  0  0  0  0  0  0  0
  -21.3960   -3.8530   26.0230 F   0  0  0  0  0  0  0  0  0  0  0  0
  -22.8830  -13.6140   21.0380 C   0  0  0  0  0  0  0  0  0  0  0  0
  -22.1280  -12.9310   21.8960 N   0  0  0  0  0  0  0  0  0  0  0  0
  -22.4540  -14.6240   20.4850 O   0  0  0  0  0  0  0  0  0  0  0  0
  -22.4780  -12.1130   22.3720 H   0  0  0  0  0  0  0  0  0  0  0  0
  -21.1830  -13.2420   22.0750 H   0  0  0  0  0  0  0  0  0  0  0  0
  -25.5290  -15.2770   20.2550 N   0  0  0  0  0  0  0  0  0  0  0  0
  -24.7670  -15.9420   20.3250 H   0  0  0  0  0  0  0  0  0  0  0  0
  -26.3800  -15.7000   19.9060 H   0  0  0  0  0  0  0  0  0  0  0  0
  -28.7610  -23.3930   21.5590 C   0  0  0  0  0  2  0  0  0  0  0  0
  -27.8120  -24.2420   20.6790 C   0  0  0  0  0  0  0  0  0  0  0  0
  -26.6020  -23.9960   20.6800 O   0  0  0  0  0  0  0  0  0  0  0  0
  -28.4030  -25.3030   19.7010 C   0  0  0  0  0  2  0  0  0  0  0  0
  -28.3350  -26.6720   20.1760 O   0  0  0  0  0  0  0  0  0  0  0  0
  -24.5540  -31.8700   23.2170 C   0  0  0  0  0  0  0  0  0  0  0  0
  -27.1600  -27.4030   20.1150 C   0  0  0  0  0  0  0  0  0  0  0  0
  -23.3380  -30.4820   21.5680 C   0  0  0  0  0  3  0  0  0  0  0  0
  -24.7770  -28.9460   20.1220 C   0  0  0  0  0  0  0  0  0  0  0  0
  -25.8650  -30.8220   21.3690 C   0  0  0  0  0  2  0  0  0  0  0  0
  -25.9370  -29.4510   20.7220 C   0  0  0  0  0  0  0  0  0  0  0  0
  -27.1270  -28.6850   20.7140 C   0  0  0  0  0  3  0  0  0  0  0  0
  -25.9830  -26.9260   19.4930 C   0  0  0  0  0  3  0  0  0  0  0  0
  -24.7990  -27.6880   19.4960 C   0  0  0  0  0  3  0  0  0  0  0  0
  -23.5340  -29.8030   20.1850 C   0  0  0  0  0  2  0  0  0  0  0  0
  -24.6040  -31.0760   22.1090 N   0  0  0  0  0  0  0  0  0  0  0  0
  -23.4750  -32.1440   23.7610 O   0  0  0  0  0  0  0  0  0  0  0  0
  -22.6870  -29.4600   22.5290 C   0  0  0  0  0  0  0  0  0  0  0  0
  -21.3610  -29.2880   22.4060 N   0  0  0  0  0  0  0  0  0  0  0  0
  -23.3700  -28.8270   23.3380 O   0  0  0  0  0  0  0  0  0  0  0  0
  -20.8730  -29.8620   21.7310 H   0  0  0  0  0  0  0  0  0  0  0  0
  -17.9810  -28.1050   22.9030 C   0  0  0  0  0  0  0  0  0  0  0  0
  -20.5410  -28.3460   23.1650 C   0  0  0  0  0  3  0  0  0  0  0  0
  -20.6300  -26.9210   22.5720 C   0  0  0  0  0  2  0  0  0  0  0  0
  -19.5220  -26.6140   21.5590 C   0  0  0  0  0  2  0  0  0  0  0  0
  -18.1450  -26.7610   22.2130 C   0  0  0  0  0  2  0  0  0  0  0  0
  -19.1050  -28.8550   23.3350 C   0  0  0  0  0  0  0  0  0  0  0  0
  -18.8990  -30.1140   23.9400 C   0  0  0  0  0  3  0  0  0  0  0  0
  -17.5980  -30.6220   24.1160 C   0  0  0  0  0  3  0  0  0  0  0  0
  -16.4870  -29.8690   23.7000 C   0  0  0  0  0  3  0  0  0  0  0  0
  -16.6800  -28.6110   23.1020 C   0  0  0  0  0  3  0  0  0  0  0  0
  -25.8440  -32.4910   23.8390 C   0  0  0  0  0  3  0  0  0  0  0  0
  -26.3570  -31.7140   25.1160 C   0  0  1  0  0  0  0  0  0  0  0  0
  -25.2650  -31.4880   26.1870 C   0  0  0  0  0  1  0  0  0  0  0  0
  -26.9260  -30.3300   24.7200 C   0  0  0  0  0  1  0  0  0  0  0  0
  -27.5130  -32.4990   25.7770 C   0  0  0  0  0  1  0  0  0  0  0  0
  -25.5480  -33.8910   24.1720 N   0  0  0  0  0  0  0  0  0  0  0  0
  -25.8900  -34.9430   23.4150 C   0  0  0  0  0  0  0  0  0  0  0  0
  -26.5630  -34.8360   22.3860 O   0  0  0  0  0  0  0  0  0  0  0  0
  -24.9550  -34.0500   24.9730 H   0  0  0  0  0  0  0  0  0  0  0  0
  -24.1830  -36.7550   23.0430 C   0  0  0  0  0  1  0  0  0  0  0  0
  -25.4100  -36.3360   23.8690 C   0  0  0  0  0  3  0  0  0  0  0  0
  -27.5460  -37.1980   24.7250 C   0  0  0  0  0  1  0  0  0  0  0  0
  -26.4530  -37.3810   23.7710 N   0  0  0  0  0  0  0  0  0  0  0  0
  -26.0550  -38.3040   23.9150 H   0  0  0  0  0  0  0  0  0  0  0  0
  2  1  2  0
  2 48  1  0
  3  6  1  0
  4  7  1  0
  4  3  2  0
  6  5  2  0
  6  1  1  0
  7  8  2  0
  8 18  1  0
  8  5  1  0
  9  7  1  0
 10 18  1  0
 11 16  1  0
 12 13  1  0
 12 11  1  0
 14 13  1  0
 14 23  1  0
 14 15  1  0
 16 10  1  0
 16 15  1  0
 17 10  2  0
 18 19  1  0
 20 21  2  0
 21 22  1  0
 21 40  1  0
 22 25  1  0
 23 20  1  0
 23 24  1  0
 24 22  2  0
 25 26  1  0
 26 27  2  0
 28 31  1  0
 28 27  1  0
 29 28  2  0
 30 29  1  0
 30 25  2  0
 31 32  1  0
 32 33  1  0
 33 34  2  0
 35 34  1  0
 35 39  1  0
 36 35  2  0
 37 32  2  0
 37 36  1  0
 38 37  1  0
 40 41  1  0
 41 44  1  0
 41 43  1  0
 42 40  2  0
 45 46  1  0
 45 20  1  0
 47 45  1  0
 49 50  2  0
 49 48  1  0
 51 52  1  0
 51 49  1  0
 53 64  2  0
 54 52  1  0
 54 59  1  0
 55 63  1  0
 55 65  1  0
 56 62  1  0
 56 58  1  0
 57 63  1  0
 58 57  1  0
 59 58  2  0
 60 61  1  0
 60 54  2  0
 61 56  2  0
 62 55  1  0
 63 53  1  0
 65 67  2  0
 66 65  1  0
 68 66  1  0
 69 78  2  0
 69 74  1  0
 70 66  1  0
 70 74  1  0
 71 70  1  0
 72 73  1  0
 72 71  1  0
 73 69  1  0
 74 75  2  0
 75 76  1  0
 77 76  2  0
 78 77  1  0
 79 53  1  0
 79 84  1  0
 79 80  1  0
 80 83  1  1
 80 81  1  0
 82 80  1  0
 84 87  1  0
 85 89  1  0
 85 84  1  0
 86 85  2  0
 89 88  1  0
 91 89  1  0
 91 92  1  0
 91 90  1  0
M  ISO  4  10 100  18 100  51 101  52 101
M  END
>  <TORSDO>  (19) 
F 20

>  <SCORE>  (19) 
-13.683

>  <name>  (19) 
18

>  <ligand_id>  (19) 
18

>  <original_smiles>  (19) 
[H]C(=C([H])C([H])([H])C(=O)C([H])([H])Oc1c([H])c([H])c2c(c1[H])C([H])([H])N(C(=O)C([H])(N([H])C(=O)C([H])(N([H])C([H])([H])[H])C([H])([H])[H])C(C([H])([H])[H])(C([H])([H])[H])C([H])([H])[H])C([H])(C(=O)N([H])C1([H])c3c([H])c([H])c([H])c([H])c3C([H])([H])C([H])([H])C1([H])[H])C2([H])[H])c1c([H])c([H])c(C([H])([H])[H])c(N([H])C(=O)N2C([H])([H])C([H])([H])C([H])([H])C([H])(n3nc(-c4c([H])c([H])c(Oc5c([H])c([H])c(F)c([H])c5F)c([H])c4[H])c(C(=O)N([H])[H])c3N([H])[H])C2([H])[H])c1[H]

>  <smiles>  (19) 
[H]C(=C([H])C([H])([H])C(=O)C([H])([H])Oc1c([H])c([H])c2c(c1[H])C([H])([H])N(C(=O)C([H])(N([H])C(=O)C([H])(N([H])C([H])([H])[H])C([H])([H])[H])C(C([H])([H])[H])(C([H])([H])[H])C([H])([H])[H])C([H])(C(=O)N([H])C1([H])c3c([H])c([H])c([H])c([H])c3C([H])([H])C([H])([H])C1([H])[H])C2([H])[H])c1c([H])c([H])c(C([H])([H])[H])c(N([H])C(=O)N2C([H])([H])C([H])([H])C([H])([H])C([H])(n3nc(-c4c([H])c([H])c(Oc5c([H])c([H])c(F)c([H])c5F)c([H])c4[H])c(C(=O)N([H])[H])c3N([H])[H])C2([H])[H])c1[H]

$$$$
19:0:0
     RDKit          3D

 91 99  0  0  1  0  0  0  0  0999 V2000
  -30.1290  -21.6930   20.2470 C   0  0  0  0  0  3  0  0  0  0  0  0
  -29.1400  -22.6340   20.0960 C   0  0  0  0  0  3  0  0  0  0  0  0
  -31.2090  -19.3670   20.4240 C   0  0  0  0  0  3  0  0  0  0  0  0
  -31.1630  -17.9390   20.4850 C   0  0  0  0  0  3  0  0  0  0  0  0
  -28.8270  -19.4610   20.2450 C   0  0  0  0  0  3  0  0  0  0  0  0
  -30.0430  -20.1750   20.3070 C   0  0  0  0  0  0  0  0  0  0  0  0
  -28.7660  -18.0390   20.3180 C   0  0  0  0  0  0  0  0  0  0  0  0
  -29.9370  -17.2220   20.4310 C   0  0  0  0  0  0  0  0  0  0  0  0
  -27.3880  -17.4260   20.2350 C   0  0  0  0  0  1  0  0  0  0  0  0
  -30.5780  -14.7080   20.0610 C   0  0  0  0  0  0  0  0  0  0  0  0
  -30.2850  -12.5080   18.9340 C   0  0  0  0  0  2  0  0  0  0  0  0
  -29.2680  -12.6790   17.7850 C   0  0  0  0  0  2  0  0  0  0  0  0
  -27.8240  -12.5040   18.2990 C   0  0  0  0  0  2  0  0  0  0  0  0
  -27.5440  -13.3240   19.5850 C   0  0  0  0  0  3  0  0  0  0  0  0
  -28.6720  -13.1330   20.6260 C   0  0  0  0  0  2  0  0  0  0  0  0
  -29.9440  -13.4930   19.9800 N   0  0  0  0  0  0  0  0  0  0  0  0
  -31.7200  -14.8580   19.6170 O   0  0  0  0  0  0  0  0  0  0  0  0
  -29.8060  -15.7580   20.4920 N   0  0  0  0  0  0  0  0  0  0  0  0
  -28.9020  -15.4470   20.8110 H   0  0  0  0  0  0  0  0  0  0  0  0
  -25.1890  -13.8960   20.4510 C   0  0  0  0  0  0  0  0  0  0  0  0
  -24.1510  -13.1190   20.8760 C   0  0  0  0  0  0  0  0  0  0  0  0
  -24.6080  -11.7700   20.7770 C   0  0  0  0  0  0  0  0  0  0  0  0
  -26.2230  -13.0270   20.1400 N   0  0  0  0  0  0  0  0  0  0  0  0
  -25.8790  -11.7390   20.3930 N   0  0  0  0  0  0  0  0  0  0  0  0
  -23.8870  -10.5070   20.9690 C   0  0  0  0  0  0  0  0  0  0  0  0
  -24.3330   -9.5360   21.8910 C   0  0  0  0  0  3  0  0  0  0  0  0
  -23.6120   -8.3360   22.0700 C   0  0  0  0  0  3  0  0  0  0  0  0
  -22.4300   -8.1010   21.3280 C   0  0  0  0  0  0  0  0  0  0  0  0
  -22.0020   -9.0610   20.3940 C   0  0  0  0  0  3  0  0  0  0  0  0
  -22.7250  -10.2520   20.2120 C   0  0  0  0  0  3  0  0  0  0  0  0
  -21.6790   -6.9540   21.4190 O   0  0  0  0  0  0  0  0  0  0  0  0
  -21.5980   -6.2400   22.5870 C   0  0  0  0  0  0  0  0  0  0  0  0
  -21.1080   -6.8150   23.7800 C   0  0  0  0  0  3  0  0  0  0  0  0
  -20.9750   -6.0250   24.9390 C   0  0  0  0  0  3  0  0  0  0  0  0
  -21.3230   -4.6610   24.9060 C   0  0  0  0  0  0  0  0  0  0  0  0
  -21.8080   -4.0850   23.7180 C   0  0  0  0  0  3  0  0  0  0  0  0
  -21.9420   -4.8730   22.5610 C   0  0  0  0  0  0  0  0  0  0  0  0
  -22.3880   -4.3090   21.4130 F   0  0  0  0  0  0  0  0  0  0  0  0
  -21.1870   -3.8990   26.0170 F   0  0  0  0  0  0  0  0  0  0  0  0
  -22.7750  -13.5950   21.2420 C   0  0  0  0  0  0  0  0  0  0  0  0
  -22.0960  -12.8820   22.1330 N   0  0  0  0  0  0  0  0  0  0  0  0
  -22.3130  -14.6350   20.7750 O   0  0  0  0  0  0  0  0  0  0  0  0
  -22.4840  -12.0410   22.5350 H   0  0  0  0  0  0  0  0  0  0  0  0
  -21.1750  -13.1840   22.4210 H   0  0  0  0  0  0  0  0  0  0  0  0
  -25.3240  -15.2650   20.2760 N   0  0  0  0  0  0  0  0  0  0  0  0
  -24.5260  -15.8830   20.3820 H   0  0  0  0  0  0  0  0  0  0  0  0
  -26.0790  -15.6770   19.7470 H   0  0  0  0  0  0  0  0  0  0  0  0
  -29.3700  -24.1380   20.0880 C   0  0  0  0  0  0  0  0  0  0  0  0
  -30.4850  -24.6250   20.3070 O   0  0  0  0  0  0  0  0  0  0  0  0
  -28.1770  -25.1120   19.7760 C   0  0  0  0  0  2  0  0  0  0  0  0
  -28.3930  -26.5490   20.0490 O   0  0  0  0  0  0  0  0  0  0  0  0
  -24.5920  -31.8090   23.2030 C   0  0  0  0  0  0  0  0  0  0  0  0
  -27.2560  -27.3730   20.0290 C   0  0  0  0  0  0  0  0  0  0  0  0
  -23.4050  -30.4490   21.5200 C   0  0  0  0  0  3  0  0  0  0  0  0
  -24.8730  -28.9540   20.0600 C   0  0  0  0  0  0  0  0  0  0  0  0
  -25.9430  -30.7940   21.3580 C   0  0  0  0  0  2  0  0  0  0  0  0
  -26.0350  -29.4370   20.6730 C   0  0  0  0  0  0  0  0  0  0  0  0
  -27.2300  -28.6590   20.6490 C   0  0  0  0  0  3  0  0  0  0  0  0
  -26.0640  -26.9380   19.4000 C   0  0  0  0  0  3  0  0  0  0  0  0
  -24.8870  -27.7080   19.4170 C   0  0  0  0  0  3  0  0  0  0  0  0
  -23.6310  -29.8170   20.1230 C   0  0  0  0  0  2  0  0  0  0  0  0
  -24.6650  -31.0320   22.0850 N   0  0  0  0  0  0  0  0  0  0  0  0
  -23.5030  -32.0660   23.7400 O   0  0  0  0  0  0  0  0  0  0  0  0
  -22.7430  -29.4010   22.4460 C   0  0  0  0  0  0  0  0  0  0  0  0
  -21.4210  -29.2160   22.3000 N   0  0  0  0  0  0  0  0  0  0  0  0
  -23.4200  -28.7610   23.2550 O   0  0  0  0  0  0  0  0  0  0  0  0
  -20.9360  -29.7870   21.6240 H   0  0  0  0  0  0  0  0  0  0  0  0
  -18.0460  -27.9950   22.7480 C   0  0  0  0  0  0  0  0  0  0  0  0
  -20.6020  -28.2530   23.0390 C   0  0  0  0  0  3  0  0  0  0  0  0
  -20.7110  -26.8400   22.4220 C   0  0  0  0  0  2  0  0  0  0  0  0
  -19.6160  -26.5430   21.3930 C   0  0  0  0  0  2  0  0  0  0  0  0
  -18.2300  -26.6660   22.0340 C   0  0  0  0  0  2  0  0  0  0  0  0
  -19.1600  -28.7480   23.2050 C   0  0  0  0  0  0  0  0  0  0  0  0
  -18.9340  -29.9920   23.8320 C   0  0  0  0  0  3  0  0  0  0  0  0
  -17.6260  -30.4840   24.0050 C   0  0  0  0  0  3  0  0  0  0  0  0
  -16.5270  -29.7280   23.5630 C   0  0  0  0  0  3  0  0  0  0  0  0
  -16.7380  -28.4850   22.9410 C   0  0  0  0  0  3  0  0  0  0  0  0
  -25.8680  -32.4300   23.8510 C   0  0  0  0  0  3  0  0  0  0  0  0
  -26.3630  -31.6440   25.1280 C   0  0  1  0  0  0  0  0  0  0  0  0
  -25.2520  -31.3980   26.1760 C   0  0  0  0  0  1  0  0  0  0  0  0
  -26.9490  -30.2690   24.7300 C   0  0  0  0  0  1  0  0  0  0  0  0
  -27.5070  -32.4270   25.8140 C   0  0  0  0  0  1  0  0  0  0  0  0
  -25.5590  -33.8260   24.1910 N   0  0  0  0  0  0  0  0  0  0  0  0
  -25.8800  -34.8820   23.4310 C   0  0  0  0  0  0  0  0  0  0  0  0
  -26.5390  -34.7830   22.3910 O   0  0  0  0  0  0  0  0  0  0  0  0
  -24.9740  -33.9770   24.9980 H   0  0  0  0  0  0  0  0  0  0  0  0
  -24.1330  -36.6640   23.1170 C   0  0  0  0  0  1  0  0  0  0  0  0
  -25.3950  -36.2670   23.9000 C   0  0  0  0  0  3  0  0  0  0  0  0
  -27.5410  -37.1690   24.6820 C   0  0  0  0  0  1  0  0  0  0  0  0
  -26.4170  -37.3280   23.7630 N   0  0  0  0  0  0  0  0  0  0  0  0
  -26.0060  -38.2440   23.9220 H   0  0  0  0  0  0  0  0  0  0  0  0
  1  6  1  0
  2  1  2  0
  3  4  1  0
  5  6  1  0
  5  7  2  0
  6  3  2  0
  7  8  1  0
  8  4  2  0
  8 18  1  0
  9  7  1  0
 10 18  1  0
 11 16  1  0
 12 13  1  0
 12 11  1  0
 14 13  1  0
 14 23  1  0
 14 15  1  0
 16 10  1  0
 16 15  1  0
 17 10  2  0
 18 19  1  0
 20 21  2  0
 21 40  1  0
 22 21  1  0
 22 25  1  0
 23 24  1  0
 23 20  1  0
 24 22  2  0
 25 26  1  0
 26 27  2  0
 28 31  1  0
 28 27  1  0
 29 28  2  0
 30 29  1  0
 30 25  2  0
 31 32  1  0
 32 33  1  0
 33 34  2  0
 35 34  1  0
 35 39  1  0
 36 35  2  0
 37 32  2  0
 37 36  1  0
 38 37  1  0
 40 41  1  0
 41 44  1  0
 41 43  1  0
 42 40  2  0
 45 46  1  0
 45 20  1  0
 47 45  1  0
 48  2  1  0
 48 49  2  0
 50 51  1  0
 50 48  1  0
 52 63  2  0
 53 51  1  0
 53 58  1  0
 54 62  1  0
 54 64  1  0
 55 61  1  0
 55 57  1  0
 56 62  1  0
 57 56  1  0
 58 57  2  0
 59 60  1  0
 59 53  2  0
 60 55  2  0
 61 54  1  0
 62 52  1  0
 64 66  2  0
 65 64  1  0
 67 65  1  0
 68 77  2  0
 68 73  1  0
 69 65  1  0
 69 73  1  0
 70 69  1  0
 71 72  1  0
 71 70  1  0
 72 68  1  0
 73 74  2  0
 74 75  1  0
 76 75  2  0
 77 76  1  0
 78 52  1  0
 78 83  1  0
 78 79  1  0
 79 82  1  1
 79 80  1  0
 81 79  1  0
 83 86  1  0
 84 88  1  0
 84 83  1  0
 85 84  2  0
 88 87  1  0
 90 88  1  0
 90 91  1  0
 90 89  1  0
M  ISO  4  10 100  18 100  50 101  51 101
M  END
>  <TORSDO>  (20) 
F 19

>  <SCORE>  (20) 
-14.326

>  <name>  (20) 
19

>  <ligand_id>  (20) 
19

>  <original_smiles>  (20) 
[H]C(C(=O)C([H])([H])Oc1c([H])c([H])c2c(c1[H])C([H])([H])N(C(=O)C([H])(N([H])C(=O)C([H])(N([H])C([H])([H])[H])C([H])([H])[H])C(C([H])([H])[H])(C([H])([H])[H])C([H])([H])[H])C([H])(C(=O)N([H])C1([H])c3c([H])c([H])c([H])c([H])c3C([H])([H])C([H])([H])C1([H])[H])C2([H])[H])=C([H])c1c([H])c([H])c(N([H])C(=O)N2C([H])([H])C([H])([H])C([H])([H])C([H])(n3nc(-c4c([H])c([H])c(Oc5c([H])c([H])c(F)c([H])c5F)c([H])c4[H])c(C(=O)N([H])[H])c3N([H])[H])C2([H])[H])c(C([H])([H])[H])c1[H]

>  <smiles>  (20) 
[H]C(C(=O)C([H])([H])Oc1c([H])c([H])c2c(c1[H])C([H])([H])N(C(=O)C([H])(N([H])C(=O)C([H])(N([H])C([H])([H])[H])C([H])([H])[H])C(C([H])([H])[H])(C([H])([H])[H])C([H])([H])[H])C([H])(C(=O)N([H])C1([H])c3c([H])c([H])c([H])c([H])c3C([H])([H])C([H])([H])C1([H])[H])C2([H])[H])=C([H])c1c([H])c([H])c(N([H])C(=O)N2C([H])([H])C([H])([H])C([H])([H])C([H])(n3nc(-c4c([H])c([H])c(Oc5c([H])c([H])c(F)c([H])c5F)c([H])c4[H])c(C(=O)N([H])[H])c3N([H])[H])C2([H])[H])c(C([H])([H])[H])c1[H]

$$$$
20:0:0
     RDKit          3D

 92100  0  0  1  0  0  0  0  0999 V2000
  -29.0780  -19.4710   20.9090 C   0  0  0  0  0  3  0  0  0  0  0  0
  -29.2120  -18.0720   21.1560 C   0  0  0  0  0  3  0  0  0  0  0  0
  -30.4240  -17.8100   19.1010 C   0  0  0  0  0  3  0  0  0  0  0  0
  -29.5670  -20.0860   19.7290 C   0  0  0  0  0  0  0  0  0  0  0  0
  -30.2460  -19.2040   18.8180 C   0  0  0  0  0  0  0  0  0  0  0  0
  -29.8910  -17.1970   20.2640 C   0  0  0  0  0  0  0  0  0  0  0  0
  -30.6440  -14.7180   20.0360 C   0  0  0  0  0  0  0  0  0  0  0  0
  -30.3720  -12.5010   18.9570 C   0  0  0  0  0  2  0  0  0  0  0  0
  -29.3580  -12.6680   17.8020 C   0  0  0  0  0  2  0  0  0  0  0  0
  -27.9160  -12.4920   18.3180 C   0  0  0  0  0  2  0  0  0  0  0  0
  -27.6320  -13.3250   19.5940 C   0  0  0  0  0  3  0  0  0  0  0  0
  -28.7540  -13.1420   20.6410 C   0  0  0  0  0  2  0  0  0  0  0  0
  -30.0300  -13.4920   19.9960 N   0  0  0  0  0  0  0  0  0  0  0  0
  -31.7670  -14.8850   19.5510 O   0  0  0  0  0  0  0  0  0  0  0  0
  -29.8950  -15.7550   20.5320 N   0  0  0  0  0  0  0  0  0  0  0  0
  -29.1080  -15.4340   21.0730 H   0  0  0  0  0  0  0  0  0  0  0  0
  -25.2910  -13.9140   20.4800 C   0  0  0  0  0  0  0  0  0  0  0  0
  -24.2390  -13.1370   20.8790 C   0  0  0  0  0  0  0  0  0  0  0  0
  -24.6890  -11.7840   20.7810 C   0  0  0  0  0  0  0  0  0  0  0  0
  -26.3130  -13.0350   20.1510 N   0  0  0  0  0  0  0  0  0  0  0  0
  -25.9580  -11.7460   20.3940 N   0  0  0  0  0  0  0  0  0  0  0  0
  -23.9660  -10.5220   20.9820 C   0  0  0  0  0  0  0  0  0  0  0  0
  -24.4270   -9.5470   21.8930 C   0  0  0  0  0  3  0  0  0  0  0  0
  -23.7090   -8.3490   22.0830 C   0  0  0  0  0  3  0  0  0  0  0  0
  -22.5120   -8.1180   21.3630 C   0  0  0  0  0  0  0  0  0  0  0  0
  -22.0680   -9.0810   20.4410 C   0  0  0  0  0  3  0  0  0  0  0  0
  -22.7880  -10.2710   20.2500 C   0  0  0  0  0  3  0  0  0  0  0  0
  -21.7630   -6.9700   21.4620 O   0  0  0  0  0  0  0  0  0  0  0  0
  -21.7270   -6.2300   22.6160 C   0  0  0  0  0  0  0  0  0  0  0  0
  -21.2820   -6.7780   23.8390 C   0  0  0  0  0  3  0  0  0  0  0  0
  -21.1920   -5.9640   24.9840 C   0  0  0  0  0  3  0  0  0  0  0  0
  -21.5380   -4.6010   24.9120 C   0  0  0  0  0  0  0  0  0  0  0  0
  -21.9770   -4.0520   23.6950 C   0  0  0  0  0  3  0  0  0  0  0  0
  -22.0690   -4.8630   22.5490 C   0  0  0  0  0  0  0  0  0  0  0  0
  -22.4710   -4.3230   21.3730 F   0  0  0  0  0  0  0  0  0  0  0  0
  -21.4440   -3.8170   26.0120 F   0  0  0  0  0  0  0  0  0  0  0  0
  -22.8660  -13.6170   21.2450 C   0  0  0  0  0  0  0  0  0  0  0  0
  -22.1800  -12.9000   22.1280 N   0  0  0  0  0  0  0  0  0  0  0  0
  -22.4100  -14.6640   20.7870 O   0  0  0  0  0  0  0  0  0  0  0  0
  -22.5620  -12.0570   22.5270 H   0  0  0  0  0  0  0  0  0  0  0  0
  -21.2600  -13.2050   22.4130 H   0  0  0  0  0  0  0  0  0  0  0  0
  -25.4610  -15.2890   20.3570 N   0  0  0  0  0  0  0  0  0  0  0  0
  -24.7310  -15.9440   20.6120 H   0  0  0  0  0  0  0  0  0  0  0  0
  -26.3290  -15.7410   20.0950 H   0  0  0  0  0  0  0  0  0  0  0  0
  -29.3760  -21.5790   19.4450 C   0  0  0  0  0  3  0  0  0  0  0  0
  -28.9430  -22.6130   20.2430 C   0  0  0  0  0  3  0  0  0  0  0  0
  -28.8030  -24.0550   19.7640 C   0  0  0  0  0  0  0  0  0  0  0  0
  -29.1040  -24.3740   18.6090 O   0  0  0  0  0  0  0  0  0  0  0  0
  -28.2570  -25.1840   20.7220 C   0  0  0  0  0  2  0  0  0  0  0  0
  -28.4280  -26.5790   20.2580 O   0  0  0  0  0  0  0  0  0  0  0  0
  -24.6130  -31.9170   23.2740 C   0  0  0  0  0  0  0  0  0  0  0  0
  -27.2930  -27.3930   20.2500 C   0  0  0  0  0  0  0  0  0  0  0  0
  -23.4360  -30.5070   21.6200 C   0  0  0  0  0  3  0  0  0  0  0  0
  -24.9130  -28.9650   20.2140 C   0  0  0  0  0  0  0  0  0  0  0  0
  -25.9720  -30.8510   21.4640 C   0  0  0  0  0  2  0  0  0  0  0  0
  -26.0690  -29.4720   20.8210 C   0  0  0  0  0  0  0  0  0  0  0  0
  -27.2670  -28.6990   20.8240 C   0  0  0  0  0  3  0  0  0  0  0  0
  -26.1150  -26.9250   19.6310 C   0  0  0  0  0  3  0  0  0  0  0  0
  -24.9360  -27.6960   19.6110 C   0  0  0  0  0  3  0  0  0  0  0  0
  -23.6680  -29.8280   20.2440 C   0  0  0  0  0  2  0  0  0  0  0  0
  -24.6910  -31.1070   22.1760 N   0  0  0  0  0  0  0  0  0  0  0  0
  -23.5210  -32.1920   23.7940 O   0  0  0  0  0  0  0  0  0  0  0  0
  -22.7680  -29.4900   22.5750 C   0  0  0  0  0  0  0  0  0  0  0  0
  -21.4420  -29.3180   22.4370 N   0  0  0  0  0  0  0  0  0  0  0  0
  -23.4400  -28.8590   23.3950 O   0  0  0  0  0  0  0  0  0  0  0  0
  -20.9660  -29.8820   21.7470 H   0  0  0  0  0  0  0  0  0  0  0  0
  -18.0500  -28.1550   22.9260 C   0  0  0  0  0  0  0  0  0  0  0  0
  -20.6120  -28.3800   23.1940 C   0  0  0  0  0  3  0  0  0  0  0  0
  -20.6970  -26.9560   22.5970 C   0  0  0  0  0  2  0  0  0  0  0  0
  -19.5850  -26.6580   21.5850 C   0  0  0  0  0  2  0  0  0  0  0  0
  -18.2080  -26.8090   22.2390 C   0  0  0  0  0  2  0  0  0  0  0  0
  -19.1780  -28.8990   23.3610 C   0  0  0  0  0  0  0  0  0  0  0  0
  -18.9770  -30.1560   23.9710 C   0  0  0  0  0  3  0  0  0  0  0  0
  -17.6770  -30.6690   24.1470 C   0  0  0  0  0  3  0  0  0  0  0  0
  -16.5640  -29.9240   23.7270 C   0  0  0  0  0  3  0  0  0  0  0  0
  -16.7500  -28.6670   23.1240 C   0  0  0  0  0  3  0  0  0  0  0  0
  -25.8850  -32.5520   23.9160 C   0  0  0  0  0  3  0  0  0  0  0  0
  -26.3650  -31.8020   25.2200 C   0  0  1  0  0  0  0  0  0  0  0  0
  -25.2490  -31.6060   26.2740 C   0  0  0  0  0  1  0  0  0  0  0  0
  -26.9360  -30.4080   24.8730 C   0  0  0  0  0  1  0  0  0  0  0  0
  -27.5180  -32.5920   25.8820 C   0  0  0  0  0  1  0  0  0  0  0  0
  -25.5810  -33.9590   24.2120 N   0  0  0  0  0  0  0  0  0  0  0  0
  -25.9450  -34.9910   23.4400 C   0  0  0  0  0  0  0  0  0  0  0  0
  -26.6430  -34.8610   22.4310 O   0  0  0  0  0  0  0  0  0  0  0  0
  -24.9660  -34.1340   24.9940 H   0  0  0  0  0  0  0  0  0  0  0  0
  -24.2520  -36.7980   22.9840 C   0  0  0  0  0  1  0  0  0  0  0  0
  -25.4550  -36.3930   23.8510 C   0  0  0  0  0  3  0  0  0  0  0  0
  -27.5700  -37.2620   24.7460 C   0  0  0  0  0  1  0  0  0  0  0  0
  -26.5000  -37.4360   23.7670 N   0  0  0  0  0  0  0  0  0  0  0  0
  -26.0960  -38.3580   23.9050 H   0  0  0  0  0  0  0  0  0  0  0  0
  -29.6610  -19.6860   16.3920 C   0  0  0  0  0  1  0  0  0  0  0  0
  -30.7580  -19.7100   17.4700 C   0  0  0  0  0  2  0  0  0  0  0  0
  1  2  1  0
  3  6  1  0
  4  1  2  0
  5  3  2  0
  5  4  1  0
  6 15  1  0
  6  2  2  0
  7 15  1  0
  8 13  1  0
  9 10  1  0
  9  8  1  0
 11 10  1  0
 11 20  1  0
 11 12  1  0
 13  7  1  0
 13 12  1  0
 14  7  2  0
 15 16  1  0
 17 18  2  0
 18 37  1  0
 19 18  1  0
 19 22  1  0
 20 21  1  0
 20 17  1  0
 21 19  2  0
 22 23  1  0
 23 24  2  0
 25 28  1  0
 25 24  1  0
 26 25  2  0
 27 26  1  0
 27 22  2  0
 28 29  1  0
 29 30  1  0
 30 31  2  0
 32 31  1  0
 32 36  1  0
 33 32  2  0
 34 29  2  0
 34 33  1  0
 35 34  1  0
 37 38  1  0
 38 41  1  0
 38 40  1  0
 39 37  2  0
 42 17  1  0
 42 43  1  0
 44 42  1  0
 45  4  1  0
 45 46  2  0
 47 46  1  0
 47 49  1  0
 48 47  2  0
 50 49  1  0
 51 62  2  0
 52 50  1  0
 52 57  1  0
 53 61  1  0
 53 63  1  0
 54 60  1  0
 54 56  1  0
 55 61  1  0
 56 57  2  0
 56 55  1  0
 58 52  2  0
 59 58  1  0
 59 54  2  0
 60 53  1  0
 61 51  1  0
 63 65  2  0
 64 63  1  0
 66 64  1  0
 67 76  2  0
 67 72  1  0
 68 64  1  0
 68 72  1  0
 69 68  1  0
 70 71  1  0
 70 69  1  0
 71 67  1  0
 72 73  2  0
 73 74  1  0
 75 74  2  0
 76 75  1  0
 77 51  1  0
 77 82  1  0
 77 78  1  0
 78 81  1  1
 78 79  1  0
 80 78  1  0
 82 85  1  0
 83 87  1  0
 83 82  1  0
 84 83  2  0
 87 86  1  0
 89 87  1  0
 89 90  1  0
 89 88  1  0
 91 92  1  0
 92  5  1  0
M  ISO  4   7 100  15 100  49 101  50 101
M  END
>  <TORSDO>  (21) 
F 20

>  <SCORE>  (21) 
-13.470

>  <name>  (21) 
20

>  <ligand_id>  (21) 
20

>  <original_smiles>  (21) 
[H]C(C(=O)C([H])([H])Oc1c([H])c([H])c2c(c1[H])C([H])([H])N(C(=O)C([H])(N([H])C(=O)C([H])(N([H])C([H])([H])[H])C([H])([H])[H])C(C([H])([H])[H])(C([H])([H])[H])C([H])([H])[H])C([H])(C(=O)N([H])C1([H])c3c([H])c([H])c([H])c([H])c3C([H])([H])C([H])([H])C1([H])[H])C2([H])[H])=C([H])c1c([H])c([H])c(N([H])C(=O)N2C([H])([H])C([H])([H])C([H])([H])C([H])(n3nc(-c4c([H])c([H])c(Oc5c([H])c([H])c(F)c([H])c5F)c([H])c4[H])c(C(=O)N([H])[H])c3N([H])[H])C2([H])[H])c([H])c1C([H])([H])C([H])([H])[H]

>  <smiles>  (21) 
[H]C(C(=O)C([H])([H])Oc1c([H])c([H])c2c(c1[H])C([H])([H])N(C(=O)C([H])(N([H])C(=O)C([H])(N([H])C([H])([H])[H])C([H])([H])[H])C(C([H])([H])[H])(C([H])([H])[H])C([H])([H])[H])C([H])(C(=O)N([H])C1([H])c3c([H])c([H])c([H])c([H])c3C([H])([H])C([H])([H])C1([H])[H])C2([H])[H])=C([H])c1c([H])c([H])c(N([H])C(=O)N2C([H])([H])C([H])([H])C([H])([H])C([H])(n3nc(-c4c([H])c([H])c(Oc5c([H])c([H])c(F)c([H])c5F)c([H])c4[H])c(C(=O)N([H])[H])c3N([H])[H])C2([H])[H])c([H])c1C([H])([H])C([H])([H])[H]

$$$$
21:0:0
     RDKit          3D

 92100  0  0  1  0  0  0  0  0999 V2000
  -29.4820  -17.2570   18.6520 C   0  0  0  0  0  3  0  0  0  0  0  0
  -29.2420  -19.7000   18.5730 C   0  0  0  0  0  3  0  0  0  0  0  0
  -30.0310  -18.6090   20.6060 C   0  0  0  0  0  0  0  0  0  0  0  0
  -29.9250  -17.2860   19.9920 C   0  0  0  0  0  0  0  0  0  0  0  0
  -29.6920  -19.8490   19.9050 C   0  0  0  0  0  0  0  0  0  0  0  0
  -29.1460  -18.4360   17.9600 C   0  0  0  0  0  0  0  0  0  0  0  0
  -28.7020  -18.3540   16.6830 F   0  0  0  0  0  0  0  0  0  0  0  0
  -30.8300  -14.8690   20.2840 C   0  0  0  0  0  0  0  0  0  0  0  0
  -30.6370  -12.5810   19.3130 C   0  0  0  0  0  2  0  0  0  0  0  0
  -29.6850  -12.6620   18.0980 C   0  0  0  0  0  2  0  0  0  0  0  0
  -28.2160  -12.4980   18.5380 C   0  0  0  0  0  2  0  0  0  0  0  0
  -27.8610  -13.3730   19.7700 C   0  0  0  0  0  3  0  0  0  0  0  0
  -28.9340  -13.2750   20.8780 C   0  0  0  0  0  2  0  0  0  0  0  0
  -30.2270  -13.6310   20.2770 N   0  0  0  0  0  0  0  0  0  0  0  0
  -31.9760  -14.9990   19.8440 O   0  0  0  0  0  0  0  0  0  0  0  0
  -30.0910  -15.9750   20.6740 N   0  0  0  0  0  0  0  0  0  0  0  0
  -29.3190  -15.7330   21.2760 H   0  0  0  0  0  0  0  0  0  0  0  0
  -25.4890  -13.9540   20.5520 C   0  0  0  0  0  0  0  0  0  0  0  0
  -24.4270  -13.1750   20.9240 C   0  0  0  0  0  0  0  0  0  0  0  0
  -24.8830  -11.8240   20.8530 C   0  0  0  0  0  0  0  0  0  0  0  0
  -26.5240  -13.0760   20.2750 N   0  0  0  0  0  0  0  0  0  0  0  0
  -26.1680  -11.7870   20.5160 N   0  0  0  0  0  0  0  0  0  0  0  0
  -24.1550  -10.5600   21.0300 C   0  0  0  0  0  0  0  0  0  0  0  0
  -24.5720   -9.5920   21.9710 C   0  0  0  0  0  3  0  0  0  0  0  0
  -23.8450   -8.3940   22.1370 C   0  0  0  0  0  3  0  0  0  0  0  0
  -22.6850   -8.1550   21.3610 C   0  0  0  0  0  0  0  0  0  0  0  0
  -22.2870   -9.1100   20.4100 C   0  0  0  0  0  3  0  0  0  0  0  0
  -23.0150  -10.3000   20.2430 C   0  0  0  0  0  3  0  0  0  0  0  0
  -21.9300   -7.0090   21.4360 O   0  0  0  0  0  0  0  0  0  0  0  0
  -21.8170   -6.2950   22.6020 C   0  0  0  0  0  0  0  0  0  0  0  0
  -21.2560   -6.8580   23.7690 C   0  0  0  0  0  3  0  0  0  0  0  0
  -21.0970   -6.0690   24.9260 C   0  0  0  0  0  3  0  0  0  0  0  0
  -21.4860   -4.7160   24.9150 C   0  0  0  0  0  0  0  0  0  0  0  0
  -22.0380   -4.1520   23.7510 C   0  0  0  0  0  3  0  0  0  0  0  0
  -22.1990   -4.9380   22.5980 C   0  0  0  0  0  0  0  0  0  0  0  0
  -22.7140   -4.3840   21.4730 F   0  0  0  0  0  0  0  0  0  0  0  0
  -21.3250   -3.9540   26.0220 F   0  0  0  0  0  0  0  0  0  0  0  0
  -23.0380  -13.6510   21.2350 C   0  0  0  0  0  0  0  0  0  0  0  0
  -22.3280  -12.9370   22.1010 N   0  0  0  0  0  0  0  0  0  0  0  0
  -22.5920  -14.6880   20.7480 O   0  0  0  0  0  0  0  0  0  0  0  0
  -22.7040  -12.0980   22.5180 H   0  0  0  0  0  0  0  0  0  0  0  0
  -21.3930  -13.2290   22.3510 H   0  0  0  0  0  0  0  0  0  0  0  0
  -25.6570  -15.3270   20.4010 N   0  0  0  0  0  0  0  0  0  0  0  0
  -24.8990  -15.9870   20.5410 H   0  0  0  0  0  0  0  0  0  0  0  0
  -26.5030  -15.7630   20.0570 H   0  0  0  0  0  0  0  0  0  0  0  0
  -32.0580  -18.8990   22.0910 C   0  0  0  0  0  1  0  0  0  0  0  0
  -30.5350  -18.7130   22.0360 C   0  0  0  0  0  2  0  0  0  0  0  0
  -29.8080  -21.1560   20.4800 O   0  0  0  0  0  0  0  0  0  0  0  0
  -29.2090  -22.3740   19.8460 C   0  0  0  0  0  3  0  0  0  0  0  0
  -29.3530  -23.8480   20.5050 C   0  0  0  0  0  3  0  0  0  0  0  0
  -28.4570  -25.0610   19.9160 C   0  0  0  0  0  2  0  0  0  0  0  0
  -28.5720  -26.4960   20.3630 O   0  0  0  0  0  0  0  0  0  0  0  0
  -24.6460  -31.8350   23.3100 C   0  0  0  0  0  0  0  0  0  0  0  0
  -27.4600  -27.3690   20.2520 C   0  0  0  0  0  0  0  0  0  0  0  0
  -23.5350  -30.4510   21.5960 C   0  0  0  0  0  3  0  0  0  0  0  0
  -25.0710  -28.9700   20.1820 C   0  0  0  0  0  0  0  0  0  0  0  0
  -26.0750  -30.8160   21.5190 C   0  0  0  0  0  2  0  0  0  0  0  0
  -26.2070  -29.4530   20.8430 C   0  0  0  0  0  0  0  0  0  0  0  0
  -27.4010  -28.6630   20.8730 C   0  0  0  0  0  3  0  0  0  0  0  0
  -26.3050  -26.9700   19.5370 C   0  0  0  0  0  3  0  0  0  0  0  0
  -25.1260  -27.7370   19.5180 C   0  0  0  0  0  3  0  0  0  0  0  0
  -23.8140  -29.8190   20.2070 C   0  0  0  0  0  2  0  0  0  0  0  0
  -24.7680  -31.0510   22.1990 N   0  0  0  0  0  0  0  0  0  0  0  0
  -23.5380  -32.0770   23.8110 O   0  0  0  0  0  0  0  0  0  0  0  0
  -22.8610  -29.3960   22.5060 C   0  0  0  0  0  0  0  0  0  0  0  0
  -21.5460  -29.1840   22.3220 N   0  0  0  0  0  0  0  0  0  0  0  0
  -23.5220  -28.7730   23.3420 O   0  0  0  0  0  0  0  0  0  0  0  0
  -21.0700  -29.7420   21.6260 H   0  0  0  0  0  0  0  0  0  0  0  0
  -18.1840  -27.8940   22.6730 C   0  0  0  0  0  0  0  0  0  0  0  0
  -20.7240  -28.2100   23.0420 C   0  0  0  0  0  3  0  0  0  0  0  0
  -20.8810  -26.7940   22.4390 C   0  0  0  0  0  2  0  0  0  0  0  0
  -19.8250  -26.4690   21.3770 C   0  0  0  0  0  2  0  0  0  0  0  0
  -18.4180  -26.5660   21.9740 C   0  0  0  0  0  2  0  0  0  0  0  0
  -19.2670  -28.6730   23.1610 C   0  0  0  0  0  0  0  0  0  0  0  0
  -18.9960  -29.9160   23.7740 C   0  0  0  0  0  3  0  0  0  0  0  0
  -17.6740  -30.3820   23.9030 C   0  0  0  0  0  3  0  0  0  0  0  0
  -16.6040  -29.6000   23.4310 C   0  0  0  0  0  3  0  0  0  0  0  0
  -16.8610  -28.3590   22.8220 C   0  0  0  0  0  3  0  0  0  0  0  0
  -25.8910  -32.4820   23.9910 C   0  0  0  0  0  3  0  0  0  0  0  0
  -25.5670  -33.8910   24.2640 N   0  0  0  0  0  0  0  0  0  0  0  0
  -25.9200  -34.9190   23.4820 C   0  0  0  0  0  0  0  0  0  0  0  0
  -26.6230  -34.7840   22.4770 O   0  0  0  0  0  0  0  0  0  0  0  0
  -24.9480  -34.0690   25.0410 H   0  0  0  0  0  0  0  0  0  0  0  0
  -24.1940  -36.6910   23.0190 C   0  0  0  0  0  1  0  0  0  0  0  0
  -25.4150  -36.3200   23.8760 C   0  0  0  0  0  3  0  0  0  0  0  0
  -27.5140  -37.2570   24.7410 C   0  0  0  0  0  1  0  0  0  0  0  0
  -26.4450  -37.3750   23.7530 N   0  0  0  0  0  0  0  0  0  0  0  0
  -26.0280  -38.2970   23.8440 H   0  0  0  0  0  0  0  0  0  0  0  0
  -26.3240  -31.7460   25.3200 C   0  0  1  0  0  0  0  0  0  0  0  0
  -25.1640  -31.5400   26.3220 C   0  0  0  0  0  1  0  0  0  0  0  0
  -26.9280  -30.3570   25.0070 C   0  0  0  0  0  1  0  0  0  0  0  0
  -27.4310  -32.5580   26.0330 C   0  0  0  0  0  1  0  0  0  0  0  0
  1  4  1  0
  2  5  2  0
  3 47  1  0
  4  3  2  0
  4 16  1  0
  5 48  1  0
  5  3  1  0
  6  2  1  0
  6  1  2  0
  7  6  1  0
  8 16  1  0
  9 14  1  0
 10 11  1  0
 10  9  1  0
 12 11  1  0
 12 21  1  0
 12 13  1  0
 14  8  1  0
 14 13  1  0
 15  8  2  0
 16 17  1  0
 18 19  2  0
 19 38  1  0
 20 19  1  0
 20 23  1  0
 21 22  1  0
 21 18  1  0
 22 20  2  0
 23 24  1  0
 24 25  2  0
 26 29  1  0
 26 25  1  0
 27 26  2  0
 28 27  1  0
 28 23  2  0
 29 30  1  0
 30 31  1  0
 31 32  2  0
 33 32  1  0
 33 37  1  0
 34 33  2  0
 35 30  2  0
 35 34  1  0
 36 35  1  0
 38 39  1  0
 39 42  1  0
 39 41  1  0
 40 38  2  0
 43 44  1  0
 43 18  1  0
 45 43  1  0
 47 46  1  0
 49 48  1  0
 49 50  2  0
 51 52  1  0
 51 50  1  0
 53 64  2  0
 54 52  1  0
 54 59  1  0
 55 63  1  0
 55 65  1  0
 56 62  1  0
 56 58  1  0
 57 63  1  0
 58 59  2  0
 58 57  1  0
 60 54  2  0
 61 60  1  0
 61 56  2  0
 62 55  1  0
 63 53  1  0
 65 67  2  0
 66 65  1  0
 68 66  1  0
 69 78  2  0
 69 74  1  0
 70 66  1  0
 70 74  1  0
 71 70  1  0
 72 73  1  0
 72 71  1  0
 73 69  1  0
 74 75  2  0
 75 76  1  0
 77 76  2  0
 78 77  1  0
 79 53  1  0
 79 80  1  0
 79 89  1  0
 80 83  1  0
 81 85  1  0
 81 80  1  0
 82 81  2  0
 85 84  1  0
 87 88  1  0
 87 85  1  0
 87 86  1  0
 89 92  1  1
 89 90  1  0
 91 89  1  0
M  ISO  4   8 100  16 100  51 101  52 101
M  END
>  <TORSDO>  (22) 
F 21

>  <SCORE>  (22) 
-13.135

>  <name>  (22) 
21

>  <ligand_id>  (22) 
21

>  <original_smiles>  (22) 
[H]c1c([H])c([H])c2c(c1[H])C([H])([H])C([H])([H])C([H])([H])C2([H])N([H])C(=O)C1([H])N(C(=O)C([H])(N([H])C(=O)C([H])(N([H])C([H])([H])[H])C([H])([H])[H])C(C([H])([H])[H])(C([H])([H])[H])C([H])([H])[H])C([H])([H])c2c([H])c(OC([H])([H])C([H])([H])C([H])([H])Oc3c([H])c(F)c([H])c(N([H])C(=O)N4C([H])([H])C([H])([H])C([H])([H])C([H])(n5nc(-c6c([H])c([H])c(Oc7c([H])c([H])c(F)c([H])c7F)c([H])c6[H])c(C(=O)N([H])[H])c5N([H])[H])C4([H])[H])c3C([H])([H])C([H])([H])[H])c([H])c([H])c2C1([H])[H]

>  <smiles>  (22) 
[H]c1c([H])c([H])c2c(c1[H])C([H])([H])C([H])([H])C([H])([H])C2([H])N([H])C(=O)C1([H])N(C(=O)C([H])(N([H])C(=O)C([H])(N([H])C([H])([H])[H])C([H])([H])[H])C(C([H])([H])[H])(C([H])([H])[H])C([H])([H])[H])C([H])([H])c2c([H])c(OC([H])([H])C([H])([H])C([H])([H])Oc3c([H])c(F)c([H])c(N([H])C(=O)N4C([H])([H])C([H])([H])C([H])([H])C([H])(n5nc(-c6c([H])c([H])c(Oc7c([H])c([H])c(F)c([H])c7F)c([H])c6[H])c(C(=O)N([H])[H])c5N([H])[H])C4([H])[H])c3C([H])([H])C([H])([H])[H])c([H])c([H])c2C1([H])[H]

$$$$
22:0:0
     RDKit          3D

 91 99  0  0  1  0  0  0  0  0999 V2000
  -29.1460  -21.0490   19.9900 O   0  0  0  0  0  0  0  0  0  0  0  0
  -30.8690  -17.5170   21.8110 C   0  0  0  0  0  3  0  0  0  0  0  0
  -30.4070  -19.9370   21.8160 C   0  0  0  0  0  3  0  0  0  0  0  0
  -29.5490  -18.5320   20.0350 C   0  0  0  0  0  3  0  0  0  0  0  0
  -30.9820  -18.7920   22.4120 C   0  0  0  0  0  0  0  0  0  0  0  0
  -30.1390  -17.3320   20.6170 C   0  0  0  0  0  0  0  0  0  0  0  0
  -29.6790  -19.8690   20.6030 C   0  0  0  0  0  0  0  0  0  0  0  0
  -31.6890  -18.9330   23.7490 C   0  0  0  0  0  1  0  0  0  0  0  0
  -30.7050  -14.8250   20.0460 C   0  0  0  0  0  0  0  0  0  0  0  0
  -30.4700  -12.5600   19.0030 C   0  0  0  0  0  2  0  0  0  0  0  0
  -29.4560  -12.6150   17.8370 C   0  0  0  0  0  2  0  0  0  0  0  0
  -28.0140  -12.4380   18.3540 C   0  0  0  0  0  2  0  0  0  0  0  0
  -27.7040  -13.3350   19.5790 C   0  0  0  0  0  3  0  0  0  0  0  0
  -28.8230  -13.2420   20.6400 C   0  0  0  0  0  2  0  0  0  0  0  0
  -30.0790  -13.6040   19.9740 N   0  0  0  0  0  0  0  0  0  0  0  0
  -31.8910  -14.9350   19.7210 O   0  0  0  0  0  0  0  0  0  0  0  0
  -29.8870  -15.9410   20.1690 N   0  0  0  0  0  0  0  0  0  0  0  0
  -28.9090  -15.7110   20.0880 H   0  0  0  0  0  0  0  0  0  0  0  0
  -25.3710  -13.9460   20.4520 C   0  0  0  0  0  0  0  0  0  0  0  0
  -24.3170  -13.1780   20.8670 C   0  0  0  0  0  0  0  0  0  0  0  0
  -24.7590  -11.8230   20.7850 C   0  0  0  0  0  0  0  0  0  0  0  0
  -26.3880  -13.0580   20.1430 N   0  0  0  0  0  0  0  0  0  0  0  0
  -26.0300  -11.7750   20.4050 N   0  0  0  0  0  0  0  0  0  0  0  0
  -24.0270  -10.5660   20.9880 C   0  0  0  0  0  0  0  0  0  0  0  0
  -24.4780   -9.5890   21.9040 C   0  0  0  0  0  3  0  0  0  0  0  0
  -23.7470   -8.3970   22.0950 C   0  0  0  0  0  3  0  0  0  0  0  0
  -22.5520   -8.1740   21.3700 C   0  0  0  0  0  0  0  0  0  0  0  0
  -22.1220   -9.1380   20.4430 C   0  0  0  0  0  3  0  0  0  0  0  0
  -22.8530  -10.3220   20.2500 C   0  0  0  0  0  3  0  0  0  0  0  0
  -21.7900   -7.0340   21.4720 O   0  0  0  0  0  0  0  0  0  0  0  0
  -21.7430   -6.3020   22.6310 C   0  0  0  0  0  0  0  0  0  0  0  0
  -21.3050   -6.8650   23.8500 C   0  0  0  0  0  3  0  0  0  0  0  0
  -21.2060   -6.0580   25.0010 C   0  0  0  0  0  3  0  0  0  0  0  0
  -21.5330   -4.6910   24.9340 C   0  0  0  0  0  0  0  0  0  0  0  0
  -21.9650   -4.1290   23.7210 C   0  0  0  0  0  3  0  0  0  0  0  0
  -22.0660   -4.9310   22.5710 C   0  0  0  0  0  0  0  0  0  0  0  0
  -22.4620   -4.3790   21.3980 F   0  0  0  0  0  0  0  0  0  0  0  0
  -21.4310   -3.9140   26.0390 F   0  0  0  0  0  0  0  0  0  0  0  0
  -22.9430  -13.6680   21.2240 C   0  0  0  0  0  0  0  0  0  0  0  0
  -22.2550  -12.9600   22.1130 N   0  0  0  0  0  0  0  0  0  0  0  0
  -22.4920  -14.7090   20.7500 O   0  0  0  0  0  0  0  0  0  0  0  0
  -22.6360  -12.1170   22.5150 H   0  0  0  0  0  0  0  0  0  0  0  0
  -21.3360  -13.2700   22.3990 H   0  0  0  0  0  0  0  0  0  0  0  0
  -25.5400  -15.3180   20.2860 N   0  0  0  0  0  0  0  0  0  0  0  0
  -24.7750  -15.9700   20.4270 H   0  0  0  0  0  0  0  0  0  0  0  0
  -26.3490  -15.7470   19.8590 H   0  0  0  0  0  0  0  0  0  0  0  0
  -28.8840  -22.3350   20.7210 C   0  0  0  0  0  2  0  0  0  0  0  0
  -29.7760  -23.7740   18.8570 C   0  0  0  0  0  2  0  0  0  0  0  0
  -28.9450  -23.7060   19.9170 C   0  0  0  0  0  0  0  0  0  0  0  0
  -28.0700  -24.9690   20.3870 C   0  0  0  0  0  2  0  0  0  0  0  0
  -28.3430  -26.4440   20.2360 O   0  0  0  0  0  0  0  0  0  0  0  0
  -24.5590  -31.9140   23.2010 C   0  0  0  0  0  0  0  0  0  0  0  0
  -27.2340  -27.3230   20.1980 C   0  0  0  0  0  0  0  0  0  0  0  0
  -23.3850  -30.4980   21.5560 C   0  0  0  0  0  3  0  0  0  0  0  0
  -24.8630  -28.9510   20.1500 C   0  0  0  0  0  0  0  0  0  0  0  0
  -25.9280  -30.8250   21.4000 C   0  0  0  0  0  2  0  0  0  0  0  0
  -26.0270  -29.4430   20.7550 C   0  0  0  0  0  0  0  0  0  0  0  0
  -27.2170  -28.6460   20.7610 C   0  0  0  0  0  3  0  0  0  0  0  0
  -26.0390  -26.8920   19.5790 C   0  0  0  0  0  3  0  0  0  0  0  0
  -24.8750  -27.6820   19.5510 C   0  0  0  0  0  3  0  0  0  0  0  0
  -23.6210  -29.8200   20.1830 C   0  0  0  0  0  2  0  0  0  0  0  0
  -24.6440  -31.0970   22.1090 N   0  0  0  0  0  0  0  0  0  0  0  0
  -23.4670  -32.1870   23.7210 O   0  0  0  0  0  0  0  0  0  0  0  0
  -22.7210  -29.4780   22.5130 C   0  0  0  0  0  0  0  0  0  0  0  0
  -21.3980  -29.2830   22.3660 N   0  0  0  0  0  0  0  0  0  0  0  0
  -23.3950  -28.8660   23.3460 O   0  0  0  0  0  0  0  0  0  0  0  0
  -20.9150  -29.8300   21.6670 H   0  0  0  0  0  0  0  0  0  0  0  0
  -18.0310  -28.0410   22.8140 C   0  0  0  0  0  0  0  0  0  0  0  0
  -20.5800  -28.3430   23.1300 C   0  0  0  0  0  3  0  0  0  0  0  0
  -20.7140  -26.9070   22.5710 C   0  0  0  0  0  2  0  0  0  0  0  0
  -19.6360  -26.5570   21.5400 C   0  0  0  0  0  2  0  0  0  0  0  0
  -18.2400  -26.6870   22.1560 C   0  0  0  0  0  2  0  0  0  0  0  0
  -19.1310  -28.8230   23.2570 C   0  0  0  0  0  0  0  0  0  0  0  0
  -18.8820  -30.0880   23.8320 C   0  0  0  0  0  3  0  0  0  0  0  0
  -17.5680  -30.5720   23.9690 C   0  0  0  0  0  3  0  0  0  0  0  0
  -16.4820  -29.7850   23.5450 C   0  0  0  0  0  3  0  0  0  0  0  0
  -16.7150  -28.5220   22.9720 C   0  0  0  0  0  3  0  0  0  0  0  0
  -25.8290  -32.5600   23.8340 C   0  0  0  0  0  3  0  0  0  0  0  0
  -26.3400  -31.7950   25.1160 C   0  0  1  0  0  0  0  0  0  0  0  0
  -25.2390  -31.5440   26.1720 C   0  0  0  0  0  1  0  0  0  0  0  0
  -26.9460  -30.4260   24.7320 C   0  0  0  0  0  1  0  0  0  0  0  0
  -27.4730  -32.6040   25.7900 C   0  0  0  0  0  1  0  0  0  0  0  0
  -25.5010  -33.9550   24.1650 N   0  0  0  0  0  0  0  0  0  0  0  0
  -25.8280  -35.0130   23.4120 C   0  0  0  0  0  0  0  0  0  0  0  0
  -26.5070  -34.9200   22.3850 O   0  0  0  0  0  0  0  0  0  0  0  0
  -24.8970  -34.0990   24.9590 H   0  0  0  0  0  0  0  0  0  0  0  0
  -24.0880  -36.7920   23.0480 C   0  0  0  0  0  1  0  0  0  0  0  0
  -25.3230  -36.3950   23.8700 C   0  0  0  0  0  3  0  0  0  0  0  0
  -27.4350  -37.2990   24.7320 C   0  0  0  0  0  1  0  0  0  0  0  0
  -26.3450  -37.4570   23.7730 N   0  0  0  0  0  0  0  0  0  0  0  0
  -25.9270  -38.3720   23.9180 H   0  0  0  0  0  0  0  0  0  0  0  0
  1  7  1  0
  1 47  1  0
  2  5  1  0
  3  5  2  0
  4  7  2  0
  4  6  1  0
  5  8  1  0
  6  2  2  0
  7  3  1  0
  9 17  1  0
 10 15  1  0
 11 12  1  0
 11 10  1  0
 13 12  1  0
 13 22  1  0
 13 14  1  0
 15  9  1  0
 15 14  1  0
 16  9  2  0
 17  6  1  0
 18 17  1  0
 19 20  2  0
 20 39  1  0
 21 20  1  0
 21 24  1  0
 22 23  1  0
 22 19  1  0
 23 21  2  0
 24 25  1  0
 25 26  2  0
 27 30  1  0
 27 26  1  0
 28 27  2  0
 29 28  1  0
 29 24  2  0
 30 31  1  0
 31 32  1  0
 32 33  2  0
 34 33  1  0
 34 38  1  0
 35 34  2  0
 36 31  2  0
 36 35  1  0
 37 36  1  0
 39 40  1  0
 40 43  1  0
 40 42  1  0
 41 39  2  0
 44 45  1  0
 44 19  1  0
 46 44  1  0
 48 49  2  0
 49 50  1  0
 49 47  1  0
 51 50  1  0
 52 63  2  0
 53 51  1  0
 53 58  1  0
 54 62  1  0
 54 64  1  0
 55 61  1  0
 55 57  1  0
 56 62  1  0
 57 58  2  0
 57 56  1  0
 59 53  2  0
 60 59  1  0
 60 55  2  0
 61 54  1  0
 62 52  1  0
 64 66  2  0
 65 64  1  0
 67 65  1  0
 68 77  2  0
 68 73  1  0
 69 65  1  0
 69 73  1  0
 70 69  1  0
 71 72  1  0
 71 70  1  0
 72 68  1  0
 73 74  2  0
 74 75  1  0
 76 75  2  0
 77 76  1  0
 78 52  1  0
 78 83  1  0
 78 79  1  0
 79 82  1  1
 79 80  1  0
 81 79  1  0
 83 86  1  0
 84 88  1  0
 84 83  1  0
 85 84  2  0
 88 87  1  0
 90 88  1  0
 90 91  1  0
 90 89  1  0
M  ISO  4   9 100  17 100  50 101  51 101
M  END
>  <TORSDO>  (23) 
F 20

>  <SCORE>  (23) 
-13.079

>  <name>  (23) 
22

>  <ligand_id>  (23) 
22

>  <original_smiles>  (23) 
[H]C([H])=C(C([H])([H])Oc1c([H])c(N([H])C(=O)N2C([H])([H])C([H])([H])C([H])([H])C([H])(n3nc(-c4c([H])c([H])c(Oc5c([H])c([H])c(F)c([H])c5F)c([H])c4[H])c(C(=O)N([H])[H])c3N([H])[H])C2([H])[H])c([H])c(C([H])([H])[H])c1[H])C([H])([H])Oc1c([H])c([H])c2c(c1[H])C([H])([H])N(C(=O)C([H])(N([H])C(=O)C([H])(N([H])C([H])([H])[H])C([H])([H])[H])C(C([H])([H])[H])(C([H])([H])[H])C([H])([H])[H])C([H])(C(=O)N([H])C1([H])c3c([H])c([H])c([H])c([H])c3C([H])([H])C([H])([H])C1([H])[H])C2([H])[H]

>  <smiles>  (23) 
[H]C([H])=C(C([H])([H])Oc1c([H])c(N([H])C(=O)N2C([H])([H])C([H])([H])C([H])([H])C([H])(n3nc(-c4c([H])c([H])c(Oc5c([H])c([H])c(F)c([H])c5F)c([H])c4[H])c(C(=O)N([H])[H])c3N([H])[H])C2([H])[H])c([H])c(C([H])([H])[H])c1[H])C([H])([H])Oc1c([H])c([H])c2c(c1[H])C([H])([H])N(C(=O)C([H])(N([H])C(=O)C([H])(N([H])C([H])([H])[H])C([H])([H])[H])C(C([H])([H])[H])(C([H])([H])[H])C([H])([H])[H])C([H])(C(=O)N([H])C1([H])c3c([H])c([H])c([H])c([H])c3C([H])([H])C([H])([H])C1([H])[H])C2([H])[H]

$$$$
23:0:0
     RDKit          3D

 93101  0  0  1  0  0  0  0  0999 V2000
  -29.0170  -22.3700   20.0750 C   0  0  0  0  0  3  0  0  0  0  0  0
  -29.3440  -21.1630   20.7140 C   0  0  0  0  0  0  0  0  0  0  0  0
  -29.5910  -21.0940   22.2170 C   0  0  0  0  0  1  0  0  0  0  0  0
  -29.7380  -19.7570   18.6270 C   0  0  0  0  0  3  0  0  0  0  0  0
  -30.0880  -17.3540   18.6820 C   0  0  0  0  0  3  0  0  0  0  0  0
  -29.9950  -18.5520   17.9540 C   0  0  0  0  0  0  0  0  0  0  0  0
  -29.5550  -19.7780   20.0240 C   0  0  0  0  0  0  0  0  0  0  0  0
  -29.9100  -17.3320   20.0790 C   0  0  0  0  0  0  0  0  0  0  0  0
  -29.6270  -18.5520   20.7080 N   0  0  0  0  0  0  0  0  0  0  0  0
  -30.6540  -14.8490   20.3780 C   0  0  0  0  0  0  0  0  0  0  0  0
  -30.4600  -12.5650   19.3870 C   0  0  0  0  0  2  0  0  0  0  0  0
  -29.5430  -12.6500   18.1460 C   0  0  0  0  0  2  0  0  0  0  0  0
  -28.0670  -12.4830   18.5540 C   0  0  0  0  0  2  0  0  0  0  0  0
  -27.6810  -13.3660   19.7700 C   0  0  0  0  0  3  0  0  0  0  0  0
  -28.7230  -13.2730   20.9080 C   0  0  0  0  0  2  0  0  0  0  0  0
  -30.0320  -13.6180   20.3410 N   0  0  0  0  0  0  0  0  0  0  0  0
  -31.8300  -14.9380   20.0050 O   0  0  0  0  0  0  0  0  0  0  0  0
  -29.9140  -15.9820   20.7030 N   0  0  0  0  0  0  0  0  0  0  0  0
  -29.1000  -15.7920   21.2660 H   0  0  0  0  0  0  0  0  0  0  0  0
  -25.2800  -13.9560   20.4510 C   0  0  0  0  0  0  0  0  0  0  0  0
  -24.2110  -13.1830   20.8160 C   0  0  0  0  0  0  0  0  0  0  0  0
  -24.6780  -11.8330   20.8090 C   0  0  0  0  0  0  0  0  0  0  0  0
  -26.3290  -13.0780   20.2410 N   0  0  0  0  0  0  0  0  0  0  0  0
  -25.9730  -11.7960   20.5190 N   0  0  0  0  0  0  0  0  0  0  0  0
  -23.9530  -10.5720   21.0070 C   0  0  0  0  0  0  0  0  0  0  0  0
  -24.3820   -9.6110   21.9490 C   0  0  0  0  0  3  0  0  0  0  0  0
  -23.6560   -8.4150   22.1330 C   0  0  0  0  0  3  0  0  0  0  0  0
  -22.4860   -8.1700   21.3750 C   0  0  0  0  0  0  0  0  0  0  0  0
  -22.0760   -9.1190   20.4230 C   0  0  0  0  0  3  0  0  0  0  0  0
  -22.8030  -10.3070   20.2370 C   0  0  0  0  0  3  0  0  0  0  0  0
  -21.7320   -7.0250   21.4690 O   0  0  0  0  0  0  0  0  0  0  0  0
  -21.6890   -6.2830   22.6220 C   0  0  0  0  0  0  0  0  0  0  0  0
  -21.2670   -6.8390   23.8490 C   0  0  0  0  0  3  0  0  0  0  0  0
  -21.1710   -6.0240   24.9950 C   0  0  0  0  0  3  0  0  0  0  0  0
  -21.4870   -4.6540   24.9150 C   0  0  0  0  0  0  0  0  0  0  0  0
  -21.9020   -4.0980   23.6920 C   0  0  0  0  0  3  0  0  0  0  0  0
  -21.9990   -4.9110   22.5480 C   0  0  0  0  0  0  0  0  0  0  0  0
  -22.3790   -4.3660   21.3670 F   0  0  0  0  0  0  0  0  0  0  0  0
  -21.3870   -3.8690   26.0120 F   0  0  0  0  0  0  0  0  0  0  0  0
  -22.8090  -13.6600   21.0610 C   0  0  0  0  0  0  0  0  0  0  0  0
  -22.0700  -12.9740   21.9260 N   0  0  0  0  0  0  0  0  0  0  0  0
  -22.3770  -14.6780   20.5210 O   0  0  0  0  0  0  0  0  0  0  0  0
  -22.4330  -12.1520   22.3860 H   0  0  0  0  0  0  0  0  0  0  0  0
  -21.1280  -13.2760   22.1320 H   0  0  0  0  0  0  0  0  0  0  0  0
  -25.4420  -15.3250   20.2580 N   0  0  0  0  0  0  0  0  0  0  0  0
  -24.6690  -15.9750   20.3430 H   0  0  0  0  0  0  0  0  0  0  0  0
  -26.2870  -15.7610   19.9110 H   0  0  0  0  0  0  0  0  0  0  0  0
  -31.6520  -18.3690   16.0510 C   0  0  0  0  0  1  0  0  0  0  0  0
  -30.1820  -18.5360   16.4490 C   0  0  0  0  0  2  0  0  0  0  0  0
  -28.9400  -23.8300   20.6120 C   0  0  0  0  0  0  0  0  0  0  0  0
  -29.6080  -24.1870   21.5880 O   0  0  0  0  0  0  0  0  0  0  0  0
  -28.0430  -24.9610   19.9120 C   0  0  0  0  0  2  0  0  0  0  0  0
  -28.2660  -26.4190   20.2580 O   0  0  0  0  0  0  0  0  0  0  0  0
  -24.5800  -31.9290   23.2440 C   0  0  0  0  0  0  0  0  0  0  0  0
  -27.1780  -27.3270   20.1760 C   0  0  0  0  0  0  0  0  0  0  0  0
  -23.3750  -30.5320   21.6060 C   0  0  0  0  0  3  0  0  0  0  0  0
  -24.8240  -28.9860   20.1670 C   0  0  0  0  0  0  0  0  0  0  0  0
  -25.9190  -30.8370   21.4230 C   0  0  0  0  0  2  0  0  0  0  0  0
  -25.9970  -29.4570   20.7710 C   0  0  0  0  0  0  0  0  0  0  0  0
  -27.1750  -28.6380   20.7680 C   0  0  0  0  0  3  0  0  0  0  0  0
  -25.9830  -26.9390   19.5260 C   0  0  0  0  0  3  0  0  0  0  0  0
  -24.8230  -27.7360   19.5340 C   0  0  0  0  0  3  0  0  0  0  0  0
  -23.5890  -29.8640   20.2230 C   0  0  0  0  0  2  0  0  0  0  0  0
  -24.6450  -31.1180   22.1470 N   0  0  0  0  0  0  0  0  0  0  0  0
  -23.4970  -32.2040   23.7800 O   0  0  0  0  0  0  0  0  0  0  0  0
  -22.7140  -29.5120   22.5660 C   0  0  0  0  0  0  0  0  0  0  0  0
  -21.3900  -29.3210   22.4340 N   0  0  0  0  0  0  0  0  0  0  0  0
  -23.3930  -28.8950   23.3910 O   0  0  0  0  0  0  0  0  0  0  0  0
  -20.9000  -29.8710   21.7420 H   0  0  0  0  0  0  0  0  0  0  0  0
  -18.0250  -28.0800   22.9130 C   0  0  0  0  0  0  0  0  0  0  0  0
  -20.5770  -28.3790   23.2050 C   0  0  0  0  0  3  0  0  0  0  0  0
  -20.7030  -26.9440   22.6430 C   0  0  0  0  0  2  0  0  0  0  0  0
  -19.6170  -26.5970   21.6210 C   0  0  0  0  0  2  0  0  0  0  0  0
  -18.2270  -26.7290   22.2500 C   0  0  0  0  0  2  0  0  0  0  0  0
  -19.1280  -28.8630   23.3470 C   0  0  0  0  0  0  0  0  0  0  0  0
  -18.8840  -30.1270   23.9260 C   0  0  0  0  0  3  0  0  0  0  0  0
  -17.5710  -30.6090   24.0760 C   0  0  0  0  0  3  0  0  0  0  0  0
  -16.4820  -29.8240   23.6570 C   0  0  0  0  0  3  0  0  0  0  0  0
  -16.7090  -28.5620   23.0810 C   0  0  0  0  0  3  0  0  0  0  0  0
  -25.8610  -32.5640   23.8640 C   0  0  0  0  0  3  0  0  0  0  0  0
  -26.3720  -31.8040   25.1490 C   0  0  1  0  0  0  0  0  0  0  0  0
  -25.2760  -31.5790   26.2160 C   0  0  0  0  0  1  0  0  0  0  0  0
  -26.9530  -30.4200   24.7740 C   0  0  0  0  0  1  0  0  0  0  0  0
  -27.5230  -32.6010   25.8060 C   0  0  0  0  0  1  0  0  0  0  0  0
  -25.5530  -33.9660   24.1840 N   0  0  0  0  0  0  0  0  0  0  0  0
  -25.8920  -35.0140   23.4210 C   0  0  0  0  0  0  0  0  0  0  0  0
  -26.5670  -34.9030   22.3950 O   0  0  0  0  0  0  0  0  0  0  0  0
  -24.9560  -34.1250   24.9810 H   0  0  0  0  0  0  0  0  0  0  0  0
  -24.1760  -36.8150   23.0450 C   0  0  0  0  0  1  0  0  0  0  0  0
  -25.4080  -36.4070   23.8700 C   0  0  0  0  0  3  0  0  0  0  0  0
  -27.5380  -37.2850   24.7180 C   0  0  0  0  0  1  0  0  0  0  0  0
  -26.4460  -37.4550   23.7630 N   0  0  0  0  0  0  0  0  0  0  0  0
  -26.0420  -38.3780   23.9030 H   0  0  0  0  0  0  0  0  0  0  0  0
  1 50  1  0
  1  2  2  0
  2  3  1  0
  4  7  1  0
  5  8  2  0
  6  4  2  0
  6  5  1  0
  7  9  2  0
  7  2  1  0
  8 18  1  0
  8  9  1  0
 10 18  1  0
 11 16  1  0
 12 13  1  0
 12 11  1  0
 14 13  1  0
 14 23  1  0
 14 15  1  0
 16 10  1  0
 16 15  1  0
 17 10  2  0
 18 19  1  0
 20 21  2  0
 21 40  1  0
 22 21  1  0
 22 25  1  0
 23 20  1  0
 23 24  1  0
 24 22  2  0
 25 26  1  0
 26 27  2  0
 28 31  1  0
 28 27  1  0
 29 28  2  0
 30 29  1  0
 30 25  2  0
 31 32  1  0
 32 33  1  0
 33 34  2  0
 35 34  1  0
 35 39  1  0
 36 35  2  0
 37 32  2  0
 37 36  1  0
 38 37  1  0
 40 41  1  0
 41 44  1  0
 41 43  1  0
 42 40  2  0
 45 46  1  0
 45 20  1  0
 47 45  1  0
 48 49  1  0
 49  6  1  0
 50 51  2  0
 52 53  1  0
 52 50  1  0
 54 65  2  0
 55 53  1  0
 55 60  1  0
 56 64  1  0
 56 66  1  0
 57 63  1  0
 57 59  1  0
 58 64  1  0
 59 58  1  0
 60 59  2  0
 61 62  1  0
 61 55  2  0
 62 57  2  0
 63 56  1  0
 64 54  1  0
 66 68  2  0
 67 66  1  0
 69 67  1  0
 70 79  2  0
 70 75  1  0
 71 67  1  0
 71 75  1  0
 72 71  1  0
 73 74  1  0
 73 72  1  0
 74 70  1  0
 75 76  2  0
 76 77  1  0
 78 77  2  0
 79 78  1  0
 80 54  1  0
 80 85  1  0
 80 81  1  0
 81 84  1  1
 81 82  1  0
 83 81  1  0
 85 88  1  0
 86 90  1  0
 86 85  1  0
 87 86  2  0
 90 89  1  0
 92 90  1  0
 92 93  1  0
 92 91  1  0
M  ISO  4  10 100  18 100  52 101  53 101
M  END
>  <TORSDO>  (24) 
F 20

>  <SCORE>  (24) 
-13.947

>  <name>  (24) 
23

>  <ligand_id>  (24) 
23

>  <original_smiles>  (24) 
[H]C(C(=O)C([H])([H])Oc1c([H])c([H])c2c(c1[H])C([H])([H])N(C(=O)C([H])(N([H])C(=O)C([H])(N([H])C([H])([H])[H])C([H])([H])[H])C(C([H])([H])[H])(C([H])([H])[H])C([H])([H])[H])C([H])(C(=O)N([H])C1([H])c3c([H])c([H])c([H])c([H])c3C([H])([H])C([H])([H])C1([H])[H])C2([H])[H])=C(c1nc(N([H])C(=O)N2C([H])([H])C([H])([H])C([H])([H])C([H])(n3nc(-c4c([H])c([H])c(Oc5c([H])c([H])c(F)c([H])c5F)c([H])c4[H])c(C(=O)N([H])[H])c3N([H])[H])C2([H])[H])c([H])c(C([H])([H])C([H])([H])[H])c1[H])C([H])([H])[H]

>  <smiles>  (24) 
[H]C(C(=O)C([H])([H])Oc1c([H])c([H])c2c(c1[H])C([H])([H])N(C(=O)C([H])(N([H])C(=O)C([H])(N([H])C([H])([H])[H])C([H])([H])[H])C(C([H])([H])[H])(C([H])([H])[H])C([H])([H])[H])C([H])(C(=O)N([H])C1([H])c3c([H])c([H])c([H])c([H])c3C([H])([H])C([H])([H])C1([H])[H])C2([H])[H])=C(c1nc(N([H])C(=O)N2C([H])([H])C([H])([H])C([H])([H])C([H])(n3nc(-c4c([H])c([H])c(Oc5c([H])c([H])c(F)c([H])c5F)c([H])c4[H])c(C(=O)N([H])[H])c3N([H])[H])C2([H])[H])c([H])c(C([H])([H])C([H])([H])[H])c1[H])C([H])([H])[H]

$$$$
24:0:0
     RDKit          3D

 91 99  0  0  1  0  0  0  0  0999 V2000
  -29.2120  -21.2890   20.6700 C   0  0  0  0  0  3  0  0  0  0  0  0
  -29.0480  -22.4910   19.9870 C   0  0  0  0  0  3  0  0  0  0  0  0
  -30.3040  -19.9360   18.8480 C   0  0  0  0  0  3  0  0  0  0  0  0
  -30.7810  -18.7630   18.2460 C   0  0  0  0  0  3  0  0  0  0  0  0
  -29.7110  -18.6280   20.8020 C   0  0  0  0  0  3  0  0  0  0  0  0
  -29.7380  -19.9320   20.1370 C   0  0  0  0  0  0  0  0  0  0  0  0
  -30.7230  -17.5100   18.8870 C   0  0  0  0  0  0  0  0  0  0  0  0
  -30.2190  -17.3850   20.2170 C   0  0  0  0  0  0  0  0  0  0  0  0
  -31.1250  -16.3200   18.0330 C   0  0  0  0  0  1  0  0  0  0  0  0
  -30.8790  -14.8900   20.7640 C   0  0  0  0  0  0  0  0  0  0  0  0
  -30.7550  -12.5740   19.8390 C   0  0  0  0  0  2  0  0  0  0  0  0
  -29.9080  -12.5890   18.5460 C   0  0  0  0  0  2  0  0  0  0  0  0
  -28.4070  -12.4570   18.8710 C   0  0  0  0  0  2  0  0  0  0  0  0
  -27.9490  -13.3770   20.0340 C   0  0  0  0  0  3  0  0  0  0  0  0
  -28.9260  -13.3220   21.2280 C   0  0  0  0  0  2  0  0  0  0  0  0
  -30.2600  -13.6590   20.7190 N   0  0  0  0  0  0  0  0  0  0  0  0
  -32.0930  -14.9640   20.5610 O   0  0  0  0  0  0  0  0  0  0  0  0
  -30.0900  -16.0360   20.8550 N   0  0  0  0  0  0  0  0  0  0  0  0
  -29.1820  -15.8610   21.2550 H   0  0  0  0  0  0  0  0  0  0  0  0
  -25.5150  -13.9740   20.5900 C   0  0  0  0  0  0  0  0  0  0  0  0
  -24.4270  -13.2040   20.9010 C   0  0  0  0  0  0  0  0  0  0  0  0
  -24.8940  -11.8540   20.9280 C   0  0  0  0  0  0  0  0  0  0  0  0
  -26.5740  -13.0940   20.4400 N   0  0  0  0  0  0  0  0  0  0  0  0
  -26.2030  -11.8140   20.7090 N   0  0  0  0  0  0  0  0  0  0  0  0
  -24.1580  -10.5920   21.0900 C   0  0  0  0  0  0  0  0  0  0  0  0
  -24.5240   -9.6430   22.0700 C   0  0  0  0  0  3  0  0  0  0  0  0
  -23.7890   -8.4470   22.2190 C   0  0  0  0  0  3  0  0  0  0  0  0
  -22.6730   -8.1910   21.3860 C   0  0  0  0  0  0  0  0  0  0  0  0
  -22.3270   -9.1290   20.3960 C   0  0  0  0  0  3  0  0  0  0  0  0
  -23.0650  -10.3150   20.2460 C   0  0  0  0  0  3  0  0  0  0  0  0
  -21.9140   -7.0460   21.4430 O   0  0  0  0  0  0  0  0  0  0  0  0
  -21.7760   -6.3310   22.6040 C   0  0  0  0  0  0  0  0  0  0  0  0
  -21.2340   -6.9070   23.7740 C   0  0  0  0  0  3  0  0  0  0  0  0
  -21.0450   -6.1160   24.9250 C   0  0  0  0  0  3  0  0  0  0  0  0
  -21.3880   -4.7510   24.9060 C   0  0  0  0  0  0  0  0  0  0  0  0
  -21.9220   -4.1750   23.7410 C   0  0  0  0  0  3  0  0  0  0  0  0
  -22.1130   -4.9630   22.5920 C   0  0  0  0  0  0  0  0  0  0  0  0
  -22.6090   -4.3970   21.4640 F   0  0  0  0  0  0  0  0  0  0  0  0
  -21.1980   -3.9900   26.0100 F   0  0  0  0  0  0  0  0  0  0  0  0
  -23.0130  -13.6800   21.0650 C   0  0  0  0  0  0  0  0  0  0  0  0
  -22.2280  -13.0000   21.8940 N   0  0  0  0  0  0  0  0  0  0  0  0
  -22.6100  -14.6910   20.4920 O   0  0  0  0  0  0  0  0  0  0  0  0
  -22.5660  -12.1820   22.3790 H   0  0  0  0  0  0  0  0  0  0  0  0
  -21.2770  -13.3030   22.0470 H   0  0  0  0  0  0  0  0  0  0  0  0
  -25.6890  -15.3410   20.3980 N   0  0  0  0  0  0  0  0  0  0  0  0
  -24.9130  -15.9940   20.4340 H   0  0  0  0  0  0  0  0  0  0  0  0
  -26.5530  -15.7730   20.0960 H   0  0  0  0  0  0  0  0  0  0  0  0
  -28.5760  -23.8560   20.5250 C   0  0  0  0  0  0  0  0  0  0  0  0
  -28.3300  -24.0170   21.7240 O   0  0  0  0  0  0  0  0  0  0  0  0
  -28.4020  -25.1090   19.5430 C   0  0  0  0  0  2  0  0  0  0  0  0
  -28.3410  -26.4890   20.1290 O   0  0  0  0  0  0  0  0  0  0  0  0
  -24.5880  -31.8850   23.1460 C   0  0  0  0  0  0  0  0  0  0  0  0
  -27.2060  -27.3250   20.0560 C   0  0  0  0  0  0  0  0  0  0  0  0
  -23.3820  -30.4880   21.5050 C   0  0  0  0  0  3  0  0  0  0  0  0
  -24.8330  -28.9450   20.0650 C   0  0  0  0  0  0  0  0  0  0  0  0
  -25.9200  -30.8140   21.3090 C   0  0  0  0  0  2  0  0  0  0  0  0
  -26.0020  -29.4350   20.6570 C   0  0  0  0  0  0  0  0  0  0  0  0
  -27.1880  -28.6350   20.6450 C   0  0  0  0  0  3  0  0  0  0  0  0
  -26.0040  -26.8950   19.4450 C   0  0  0  0  0  3  0  0  0  0  0  0
  -24.8380  -27.6850   19.4510 C   0  0  0  0  0  3  0  0  0  0  0  0
  -23.5920  -29.8150   20.1220 C   0  0  0  0  0  2  0  0  0  0  0  0
  -24.6490  -31.0800   22.0430 N   0  0  0  0  0  0  0  0  0  0  0  0
  -23.5060  -32.1540   23.6870 O   0  0  0  0  0  0  0  0  0  0  0  0
  -22.7280  -29.4650   22.4670 C   0  0  0  0  0  0  0  0  0  0  0  0
  -21.4000  -29.2860   22.3490 N   0  0  0  0  0  0  0  0  0  0  0  0
  -23.4130  -28.8370   23.2780 O   0  0  0  0  0  0  0  0  0  0  0  0
  -20.9070  -29.8480   21.6700 H   0  0  0  0  0  0  0  0  0  0  0  0
  -18.0290  -28.0830   22.8730 C   0  0  0  0  0  0  0  0  0  0  0  0
  -20.5890  -28.3430   23.1210 C   0  0  0  0  0  3  0  0  0  0  0  0
  -20.6860  -26.9150   22.5360 C   0  0  0  0  0  2  0  0  0  0  0  0
  -19.5760  -26.5980   21.5300 C   0  0  0  0  0  2  0  0  0  0  0  0
  -18.2000  -26.7380   22.1870 C   0  0  0  0  0  2  0  0  0  0  0  0
  -19.1500  -28.8430   23.2970 C   0  0  0  0  0  0  0  0  0  0  0  0
  -18.9360  -30.1010   23.9000 C   0  0  0  0  0  3  0  0  0  0  0  0
  -17.6310  -30.6000   24.0810 C   0  0  0  0  0  3  0  0  0  0  0  0
  -16.5250  -29.8370   23.6710 C   0  0  0  0  0  3  0  0  0  0  0  0
  -16.7240  -28.5800   23.0740 C   0  0  0  0  0  3  0  0  0  0  0  0
  -25.8700  -32.5220   23.7650 C   0  0  0  0  0  3  0  0  0  0  0  0
  -26.4030  -31.7400   25.0280 C   0  0  1  0  0  0  0  0  0  0  0  0
  -25.3200  -31.4840   26.1040 C   0  0  0  0  0  1  0  0  0  0  0  0
  -26.9900  -30.3710   24.6150 C   0  0  0  0  0  1  0  0  0  0  0  0
  -27.5550  -32.5330   25.6880 C   0  0  0  0  0  1  0  0  0  0  0  0
  -25.5500  -33.9130   24.1170 N   0  0  0  0  0  0  0  0  0  0  0  0
  -25.8920  -34.9820   23.3860 C   0  0  0  0  0  0  0  0  0  0  0  0
  -26.5780  -34.9010   22.3620 O   0  0  0  0  0  0  0  0  0  0  0  0
  -24.9420  -34.0500   24.9110 H   0  0  0  0  0  0  0  0  0  0  0  0
  -24.1880  -36.7960   23.0160 C   0  0  0  0  0  1  0  0  0  0  0  0
  -25.3940  -36.3600   23.8630 C   0  0  0  0  0  3  0  0  0  0  0  0
  -27.4980  -37.2120   24.8020 C   0  0  0  0  0  1  0  0  0  0  0  0
  -26.4350  -37.4100   23.8190 N   0  0  0  0  0  0  0  0  0  0  0  0
  -26.0280  -38.3290   23.9710 H   0  0  0  0  0  0  0  0  0  0  0  0
  2 48  1  0
  2  1  2  0
  3  6  1  0
  4  3  2  0
  4  7  1  0
  6  1  1  0
  6  5  2  0
  7  8  2  0
  8  5  1  0
  8 18  1  0
  9  7  1  0
 10 18  1  0
 11 16  1  0
 12 13  1  0
 12 11  1  0
 14 13  1  0
 14 23  1  0
 14 15  1  0
 16 10  1  0
 16 15  1  0
 17 10  2  0
 18 19  1  0
 20 21  2  0
 21 22  1  0
 21 40  1  0
 22 25  1  0
 23 20  1  0
 23 24  1  0
 24 22  2  0
 25 26  1  0
 26 27  2  0
 28 31  1  0
 28 27  1  0
 29 28  2  0
 30 29  1  0
 30 25  2  0
 31 32  1  0
 32 33  1  0
 33 34  2  0
 35 34  1  0
 35 39  1  0
 36 35  2  0
 37 32  2  0
 37 36  1  0
 38 37  1  0
 40 41  1  0
 41 44  1  0
 41 43  1  0
 42 40  2  0
 45 46  1  0
 45 20  1  0
 47 45  1  0
 48 49  2  0
 50 51  1  0
 50 48  1  0
 52 63  2  0
 53 51  1  0
 53 58  1  0
 54 62  1  0
 54 64  1  0
 55 61  1  0
 55 57  1  0
 56 62  1  0
 57 56  1  0
 58 57  2  0
 59 60  1  0
 59 53  2  0
 60 55  2  0
 61 54  1  0
 62 52  1  0
 64 66  2  0
 65 64  1  0
 67 65  1  0
 68 77  2  0
 68 73  1  0
 69 65  1  0
 69 73  1  0
 70 69  1  0
 71 72  1  0
 71 70  1  0
 72 68  1  0
 73 74  2  0
 74 75  1  0
 76 75  2  0
 77 76  1  0
 78 52  1  0
 78 83  1  0
 78 79  1  0
 79 82  1  1
 79 80  1  0
 81 79  1  0
 83 86  1  0
 84 88  1  0
 84 83  1  0
 85 84  2  0
 88 87  1  0
 90 88  1  0
 90 91  1  0
 90 89  1  0
M  ISO  4  10 100  18 100  50 101  51 101
M  END
>  <TORSDO>  (25) 
F 19

>  <SCORE>  (25) 
-13.893

>  <name>  (25) 
24

>  <ligand_id>  (25) 
24

>  <original_smiles>  (25) 
[H]C(C(=O)C([H])([H])Oc1c([H])c([H])c2c(c1[H])C([H])([H])N(C(=O)C([H])(N([H])C(=O)C([H])(N([H])C([H])([H])[H])C([H])([H])[H])C(C([H])([H])[H])(C([H])([H])[H])C([H])([H])[H])C([H])(C(=O)N([H])C1([H])c3c([H])c([H])c([H])c([H])c3C([H])([H])C([H])([H])C1([H])[H])C2([H])[H])=C([H])c1c([H])c([H])c(C([H])([H])[H])c(N([H])C(=O)N2C([H])([H])C([H])([H])C([H])([H])C([H])(n3nc(-c4c([H])c([H])c(Oc5c([H])c([H])c(F)c([H])c5F)c([H])c4[H])c(C(=O)N([H])[H])c3N([H])[H])C2([H])[H])c1[H]

>  <smiles>  (25) 
[H]C(C(=O)C([H])([H])Oc1c([H])c([H])c2c(c1[H])C([H])([H])N(C(=O)C([H])(N([H])C(=O)C([H])(N([H])C([H])([H])[H])C([H])([H])[H])C(C([H])([H])[H])(C([H])([H])[H])C([H])([H])[H])C([H])(C(=O)N([H])C1([H])c3c([H])c([H])c([H])c([H])c3C([H])([H])C([H])([H])C1([H])[H])C2([H])[H])=C([H])c1c([H])c([H])c(C([H])([H])[H])c(N([H])C(=O)N2C([H])([H])C([H])([H])C([H])([H])C([H])(n3nc(-c4c([H])c([H])c(Oc5c([H])c([H])c(F)c([H])c5F)c([H])c4[H])c(C(=O)N([H])[H])c3N([H])[H])C2([H])[H])c1[H]

$$$$
25:0:0
     RDKit          3D

 89 97  0  0  1  0  0  0  0  0999 V2000
  -30.7890  -19.5430   20.5410 C   0  0  0  0  0  3  0  0  0  0  0  0
  -30.3950  -20.9000   20.3760 C   0  0  0  0  0  3  0  0  0  0  0  0
  -28.2430  -20.1340   19.6090 C   0  0  0  0  0  3  0  0  0  0  0  0
  -29.9380  -18.4500   20.2180 C   0  0  0  0  0  0  0  0  0  0  0  0
  -29.1060  -21.2190   19.8940 C   0  0  0  0  0  0  0  0  0  0  0  0
  -28.6380  -18.7790   19.7440 C   0  0  0  0  0  0  0  0  0  0  0  0
  -27.6650  -17.7150   19.2730 C   0  0  0  0  0  1  0  0  0  0  0  0
  -30.4940  -17.0530   20.3220 C   0  0  0  0  0  3  0  0  0  0  0  0
  -29.9110  -15.8380   20.5610 C   0  0  0  0  0  3  0  0  0  0  0  0
  -30.6950  -14.5900   20.4210 C   0  0  0  0  0  0  0  0  0  0  0  0
  -30.3860  -12.3650   19.4080 C   0  0  0  0  0  2  0  0  0  0  0  0
  -29.4700  -12.5370   18.1780 C   0  0  0  0  0  2  0  0  0  0  0  0
  -27.9920  -12.4010   18.5920 C   0  0  0  0  0  2  0  0  0  0  0  0
  -27.6290  -13.2710   19.8290 C   0  0  0  0  0  3  0  0  0  0  0  0
  -28.6810  -13.1270   20.9520 C   0  0  0  0  0  2  0  0  0  0  0  0
  -30.0060  -13.4070   20.3810 N   0  0  0  0  0  0  0  0  0  0  0  0
  -31.8880  -14.6250   20.1150 O   0  0  0  0  0  0  0  0  0  0  0  0
  -25.2300  -13.8670   20.5410 C   0  0  0  0  0  0  0  0  0  0  0  0
  -24.1630  -13.0960   20.9080 C   0  0  0  0  0  0  0  0  0  0  0  0
  -24.6250  -11.7440   20.8780 C   0  0  0  0  0  0  0  0  0  0  0  0
  -26.2770  -12.9900   20.3090 N   0  0  0  0  0  0  0  0  0  0  0  0
  -25.9190  -11.7070   20.5770 N   0  0  0  0  0  0  0  0  0  0  0  0
  -23.8970  -10.4840   21.0670 C   0  0  0  0  0  0  0  0  0  0  0  0
  -24.3260   -9.5130   21.9980 C   0  0  0  0  0  3  0  0  0  0  0  0
  -23.5990   -8.3160   22.1720 C   0  0  0  0  0  3  0  0  0  0  0  0
  -22.4280   -8.0820   21.4140 C   0  0  0  0  0  0  0  0  0  0  0  0
  -22.0170   -9.0410   20.4720 C   0  0  0  0  0  3  0  0  0  0  0  0
  -22.7460  -10.2290   20.2960 C   0  0  0  0  0  3  0  0  0  0  0  0
  -21.6710   -6.9380   21.4970 O   0  0  0  0  0  0  0  0  0  0  0  0
  -21.6200   -6.1930   22.6480 C   0  0  0  0  0  0  0  0  0  0  0  0
  -21.1810   -6.7430   23.8730 C   0  0  0  0  0  3  0  0  0  0  0  0
  -21.0740   -5.9230   25.0140 C   0  0  0  0  0  3  0  0  0  0  0  0
  -21.3970   -4.5540   24.9350 C   0  0  0  0  0  0  0  0  0  0  0  0
  -21.8280   -4.0060   23.7130 C   0  0  0  0  0  3  0  0  0  0  0  0
  -21.9370   -4.8220   22.5740 C   0  0  0  0  0  0  0  0  0  0  0  0
  -22.3330   -4.2810   21.3960 F   0  0  0  0  0  0  0  0  0  0  0  0
  -21.2870   -3.7660   26.0290 F   0  0  0  0  0  0  0  0  0  0  0  0
  -22.7650  -13.5740   21.1700 C   0  0  0  0  0  0  0  0  0  0  0  0
  -22.0270  -12.8810   22.0310 N   0  0  0  0  0  0  0  0  0  0  0  0
  -22.3320  -14.6000   20.6440 O   0  0  0  0  0  0  0  0  0  0  0  0
  -22.3890  -12.0530   22.4830 H   0  0  0  0  0  0  0  0  0  0  0  0
  -21.0900  -13.1870   22.2480 H   0  0  0  0  0  0  0  0  0  0  0  0
  -25.3840  -15.2370   20.3660 N   0  0  0  0  0  0  0  0  0  0  0  0
  -24.6040  -15.8790   20.4640 H   0  0  0  0  0  0  0  0  0  0  0  0
  -26.2230  -15.6770   20.0180 H   0  0  0  0  0  0  0  0  0  0  0  0
  -28.6090  -22.6440   19.5270 C   0  0  0  0  0  2  0  0  0  0  0  0
  -29.0720  -23.9580   20.2580 C   0  0  0  0  0  2  0  0  0  0  0  0
  -28.0670  -25.1230   19.9290 C   0  0  0  0  0  2  0  0  0  0  0  0
  -28.3050  -26.5280   20.2820 O   0  0  0  0  0  0  0  0  0  0  0  0
  -24.5760  -31.9070   23.2810 C   0  0  0  0  0  0  0  0  0  0  0  0
  -27.1870  -27.3710   20.2180 C   0  0  0  0  0  0  0  0  0  0  0  0
  -23.3730  -30.5130   21.6360 C   0  0  0  0  0  3  0  0  0  0  0  0
  -24.8240  -28.9750   20.2110 C   0  0  0  0  0  0  0  0  0  0  0  0
  -25.9140  -30.8260   21.4700 C   0  0  0  0  0  2  0  0  0  0  0  0
  -25.9890  -29.4540   20.8210 C   0  0  0  0  0  0  0  0  0  0  0  0
  -27.1720  -28.6600   20.8280 C   0  0  0  0  0  3  0  0  0  0  0  0
  -25.9980  -26.9540   19.5660 C   0  0  0  0  0  3  0  0  0  0  0  0
  -24.8300  -27.7270   19.5760 C   0  0  0  0  0  3  0  0  0  0  0  0
  -23.5890  -29.8440   20.2540 C   0  0  0  0  0  2  0  0  0  0  0  0
  -24.6390  -31.1000   22.1840 N   0  0  0  0  0  0  0  0  0  0  0  0
  -23.4920  -32.1880   23.8120 O   0  0  0  0  0  0  0  0  0  0  0  0
  -22.7080  -29.4940   22.5910 C   0  0  0  0  0  0  0  0  0  0  0  0
  -21.3830  -29.3170   22.4590 N   0  0  0  0  0  0  0  0  0  0  0  0
  -23.3830  -28.8670   23.4110 O   0  0  0  0  0  0  0  0  0  0  0  0
  -20.8980  -29.8710   21.7680 H   0  0  0  0  0  0  0  0  0  0  0  0
  -18.0000  -28.1420   22.9540 C   0  0  0  0  0  0  0  0  0  0  0  0
  -20.5590  -28.3830   23.2270 C   0  0  0  0  0  3  0  0  0  0  0  0
  -20.6530  -26.9520   22.6510 C   0  0  0  0  0  2  0  0  0  0  0  0
  -19.5510  -26.6370   21.6350 C   0  0  0  0  0  2  0  0  0  0  0  0
  -18.1690  -26.7910   22.2770 C   0  0  0  0  0  2  0  0  0  0  0  0
  -19.1230  -28.8960   23.3860 C   0  0  0  0  0  0  0  0  0  0  0  0
  -18.9110  -30.1600   23.9780 C   0  0  0  0  0  3  0  0  0  0  0  0
  -17.6090  -30.6700   24.1420 C   0  0  0  0  0  3  0  0  0  0  0  0
  -16.5000  -29.9120   23.7260 C   0  0  0  0  0  3  0  0  0  0  0  0
  -16.6960  -28.6490   23.1390 C   0  0  0  0  0  3  0  0  0  0  0  0
  -25.8610  -32.5350   23.9040 C   0  0  0  0  0  3  0  0  0  0  0  0
  -26.3690  -31.7670   25.1870 C   0  0  1  0  0  0  0  0  0  0  0  0
  -25.2690  -31.5410   26.2500 C   0  0  0  0  0  1  0  0  0  0  0  0
  -26.9490  -30.3850   24.8080 C   0  0  0  0  0  1  0  0  0  0  0  0
  -27.5180  -32.5620   25.8500 C   0  0  0  0  0  1  0  0  0  0  0  0
  -25.5570  -33.9350   24.2240 N   0  0  0  0  0  0  0  0  0  0  0  0
  -25.8920  -34.9810   23.4580 C   0  0  0  0  0  0  0  0  0  0  0  0
  -26.5620  -34.8710   22.4270 O   0  0  0  0  0  0  0  0  0  0  0  0
  -24.9610  -34.0970   25.0230 H   0  0  0  0  0  0  0  0  0  0  0  0
  -24.1730  -36.7820   23.0930 C   0  0  0  0  0  1  0  0  0  0  0  0
  -25.4100  -36.3750   23.9080 C   0  0  0  0  0  3  0  0  0  0  0  0
  -27.5460  -37.2550   24.7420 C   0  0  0  0  0  1  0  0  0  0  0  0
  -26.4470  -37.4230   23.7950 N   0  0  0  0  0  0  0  0  0  0  0  0
  -26.0430  -38.3450   23.9390 H   0  0  0  0  0  0  0  0  0  0  0  0
  2  1  1  0
  3  6  2  0
  3  5  1  0
  4  8  1  0
  4  1  2  0
  5  2  2  0
  6  4  1  0
  7  6  1  0
  8  9  2  0
 10  9  1  0
 11 16  1  0
 12 13  1  0
 12 11  1  0
 14 13  1  0
 14 21  1  0
 14 15  1  0
 16 10  1  0
 16 15  1  0
 17 10  2  0
 18 19  2  0
 19 38  1  0
 20 19  1  0
 20 23  1  0
 21 18  1  0
 21 22  1  0
 22 20  2  0
 23 24  1  0
 24 25  2  0
 26 29  1  0
 26 25  1  0
 27 26  2  0
 28 27  1  0
 28 23  2  0
 29 30  1  0
 30 31  1  0
 31 32  2  0
 33 32  1  0
 33 37  1  0
 34 33  2  0
 35 30  2  0
 35 34  1  0
 36 35  1  0
 38 39  1  0
 39 42  1  0
 39 41  1  0
 40 38  2  0
 43 44  1  0
 43 18  1  0
 45 43  1  0
 46  5  1  0
 46 47  1  0
 48 47  1  0
 48 49  1  0
 50 61  2  0
 51 49  1  0
 51 56  1  0
 52 60  1  0
 52 62  1  0
 53 59  1  0
 53 55  1  0
 54 60  1  0
 55 56  2  0
 55 54  1  0
 57 58  1  0
 57 51  2  0
 58 53  2  0
 59 52  1  0
 60 50  1  0
 62 64  2  0
 63 62  1  0
 65 63  1  0
 66 75  2  0
 66 71  1  0
 67 63  1  0
 67 71  1  0
 68 67  1  0
 69 70  1  0
 69 68  1  0
 70 66  1  0
 71 72  2  0
 72 73  1  0
 74 73  2  0
 75 74  1  0
 76 50  1  0
 76 81  1  0
 76 77  1  0
 77 80  1  1
 77 78  1  0
 79 77  1  0
 81 84  1  0
 82 86  1  0
 82 81  1  0
 83 82  2  0
 86 85  1  0
 88 86  1  0
 88 89  1  0
 88 87  1  0
M  ISO  4   9 100  10 100  48 101  49 101
M  END
>  <TORSDO>  (26) 
F 20

>  <SCORE>  (26) 
-14.035

>  <name>  (26) 
25

>  <ligand_id>  (26) 
25

>  <original_smiles>  (26) 
[H]C(C(=O)N1C([H])([H])C([H])([H])C([H])([H])C([H])(n2nc(-c3c([H])c([H])c(Oc4c([H])c([H])c(F)c([H])c4F)c([H])c3[H])c(C(=O)N([H])[H])c2N([H])[H])C1([H])[H])=C([H])c1c([H])c([H])c(C([H])([H])C([H])([H])C([H])([H])Oc2c([H])c([H])c3c(c2[H])C([H])([H])N(C(=O)C([H])(N([H])C(=O)C([H])(N([H])C([H])([H])[H])C([H])([H])[H])C(C([H])([H])[H])(C([H])([H])[H])C([H])([H])[H])C([H])(C(=O)N([H])C2([H])c4c([H])c([H])c([H])c([H])c4C([H])([H])C([H])([H])C2([H])[H])C3([H])[H])c([H])c1C([H])([H])[H]

>  <smiles>  (26) 
[H]C(C(=O)N1C([H])([H])C([H])([H])C([H])([H])C([H])(n2nc(-c3c([H])c([H])c(Oc4c([H])c([H])c(F)c([H])c4F)c([H])c3[H])c(C(=O)N([H])[H])c2N([H])[H])C1([H])[H])=C([H])c1c([H])c([H])c(C([H])([H])C([H])([H])C([H])([H])Oc2c([H])c([H])c3c(c2[H])C([H])([H])N(C(=O)C([H])(N([H])C(=O)C([H])(N([H])C([H])([H])[H])C([H])([H])[H])C(C([H])([H])[H])(C([H])([H])[H])C([H])([H])[H])C([H])(C(=O)N([H])C2([H])c4c([H])c([H])c([H])c([H])c4C([H])([H])C([H])([H])C2([H])[H])C3([H])[H])c([H])c1C([H])([H])[H]

$$$$
26:0:0
     RDKit          3D

 91 99  0  0  1  0  0  0  0  0999 V2000
  -29.1490  -21.1830   20.2720 C   0  0  0  0  0  3  0  0  0  0  0  0
  -28.9990  -22.4690   20.7950 C   0  0  0  0  0  3  0  0  0  0  0  0
  -31.2740  -18.6970   22.4320 C   0  0  0  0  0  3  0  0  0  0  0  0
  -31.0100  -17.4360   21.8730 C   0  0  0  0  0  3  0  0  0  0  0  0
  -29.4710  -18.5270   20.3410 C   0  0  0  0  0  3  0  0  0  0  0  0
  -29.7560  -19.8660   20.8610 C   0  0  0  0  0  0  0  0  0  0  0  0
  -30.6780  -19.8880   21.9540 C   0  0  0  0  0  0  0  0  0  0  0  0
  -30.0960  -17.2920   20.8150 C   0  0  0  0  0  0  0  0  0  0  0  0
  -31.1120  -21.1650   22.6620 C   0  0  0  0  0  1  0  0  0  0  0  0
  -30.5660  -14.7920   20.1790 C   0  0  0  0  0  0  0  0  0  0  0  0
  -30.3510  -12.5480   19.0840 C   0  0  0  0  0  2  0  0  0  0  0  0
  -29.3630  -12.6230   17.9000 C   0  0  0  0  0  2  0  0  0  0  0  0
  -27.9130  -12.4300   18.3860 C   0  0  0  0  0  2  0  0  0  0  0  0
  -27.5750  -13.3040   19.6220 C   0  0  0  0  0  3  0  0  0  0  0  0
  -28.6710  -13.1990   20.7040 C   0  0  0  0  0  2  0  0  0  0  0  0
  -29.9400  -13.5730   20.0700 N   0  0  0  0  0  0  0  0  0  0  0  0
  -31.7510  -14.9060   19.8470 O   0  0  0  0  0  0  0  0  0  0  0  0
  -29.7670  -15.9110   20.3800 N   0  0  0  0  0  0  0  0  0  0  0  0
  -28.7800  -15.7090   20.3410 H   0  0  0  0  0  0  0  0  0  0  0  0
  -25.2100  -13.8860   20.4290 C   0  0  0  0  0  0  0  0  0  0  0  0
  -24.1590  -13.1050   20.8280 C   0  0  0  0  0  0  0  0  0  0  0  0
  -24.6270  -11.7560   20.7760 C   0  0  0  0  0  0  0  0  0  0  0  0
  -26.2490  -13.0110   20.1540 N   0  0  0  0  0  0  0  0  0  0  0  0
  -25.9070  -11.7260   20.4280 N   0  0  0  0  0  0  0  0  0  0  0  0
  -23.9130  -10.4890   20.9800 C   0  0  0  0  0  0  0  0  0  0  0  0
  -24.3660   -9.5260   21.9070 C   0  0  0  0  0  3  0  0  0  0  0  0
  -23.6500   -8.3250   22.0980 C   0  0  0  0  0  3  0  0  0  0  0  0
  -22.4660   -8.0780   21.3630 C   0  0  0  0  0  0  0  0  0  0  0  0
  -22.0330   -9.0310   20.4240 C   0  0  0  0  0  3  0  0  0  0  0  0
  -22.7500  -10.2230   20.2310 C   0  0  0  0  0  3  0  0  0  0  0  0
  -21.7210   -6.9290   21.4640 O   0  0  0  0  0  0  0  0  0  0  0  0
  -21.6860   -6.1930   22.6210 C   0  0  0  0  0  0  0  0  0  0  0  0
  -21.2520   -6.7490   23.8450 C   0  0  0  0  0  3  0  0  0  0  0  0
  -21.1650   -5.9390   24.9940 C   0  0  0  0  0  3  0  0  0  0  0  0
  -21.5040   -4.5740   24.9230 C   0  0  0  0  0  0  0  0  0  0  0  0
  -21.9300   -4.0170   23.7040 C   0  0  0  0  0  3  0  0  0  0  0  0
  -22.0180   -4.8250   22.5560 C   0  0  0  0  0  0  0  0  0  0  0  0
  -22.4100   -4.2780   21.3790 F   0  0  0  0  0  0  0  0  0  0  0  0
  -21.4120   -3.7940   26.0250 F   0  0  0  0  0  0  0  0  0  0  0  0
  -22.7700  -13.5760   21.1430 C   0  0  0  0  0  0  0  0  0  0  0  0
  -22.0680  -12.8670   22.0200 N   0  0  0  0  0  0  0  0  0  0  0  0
  -22.3130  -14.6050   20.6460 O   0  0  0  0  0  0  0  0  0  0  0  0
  -22.4470  -12.0320   22.4420 H   0  0  0  0  0  0  0  0  0  0  0  0
  -21.1360  -13.1650   22.2740 H   0  0  0  0  0  0  0  0  0  0  0  0
  -25.3610  -15.2590   20.2510 N   0  0  0  0  0  0  0  0  0  0  0  0
  -24.5920  -15.9050   20.3920 H   0  0  0  0  0  0  0  0  0  0  0  0
  -26.1770  -15.7020   19.8490 H   0  0  0  0  0  0  0  0  0  0  0  0
  -28.5340  -23.7660   20.0910 C   0  0  0  0  0  0  0  0  0  0  0  0
  -28.3960  -23.8070   18.8650 O   0  0  0  0  0  0  0  0  0  0  0  0
  -28.1990  -25.0970   20.9220 C   0  0  0  0  0  2  0  0  0  0  0  0
  -28.3650  -26.4460   20.2830 O   0  0  0  0  0  0  0  0  0  0  0  0
  -24.5880  -31.9010   23.2680 C   0  0  0  0  0  0  0  0  0  0  0  0
  -27.2570  -27.3160   20.2690 C   0  0  0  0  0  0  0  0  0  0  0  0
  -23.4110  -30.4810   21.6290 C   0  0  0  0  0  3  0  0  0  0  0  0
  -24.8870  -28.9270   20.2220 C   0  0  0  0  0  0  0  0  0  0  0  0
  -25.9500  -30.8110   21.4670 C   0  0  0  0  0  2  0  0  0  0  0  0
  -26.0480  -29.4250   20.8290 C   0  0  0  0  0  0  0  0  0  0  0  0
  -27.2400  -28.6320   20.8370 C   0  0  0  0  0  3  0  0  0  0  0  0
  -26.0790  -26.8770   19.6350 C   0  0  0  0  0  3  0  0  0  0  0  0
  -24.9060  -27.6630   19.6110 C   0  0  0  0  0  3  0  0  0  0  0  0
  -23.6440  -29.7970   20.2540 C   0  0  0  0  0  2  0  0  0  0  0  0
  -24.6680  -31.0830   22.1780 N   0  0  0  0  0  0  0  0  0  0  0  0
  -23.4980  -32.1760   23.7900 O   0  0  0  0  0  0  0  0  0  0  0  0
  -22.7470  -29.4660   22.5890 C   0  0  0  0  0  0  0  0  0  0  0  0
  -21.4230  -29.2850   22.4560 N   0  0  0  0  0  0  0  0  0  0  0  0
  -23.4230  -28.8460   23.4130 O   0  0  0  0  0  0  0  0  0  0  0  0
  -20.9370  -29.8380   21.7640 H   0  0  0  0  0  0  0  0  0  0  0  0
  -18.0460  -28.0760   22.9450 C   0  0  0  0  0  0  0  0  0  0  0  0
  -20.6020  -28.3460   23.2230 C   0  0  0  0  0  3  0  0  0  0  0  0
  -20.7110  -26.9140   22.6500 C   0  0  0  0  0  2  0  0  0  0  0  0
  -19.6130  -26.5850   21.6320 C   0  0  0  0  0  2  0  0  0  0  0  0
  -18.2300  -26.7260   22.2710 C   0  0  0  0  0  2  0  0  0  0  0  0
  -19.1600  -28.8430   23.3770 C   0  0  0  0  0  0  0  0  0  0  0  0
  -18.9360  -30.1050   23.9680 C   0  0  0  0  0  3  0  0  0  0  0  0
  -17.6300  -30.6020   24.1300 C   0  0  0  0  0  3  0  0  0  0  0  0
  -16.5280  -29.8310   23.7150 C   0  0  0  0  0  3  0  0  0  0  0  0
  -16.7370  -28.5700   23.1280 C   0  0  0  0  0  3  0  0  0  0  0  0
  -25.8600  -32.5490   23.8980 C   0  0  0  0  0  3  0  0  0  0  0  0
  -26.3610  -31.8020   25.1960 C   0  0  1  0  0  0  0  0  0  0  0  0
  -25.2520  -31.5760   26.2510 C   0  0  0  0  0  1  0  0  0  0  0  0
  -26.9550  -30.4200   24.8360 C   0  0  0  0  0  1  0  0  0  0  0  0
  -27.5000  -32.6110   25.8590 C   0  0  0  0  0  1  0  0  0  0  0  0
  -25.5430  -33.9520   24.2020 N   0  0  0  0  0  0  0  0  0  0  0  0
  -25.8770  -34.9950   23.4300 C   0  0  0  0  0  0  0  0  0  0  0  0
  -26.5550  -34.8760   22.4050 O   0  0  0  0  0  0  0  0  0  0  0  0
  -24.9420  -34.1160   24.9970 H   0  0  0  0  0  0  0  0  0  0  0  0
  -24.1480  -36.7770   23.0330 C   0  0  0  0  0  1  0  0  0  0  0  0
  -25.3840  -36.3900   23.8600 C   0  0  0  0  0  3  0  0  0  0  0  0
  -27.5090  -37.2950   24.6950 C   0  0  0  0  0  1  0  0  0  0  0  0
  -26.4160  -37.4420   23.7370 N   0  0  0  0  0  0  0  0  0  0  0  0
  -26.0070  -38.3640   23.8650 H   0  0  0  0  0  0  0  0  0  0  0  0
  1  2  2  0
  1  6  1  0
  4  3  2  0
  5  8  2  0
  5  6  1  0
  6  7  2  0
  7  3  1  0
  7  9  1  0
  8  4  1  0
 10 18  1  0
 11 16  1  0
 12 13  1  0
 12 11  1  0
 14 13  1  0
 14 23  1  0
 14 15  1  0
 16 10  1  0
 16 15  1  0
 17 10  2  0
 18  8  1  0
 19 18  1  0
 20 21  2  0
 21 40  1  0
 22 21  1  0
 22 25  1  0
 23 24  1  0
 23 20  1  0
 24 22  2  0
 25 26  1  0
 26 27  2  0
 28 31  1  0
 28 27  1  0
 29 28  2  0
 30 29  1  0
 30 25  2  0
 31 32  1  0
 32 33  1  0
 33 34  2  0
 35 34  1  0
 35 39  1  0
 36 35  2  0
 37 32  2  0
 37 36  1  0
 38 37  1  0
 40 41  1  0
 41 44  1  0
 41 43  1  0
 42 40  2  0
 45 46  1  0
 45 20  1  0
 47 45  1  0
 48  2  1  0
 48 50  1  0
 49 48  2  0
 51 50  1  0
 52 63  2  0
 53 51  1  0
 53 58  1  0
 54 62  1  0
 54 64  1  0
 55 61  1  0
 55 57  1  0
 56 62  1  0
 57 58  2  0
 57 56  1  0
 59 53  2  0
 60 59  1  0
 60 55  2  0
 61 54  1  0
 62 52  1  0
 64 66  2  0
 65 64  1  0
 67 65  1  0
 68 77  2  0
 68 73  1  0
 69 65  1  0
 69 73  1  0
 70 69  1  0
 71 72  1  0
 71 70  1  0
 72 68  1  0
 73 74  2  0
 74 75  1  0
 76 75  2  0
 77 76  1  0
 78 52  1  0
 78 83  1  0
 78 79  1  0
 79 82  1  1
 79 80  1  0
 81 79  1  0
 83 86  1  0
 84 88  1  0
 84 83  1  0
 85 84  2  0
 88 87  1  0
 90 88  1  0
 90 91  1  0
 90 89  1  0
M  ISO  4  10 100  18 100  50 101  51 101
M  END
>  <TORSDO>  (27) 
F 19

>  <SCORE>  (27) 
-14.356

>  <name>  (27) 
26

>  <ligand_id>  (27) 
26

>  <original_smiles>  (27) 
[H]C(C(=O)C([H])([H])Oc1c([H])c([H])c2c(c1[H])C([H])([H])N(C(=O)C([H])(N([H])C(=O)C([H])(N([H])C([H])([H])[H])C([H])([H])[H])C(C([H])([H])[H])(C([H])([H])[H])C([H])([H])[H])C([H])(C(=O)N([H])C1([H])c3c([H])c([H])c([H])c([H])c3C([H])([H])C([H])([H])C1([H])[H])C2([H])[H])=C([H])c1c([H])c(N([H])C(=O)N2C([H])([H])C([H])([H])C([H])([H])C([H])(n3nc(-c4c([H])c([H])c(Oc5c([H])c([H])c(F)c([H])c5F)c([H])c4[H])c(C(=O)N([H])[H])c3N([H])[H])C2([H])[H])c([H])c([H])c1C([H])([H])[H]

>  <smiles>  (27) 
[H]C(C(=O)C([H])([H])Oc1c([H])c([H])c2c(c1[H])C([H])([H])N(C(=O)C([H])(N([H])C(=O)C([H])(N([H])C([H])([H])[H])C([H])([H])[H])C(C([H])([H])[H])(C([H])([H])[H])C([H])([H])[H])C([H])(C(=O)N([H])C1([H])c3c([H])c([H])c([H])c([H])c3C([H])([H])C([H])([H])C1([H])[H])C2([H])[H])=C([H])c1c([H])c(N([H])C(=O)N2C([H])([H])C([H])([H])C([H])([H])C([H])(n3nc(-c4c([H])c([H])c(Oc5c([H])c([H])c(F)c([H])c5F)c([H])c4[H])c(C(=O)N([H])[H])c3N([H])[H])C2([H])[H])c([H])c([H])c1C([H])([H])[H]

$$$$
27:0:0
     RDKit          3D

 90 98  0  0  1  0  0  0  0  0999 V2000
  -31.0220  -19.3040   19.7210 C   0  0  0  0  0  3  0  0  0  0  0  0
  -31.0100  -17.8910   19.9210 C   0  0  0  0  0  3  0  0  0  0  0  0
  -28.6570  -18.0100   20.3860 C   0  0  0  0  0  3  0  0  0  0  0  0
  -29.8650  -20.1160   19.8420 C   0  0  0  0  0  0  0  0  0  0  0  0
  -28.6660  -19.4300   20.1830 C   0  0  0  0  0  0  0  0  0  0  0  0
  -29.8240  -17.1930   20.2630 C   0  0  0  0  0  0  0  0  0  0  0  0
  -27.3630  -20.2140   20.2850 C   0  0  0  0  0  1  0  0  0  0  0  0
  -30.5670  -14.6820   20.1730 C   0  0  0  0  0  0  0  0  0  0  0  0
  -30.3440  -12.4570   19.0920 C   0  0  0  0  0  2  0  0  0  0  0  0
  -29.3460  -12.6080   17.9210 C   0  0  0  0  0  2  0  0  0  0  0  0
  -27.8890  -12.4580   18.4030 C   0  0  0  0  0  2  0  0  0  0  0  0
  -27.5860  -13.2890   19.6780 C   0  0  0  0  0  3  0  0  0  0  0  0
  -28.6870  -13.0880   20.7430 C   0  0  0  0  0  2  0  0  0  0  0  0
  -29.9680  -13.4490   20.1210 N   0  0  0  0  0  0  0  0  0  0  0  0
  -31.7310  -14.8330   19.7910 O   0  0  0  0  0  0  0  0  0  0  0  0
  -29.7410  -15.7400   20.4850 N   0  0  0  0  0  0  0  0  0  0  0  0
  -28.8420  -15.4290   20.8240 H   0  0  0  0  0  0  0  0  0  0  0  0
  -25.2290  -13.8940   20.5010 C   0  0  0  0  0  0  0  0  0  0  0  0
  -24.1670  -13.1250   20.8890 C   0  0  0  0  0  0  0  0  0  0  0  0
  -24.6150  -11.7700   20.8170 C   0  0  0  0  0  0  0  0  0  0  0  0
  -26.2550  -13.0100   20.2070 N   0  0  0  0  0  0  0  0  0  0  0  0
  -25.8930  -11.7250   20.4610 N   0  0  0  0  0  0  0  0  0  0  0  0
  -23.8850  -10.5100   21.0080 C   0  0  0  0  0  0  0  0  0  0  0  0
  -24.3350   -9.5280   21.9180 C   0  0  0  0  0  3  0  0  0  0  0  0
  -23.6070   -8.3340   22.0990 C   0  0  0  0  0  3  0  0  0  0  0  0
  -22.4120   -8.1120   21.3720 C   0  0  0  0  0  0  0  0  0  0  0  0
  -21.9800   -9.0840   20.4500 C   0  0  0  0  0  3  0  0  0  0  0  0
  -22.7110  -10.2690   20.2670 C   0  0  0  0  0  3  0  0  0  0  0  0
  -21.6520   -6.9720   21.4660 O   0  0  0  0  0  0  0  0  0  0  0  0
  -21.6130   -6.2250   22.6160 C   0  0  0  0  0  0  0  0  0  0  0  0
  -21.1930   -6.7720   23.8490 C   0  0  0  0  0  3  0  0  0  0  0  0
  -21.1070   -5.9510   24.9900 C   0  0  0  0  0  3  0  0  0  0  0  0
  -21.4260   -4.5820   24.8990 C   0  0  0  0  0  0  0  0  0  0  0  0
  -21.8400   -4.0350   23.6720 C   0  0  0  0  0  3  0  0  0  0  0  0
  -21.9300   -4.8540   22.5340 C   0  0  0  0  0  0  0  0  0  0  0  0
  -22.3090   -4.3160   21.3490 F   0  0  0  0  0  0  0  0  0  0  0  0
  -21.3330   -3.7910   25.9940 F   0  0  0  0  0  0  0  0  0  0  0  0
  -22.7830  -13.6080   21.2150 C   0  0  0  0  0  0  0  0  0  0  0  0
  -22.0760  -12.9050   22.0920 N   0  0  0  0  0  0  0  0  0  0  0  0
  -22.3380  -14.6490   20.7300 O   0  0  0  0  0  0  0  0  0  0  0  0
  -22.4430  -12.0600   22.5050 H   0  0  0  0  0  0  0  0  0  0  0  0
  -21.1530  -13.2130   22.3590 H   0  0  0  0  0  0  0  0  0  0  0  0
  -25.4060  -15.2680   20.3560 N   0  0  0  0  0  0  0  0  0  0  0  0
  -24.6720  -15.9320   20.5770 H   0  0  0  0  0  0  0  0  0  0  0  0
  -26.2600  -15.7080   20.0430 H   0  0  0  0  0  0  0  0  0  0  0  0
  -29.9740  -21.6150   19.5860 C   0  0  0  0  0  3  0  0  0  0  0  0
  -29.4640  -22.6760   20.2880 C   0  0  0  0  0  3  0  0  0  0  0  0
  -29.6170  -24.2000   19.9750 C   0  0  0  0  0  3  0  0  0  0  0  0
  -28.3970  -25.1270   20.3750 C   0  0  0  0  0  3  0  0  0  0  0  0
  -28.4880  -26.5840   20.1510 O   0  0  0  0  0  0  0  0  0  0  0  0
  -24.6270  -31.8690   23.2370 C   0  0  0  0  0  0  0  0  0  0  0  0
  -27.3170  -27.3530   20.1730 C   0  0  0  0  0  0  0  0  0  0  0  0
  -23.4400  -30.4610   21.5900 C   0  0  0  0  0  3  0  0  0  0  0  0
  -24.9120  -28.9090   20.1830 C   0  0  0  0  0  0  0  0  0  0  0  0
  -25.9780  -30.7960   21.4210 C   0  0  0  0  0  2  0  0  0  0  0  0
  -26.0720  -29.4170   20.7800 C   0  0  0  0  0  0  0  0  0  0  0  0
  -27.2740  -28.6510   20.7670 C   0  0  0  0  0  3  0  0  0  0  0  0
  -26.1300  -26.8900   19.5580 C   0  0  0  0  0  3  0  0  0  0  0  0
  -24.9400  -27.6450   19.5700 C   0  0  0  0  0  3  0  0  0  0  0  0
  -23.6670  -29.7730   20.2180 C   0  0  0  0  0  2  0  0  0  0  0  0
  -24.6990  -31.0580   22.1400 N   0  0  0  0  0  0  0  0  0  0  0  0
  -23.5380  -32.1430   23.7630 O   0  0  0  0  0  0  0  0  0  0  0  0
  -22.7740  -29.4470   22.5500 C   0  0  0  0  0  0  0  0  0  0  0  0
  -21.4480  -29.2680   22.4190 N   0  0  0  0  0  0  0  0  0  0  0  0
  -23.4540  -28.8190   23.3670 O   0  0  0  0  0  0  0  0  0  0  0  0
  -20.9600  -29.8290   21.7340 H   0  0  0  0  0  0  0  0  0  0  0  0
  -18.0670  -28.0870   22.9230 C   0  0  0  0  0  0  0  0  0  0  0  0
  -20.6290  -28.3300   23.1880 C   0  0  0  0  0  3  0  0  0  0  0  0
  -20.7210  -26.9010   22.6010 C   0  0  0  0  0  2  0  0  0  0  0  0
  -19.6140  -26.5900   21.5890 C   0  0  0  0  0  2  0  0  0  0  0  0
  -18.2350  -26.7420   22.2370 C   0  0  0  0  0  2  0  0  0  0  0  0
  -19.1930  -28.8400   23.3540 C   0  0  0  0  0  0  0  0  0  0  0  0
  -18.9830  -30.1020   23.9520 C   0  0  0  0  0  3  0  0  0  0  0  0
  -17.6830  -30.6100   24.1270 C   0  0  0  0  0  3  0  0  0  0  0  0
  -16.5710  -29.8530   23.7140 C   0  0  0  0  0  3  0  0  0  0  0  0
  -16.7640  -28.5950   23.1150 C   0  0  0  0  0  3  0  0  0  0  0  0
  -25.9040  -32.5090   23.8640 C   0  0  0  0  0  3  0  0  0  0  0  0
  -26.4120  -31.7440   25.1480 C   0  0  1  0  0  0  0  0  0  0  0  0
  -25.3140  -31.5140   26.2130 C   0  0  0  0  0  1  0  0  0  0  0  0
  -26.9950  -30.3620   24.7640 C   0  0  0  0  0  1  0  0  0  0  0  0
  -27.5580  -32.5400   25.8150 C   0  0  0  0  0  1  0  0  0  0  0  0
  -25.5900  -33.9080   24.1880 N   0  0  0  0  0  0  0  0  0  0  0  0
  -25.9180  -34.9570   23.4230 C   0  0  0  0  0  0  0  0  0  0  0  0
  -26.5860  -34.8500   22.3920 O   0  0  0  0  0  0  0  0  0  0  0  0
  -25.0120  -34.0650   25.0000 H   0  0  0  0  0  0  0  0  0  0  0  0
  -24.1900  -36.7440   23.0540 C   0  0  0  0  0  1  0  0  0  0  0  0
  -25.4280  -36.3470   23.8740 C   0  0  0  0  0  3  0  0  0  0  0  0
  -27.5590  -37.2390   24.7080 C   0  0  0  0  0  1  0  0  0  0  0  0
  -26.4570  -37.4020   23.7630 N   0  0  0  0  0  0  0  0  0  0  0  0
  -26.0470  -38.3190   23.9100 H   0  0  0  0  0  0  0  0  0  0  0  0
  1  4  2  0
  1  2  1  0
  2  6  2  0
  4  5  1  0
  5  7  1  0
  5  3  2  0
  6  3  1  0
  6 16  1  0
  8 16  1  0
  9 14  1  0
 10 11  1  0
 10  9  1  0
 12 11  1  0
 12 21  1  0
 12 13  1  0
 14  8  1  0
 14 13  1  0
 15  8  2  0
 16 17  1  0
 18 19  2  0
 19 38  1  0
 20 19  1  0
 20 23  1  0
 21 22  1  0
 21 18  1  0
 22 20  2  0
 23 24  1  0
 24 25  2  0
 26 29  1  0
 26 25  1  0
 27 26  2  0
 28 27  1  0
 28 23  2  0
 29 30  1  0
 30 31  1  0
 31 32  2  0
 33 32  1  0
 33 37  1  0
 34 33  2  0
 35 30  2  0
 35 34  1  0
 36 35  1  0
 38 39  1  0
 39 42  1  0
 39 41  1  0
 40 38  2  0
 43 18  1  0
 43 44  1  0
 45 43  1  0
 46  4  1  0
 46 47  2  0
 48 47  1  0
 48 49  2  0
 50 52  1  0
 50 49  1  0
 51 62  2  0
 52 57  1  0
 53 61  1  0
 53 63  1  0
 54 60  1  0
 54 56  1  0
 55 61  1  0
 56 55  1  0
 57 56  2  0
 58 59  1  0
 58 52  2  0
 59 54  2  0
 60 53  1  0
 61 51  1  0
 63 65  2  0
 64 63  1  0
 66 64  1  0
 67 76  2  0
 67 72  1  0
 68 64  1  0
 68 72  1  0
 69 68  1  0
 70 71  1  0
 70 69  1  0
 71 67  1  0
 72 73  2  0
 73 74  1  0
 75 74  2  0
 76 75  1  0
 77 51  1  0
 77 82  1  0
 77 78  1  0
 78 81  1  1
 78 79  1  0
 80 78  1  0
 82 85  1  0
 83 87  1  0
 83 82  1  0
 84 83  2  0
 87 86  1  0
 89 87  1  0
 89 90  1  0
 89 88  1  0
M  ISO  4   8 100  16 100  49 101  50 101
M  END
>  <TORSDO>  (28) 
F 19

>  <SCORE>  (28) 
-13.897

>  <name>  (28) 
27

>  <ligand_id>  (28) 
27

>  <original_smiles>  (28) 
[H]C(=C([H])C([H])([H])C([H])([H])Oc1c([H])c([H])c2c(c1[H])C([H])([H])N(C(=O)C([H])(N([H])C(=O)C([H])(N([H])C([H])([H])[H])C([H])([H])[H])C(C([H])([H])[H])(C([H])([H])[H])C([H])([H])[H])C([H])(C(=O)N([H])C1([H])c3c([H])c([H])c([H])c([H])c3C([H])([H])C([H])([H])C1([H])[H])C2([H])[H])c1c([H])c([H])c(N([H])C(=O)N2C([H])([H])C([H])([H])C([H])([H])C([H])(n3nc(-c4c([H])c([H])c(Oc5c([H])c([H])c(F)c([H])c5F)c([H])c4[H])c(C(=O)N([H])[H])c3N([H])[H])C2([H])[H])c([H])c1C([H])([H])[H]

>  <smiles>  (28) 
[H]C(=C([H])C([H])([H])C([H])([H])Oc1c([H])c([H])c2c(c1[H])C([H])([H])N(C(=O)C([H])(N([H])C(=O)C([H])(N([H])C([H])([H])[H])C([H])([H])[H])C(C([H])([H])[H])(C([H])([H])[H])C([H])([H])[H])C([H])(C(=O)N([H])C1([H])c3c([H])c([H])c([H])c([H])c3C([H])([H])C([H])([H])C1([H])[H])C2([H])[H])c1c([H])c([H])c(N([H])C(=O)N2C([H])([H])C([H])([H])C([H])([H])C([H])(n3nc(-c4c([H])c([H])c(Oc5c([H])c([H])c(F)c([H])c5F)c([H])c4[H])c(C(=O)N([H])[H])c3N([H])[H])C2([H])[H])c([H])c1C([H])([H])[H]

$$$$
28:0:0
     RDKit          3D

 90 98  0  0  1  0  0  0  0  0999 V2000
  -28.4740  -18.4550   20.3100 C   0  0  0  0  0  3  0  0  0  0  0  0
  -30.3570  -19.9490   20.5700 C   0  0  0  0  0  3  0  0  0  0  0  0
  -28.1850  -20.8860   20.0090 C   0  0  0  0  0  3  0  0  0  0  0  0
  -29.8570  -18.5780   20.5800 C   0  0  0  0  0  0  0  0  0  0  0  0
  -27.6550  -19.5770   20.0360 C   0  0  0  0  0  0  0  0  0  0  0  0
  -29.5490  -21.1290   20.2770 C   0  0  0  0  0  0  0  0  0  0  0  0
  -26.1730  -19.3780   19.7920 C   0  0  0  0  0  1  0  0  0  0  0  0
  -30.6910  -17.2890   20.8430 C   0  0  0  0  0  3  0  0  0  0  0  0
  -30.2860  -15.9730   21.0700 C   0  0  0  0  0  3  0  0  0  0  0  0
  -31.1780  -14.7590   21.2640 C   0  0  0  0  0  0  0  0  0  0  0  0
  -31.1950  -12.2940   20.8120 C   0  0  0  0  0  2  0  0  0  0  0  0
  -30.5240  -12.0450   19.4410 C   0  0  0  0  0  2  0  0  0  0  0  0
  -28.9940  -11.9140   19.5940 C   0  0  0  0  0  2  0  0  0  0  0  0
  -28.3890  -13.0380   20.4770 C   0  0  0  0  0  3  0  0  0  0  0  0
  -29.1960  -13.2310   21.7770 C   0  0  0  0  0  2  0  0  0  0  0  0
  -30.5880  -13.5160   21.3960 N   0  0  0  0  0  0  0  0  0  0  0  0
  -32.4070  -14.8140   21.1480 O   0  0  0  0  0  0  0  0  0  0  0  0
  -25.9470  -13.7570   20.7890 C   0  0  0  0  0  0  0  0  0  0  0  0
  -24.7990  -13.0410   20.9920 C   0  0  0  0  0  0  0  0  0  0  0  0
  -25.1930  -11.6700   21.0590 C   0  0  0  0  0  0  0  0  0  0  0  0
  -26.9710  -12.8240   20.7400 N   0  0  0  0  0  0  0  0  0  0  0  0
  -26.5130  -11.5660   20.9660 N   0  0  0  0  0  0  0  0  0  0  0  0
  -24.3840  -10.4480   21.1480 C   0  0  0  0  0  0  0  0  0  0  0  0
  -24.6460   -9.4580   22.1200 C   0  0  0  0  0  3  0  0  0  0  0  0
  -23.8430   -8.3000   22.1970 C   0  0  0  0  0  3  0  0  0  0  0  0
  -22.7630   -8.1230   21.3010 C   0  0  0  0  0  0  0  0  0  0  0  0
  -22.5200   -9.1010   20.3190 C   0  0  0  0  0  3  0  0  0  0  0  0
  -23.3230  -10.2500   20.2410 C   0  0  0  0  0  3  0  0  0  0  0  0
  -21.9460   -7.0190   21.2840 O   0  0  0  0  0  0  0  0  0  0  0  0
  -21.7470   -6.2540   22.4050 C   0  0  0  0  0  0  0  0  0  0  0  0
  -21.2250   -6.8010   23.5970 C   0  0  0  0  0  3  0  0  0  0  0  0
  -20.9710   -5.9660   24.7030 C   0  0  0  0  0  3  0  0  0  0  0  0
  -21.2290   -4.5850   24.6180 C   0  0  0  0  0  0  0  0  0  0  0  0
  -21.7440   -4.0370   23.4290 C   0  0  0  0  0  3  0  0  0  0  0  0
  -21.9990   -4.8690   22.3260 C   0  0  0  0  0  0  0  0  0  0  0  0
  -22.4750   -4.3320   21.1770 F   0  0  0  0  0  0  0  0  0  0  0  0
  -20.9770   -3.7810   25.6770 F   0  0  0  0  0  0  0  0  0  0  0  0
  -23.4020  -13.5880   21.0240 C   0  0  0  0  0  0  0  0  0  0  0  0
  -22.5150  -12.9640   21.7920 N   0  0  0  0  0  0  0  0  0  0  0  0
  -23.1000  -14.6070   20.4030 O   0  0  0  0  0  0  0  0  0  0  0  0
  -22.7690  -12.1430   22.3220 H   0  0  0  0  0  0  0  0  0  0  0  0
  -21.5700  -13.3160   21.8550 H   0  0  0  0  0  0  0  0  0  0  0  0
  -26.2040  -15.1140   20.6180 N   0  0  0  0  0  0  0  0  0  0  0  0
  -25.4550  -15.7960   20.5710 H   0  0  0  0  0  0  0  0  0  0  0  0
  -27.1080  -15.5000   20.3780 H   0  0  0  0  0  0  0  0  0  0  0  0
  -30.0370  -22.4690   20.3320 O   0  0  0  0  0  0  0  0  0  0  0  0
  -29.3410  -23.6610   19.7380 C   0  0  0  0  0  2  0  0  0  0  0  0
  -29.6420  -25.0000   21.9370 C   0  0  0  0  0  1  0  0  0  0  0  0
  -28.8730  -24.9520   20.6130 C   0  0  0  0  0  3  0  0  0  0  0  0
  -28.9690  -26.3580   20.0920 O   0  0  0  0  0  0  0  0  0  0  0  0
  -24.9810  -31.5320   23.2800 C   0  0  0  0  0  0  0  0  0  0  0  0
  -27.8360  -27.1940   20.1050 C   0  0  0  0  0  0  0  0  0  0  0  0
  -23.8850  -30.2020   21.5110 C   0  0  0  0  0  3  0  0  0  0  0  0
  -25.4370  -28.7650   20.0670 C   0  0  0  0  0  0  0  0  0  0  0  0
  -26.4220  -30.5900   21.4570 C   0  0  0  0  0  2  0  0  0  0  0  0
  -26.5680  -29.2490   20.7380 C   0  0  0  0  0  0  0  0  0  0  0  0
  -27.7750  -28.4800   20.7380 C   0  0  0  0  0  3  0  0  0  0  0  0
  -26.6820  -26.7670   19.4180 C   0  0  0  0  0  3  0  0  0  0  0  0
  -25.4990  -27.5330   19.3950 C   0  0  0  0  0  3  0  0  0  0  0  0
  -24.1770  -29.6090   20.1070 C   0  0  0  0  0  2  0  0  0  0  0  0
  -25.1130  -30.7900   22.1410 N   0  0  0  0  0  0  0  0  0  0  0  0
  -23.8680  -31.7520   23.7830 O   0  0  0  0  0  0  0  0  0  0  0  0
  -23.2090  -29.1170   22.3840 C   0  0  0  0  0  0  0  0  0  0  0  0
  -21.8920  -28.9240   22.2000 N   0  0  0  0  0  0  0  0  0  0  0  0
  -23.8710  -28.4560   23.1870 O   0  0  0  0  0  0  0  0  0  0  0  0
  -21.4160  -29.5140   21.5300 H   0  0  0  0  0  0  0  0  0  0  0  0
  -18.5190  -27.6560   22.5270 C   0  0  0  0  0  0  0  0  0  0  0  0
  -21.0670  -27.9250   22.8810 C   0  0  0  0  0  3  0  0  0  0  0  0
  -21.2020  -26.5380   22.2090 C   0  0  0  0  0  2  0  0  0  0  0  0
  -20.1310  -26.2770   21.1460 C   0  0  0  0  0  2  0  0  0  0  0  0
  -18.7310  -26.3610   21.7620 C   0  0  0  0  0  2  0  0  0  0  0  0
  -19.6170  -28.3990   23.0390 C   0  0  0  0  0  0  0  0  0  0  0  0
  -19.3660  -29.6130   23.7130 C   0  0  0  0  0  3  0  0  0  0  0  0
  -18.0510  -30.0850   23.8800 C   0  0  0  0  0  3  0  0  0  0  0  0
  -16.9680  -29.3400   23.3830 C   0  0  0  0  0  3  0  0  0  0  0  0
  -17.2030  -28.1270   22.7130 C   0  0  0  0  0  3  0  0  0  0  0  0
  -26.2180  -32.1590   23.9930 C   0  0  0  0  0  3  0  0  0  0  0  0
  -26.6620  -31.3640   25.2820 C   0  0  1  0  0  0  0  0  0  0  0  0
  -25.5090  -31.1070   26.2820 C   0  0  0  0  0  1  0  0  0  0  0  0
  -27.2690  -29.9930   24.9010 C   0  0  0  0  0  1  0  0  0  0  0  0
  -27.7700  -32.1460   26.0250 C   0  0  0  0  0  1  0  0  0  0  0  0
  -25.8790  -33.5480   24.3360 N   0  0  0  0  0  0  0  0  0  0  0  0
  -26.2600  -34.6220   23.6310 C   0  0  0  0  0  0  0  0  0  0  0  0
  -27.0010  -34.5470   22.6470 O   0  0  0  0  0  0  0  0  0  0  0  0
  -25.2290  -33.6800   25.0970 H   0  0  0  0  0  0  0  0  0  0  0  0
  -24.5470  -36.4150   23.2090 C   0  0  0  0  0  1  0  0  0  0  0  0
  -25.7360  -35.9970   24.0890 C   0  0  0  0  0  3  0  0  0  0  0  0
  -27.8030  -36.8760   25.0810 C   0  0  0  0  0  1  0  0  0  0  0  0
  -26.7670  -37.0570   24.0670 N   0  0  0  0  0  0  0  0  0  0  0  0
  -26.3460  -37.9730   24.2040 H   0  0  0  0  0  0  0  0  0  0  0  0
  1  4  1  0
  2  4  2  0
  3  5  1  0
  3  6  2  0
  4  8  1  0
  5  1  2  0
  6 46  1  0
  6  2  1  0
  7  5  1  0
  8  9  2  0
  9 10  1  0
 10 16  1  0
 11 16  1  0
 12 13  1  0
 12 11  1  0
 14 13  1  0
 14 21  1  0
 14 15  1  0
 16 15  1  0
 17 10  2  0
 18 19  2  0
 19 38  1  0
 19 20  1  0
 20 23  1  0
 21 18  1  0
 21 22  1  0
 22 20  2  0
 23 24  1  0
 24 25  2  0
 26 25  1  0
 27 26  2  0
 28 27  1  0
 28 23  2  0
 29 26  1  0
 29 30  1  0
 30 31  1  0
 31 32  2  0
 33 32  1  0
 33 37  1  0
 34 33  2  0
 35 30  2  0
 35 34  1  0
 36 35  1  0
 38 39  1  0
 39 42  1  0
 39 41  1  0
 40 38  2  0
 43 18  1  0
 44 43  1  0
 45 43  1  0
 47 46  1  0
 47 49  1  0
 49 48  1  0
 50 52  1  0
 50 49  1  0
 51 62  2  0
 52 57  1  0
 53 61  1  0
 53 63  1  0
 54 60  1  0
 54 56  1  0
 55 61  1  0
 56 55  1  0
 57 56  2  0
 58 52  2  0
 59 58  1  0
 59 54  2  0
 60 53  1  0
 61 51  1  0
 63 65  2  0
 64 63  1  0
 66 64  1  0
 67 76  2  0
 67 72  1  0
 68 64  1  0
 68 72  1  0
 69 68  1  0
 70 71  1  0
 70 69  1  0
 71 67  1  0
 72 73  2  0
 73 74  1  0
 75 74  2  0
 76 75  1  0
 77 51  1  0
 77 82  1  0
 77 78  1  0
 78 81  1  1
 78 79  1  0
 80 78  1  0
 82 85  1  0
 83 87  1  0
 83 82  1  0
 84 83  2  0
 87 86  1  0
 89 87  1  0
 89 90  1  0
 89 88  1  0
M  ISO  4   9 100  10 100  49 101  50 101
M  END
>  <TORSDO>  (29) 
F 20

>  <SCORE>  (29) 
-10.760

>  <name>  (29) 
28

>  <ligand_id>  (29) 
28

>  <original_smiles>  (29) 
[H]C(C(=O)N1C([H])([H])C([H])([H])C([H])([H])C([H])(n2nc(-c3c([H])c([H])c(Oc4c([H])c([H])c(F)c([H])c4F)c([H])c3[H])c(C(=O)N([H])[H])c2N([H])[H])C1([H])[H])=C([H])c1c([H])c(OC([H])([H])C([H])(Oc2c([H])c([H])c3c(c2[H])C([H])([H])N(C(=O)C([H])(N([H])C(=O)C([H])(N([H])C([H])([H])[H])C([H])([H])[H])C(C([H])([H])[H])(C([H])([H])[H])C([H])([H])[H])C([H])(C(=O)N([H])C2([H])c4c([H])c([H])c([H])c([H])c4C([H])([H])C([H])([H])C2([H])[H])C3([H])[H])C([H])([H])[H])c([H])c(C([H])([H])[H])c1[H]

>  <smiles>  (29) 
[H]C(C(=O)N1C([H])([H])C([H])([H])C([H])([H])C([H])(n2nc(-c3c([H])c([H])c(Oc4c([H])c([H])c(F)c([H])c4F)c([H])c3[H])c(C(=O)N([H])[H])c2N([H])[H])C1([H])[H])=C([H])c1c([H])c(OC([H])([H])C([H])(Oc2c([H])c([H])c3c(c2[H])C([H])([H])N(C(=O)C([H])(N([H])C(=O)C([H])(N([H])C([H])([H])[H])C([H])([H])[H])C(C([H])([H])[H])(C([H])([H])[H])C([H])([H])[H])C([H])(C(=O)N([H])C2([H])c4c([H])c([H])c([H])c([H])c4C([H])([H])C([H])([H])C2([H])[H])C3([H])[H])C([H])([H])[H])c([H])c(C([H])([H])[H])c1[H]

$$$$
29:0:0
     RDKit          3D

 91 99  0  0  1  0  0  0  0  0999 V2000
  -29.1490  -21.1830   20.2720 C   0  0  0  0  0  3  0  0  0  0  0  0
  -28.9990  -22.4690   20.7950 C   0  0  0  0  0  3  0  0  0  0  0  0
  -31.2740  -18.6970   22.4320 C   0  0  0  0  0  3  0  0  0  0  0  0
  -31.0100  -17.4360   21.8730 C   0  0  0  0  0  3  0  0  0  0  0  0
  -29.4710  -18.5270   20.3410 C   0  0  0  0  0  3  0  0  0  0  0  0
  -29.7560  -19.8660   20.8610 C   0  0  0  0  0  0  0  0  0  0  0  0
  -30.6780  -19.8880   21.9540 C   0  0  0  0  0  0  0  0  0  0  0  0
  -30.0960  -17.2920   20.8150 C   0  0  0  0  0  0  0  0  0  0  0  0
  -31.1120  -21.1650   22.6620 C   0  0  0  0  0  1  0  0  0  0  0  0
  -30.5660  -14.7920   20.1790 C   0  0  0  0  0  0  0  0  0  0  0  0
  -30.3510  -12.5480   19.0840 C   0  0  0  0  0  2  0  0  0  0  0  0
  -29.3630  -12.6230   17.9000 C   0  0  0  0  0  2  0  0  0  0  0  0
  -27.9130  -12.4300   18.3860 C   0  0  0  0  0  2  0  0  0  0  0  0
  -27.5750  -13.3040   19.6220 C   0  0  0  0  0  3  0  0  0  0  0  0
  -28.6710  -13.1990   20.7040 C   0  0  0  0  0  2  0  0  0  0  0  0
  -29.9400  -13.5730   20.0700 N   0  0  0  0  0  0  0  0  0  0  0  0
  -31.7510  -14.9060   19.8470 O   0  0  0  0  0  0  0  0  0  0  0  0
  -29.7670  -15.9110   20.3800 N   0  0  0  0  0  0  0  0  0  0  0  0
  -28.7800  -15.7090   20.3410 H   0  0  0  0  0  0  0  0  0  0  0  0
  -25.2100  -13.8860   20.4290 C   0  0  0  0  0  0  0  0  0  0  0  0
  -24.1590  -13.1050   20.8280 C   0  0  0  0  0  0  0  0  0  0  0  0
  -24.6270  -11.7560   20.7760 C   0  0  0  0  0  0  0  0  0  0  0  0
  -26.2490  -13.0110   20.1540 N   0  0  0  0  0  0  0  0  0  0  0  0
  -25.9070  -11.7260   20.4280 N   0  0  0  0  0  0  0  0  0  0  0  0
  -23.9130  -10.4890   20.9800 C   0  0  0  0  0  0  0  0  0  0  0  0
  -24.3660   -9.5260   21.9070 C   0  0  0  0  0  3  0  0  0  0  0  0
  -23.6500   -8.3250   22.0980 C   0  0  0  0  0  3  0  0  0  0  0  0
  -22.4660   -8.0780   21.3630 C   0  0  0  0  0  0  0  0  0  0  0  0
  -22.0330   -9.0310   20.4240 C   0  0  0  0  0  3  0  0  0  0  0  0
  -22.7500  -10.2230   20.2310 C   0  0  0  0  0  3  0  0  0  0  0  0
  -21.7210   -6.9290   21.4640 O   0  0  0  0  0  0  0  0  0  0  0  0
  -21.6860   -6.1930   22.6210 C   0  0  0  0  0  0  0  0  0  0  0  0
  -21.2520   -6.7490   23.8450 C   0  0  0  0  0  3  0  0  0  0  0  0
  -21.1650   -5.9390   24.9940 C   0  0  0  0  0  3  0  0  0  0  0  0
  -21.5040   -4.5740   24.9230 C   0  0  0  0  0  0  0  0  0  0  0  0
  -21.9300   -4.0170   23.7040 C   0  0  0  0  0  3  0  0  0  0  0  0
  -22.0180   -4.8250   22.5560 C   0  0  0  0  0  0  0  0  0  0  0  0
  -22.4100   -4.2780   21.3790 F   0  0  0  0  0  0  0  0  0  0  0  0
  -21.4120   -3.7940   26.0250 F   0  0  0  0  0  0  0  0  0  0  0  0
  -22.7700  -13.5760   21.1430 C   0  0  0  0  0  0  0  0  0  0  0  0
  -22.0680  -12.8670   22.0200 N   0  0  0  0  0  0  0  0  0  0  0  0
  -22.3130  -14.6050   20.6460 O   0  0  0  0  0  0  0  0  0  0  0  0
  -22.4470  -12.0320   22.4420 H   0  0  0  0  0  0  0  0  0  0  0  0
  -21.1360  -13.1650   22.2740 H   0  0  0  0  0  0  0  0  0  0  0  0
  -25.3610  -15.2590   20.2510 N   0  0  0  0  0  0  0  0  0  0  0  0
  -24.5920  -15.9050   20.3920 H   0  0  0  0  0  0  0  0  0  0  0  0
  -26.1770  -15.7020   19.8490 H   0  0  0  0  0  0  0  0  0  0  0  0
  -28.5340  -23.7660   20.0910 C   0  0  0  0  0  0  0  0  0  0  0  0
  -28.3960  -23.8070   18.8650 O   0  0  0  0  0  0  0  0  0  0  0  0
  -28.1990  -25.0970   20.9220 C   0  0  0  0  0  2  0  0  0  0  0  0
  -28.3650  -26.4460   20.2830 O   0  0  0  0  0  0  0  0  0  0  0  0
  -24.5880  -31.9010   23.2680 C   0  0  0  0  0  0  0  0  0  0  0  0
  -27.2570  -27.3160   20.2690 C   0  0  0  0  0  0  0  0  0  0  0  0
  -23.4110  -30.4810   21.6290 C   0  0  0  0  0  3  0  0  0  0  0  0
  -24.8870  -28.9270   20.2220 C   0  0  0  0  0  0  0  0  0  0  0  0
  -25.9500  -30.8110   21.4670 C   0  0  0  0  0  2  0  0  0  0  0  0
  -26.0480  -29.4250   20.8290 C   0  0  0  0  0  0  0  0  0  0  0  0
  -27.2400  -28.6320   20.8370 C   0  0  0  0  0  3  0  0  0  0  0  0
  -26.0790  -26.8770   19.6350 C   0  0  0  0  0  3  0  0  0  0  0  0
  -24.9060  -27.6630   19.6110 C   0  0  0  0  0  3  0  0  0  0  0  0
  -23.6440  -29.7970   20.2540 C   0  0  0  0  0  2  0  0  0  0  0  0
  -24.6680  -31.0830   22.1780 N   0  0  0  0  0  0  0  0  0  0  0  0
  -23.4980  -32.1760   23.7900 O   0  0  0  0  0  0  0  0  0  0  0  0
  -22.7470  -29.4660   22.5890 C   0  0  0  0  0  0  0  0  0  0  0  0
  -21.4230  -29.2850   22.4560 N   0  0  0  0  0  0  0  0  0  0  0  0
  -23.4230  -28.8460   23.4130 O   0  0  0  0  0  0  0  0  0  0  0  0
  -20.9370  -29.8380   21.7640 H   0  0  0  0  0  0  0  0  0  0  0  0
  -18.0460  -28.0760   22.9450 C   0  0  0  0  0  0  0  0  0  0  0  0
  -20.6020  -28.3460   23.2230 C   0  0  0  0  0  3  0  0  0  0  0  0
  -20.7110  -26.9140   22.6500 C   0  0  0  0  0  2  0  0  0  0  0  0
  -19.6130  -26.5850   21.6320 C   0  0  0  0  0  2  0  0  0  0  0  0
  -18.2300  -26.7260   22.2710 C   0  0  0  0  0  2  0  0  0  0  0  0
  -19.1600  -28.8430   23.3770 C   0  0  0  0  0  0  0  0  0  0  0  0
  -18.9360  -30.1050   23.9680 C   0  0  0  0  0  3  0  0  0  0  0  0
  -17.6300  -30.6020   24.1300 C   0  0  0  0  0  3  0  0  0  0  0  0
  -16.5280  -29.8310   23.7150 C   0  0  0  0  0  3  0  0  0  0  0  0
  -16.7370  -28.5700   23.1280 C   0  0  0  0  0  3  0  0  0  0  0  0
  -25.8600  -32.5490   23.8980 C   0  0  0  0  0  3  0  0  0  0  0  0
  -26.3610  -31.8020   25.1960 C   0  0  1  0  0  0  0  0  0  0  0  0
  -25.2520  -31.5760   26.2510 C   0  0  0  0  0  1  0  0  0  0  0  0
  -26.9550  -30.4200   24.8360 C   0  0  0  0  0  1  0  0  0  0  0  0
  -27.5000  -32.6110   25.8590 C   0  0  0  0  0  1  0  0  0  0  0  0
  -25.5430  -33.9520   24.2020 N   0  0  0  0  0  0  0  0  0  0  0  0
  -25.8770  -34.9950   23.4300 C   0  0  0  0  0  0  0  0  0  0  0  0
  -26.5550  -34.8760   22.4050 O   0  0  0  0  0  0  0  0  0  0  0  0
  -24.9420  -34.1160   24.9970 H   0  0  0  0  0  0  0  0  0  0  0  0
  -24.1480  -36.7770   23.0330 C   0  0  0  0  0  1  0  0  0  0  0  0
  -25.3840  -36.3900   23.8600 C   0  0  0  0  0  3  0  0  0  0  0  0
  -27.5090  -37.2950   24.6950 C   0  0  0  0  0  1  0  0  0  0  0  0
  -26.4160  -37.4420   23.7370 N   0  0  0  0  0  0  0  0  0  0  0  0
  -26.0070  -38.3640   23.8650 H   0  0  0  0  0  0  0  0  0  0  0  0
  1  2  2  0
  1  6  1  0
  4  3  2  0
  5  8  2  0
  5  6  1  0
  6  7  2  0
  7  3  1  0
  7  9  1  0
  8  4  1  0
 10 18  1  0
 11 16  1  0
 12 13  1  0
 12 11  1  0
 14 13  1  0
 14 23  1  0
 14 15  1  0
 16 10  1  0
 16 15  1  0
 17 10  2  0
 18  8  1  0
 19 18  1  0
 20 21  2  0
 21 40  1  0
 22 21  1  0
 22 25  1  0
 23 24  1  0
 23 20  1  0
 24 22  2  0
 25 26  1  0
 26 27  2  0
 28 31  1  0
 28 27  1  0
 29 28  2  0
 30 29  1  0
 30 25  2  0
 31 32  1  0
 32 33  1  0
 33 34  2  0
 35 34  1  0
 35 39  1  0
 36 35  2  0
 37 32  2  0
 37 36  1  0
 38 37  1  0
 40 41  1  0
 41 44  1  0
 41 43  1  0
 42 40  2  0
 45 46  1  0
 45 20  1  0
 47 45  1  0
 48  2  1  0
 48 50  1  0
 49 48  2  0
 51 50  1  0
 52 63  2  0
 53 51  1  0
 53 58  1  0
 54 62  1  0
 54 64  1  0
 55 61  1  0
 55 57  1  0
 56 62  1  0
 57 58  2  0
 57 56  1  0
 59 53  2  0
 60 59  1  0
 60 55  2  0
 61 54  1  0
 62 52  1  0
 64 66  2  0
 65 64  1  0
 67 65  1  0
 68 77  2  0
 68 73  1  0
 69 65  1  0
 69 73  1  0
 70 69  1  0
 71 72  1  0
 71 70  1  0
 72 68  1  0
 73 74  2  0
 74 75  1  0
 76 75  2  0
 77 76  1  0
 78 52  1  0
 78 83  1  0
 78 79  1  0
 79 82  1  1
 79 80  1  0
 81 79  1  0
 83 86  1  0
 84 88  1  0
 84 83  1  0
 85 84  2  0
 88 87  1  0
 90 88  1  0
 90 91  1  0
 90 89  1  0
M  ISO  4  10 100  18 100  50 101  51 101
M  END
>  <TORSDO>  (30) 
F 19

>  <SCORE>  (30) 
-14.356

>  <name>  (30) 
29

>  <ligand_id>  (30) 
29

>  <original_smiles>  (30) 
[H]C(C(=O)C([H])([H])Oc1c([H])c([H])c2c(c1[H])C([H])([H])N(C(=O)C([H])(N([H])C(=O)C([H])(N([H])C([H])([H])[H])C([H])([H])[H])C(C([H])([H])[H])(C([H])([H])[H])C([H])([H])[H])C([H])(C(=O)N([H])C1([H])c3c([H])c([H])c([H])c([H])c3C([H])([H])C([H])([H])C1([H])[H])C2([H])[H])=C([H])c1c([H])c(N([H])C(=O)N2C([H])([H])C([H])([H])C([H])([H])C([H])(n3nc(-c4c([H])c([H])c(Oc5c([H])c([H])c(F)c([H])c5F)c([H])c4[H])c(C(=O)N([H])[H])c3N([H])[H])C2([H])[H])c([H])c([H])c1C([H])([H])[H]

>  <smiles>  (30) 
[H]C(C(=O)C([H])([H])Oc1c([H])c([H])c2c(c1[H])C([H])([H])N(C(=O)C([H])(N([H])C(=O)C([H])(N([H])C([H])([H])[H])C([H])([H])[H])C(C([H])([H])[H])(C([H])([H])[H])C([H])([H])[H])C([H])(C(=O)N([H])C1([H])c3c([H])c([H])c([H])c([H])c3C([H])([H])C([H])([H])C1([H])[H])C2([H])[H])=C([H])c1c([H])c(N([H])C(=O)N2C([H])([H])C([H])([H])C([H])([H])C([H])(n3nc(-c4c([H])c([H])c(Oc5c([H])c([H])c(F)c([H])c5F)c([H])c4[H])c(C(=O)N([H])[H])c3N([H])[H])C2([H])[H])c([H])c([H])c1C([H])([H])[H]

$$$$
30:0:0
     RDKit          3D

 91 99  0  0  1  0  0  0  0  0999 V2000
  -30.3310  -19.7720   19.0220 C   0  0  0  0  0  3  0  0  0  0  0  0
  -28.2150  -19.6730   20.0170 C   0  0  0  0  0  3  0  0  0  0  0  0
  -29.1680  -20.5340   19.3920 C   0  0  0  0  0  0  0  0  0  0  0  0
  -30.5260  -18.3420   19.1990 C   0  0  0  0  0  0  0  0  0  0  0  0
  -28.3640  -18.2290   20.1840 C   0  0  0  0  0  0  0  0  0  0  0  0
  -29.5430  -17.4750   19.7960 C   0  0  0  0  0  0  0  0  0  0  0  0
  -31.8230  -17.7540   18.6700 C   0  0  0  0  0  1  0  0  0  0  0  0
  -30.4120  -14.8430   19.5530 C   0  0  0  0  0  0  0  0  0  0  0  0
  -30.2280  -12.5150   18.5820 C   0  0  0  0  0  2  0  0  0  0  0  0
  -29.1610  -12.5210   17.4640 C   0  0  0  0  0  2  0  0  0  0  0  0
  -27.7510  -12.2980   18.0450 C   0  0  0  0  0  2  0  0  0  0  0  0
  -27.4800  -13.1780   19.2940 C   0  0  0  0  0  3  0  0  0  0  0  0
  -28.6550  -13.1370   20.2950 C   0  0  0  0  0  2  0  0  0  0  0  0
  -29.8570  -13.5670   19.5670 N   0  0  0  0  0  0  0  0  0  0  0  0
  -31.5590  -14.9630   19.1110 O   0  0  0  0  0  0  0  0  0  0  0  0
  -29.5920  -15.9410   19.9100 N   0  0  0  0  0  0  0  0  0  0  0  0
  -28.7690  -15.5850   20.3680 H   0  0  0  0  0  0  0  0  0  0  0  0
  -25.2000  -13.7230   20.3250 C   0  0  0  0  0  0  0  0  0  0  0  0
  -24.1820  -12.9330   20.7820 C   0  0  0  0  0  0  0  0  0  0  0  0
  -24.6340  -11.5850   20.6400 C   0  0  0  0  0  0  0  0  0  0  0  0
  -26.2050  -12.8580   19.9270 N   0  0  0  0  0  0  0  0  0  0  0  0
  -25.8810  -11.5630   20.1800 N   0  0  0  0  0  0  0  0  0  0  0  0
  -23.9300  -10.3150   20.8590 C   0  0  0  0  0  0  0  0  0  0  0  0
  -24.3910   -9.3670   21.7990 C   0  0  0  0  0  3  0  0  0  0  0  0
  -23.6850   -8.1630   22.0080 C   0  0  0  0  0  3  0  0  0  0  0  0
  -22.5040   -7.8970   21.2760 C   0  0  0  0  0  0  0  0  0  0  0  0
  -22.0610   -8.8330   20.3260 C   0  0  0  0  0  3  0  0  0  0  0  0
  -22.7680  -10.0290   20.1150 C   0  0  0  0  0  3  0  0  0  0  0  0
  -21.7690   -6.7410   21.3910 O   0  0  0  0  0  0  0  0  0  0  0  0
  -21.6610   -6.0730   22.5850 C   0  0  0  0  0  0  0  0  0  0  0  0
  -21.1260   -6.6870   23.7380 C   0  0  0  0  0  3  0  0  0  0  0  0
  -20.9680   -5.9420   24.9240 C   0  0  0  0  0  3  0  0  0  0  0  0
  -21.3360   -4.5850   24.9570 C   0  0  0  0  0  0  0  0  0  0  0  0
  -21.8640   -3.9690   23.8090 C   0  0  0  0  0  3  0  0  0  0  0  0
  -22.0230   -4.7110   22.6260 C   0  0  0  0  0  0  0  0  0  0  0  0
  -22.5130   -4.1080   21.5160 F   0  0  0  0  0  0  0  0  0  0  0  0
  -21.1770   -3.8680   26.0940 F   0  0  0  0  0  0  0  0  0  0  0  0
  -22.8250  -13.3960   21.2270 C   0  0  0  0  0  0  0  0  0  0  0  0
  -22.2070  -12.6800   22.1580 N   0  0  0  0  0  0  0  0  0  0  0  0
  -22.3260  -14.4310   20.7840 O   0  0  0  0  0  0  0  0  0  0  0  0
  -22.6260  -11.8440   22.5380 H   0  0  0  0  0  0  0  0  0  0  0  0
  -21.3030  -12.9730   22.4970 H   0  0  0  0  0  0  0  0  0  0  0  0
  -25.3460  -15.1010   20.1910 N   0  0  0  0  0  0  0  0  0  0  0  0
  -24.6020  -15.7450   20.4320 H   0  0  0  0  0  0  0  0  0  0  0  0
  -26.1390  -15.5610   19.7620 H   0  0  0  0  0  0  0  0  0  0  0  0
  -29.0470  -22.0930   19.0460 C   0  0  0  0  0  3  0  0  0  0  0  0
  -28.3410  -23.2500   19.4510 C   0  0  0  0  0  3  0  0  0  0  0  0
  -28.3330  -24.7280   18.7330 C   0  0  0  0  0  2  0  0  0  0  0  0
  -28.3230  -26.1140   19.4230 O   0  0  0  0  0  0  0  0  0  0  0  0
  -24.7120  -31.5300   22.8260 C   0  0  0  0  0  0  0  0  0  0  0  0
  -27.2400  -27.0640   19.4080 C   0  0  0  0  0  0  0  0  0  0  0  0
  -23.4750  -30.2340   21.1340 C   0  0  0  0  0  3  0  0  0  0  0  0
  -24.8920  -28.7770   19.5640 C   0  0  0  0  0  0  0  0  0  0  0  0
  -26.0200  -30.5360   20.9160 C   0  0  0  0  0  2  0  0  0  0  0  0
  -26.0840  -29.1930   20.1690 C   0  0  0  0  0  0  0  0  0  0  0  0
  -27.2530  -28.3510   20.0810 C   0  0  0  0  0  3  0  0  0  0  0  0
  -26.0140  -26.7470   18.7790 C   0  0  0  0  0  3  0  0  0  0  0  0
  -24.8690  -27.5670   18.8580 C   0  0  0  0  0  3  0  0  0  0  0  0
  -23.6590  -29.6560   19.7070 C   0  0  0  0  0  2  0  0  0  0  0  0
  -24.7570  -30.7840   21.6810 N   0  0  0  0  0  0  0  0  0  0  0  0
  -23.6390  -31.7700   23.4020 O   0  0  0  0  0  0  0  0  0  0  0  0
  -22.8330  -29.1580   22.0440 C   0  0  0  0  0  0  0  0  0  0  0  0
  -21.4960  -29.0210   21.9780 N   0  0  0  0  0  0  0  0  0  0  0  0
  -23.5360  -28.4540   22.7730 O   0  0  0  0  0  0  0  0  0  0  0  0
  -20.9860  -29.6370   21.3620 H   0  0  0  0  0  0  0  0  0  0  0  0
  -18.1180  -27.8870   22.6190 C   0  0  0  0  0  0  0  0  0  0  0  0
  -20.6980  -28.0380   22.7150 C   0  0  0  0  0  3  0  0  0  0  0  0
  -20.7010  -26.6690   21.9970 C   0  0  0  0  0  2  0  0  0  0  0  0
  -19.5160  -26.4850   21.0440 C   0  0  0  0  0  2  0  0  0  0  0  0
  -18.1920  -26.6100   21.8020 C   0  0  0  0  0  2  0  0  0  0  0  0
  -19.2940  -28.5670   23.0350 C   0  0  0  0  0  0  0  0  0  0  0  0
  -19.1670  -29.7690   23.7660 C   0  0  0  0  0  3  0  0  0  0  0  0
  -17.8980  -30.2880   24.0850 C   0  0  0  0  0  3  0  0  0  0  0  0
  -16.7380  -29.6020   23.6840 C   0  0  0  0  0  3  0  0  0  0  0  0
  -16.8490  -28.4040   22.9560 C   0  0  0  0  0  3  0  0  0  0  0  0
  -26.0040  -32.1330   23.4570 C   0  0  0  0  0  3  0  0  0  0  0  0
  -26.5970  -31.2470   24.6210 C   0  0  1  0  0  0  0  0  0  0  0  0
  -25.5620  -30.8800   25.7100 C   0  0  0  0  0  1  0  0  0  0  0  0
  -27.1840  -29.9280   24.0660 C   0  0  0  0  0  1  0  0  0  0  0  0
  -27.7670  -31.9940   25.3040 C   0  0  0  0  0  1  0  0  0  0  0  0
  -25.6730  -33.4760   23.9550 N   0  0  0  0  0  0  0  0  0  0  0  0
  -25.9610  -34.6210   23.3210 C   0  0  0  0  0  0  0  0  0  0  0  0
  -26.6050  -34.6560   22.2680 O   0  0  0  0  0  0  0  0  0  0  0  0
  -25.0970  -33.5210   24.7840 H   0  0  0  0  0  0  0  0  0  0  0  0
  -24.1900  -36.4070   23.2280 C   0  0  0  0  0  1  0  0  0  0  0  0
  -25.4600  -35.9340   23.9530 C   0  0  0  0  0  3  0  0  0  0  0  0
  -27.5960  -36.7660   24.8350 C   0  0  0  0  0  1  0  0  0  0  0  0
  -26.4690  -37.0160   23.9410 N   0  0  0  0  0  0  0  0  0  0  0  0
  -26.0470  -37.9030   24.2040 H   0  0  0  0  0  0  0  0  0  0  0  0
  -25.8760  -17.5770   20.0000 C   0  0  0  0  0  1  0  0  0  0  0  0
  -27.1790  -17.4840   20.8090 C   0  0  0  0  0  2  0  0  0  0  0  0
  1  4  2  0
  1  3  1  0
  2  5  1  0
  3  2  2  0
  4  6  1  0
  5 91  1  0
  6 16  1  0
  6  5  2  0
  7  4  1  0
  8 14  1  0
  8 16  1  0
  9 14  1  0
 10 11  1  0
 10  9  1  0
 12 11  1  0
 12 21  1  0
 12 13  1  0
 14 13  1  0
 15  8  2  0
 16 17  1  0
 18 19  2  0
 19 38  1  0
 20 19  1  0
 20 23  1  0
 21 22  1  0
 21 18  1  0
 22 20  2  0
 23 24  1  0
 24 25  2  0
 26 29  1  0
 26 25  1  0
 27 26  2  0
 28 27  1  0
 28 23  2  0
 29 30  1  0
 30 35  2  0
 30 31  1  0
 31 32  2  0
 32 33  1  0
 33 37  1  0
 34 33  2  0
 35 34  1  0
 36 35  1  0
 38 39  1  0
 39 42  1  0
 39 41  1  0
 40 38  2  0
 43 18  1  0
 43 44  1  0
 45 43  1  0
 46  3  1  0
 46 47  2  0
 48 49  1  0
 48 47  1  0
 50 61  2  0
 51 49  1  0
 51 56  1  0
 52 60  1  0
 52 62  1  0
 53 59  1  0
 53 55  1  0
 54 60  1  0
 55 54  1  0
 56 55  2  0
 57 58  1  0
 57 51  2  0
 58 53  2  0
 59 52  1  0
 60 50  1  0
 62 64  2  0
 63 62  1  0
 65 63  1  0
 66 75  2  0
 66 71  1  0
 67 63  1  0
 67 71  1  0
 68 67  1  0
 69 70  1  0
 69 68  1  0
 70 66  1  0
 71 72  2  0
 72 73  1  0
 74 73  2  0
 75 74  1  0
 76 50  1  0
 76 81  1  0
 76 77  1  0
 77 80  1  1
 77 78  1  0
 79 77  1  0
 81 84  1  0
 82 86  1  0
 82 81  1  0
 83 82  2  0
 86 85  1  0
 88 86  1  0
 88 89  1  0
 88 87  1  0
 90 91  1  0
M  ISO  4   8 100  16 100  48 101  49 101
M  END
>  <TORSDO>  (31) 
F 19

>  <SCORE>  (31) 
-12.128

>  <name>  (31) 
30

>  <ligand_id>  (31) 
30

>  <original_smiles>  (31) 
[H]C(=C([H])C([H])([H])Oc1c([H])c([H])c2c(c1[H])C([H])([H])N(C(=O)C([H])(N([H])C(=O)C([H])(N([H])C([H])([H])[H])C([H])([H])[H])C(C([H])([H])[H])(C([H])([H])[H])C([H])([H])[H])C([H])(C(=O)N([H])C1([H])c3c([H])c([H])c([H])c([H])c3C([H])([H])C([H])([H])C1([H])[H])C2([H])[H])c1c([H])c(C([H])([H])[H])c(N([H])C(=O)N2C([H])([H])C([H])([H])C([H])([H])C([H])(n3nc(-c4c([H])c([H])c(Oc5c([H])c([H])c(F)c([H])c5F)c([H])c4[H])c(C(=O)N([H])[H])c3N([H])[H])C2([H])[H])c(C([H])([H])C([H])([H])[H])c1[H]

>  <smiles>  (31) 
[H]C(=C([H])C([H])([H])Oc1c([H])c([H])c2c(c1[H])C([H])([H])N(C(=O)C([H])(N([H])C(=O)C([H])(N([H])C([H])([H])[H])C([H])([H])[H])C(C([H])([H])[H])(C([H])([H])[H])C([H])([H])[H])C([H])(C(=O)N([H])C1([H])c3c([H])c([H])c([H])c([H])c3C([H])([H])C([H])([H])C1([H])[H])C2([H])[H])c1c([H])c(C([H])([H])[H])c(N([H])C(=O)N2C([H])([H])C([H])([H])C([H])([H])C([H])(n3nc(-c4c([H])c([H])c(Oc5c([H])c([H])c(F)c([H])c5F)c([H])c4[H])c(C(=O)N([H])[H])c3N([H])[H])C2([H])[H])c(C([H])([H])C([H])([H])[H])c1[H]

$$$$
31:0:0
     RDKit          3D

 94102  0  0  1  0  0  0  0  0999 V2000
  -32.0000  -20.8380   18.0510 C   0  0  0  0  0  3  0  0  0  0  0  0
  -30.3850  -20.1210   19.7310 C   0  0  0  0  0  3  0  0  0  0  0  0
  -31.6150  -18.4640   18.4140 C   0  0  0  0  0  3  0  0  0  0  0  0
  -31.0710  -21.1640   19.0600 C   0  0  0  0  0  0  0  0  0  0  0  0
  -32.2630  -19.4960   17.7140 C   0  0  0  0  0  0  0  0  0  0  0  0
  -30.6890  -18.7700   19.4330 C   0  0  0  0  0  0  0  0  0  0  0  0
  -33.2390  -19.1630   16.6030 C   0  0  0  0  0  1  0  0  0  0  0  0
  -30.6780  -16.9070   21.0090 C   0  0  0  0  0  0  0  0  0  0  0  0
  -30.0560  -17.7010   20.1150 N   0  0  0  0  0  0  0  0  0  0  0  0
  -31.6980  -17.2680   21.6080 O   0  0  0  0  0  0  0  0  0  0  0  0
  -29.1540  -17.4070   19.7620 H   0  0  0  0  0  0  0  0  0  0  0  0
  -30.0340  -15.5460   21.3430 C   0  0  0  0  0  2  0  0  0  0  0  0
  -30.6670  -14.4320   20.4620 C   0  0  0  0  0  0  0  0  0  0  0  0
  -30.3220  -12.3390   19.1870 C   0  0  0  0  0  2  0  0  0  0  0  0
  -29.3690  -12.6190   18.0090 C   0  0  0  0  0  2  0  0  0  0  0  0
  -27.8990  -12.4760   18.4510 C   0  0  0  0  0  2  0  0  0  0  0  0
  -27.5910  -13.2630   19.7540 C   0  0  0  0  0  3  0  0  0  0  0  0
  -28.6550  -12.9710   20.8360 C   0  0  0  0  0  2  0  0  0  0  0  0
  -29.9760  -13.2770   20.2670 N   0  0  0  0  0  0  0  0  0  0  0  0
  -31.7570  -14.6190   19.9050 O   0  0  0  0  0  0  0  0  0  0  0  0
  -25.1940  -13.8760   20.4660 C   0  0  0  0  0  0  0  0  0  0  0  0
  -24.1270  -13.1040   20.8390 C   0  0  0  0  0  0  0  0  0  0  0  0
  -24.5870  -11.7530   20.8080 C   0  0  0  0  0  0  0  0  0  0  0  0
  -26.2390  -12.9930   20.2350 N   0  0  0  0  0  0  0  0  0  0  0  0
  -25.8750  -11.7110   20.4960 N   0  0  0  0  0  0  0  0  0  0  0  0
  -23.8610  -10.4910   21.0040 C   0  0  0  0  0  0  0  0  0  0  0  0
  -24.2890   -9.5310   21.9480 C   0  0  0  0  0  3  0  0  0  0  0  0
  -23.5650   -8.3340   22.1310 C   0  0  0  0  0  3  0  0  0  0  0  0
  -22.3990   -8.0870   21.3680 C   0  0  0  0  0  0  0  0  0  0  0  0
  -21.9880   -9.0360   20.4150 C   0  0  0  0  0  3  0  0  0  0  0  0
  -22.7130  -10.2250   20.2300 C   0  0  0  0  0  3  0  0  0  0  0  0
  -21.6470   -6.9410   21.4590 O   0  0  0  0  0  0  0  0  0  0  0  0
  -21.5870   -6.2090   22.6180 C   0  0  0  0  0  0  0  0  0  0  0  0
  -21.1260   -6.7680   23.8290 C   0  0  0  0  0  3  0  0  0  0  0  0
  -21.0150   -5.9620   24.9790 C   0  0  0  0  0  3  0  0  0  0  0  0
  -21.3540   -4.5980   24.9200 C   0  0  0  0  0  0  0  0  0  0  0  0
  -21.8080   -4.0370   23.7130 C   0  0  0  0  0  3  0  0  0  0  0  0
  -21.9220   -4.8410   22.5640 C   0  0  0  0  0  0  0  0  0  0  0  0
  -22.3380   -4.2910   21.3990 F   0  0  0  0  0  0  0  0  0  0  0  0
  -21.2390   -3.8200   26.0220 F   0  0  0  0  0  0  0  0  0  0  0  0
  -22.7300  -13.5820   21.1170 C   0  0  0  0  0  0  0  0  0  0  0  0
  -22.0040  -12.8860   21.9830 N   0  0  0  0  0  0  0  0  0  0  0  0
  -22.2910  -14.6090   20.6000 O   0  0  0  0  0  0  0  0  0  0  0  0
  -22.3710  -12.0540   22.4210 H   0  0  0  0  0  0  0  0  0  0  0  0
  -21.0680  -13.1880   22.2120 H   0  0  0  0  0  0  0  0  0  0  0  0
  -25.3610  -15.2470   20.2850 N   0  0  0  0  0  0  0  0  0  0  0  0
  -24.5970  -15.9030   20.3950 H   0  0  0  0  0  0  0  0  0  0  0  0
  -26.2090  -15.6800   19.9410 H   0  0  0  0  0  0  0  0  0  0  0  0
  -30.8420  -22.5960   19.3250 C   0  0  0  0  0  3  0  0  0  0  0  0
  -29.7120  -23.1730   19.7780 C   0  0  0  0  0  3  0  0  0  0  0  0
  -29.6520  -24.6330   19.9940 C   0  0  0  0  0  0  0  0  0  0  0  0
  -30.6510  -25.3100   20.2590 O   0  0  0  0  0  0  0  0  0  0  0  0
  -28.2840  -25.3130   19.8540 C   0  0  0  0  0  2  0  0  0  0  0  0
  -28.3640  -26.7150   20.1540 O   0  0  0  0  0  0  0  0  0  0  0  0
  -24.5690  -31.8730   23.2470 C   0  0  0  0  0  0  0  0  0  0  0  0
  -27.1810  -27.4250   20.1480 C   0  0  0  0  0  0  0  0  0  0  0  0
  -23.3510  -30.4790   21.6080 C   0  0  0  0  0  3  0  0  0  0  0  0
  -24.7900  -28.9400   20.1770 C   0  0  0  0  0  0  0  0  0  0  0  0
  -25.8780  -30.8290   21.4010 C   0  0  0  0  0  2  0  0  0  0  0  0
  -25.9530  -29.4580   20.7590 C   0  0  0  0  0  0  0  0  0  0  0  0
  -27.1500  -28.7080   20.7410 C   0  0  0  0  0  3  0  0  0  0  0  0
  -25.9930  -26.9180   19.5680 C   0  0  0  0  0  3  0  0  0  0  0  0
  -24.8040  -27.6690   19.5820 C   0  0  0  0  0  3  0  0  0  0  0  0
  -23.5520  -29.8030   20.2260 C   0  0  0  0  0  2  0  0  0  0  0  0
  -24.6180  -31.0750   22.1430 N   0  0  0  0  0  0  0  0  0  0  0  0
  -23.4900  -32.1490   23.7910 O   0  0  0  0  0  0  0  0  0  0  0  0
  -22.7000  -29.4580   22.5680 C   0  0  0  0  0  0  0  0  0  0  0  0
  -21.3750  -29.2770   22.4400 N   0  0  0  0  0  0  0  0  0  0  0  0
  -23.3830  -28.8300   23.3820 O   0  0  0  0  0  0  0  0  0  0  0  0
  -20.8870  -29.8340   21.7520 H   0  0  0  0  0  0  0  0  0  0  0  0
  -17.9960  -28.1060   22.9500 C   0  0  0  0  0  0  0  0  0  0  0  0
  -20.5560  -28.3430   23.2100 C   0  0  0  0  0  3  0  0  0  0  0  0
  -20.6470  -26.9140   22.6260 C   0  0  0  0  0  2  0  0  0  0  0  0
  -19.5360  -26.6040   21.6180 C   0  0  0  0  0  2  0  0  0  0  0  0
  -18.1590  -26.7570   22.2690 C   0  0  0  0  0  2  0  0  0  0  0  0
  -19.1220  -28.8570   23.3780 C   0  0  0  0  0  0  0  0  0  0  0  0
  -18.9170  -30.1200   23.9740 C   0  0  0  0  0  3  0  0  0  0  0  0
  -17.6160  -30.6310   24.1460 C   0  0  0  0  0  3  0  0  0  0  0  0
  -16.5040  -29.8770   23.7350 C   0  0  0  0  0  3  0  0  0  0  0  0
  -16.6950  -28.6150   23.1420 C   0  0  0  0  0  3  0  0  0  0  0  0
  -25.8600  -32.4970   23.8630 C   0  0  0  0  0  3  0  0  0  0  0  0
  -25.5600  -33.8960   24.1910 N   0  0  0  0  0  0  0  0  0  0  0  0
  -25.8950  -34.9450   23.4260 C   0  0  0  0  0  0  0  0  0  0  0  0
  -26.5590  -34.8340   22.3930 O   0  0  0  0  0  0  0  0  0  0  0  0
  -24.9710  -34.0580   24.9930 H   0  0  0  0  0  0  0  0  0  0  0  0
  -24.1790  -36.7460   23.0620 C   0  0  0  0  0  1  0  0  0  0  0  0
  -25.4150  -36.3360   23.8790 C   0  0  0  0  0  3  0  0  0  0  0  0
  -27.5490  -37.2100   24.7200 C   0  0  0  0  0  1  0  0  0  0  0  0
  -26.4540  -37.3830   23.7690 N   0  0  0  0  0  0  0  0  0  0  0  0
  -26.0530  -38.3060   23.9110 H   0  0  0  0  0  0  0  0  0  0  0  0
  -26.3790  -31.7230   25.1360 C   0  0  1  0  0  0  0  0  0  0  0  0
  -25.2880  -31.4860   26.2060 C   0  0  0  0  0  1  0  0  0  0  0  0
  -26.9560  -30.3430   24.7380 C   0  0  0  0  0  1  0  0  0  0  0  0
  -27.5350  -32.5110   25.7950 C   0  0  0  0  0  1  0  0  0  0  0  0
  1  4  1  0
  3  6  2  0
  4 49  1  0
  4  2  2  0
  5  1  2  0
  5  3  1  0
  6  2  1  0
  6  9  1  0
  7  5  1  0
  8 12  1  0
  8 10  2  0
  9  8  1  0
 11  9  1  0
 13 12  1  0
 14 19  1  0
 15 16  1  0
 15 14  1  0
 17 16  1  0
 17 24  1  0
 17 18  1  0
 19 13  1  0
 19 18  1  0
 20 13  2  0
 21 22  2  0
 22 41  1  0
 23 22  1  0
 23 26  1  0
 24 21  1  0
 24 25  1  0
 25 23  2  0
 26 27  1  0
 27 28  2  0
 29 32  1  0
 29 28  1  0
 30 29  2  0
 31 30  1  0
 31 26  2  0
 32 33  1  0
 33 34  1  0
 34 35  2  0
 36 35  1  0
 36 40  1  0
 37 36  2  0
 38 33  2  0
 38 37  1  0
 39 38  1  0
 41 42  1  0
 42 45  1  0
 42 44  1  0
 43 41  2  0
 46 47  1  0
 46 21  1  0
 48 46  1  0
 49 50  2  0
 50 51  1  0
 51 52  2  0
 53 51  1  0
 53 54  1  0
 55 66  2  0
 56 54  1  0
 56 61  1  0
 57 65  1  0
 57 67  1  0
 58 64  1  0
 58 60  1  0
 59 65  1  0
 60 59  1  0
 61 60  2  0
 62 63  1  0
 62 56  2  0
 63 58  2  0
 64 57  1  0
 65 55  1  0
 67 69  2  0
 68 67  1  0
 70 68  1  0
 71 80  2  0
 71 76  1  0
 72 68  1  0
 72 76  1  0
 73 72  1  0
 74 75  1  0
 74 73  1  0
 75 71  1  0
 76 77  2  0
 77 78  1  0
 79 78  2  0
 80 79  1  0
 81 55  1  0
 81 82  1  0
 81 91  1  0
 82 85  1  0
 83 87  1  0
 83 82  1  0
 84 83  2  0
 87 86  1  0
 89 87  1  0
 89 90  1  0
 89 88  1  0
 91 94  1  1
 91 92  1  0
 93 91  1  0
M  ISO  4  12 100  13 100  53 101  54 101
M  END
>  <TORSDO>  (32) 
F 21

>  <SCORE>  (32) 
-13.453

>  <name>  (32) 
31

>  <ligand_id>  (32) 
31

>  <original_smiles>  (32) 
[H]C(C(=O)C([H])([H])Oc1c([H])c([H])c2c(c1[H])C([H])([H])N(C(=O)C([H])(N([H])C(=O)C([H])(N([H])C([H])([H])[H])C([H])([H])[H])C(C([H])([H])[H])(C([H])([H])[H])C([H])([H])[H])C([H])(C(=O)N([H])C1([H])c3c([H])c([H])c([H])c([H])c3C([H])([H])C([H])([H])C1([H])[H])C2([H])[H])=C([H])c1c([H])c(N([H])C(=O)C([H])([H])C(=O)N2C([H])([H])C([H])([H])C([H])([H])C([H])(n3nc(-c4c([H])c([H])c(Oc5c([H])c([H])c(F)c([H])c5F)c([H])c4[H])c(C(=O)N([H])[H])c3N([H])[H])C2([H])[H])c([H])c(C([H])([H])[H])c1[H]

>  <smiles>  (32) 
[H]C(C(=O)C([H])([H])Oc1c([H])c([H])c2c(c1[H])C([H])([H])N(C(=O)C([H])(N([H])C(=O)C([H])(N([H])C([H])([H])[H])C([H])([H])[H])C(C([H])([H])[H])(C([H])([H])[H])C([H])([H])[H])C([H])(C(=O)N([H])C1([H])c3c([H])c([H])c([H])c([H])c3C([H])([H])C([H])([H])C1([H])[H])C2([H])[H])=C([H])c1c([H])c(N([H])C(=O)C([H])([H])C(=O)N2C([H])([H])C([H])([H])C([H])([H])C([H])(n3nc(-c4c([H])c([H])c(Oc5c([H])c([H])c(F)c([H])c5F)c([H])c4[H])c(C(=O)N([H])[H])c3N([H])[H])C2([H])[H])c([H])c(C([H])([H])[H])c1[H]

$$$$
32:0:0
     RDKit          3D

 94102  0  0  1  0  0  0  0  0999 V2000
  -29.9150  -20.3020   21.1990 C   0  0  0  0  0  0  0  0  0  0  0  0
  -30.5440  -19.9420   22.2400 N   0  0  0  0  0  0  0  0  0  0  0  0
  -30.5700  -18.9360   22.3440 H   0  0  0  0  0  0  0  0  0  0  0  0
  -28.7010  -19.7600   19.0690 C   0  0  0  0  0  3  0  0  0  0  0  0
  -28.0850  -18.9320   18.1110 C   0  0  0  0  0  3  0  0  0  0  0  0
  -28.8660  -17.0020   19.3140 C   0  0  0  0  0  3  0  0  0  0  0  0
  -29.3360  -19.2500   20.2390 C   0  0  0  0  0  0  0  0  0  0  0  0
  -29.3970  -17.7920   20.3610 C   0  0  0  0  0  0  0  0  0  0  0  0
  -28.1730  -17.5450   18.2330 C   0  0  0  0  0  0  0  0  0  0  0  0
  -27.5740  -16.7210   17.3400 F   0  0  0  0  0  0  0  0  0  0  0  0
  -29.8830  -16.9840   21.5370 C   0  0  0  0  0  3  0  0  0  0  0  0
  -30.4080  -15.7130   21.6540 C   0  0  0  0  0  3  0  0  0  0  0  0
  -30.8820  -14.7820   20.6090 C   0  0  0  0  0  0  0  0  0  0  0  0
  -30.5680  -12.6780   19.3260 C   0  0  0  0  0  2  0  0  0  0  0  0
  -29.6190  -12.8710   18.1270 C   0  0  0  0  0  2  0  0  0  0  0  0
  -28.1550  -12.6760   18.5480 C   0  0  0  0  0  2  0  0  0  0  0  0
  -27.7990  -13.4850   19.8250 C   0  0  0  0  0  3  0  0  0  0  0  0
  -28.8460  -13.2950   20.9450 C   0  0  0  0  0  2  0  0  0  0  0  0
  -30.1810  -13.6200   20.4010 N   0  0  0  0  0  0  0  0  0  0  0  0
  -31.9150  -15.0230   19.9780 O   0  0  0  0  0  0  0  0  0  0  0  0
  -25.3810  -14.0420   20.4870 C   0  0  0  0  0  0  0  0  0  0  0  0
  -24.3250  -13.2400   20.8310 C   0  0  0  0  0  0  0  0  0  0  0  0
  -24.8240  -11.9020   20.8200 C   0  0  0  0  0  0  0  0  0  0  0  0
  -26.4470  -13.1800   20.2810 N   0  0  0  0  0  0  0  0  0  0  0  0
  -26.1180  -11.8930   20.5400 N   0  0  0  0  0  0  0  0  0  0  0  0
  -24.1270  -10.6250   21.0080 C   0  0  0  0  0  0  0  0  0  0  0  0
  -24.5320   -9.6940   21.9890 C   0  0  0  0  0  3  0  0  0  0  0  0
  -23.8310   -8.4800   22.1550 C   0  0  0  0  0  3  0  0  0  0  0  0
  -22.7050   -8.1940   21.3430 C   0  0  0  0  0  0  0  0  0  0  0  0
  -22.3190   -9.1170   20.3560 C   0  0  0  0  0  3  0  0  0  0  0  0
  -23.0220  -10.3220   20.1860 C   0  0  0  0  0  3  0  0  0  0  0  0
  -21.9800   -7.0290   21.4210 O   0  0  0  0  0  0  0  0  0  0  0  0
  -21.8480   -6.3380   22.6000 C   0  0  0  0  0  0  0  0  0  0  0  0
  -21.2900   -6.9300   23.7540 C   0  0  0  0  0  3  0  0  0  0  0  0
  -21.1120   -6.1630   24.9210 C   0  0  0  0  0  3  0  0  0  0  0  0
  -21.4790   -4.8040   24.9340 C   0  0  0  0  0  0  0  0  0  0  0  0
  -22.0310   -4.2120   23.7850 C   0  0  0  0  0  3  0  0  0  0  0  0
  -22.2110   -4.9770   22.6180 C   0  0  0  0  0  0  0  0  0  0  0  0
  -22.7230   -4.3920   21.5070 F   0  0  0  0  0  0  0  0  0  0  0  0
  -21.3000   -4.0660   26.0550 F   0  0  0  0  0  0  0  0  0  0  0  0
  -22.9140  -13.6870   21.0770 C   0  0  0  0  0  0  0  0  0  0  0  0
  -22.1910  -12.9830   21.9450 N   0  0  0  0  0  0  0  0  0  0  0  0
  -22.4610  -14.7020   20.5470 O   0  0  0  0  0  0  0  0  0  0  0  0
  -22.5710  -12.1620   22.3930 H   0  0  0  0  0  0  0  0  0  0  0  0
  -21.2510  -13.2740   22.1720 H   0  0  0  0  0  0  0  0  0  0  0  0
  -25.5220  -15.4140   20.3240 N   0  0  0  0  0  0  0  0  0  0  0  0
  -24.7570  -16.0660   20.4610 H   0  0  0  0  0  0  0  0  0  0  0  0
  -26.4080  -15.8740   20.1320 H   0  0  0  0  0  0  0  0  0  0  0  0
  -29.9310  -21.8190   21.0190 C   0  0  0  0  0  3  0  0  0  0  0  0
  -28.9790  -22.7130   20.6110 C   0  0  0  0  0  3  0  0  0  0  0  0
  -29.2250  -24.2140   20.5580 C   0  0  0  0  0  0  0  0  0  0  0  0
  -30.3650  -24.6840   20.6510 O   0  0  0  0  0  0  0  0  0  0  0  0
  -28.0220  -25.2020   20.3890 C   0  0  0  0  0  2  0  0  0  0  0  0
  -28.3390  -26.6450   20.3470 O   0  0  0  0  0  0  0  0  0  0  0  0
  -24.6450  -32.0580   23.3490 C   0  0  0  0  0  0  0  0  0  0  0  0
  -27.2210  -27.4950   20.2950 C   0  0  0  0  0  0  0  0  0  0  0  0
  -23.4300  -30.6660   21.7130 C   0  0  0  0  0  3  0  0  0  0  0  0
  -24.8690  -29.1170   20.2850 C   0  0  0  0  0  0  0  0  0  0  0  0
  -25.9730  -30.9700   21.5320 C   0  0  0  0  0  2  0  0  0  0  0  0
  -26.0420  -29.5970   20.8770 C   0  0  0  0  0  0  0  0  0  0  0  0
  -27.2260  -28.8010   20.8650 C   0  0  0  0  0  3  0  0  0  0  0  0
  -26.0130  -27.0540   19.6950 C   0  0  0  0  0  3  0  0  0  0  0  0
  -24.8520  -27.8490   19.6910 C   0  0  0  0  0  3  0  0  0  0  0  0
  -23.6430  -30.0010   20.3280 C   0  0  0  0  0  2  0  0  0  0  0  0
  -24.6990  -31.2470   22.2540 N   0  0  0  0  0  0  0  0  0  0  0  0
  -23.5650  -32.3430   23.8860 O   0  0  0  0  0  0  0  0  0  0  0  0
  -22.7670  -29.6440   22.6670 C   0  0  0  0  0  0  0  0  0  0  0  0
  -21.4470  -29.4540   22.5210 N   0  0  0  0  0  0  0  0  0  0  0  0
  -23.4390  -29.0370   23.5080 O   0  0  0  0  0  0  0  0  0  0  0  0
  -20.9690  -29.9850   21.8040 H   0  0  0  0  0  0  0  0  0  0  0  0
  -18.0720  -28.2280   22.9610 C   0  0  0  0  0  0  0  0  0  0  0  0
  -20.6210  -28.5220   23.2870 C   0  0  0  0  0  3  0  0  0  0  0  0
  -20.7510  -27.0800   22.7440 C   0  0  0  0  0  2  0  0  0  0  0  0
  -19.6790  -26.7250   21.7110 C   0  0  0  0  0  2  0  0  0  0  0  0
  -18.2820  -26.8670   22.3170 C   0  0  0  0  0  2  0  0  0  0  0  0
  -19.1740  -29.0120   23.4040 C   0  0  0  0  0  0  0  0  0  0  0  0
  -18.9220  -30.2830   23.9630 C   0  0  0  0  0  3  0  0  0  0  0  0
  -17.6090  -30.7740   24.0870 C   0  0  0  0  0  3  0  0  0  0  0  0
  -16.5240  -29.9850   23.6640 C   0  0  0  0  0  3  0  0  0  0  0  0
  -16.7550  -28.7150   23.1060 C   0  0  0  0  0  3  0  0  0  0  0  0
  -25.9350  -32.6830   23.9640 C   0  0  0  0  0  3  0  0  0  0  0  0
  -25.6390  -34.0860   24.2770 N   0  0  0  0  0  0  0  0  0  0  0  0
  -25.9640  -35.1280   23.4990 C   0  0  0  0  0  0  0  0  0  0  0  0
  -26.6180  -35.0020   22.4590 O   0  0  0  0  0  0  0  0  0  0  0  0
  -25.0580  -34.2540   25.0860 H   0  0  0  0  0  0  0  0  0  0  0  0
  -24.2280  -36.9130   23.1530 C   0  0  0  0  0  1  0  0  0  0  0  0
  -25.4900  -36.5260   23.9400 C   0  0  0  0  0  3  0  0  0  0  0  0
  -27.6390  -37.4230   24.7040 C   0  0  0  0  0  1  0  0  0  0  0  0
  -26.5190  -37.5730   23.7810 N   0  0  0  0  0  0  0  0  0  0  0  0
  -26.1190  -38.4950   23.9200 H   0  0  0  0  0  0  0  0  0  0  0  0
  -26.4360  -31.9240   25.2540 C   0  0  1  0  0  0  0  0  0  0  0  0
  -25.3270  -31.6930   26.3080 C   0  0  0  0  0  1  0  0  0  0  0  0
  -27.0260  -30.5460   24.8820 C   0  0  0  0  0  1  0  0  0  0  0  0
  -27.5790  -32.7230   25.9200 C   0  0  0  0  0  1  0  0  0  0  0  0
  1  2  2  0
  2  3  1  0
  4  7  1  0
  5  9  1  0
  5  4  2  0
  6  8  1  0
  7  8  2  0
  7  1  1  0
  8 11  1  0
  9  6  2  0
 10  9  1  0
 11 12  2  0
 13 12  1  0
 14 19  1  0
 15 16  1  0
 15 14  1  0
 17 16  1  0
 17 24  1  0
 17 18  1  0
 19 13  1  0
 19 18  1  0
 20 13  2  0
 21 22  2  0
 22 41  1  0
 23 22  1  0
 23 26  1  0
 24 21  1  0
 24 25  1  0
 25 23  2  0
 26 27  1  0
 27 28  2  0
 29 32  1  0
 29 28  1  0
 30 29  2  0
 31 30  1  0
 31 26  2  0
 32 33  1  0
 33 38  2  0
 33 34  1  0
 34 35  2  0
 35 36  1  0
 36 40  1  0
 37 36  2  0
 38 37  1  0
 39 38  1  0
 41 42  1  0
 42 45  1  0
 42 44  1  0
 43 41  2  0
 46 47  1  0
 46 21  1  0
 48 46  1  0
 49  1  1  0
 50 49  2  0
 51 50  1  0
 51 52  2  0
 53 51  1  0
 54 53  1  0
 55 66  2  0
 56 54  1  0
 56 61  1  0
 57 65  1  0
 57 67  1  0
 58 64  1  0
 58 60  1  0
 59 65  1  0
 60 59  1  0
 61 60  2  0
 62 56  2  0
 63 62  1  0
 63 58  2  0
 64 57  1  0
 65 55  1  0
 67 69  2  0
 68 67  1  0
 70 68  1  0
 71 80  2  0
 71 76  1  0
 72 68  1  0
 72 76  1  0
 73 72  1  0
 74 75  1  0
 74 73  1  0
 75 71  1  0
 76 77  2  0
 77 78  1  0
 79 78  2  0
 80 79  1  0
 81 55  1  0
 81 82  1  0
 81 91  1  0
 82 85  1  0
 83 87  1  0
 83 82  1  0
 84 83  2  0
 87 86  1  0
 89 90  1  0
 89 87  1  0
 89 88  1  0
 91 94  1  1
 91 92  1  0
 93 91  1  0
M  ISO  4  12 100  13 100  53 101  54 101
M  END
>  <TORSDO>  (33) 
F 21

>  <SCORE>  (33) 
-12.744

>  <name>  (33) 
32

>  <ligand_id>  (33) 
32

>  <original_smiles>  (33) 
[H]N=C(C([H])=C([H])C(=O)C([H])([H])Oc1c([H])c([H])c2c(c1[H])C([H])([H])N(C(=O)C([H])(N([H])C(=O)C([H])(N([H])C([H])([H])[H])C([H])([H])[H])C(C([H])([H])[H])(C([H])([H])[H])C([H])([H])[H])C([H])(C(=O)N([H])C1([H])c3c([H])c([H])c([H])c([H])c3C([H])([H])C([H])([H])C1([H])[H])C2([H])[H])c1c([H])c([H])c(F)c([H])c1C([H])=C([H])C(=O)N1C([H])([H])C([H])([H])C([H])([H])C([H])(n2nc(-c3c([H])c([H])c(Oc4c([H])c([H])c(F)c([H])c4F)c([H])c3[H])c(C(=O)N([H])[H])c2N([H])[H])C1([H])[H]

>  <smiles>  (33) 
[H]N=C(C([H])=C([H])C(=O)C([H])([H])Oc1c([H])c([H])c2c(c1[H])C([H])([H])N(C(=O)C([H])(N([H])C(=O)C([H])(N([H])C([H])([H])[H])C([H])([H])[H])C(C([H])([H])[H])(C([H])([H])[H])C([H])([H])[H])C([H])(C(=O)N([H])C1([H])c3c([H])c([H])c([H])c([H])c3C([H])([H])C([H])([H])C1([H])[H])C2([H])[H])c1c([H])c([H])c(F)c([H])c1C([H])=C([H])C(=O)N1C([H])([H])C([H])([H])C([H])([H])C([H])(n2nc(-c3c([H])c([H])c(Oc4c([H])c([H])c(F)c([H])c4F)c([H])c3[H])c(C(=O)N([H])[H])c2N([H])[H])C1([H])[H]

$$$$
33:0:0
     RDKit          3D

 95103  0  0  1  0  0  0  0  0999 V2000
  -30.9520  -24.2650   20.2730 C   0  0  0  0  0  0  0  0  0  0  0  0
  -30.5430  -23.1440   20.9200 N   0  0  0  0  0  0  0  0  0  0  0  0
  -31.3510  -24.2690   19.1060 O   0  0  0  0  0  0  0  0  0  0  0  0
  -30.0770  -23.2950   21.8040 H   0  0  0  0  0  0  0  0  0  0  0  0
  -32.2250  -19.9840   19.7300 C   0  0  0  0  0  3  0  0  0  0  0  0
  -31.9540  -21.3480   19.9510 C   0  0  0  0  0  3  0  0  0  0  0  0
  -30.0850  -19.3920   20.7000 C   0  0  0  0  0  3  0  0  0  0  0  0
  -31.3030  -18.9850   20.1110 C   0  0  0  0  0  0  0  0  0  0  0  0
  -29.8080  -20.7640   20.9430 C   0  0  0  0  0  0  0  0  0  0  0  0
  -30.7520  -21.7660   20.5740 C   0  0  0  0  0  0  0  0  0  0  0  0
  -31.7000  -17.5750   19.8920 C   0  0  0  0  0  3  0  0  0  0  0  0
  -31.1260  -16.4130   20.3050 C   0  0  0  0  0  3  0  0  0  0  0  0
  -31.7830  -15.1510   19.9170 C   0  0  0  0  0  0  0  0  0  0  0  0
  -31.3760  -12.9310   18.9610 C   0  0  0  0  0  2  0  0  0  0  0  0
  -30.4080  -13.1050   17.7760 C   0  0  0  0  0  2  0  0  0  0  0  0
  -28.9520  -12.9750   18.2610 C   0  0  0  0  0  2  0  0  0  0  0  0
  -28.6520  -13.8660   19.4980 C   0  0  0  0  0  3  0  0  0  0  0  0
  -29.7600  -13.7470   20.5720 C   0  0  0  0  0  2  0  0  0  0  0  0
  -31.0580  -13.9970   19.9290 N   0  0  0  0  0  0  0  0  0  0  0  0
  -32.9210  -15.1670   19.4420 O   0  0  0  0  0  0  0  0  0  0  0  0
  -26.3220  -14.4730   20.4060 C   0  0  0  0  0  0  0  0  0  0  0  0
  -25.2590  -13.7050   20.8020 C   0  0  0  0  0  0  0  0  0  0  0  0
  -25.6810  -12.3480   20.6640 C   0  0  0  0  0  0  0  0  0  0  0  0
  -27.3250  -13.5870   20.0520 N   0  0  0  0  0  0  0  0  0  0  0  0
  -26.9460  -12.2980   20.2670 N   0  0  0  0  0  0  0  0  0  0  0  0
  -24.9310  -11.0940   20.8310 C   0  0  0  0  0  0  0  0  0  0  0  0
  -25.2710  -10.1640   21.8400 C   0  0  0  0  0  3  0  0  0  0  0  0
  -24.5310   -8.9710   21.9940 C   0  0  0  0  0  3  0  0  0  0  0  0
  -23.4360   -8.7000   21.1390 C   0  0  0  0  0  0  0  0  0  0  0  0
  -23.1140   -9.6190   20.1250 C   0  0  0  0  0  3  0  0  0  0  0  0
  -23.8550  -10.8040   19.9700 C   0  0  0  0  0  3  0  0  0  0  0  0
  -22.6730   -7.5590   21.1970 O   0  0  0  0  0  0  0  0  0  0  0  0
  -22.3020   -7.0010   22.3920 C   0  0  0  0  0  0  0  0  0  0  0  0
  -21.5300   -7.7100   23.3370 C   0  0  0  0  0  3  0  0  0  0  0  0
  -21.1140   -7.0740   24.5230 C   0  0  0  0  0  3  0  0  0  0  0  0
  -21.4620   -5.7310   24.7620 C   0  0  0  0  0  0  0  0  0  0  0  0
  -22.2230   -5.0200   23.8160 C   0  0  0  0  0  3  0  0  0  0  0  0
  -22.6400   -5.6540   22.6310 C   0  0  0  0  0  0  0  0  0  0  0  0
  -23.3590   -4.9610   21.7160 F   0  0  0  0  0  0  0  0  0  0  0  0
  -21.0540   -5.1150   25.8970 F   0  0  0  0  0  0  0  0  0  0  0  0
  -23.8960  -14.1990   21.1920 C   0  0  0  0  0  0  0  0  0  0  0  0
  -23.2110  -13.4930   22.0870 N   0  0  0  0  0  0  0  0  0  0  0  0
  -23.4460  -15.2470   20.7360 O   0  0  0  0  0  0  0  0  0  0  0  0
  -23.5850  -12.6440   22.4840 H   0  0  0  0  0  0  0  0  0  0  0  0
  -22.2970  -13.8130   22.3780 H   0  0  0  0  0  0  0  0  0  0  0  0
  -26.5160  -15.8480   20.2990 N   0  0  0  0  0  0  0  0  0  0  0  0
  -25.7890  -16.5210   20.5080 H   0  0  0  0  0  0  0  0  0  0  0  0
  -27.3600  -16.2710   19.9310 H   0  0  0  0  0  0  0  0  0  0  0  0
  -28.6760  -21.7970   22.9750 C   0  0  0  0  0  1  0  0  0  0  0  0
  -28.4800  -21.1040   21.6180 C   0  0  0  0  0  2  0  0  0  0  0  0
  -30.8590  -25.5910   21.0630 C   0  0  0  0  0  2  0  0  0  0  0  0
  -30.2450  -27.5900   19.6400 C   0  0  0  0  0  3  0  0  0  0  0  0
  -31.1810  -26.9200   20.3580 C   0  0  0  0  0  0  0  0  0  0  0  0
  -32.6150  -27.4400   20.5330 C   0  0  0  0  0  1  0  0  0  0  0  0
  -28.9920  -27.0650   19.4160 O   0  0  0  0  0  0  0  0  0  0  0  0
  -24.9120  -31.5660   23.2400 C   0  0  0  0  0  0  0  0  0  0  0  0
  -27.8200  -27.7830   19.5720 C   0  0  0  0  0  0  0  0  0  0  0  0
  -23.7590  -30.2630   21.4830 C   0  0  0  0  0  3  0  0  0  0  0  0
  -25.2860  -29.0370   19.8410 C   0  0  0  0  0  0  0  0  0  0  0  0
  -26.2360  -30.8670   21.2490 C   0  0  0  0  0  2  0  0  0  0  0  0
  -26.4190  -29.5930   20.4510 C   0  0  0  0  0  0  0  0  0  0  0  0
  -27.6850  -28.9740   20.3240 C   0  0  0  0  0  3  0  0  0  0  0  0
  -26.6660  -27.2350   18.9680 C   0  0  0  0  0  3  0  0  0  0  0  0
  -25.4050  -27.8480   19.0990 C   0  0  0  0  0  3  0  0  0  0  0  0
  -23.9710  -29.7650   20.0270 C   0  0  0  0  0  2  0  0  0  0  0  0
  -24.9880  -30.9090   22.0490 N   0  0  0  0  0  0  0  0  0  0  0  0
  -23.8370  -31.6770   23.8450 O   0  0  0  0  0  0  0  0  0  0  0  0
  -23.2340  -29.0860   22.3370 C   0  0  0  0  0  0  0  0  0  0  0  0
  -21.9600  -28.7140   22.1300 N   0  0  0  0  0  0  0  0  0  0  0  0
  -23.9730  -28.5110   23.1400 O   0  0  0  0  0  0  0  0  0  0  0  0
  -21.4170  -29.2460   21.4640 H   0  0  0  0  0  0  0  0  0  0  0  0
  -18.8340  -26.9050   22.2630 C   0  0  0  0  0  0  0  0  0  0  0  0
  -21.2660  -27.6070   22.7880 C   0  0  0  0  0  3  0  0  0  0  0  0
  -21.6800  -26.2470   22.1790 C   0  0  0  0  0  2  0  0  0  0  0  0
  -20.7510  -25.7810   21.0530 C   0  0  0  0  0  2  0  0  0  0  0  0
  -19.3150  -25.6440   21.5670 C   0  0  0  0  0  2  0  0  0  0  0  0
  -19.7520  -27.8340   22.8230 C   0  0  0  0  0  0  0  0  0  0  0  0
  -19.2530  -29.0100   23.4260 C   0  0  0  0  0  3  0  0  0  0  0  0
  -17.8690  -29.2590   23.4810 C   0  0  0  0  0  3  0  0  0  0  0  0
  -16.9650  -28.3290   22.9410 C   0  0  0  0  0  3  0  0  0  0  0  0
  -17.4470  -27.1530   22.3380 C   0  0  0  0  0  3  0  0  0  0  0  0
  -26.1660  -32.2300   23.8890 C   0  0  0  0  0  3  0  0  0  0  0  0
  -25.7750  -33.5780   24.3180 N   0  0  0  0  0  0  0  0  0  0  0  0
  -26.0750  -34.7020   23.6540 C   0  0  0  0  0  0  0  0  0  0  0  0
  -26.7780  -34.7160   22.6390 O   0  0  0  0  0  0  0  0  0  0  0  0
  -25.1350  -33.6350   25.0960 H   0  0  0  0  0  0  0  0  0  0  0  0
  -24.2640  -36.4320   23.3910 C   0  0  0  0  0  1  0  0  0  0  0  0
  -25.5030  -36.0230   24.2060 C   0  0  0  0  0  3  0  0  0  0  0  0
  -27.5630  -36.9430   25.1760 C   0  0  0  0  0  1  0  0  0  0  0  0
  -26.4820  -37.1320   24.2100 N   0  0  0  0  0  0  0  0  0  0  0  0
  -26.0240  -38.0160   24.4130 H   0  0  0  0  0  0  0  0  0  0  0  0
  -26.7470  -31.4040   25.1010 C   0  0  1  0  0  0  0  0  0  0  0  0
  -25.6890  -31.0260   26.1640 C   0  0  0  0  0  1  0  0  0  0  0  0
  -27.4070  -30.0960   24.6020 C   0  0  0  0  0  1  0  0  0  0  0  0
  -27.8590  -32.2200   25.8010 C   0  0  0  0  0  1  0  0  0  0  0  0
  1  2  1  0
  1 51  1  0
  2  4  1  0
  3  1  2  0
  5  6  2  0
  5  8  1  0
  6 10  1  0
  7  9  1  0
  8  7  2  0
  9 50  1  0
 10  2  1  0
 10  9  2  0
 11  8  1  0
 11 12  2  0
 13 19  1  0
 13 12  1  0
 14 19  1  0
 15 16  1  0
 15 14  1  0
 17 16  1  0
 17 24  1  0
 17 18  1  0
 19 18  1  0
 20 13  2  0
 21 22  2  0
 22 41  1  0
 23 22  1  0
 23 26  1  0
 24 25  1  0
 24 21  1  0
 25 23  2  0
 26 27  1  0
 27 28  2  0
 29 32  1  0
 29 28  1  0
 30 29  2  0
 31 30  1  0
 31 26  2  0
 32 33  1  0
 33 38  2  0
 33 34  1  0
 34 35  2  0
 35 36  1  0
 36 40  1  0
 37 36  2  0
 38 37  1  0
 39 38  1  0
 41 42  1  0
 42 45  1  0
 42 44  1  0
 43 41  2  0
 46 21  1  0
 46 47  1  0
 48 46  1  0
 50 49  1  0
 52 53  2  0
 53 54  1  0
 53 51  1  0
 55 57  1  0
 55 52  1  0
 56 67  2  0
 57 62  1  0
 58 66  1  0
 58 68  1  0
 59 65  1  0
 59 61  1  0
 60 66  1  0
 61 60  1  0
 62 61  2  0
 63 64  1  0
 63 57  2  0
 64 59  2  0
 65 58  1  0
 66 56  1  0
 68 70  2  0
 69 68  1  0
 71 69  1  0
 72 81  2  0
 72 77  1  0
 73 69  1  0
 73 77  1  0
 74 73  1  0
 75 76  1  0
 75 74  1  0
 76 72  1  0
 77 78  2  0
 78 79  1  0
 80 79  2  0
 81 80  1  0
 82 56  1  0
 82 83  1  0
 82 92  1  0
 83 86  1  0
 84 88  1  0
 84 83  1  0
 85 84  2  0
 88 87  1  0
 88 90  1  0
 90 91  1  0
 90 89  1  0
 92 95  1  1
 92 93  1  0
 94 92  1  0
M  ISO  4  12 100  13 100  52 101  55 101
M  END
>  <TORSDO>  (34) 
F 21

>  <SCORE>  (34) 
-9.206

>  <name>  (34) 
33

>  <ligand_id>  (34) 
33

>  <original_smiles>  (34) 
[H]C(Oc1c([H])c([H])c2c(c1[H])C([H])([H])N(C(=O)C([H])(N([H])C(=O)C([H])(N([H])C([H])([H])[H])C([H])([H])[H])C(C([H])([H])[H])(C([H])([H])[H])C([H])([H])[H])C([H])(C(=O)N([H])C1([H])c3c([H])c([H])c([H])c([H])c3C([H])([H])C([H])([H])C1([H])[H])C2([H])[H])=C(C([H])([H])[H])C([H])([H])C(=O)N([H])c1c([H])c([H])c(C([H])=C([H])C(=O)N2C([H])([H])C([H])([H])C([H])([H])C([H])(n3nc(-c4c([H])c([H])c(Oc5c([H])c([H])c(F)c([H])c5F)c([H])c4[H])c(C(=O)N([H])[H])c3N([H])[H])C2([H])[H])c([H])c1C([H])([H])C([H])([H])[H]

>  <smiles>  (34) 
[H]C(Oc1c([H])c([H])c2c(c1[H])C([H])([H])N(C(=O)C([H])(N([H])C(=O)C([H])(N([H])C([H])([H])[H])C([H])([H])[H])C(C([H])([H])[H])(C([H])([H])[H])C([H])([H])[H])C([H])(C(=O)N([H])C1([H])c3c([H])c([H])c([H])c([H])c3C([H])([H])C([H])([H])C1([H])[H])C2([H])[H])=C(C([H])([H])[H])C([H])([H])C(=O)N([H])c1c([H])c([H])c(C([H])=C([H])C(=O)N2C([H])([H])C([H])([H])C([H])([H])C([H])(n3nc(-c4c([H])c([H])c(Oc5c([H])c([H])c(F)c([H])c5F)c([H])c4[H])c(C(=O)N([H])[H])c3N([H])[H])C2([H])[H])c([H])c1C([H])([H])C([H])([H])[H]

$$$$
34:0:0
     RDKit          3D

 90 98  0  0  1  0  0  0  0  0999 V2000
  -29.9580  -21.5980   20.1730 C   0  0  0  0  0  3  0  0  0  0  0  0
  -29.0030  -22.5550   20.4030 C   0  0  0  0  0  3  0  0  0  0  0  0
  -28.8110  -19.3470   20.8090 C   0  0  0  0  0  3  0  0  0  0  0  0
  -31.0060  -19.2920   19.8440 C   0  0  0  0  0  3  0  0  0  0  0  0
  -28.8290  -17.9230   20.8980 C   0  0  0  0  0  3  0  0  0  0  0  0
  -31.0250  -17.8680   19.9250 C   0  0  0  0  0  3  0  0  0  0  0  0
  -29.9070  -20.0800   20.2870 C   0  0  0  0  0  0  0  0  0  0  0  0
  -29.9330  -17.1390   20.4610 C   0  0  0  0  0  0  0  0  0  0  0  0
  -30.6210  -14.6600   20.0770 C   0  0  0  0  0  0  0  0  0  0  0  0
  -30.3450  -12.4700   18.9350 C   0  0  0  0  0  2  0  0  0  0  0  0
  -29.3330  -12.6570   17.7810 C   0  0  0  0  0  2  0  0  0  0  0  0
  -27.8830  -12.4940   18.2820 C   0  0  0  0  0  2  0  0  0  0  0  0
  -27.6040  -13.2930   19.5840 C   0  0  0  0  0  3  0  0  0  0  0  0
  -28.7240  -13.0760   20.6260 C   0  0  0  0  0  2  0  0  0  0  0  0
  -30.0010  -13.4410   19.9920 N   0  0  0  0  0  0  0  0  0  0  0  0
  -31.7500  -14.8380   19.6120 O   0  0  0  0  0  0  0  0  0  0  0  0
  -29.8510  -15.6820   20.5670 N   0  0  0  0  0  0  0  0  0  0  0  0
  -28.9940  -15.3440   20.9760 H   0  0  0  0  0  0  0  0  0  0  0  0
  -25.2510  -13.8660   20.4440 C   0  0  0  0  0  0  0  0  0  0  0  0
  -24.2080  -13.0790   20.8500 C   0  0  0  0  0  0  0  0  0  0  0  0
  -24.6680  -11.7300   20.7560 C   0  0  0  0  0  0  0  0  0  0  0  0
  -26.2830  -12.9950   20.1300 N   0  0  0  0  0  0  0  0  0  0  0  0
  -25.9400  -11.7040   20.3770 N   0  0  0  0  0  0  0  0  0  0  0  0
  -23.9550  -10.4620   20.9500 C   0  0  0  0  0  0  0  0  0  0  0  0
  -24.3960   -9.5020   21.8900 C   0  0  0  0  0  3  0  0  0  0  0  0
  -23.6820   -8.2980   22.0710 C   0  0  0  0  0  3  0  0  0  0  0  0
  -22.5140   -8.0430   21.3130 C   0  0  0  0  0  0  0  0  0  0  0  0
  -22.0930   -8.9920   20.3640 C   0  0  0  0  0  3  0  0  0  0  0  0
  -22.8060  -10.1880   20.1810 C   0  0  0  0  0  3  0  0  0  0  0  0
  -21.7730   -6.8910   21.4040 O   0  0  0  0  0  0  0  0  0  0  0  0
  -21.6670   -6.1930   22.5800 C   0  0  0  0  0  0  0  0  0  0  0  0
  -21.1440   -6.7840   23.7520 C   0  0  0  0  0  3  0  0  0  0  0  0
  -20.9870   -6.0120   24.9200 C   0  0  0  0  0  3  0  0  0  0  0  0
  -21.3420   -4.6490   24.9170 C   0  0  0  0  0  0  0  0  0  0  0  0
  -21.8590   -4.0580   23.7510 C   0  0  0  0  0  3  0  0  0  0  0  0
  -22.0180   -4.8280   22.5850 C   0  0  0  0  0  0  0  0  0  0  0  0
  -22.4940   -4.2490   21.4580 F   0  0  0  0  0  0  0  0  0  0  0  0
  -21.1850   -3.9050   26.0370 F   0  0  0  0  0  0  0  0  0  0  0  0
  -22.8250  -13.5440   21.2110 C   0  0  0  0  0  0  0  0  0  0  0  0
  -22.1480  -12.8250   22.0990 N   0  0  0  0  0  0  0  0  0  0  0  0
  -22.3580  -14.5820   20.7420 O   0  0  0  0  0  0  0  0  0  0  0  0
  -22.5420  -11.9860   22.5010 H   0  0  0  0  0  0  0  0  0  0  0  0
  -21.2240  -13.1180   22.3830 H   0  0  0  0  0  0  0  0  0  0  0  0
  -25.4020  -15.2410   20.2980 N   0  0  0  0  0  0  0  0  0  0  0  0
  -24.6360  -15.8860   20.4610 H   0  0  0  0  0  0  0  0  0  0  0  0
  -26.2160  -15.6920   19.8990 H   0  0  0  0  0  0  0  0  0  0  0  0
  -29.2400  -24.0530   20.2620 C   0  0  0  0  0  0  0  0  0  0  0  0
  -30.3810  -24.5280   20.2710 O   0  0  0  0  0  0  0  0  0  0  0  0
  -28.0270  -25.0380   20.0770 C   0  0  0  0  0  2  0  0  0  0  0  0
  -28.3150  -26.4910   20.1780 O   0  0  0  0  0  0  0  0  0  0  0  0
  -24.5960  -31.8680   23.2430 C   0  0  0  0  0  0  0  0  0  0  0  0
  -27.2030  -27.3470   20.1370 C   0  0  0  0  0  0  0  0  0  0  0  0
  -23.3940  -30.4900   21.5870 C   0  0  0  0  0  3  0  0  0  0  0  0
  -24.8430  -28.9620   20.1420 C   0  0  0  0  0  0  0  0  0  0  0  0
  -25.9340  -30.8080   21.4120 C   0  0  0  0  0  2  0  0  0  0  0  0
  -26.0130  -29.4400   20.7480 C   0  0  0  0  0  0  0  0  0  0  0  0
  -27.1980  -28.6430   20.7370 C   0  0  0  0  0  3  0  0  0  0  0  0
  -26.0090  -26.9260   19.5050 C   0  0  0  0  0  3  0  0  0  0  0  0
  -24.8430  -27.7110   19.5120 C   0  0  0  0  0  3  0  0  0  0  0  0
  -23.6090  -29.8370   20.1990 C   0  0  0  0  0  2  0  0  0  0  0  0
  -24.6600  -31.0700   22.1380 N   0  0  0  0  0  0  0  0  0  0  0  0
  -23.5120  -32.1420   23.7780 O   0  0  0  0  0  0  0  0  0  0  0  0
  -22.7310  -29.4590   22.5320 C   0  0  0  0  0  0  0  0  0  0  0  0
  -21.4050  -29.2850   22.4000 N   0  0  0  0  0  0  0  0  0  0  0  0
  -23.4080  -28.8210   23.3420 O   0  0  0  0  0  0  0  0  0  0  0  0
  -20.9160  -29.8530   21.7220 H   0  0  0  0  0  0  0  0  0  0  0  0
  -18.0210  -28.1080   22.8990 C   0  0  0  0  0  0  0  0  0  0  0  0
  -20.5830  -28.3410   23.1600 C   0  0  0  0  0  3  0  0  0  0  0  0
  -20.6680  -26.9180   22.5590 C   0  0  0  0  0  2  0  0  0  0  0  0
  -19.5580  -26.6220   21.5450 C   0  0  0  0  0  2  0  0  0  0  0  0
  -18.1820  -26.7680   22.2010 C   0  0  0  0  0  2  0  0  0  0  0  0
  -19.1480  -28.8530   23.3360 C   0  0  0  0  0  0  0  0  0  0  0  0
  -18.9440  -30.1080   23.9500 C   0  0  0  0  0  3  0  0  0  0  0  0
  -17.6440  -30.6180   24.1310 C   0  0  0  0  0  3  0  0  0  0  0  0
  -16.5320  -29.8700   23.7100 C   0  0  0  0  0  3  0  0  0  0  0  0
  -16.7210  -28.6170   23.1000 C   0  0  0  0  0  3  0  0  0  0  0  0
  -25.8790  -32.4910   23.8740 C   0  0  0  0  0  3  0  0  0  0  0  0
  -26.3890  -31.7080   25.1450 C   0  0  1  0  0  0  0  0  0  0  0  0
  -25.2920  -31.4620   26.2070 C   0  0  0  0  0  1  0  0  0  0  0  0
  -26.9750  -30.3330   24.7430 C   0  0  0  0  0  1  0  0  0  0  0  0
  -27.5390  -32.4950   25.8180 C   0  0  0  0  0  1  0  0  0  0  0  0
  -25.5720  -33.8870   24.2160 N   0  0  0  0  0  0  0  0  0  0  0  0
  -25.8800  -34.9430   23.4520 C   0  0  0  0  0  0  0  0  0  0  0  0
  -26.5240  -34.8470   22.4050 O   0  0  0  0  0  0  0  0  0  0  0  0
  -24.9960  -34.0360   25.0320 H   0  0  0  0  0  0  0  0  0  0  0  0
  -24.1230  -36.7210   23.1620 C   0  0  0  0  0  1  0  0  0  0  0  0
  -25.3970  -36.3270   23.9270 C   0  0  0  0  0  3  0  0  0  0  0  0
  -27.5530  -37.2330   24.6780 C   0  0  0  0  0  1  0  0  0  0  0  0
  -26.4140  -37.3910   23.7780 N   0  0  0  0  0  0  0  0  0  0  0  0
  -26.0040  -38.3060   23.9460 H   0  0  0  0  0  0  0  0  0  0  0  0
  1  7  1  0
  1  2  2  0
  3  5  1  0
  4  6  2  0
  4  7  1  0
  6  8  1  0
  7  3  2  0
  8 17  1  0
  8  5  2  0
  9 17  1  0
 10 15  1  0
 11 12  1  0
 11 10  1  0
 13 12  1  0
 13 22  1  0
 13 14  1  0
 15  9  1  0
 15 14  1  0
 16  9  2  0
 17 18  1  0
 19 20  2  0
 20 39  1  0
 21 20  1  0
 21 24  1  0
 22 23  1  0
 22 19  1  0
 23 21  2  0
 24 25  1  0
 25 26  2  0
 27 30  1  0
 27 26  1  0
 28 27  2  0
 29 28  1  0
 29 24  2  0
 30 31  1  0
 31 36  2  0
 31 32  1  0
 32 33  2  0
 34 33  1  0
 34 38  1  0
 35 34  2  0
 36 35  1  0
 37 36  1  0
 39 40  1  0
 40 43  1  0
 40 42  1  0
 41 39  2  0
 44 19  1  0
 44 45  1  0
 46 44  1  0
 47 48  2  0
 47  2  1  0
 49 50  1  0
 49 47  1  0
 51 62  2  0
 52 50  1  0
 52 57  1  0
 53 61  1  0
 53 63  1  0
 54 60  1  0
 54 56  1  0
 55 61  1  0
 56 55  1  0
 57 56  2  0
 58 59  1  0
 58 52  2  0
 59 54  2  0
 60 53  1  0
 61 51  1  0
 63 65  2  0
 64 63  1  0
 66 64  1  0
 67 76  2  0
 67 72  1  0
 68 64  1  0
 68 72  1  0
 69 68  1  0
 70 71  1  0
 70 69  1  0
 71 67  1  0
 72 73  2  0
 73 74  1  0
 75 74  2  0
 76 75  1  0
 77 51  1  0
 77 82  1  0
 77 78  1  0
 78 81  1  1
 78 79  1  0
 80 78  1  0
 82 85  1  0
 83 87  1  0
 83 82  1  0
 84 83  2  0
 87 86  1  0
 89 87  1  0
 89 90  1  0
 89 88  1  0
M  ISO  4   9 100  17 100  49 101  50 101
M  END
>  <TORSDO>  (35) 
F 19

>  <SCORE>  (35) 
-13.852

>  <name>  (35) 
34

>  <ligand_id>  (35) 
34

>  <original_smiles>  (35) 
[H]C(C(=O)C([H])([H])Oc1c([H])c([H])c2c(c1[H])C([H])([H])N(C(=O)C([H])(N([H])C(=O)C([H])(N([H])C([H])([H])[H])C([H])([H])[H])C(C([H])([H])[H])(C([H])([H])[H])C([H])([H])[H])C([H])(C(=O)N([H])C1([H])c3c([H])c([H])c([H])c([H])c3C([H])([H])C([H])([H])C1([H])[H])C2([H])[H])=C([H])c1c([H])c([H])c(N([H])C(=O)N2C([H])([H])C([H])([H])C([H])([H])C([H])(n3nc(-c4c([H])c([H])c(Oc5c([H])c([H])c(F)c([H])c5F)c([H])c4[H])c(C(=O)N([H])[H])c3N([H])[H])C2([H])[H])c([H])c1[H]

>  <smiles>  (35) 
[H]C(C(=O)C([H])([H])Oc1c([H])c([H])c2c(c1[H])C([H])([H])N(C(=O)C([H])(N([H])C(=O)C([H])(N([H])C([H])([H])[H])C([H])([H])[H])C(C([H])([H])[H])(C([H])([H])[H])C([H])([H])[H])C([H])(C(=O)N([H])C1([H])c3c([H])c([H])c([H])c([H])c3C([H])([H])C([H])([H])C1([H])[H])C2([H])[H])=C([H])c1c([H])c([H])c(N([H])C(=O)N2C([H])([H])C([H])([H])C([H])([H])C([H])(n3nc(-c4c([H])c([H])c(Oc5c([H])c([H])c(F)c([H])c5F)c([H])c4[H])c(C(=O)N([H])[H])c3N([H])[H])C2([H])[H])c([H])c1[H]

$$$$
35:0:0
     RDKit          3D

 89 97  0  0  1  0  0  0  0  0999 V2000
  -30.0060  -20.7710   20.3240 C   0  0  0  0  0  3  0  0  0  0  0  0
  -29.7250  -22.1890   20.3720 C   0  0  0  0  0  3  0  0  0  0  0  0
  -28.3130  -16.5970   19.9710 C   0  0  0  0  0  3  0  0  0  0  0  0
  -27.5390  -17.7830   19.9730 C   0  0  0  0  0  3  0  0  0  0  0  0
  -30.2650  -17.9740   20.0170 C   0  0  0  0  0  3  0  0  0  0  0  0
  -29.7290  -16.5690   19.9450 C   0  0  0  0  0  0  0  0  0  0  0  0
  -29.4830  -19.2670   20.0760 C   0  0  0  0  0  0  0  0  0  0  0  0
  -28.0920  -19.0780   20.0050 C   0  0  0  0  0  0  0  0  0  0  0  0
  -27.2610  -20.1460   20.0440 F   0  0  0  0  0  0  0  0  0  0  0  0
  -30.5330  -15.1350   19.8450 C   0  0  0  0  0  0  0  0  0  0  0  0
  -30.4670  -12.6900   19.0770 C   0  0  0  0  0  2  0  0  0  0  0  0
  -29.4720  -12.4980   17.9020 C   0  0  0  0  0  2  0  0  0  0  0  0
  -28.0320  -12.2800   18.4110 C   0  0  0  0  0  2  0  0  0  0  0  0
  -27.6590  -13.2770   19.5360 C   0  0  0  0  0  3  0  0  0  0  0  0
  -28.7740  -13.3530   20.6060 C   0  0  0  0  0  2  0  0  0  0  0  0
  -29.9870  -13.8340   19.9210 N   0  0  0  0  0  0  0  0  0  0  0  0
  -31.7250  -15.1660   19.5070 O   0  0  0  0  0  0  0  0  0  0  0  0
  -25.3360  -13.9040   20.4210 C   0  0  0  0  0  0  0  0  0  0  0  0
  -24.2820  -13.1530   20.8570 C   0  0  0  0  0  0  0  0  0  0  0  0
  -24.7090  -11.7930   20.7740 C   0  0  0  0  0  0  0  0  0  0  0  0
  -26.3460  -13.0060   20.1100 N   0  0  0  0  0  0  0  0  0  0  0  0
  -25.9770  -11.7290   20.3840 N   0  0  0  0  0  0  0  0  0  0  0  0
  -23.9580  -10.5500   20.9840 C   0  0  0  0  0  0  0  0  0  0  0  0
  -24.4110   -9.5570   21.8800 C   0  0  0  0  0  3  0  0  0  0  0  0
  -23.6600   -8.3780   22.0790 C   0  0  0  0  0  3  0  0  0  0  0  0
  -22.4430   -8.1850   21.3810 C   0  0  0  0  0  0  0  0  0  0  0  0
  -22.0100   -9.1660   20.4720 C   0  0  0  0  0  3  0  0  0  0  0  0
  -22.7610  -10.3360   20.2720 C   0  0  0  0  0  3  0  0  0  0  0  0
  -21.6620   -7.0610   21.4930 O   0  0  0  0  0  0  0  0  0  0  0  0
  -21.6390   -6.3120   22.6410 C   0  0  0  0  0  0  0  0  0  0  0  0
  -21.2620   -6.8640   23.8840 C   0  0  0  0  0  3  0  0  0  0  0  0
  -21.1850   -6.0430   25.0270 C   0  0  0  0  0  3  0  0  0  0  0  0
  -21.4760   -4.6690   24.9260 C   0  0  0  0  0  0  0  0  0  0  0  0
  -21.8460   -4.1150   23.6870 C   0  0  0  0  0  3  0  0  0  0  0  0
  -21.9250   -4.9350   22.5480 C   0  0  0  0  0  0  0  0  0  0  0  0
  -22.2620   -4.3930   21.3530 F   0  0  0  0  0  0  0  0  0  0  0  0
  -21.3950   -3.8760   26.0200 F   0  0  0  0  0  0  0  0  0  0  0  0
  -22.9190  -13.6660   21.2210 C   0  0  0  0  0  0  0  0  0  0  0  0
  -22.2310  -12.9850   22.1310 N   0  0  0  0  0  0  0  0  0  0  0  0
  -22.4760  -14.7060   20.7360 O   0  0  0  0  0  0  0  0  0  0  0  0
  -22.6050  -12.1440   22.5480 H   0  0  0  0  0  0  0  0  0  0  0  0
  -21.3180  -13.3100   22.4160 H   0  0  0  0  0  0  0  0  0  0  0  0
  -25.4940  -15.2700   20.2280 N   0  0  0  0  0  0  0  0  0  0  0  0
  -24.7150  -15.9050   20.3490 H   0  0  0  0  0  0  0  0  0  0  0  0
  -26.2740  -15.6890   19.7380 H   0  0  0  0  0  0  0  0  0  0  0  0
  -28.6390  -23.3240   20.0310 C   0  0  0  0  0  0  0  0  0  0  0  0
  -27.8690  -23.1230   19.0870 O   0  0  0  0  0  0  0  0  0  0  0  0
  -28.4210  -24.7890   20.8290 C   0  0  0  0  0  2  0  0  0  0  0  0
  -28.4810  -26.2370   20.2260 O   0  0  0  0  0  0  0  0  0  0  0  0
  -24.6670  -31.8820   23.2260 C   0  0  0  0  0  0  0  0  0  0  0  0
  -27.3900  -27.1890   20.2620 C   0  0  0  0  0  0  0  0  0  0  0  0
  -23.5260  -30.4660   21.5600 C   0  0  0  0  0  3  0  0  0  0  0  0
  -25.0310  -28.9040   20.1760 C   0  0  0  0  0  0  0  0  0  0  0  0
  -26.0790  -30.7690   21.4500 C   0  0  0  0  0  2  0  0  0  0  0  0
  -26.1910  -29.3720   20.8060 C   0  0  0  0  0  0  0  0  0  0  0  0
  -27.3740  -28.5340   20.8240 C   0  0  0  0  0  3  0  0  0  0  0  0
  -26.1980  -26.8200   19.6070 C   0  0  0  0  0  3  0  0  0  0  0  0
  -25.0470  -27.6430   19.5600 C   0  0  0  0  0  3  0  0  0  0  0  0
  -23.7890  -29.7870   20.1900 C   0  0  0  0  0  2  0  0  0  0  0  0
  -24.7760  -31.0630   22.1340 N   0  0  0  0  0  0  0  0  0  0  0  0
  -23.5650  -32.1500   23.7290 O   0  0  0  0  0  0  0  0  0  0  0  0
  -22.8400  -29.4520   22.5100 C   0  0  0  0  0  0  0  0  0  0  0  0
  -21.5110  -29.2880   22.3790 N   0  0  0  0  0  0  0  0  0  0  0  0
  -23.5070  -28.8130   23.3280 O   0  0  0  0  0  0  0  0  0  0  0  0
  -21.0280  -29.8550   21.6960 H   0  0  0  0  0  0  0  0  0  0  0  0
  -18.1200  -28.1160   22.8880 C   0  0  0  0  0  0  0  0  0  0  0  0
  -20.6850  -28.3420   23.1350 C   0  0  0  0  0  3  0  0  0  0  0  0
  -20.7630  -26.9220   22.5250 C   0  0  0  0  0  2  0  0  0  0  0  0
  -19.6470  -26.6370   21.5140 C   0  0  0  0  0  2  0  0  0  0  0  0
  -18.2740  -26.7820   22.1760 C   0  0  0  0  0  2  0  0  0  0  0  0
  -19.2520  -28.8550   23.3240 C   0  0  0  0  0  0  0  0  0  0  0  0
  -19.0520  -30.1030   23.9510 C   0  0  0  0  0  3  0  0  0  0  0  0
  -17.7540  -30.6130   24.1450 C   0  0  0  0  0  3  0  0  0  0  0  0
  -16.6380  -29.8700   23.7250 C   0  0  0  0  0  3  0  0  0  0  0  0
  -16.8210  -28.6230   23.1020 C   0  0  0  0  0  3  0  0  0  0  0  0
  -25.9200  -32.5390   23.8820 C   0  0  0  0  0  3  0  0  0  0  0  0
  -26.4050  -31.7850   25.1810 C   0  0  1  0  0  0  0  0  0  0  0  0
  -25.2830  -31.5440   26.2180 C   0  0  0  0  0  1  0  0  0  0  0  0
  -27.0160  -30.4100   24.8230 C   0  0  0  0  0  1  0  0  0  0  0  0
  -27.5260  -32.5980   25.8700 C   0  0  0  0  0  1  0  0  0  0  0  0
  -25.5820  -33.9360   24.1980 N   0  0  0  0  0  0  0  0  0  0  0  0
  -25.9080  -34.9920   23.4410 C   0  0  0  0  0  0  0  0  0  0  0  0
  -26.5900  -34.8950   22.4180 O   0  0  0  0  0  0  0  0  0  0  0  0
  -24.9760  -34.0840   24.9920 H   0  0  0  0  0  0  0  0  0  0  0  0
  -24.1530  -36.7590   23.0720 C   0  0  0  0  0  1  0  0  0  0  0  0
  -25.3980  -36.3770   23.8890 C   0  0  0  0  0  3  0  0  0  0  0  0
  -27.5120  -37.3060   24.7240 C   0  0  0  0  0  1  0  0  0  0  0  0
  -26.4150  -37.4460   23.7720 N   0  0  0  0  0  0  0  0  0  0  0  0
  -25.9920  -38.3610   23.9060 H   0  0  0  0  0  0  0  0  0  0  0  0
  1  2  2  0
  3  4  1  0
  4  8  2  0
  5  7  2  0
  6  3  2  0
  6  5  1  0
  7  1  1  0
  8  9  1  0
  8  7  1  0
 10 16  1  0
 10  6  1  0
 11 16  1  0
 12 13  1  0
 12 11  1  0
 14 13  1  0
 14 21  1  0
 14 15  1  0
 16 15  1  0
 17 10  2  0
 18 19  2  0
 19 38  1  0
 20 19  1  0
 20 23  1  0
 21 22  1  0
 21 18  1  0
 22 20  2  0
 23 24  1  0
 24 25  2  0
 26 29  1  0
 26 25  1  0
 27 26  2  0
 28 27  1  0
 28 23  2  0
 29 30  1  0
 30 31  1  0
 31 32  2  0
 33 32  1  0
 33 37  1  0
 34 33  2  0
 35 30  2  0
 35 34  1  0
 36 35  1  0
 38 39  1  0
 39 42  1  0
 39 41  1  0
 40 38  2  0
 43 44  1  0
 43 18  1  0
 45 43  1  0
 46  2  1  0
 46 48  1  0
 47 46  2  0
 49 51  1  0
 49 48  1  0
 50 61  2  0
 51 56  1  0
 52 60  1  0
 52 62  1  0
 53 59  1  0
 53 55  1  0
 54 60  1  0
 55 56  2  0
 55 54  1  0
 57 51  2  0
 58 57  1  0
 58 53  2  0
 59 52  1  0
 60 50  1  0
 62 64  2  0
 63 62  1  0
 65 63  1  0
 66 75  2  0
 66 71  1  0
 67 63  1  0
 67 71  1  0
 68 67  1  0
 69 70  1  0
 69 68  1  0
 70 66  1  0
 71 72  2  0
 72 73  1  0
 74 73  2  0
 75 74  1  0
 76 50  1  0
 76 81  1  0
 76 77  1  0
 77 80  1  1
 77 78  1  0
 79 77  1  0
 81 84  1  0
 82 86  1  0
 82 81  1  0
 83 82  2  0
 86 85  1  0
 88 86  1  0
 88 89  1  0
 88 87  1  0
M  ISO  4   6 100  10 100  48 101  49 101
M  END
>  <TORSDO>  (36) 
F 19

>  <SCORE>  (36) 
-14.299

>  <name>  (36) 
35

>  <ligand_id>  (36) 
35

>  <original_smiles>  (36) 
[H]C(C(=O)C([H])([H])Oc1c([H])c([H])c2c(c1[H])C([H])([H])N(C(=O)C([H])(N([H])C(=O)C([H])(N([H])C([H])([H])[H])C([H])([H])[H])C(C([H])([H])[H])(C([H])([H])[H])C([H])([H])[H])C([H])(C(=O)N([H])C1([H])c3c([H])c([H])c([H])c([H])c3C([H])([H])C([H])([H])C1([H])[H])C2([H])[H])=C([H])c1c([H])c(C(=O)N2C([H])([H])C([H])([H])C([H])([H])C([H])(n3nc(-c4c([H])c([H])c(Oc5c([H])c([H])c(F)c([H])c5F)c([H])c4[H])c(C(=O)N([H])[H])c3N([H])[H])C2([H])[H])c([H])c([H])c1F

>  <smiles>  (36) 
[H]C(C(=O)C([H])([H])Oc1c([H])c([H])c2c(c1[H])C([H])([H])N(C(=O)C([H])(N([H])C(=O)C([H])(N([H])C([H])([H])[H])C([H])([H])[H])C(C([H])([H])[H])(C([H])([H])[H])C([H])([H])[H])C([H])(C(=O)N([H])C1([H])c3c([H])c([H])c([H])c([H])c3C([H])([H])C([H])([H])C1([H])[H])C2([H])[H])=C([H])c1c([H])c(C(=O)N2C([H])([H])C([H])([H])C([H])([H])C([H])(n3nc(-c4c([H])c([H])c(Oc5c([H])c([H])c(F)c([H])c5F)c([H])c4[H])c(C(=O)N([H])[H])c3N([H])[H])C2([H])[H])c([H])c([H])c1F

$$$$
36:0:0
     RDKit          3D

 93101  0  0  1  0  0  0  0  0999 V2000
  -30.0030  -21.2180   20.9450 O   0  0  0  0  0  0  0  0  0  0  0  0
  -30.7800  -17.7210   21.9090 C   0  0  0  0  0  3  0  0  0  0  0  0
  -30.7680  -19.1330   21.8940 C   0  0  0  0  0  3  0  0  0  0  0  0
  -29.4710  -19.0990   19.8480 C   0  0  0  0  0  3  0  0  0  0  0  0
  -29.4780  -17.6830   19.8440 C   0  0  0  0  0  0  0  0  0  0  0  0
  -30.1280  -16.9780   20.9000 C   0  0  0  0  0  0  0  0  0  0  0  0
  -30.0720  -19.8380   20.8900 C   0  0  0  0  0  0  0  0  0  0  0  0
  -30.7410  -14.5950   20.4850 C   0  0  0  0  0  0  0  0  0  0  0  0
  -30.4630  -12.4380   19.3160 C   0  0  0  0  0  2  0  0  0  0  0  0
  -29.5010  -12.6420   18.1260 C   0  0  0  0  0  2  0  0  0  0  0  0
  -28.0330  -12.4940   18.5730 C   0  0  0  0  0  2  0  0  0  0  0  0
  -27.7080  -13.3190   19.8460 C   0  0  0  0  0  3  0  0  0  0  0  0
  -28.7750  -13.0780   20.9380 C   0  0  0  0  0  2  0  0  0  0  0  0
  -30.0950  -13.4020   20.3650 N   0  0  0  0  0  0  0  0  0  0  0  0
  -31.8530  -14.8150   19.9960 O   0  0  0  0  0  0  0  0  0  0  0  0
  -30.0110  -15.5660   21.0680 N   0  0  0  0  0  0  0  0  0  0  0  0
  -29.1500  -15.2470   21.4880 H   0  0  0  0  0  0  0  0  0  0  0  0
  -25.3220  -13.9250   20.5980 C   0  0  0  0  0  0  0  0  0  0  0  0
  -24.2530  -13.1500   20.9620 C   0  0  0  0  0  0  0  0  0  0  0  0
  -24.7080  -11.7990   20.8970 C   0  0  0  0  0  0  0  0  0  0  0  0
  -26.3590  -13.0430   20.3340 N   0  0  0  0  0  0  0  0  0  0  0  0
  -25.9940  -11.7590   20.5720 N   0  0  0  0  0  0  0  0  0  0  0  0
  -23.9820  -10.5370   21.0740 C   0  0  0  0  0  0  0  0  0  0  0  0
  -24.4080   -9.5680   22.0080 C   0  0  0  0  0  3  0  0  0  0  0  0
  -23.6840   -8.3670   22.1720 C   0  0  0  0  0  3  0  0  0  0  0  0
  -22.5210   -8.1300   21.4010 C   0  0  0  0  0  0  0  0  0  0  0  0
  -22.1160   -9.0890   20.4560 C   0  0  0  0  0  3  0  0  0  0  0  0
  -22.8400  -10.2810   20.2900 C   0  0  0  0  0  3  0  0  0  0  0  0
  -21.7690   -6.9830   21.4730 O   0  0  0  0  0  0  0  0  0  0  0  0
  -21.6830   -6.2510   22.6300 C   0  0  0  0  0  0  0  0  0  0  0  0
  -21.1700   -6.8010   23.8240 C   0  0  0  0  0  3  0  0  0  0  0  0
  -21.0340   -5.9920   24.9700 C   0  0  0  0  0  3  0  0  0  0  0  0
  -21.4020   -4.6350   24.9220 C   0  0  0  0  0  0  0  0  0  0  0  0
  -21.9080   -4.0830   23.7320 C   0  0  0  0  0  3  0  0  0  0  0  0
  -22.0450   -4.8890   22.5880 C   0  0  0  0  0  0  0  0  0  0  0  0
  -22.5130   -4.3480   21.4380 F   0  0  0  0  0  0  0  0  0  0  0  0
  -21.2650   -3.8570   26.0220 F   0  0  0  0  0  0  0  0  0  0  0  0
  -22.8620  -13.6300   21.2620 C   0  0  0  0  0  0  0  0  0  0  0  0
  -22.1420  -12.9150   22.1210 N   0  0  0  0  0  0  0  0  0  0  0  0
  -22.4240  -14.6700   20.7740 O   0  0  0  0  0  0  0  0  0  0  0  0
  -22.5120  -12.0740   22.5370 H   0  0  0  0  0  0  0  0  0  0  0  0
  -21.2100  -13.2170   22.3660 H   0  0  0  0  0  0  0  0  0  0  0  0
  -25.4890  -15.2970   20.4550 N   0  0  0  0  0  0  0  0  0  0  0  0
  -24.7290  -15.9520   20.6030 H   0  0  0  0  0  0  0  0  0  0  0  0
  -26.3470  -15.7430   20.1540 H   0  0  0  0  0  0  0  0  0  0  0  0
  -27.2610  -17.3600   18.6260 C   0  0  0  0  0  1  0  0  0  0  0  0
  -28.7450  -16.9780   18.7060 C   0  0  0  0  0  2  0  0  0  0  0  0
  -28.6980  -21.7960   20.7700 C   0  0  0  0  0  2  0  0  0  0  0  0
  -28.6980  -23.0510   19.8550 C   0  0  0  0  0  2  0  0  0  0  0  0
  -28.7210  -24.4330   20.5380 C   0  0  0  0  0  0  0  0  0  0  0  0
  -28.7310  -24.5580   21.7670 O   0  0  0  0  0  0  0  0  0  0  0  0
  -28.7280  -25.6630   19.6040 C   0  0  0  0  0  2  0  0  0  0  0  0
  -28.5410  -26.8980   20.3230 O   0  0  0  0  0  0  0  0  0  0  0  0
  -24.5850  -31.9920   23.3280 C   0  0  0  0  0  0  0  0  0  0  0  0
  -27.3260  -27.5580   20.2990 C   0  0  0  0  0  0  0  0  0  0  0  0
  -23.4150  -30.5660   21.6780 C   0  0  0  0  0  3  0  0  0  0  0  0
  -24.9040  -29.0340   20.2850 C   0  0  0  0  0  0  0  0  0  0  0  0
  -25.9400  -30.9490   21.5150 C   0  0  0  0  0  2  0  0  0  0  0  0
  -26.0480  -29.5740   20.8840 C   0  0  0  0  0  0  0  0  0  0  0  0
  -27.2570  -28.8430   20.8890 C   0  0  0  0  0  3  0  0  0  0  0  0
  -26.1520  -27.0210   19.7180 C   0  0  0  0  0  3  0  0  0  0  0  0
  -24.9500  -27.7550   19.7040 C   0  0  0  0  0  3  0  0  0  0  0  0
  -23.6490  -29.8760   20.3080 C   0  0  0  0  0  2  0  0  0  0  0  0
  -24.6630  -31.1860   22.2310 N   0  0  0  0  0  0  0  0  0  0  0  0
  -23.4940  -32.2580   23.8520 O   0  0  0  0  0  0  0  0  0  0  0  0
  -22.7630  -29.5450   22.6380 C   0  0  0  0  0  0  0  0  0  0  0  0
  -21.4480  -29.3290   22.4790 N   0  0  0  0  0  0  0  0  0  0  0  0
  -23.4410  -28.9480   23.4790 O   0  0  0  0  0  0  0  0  0  0  0  0
  -20.9660  -29.8560   21.7630 H   0  0  0  0  0  0  0  0  0  0  0  0
  -18.0850  -28.0880   22.9240 C   0  0  0  0  0  0  0  0  0  0  0  0
  -20.6310  -28.3890   23.2440 C   0  0  0  0  0  3  0  0  0  0  0  0
  -20.7670  -26.9540   22.6840 C   0  0  0  0  0  2  0  0  0  0  0  0
  -19.6920  -26.6110   21.6480 C   0  0  0  0  0  2  0  0  0  0  0  0
  -18.2980  -26.7350   22.2690 C   0  0  0  0  0  2  0  0  0  0  0  0
  -19.1820  -28.8730   23.3690 C   0  0  0  0  0  0  0  0  0  0  0  0
  -18.9320  -30.1390   23.9400 C   0  0  0  0  0  3  0  0  0  0  0  0
  -17.6170  -30.6210   24.0750 C   0  0  0  0  0  3  0  0  0  0  0  0
  -16.5340  -29.8330   23.6490 C   0  0  0  0  0  3  0  0  0  0  0  0
  -16.7670  -28.5700   23.0770 C   0  0  0  0  0  3  0  0  0  0  0  0
  -25.8570  -32.6410   23.9600 C   0  0  0  0  0  3  0  0  0  0  0  0
  -25.5380  -34.0450   24.2510 N   0  0  0  0  0  0  0  0  0  0  0  0
  -25.8930  -35.0800   23.4780 C   0  0  0  0  0  0  0  0  0  0  0  0
  -26.5940  -34.9550   22.4700 O   0  0  0  0  0  0  0  0  0  0  0  0
  -24.9190  -34.2160   25.0300 H   0  0  0  0  0  0  0  0  0  0  0  0
  -24.1900  -36.8710   23.0150 C   0  0  0  0  0  1  0  0  0  0  0  0
  -25.3910  -36.4760   23.8900 C   0  0  0  0  0  3  0  0  0  0  0  0
  -27.4840  -37.3720   24.8100 C   0  0  0  0  0  1  0  0  0  0  0  0
  -26.4310  -37.5240   23.8080 N   0  0  0  0  0  0  0  0  0  0  0  0
  -26.0220  -38.4480   23.9170 H   0  0  0  0  0  0  0  0  0  0  0  0
  -26.3510  -31.9000   25.2620 C   0  0  1  0  0  0  0  0  0  0  0  0
  -25.2340  -31.6660   26.3060 C   0  0  0  0  0  1  0  0  0  0  0  0
  -26.9630  -30.5230   24.9090 C   0  0  0  0  0  1  0  0  0  0  0  0
  -27.4730  -32.7230   25.9410 C   0  0  0  0  0  1  0  0  0  0  0  0
  3  2  1  0
  4  7  1  0
  5  4  2  0
  5  6  1  0
  6 16  1  0
  6  2  2  0
  7  1  1  0
  7  3  2  0
  8 16  1  0
  9 14  1  0
 10 11  1  0
 10  9  1  0
 12 11  1  0
 12 21  1  0
 12 13  1  0
 14  8  1  0
 14 13  1  0
 15  8  2  0
 16 17  1  0
 18 19  2  0
 19 38  1  0
 20 19  1  0
 20 23  1  0
 21 22  1  0
 21 18  1  0
 22 20  2  0
 23 24  1  0
 24 25  2  0
 26 29  1  0
 26 25  1  0
 27 26  2  0
 28 27  1  0
 28 23  2  0
 29 30  1  0
 30 31  1  0
 31 32  2  0
 33 32  1  0
 33 37  1  0
 34 33  2  0
 35 30  2  0
 35 34  1  0
 36 35  1  0
 38 39  1  0
 39 42  1  0
 39 41  1  0
 40 38  2  0
 43 18  1  0
 43 44  1  0
 45 43  1  0
 46 47  1  0
 47  5  1  0
 48  1  1  0
 49 50  1  0
 49 48  1  0
 50 51  2  0
 52 53  1  0
 52 50  1  0
 54 65  2  0
 55 53  1  0
 55 60  1  0
 56 64  1  0
 56 66  1  0
 57 63  1  0
 57 59  1  0
 58 64  1  0
 59 60  2  0
 59 58  1  0
 61 55  2  0
 62 61  1  0
 62 57  2  0
 63 56  1  0
 64 54  1  0
 66 68  2  0
 67 66  1  0
 69 67  1  0
 70 79  2  0
 70 75  1  0
 71 67  1  0
 71 75  1  0
 72 71  1  0
 73 74  1  0
 73 72  1  0
 74 70  1  0
 75 76  2  0
 76 77  1  0
 78 77  2  0
 79 78  1  0
 80 54  1  0
 80 81  1  0
 80 90  1  0
 81 84  1  0
 82 86  1  0
 82 81  1  0
 83 82  2  0
 86 85  1  0
 88 86  1  0
 88 89  1  0
 88 87  1  0
 90 93  1  1
 90 91  1  0
 92 90  1  0
M  ISO  4   8 100  16 100  52 101  53 101
M  END
>  <TORSDO>  (37) 
F 22

>  <SCORE>  (37) 
-13.178

>  <name>  (37) 
36

>  <ligand_id>  (37) 
36

>  <original_smiles>  (37) 
[H]c1c([H])c([H])c2c(c1[H])C([H])([H])C([H])([H])C([H])([H])C2([H])N([H])C(=O)C1([H])N(C(=O)C([H])(N([H])C(=O)C([H])(N([H])C([H])([H])[H])C([H])([H])[H])C(C([H])([H])[H])(C([H])([H])[H])C([H])([H])[H])C([H])([H])c2c([H])c(OC([H])([H])C(=O)C([H])([H])C([H])([H])Oc3c([H])c([H])c(N([H])C(=O)N4C([H])([H])C([H])([H])C([H])([H])C([H])(n5nc(-c6c([H])c([H])c(Oc7c([H])c([H])c(F)c([H])c7F)c([H])c6[H])c(C(=O)N([H])[H])c5N([H])[H])C4([H])[H])c(C([H])([H])C([H])([H])[H])c3[H])c([H])c([H])c2C1([H])[H]

>  <smiles>  (37) 
[H]c1c([H])c([H])c2c(c1[H])C([H])([H])C([H])([H])C([H])([H])C2([H])N([H])C(=O)C1([H])N(C(=O)C([H])(N([H])C(=O)C([H])(N([H])C([H])([H])[H])C([H])([H])[H])C(C([H])([H])[H])(C([H])([H])[H])C([H])([H])[H])C([H])([H])c2c([H])c(OC([H])([H])C(=O)C([H])([H])C([H])([H])Oc3c([H])c([H])c(N([H])C(=O)N4C([H])([H])C([H])([H])C([H])([H])C([H])(n5nc(-c6c([H])c([H])c(Oc7c([H])c([H])c(F)c([H])c7F)c([H])c6[H])c(C(=O)N([H])[H])c5N([H])[H])C4([H])[H])c(C([H])([H])C([H])([H])[H])c3[H])c([H])c([H])c2C1([H])[H]

$$$$
37:0:0
     RDKit          3D

 95104  0  0  1  0  0  0  0  0999 V2000
  -26.9440  -23.9010   21.3870 C   0  0  0  0  0  0  0  0  0  0  0  0
  -25.6510  -24.2540   21.4530 C   0  0  0  0  0  2  0  0  0  0  0  0
  -28.7980  -21.6500   19.4610 C   0  0  0  0  0  0  0  0  0  0  0  0
  -27.6870  -23.2000   22.4970 C   0  0  0  0  0  2  0  0  0  0  0  0
  -28.9110  -22.5850   21.8140 C   0  0  0  0  0  2  0  0  0  0  0  0
  -27.8390  -23.9530   20.1630 C   0  0  0  0  0  3  0  0  0  0  0  0
  -28.6470  -22.6770   20.3750 N   0  0  0  0  0  0  0  0  0  0  0  0
  -28.5760  -21.8800   18.2670 O   0  0  0  0  0  0  0  0  0  0  0  0
  -28.7370  -19.4230   20.8870 C   0  0  0  0  0  3  0  0  0  0  0  0
  -29.0340  -18.0320   21.0450 C   0  0  0  0  0  3  0  0  0  0  0  0
  -30.0130  -19.4390   18.8730 C   0  0  0  0  0  3  0  0  0  0  0  0
  -29.2320  -20.1890   19.7990 C   0  0  0  0  0  0  0  0  0  0  0  0
  -30.2990  -18.0380   19.0040 C   0  0  0  0  0  0  0  0  0  0  0  0
  -29.8180  -17.2810   20.1200 C   0  0  0  0  0  0  0  0  0  0  0  0
  -31.0590  -17.3890   17.8610 C   0  0  0  0  0  1  0  0  0  0  0  0
  -30.7410  -14.7900   19.9410 C   0  0  0  0  0  0  0  0  0  0  0  0
  -30.5560  -12.5060   18.9580 C   0  0  0  0  0  2  0  0  0  0  0  0
  -29.5360  -12.5650   17.7980 C   0  0  0  0  0  2  0  0  0  0  0  0
  -28.0950  -12.3800   18.3160 C   0  0  0  0  0  2  0  0  0  0  0  0
  -27.7870  -13.2730   19.5490 C   0  0  0  0  0  3  0  0  0  0  0  0
  -28.9120  -13.1720   20.6020 C   0  0  0  0  0  2  0  0  0  0  0  0
  -30.1730  -13.5390   19.9430 N   0  0  0  0  0  0  0  0  0  0  0  0
  -31.8810  -14.9560   19.4990 O   0  0  0  0  0  0  0  0  0  0  0  0
  -29.9160  -15.8210   20.3440 N   0  0  0  0  0  0  0  0  0  0  0  0
  -29.1230  -15.4530   20.8480 H   0  0  0  0  0  0  0  0  0  0  0  0
  -25.4670  -13.8550   20.4870 C   0  0  0  0  0  0  0  0  0  0  0  0
  -24.4230  -13.0730   20.9020 C   0  0  0  0  0  0  0  0  0  0  0  0
  -24.8630  -11.7210   20.7660 C   0  0  0  0  0  0  0  0  0  0  0  0
  -26.4760  -12.9760   20.1240 N   0  0  0  0  0  0  0  0  0  0  0  0
  -26.1250  -11.6860   20.3550 N   0  0  0  0  0  0  0  0  0  0  0  0
  -24.1380  -10.4580   20.9530 C   0  0  0  0  0  0  0  0  0  0  0  0
  -24.5600   -9.4910   21.8930 C   0  0  0  0  0  3  0  0  0  0  0  0
  -23.8320   -8.2930   22.0650 C   0  0  0  0  0  3  0  0  0  0  0  0
  -22.6690   -8.0520   21.2950 C   0  0  0  0  0  0  0  0  0  0  0  0
  -22.2670   -9.0070   20.3440 C   0  0  0  0  0  3  0  0  0  0  0  0
  -22.9960  -10.1950   20.1700 C   0  0  0  0  0  3  0  0  0  0  0  0
  -21.9160   -6.9060   21.3730 O   0  0  0  0  0  0  0  0  0  0  0  0
  -21.7710   -6.2200   22.5530 C   0  0  0  0  0  0  0  0  0  0  0  0
  -21.2160   -6.8240   23.7030 C   0  0  0  0  0  3  0  0  0  0  0  0
  -21.0180   -6.0630   24.8720 C   0  0  0  0  0  3  0  0  0  0  0  0
  -21.3690   -4.6990   24.8930 C   0  0  0  0  0  0  0  0  0  0  0  0
  -21.9170   -4.0950   23.7480 C   0  0  0  0  0  3  0  0  0  0  0  0
  -22.1150   -4.8530   22.5800 C   0  0  0  0  0  0  0  0  0  0  0  0
  -22.6230   -4.2610   21.4730 F   0  0  0  0  0  0  0  0  0  0  0  0
  -21.1740   -3.9650   26.0140 F   0  0  0  0  0  0  0  0  0  0  0  0
  -23.0570  -13.5480   21.3070 C   0  0  0  0  0  0  0  0  0  0  0  0
  -22.3920  -12.8220   22.2000 N   0  0  0  0  0  0  0  0  0  0  0  0
  -22.5880  -14.5980   20.8660 O   0  0  0  0  0  0  0  0  0  0  0  0
  -22.7850  -11.9740   22.5780 H   0  0  0  0  0  0  0  0  0  0  0  0
  -21.4800  -13.1230   22.5100 H   0  0  0  0  0  0  0  0  0  0  0  0
  -25.6360  -15.2310   20.3650 N   0  0  0  0  0  0  0  0  0  0  0  0
  -24.8890  -15.8870   20.5720 H   0  0  0  0  0  0  0  0  0  0  0  0
  -26.4510  -15.6750   19.9640 H   0  0  0  0  0  0  0  0  0  0  0  0
  -28.6690  -25.3230   20.1820 C   0  0  0  0  0  2  0  0  0  0  0  0
  -28.3190  -26.6070   19.5300 O   0  0  0  0  0  0  0  0  0  0  0  0
  -24.5350  -31.6740   23.0790 C   0  0  0  0  0  0  0  0  0  0  0  0
  -27.1450  -27.3320   19.7400 C   0  0  0  0  0  0  0  0  0  0  0  0
  -23.3070  -30.3290   21.4090 C   0  0  0  0  0  3  0  0  0  0  0  0
  -24.7430  -28.8730   19.8740 C   0  0  0  0  0  0  0  0  0  0  0  0
  -25.8280  -30.7220   21.1560 C   0  0  0  0  0  2  0  0  0  0  0  0
  -25.9170  -29.3690   20.4570 C   0  0  0  0  0  0  0  0  0  0  0  0
  -27.1220  -28.6120   20.3740 C   0  0  0  0  0  3  0  0  0  0  0  0
  -25.9520  -26.8800   19.1440 C   0  0  0  0  0  3  0  0  0  0  0  0
  -24.7620  -27.6340   19.2110 C   0  0  0  0  0  3  0  0  0  0  0  0
  -23.4920  -29.7210   19.9930 C   0  0  0  0  0  2  0  0  0  0  0  0
  -24.5770  -30.9250   21.9380 N   0  0  0  0  0  0  0  0  0  0  0  0
  -23.4660  -31.8990   23.6630 O   0  0  0  0  0  0  0  0  0  0  0  0
  -22.7010  -29.2510   22.3410 C   0  0  0  0  0  0  0  0  0  0  0  0
  -21.3830  -29.0220   22.2210 N   0  0  0  0  0  0  0  0  0  0  0  0
  -23.4180  -28.6280   23.1280 O   0  0  0  0  0  0  0  0  0  0  0  0
  -20.8650  -29.5780   21.5540 H   0  0  0  0  0  0  0  0  0  0  0  0
  -18.0740  -27.6410   22.6910 C   0  0  0  0  0  0  0  0  0  0  0  0
  -20.6160  -28.0240   22.9690 C   0  0  0  0  0  3  0  0  0  0  0  0
  -20.7920  -26.6160   22.3530 C   0  0  0  0  0  2  0  0  0  0  0  0
  -19.7040  -26.2640   21.3310 C   0  0  0  0  0  2  0  0  0  0  0  0
  -18.3180  -26.3220   21.9780 C   0  0  0  0  0  2  0  0  0  0  0  0
  -19.1520  -28.4480   23.1420 C   0  0  0  0  0  0  0  0  0  0  0  0
  -18.8690  -29.6790   23.7700 C   0  0  0  0  0  3  0  0  0  0  0  0
  -17.5400  -30.1070   23.9510 C   0  0  0  0  0  3  0  0  0  0  0  0
  -16.4770  -29.2990   23.5140 C   0  0  0  0  0  3  0  0  0  0  0  0
  -16.7450  -28.0680   22.8890 C   0  0  0  0  0  3  0  0  0  0  0  0
  -25.8240  -32.3060   23.6890 C   0  0  0  0  0  3  0  0  0  0  0  0
  -25.5080  -33.6920   24.0610 N   0  0  0  0  0  0  0  0  0  0  0  0
  -25.8240  -34.7670   23.3280 C   0  0  0  0  0  0  0  0  0  0  0  0
  -26.4800  -34.6960   22.2850 O   0  0  0  0  0  0  0  0  0  0  0  0
  -24.9250  -33.8190   24.8750 H   0  0  0  0  0  0  0  0  0  0  0  0
  -24.0870  -36.5640   23.0290 C   0  0  0  0  0  1  0  0  0  0  0  0
  -25.3310  -36.1400   23.8260 C   0  0  0  0  0  3  0  0  0  0  0  0
  -27.4600  -37.0100   24.6860 C   0  0  0  0  0  1  0  0  0  0  0  0
  -26.3600  -37.1990   23.7440 N   0  0  0  0  0  0  0  0  0  0  0  0
  -25.9500  -38.1130   23.9180 H   0  0  0  0  0  0  0  0  0  0  0  0
  -26.3760  -31.5110   24.9370 C   0  0  1  0  0  0  0  0  0  0  0  0
  -25.3090  -31.2360   26.0230 C   0  0  0  0  0  1  0  0  0  0  0  0
  -26.9650  -30.1490   24.5000 C   0  0  0  0  0  1  0  0  0  0  0  0
  -27.5340  -32.3010   25.5910 C   0  0  0  0  0  1  0  0  0  0  0  0
  1  2  2  0
  1  4  1  0
  3 12  1  0
  3  7  1  0
  5  4  1  0
  6 54  1  0
  6  7  1  0
  6  1  1  0
  7  5  1  0
  8  3  2  0
  9 10  1  0
 11 13  2  0
 11 12  1  0
 12  9  2  0
 13 14  1  0
 14 24  1  0
 14 10  2  0
 15 13  1  0
 16 22  1  0
 16 24  1  0
 17 22  1  0
 18 19  1  0
 18 17  1  0
 20 19  1  0
 20 29  1  0
 20 21  1  0
 22 21  1  0
 23 16  2  0
 24 25  1  0
 26 27  2  0
 27 46  1  0
 28 27  1  0
 28 31  1  0
 29 30  1  0
 29 26  1  0
 30 28  2  0
 31 32  1  0
 32 33  2  0
 34 37  1  0
 34 33  1  0
 35 34  2  0
 36 35  1  0
 36 31  2  0
 37 38  1  0
 38 43  2  0
 38 39  1  0
 39 40  2  0
 40 41  1  0
 41 45  1  0
 42 41  2  0
 43 42  1  0
 44 43  1  0
 46 47  1  0
 47 50  1  0
 47 49  1  0
 48 46  2  0
 51 26  1  0
 51 52  1  0
 53 51  1  0
 55 57  1  0
 55 54  1  0
 56 67  2  0
 57 62  1  0
 58 66  1  0
 58 68  1  0
 59 65  1  0
 59 61  1  0
 60 66  1  0
 61 60  1  0
 62 61  2  0
 63 64  1  0
 63 57  2  0
 64 59  2  0
 65 58  1  0
 66 56  1  0
 68 70  2  0
 69 68  1  0
 71 69  1  0
 72 81  2  0
 72 77  1  0
 73 69  1  0
 73 77  1  0
 74 73  1  0
 75 76  1  0
 75 74  1  0
 76 72  1  0
 77 78  2  0
 78 79  1  0
 80 79  2  0
 81 80  1  0
 82 56  1  0
 82 83  1  0
 82 92  1  0
 83 86  1  0
 84 88  1  0
 84 83  1  0
 85 84  2  0
 88 87  1  0
 90 88  1  0
 90 91  1  0
 90 89  1  0
 92 95  1  1
 92 93  1  0
 94 92  1  0
M  ISO  4  16 100  24 100  54 101  55 101
M  END
>  <TORSDO>  (38) 
F 18

>  <SCORE>  (38) 
-13.273

>  <name>  (38) 
37

>  <ligand_id>  (38) 
37

>  <original_smiles>  (38) 
[H]C([H])=C1C([H])([H])C([H])([H])N(C(=O)c2c([H])c([H])c(N([H])C(=O)N3C([H])([H])C([H])([H])C([H])([H])C([H])(n4nc(-c5c([H])c([H])c(Oc6c([H])c([H])c(F)c([H])c6F)c([H])c5[H])c(C(=O)N([H])[H])c4N([H])[H])C3([H])[H])c(C([H])([H])[H])c2[H])C1([H])C([H])([H])Oc1c([H])c([H])c2c(c1[H])C([H])([H])N(C(=O)C([H])(N([H])C(=O)C([H])(N([H])C([H])([H])[H])C([H])([H])[H])C(C([H])([H])[H])(C([H])([H])[H])C([H])([H])[H])C([H])(C(=O)N([H])C1([H])c3c([H])c([H])c([H])c([H])c3C([H])([H])C([H])([H])C1([H])[H])C2([H])[H]

>  <smiles>  (38) 
[H]C([H])=C1C([H])([H])C([H])([H])N(C(=O)c2c([H])c([H])c(N([H])C(=O)N3C([H])([H])C([H])([H])C([H])([H])C([H])(n4nc(-c5c([H])c([H])c(Oc6c([H])c([H])c(F)c([H])c6F)c([H])c5[H])c(C(=O)N([H])[H])c4N([H])[H])C3([H])[H])c(C([H])([H])[H])c2[H])C1([H])C([H])([H])Oc1c([H])c([H])c2c(c1[H])C([H])([H])N(C(=O)C([H])(N([H])C(=O)C([H])(N([H])C([H])([H])[H])C([H])([H])[H])C(C([H])([H])[H])(C([H])([H])[H])C([H])([H])[H])C([H])(C(=O)N([H])C1([H])c3c([H])c([H])c([H])c([H])c3C([H])([H])C([H])([H])C1([H])[H])C2([H])[H]

$$$$
38:0:0
     RDKit          3D

 90 98  0  0  1  0  0  0  0  0999 V2000
  -28.9940  -21.1840   20.4010 C   0  0  0  0  0  3  0  0  0  0  0  0
  -29.0600  -22.4600   19.8440 C   0  0  0  0  0  3  0  0  0  0  0  0
  -31.1720  -18.7570   18.3400 C   0  0  0  0  0  3  0  0  0  0  0  0
  -30.5260  -19.9070   18.8310 C   0  0  0  0  0  3  0  0  0  0  0  0
  -30.9500  -17.4870   18.9070 C   0  0  0  0  0  3  0  0  0  0  0  0
  -29.4120  -18.5160   20.4820 C   0  0  0  0  0  3  0  0  0  0  0  0
  -29.6280  -19.8500   19.9220 C   0  0  0  0  0  0  0  0  0  0  0  0
  -30.0720  -17.3020   20.0010 C   0  0  0  0  0  0  0  0  0  0  0  0
  -30.5900  -14.7590   20.3330 C   0  0  0  0  0  0  0  0  0  0  0  0
  -30.3690  -12.4760   19.3630 C   0  0  0  0  0  2  0  0  0  0  0  0
  -29.4360  -12.5510   18.1360 C   0  0  0  0  0  2  0  0  0  0  0  0
  -27.9670  -12.3830   18.5660 C   0  0  0  0  0  2  0  0  0  0  0  0
  -27.5950  -13.2760   19.7800 C   0  0  0  0  0  3  0  0  0  0  0  0
  -28.6530  -13.2030   20.9020 C   0  0  0  0  0  2  0  0  0  0  0  0
  -29.9510  -13.5400   20.3060 N   0  0  0  0  0  0  0  0  0  0  0  0
  -31.7860  -14.8140   20.0310 O   0  0  0  0  0  0  0  0  0  0  0  0
  -29.8430  -15.9200   20.5170 N   0  0  0  0  0  0  0  0  0  0  0  0
  -28.9400  -15.7640   20.9410 H   0  0  0  0  0  0  0  0  0  0  0  0
  -25.2060  -13.8650   20.5030 C   0  0  0  0  0  0  0  0  0  0  0  0
  -24.1440  -13.0900   20.8760 C   0  0  0  0  0  0  0  0  0  0  0  0
  -24.6110  -11.7390   20.8540 C   0  0  0  0  0  0  0  0  0  0  0  0
  -26.2530  -12.9870   20.2720 N   0  0  0  0  0  0  0  0  0  0  0  0
  -25.9020  -11.7040   20.5470 N   0  0  0  0  0  0  0  0  0  0  0  0
  -23.8880  -10.4770   21.0480 C   0  0  0  0  0  0  0  0  0  0  0  0
  -24.3270   -9.5070   21.9770 C   0  0  0  0  0  3  0  0  0  0  0  0
  -23.6010   -8.3100   22.1590 C   0  0  0  0  0  3  0  0  0  0  0  0
  -22.4230   -8.0720   21.4110 C   0  0  0  0  0  0  0  0  0  0  0  0
  -22.0040   -9.0300   20.4710 C   0  0  0  0  0  3  0  0  0  0  0  0
  -22.7290  -10.2190   20.2880 C   0  0  0  0  0  3  0  0  0  0  0  0
  -21.6680   -6.9280   21.5040 O   0  0  0  0  0  0  0  0  0  0  0  0
  -21.6400   -6.1750   22.6510 C   0  0  0  0  0  0  0  0  0  0  0  0
  -21.2410   -6.7210   23.8900 C   0  0  0  0  0  3  0  0  0  0  0  0
  -21.1590   -5.8950   25.0290 C   0  0  0  0  0  3  0  0  0  0  0  0
  -21.4650   -4.5250   24.9300 C   0  0  0  0  0  0  0  0  0  0  0  0
  -21.8560   -3.9780   23.6950 C   0  0  0  0  0  3  0  0  0  0  0  0
  -21.9400   -4.8010   22.5580 C   0  0  0  0  0  0  0  0  0  0  0  0
  -22.2970   -4.2640   21.3660 F   0  0  0  0  0  0  0  0  0  0  0  0
  -21.3790   -3.7290   26.0220 F   0  0  0  0  0  0  0  0  0  0  0  0
  -22.7450  -13.5640   21.1410 C   0  0  0  0  0  0  0  0  0  0  0  0
  -22.0170  -12.8670   22.0060 N   0  0  0  0  0  0  0  0  0  0  0  0
  -22.3060  -14.5880   20.6180 O   0  0  0  0  0  0  0  0  0  0  0  0
  -22.3820  -12.0350   22.4450 H   0  0  0  0  0  0  0  0  0  0  0  0
  -21.0790  -13.1690   22.2330 H   0  0  0  0  0  0  0  0  0  0  0  0
  -25.3680  -15.2340   20.3170 N   0  0  0  0  0  0  0  0  0  0  0  0
  -24.5990  -15.8880   20.4170 H   0  0  0  0  0  0  0  0  0  0  0  0
  -26.2090  -15.6680   19.9600 H   0  0  0  0  0  0  0  0  0  0  0  0
  -28.4670  -23.7760   20.3960 C   0  0  0  0  0  0  0  0  0  0  0  0
  -27.9640  -23.8150   21.5230 O   0  0  0  0  0  0  0  0  0  0  0  0
  -28.4750  -25.1330   19.5390 C   0  0  0  0  0  2  0  0  0  0  0  0
  -28.3480  -26.4520   20.2480 O   0  0  0  0  0  0  0  0  0  0  0  0
  -24.6080  -31.8900   23.2370 C   0  0  0  0  0  0  0  0  0  0  0  0
  -27.2170  -27.2930   20.1730 C   0  0  0  0  0  0  0  0  0  0  0  0
  -23.4010  -30.4850   21.6030 C   0  0  0  0  0  3  0  0  0  0  0  0
  -24.8500  -28.9220   20.1780 C   0  0  0  0  0  0  0  0  0  0  0  0
  -25.9420  -30.7900   21.4200 C   0  0  0  0  0  2  0  0  0  0  0  0
  -26.0200  -29.4090   20.7720 C   0  0  0  0  0  0  0  0  0  0  0  0
  -27.2030  -28.6040   20.7600 C   0  0  0  0  0  3  0  0  0  0  0  0
  -26.0170  -26.8650   19.5630 C   0  0  0  0  0  3  0  0  0  0  0  0
  -24.8520  -27.6570   19.5690 C   0  0  0  0  0  3  0  0  0  0  0  0
  -23.6140  -29.7990   20.2280 C   0  0  0  0  0  2  0  0  0  0  0  0
  -24.6700  -31.0740   22.1430 N   0  0  0  0  0  0  0  0  0  0  0  0
  -23.5240  -32.1710   23.7700 O   0  0  0  0  0  0  0  0  0  0  0  0
  -22.7360  -29.4760   22.5680 C   0  0  0  0  0  0  0  0  0  0  0  0
  -21.4100  -29.3000   22.4420 N   0  0  0  0  0  0  0  0  0  0  0  0
  -23.4140  -28.8520   23.3890 O   0  0  0  0  0  0  0  0  0  0  0  0
  -20.9240  -29.8560   21.7520 H   0  0  0  0  0  0  0  0  0  0  0  0
  -18.0310  -28.1070   22.9470 C   0  0  0  0  0  0  0  0  0  0  0  0
  -20.5880  -28.3660   23.2130 C   0  0  0  0  0  3  0  0  0  0  0  0
  -20.6900  -26.9330   22.6410 C   0  0  0  0  0  2  0  0  0  0  0  0
  -19.5870  -26.6080   21.6300 C   0  0  0  0  0  2  0  0  0  0  0  0
  -18.2050  -26.7590   22.2700 C   0  0  0  0  0  2  0  0  0  0  0  0
  -19.1500  -28.8710   23.3720 C   0  0  0  0  0  0  0  0  0  0  0  0
  -18.9340  -30.1360   23.9600 C   0  0  0  0  0  3  0  0  0  0  0  0
  -17.6300  -30.6390   24.1270 C   0  0  0  0  0  3  0  0  0  0  0  0
  -16.5240  -29.8720   23.7190 C   0  0  0  0  0  3  0  0  0  0  0  0
  -16.7250  -28.6080   23.1360 C   0  0  0  0  0  3  0  0  0  0  0  0
  -25.8930  -32.5230   23.8560 C   0  0  0  0  0  3  0  0  0  0  0  0
  -26.4110  -31.7580   25.1360 C   0  0  1  0  0  0  0  0  0  0  0  0
  -25.3190  -31.5230   26.2060 C   0  0  0  0  0  1  0  0  0  0  0  0
  -27.0060  -30.3840   24.7540 C   0  0  0  0  0  1  0  0  0  0  0  0
  -27.5560  -32.5640   25.7990 C   0  0  0  0  0  1  0  0  0  0  0  0
  -25.5850  -33.9220   24.1830 N   0  0  0  0  0  0  0  0  0  0  0  0
  -25.9120  -34.9750   23.4220 C   0  0  0  0  0  0  0  0  0  0  0  0
  -26.5750  -34.8690   22.3870 O   0  0  0  0  0  0  0  0  0  0  0  0
  -25.0090  -34.0790   24.9970 H   0  0  0  0  0  0  0  0  0  0  0  0
  -24.1810  -36.7670   23.0740 C   0  0  0  0  0  1  0  0  0  0  0  0
  -25.4250  -36.3630   23.8800 C   0  0  0  0  0  3  0  0  0  0  0  0
  -27.5610  -37.2460   24.7070 C   0  0  0  0  0  1  0  0  0  0  0  0
  -26.4580  -37.4150   23.7660 N   0  0  0  0  0  0  0  0  0  0  0  0
  -26.0540  -38.3360   23.9170 H   0  0  0  0  0  0  0  0  0  0  0  0
  2 47  1  0
  2  1  2  0
  3  4  2  0
  3  5  1  0
  4  7  1  0
  5  8  2  0
  7  1  1  0
  7  6  2  0
  8  6  1  0
  8 17  1  0
  9 17  1  0
 10 15  1  0
 11 12  1  0
 11 10  1  0
 13 12  1  0
 13 22  1  0
 13 14  1  0
 15  9  1  0
 15 14  1  0
 16  9  2  0
 17 18  1  0
 19 20  2  0
 20 39  1  0
 21 20  1  0
 21 24  1  0
 22 19  1  0
 22 23  1  0
 23 21  2  0
 24 25  1  0
 25 26  2  0
 27 30  1  0
 27 26  1  0
 28 27  2  0
 29 28  1  0
 29 24  2  0
 30 31  1  0
 31 32  1  0
 32 33  2  0
 34 33  1  0
 34 38  1  0
 35 34  2  0
 36 31  2  0
 36 35  1  0
 37 36  1  0
 39 40  1  0
 40 43  1  0
 40 42  1  0
 41 39  2  0
 44 45  1  0
 44 19  1  0
 46 44  1  0
 47 48  2  0
 49 50  1  0
 49 47  1  0
 51 62  2  0
 52 50  1  0
 52 57  1  0
 53 61  1  0
 53 63  1  0
 54 60  1  0
 54 56  1  0
 55 61  1  0
 56 55  1  0
 57 56  2  0
 58 59  1  0
 58 52  2  0
 59 54  2  0
 60 53  1  0
 61 51  1  0
 63 65  2  0
 64 63  1  0
 66 64  1  0
 67 76  2  0
 67 72  1  0
 68 64  1  0
 68 72  1  0
 69 68  1  0
 70 71  1  0
 70 69  1  0
 71 67  1  0
 72 73  2  0
 73 74  1  0
 75 74  2  0
 76 75  1  0
 77 51  1  0
 77 82  1  0
 77 78  1  0
 78 81  1  1
 78 79  1  0
 80 78  1  0
 82 85  1  0
 83 87  1  0
 83 82  1  0
 84 83  2  0
 87 86  1  0
 89 87  1  0
 89 90  1  0
 89 88  1  0
M  ISO  4   9 100  17 100  49 101  50 101
M  END
>  <TORSDO>  (39) 
F 19

>  <SCORE>  (39) 
-14.234

>  <name>  (39) 
38

>  <ligand_id>  (39) 
38

>  <original_smiles>  (39) 
[H]C(C(=O)C([H])([H])Oc1c([H])c([H])c2c(c1[H])C([H])([H])N(C(=O)C([H])(N([H])C(=O)C([H])(N([H])C([H])([H])[H])C([H])([H])[H])C(C([H])([H])[H])(C([H])([H])[H])C([H])([H])[H])C([H])(C(=O)N([H])C1([H])c3c([H])c([H])c([H])c([H])c3C([H])([H])C([H])([H])C1([H])[H])C2([H])[H])=C([H])c1c([H])c([H])c([H])c(N([H])C(=O)N2C([H])([H])C([H])([H])C([H])([H])C([H])(n3nc(-c4c([H])c([H])c(Oc5c([H])c([H])c(F)c([H])c5F)c([H])c4[H])c(C(=O)N([H])[H])c3N([H])[H])C2([H])[H])c1[H]

>  <smiles>  (39) 
[H]C(C(=O)C([H])([H])Oc1c([H])c([H])c2c(c1[H])C([H])([H])N(C(=O)C([H])(N([H])C(=O)C([H])(N([H])C([H])([H])[H])C([H])([H])[H])C(C([H])([H])[H])(C([H])([H])[H])C([H])([H])[H])C([H])(C(=O)N([H])C1([H])c3c([H])c([H])c([H])c([H])c3C([H])([H])C([H])([H])C1([H])[H])C2([H])[H])=C([H])c1c([H])c([H])c([H])c(N([H])C(=O)N2C([H])([H])C([H])([H])C([H])([H])C([H])(n3nc(-c4c([H])c([H])c(Oc5c([H])c([H])c(F)c([H])c5F)c([H])c4[H])c(C(=O)N([H])[H])c3N([H])[H])C2([H])[H])c1[H]

$$$$
39:0:0
     RDKit          3D

 91 99  0  0  1  0  0  0  0  0999 V2000
  -29.3990  -21.3200   20.5210 C   0  0  0  0  0  3  0  0  0  0  0  0
  -29.1310  -22.5180   19.8810 C   0  0  0  0  0  3  0  0  0  0  0  0
  -30.3130  -18.6340   17.9140 C   0  0  0  0  0  3  0  0  0  0  0  0
  -30.0030  -19.8610   18.5310 C   0  0  0  0  0  3  0  0  0  0  0  0
  -30.3490  -17.4300   18.6470 C   0  0  0  0  0  3  0  0  0  0  0  0
  -29.7650  -18.6880   20.6370 C   0  0  0  0  0  3  0  0  0  0  0  0
  -29.7240  -19.9450   19.9130 C   0  0  0  0  0  0  0  0  0  0  0  0
  -30.0800  -17.3990   20.0360 C   0  0  0  0  0  0  0  0  0  0  0  0
  -30.0390  -16.0360   20.7870 C   0  0  0  0  0  0  0  0  0  0  0  0
  -29.4410  -15.9960   21.9020 N   0  0  0  0  0  0  0  0  0  0  0  0
  -29.0440  -16.8990   22.1340 H   0  0  0  0  0  0  0  0  0  0  0  0
  -30.7660  -14.7430   20.1860 C   0  0  0  0  0  0  0  0  0  0  0  0
  -30.4850  -12.5260   19.0850 C   0  0  0  0  0  2  0  0  0  0  0  0
  -29.5060  -12.6930   17.8990 C   0  0  0  0  0  2  0  0  0  0  0  0
  -28.0460  -12.5260   18.3640 C   0  0  0  0  0  2  0  0  0  0  0  0
  -27.7340  -13.3450   19.6440 C   0  0  0  0  0  3  0  0  0  0  0  0
  -28.8260  -13.1320   20.7130 C   0  0  0  0  0  2  0  0  0  0  0  0
  -30.1170  -13.5230   20.1210 N   0  0  0  0  0  0  0  0  0  0  0  0
  -31.8940  -14.8630   19.6960 O   0  0  0  0  0  0  0  0  0  0  0  0
  -25.3680  -13.9390   20.4400 C   0  0  0  0  0  0  0  0  0  0  0  0
  -24.3100  -13.1630   20.8310 C   0  0  0  0  0  0  0  0  0  0  0  0
  -24.7660  -11.8120   20.7700 C   0  0  0  0  0  0  0  0  0  0  0  0
  -26.4010  -13.0590   20.1630 N   0  0  0  0  0  0  0  0  0  0  0  0
  -26.0460  -11.7740   20.4190 N   0  0  0  0  0  0  0  0  0  0  0  0
  -24.0420  -10.5490   20.9670 C   0  0  0  0  0  0  0  0  0  0  0  0
  -24.4900   -9.5760   21.8860 C   0  0  0  0  0  3  0  0  0  0  0  0
  -23.7650   -8.3800   22.0720 C   0  0  0  0  0  3  0  0  0  0  0  0
  -22.5780   -8.1480   21.3380 C   0  0  0  0  0  0  0  0  0  0  0  0
  -22.1500   -9.1090   20.4070 C   0  0  0  0  0  3  0  0  0  0  0  0
  -22.8750  -10.2970   20.2190 C   0  0  0  0  0  3  0  0  0  0  0  0
  -21.8240   -7.0020   21.4330 O   0  0  0  0  0  0  0  0  0  0  0  0
  -21.7790   -6.2640   22.5880 C   0  0  0  0  0  0  0  0  0  0  0  0
  -21.3660   -6.8260   23.8170 C   0  0  0  0  0  3  0  0  0  0  0  0
  -21.2670   -6.0140   24.9640 C   0  0  0  0  0  3  0  0  0  0  0  0
  -21.5720   -4.6420   24.8840 C   0  0  0  0  0  0  0  0  0  0  0  0
  -21.9790   -4.0800   23.6610 C   0  0  0  0  0  3  0  0  0  0  0  0
  -22.0790   -4.8890   22.5160 C   0  0  0  0  0  0  0  0  0  0  0  0
  -22.4510   -4.3380   21.3360 F   0  0  0  0  0  0  0  0  0  0  0  0
  -21.4710   -3.8600   25.9850 F   0  0  0  0  0  0  0  0  0  0  0  0
  -22.9230  -13.6420   21.1540 C   0  0  0  0  0  0  0  0  0  0  0  0
  -22.2220  -12.9390   22.0360 N   0  0  0  0  0  0  0  0  0  0  0  0
  -22.4710  -14.6730   20.6580 O   0  0  0  0  0  0  0  0  0  0  0  0
  -22.6020  -12.1040   22.4600 H   0  0  0  0  0  0  0  0  0  0  0  0
  -21.2930  -13.2400   22.2940 H   0  0  0  0  0  0  0  0  0  0  0  0
  -25.5300  -15.3120   20.2790 N   0  0  0  0  0  0  0  0  0  0  0  0
  -24.7780  -15.9700   20.4450 H   0  0  0  0  0  0  0  0  0  0  0  0
  -26.3920  -15.7570   19.9900 H   0  0  0  0  0  0  0  0  0  0  0  0
  -28.8800  -23.8860   20.5290 C   0  0  0  0  0  0  0  0  0  0  0  0
  -29.1210  -24.0820   21.7240 O   0  0  0  0  0  0  0  0  0  0  0  0
  -28.2860  -25.0860   19.6730 C   0  0  0  0  0  2  0  0  0  0  0  0
  -28.2930  -26.4580   20.2720 O   0  0  0  0  0  0  0  0  0  0  0  0
  -24.5800  -31.9260   23.2170 C   0  0  0  0  0  0  0  0  0  0  0  0
  -27.1710  -27.3130   20.1870 C   0  0  0  0  0  0  0  0  0  0  0  0
  -23.3690  -30.5180   21.5910 C   0  0  0  0  0  3  0  0  0  0  0  0
  -24.8110  -28.9510   20.1740 C   0  0  0  0  0  0  0  0  0  0  0  0
  -25.9110  -30.8180   21.4040 C   0  0  0  0  0  2  0  0  0  0  0  0
  -25.9830  -29.4310   20.7700 C   0  0  0  0  0  0  0  0  0  0  0  0
  -27.1600  -28.6210   20.7740 C   0  0  0  0  0  3  0  0  0  0  0  0
  -25.9740  -26.9030   19.5510 C   0  0  0  0  0  3  0  0  0  0  0  0
  -24.8090  -27.6940   19.5590 C   0  0  0  0  0  3  0  0  0  0  0  0
  -23.5780  -29.8310   20.2160 C   0  0  0  0  0  2  0  0  0  0  0  0
  -24.6400  -31.1050   22.1260 N   0  0  0  0  0  0  0  0  0  0  0  0
  -23.4990  -32.2130   23.7490 O   0  0  0  0  0  0  0  0  0  0  0  0
  -22.7030  -29.5120   22.5610 C   0  0  0  0  0  0  0  0  0  0  0  0
  -21.3780  -29.3360   22.4340 N   0  0  0  0  0  0  0  0  0  0  0  0
  -23.3800  -28.8930   23.3870 O   0  0  0  0  0  0  0  0  0  0  0  0
  -20.8910  -29.8870   21.7410 H   0  0  0  0  0  0  0  0  0  0  0  0
  -17.9980  -28.1490   22.9400 C   0  0  0  0  0  0  0  0  0  0  0  0
  -20.5550  -28.4090   23.2140 C   0  0  0  0  0  3  0  0  0  0  0  0
  -20.6570  -26.9700   22.6560 C   0  0  0  0  0  2  0  0  0  0  0  0
  -19.5570  -26.6350   21.6440 C   0  0  0  0  0  2  0  0  0  0  0  0
  -18.1740  -26.7910   22.2820 C   0  0  0  0  0  2  0  0  0  0  0  0
  -19.1160  -28.9150   23.3640 C   0  0  0  0  0  0  0  0  0  0  0  0
  -18.8960  -30.1850   23.9400 C   0  0  0  0  0  3  0  0  0  0  0  0
  -17.5910  -30.6890   24.0960 C   0  0  0  0  0  3  0  0  0  0  0  0
  -16.4870  -29.9200   23.6880 C   0  0  0  0  0  3  0  0  0  0  0  0
  -16.6920  -28.6510   23.1160 C   0  0  0  0  0  3  0  0  0  0  0  0
  -25.8670  -32.5580   23.8310 C   0  0  0  0  0  3  0  0  0  0  0  0
  -26.3820  -31.7950   25.1130 C   0  0  1  0  0  0  0  0  0  0  0  0
  -25.2890  -31.5710   26.1840 C   0  0  0  0  0  1  0  0  0  0  0  0
  -26.9590  -30.4110   24.7320 C   0  0  0  0  0  1  0  0  0  0  0  0
  -27.5350  -32.5900   25.7680 C   0  0  0  0  0  1  0  0  0  0  0  0
  -25.5610  -33.9600   24.1530 N   0  0  0  0  0  0  0  0  0  0  0  0
  -25.8920  -35.0070   23.3850 C   0  0  0  0  0  0  0  0  0  0  0  0
  -26.5570  -34.8940   22.3510 O   0  0  0  0  0  0  0  0  0  0  0  0
  -24.9690  -34.1210   24.9530 H   0  0  0  0  0  0  0  0  0  0  0  0
  -24.1630  -36.8000   23.0340 C   0  0  0  0  0  1  0  0  0  0  0  0
  -25.4120  -36.4000   23.8350 C   0  0  0  0  0  3  0  0  0  0  0  0
  -27.5560  -37.2900   24.6360 C   0  0  0  0  0  1  0  0  0  0  0  0
  -26.4440  -37.4500   23.7010 N   0  0  0  0  0  0  0  0  0  0  0  0
  -26.0410  -38.3730   23.8440 H   0  0  0  0  0  0  0  0  0  0  0  0
  2  1  2  0
  2 48  1  0
  3  4  2  0
  3  5  1  0
  4  7  1  0
  5  8  2  0
  7  1  1  0
  7  6  2  0
  8  6  1  0
  8  9  1  0
  9 10  2  0
 10 11  1  0
 12  9  1  0
 13 18  1  0
 14 15  1  0
 14 13  1  0
 16 15  1  0
 16 23  1  0
 16 17  1  0
 18 12  1  0
 18 17  1  0
 19 12  2  0
 20 21  2  0
 21 40  1  0
 22 21  1  0
 22 25  1  0
 23 24  1  0
 23 20  1  0
 24 22  2  0
 25 26  1  0
 26 27  2  0
 28 31  1  0
 28 27  1  0
 29 28  2  0
 30 29  1  0
 30 25  2  0
 31 32  1  0
 32 33  1  0
 33 34  2  0
 35 34  1  0
 35 39  1  0
 36 35  2  0
 37 32  2  0
 37 36  1  0
 38 37  1  0
 40 41  1  0
 41 44  1  0
 41 43  1  0
 42 40  2  0
 45 20  1  0
 45 46  1  0
 47 45  1  0
 48 49  2  0
 50 51  1  0
 50 48  1  0
 52 63  2  0
 53 51  1  0
 53 58  1  0
 54 62  1  0
 54 64  1  0
 55 61  1  0
 55 57  1  0
 56 62  1  0
 57 58  2  0
 57 56  1  0
 59 60  1  0
 59 53  2  0
 60 55  2  0
 61 54  1  0
 62 52  1  0
 64 66  2  0
 65 64  1  0
 67 65  1  0
 68 77  2  0
 68 73  1  0
 69 65  1  0
 69 73  1  0
 70 69  1  0
 71 72  1  0
 71 70  1  0
 72 68  1  0
 73 74  2  0
 74 75  1  0
 76 75  2  0
 77 76  1  0
 78 52  1  0
 78 83  1  0
 78 79  1  0
 79 82  1  1
 79 80  1  0
 81 79  1  0
 83 86  1  0
 84 88  1  0
 84 83  1  0
 85 84  2  0
 88 87  1  0
 90 88  1  0
 90 91  1  0
 90 89  1  0
M  ISO  4   9 100  12 100  50 101  51 101
M  END
>  <TORSDO>  (40) 
F 20

>  <SCORE>  (40) 
-13.767

>  <name>  (40) 
39

>  <ligand_id>  (40) 
39

>  <original_smiles>  (40) 
[H]N=C(C(=O)N1C([H])([H])C([H])([H])C([H])([H])C([H])(n2nc(-c3c([H])c([H])c(Oc4c([H])c([H])c(F)c([H])c4F)c([H])c3[H])c(C(=O)N([H])[H])c2N([H])[H])C1([H])[H])c1c([H])c([H])c([H])c(C([H])=C([H])C(=O)C([H])([H])Oc2c([H])c([H])c3c(c2[H])C([H])([H])N(C(=O)C([H])(N([H])C(=O)C([H])(N([H])C([H])([H])[H])C([H])([H])[H])C(C([H])([H])[H])(C([H])([H])[H])C([H])([H])[H])C([H])(C(=O)N([H])C2([H])c4c([H])c([H])c([H])c([H])c4C([H])([H])C([H])([H])C2([H])[H])C3([H])[H])c1[H]

>  <smiles>  (40) 
[H]N=C(C(=O)N1C([H])([H])C([H])([H])C([H])([H])C([H])(n2nc(-c3c([H])c([H])c(Oc4c([H])c([H])c(F)c([H])c4F)c([H])c3[H])c(C(=O)N([H])[H])c2N([H])[H])C1([H])[H])c1c([H])c([H])c([H])c(C([H])=C([H])C(=O)C([H])([H])Oc2c([H])c([H])c3c(c2[H])C([H])([H])N(C(=O)C([H])(N([H])C(=O)C([H])(N([H])C([H])([H])[H])C([H])([H])[H])C(C([H])([H])[H])(C([H])([H])[H])C([H])([H])[H])C([H])(C(=O)N([H])C2([H])c4c([H])c([H])c([H])c([H])c4C([H])([H])C([H])([H])C2([H])[H])C3([H])[H])c1[H]

$$$$
40:0:0
     RDKit          3D

 93101  0  0  1  0  0  0  0  0999 V2000
  -28.7420  -20.8430   20.5440 C   0  0  0  0  0  3  0  0  0  0  0  0
  -28.6820  -22.1950   20.3290 C   0  0  0  0  0  3  0  0  0  0  0  0
  -29.3670  -18.3740   20.5100 C   0  0  0  0  0  3  0  0  0  0  0  0
  -30.9100  -19.9740   19.5530 C   0  0  0  0  0  3  0  0  0  0  0  0
  -31.5350  -17.6330   19.7510 C   0  0  0  0  0  3  0  0  0  0  0  0
  -29.6680  -19.7310   20.1600 C   0  0  0  0  0  0  0  0  0  0  0  0
  -30.2900  -17.2820   20.3290 C   0  0  0  0  0  0  0  0  0  0  0  0
  -31.8290  -18.9450   19.3520 C   0  0  0  0  0  0  0  0  0  0  0  0
  -33.0360  -19.2470   18.8270 F   0  0  0  0  0  0  0  0  0  0  0  0
  -29.9840  -15.8570   20.8240 C   0  0  0  0  0  0  0  0  0  0  0  0
  -29.1740  -15.7370   21.7930 N   0  0  0  0  0  0  0  0  0  0  0  0
  -28.8430  -16.6290   22.1390 H   0  0  0  0  0  0  0  0  0  0  0  0
  -30.6760  -14.6050   20.1410 C   0  0  0  0  0  0  0  0  0  0  0  0
  -30.3340  -12.4770   18.9360 C   0  0  0  0  0  2  0  0  0  0  0  0
  -29.3220  -12.7020   17.7900 C   0  0  0  0  0  2  0  0  0  0  0  0
  -27.8670  -12.5410   18.2810 C   0  0  0  0  0  2  0  0  0  0  0  0
  -27.6100  -13.2960   19.6130 C   0  0  0  0  0  3  0  0  0  0  0  0
  -28.7220  -12.9950   20.6340 C   0  0  0  0  0  2  0  0  0  0  0  0
  -30.0010  -13.4090   20.0340 N   0  0  0  0  0  0  0  0  0  0  0  0
  -31.7920  -14.7100   19.6230 O   0  0  0  0  0  0  0  0  0  0  0  0
  -25.2570  -13.8760   20.4460 C   0  0  0  0  0  0  0  0  0  0  0  0
  -24.2090  -13.0880   20.8440 C   0  0  0  0  0  0  0  0  0  0  0  0
  -24.6770  -11.7430   20.7730 C   0  0  0  0  0  0  0  0  0  0  0  0
  -26.2900  -13.0000   20.1510 N   0  0  0  0  0  0  0  0  0  0  0  0
  -25.9500  -11.7130   20.4060 N   0  0  0  0  0  0  0  0  0  0  0  0
  -23.9700  -10.4760   20.9840 C   0  0  0  0  0  0  0  0  0  0  0  0
  -24.4300   -9.5240   21.9180 C   0  0  0  0  0  3  0  0  0  0  0  0
  -23.7230   -8.3200   22.1190 C   0  0  0  0  0  3  0  0  0  0  0  0
  -22.5400   -8.0620   21.3870 C   0  0  0  0  0  0  0  0  0  0  0  0
  -22.0960   -9.0080   20.4440 C   0  0  0  0  0  3  0  0  0  0  0  0
  -22.8050  -10.2030   20.2430 C   0  0  0  0  0  3  0  0  0  0  0  0
  -21.7990   -6.9110   21.4970 O   0  0  0  0  0  0  0  0  0  0  0  0
  -21.7500   -6.1950   22.6670 C   0  0  0  0  0  0  0  0  0  0  0  0
  -21.3160   -6.7740   23.8790 C   0  0  0  0  0  3  0  0  0  0  0  0
  -21.2180   -5.9820   25.0400 C   0  0  0  0  0  3  0  0  0  0  0  0
  -21.5390   -4.6130   24.9890 C   0  0  0  0  0  0  0  0  0  0  0  0
  -21.9680   -4.0340   23.7810 C   0  0  0  0  0  3  0  0  0  0  0  0
  -22.0700   -4.8230   22.6220 C   0  0  0  0  0  0  0  0  0  0  0  0
  -22.4600   -4.2560   21.4550 F   0  0  0  0  0  0  0  0  0  0  0  0
  -21.4390   -3.8490   26.1020 F   0  0  0  0  0  0  0  0  0  0  0  0
  -22.8270  -13.5580   21.1870 C   0  0  0  0  0  0  0  0  0  0  0  0
  -22.1510  -12.8410   22.0810 N   0  0  0  0  0  0  0  0  0  0  0  0
  -22.3560  -14.5870   20.7040 O   0  0  0  0  0  0  0  0  0  0  0  0
  -22.5480  -12.0090   22.4900 H   0  0  0  0  0  0  0  0  0  0  0  0
  -21.2230  -13.1260   22.3520 H   0  0  0  0  0  0  0  0  0  0  0  0
  -25.4120  -15.2490   20.3020 N   0  0  0  0  0  0  0  0  0  0  0  0
  -24.6820  -15.8880   20.5940 H   0  0  0  0  0  0  0  0  0  0  0  0
  -26.3200  -15.6930   20.2240 H   0  0  0  0  0  0  0  0  0  0  0  0
  -29.5150  -23.1140   19.4990 C   0  0  0  0  0  0  0  0  0  0  0  0
  -30.1390  -22.7560   18.4990 O   0  0  0  0  0  0  0  0  0  0  0  0
  -29.5130  -24.5480   19.8860 C   0  0  0  0  0  3  0  0  0  0  0  0
  -28.4430  -25.3560   19.6860 C   0  0  0  0  0  3  0  0  0  0  0  0
  -28.3860  -26.6860   20.0990 O   0  0  0  0  0  0  0  0  0  0  0  0
  -24.5650  -31.9260   23.2420 C   0  0  0  0  0  0  0  0  0  0  0  0
  -27.1980  -27.4150   20.1350 C   0  0  0  0  0  0  0  0  0  0  0  0
  -23.3630  -30.5230   21.6080 C   0  0  0  0  0  3  0  0  0  0  0  0
  -24.8080  -28.9770   20.1930 C   0  0  0  0  0  0  0  0  0  0  0  0
  -25.9000  -30.8520   21.4160 C   0  0  0  0  0  2  0  0  0  0  0  0
  -25.9790  -29.4800   20.7670 C   0  0  0  0  0  0  0  0  0  0  0  0
  -27.1730  -28.7090   20.7290 C   0  0  0  0  0  3  0  0  0  0  0  0
  -25.9840  -26.9340   19.5840 C   0  0  0  0  0  3  0  0  0  0  0  0
  -24.8060  -27.7000   19.6120 C   0  0  0  0  0  3  0  0  0  0  0  0
  -23.5750  -29.8480   20.2330 C   0  0  0  0  0  2  0  0  0  0  0  0
  -24.6280  -31.1160   22.1470 N   0  0  0  0  0  0  0  0  0  0  0  0
  -23.4840  -32.2080   23.7770 O   0  0  0  0  0  0  0  0  0  0  0  0
  -22.7030  -29.5080   22.5690 C   0  0  0  0  0  0  0  0  0  0  0  0
  -21.3740  -29.3420   22.4570 N   0  0  0  0  0  0  0  0  0  0  0  0
  -23.3840  -28.8680   23.3730 O   0  0  0  0  0  0  0  0  0  0  0  0
  -20.8790  -29.9240   21.7940 H   0  0  0  0  0  0  0  0  0  0  0  0
  -17.9910  -28.1750   22.9620 C   0  0  0  0  0  0  0  0  0  0  0  0
  -20.5530  -28.4050   23.2260 C   0  0  0  0  0  3  0  0  0  0  0  0
  -20.6320  -26.9740   22.6450 C   0  0  0  0  0  2  0  0  0  0  0  0
  -19.5210  -26.6670   21.6340 C   0  0  0  0  0  2  0  0  0  0  0  0
  -18.1440  -26.8290   22.2810 C   0  0  0  0  0  2  0  0  0  0  0  0
  -19.1220  -28.9260   23.3880 C   0  0  0  0  0  0  0  0  0  0  0  0
  -18.9220  -30.1860   23.9890 C   0  0  0  0  0  3  0  0  0  0  0  0
  -17.6230  -30.7060   24.1540 C   0  0  0  0  0  3  0  0  0  0  0  0
  -16.5080  -29.9570   23.7410 C   0  0  0  0  0  3  0  0  0  0  0  0
  -16.6930  -28.6890   23.1580 C   0  0  0  0  0  3  0  0  0  0  0  0
  -25.8540  -32.5550   23.8600 C   0  0  0  0  0  3  0  0  0  0  0  0
  -26.3680  -31.7790   25.1350 C   0  0  1  0  0  0  0  0  0  0  0  0
  -25.2770  -31.5450   26.2030 C   0  0  0  0  0  1  0  0  0  0  0  0
  -26.9480  -30.4000   24.7440 C   0  0  0  0  0  1  0  0  0  0  0  0
  -27.5240  -32.5670   25.8000 C   0  0  0  0  0  1  0  0  0  0  0  0
  -25.5510  -33.9530   24.1970 N   0  0  0  0  0  0  0  0  0  0  0  0
  -25.8850  -35.0040   23.4330 C   0  0  0  0  0  0  0  0  0  0  0  0
  -26.5530  -34.8960   22.4020 O   0  0  0  0  0  0  0  0  0  0  0  0
  -24.9510  -34.1110   24.9940 H   0  0  0  0  0  0  0  0  0  0  0  0
  -24.1630  -36.8000   23.0760 C   0  0  0  0  0  1  0  0  0  0  0  0
  -25.4030  -36.3960   23.8880 C   0  0  0  0  0  3  0  0  0  0  0  0
  -27.5390  -37.2730   24.7230 C   0  0  0  0  0  1  0  0  0  0  0  0
  -26.4400  -37.4440   23.7760 N   0  0  0  0  0  0  0  0  0  0  0  0
  -26.0370  -38.3670   23.9160 H   0  0  0  0  0  0  0  0  0  0  0  0
  2  1  2  0
  4  6  1  0
  5  7  2  0
  6  3  2  0
  6  1  1  0
  7  3  1  0
  7 10  1  0
  8  4  2  0
  8  5  1  0
  9  8  1  0
 10 11  2  0
 11 12  1  0
 13 10  1  0
 14 19  1  0
 15 16  1  0
 15 14  1  0
 17 16  1  0
 17 24  1  0
 17 18  1  0
 19 13  1  0
 19 18  1  0
 20 13  2  0
 21 22  2  0
 22 41  1  0
 23 22  1  0
 23 26  1  0
 24 25  1  0
 24 21  1  0
 25 23  2  0
 26 27  1  0
 27 28  2  0
 29 32  1  0
 29 28  1  0
 30 29  2  0
 31 30  1  0
 31 26  2  0
 32 33  1  0
 33 34  1  0
 34 35  2  0
 36 35  1  0
 36 40  1  0
 37 36  2  0
 38 33  2  0
 38 37  1  0
 39 38  1  0
 41 42  1  0
 42 45  1  0
 42 44  1  0
 43 41  2  0
 46 21  1  0
 46 47  1  0
 48 46  1  0
 49 51  1  0
 49  2  1  0
 50 49  2  0
 52 51  2  0
 52 53  1  0
 53 55  1  0
 54 65  2  0
 55 60  1  0
 56 64  1  0
 56 66  1  0
 57 63  1  0
 57 59  1  0
 58 64  1  0
 59 58  1  0
 60 59  2  0
 61 62  1  0
 61 55  2  0
 62 57  2  0
 63 56  1  0
 64 54  1  0
 66 68  2  0
 67 66  1  0
 69 67  1  0
 70 79  2  0
 70 75  1  0
 71 67  1  0
 71 75  1  0
 72 71  1  0
 73 74  1  0
 73 72  1  0
 74 70  1  0
 75 76  2  0
 76 77  1  0
 78 77  2  0
 79 78  1  0
 80 54  1  0
 80 85  1  0
 80 81  1  0
 81 84  1  1
 81 82  1  0
 83 81  1  0
 85 88  1  0
 86 90  1  0
 86 85  1  0
 87 86  2  0
 90 89  1  0
 92 90  1  0
 92 93  1  0
 92 91  1  0
M  ISO  4  10 100  13 100  52 101  53 101
M  END
>  <TORSDO>  (41) 
F 20

>  <SCORE>  (41) 
-13.693

>  <name>  (41) 
40

>  <ligand_id>  (41) 
40

>  <original_smiles>  (41) 
[H]N=C(C(=O)N1C([H])([H])C([H])([H])C([H])([H])C([H])(n2nc(-c3c([H])c([H])c(Oc4c([H])c([H])c(F)c([H])c4F)c([H])c3[H])c(C(=O)N([H])[H])c2N([H])[H])C1([H])[H])c1c([H])c(F)c([H])c(C([H])=C([H])C(=O)C([H])=C([H])Oc2c([H])c([H])c3c(c2[H])C([H])([H])N(C(=O)C([H])(N([H])C(=O)C([H])(N([H])C([H])([H])[H])C([H])([H])[H])C(C([H])([H])[H])(C([H])([H])[H])C([H])([H])[H])C([H])(C(=O)N([H])C2([H])c4c([H])c([H])c([H])c([H])c4C([H])([H])C([H])([H])C2([H])[H])C3([H])[H])c1[H]

>  <smiles>  (41) 
[H]N=C(C(=O)N1C([H])([H])C([H])([H])C([H])([H])C([H])(n2nc(-c3c([H])c([H])c(Oc4c([H])c([H])c(F)c([H])c4F)c([H])c3[H])c(C(=O)N([H])[H])c2N([H])[H])C1([H])[H])c1c([H])c(F)c([H])c(C([H])=C([H])C(=O)C([H])=C([H])Oc2c([H])c([H])c3c(c2[H])C([H])([H])N(C(=O)C([H])(N([H])C(=O)C([H])(N([H])C([H])([H])[H])C([H])([H])[H])C(C([H])([H])[H])(C([H])([H])[H])C([H])([H])[H])C([H])(C(=O)N([H])C2([H])c4c([H])c([H])c([H])c([H])c4C([H])([H])C([H])([H])C2([H])[H])C3([H])[H])c1[H]

$$$$
41:0:0
     RDKit          3D

 91 99  0  0  1  0  0  0  0  0999 V2000
  -30.2570  -21.9390   19.6440 C   0  0  0  0  0  3  0  0  0  0  0  0
  -29.3230  -22.7340   20.2380 C   0  0  0  0  0  3  0  0  0  0  0  0
  -29.9840  -19.4040   20.3830 C   0  0  0  0  0  3  0  0  0  0  0  0
  -31.1580  -20.0560   18.3650 C   0  0  0  0  0  3  0  0  0  0  0  0
  -30.9780  -17.6940   18.9540 C   0  0  0  0  0  3  0  0  0  0  0  0
  -30.4400  -20.4480   19.5150 C   0  0  0  0  0  0  0  0  0  0  0  0
  -30.2710  -18.0140   20.1320 C   0  0  0  0  0  0  0  0  0  0  0  0
  -31.4240  -18.7040   18.0810 C   0  0  0  0  0  0  0  0  0  0  0  0
  -32.2000  -18.3300   16.8340 C   0  0  0  0  0  1  0  0  0  0  0  0
  -29.8340  -16.9550   21.1100 C   0  0  0  0  0  3  0  0  0  0  0  0
  -29.9590  -15.5940   21.2630 C   0  0  0  0  0  3  0  0  0  0  0  0
  -30.6560  -14.5620   20.4610 C   0  0  0  0  0  0  0  0  0  0  0  0
  -30.3780  -12.3970   19.2610 C   0  0  0  0  0  2  0  0  0  0  0  0
  -29.4220  -12.5920   18.0640 C   0  0  0  0  0  2  0  0  0  0  0  0
  -27.9490  -12.4420   18.4950 C   0  0  0  0  0  2  0  0  0  0  0  0
  -27.6220  -13.2550   19.7750 C   0  0  0  0  0  3  0  0  0  0  0  0
  -28.6820  -13.0000   20.8660 C   0  0  0  0  0  2  0  0  0  0  0  0
  -29.9980  -13.3670   20.3090 N   0  0  0  0  0  0  0  0  0  0  0  0
  -31.7660  -14.7370   19.9470 O   0  0  0  0  0  0  0  0  0  0  0  0
  -25.2290  -13.8740   20.4830 C   0  0  0  0  0  0  0  0  0  0  0  0
  -24.1580  -13.1080   20.8580 C   0  0  0  0  0  0  0  0  0  0  0  0
  -24.6140  -11.7550   20.8370 C   0  0  0  0  0  0  0  0  0  0  0  0
  -26.2700  -12.9870   20.2560 N   0  0  0  0  0  0  0  0  0  0  0  0
  -25.9040  -11.7080   20.5260 N   0  0  0  0  0  0  0  0  0  0  0  0
  -23.8840  -10.4980   21.0380 C   0  0  0  0  0  0  0  0  0  0  0  0
  -24.3290   -9.5250   21.9610 C   0  0  0  0  0  3  0  0  0  0  0  0
  -23.6000   -8.3310   22.1500 C   0  0  0  0  0  3  0  0  0  0  0  0
  -22.4130   -8.1010   21.4140 C   0  0  0  0  0  0  0  0  0  0  0  0
  -21.9880   -9.0620   20.4800 C   0  0  0  0  0  3  0  0  0  0  0  0
  -22.7170  -10.2470   20.2900 C   0  0  0  0  0  3  0  0  0  0  0  0
  -21.6560   -6.9590   21.5110 O   0  0  0  0  0  0  0  0  0  0  0  0
  -21.6370   -6.2020   22.6560 C   0  0  0  0  0  0  0  0  0  0  0  0
  -21.2620   -6.7470   23.9030 C   0  0  0  0  0  3  0  0  0  0  0  0
  -21.1900   -5.9190   25.0410 C   0  0  0  0  0  3  0  0  0  0  0  0
  -21.4800   -4.5450   24.9320 C   0  0  0  0  0  0  0  0  0  0  0  0
  -21.8480   -3.9990   23.6900 C   0  0  0  0  0  3  0  0  0  0  0  0
  -21.9230   -4.8250   22.5540 C   0  0  0  0  0  0  0  0  0  0  0  0
  -22.2580   -4.2890   21.3550 F   0  0  0  0  0  0  0  0  0  0  0  0
  -21.4040   -3.7480   26.0230 F   0  0  0  0  0  0  0  0  0  0  0  0
  -22.7630  -13.5940   21.1310 C   0  0  0  0  0  0  0  0  0  0  0  0
  -22.0360  -12.9070   22.0040 N   0  0  0  0  0  0  0  0  0  0  0  0
  -22.3280  -14.6180   20.6050 O   0  0  0  0  0  0  0  0  0  0  0  0
  -22.4030  -12.0820   22.4520 H   0  0  0  0  0  0  0  0  0  0  0  0
  -21.1000  -13.2130   22.2290 H   0  0  0  0  0  0  0  0  0  0  0  0
  -25.3990  -15.2430   20.3000 N   0  0  0  0  0  0  0  0  0  0  0  0
  -24.6370  -15.9030   20.4150 H   0  0  0  0  0  0  0  0  0  0  0  0
  -26.2620  -15.6790   19.9970 H   0  0  0  0  0  0  0  0  0  0  0  0
  -29.4210  -24.2430   20.1630 C   0  0  0  0  0  0  0  0  0  0  0  0
  -30.4740  -24.8090   19.8480 O   0  0  0  0  0  0  0  0  0  0  0  0
  -28.1780  -25.1330   20.4720 C   0  0  0  0  0  2  0  0  0  0  0  0
  -28.3750  -26.5630   20.2070 O   0  0  0  0  0  0  0  0  0  0  0  0
  -24.6060  -31.8780   23.2370 C   0  0  0  0  0  0  0  0  0  0  0  0
  -27.2320  -27.3590   20.1870 C   0  0  0  0  0  0  0  0  0  0  0  0
  -23.4000  -30.4750   21.5960 C   0  0  0  0  0  3  0  0  0  0  0  0
  -24.8520  -28.9270   20.1790 C   0  0  0  0  0  0  0  0  0  0  0  0
  -25.9340  -30.8100   21.4090 C   0  0  0  0  0  2  0  0  0  0  0  0
  -26.0180  -29.4330   20.7710 C   0  0  0  0  0  0  0  0  0  0  0  0
  -27.2100  -28.6580   20.7670 C   0  0  0  0  0  3  0  0  0  0  0  0
  -26.0450  -26.8950   19.5710 C   0  0  0  0  0  3  0  0  0  0  0  0
  -24.8660  -27.6630   19.5700 C   0  0  0  0  0  3  0  0  0  0  0  0
  -23.6140  -29.7960   20.2180 C   0  0  0  0  0  2  0  0  0  0  0  0
  -24.6640  -31.0700   22.1380 N   0  0  0  0  0  0  0  0  0  0  0  0
  -23.5220  -32.1540   23.7730 O   0  0  0  0  0  0  0  0  0  0  0  0
  -22.7390  -29.4590   22.5580 C   0  0  0  0  0  0  0  0  0  0  0  0
  -21.4140  -29.2760   22.4250 N   0  0  0  0  0  0  0  0  0  0  0  0
  -23.4170  -28.8400   23.3830 O   0  0  0  0  0  0  0  0  0  0  0  0
  -20.9270  -29.8280   21.7330 H   0  0  0  0  0  0  0  0  0  0  0  0
  -18.0450  -28.0560   22.8930 C   0  0  0  0  0  0  0  0  0  0  0  0
  -20.5960  -28.3400   23.1960 C   0  0  0  0  0  3  0  0  0  0  0  0
  -20.7210  -26.9030   22.6400 C   0  0  0  0  0  2  0  0  0  0  0  0
  -19.6360  -26.5570   21.6150 C   0  0  0  0  0  2  0  0  0  0  0  0
  -18.2430  -26.6990   22.2370 C   0  0  0  0  0  2  0  0  0  0  0  0
  -19.1510  -28.8330   23.3290 C   0  0  0  0  0  0  0  0  0  0  0  0
  -18.9140  -30.1010   23.9010 C   0  0  0  0  0  3  0  0  0  0  0  0
  -17.6030  -30.5920   24.0450 C   0  0  0  0  0  3  0  0  0  0  0  0
  -16.5110  -29.8120   23.6260 C   0  0  0  0  0  3  0  0  0  0  0  0
  -16.7330  -28.5470   23.0540 C   0  0  0  0  0  3  0  0  0  0  0  0
  -25.8900  -32.5090   23.8560 C   0  0  0  0  0  3  0  0  0  0  0  0
  -26.4130  -31.7340   25.1280 C   0  0  1  0  0  0  0  0  0  0  0  0
  -25.3270  -31.4930   26.2010 C   0  0  0  0  0  1  0  0  0  0  0  0
  -26.9950  -30.3570   24.7300 C   0  0  0  0  0  1  0  0  0  0  0  0
  -27.5660  -32.5270   25.7880 C   0  0  0  0  0  1  0  0  0  0  0  0
  -25.5820  -33.9060   24.1900 N   0  0  0  0  0  0  0  0  0  0  0  0
  -25.9100  -34.9610   23.4300 C   0  0  0  0  0  0  0  0  0  0  0  0
  -26.5730  -34.8590   22.3950 O   0  0  0  0  0  0  0  0  0  0  0  0
  -24.9960  -34.0620   24.9970 H   0  0  0  0  0  0  0  0  0  0  0  0
  -24.1770  -36.7520   23.0880 C   0  0  0  0  0  1  0  0  0  0  0  0
  -25.4230  -36.3480   23.8920 C   0  0  0  0  0  3  0  0  0  0  0  0
  -27.5620  -37.2340   24.7120 C   0  0  0  0  0  1  0  0  0  0  0  0
  -26.4530  -37.4010   23.7760 N   0  0  0  0  0  0  0  0  0  0  0  0
  -26.0460  -38.3200   23.9290 H   0  0  0  0  0  0  0  0  0  0  0  0
  1  2  2  0
  4  6  1  0
  5  7  2  0
  6  1  1  0
  6  3  2  0
  7  3  1  0
  7 10  1  0
  8  4  2  0
  8  5  1  0
  9  8  1  0
 10 11  2  0
 12 11  1  0
 13 18  1  0
 14 15  1  0
 14 13  1  0
 16 15  1  0
 16 23  1  0
 16 17  1  0
 18 12  1  0
 18 17  1  0
 19 12  2  0
 20 21  2  0
 21 40  1  0
 22 21  1  0
 22 25  1  0
 23 20  1  0
 23 24  1  0
 24 22  2  0
 25 26  1  0
 26 27  2  0
 28 31  1  0
 28 27  1  0
 29 28  2  0
 30 29  1  0
 30 25  2  0
 31 32  1  0
 32 33  1  0
 33 34  2  0
 35 34  1  0
 35 39  1  0
 36 35  2  0
 37 32  2  0
 37 36  1  0
 38 37  1  0
 40 41  1  0
 41 44  1  0
 41 43  1  0
 42 40  2  0
 45 46  1  0
 45 20  1  0
 47 45  1  0
 48  2  1  0
 48 50  1  0
 49 48  2  0
 51 50  1  0
 52 63  2  0
 53 51  1  0
 53 58  1  0
 54 62  1  0
 54 64  1  0
 55 61  1  0
 55 57  1  0
 56 62  1  0
 57 56  1  0
 58 57  2  0
 59 53  2  0
 60 59  1  0
 60 55  2  0
 61 54  1  0
 62 52  1  0
 64 66  2  0
 65 64  1  0
 67 65  1  0
 68 77  2  0
 68 73  1  0
 69 65  1  0
 69 73  1  0
 70 69  1  0
 71 72  1  0
 71 70  1  0
 72 68  1  0
 73 74  2  0
 74 75  1  0
 76 75  2  0
 77 76  1  0
 78 52  1  0
 78 83  1  0
 78 79  1  0
 79 82  1  1
 79 80  1  0
 81 79  1  0
 83 86  1  0
 84 88  1  0
 84 83  1  0
 85 84  2  0
 88 87  1  0
 90 88  1  0
 90 91  1  0
 90 89  1  0
M  ISO  4  11 100  12 100  50 101  51 101
M  END
>  <TORSDO>  (42) 
F 20

>  <SCORE>  (42) 
-13.951

>  <name>  (42) 
41

>  <ligand_id>  (42) 
41

>  <original_smiles>  (42) 
[H]C(C(=O)N1C([H])([H])C([H])([H])C([H])([H])C([H])(n2nc(-c3c([H])c([H])c(Oc4c([H])c([H])c(F)c([H])c4F)c([H])c3[H])c(C(=O)N([H])[H])c2N([H])[H])C1([H])[H])=C([H])c1c([H])c(C([H])=C([H])C(=O)C([H])([H])Oc2c([H])c([H])c3c(c2[H])C([H])([H])N(C(=O)C([H])(N([H])C(=O)C([H])(N([H])C([H])([H])[H])C([H])([H])[H])C(C([H])([H])[H])(C([H])([H])[H])C([H])([H])[H])C([H])(C(=O)N([H])C2([H])c4c([H])c([H])c([H])c([H])c4C([H])([H])C([H])([H])C2([H])[H])C3([H])[H])c([H])c(C([H])([H])[H])c1[H]

>  <smiles>  (42) 
[H]C(C(=O)N1C([H])([H])C([H])([H])C([H])([H])C([H])(n2nc(-c3c([H])c([H])c(Oc4c([H])c([H])c(F)c([H])c4F)c([H])c3[H])c(C(=O)N([H])[H])c2N([H])[H])C1([H])[H])=C([H])c1c([H])c(C([H])=C([H])C(=O)C([H])([H])Oc2c([H])c([H])c3c(c2[H])C([H])([H])N(C(=O)C([H])(N([H])C(=O)C([H])(N([H])C([H])([H])[H])C([H])([H])[H])C(C([H])([H])[H])(C([H])([H])[H])C([H])([H])[H])C([H])(C(=O)N([H])C2([H])c4c([H])c([H])c([H])c([H])c4C([H])([H])C([H])([H])C2([H])[H])C3([H])[H])c([H])c(C([H])([H])[H])c1[H]

$$$$
42:0:0
     RDKit          3D

 92100  0  0  1  0  0  0  0  0999 V2000
  -29.9220  -20.5000   21.7260 C   0  0  0  0  0  3  0  0  0  0  0  0
  -28.9390  -20.9850   20.9440 C   0  0  0  0  0  3  0  0  0  0  0  0
  -32.7010  -17.9550   21.8760 C   0  0  0  0  0  3  0  0  0  0  0  0
  -31.9680  -19.1500   21.9760 C   0  0  0  0  0  3  0  0  0  0  0  0
  -32.0770  -16.7820   21.4200 C   0  0  0  0  0  3  0  0  0  0  0  0
  -29.9760  -18.0030   21.1630 C   0  0  0  0  0  3  0  0  0  0  0  0
  -30.6010  -19.1910   21.6260 C   0  0  0  0  0  0  0  0  0  0  0  0
  -30.7120  -16.7940   21.0510 C   0  0  0  0  0  0  0  0  0  0  0  0
  -30.5480  -14.7230   19.7090 C   0  0  0  0  0  0  0  0  0  0  0  0
  -30.1730  -12.5960   18.5060 C   0  0  0  0  0  2  0  0  0  0  0  0
  -29.0870  -12.7490   17.4250 C   0  0  0  0  0  2  0  0  0  0  0  0
  -27.6870  -12.5220   18.0220 C   0  0  0  0  0  2  0  0  0  0  0  0
  -27.4530  -13.3420   19.3170 C   0  0  0  0  0  3  0  0  0  0  0  0
  -28.6350  -13.1750   20.2980 C   0  0  0  0  0  2  0  0  0  0  0  0
  -29.8750  -13.5460   19.5910 N   0  0  0  0  0  0  0  0  0  0  0  0
  -31.5110  -15.0090   18.9900 O   0  0  0  0  0  0  0  0  0  0  0  0
  -30.0740  -15.5920   20.6250 N   0  0  0  0  0  0  0  0  0  0  0  0
  -29.1990  -15.3510   21.0660 H   0  0  0  0  0  0  0  0  0  0  0  0
  -25.1330  -13.8240   20.3230 C   0  0  0  0  0  0  0  0  0  0  0  0
  -24.1500  -12.9950   20.7930 C   0  0  0  0  0  0  0  0  0  0  0  0
  -24.6600  -11.6670   20.6670 C   0  0  0  0  0  0  0  0  0  0  0  0
  -26.1790  -12.9970   19.9450 N   0  0  0  0  0  0  0  0  0  0  0  0
  -25.9040  -11.6930   20.2050 N   0  0  0  0  0  0  0  0  0  0  0  0
  -24.0160  -10.3680   20.9030 C   0  0  0  0  0  0  0  0  0  0  0  0
  -24.4770   -9.4860   21.9050 C   0  0  0  0  0  3  0  0  0  0  0  0
  -23.8280   -8.2520   22.1260 C   0  0  0  0  0  3  0  0  0  0  0  0
  -22.7060   -7.8900   21.3440 C   0  0  0  0  0  0  0  0  0  0  0  0
  -22.2640   -8.7620   20.3330 C   0  0  0  0  0  3  0  0  0  0  0  0
  -22.9150   -9.9880   20.1110 C   0  0  0  0  0  3  0  0  0  0  0  0
  -22.0290   -6.7010   21.4700 O   0  0  0  0  0  0  0  0  0  0  0  0
  -21.8550   -6.0970   22.6890 C   0  0  0  0  0  0  0  0  0  0  0  0
  -21.1690   -6.7340   23.7460 C   0  0  0  0  0  3  0  0  0  0  0  0
  -20.9540   -6.0510   24.9580 C   0  0  0  0  0  3  0  0  0  0  0  0
  -21.4140   -4.7290   25.1150 C   0  0  0  0  0  0  0  0  0  0  0  0
  -22.0940   -4.0920   24.0630 C   0  0  0  0  0  3  0  0  0  0  0  0
  -22.3120   -4.7730   22.8520 C   0  0  0  0  0  0  0  0  0  0  0  0
  -22.9470   -4.1470   21.8330 F   0  0  0  0  0  0  0  0  0  0  0  0
  -21.2020   -4.0690   26.2770 F   0  0  0  0  0  0  0  0  0  0  0  0
  -22.7780  -13.4020   21.2470 C   0  0  0  0  0  0  0  0  0  0  0  0
  -22.2000  -12.6640   22.1890 N   0  0  0  0  0  0  0  0  0  0  0  0
  -22.2280  -14.4080   20.8010 O   0  0  0  0  0  0  0  0  0  0  0  0
  -22.6590  -11.8490   22.5680 H   0  0  0  0  0  0  0  0  0  0  0  0
  -21.2870  -12.9180   22.5370 H   0  0  0  0  0  0  0  0  0  0  0  0
  -25.2200  -15.2040   20.1680 N   0  0  0  0  0  0  0  0  0  0  0  0
  -24.4490  -15.8270   20.3820 H   0  0  0  0  0  0  0  0  0  0  0  0
  -26.0120  -15.6830   19.7570 H   0  0  0  0  0  0  0  0  0  0  0  0
  -28.2860  -22.3470   21.1570 C   0  0  0  0  0  2  0  0  0  0  0  0
  -28.3900  -23.2860   19.9300 C   0  0  0  0  0  2  0  0  0  0  0  0
  -27.8850  -24.7210   20.1790 C   0  0  0  0  0  0  0  0  0  0  0  0
  -27.3200  -25.0300   21.2350 O   0  0  0  0  0  0  0  0  0  0  0  0
  -28.1080  -25.7490   19.0510 C   0  0  0  0  0  2  0  0  0  0  0  0
  -28.0810  -27.1040   19.5330 O   0  0  0  0  0  0  0  0  0  0  0  0
  -24.5350  -31.8030   23.5030 C   0  0  0  0  0  0  0  0  0  0  0  0
  -26.8870  -27.7820   19.6900 C   0  0  0  0  0  0  0  0  0  0  0  0
  -23.1910  -30.6250   21.7920 C   0  0  0  0  0  3  0  0  0  0  0  0
  -24.5120  -29.2790   20.0750 C   0  0  0  0  0  0  0  0  0  0  0  0
  -25.6950  -31.0030   21.4460 C   0  0  0  0  0  2  0  0  0  0  0  0
  -25.7150  -29.7220   20.6360 C   0  0  0  0  0  0  0  0  0  0  0  0
  -26.9020  -28.9810   20.4390 C   0  0  0  0  0  3  0  0  0  0  0  0
  -25.6590  -27.3480   19.1350 C   0  0  0  0  0  3  0  0  0  0  0  0
  -24.4770  -28.0910   19.3250 C   0  0  0  0  0  3  0  0  0  0  0  0
  -23.2850  -30.1260   20.3250 C   0  0  0  0  0  2  0  0  0  0  0  0
  -24.4980  -31.1510   22.3060 N   0  0  0  0  0  0  0  0  0  0  0  0
  -23.5020  -32.0070   24.1540 O   0  0  0  0  0  0  0  0  0  0  0  0
  -22.6050  -29.4900   22.6630 C   0  0  0  0  0  0  0  0  0  0  0  0
  -21.3090  -29.1970   22.4680 N   0  0  0  0  0  0  0  0  0  0  0  0
  -23.3130  -28.8800   23.4690 O   0  0  0  0  0  0  0  0  0  0  0  0
  -20.7970  -29.7520   21.7960 H   0  0  0  0  0  0  0  0  0  0  0  0
  -18.0960  -27.5500   22.6060 C   0  0  0  0  0  0  0  0  0  0  0  0
  -20.5530  -28.1440   23.1440 C   0  0  0  0  0  3  0  0  0  0  0  0
  -20.9070  -26.7510   22.5730 C   0  0  0  0  0  2  0  0  0  0  0  0
  -19.9690  -26.3030   21.4480 C   0  0  0  0  0  2  0  0  0  0  0  0
  -18.5220  -26.2500   21.9460 C   0  0  0  0  0  2  0  0  0  0  0  0
  -19.0510  -28.4470   23.1550 C   0  0  0  0  0  0  0  0  0  0  0  0
  -18.6060  -29.6580   23.7240 C   0  0  0  0  0  3  0  0  0  0  0  0
  -17.2360  -29.9790   23.7560 C   0  0  0  0  0  3  0  0  0  0  0  0
  -16.2920  -29.0810   23.2270 C   0  0  0  0  0  3  0  0  0  0  0  0
  -16.7230  -27.8680   22.6560 C   0  0  0  0  0  3  0  0  0  0  0  0
  -25.8720  -32.3460   24.0970 C   0  0  0  0  0  3  0  0  0  0  0  0
  -25.6580  -33.7500   24.4650 N   0  0  0  0  0  0  0  0  0  0  0  0
  -26.0300  -34.7970   23.7160 C   0  0  0  0  0  0  0  0  0  0  0  0
  -26.6680  -34.6760   22.6650 O   0  0  0  0  0  0  0  0  0  0  0  0
  -25.0920  -33.9230   25.2830 H   0  0  0  0  0  0  0  0  0  0  0  0
  -24.3980  -36.6890   23.4450 C   0  0  0  0  0  1  0  0  0  0  0  0
  -25.6370  -36.2000   24.2120 C   0  0  0  0  0  3  0  0  0  0  0  0
  -27.8350  -36.9530   25.0020 C   0  0  0  0  0  1  0  0  0  0  0  0
  -26.7230  -37.1960   24.0880 N   0  0  0  0  0  0  0  0  0  0  0  0
  -26.3730  -38.1350   24.2580 H   0  0  0  0  0  0  0  0  0  0  0  0
  -26.3840  -31.5150   25.3380 C   0  0  1  0  0  0  0  0  0  0  0  0
  -25.2950  -31.2560   26.4040 C   0  0  0  0  0  1  0  0  0  0  0  0
  -26.9380  -30.1450   24.8840 C   0  0  0  0  0  1  0  0  0  0  0  0
  -27.5560  -32.2600   26.0210 C   0  0  0  0  0  1  0  0  0  0  0  0
  2 47  1  0
  2  1  2  0
  3  4  1  0
  5  3  2  0
  6  7  1  0
  7  1  1  0
  7  4  2  0
  8  6  2  0
  8  5  1  0
  9 17  1  0
 10 15  1  0
 11 12  1  0
 11 10  1  0
 13 12  1  0
 13 22  1  0
 13 14  1  0
 15  9  1  0
 15 14  1  0
 16  9  2  0
 17  8  1  0
 17 18  1  0
 19 20  2  0
 20 39  1  0
 21 20  1  0
 21 24  1  0
 22 23  1  0
 22 19  1  0
 23 21  2  0
 24 25  1  0
 25 26  2  0
 27 30  1  0
 27 26  1  0
 28 27  2  0
 29 28  1  0
 29 24  2  0
 30 31  1  0
 31 36  2  0
 31 32  1  0
 32 33  2  0
 33 34  1  0
 34 38  1  0
 35 34  2  0
 36 35  1  0
 37 36  1  0
 39 40  1  0
 40 43  1  0
 40 42  1  0
 41 39  2  0
 44 19  1  0
 44 45  1  0
 46 44  1  0
 48 49  1  0
 48 47  1  0
 49 50  2  0
 51 52  1  0
 51 49  1  0
 52 54  1  0
 53 64  2  0
 54 59  1  0
 55 63  1  0
 55 65  1  0
 56 62  1  0
 56 58  1  0
 57 63  1  0
 58 57  1  0
 59 58  2  0
 60 61  1  0
 60 54  2  0
 61 56  2  0
 62 55  1  0
 63 53  1  0
 65 67  2  0
 66 65  1  0
 68 66  1  0
 69 78  2  0
 69 74  1  0
 70 66  1  0
 70 74  1  0
 71 70  1  0
 72 73  1  0
 72 71  1  0
 73 69  1  0
 74 75  2  0
 75 76  1  0
 77 76  2  0
 78 77  1  0
 79 53  1  0
 79 80  1  0
 79 89  1  0
 80 83  1  0
 81 85  1  0
 81 80  1  0
 82 81  2  0
 85 84  1  0
 87 85  1  0
 87 88  1  0
 87 86  1  0
 89 92  1  1
 89 90  1  0
 91 89  1  0
M  ISO  4   9 100  17 100  51 101  52 101
M  END
>  <TORSDO>  (43) 
F 21

>  <SCORE>  (43) 
-10.184

>  <name>  (43) 
42

>  <ligand_id>  (43) 
42

>  <original_smiles>  (43) 
[H]C(=C([H])C([H])([H])C([H])([H])C(=O)C([H])([H])Oc1c([H])c([H])c2c(c1[H])C([H])([H])N(C(=O)C([H])(N([H])C(=O)C([H])(N([H])C([H])([H])[H])C([H])([H])[H])C(C([H])([H])[H])(C([H])([H])[H])C([H])([H])[H])C([H])(C(=O)N([H])C1([H])c3c([H])c([H])c([H])c([H])c3C([H])([H])C([H])([H])C1([H])[H])C2([H])[H])c1c([H])c([H])c([H])c(N([H])C(=O)N2C([H])([H])C([H])([H])C([H])([H])C([H])(n3nc(-c4c([H])c([H])c(Oc5c([H])c([H])c(F)c([H])c5F)c([H])c4[H])c(C(=O)N([H])[H])c3N([H])[H])C2([H])[H])c1[H]

>  <smiles>  (43) 
[H]C(=C([H])C([H])([H])C([H])([H])C(=O)C([H])([H])Oc1c([H])c([H])c2c(c1[H])C([H])([H])N(C(=O)C([H])(N([H])C(=O)C([H])(N([H])C([H])([H])[H])C([H])([H])[H])C(C([H])([H])[H])(C([H])([H])[H])C([H])([H])[H])C([H])(C(=O)N([H])C1([H])c3c([H])c([H])c([H])c([H])c3C([H])([H])C([H])([H])C1([H])[H])C2([H])[H])c1c([H])c([H])c([H])c(N([H])C(=O)N2C([H])([H])C([H])([H])C([H])([H])C([H])(n3nc(-c4c([H])c([H])c(Oc5c([H])c([H])c(F)c([H])c5F)c([H])c4[H])c(C(=O)N([H])[H])c3N([H])[H])C2([H])[H])c1[H]

$$$$
43:0:0
     RDKit          3D

 91 99  0  0  1  0  0  0  0  0999 V2000
  -29.4560  -21.4450   18.9930 C   0  0  0  0  0  3  0  0  0  0  0  0
  -30.8340  -19.2420   19.0890 C   0  0  0  0  0  3  0  0  0  0  0  0
  -31.0230  -17.8610   19.3960 C   0  0  0  0  0  3  0  0  0  0  0  0
  -28.9520  -17.8840   20.6230 C   0  0  0  0  0  3  0  0  0  0  0  0
  -29.6960  -19.9790   19.5190 C   0  0  0  0  0  0  0  0  0  0  0  0
  -28.7530  -19.2610   20.3070 C   0  0  0  0  0  0  0  0  0  0  0  0
  -30.0710  -17.1400   20.1650 C   0  0  0  0  0  0  0  0  0  0  0  0
  -27.4850  -19.9370   20.7920 C   0  0  0  0  0  1  0  0  0  0  0  0
  -30.8810  -14.6840   19.9830 C   0  0  0  0  0  0  0  0  0  0  0  0
  -30.6010  -12.4630   18.9170 C   0  0  0  0  0  2  0  0  0  0  0  0
  -29.5860  -12.6330   17.7630 C   0  0  0  0  0  2  0  0  0  0  0  0
  -28.1400  -12.4790   18.2750 C   0  0  0  0  0  2  0  0  0  0  0  0
  -27.8660  -13.3230   19.5490 C   0  0  0  0  0  3  0  0  0  0  0  0
  -28.9850  -13.1250   20.5970 C   0  0  0  0  0  2  0  0  0  0  0  0
  -30.2680  -13.4600   19.9520 N   0  0  0  0  0  0  0  0  0  0  0  0
  -32.0050  -14.8570   19.5020 O   0  0  0  0  0  0  0  0  0  0  0  0
  -30.1150  -15.7110   20.4580 N   0  0  0  0  0  0  0  0  0  0  0  0
  -29.3080  -15.3740   20.9620 H   0  0  0  0  0  0  0  0  0  0  0  0
  -25.5330  -13.9380   20.4410 C   0  0  0  0  0  0  0  0  0  0  0  0
  -24.4750  -13.1710   20.8460 C   0  0  0  0  0  0  0  0  0  0  0  0
  -24.9080  -11.8140   20.7340 C   0  0  0  0  0  0  0  0  0  0  0  0
  -26.5420  -13.0490   20.1050 N   0  0  0  0  0  0  0  0  0  0  0  0
  -26.1740  -11.7640   20.3400 N   0  0  0  0  0  0  0  0  0  0  0  0
  -24.1720  -10.5570   20.9220 C   0  0  0  0  0  0  0  0  0  0  0  0
  -24.5620   -9.6080   21.8930 C   0  0  0  0  0  3  0  0  0  0  0  0
  -23.8240   -8.4170   22.0660 C   0  0  0  0  0  3  0  0  0  0  0  0
  -22.6830   -8.1650   21.2680 C   0  0  0  0  0  0  0  0  0  0  0  0
  -22.3130   -9.1030   20.2870 C   0  0  0  0  0  3  0  0  0  0  0  0
  -23.0510  -10.2870   20.1120 C   0  0  0  0  0  3  0  0  0  0  0  0
  -21.9220   -7.0230   21.3470 O   0  0  0  0  0  0  0  0  0  0  0  0
  -21.7230   -6.3750   22.5400 C   0  0  0  0  0  0  0  0  0  0  0  0
  -21.0750   -7.0000   23.6290 C   0  0  0  0  0  3  0  0  0  0  0  0
  -20.8260   -6.2740   24.8100 C   0  0  0  0  0  3  0  0  0  0  0  0
  -21.2170   -4.9240   24.9040 C   0  0  0  0  0  0  0  0  0  0  0  0
  -21.8570   -4.3000   23.8210 C   0  0  0  0  0  3  0  0  0  0  0  0
  -22.1080   -5.0230   22.6410 C   0  0  0  0  0  0  0  0  0  0  0  0
  -22.7060   -4.4100   21.5910 F   0  0  0  0  0  0  0  0  0  0  0  0
  -20.9720   -4.2240   26.0370 F   0  0  0  0  0  0  0  0  0  0  0  0
  -23.1070  -13.6610   21.2260 C   0  0  0  0  0  0  0  0  0  0  0  0
  -22.4190  -12.9420   22.1050 N   0  0  0  0  0  0  0  0  0  0  0  0
  -22.6590  -14.7160   20.7780 O   0  0  0  0  0  0  0  0  0  0  0  0
  -22.7950  -12.0880   22.4890 H   0  0  0  0  0  0  0  0  0  0  0  0
  -21.5040  -13.2520   22.4000 H   0  0  0  0  0  0  0  0  0  0  0  0
  -25.7130  -15.3120   20.3110 N   0  0  0  0  0  0  0  0  0  0  0  0
  -24.9690  -15.9730   20.5040 H   0  0  0  0  0  0  0  0  0  0  0  0
  -26.5480  -15.7510   19.9460 H   0  0  0  0  0  0  0  0  0  0  0  0
  -29.3340  -22.6760   19.9860 C   0  0  0  0  0  3  0  0  0  0  0  0
  -28.9880  -24.0780   19.3560 C   0  0  0  0  0  0  0  0  0  0  0  0
  -29.1490  -24.2780   18.1480 O   0  0  0  0  0  0  0  0  0  0  0  0
  -28.4090  -25.2110   20.2790 C   0  0  0  0  0  2  0  0  0  0  0  0
  -28.5140  -26.5880   19.7670 O   0  0  0  0  0  0  0  0  0  0  0  0
  -24.6990  -31.7650   23.0400 C   0  0  0  0  0  0  0  0  0  0  0  0
  -27.3620  -27.3720   19.8200 C   0  0  0  0  0  0  0  0  0  0  0  0
  -23.4970  -30.3810   21.3820 C   0  0  0  0  0  3  0  0  0  0  0  0
  -24.9570  -28.8950   19.8990 C   0  0  0  0  0  0  0  0  0  0  0  0
  -26.0220  -30.7670   21.1650 C   0  0  0  0  0  2  0  0  0  0  0  0
  -26.1230  -29.4080   20.4840 C   0  0  0  0  0  0  0  0  0  0  0  0
  -27.3320  -28.6590   20.4320 C   0  0  0  0  0  3  0  0  0  0  0  0
  -26.1760  -26.8960   19.2250 C   0  0  0  0  0  3  0  0  0  0  0  0
  -24.9820  -27.6430   19.2630 C   0  0  0  0  0  3  0  0  0  0  0  0
  -23.7030  -29.7400   19.9840 C   0  0  0  0  0  2  0  0  0  0  0  0
  -24.7590  -30.9870   21.9200 N   0  0  0  0  0  0  0  0  0  0  0  0
  -23.6190  -32.0090   23.5980 O   0  0  0  0  0  0  0  0  0  0  0  0
  -22.8710  -29.3270   22.3280 C   0  0  0  0  0  0  0  0  0  0  0  0
  -21.5440  -29.1450   22.2290 N   0  0  0  0  0  0  0  0  0  0  0  0
  -23.5770  -28.6780   23.1040 O   0  0  0  0  0  0  0  0  0  0  0  0
  -21.0350  -29.7230   21.5750 H   0  0  0  0  0  0  0  0  0  0  0  0
  -18.1810  -27.9560   22.8240 C   0  0  0  0  0  0  0  0  0  0  0  0
  -20.7500  -28.1800   22.9900 C   0  0  0  0  0  3  0  0  0  0  0  0
  -20.8130  -26.7770   22.3430 C   0  0  0  0  0  2  0  0  0  0  0  0
  -19.6640  -26.5130   21.3650 C   0  0  0  0  0  2  0  0  0  0  0  0
  -18.3140  -26.6400   22.0770 C   0  0  0  0  0  2  0  0  0  0  0  0
  -19.3260  -28.6870   23.2380 C   0  0  0  0  0  0  0  0  0  0  0  0
  -19.1470  -29.9190   23.9000 C   0  0  0  0  0  3  0  0  0  0  0  0
  -17.8560  -30.4230   24.1510 C   0  0  0  0  0  3  0  0  0  0  0  0
  -16.7260  -29.6880   23.7520 C   0  0  0  0  0  3  0  0  0  0  0  0
  -16.8900  -28.4550   23.0940 C   0  0  0  0  0  3  0  0  0  0  0  0
  -25.9800  -32.4040   23.6590 C   0  0  0  0  0  3  0  0  0  0  0  0
  -26.5490  -31.5920   24.8880 C   0  0  1  0  0  0  0  0  0  0  0  0
  -25.4860  -31.2720   25.9650 C   0  0  0  0  0  1  0  0  0  0  0  0
  -27.1660  -30.2530   24.4220 C   0  0  0  0  0  1  0  0  0  0  0  0
  -27.6880  -32.3930   25.5630 C   0  0  0  0  0  1  0  0  0  0  0  0
  -25.6420  -33.7760   24.0600 N   0  0  0  0  0  0  0  0  0  0  0  0
  -25.9170  -34.8710   23.3370 C   0  0  0  0  0  0  0  0  0  0  0  0
  -26.5550  -34.8320   22.2810 O   0  0  0  0  0  0  0  0  0  0  0  0
  -25.0690  -33.8780   24.8840 H   0  0  0  0  0  0  0  0  0  0  0  0
  -24.1260  -36.6230   23.1190 C   0  0  0  0  0  1  0  0  0  0  0  0
  -25.4060  -36.2220   23.8690 C   0  0  0  0  0  3  0  0  0  0  0  0
  -27.5320  -37.1480   24.6790 C   0  0  0  0  0  1  0  0  0  0  0  0
  -26.4030  -37.3100   23.7660 N   0  0  0  0  0  0  0  0  0  0  0  0
  -25.9720  -38.2130   23.9510 H   0  0  0  0  0  0  0  0  0  0  0  0
  1  5  1  0
  1 47  2  0
  2  3  2  0
  2  5  1  0
  3  7  1  0
  5  6  2  0
  6  4  1  0
  6  8  1  0
  7 17  1  0
  7  4  2  0
  9 17  1  0
 10 15  1  0
 11 12  1  0
 11 10  1  0
 13 12  1  0
 13 22  1  0
 13 14  1  0
 15  9  1  0
 15 14  1  0
 16  9  2  0
 17 18  1  0
 19 20  2  0
 20 39  1  0
 21 20  1  0
 21 24  1  0
 22 23  1  0
 22 19  1  0
 23 21  2  0
 24 25  1  0
 25 26  2  0
 27 30  1  0
 27 26  1  0
 28 27  2  0
 29 28  1  0
 29 24  2  0
 30 31  1  0
 31 36  2  0
 31 32  1  0
 32 33  2  0
 33 34  1  0
 34 38  1  0
 35 34  2  0
 36 35  1  0
 37 36  1  0
 39 40  1  0
 40 43  1  0
 40 42  1  0
 41 39  2  0
 44 19  1  0
 44 45  1  0
 46 44  1  0
 48 47  1  0
 48 50  1  0
 49 48  2  0
 51 53  1  0
 51 50  1  0
 52 63  2  0
 53 58  1  0
 54 62  1  0
 54 64  1  0
 55 61  1  0
 55 57  1  0
 56 62  1  0
 57 56  1  0
 58 57  2  0
 59 60  1  0
 59 53  2  0
 60 55  2  0
 61 54  1  0
 62 52  1  0
 64 66  2  0
 65 64  1  0
 67 65  1  0
 68 77  2  0
 68 73  1  0
 69 65  1  0
 69 73  1  0
 70 69  1  0
 71 72  1  0
 71 70  1  0
 72 68  1  0
 73 74  2  0
 74 75  1  0
 76 75  2  0
 77 76  1  0
 78 52  1  0
 78 83  1  0
 78 79  1  0
 79 82  1  1
 79 80  1  0
 81 79  1  0
 83 86  1  0
 84 88  1  0
 84 83  1  0
 85 84  2  0
 88 87  1  0
 90 88  1  0
 90 91  1  0
 90 89  1  0
M  ISO  4   9 100  17 100  50 101  51 101
M  END
>  <TORSDO>  (44) 
F 20

>  <SCORE>  (44) 
-12.475

>  <name>  (44) 
43

>  <ligand_id>  (44) 
43

>  <original_smiles>  (44) 
[H]c1c([H])c([H])c2c(c1[H])C([H])([H])C([H])([H])C([H])([H])C2([H])N([H])C(=O)C1([H])N(C(=O)C([H])(N([H])C(=O)C([H])(N([H])C([H])([H])[H])C([H])([H])[H])C(C([H])([H])[H])(C([H])([H])[H])C([H])([H])[H])C([H])([H])c2c([H])c(OC([H])([H])C(=O)C([H])([H])C([H])([H])c3c([H])c([H])c(N([H])C(=O)N4C([H])([H])C([H])([H])C([H])([H])C([H])(n5nc(-c6c([H])c([H])c(Oc7c([H])c([H])c(F)c([H])c7F)c([H])c6[H])c(C(=O)N([H])[H])c5N([H])[H])C4([H])[H])c([H])c3C([H])([H])[H])c([H])c([H])c2C1([H])[H]

>  <smiles>  (44) 
[H]c1c([H])c([H])c2c(c1[H])C([H])([H])C([H])([H])C([H])([H])C2([H])N([H])C(=O)C1([H])N(C(=O)C([H])(N([H])C(=O)C([H])(N([H])C([H])([H])[H])C([H])([H])[H])C(C([H])([H])[H])(C([H])([H])[H])C([H])([H])[H])C([H])([H])c2c([H])c(OC([H])([H])C(=O)C([H])([H])C([H])([H])c3c([H])c([H])c(N([H])C(=O)N4C([H])([H])C([H])([H])C([H])([H])C([H])(n5nc(-c6c([H])c([H])c(Oc7c([H])c([H])c(F)c([H])c7F)c([H])c6[H])c(C(=O)N([H])[H])c5N([H])[H])C4([H])[H])c([H])c3C([H])([H])[H])c([H])c([H])c2C1([H])[H]

$$$$
44:0:0
     RDKit          3D

 91 99  0  0  1  0  0  0  0  0999 V2000
  -29.2570  -18.2100   20.7540 C   0  0  0  0  0  3  0  0  0  0  0  0
  -31.3340  -18.0620   19.5610 C   0  0  0  0  0  3  0  0  0  0  0  0
  -29.2340  -19.6310   20.5940 C   0  0  0  0  0  0  0  0  0  0  0  0
  -30.3040  -17.3830   20.2620 C   0  0  0  0  0  0  0  0  0  0  0  0
  -30.2640  -20.3090   19.8750 C   0  0  0  0  0  0  0  0  0  0  0  0
  -31.3120  -19.4790   19.3790 C   0  0  0  0  0  0  0  0  0  0  0  0
  -28.1200  -20.3990   21.2860 C   0  0  0  0  0  1  0  0  0  0  0  0
  -32.3450  -20.0600   18.7220 F   0  0  0  0  0  0  0  0  0  0  0  0
  -31.0100  -14.8670   20.1540 C   0  0  0  0  0  0  0  0  0  0  0  0
  -30.7970  -12.5510   19.2690 C   0  0  0  0  0  2  0  0  0  0  0  0
  -29.8650  -12.5880   18.0360 C   0  0  0  0  0  2  0  0  0  0  0  0
  -28.3860  -12.4790   18.4590 C   0  0  0  0  0  2  0  0  0  0  0  0
  -28.0240  -13.4430   19.6180 C   0  0  0  0  0  3  0  0  0  0  0  0
  -29.0690  -13.3590   20.7560 C   0  0  0  0  0  2  0  0  0  0  0  0
  -30.3900  -13.6450   20.1740 N   0  0  0  0  0  0  0  0  0  0  0  0
  -32.1640  -14.9940   19.7310 O   0  0  0  0  0  0  0  0  0  0  0  0
  -30.2240  -15.9360   20.5010 N   0  0  0  0  0  0  0  0  0  0  0  0
  -29.3580  -15.6360   20.9190 H   0  0  0  0  0  0  0  0  0  0  0  0
  -25.6900  -14.1490   20.4290 C   0  0  0  0  0  0  0  0  0  0  0  0
  -24.5760  -13.4240   20.7610 C   0  0  0  0  0  0  0  0  0  0  0  0
  -24.9420  -12.0510   20.6150 C   0  0  0  0  0  0  0  0  0  0  0  0
  -26.6650  -13.2190   20.1060 N   0  0  0  0  0  0  0  0  0  0  0  0
  -26.2210  -11.9480   20.2770 N   0  0  0  0  0  0  0  0  0  0  0  0
  -24.1320  -10.8300   20.7220 C   0  0  0  0  0  0  0  0  0  0  0  0
  -24.5380   -9.7420   21.5250 C   0  0  0  0  0  3  0  0  0  0  0  0
  -23.7320   -8.5870   21.6270 C   0  0  0  0  0  3  0  0  0  0  0  0
  -22.5060   -8.5130   20.9240 C   0  0  0  0  0  0  0  0  0  0  0  0
  -22.1180   -9.5890   20.1070 C   0  0  0  0  0  3  0  0  0  0  0  0
  -22.9230  -10.7360   20.0030 C   0  0  0  0  0  3  0  0  0  0  0  0
  -21.6720   -7.4220   20.9410 O   0  0  0  0  0  0  0  0  0  0  0  0
  -21.6730   -6.5310   21.9850 C   0  0  0  0  0  0  0  0  0  0  0  0
  -21.3680   -6.9300   23.3040 C   0  0  0  0  0  3  0  0  0  0  0  0
  -21.3120   -5.9710   24.3350 C   0  0  0  0  0  3  0  0  0  0  0  0
  -21.5510   -4.6140   24.0480 C   0  0  0  0  0  0  0  0  0  0  0  0
  -21.8500   -4.2140   22.7340 C   0  0  0  0  0  3  0  0  0  0  0  0
  -21.9080   -5.1700   21.7040 C   0  0  0  0  0  0  0  0  0  0  0  0
  -22.1750   -4.7770   20.4360 F   0  0  0  0  0  0  0  0  0  0  0  0
  -21.4910   -3.6900   25.0360 F   0  0  0  0  0  0  0  0  0  0  0  0
  -23.2200  -13.9730   21.0990 C   0  0  0  0  0  0  0  0  0  0  0  0
  -22.4610  -13.2640   21.9280 N   0  0  0  0  0  0  0  0  0  0  0  0
  -22.8450  -15.0610   20.6670 O   0  0  0  0  0  0  0  0  0  0  0  0
  -22.7780  -12.3800   22.3000 H   0  0  0  0  0  0  0  0  0  0  0  0
  -21.5510  -13.6100   22.1960 H   0  0  0  0  0  0  0  0  0  0  0  0
  -25.9460  -15.5140   20.3540 N   0  0  0  0  0  0  0  0  0  0  0  0
  -25.2220  -16.2060   20.5180 H   0  0  0  0  0  0  0  0  0  0  0  0
  -26.8070  -15.9180   20.0080 H   0  0  0  0  0  0  0  0  0  0  0  0
  -30.4070  -21.7130   19.7650 O   0  0  0  0  0  0  0  0  0  0  0  0
  -29.3220  -22.6290   19.3990 C   0  0  0  0  0  2  0  0  0  0  0  0
  -29.6230  -24.1730   19.6760 C   0  0  0  0  0  3  0  0  0  0  0  0
  -28.4410  -25.2070   19.4400 C   0  0  0  0  0  3  0  0  0  0  0  0
  -28.5970  -26.6330   19.8160 O   0  0  0  0  0  0  0  0  0  0  0  0
  -24.6690  -31.6610   23.1930 C   0  0  0  0  0  0  0  0  0  0  0  0
  -27.4420  -27.4350   19.8220 C   0  0  0  0  0  0  0  0  0  0  0  0
  -23.5110  -30.3310   21.4660 C   0  0  0  0  0  3  0  0  0  0  0  0
  -25.0120  -28.9450   19.9330 C   0  0  0  0  0  0  0  0  0  0  0  0
  -26.0350  -30.7650   21.2950 C   0  0  0  0  0  2  0  0  0  0  0  0
  -26.1660  -29.4380   20.5560 C   0  0  0  0  0  0  0  0  0  0  0  0
  -27.3830  -28.6960   20.4920 C   0  0  0  0  0  3  0  0  0  0  0  0
  -26.2600  -26.9970   19.1790 C   0  0  0  0  0  3  0  0  0  0  0  0
  -25.0610  -27.7290   19.2380 C   0  0  0  0  0  3  0  0  0  0  0  0
  -23.7430  -29.7630   20.0430 C   0  0  0  0  0  2  0  0  0  0  0  0
  -24.7570  -30.9330   22.0420 N   0  0  0  0  0  0  0  0  0  0  0  0
  -23.5790  -31.8610   23.7480 O   0  0  0  0  0  0  0  0  0  0  0  0
  -22.8970  -29.2250   22.3570 C   0  0  0  0  0  0  0  0  0  0  0  0
  -21.5740  -29.0160   22.2350 N   0  0  0  0  0  0  0  0  0  0  0  0
  -23.6080  -28.5600   23.1150 O   0  0  0  0  0  0  0  0  0  0  0  0
  -21.0580  -29.6090   21.6000 H   0  0  0  0  0  0  0  0  0  0  0  0
  -18.2400  -27.6950   22.6990 C   0  0  0  0  0  0  0  0  0  0  0  0
  -20.7940  -28.0020   22.9460 C   0  0  0  0  0  3  0  0  0  0  0  0
  -20.9240  -26.6200   22.2630 C   0  0  0  0  0  2  0  0  0  0  0  0
  -19.8120  -26.3450   21.2450 C   0  0  0  0  0  2  0  0  0  0  0  0
  -18.4380  -26.4060   21.9210 C   0  0  0  0  0  2  0  0  0  0  0  0
  -19.3460  -28.4530   23.1660 C   0  0  0  0  0  0  0  0  0  0  0  0
  -19.1060  -29.6620   23.8550 C   0  0  0  0  0  3  0  0  0  0  0  0
  -17.7910  -30.1150   24.0800 C   0  0  0  0  0  3  0  0  0  0  0  0
  -16.7010  -29.3520   23.6270 C   0  0  0  0  0  3  0  0  0  0  0  0
  -16.9250  -28.1450   22.9420 C   0  0  0  0  0  3  0  0  0  0  0  0
  -25.9310  -32.3010   23.8520 C   0  0  0  0  0  3  0  0  0  0  0  0
  -26.4260  -31.5190   25.1300 C   0  0  1  0  0  0  0  0  0  0  0  0
  -25.3140  -31.2720   26.1760 C   0  0  0  0  0  1  0  0  0  0  0  0
  -27.0170  -30.1450   24.7370 C   0  0  0  0  0  1  0  0  0  0  0  0
  -27.5660  -32.3090   25.8180 C   0  0  0  0  0  1  0  0  0  0  0  0
  -25.5980  -33.6900   24.1900 N   0  0  0  0  0  0  0  0  0  0  0  0
  -25.9160  -34.7550   23.4410 C   0  0  0  0  0  0  0  0  0  0  0  0
  -26.5920  -34.6690   22.4110 O   0  0  0  0  0  0  0  0  0  0  0  0
  -24.9980  -33.8300   24.9900 H   0  0  0  0  0  0  0  0  0  0  0  0
  -24.1510  -36.5140   23.1050 C   0  0  0  0  0  1  0  0  0  0  0  0
  -25.4060  -36.1320   23.9070 C   0  0  0  0  0  3  0  0  0  0  0  0
  -27.5180  -37.0640   24.7410 C   0  0  0  0  0  1  0  0  0  0  0  0
  -26.4160  -37.2050   23.7910 N   0  0  0  0  0  0  0  0  0  0  0  0
  -25.9910  -38.1170   23.9330 H   0  0  0  0  0  0  0  0  0  0  0  0
  2  4  1  0
  3  1  1  0
  3  7  1  0
  4 17  1  0
  4  1  2  0
  5  3  2  0
  6  2  2  0
  6  5  1  0
  8  6  1  0
  9 15  1  0
  9 17  1  0
 10 15  1  0
 11 12  1  0
 11 10  1  0
 13 12  1  0
 13 22  1  0
 13 14  1  0
 15 14  1  0
 16  9  2  0
 17 18  1  0
 19 20  2  0
 20 39  1  0
 21 24  1  0
 21 20  1  0
 22 23  1  0
 22 19  1  0
 23 21  2  0
 24 25  1  0
 25 26  2  0
 27 30  1  0
 27 26  1  0
 28 27  2  0
 29 28  1  0
 29 24  2  0
 30 31  1  0
 31 32  1  0
 32 33  2  0
 34 33  1  0
 34 38  1  0
 35 34  2  0
 36 31  2  0
 36 35  1  0
 37 36  1  0
 39 40  1  0
 40 43  1  0
 40 42  1  0
 41 39  2  0
 44 19  1  0
 44 45  1  0
 46 44  1  0
 47  5  1  0
 48 49  1  0
 48 47  1  0
 50 49  2  0
 50 51  1  0
 51 53  1  0
 52 63  2  0
 53 58  1  0
 54 62  1  0
 54 64  1  0
 55 61  1  0
 55 57  1  0
 56 62  1  0
 57 56  1  0
 58 57  2  0
 59 60  1  0
 59 53  2  0
 60 55  2  0
 61 54  1  0
 62 52  1  0
 64 66  2  0
 65 64  1  0
 67 65  1  0
 68 77  2  0
 68 73  1  0
 69 65  1  0
 69 73  1  0
 70 69  1  0
 71 72  1  0
 71 70  1  0
 72 68  1  0
 73 74  2  0
 74 75  1  0
 76 75  2  0
 77 76  1  0
 78 52  1  0
 78 83  1  0
 78 79  1  0
 79 82  1  1
 79 80  1  0
 81 79  1  0
 83 86  1  0
 84 88  1  0
 84 83  1  0
 85 84  2  0
 88 87  1  0
 90 88  1  0
 90 91  1  0
 90 89  1  0
M  ISO  4   9 100  17 100  50 101  51 101
M  END
>  <TORSDO>  (45) 
F 20

>  <SCORE>  (45) 
-12.159

>  <name>  (45) 
44

>  <ligand_id>  (45) 
44

>  <original_smiles>  (45) 
[H]c1c([H])c([H])c2c(c1[H])C([H])([H])C([H])([H])C([H])([H])C2([H])N([H])C(=O)C1([H])N(C(=O)C([H])(N([H])C(=O)C([H])(N([H])C([H])([H])[H])C([H])([H])[H])C(C([H])([H])[H])(C([H])([H])[H])C([H])([H])[H])C([H])([H])c2c([H])c(OC([H])([H])C([H])([H])C([H])([H])Oc3c(F)c([H])c(N([H])C(=O)N4C([H])([H])C([H])([H])C([H])([H])C([H])(n5nc(-c6c([H])c([H])c(Oc7c([H])c([H])c(F)c([H])c7F)c([H])c6[H])c(C(=O)N([H])[H])c5N([H])[H])C4([H])[H])c([H])c3C([H])([H])[H])c([H])c([H])c2C1([H])[H]

>  <smiles>  (45) 
[H]c1c([H])c([H])c2c(c1[H])C([H])([H])C([H])([H])C([H])([H])C2([H])N([H])C(=O)C1([H])N(C(=O)C([H])(N([H])C(=O)C([H])(N([H])C([H])([H])[H])C([H])([H])[H])C(C([H])([H])[H])(C([H])([H])[H])C([H])([H])[H])C([H])([H])c2c([H])c(OC([H])([H])C([H])([H])C([H])([H])Oc3c(F)c([H])c(N([H])C(=O)N4C([H])([H])C([H])([H])C([H])([H])C([H])(n5nc(-c6c([H])c([H])c(Oc7c([H])c([H])c(F)c([H])c7F)c([H])c6[H])c(C(=O)N([H])[H])c5N([H])[H])C4([H])[H])c([H])c3C([H])([H])[H])c([H])c([H])c2C1([H])[H]

$$$$
45:0:0
     RDKit          3D

 91 99  0  0  1  0  0  0  0  0999 V2000
  -30.1290  -21.6930   20.2470 C   0  0  0  0  0  3  0  0  0  0  0  0
  -29.1400  -22.6340   20.0960 C   0  0  0  0  0  3  0  0  0  0  0  0
  -31.2090  -19.3670   20.4240 C   0  0  0  0  0  3  0  0  0  0  0  0
  -31.1630  -17.9390   20.4850 C   0  0  0  0  0  3  0  0  0  0  0  0
  -28.8270  -19.4610   20.2450 C   0  0  0  0  0  3  0  0  0  0  0  0
  -30.0430  -20.1750   20.3070 C   0  0  0  0  0  0  0  0  0  0  0  0
  -28.7660  -18.0390   20.3180 C   0  0  0  0  0  0  0  0  0  0  0  0
  -29.9370  -17.2220   20.4310 C   0  0  0  0  0  0  0  0  0  0  0  0
  -27.3880  -17.4260   20.2350 C   0  0  0  0  0  1  0  0  0  0  0  0
  -30.5780  -14.7080   20.0610 C   0  0  0  0  0  0  0  0  0  0  0  0
  -30.2850  -12.5080   18.9340 C   0  0  0  0  0  2  0  0  0  0  0  0
  -29.2680  -12.6790   17.7850 C   0  0  0  0  0  2  0  0  0  0  0  0
  -27.8240  -12.5040   18.2990 C   0  0  0  0  0  2  0  0  0  0  0  0
  -27.5440  -13.3240   19.5850 C   0  0  0  0  0  3  0  0  0  0  0  0
  -28.6720  -13.1330   20.6260 C   0  0  0  0  0  2  0  0  0  0  0  0
  -29.9440  -13.4930   19.9800 N   0  0  0  0  0  0  0  0  0  0  0  0
  -31.7200  -14.8580   19.6170 O   0  0  0  0  0  0  0  0  0  0  0  0
  -29.8060  -15.7580   20.4920 N   0  0  0  0  0  0  0  0  0  0  0  0
  -28.9020  -15.4470   20.8110 H   0  0  0  0  0  0  0  0  0  0  0  0
  -25.1890  -13.8960   20.4510 C   0  0  0  0  0  0  0  0  0  0  0  0
  -24.1510  -13.1190   20.8760 C   0  0  0  0  0  0  0  0  0  0  0  0
  -24.6080  -11.7700   20.7770 C   0  0  0  0  0  0  0  0  0  0  0  0
  -26.2230  -13.0270   20.1400 N   0  0  0  0  0  0  0  0  0  0  0  0
  -25.8790  -11.7390   20.3930 N   0  0  0  0  0  0  0  0  0  0  0  0
  -23.8870  -10.5070   20.9690 C   0  0  0  0  0  0  0  0  0  0  0  0
  -24.3330   -9.5360   21.8910 C   0  0  0  0  0  3  0  0  0  0  0  0
  -23.6120   -8.3360   22.0700 C   0  0  0  0  0  3  0  0  0  0  0  0
  -22.4300   -8.1010   21.3280 C   0  0  0  0  0  0  0  0  0  0  0  0
  -22.0020   -9.0610   20.3940 C   0  0  0  0  0  3  0  0  0  0  0  0
  -22.7250  -10.2520   20.2120 C   0  0  0  0  0  3  0  0  0  0  0  0
  -21.6790   -6.9540   21.4190 O   0  0  0  0  0  0  0  0  0  0  0  0
  -21.5980   -6.2400   22.5870 C   0  0  0  0  0  0  0  0  0  0  0  0
  -21.1080   -6.8150   23.7800 C   0  0  0  0  0  3  0  0  0  0  0  0
  -20.9750   -6.0250   24.9390 C   0  0  0  0  0  3  0  0  0  0  0  0
  -21.3230   -4.6610   24.9060 C   0  0  0  0  0  0  0  0  0  0  0  0
  -21.8080   -4.0850   23.7180 C   0  0  0  0  0  3  0  0  0  0  0  0
  -21.9420   -4.8730   22.5610 C   0  0  0  0  0  0  0  0  0  0  0  0
  -22.3880   -4.3090   21.4130 F   0  0  0  0  0  0  0  0  0  0  0  0
  -21.1870   -3.8990   26.0170 F   0  0  0  0  0  0  0  0  0  0  0  0
  -22.7750  -13.5950   21.2420 C   0  0  0  0  0  0  0  0  0  0  0  0
  -22.0960  -12.8820   22.1330 N   0  0  0  0  0  0  0  0  0  0  0  0
  -22.3130  -14.6350   20.7750 O   0  0  0  0  0  0  0  0  0  0  0  0
  -22.4840  -12.0410   22.5350 H   0  0  0  0  0  0  0  0  0  0  0  0
  -21.1750  -13.1840   22.4210 H   0  0  0  0  0  0  0  0  0  0  0  0
  -25.3240  -15.2650   20.2760 N   0  0  0  0  0  0  0  0  0  0  0  0
  -24.5260  -15.8830   20.3820 H   0  0  0  0  0  0  0  0  0  0  0  0
  -26.0790  -15.6770   19.7470 H   0  0  0  0  0  0  0  0  0  0  0  0
  -29.3700  -24.1380   20.0880 C   0  0  0  0  0  0  0  0  0  0  0  0
  -30.4850  -24.6250   20.3070 O   0  0  0  0  0  0  0  0  0  0  0  0
  -28.1770  -25.1120   19.7760 C   0  0  0  0  0  2  0  0  0  0  0  0
  -28.3930  -26.5490   20.0490 O   0  0  0  0  0  0  0  0  0  0  0  0
  -24.5920  -31.8090   23.2030 C   0  0  0  0  0  0  0  0  0  0  0  0
  -27.2560  -27.3730   20.0290 C   0  0  0  0  0  0  0  0  0  0  0  0
  -23.4050  -30.4490   21.5200 C   0  0  0  0  0  3  0  0  0  0  0  0
  -24.8730  -28.9540   20.0600 C   0  0  0  0  0  0  0  0  0  0  0  0
  -25.9430  -30.7940   21.3580 C   0  0  0  0  0  2  0  0  0  0  0  0
  -26.0350  -29.4370   20.6730 C   0  0  0  0  0  0  0  0  0  0  0  0
  -27.2300  -28.6590   20.6490 C   0  0  0  0  0  3  0  0  0  0  0  0
  -26.0640  -26.9380   19.4000 C   0  0  0  0  0  3  0  0  0  0  0  0
  -24.8870  -27.7080   19.4170 C   0  0  0  0  0  3  0  0  0  0  0  0
  -23.6310  -29.8170   20.1230 C   0  0  0  0  0  2  0  0  0  0  0  0
  -24.6650  -31.0320   22.0850 N   0  0  0  0  0  0  0  0  0  0  0  0
  -23.5030  -32.0660   23.7400 O   0  0  0  0  0  0  0  0  0  0  0  0
  -22.7430  -29.4010   22.4460 C   0  0  0  0  0  0  0  0  0  0  0  0
  -21.4210  -29.2160   22.3000 N   0  0  0  0  0  0  0  0  0  0  0  0
  -23.4200  -28.7610   23.2550 O   0  0  0  0  0  0  0  0  0  0  0  0
  -20.9360  -29.7870   21.6240 H   0  0  0  0  0  0  0  0  0  0  0  0
  -18.0460  -27.9950   22.7480 C   0  0  0  0  0  0  0  0  0  0  0  0
  -20.6020  -28.2530   23.0390 C   0  0  0  0  0  3  0  0  0  0  0  0
  -20.7110  -26.8400   22.4220 C   0  0  0  0  0  2  0  0  0  0  0  0
  -19.6160  -26.5430   21.3930 C   0  0  0  0  0  2  0  0  0  0  0  0
  -18.2300  -26.6660   22.0340 C   0  0  0  0  0  2  0  0  0  0  0  0
  -19.1600  -28.7480   23.2050 C   0  0  0  0  0  0  0  0  0  0  0  0
  -18.9340  -29.9920   23.8320 C   0  0  0  0  0  3  0  0  0  0  0  0
  -17.6260  -30.4840   24.0050 C   0  0  0  0  0  3  0  0  0  0  0  0
  -16.5270  -29.7280   23.5630 C   0  0  0  0  0  3  0  0  0  0  0  0
  -16.7380  -28.4850   22.9410 C   0  0  0  0  0  3  0  0  0  0  0  0
  -25.8680  -32.4300   23.8510 C   0  0  0  0  0  3  0  0  0  0  0  0
  -26.3630  -31.6440   25.1280 C   0  0  1  0  0  0  0  0  0  0  0  0
  -25.2520  -31.3980   26.1760 C   0  0  0  0  0  1  0  0  0  0  0  0
  -26.9490  -30.2690   24.7300 C   0  0  0  0  0  1  0  0  0  0  0  0
  -27.5070  -32.4270   25.8140 C   0  0  0  0  0  1  0  0  0  0  0  0
  -25.5590  -33.8260   24.1910 N   0  0  0  0  0  0  0  0  0  0  0  0
  -25.8800  -34.8820   23.4310 C   0  0  0  0  0  0  0  0  0  0  0  0
  -26.5390  -34.7830   22.3910 O   0  0  0  0  0  0  0  0  0  0  0  0
  -24.9740  -33.9770   24.9980 H   0  0  0  0  0  0  0  0  0  0  0  0
  -24.1330  -36.6640   23.1170 C   0  0  0  0  0  1  0  0  0  0  0  0
  -25.3950  -36.2670   23.9000 C   0  0  0  0  0  3  0  0  0  0  0  0
  -27.5410  -37.1690   24.6820 C   0  0  0  0  0  1  0  0  0  0  0  0
  -26.4170  -37.3280   23.7630 N   0  0  0  0  0  0  0  0  0  0  0  0
  -26.0060  -38.2440   23.9220 H   0  0  0  0  0  0  0  0  0  0  0  0
  1  6  1  0
  2  1  2  0
  3  4  1  0
  5  6  1  0
  5  7  2  0
  6  3  2  0
  7  8  1  0
  8  4  2  0
  8 18  1  0
  9  7  1  0
 10 18  1  0
 11 16  1  0
 12 13  1  0
 12 11  1  0
 14 13  1  0
 14 23  1  0
 14 15  1  0
 16 10  1  0
 16 15  1  0
 17 10  2  0
 18 19  1  0
 20 21  2  0
 21 40  1  0
 22 21  1  0
 22 25  1  0
 23 24  1  0
 23 20  1  0
 24 22  2  0
 25 26  1  0
 26 27  2  0
 28 31  1  0
 28 27  1  0
 29 28  2  0
 30 29  1  0
 30 25  2  0
 31 32  1  0
 32 33  1  0
 33 34  2  0
 35 34  1  0
 35 39  1  0
 36 35  2  0
 37 32  2  0
 37 36  1  0
 38 37  1  0
 40 41  1  0
 41 44  1  0
 41 43  1  0
 42 40  2  0
 45 46  1  0
 45 20  1  0
 47 45  1  0
 48  2  1  0
 48 49  2  0
 50 51  1  0
 50 48  1  0
 52 63  2  0
 53 51  1  0
 53 58  1  0
 54 62  1  0
 54 64  1  0
 55 61  1  0
 55 57  1  0
 56 62  1  0
 57 56  1  0
 58 57  2  0
 59 60  1  0
 59 53  2  0
 60 55  2  0
 61 54  1  0
 62 52  1  0
 64 66  2  0
 65 64  1  0
 67 65  1  0
 68 77  2  0
 68 73  1  0
 69 65  1  0
 69 73  1  0
 70 69  1  0
 71 72  1  0
 71 70  1  0
 72 68  1  0
 73 74  2  0
 74 75  1  0
 76 75  2  0
 77 76  1  0
 78 52  1  0
 78 83  1  0
 78 79  1  0
 79 82  1  1
 79 80  1  0
 81 79  1  0
 83 86  1  0
 84 88  1  0
 84 83  1  0
 85 84  2  0
 88 87  1  0
 90 88  1  0
 90 91  1  0
 90 89  1  0
M  ISO  4  10 100  18 100  50 101  51 101
M  END
>  <TORSDO>  (46) 
F 19

>  <SCORE>  (46) 
-14.326

>  <name>  (46) 
45

>  <ligand_id>  (46) 
45

>  <original_smiles>  (46) 
[H]C(C(=O)C([H])([H])Oc1c([H])c([H])c2c(c1[H])C([H])([H])N(C(=O)C([H])(N([H])C(=O)C([H])(N([H])C([H])([H])[H])C([H])([H])[H])C(C([H])([H])[H])(C([H])([H])[H])C([H])([H])[H])C([H])(C(=O)N([H])C1([H])c3c([H])c([H])c([H])c([H])c3C([H])([H])C([H])([H])C1([H])[H])C2([H])[H])=C([H])c1c([H])c([H])c(N([H])C(=O)N2C([H])([H])C([H])([H])C([H])([H])C([H])(n3nc(-c4c([H])c([H])c(Oc5c([H])c([H])c(F)c([H])c5F)c([H])c4[H])c(C(=O)N([H])[H])c3N([H])[H])C2([H])[H])c(C([H])([H])[H])c1[H]

>  <smiles>  (46) 
[H]C(C(=O)C([H])([H])Oc1c([H])c([H])c2c(c1[H])C([H])([H])N(C(=O)C([H])(N([H])C(=O)C([H])(N([H])C([H])([H])[H])C([H])([H])[H])C(C([H])([H])[H])(C([H])([H])[H])C([H])([H])[H])C([H])(C(=O)N([H])C1([H])c3c([H])c([H])c([H])c([H])c3C([H])([H])C([H])([H])C1([H])[H])C2([H])[H])=C([H])c1c([H])c([H])c(N([H])C(=O)N2C([H])([H])C([H])([H])C([H])([H])C([H])(n3nc(-c4c([H])c([H])c(Oc5c([H])c([H])c(F)c([H])c5F)c([H])c4[H])c(C(=O)N([H])[H])c3N([H])[H])C2([H])[H])c(C([H])([H])[H])c1[H]

$$$$
46:0:0
     RDKit          3D

 91 99  0  0  1  0  0  0  0  0999 V2000
  -29.3390  -21.1490   20.8790 C   0  0  0  0  0  0  0  0  0  0  0  0
  -29.5570  -21.2300   22.0910 O   0  0  0  0  0  0  0  0  0  0  0  0
  -29.6230  -18.4770   20.8290 C   0  0  0  0  0  3  0  0  0  0  0  0
  -29.8530  -19.7850   18.7870 C   0  0  0  0  0  3  0  0  0  0  0  0
  -30.2030  -17.3510   18.7570 C   0  0  0  0  0  3  0  0  0  0  0  0
  -29.5940  -19.7820   20.1750 C   0  0  0  0  0  0  0  0  0  0  0  0
  -29.9290  -17.2320   20.1390 C   0  0  0  0  0  0  0  0  0  0  0  0
  -30.1580  -18.5970   18.0950 C   0  0  0  0  0  0  0  0  0  0  0  0
  -30.4130  -18.6530   16.7670 F   0  0  0  0  0  0  0  0  0  0  0  0
  -30.5860  -14.7320   20.3840 C   0  0  0  0  0  0  0  0  0  0  0  0
  -30.3460  -12.4630   19.3840 C   0  0  0  0  0  2  0  0  0  0  0  0
  -29.4150  -12.5780   18.1570 C   0  0  0  0  0  2  0  0  0  0  0  0
  -27.9440  -12.4090   18.5820 C   0  0  0  0  0  2  0  0  0  0  0  0
  -27.5810  -13.2880   19.8090 C   0  0  0  0  0  3  0  0  0  0  0  0
  -28.6370  -13.1850   20.9330 C   0  0  0  0  0  2  0  0  0  0  0  0
  -29.9440  -13.5140   20.3500 N   0  0  0  0  0  0  0  0  0  0  0  0
  -31.7490  -14.8240   19.9810 O   0  0  0  0  0  0  0  0  0  0  0  0
  -29.8720  -15.8700   20.7340 N   0  0  0  0  0  0  0  0  0  0  0  0
  -29.0560  -15.6870   21.2990 H   0  0  0  0  0  0  0  0  0  0  0  0
  -25.1910  -13.8860   20.5220 C   0  0  0  0  0  0  0  0  0  0  0  0
  -24.1240  -13.1170   20.8940 C   0  0  0  0  0  0  0  0  0  0  0  0
  -24.5830  -11.7640   20.8730 C   0  0  0  0  0  0  0  0  0  0  0  0
  -26.2350  -13.0040   20.2960 N   0  0  0  0  0  0  0  0  0  0  0  0
  -25.8750  -11.7210   20.5670 N   0  0  0  0  0  0  0  0  0  0  0  0
  -23.8530  -10.5040   21.0680 C   0  0  0  0  0  0  0  0  0  0  0  0
  -24.2950   -9.5280   21.9890 C   0  0  0  0  0  3  0  0  0  0  0  0
  -23.5640   -8.3350   22.1750 C   0  0  0  0  0  3  0  0  0  0  0  0
  -22.3750   -8.1100   21.4420 C   0  0  0  0  0  0  0  0  0  0  0  0
  -21.9520   -9.0740   20.5080 C   0  0  0  0  0  3  0  0  0  0  0  0
  -22.6840  -10.2580   20.3210 C   0  0  0  0  0  3  0  0  0  0  0  0
  -21.6170   -6.9680   21.5350 O   0  0  0  0  0  0  0  0  0  0  0  0
  -21.6010   -6.2060   22.6750 C   0  0  0  0  0  0  0  0  0  0  0  0
  -21.2390   -6.7450   23.9280 C   0  0  0  0  0  3  0  0  0  0  0  0
  -21.1680   -5.9100   25.0610 C   0  0  0  0  0  3  0  0  0  0  0  0
  -21.4530   -4.5370   24.9440 C   0  0  0  0  0  0  0  0  0  0  0  0
  -21.8100   -3.9970   23.6960 C   0  0  0  0  0  3  0  0  0  0  0  0
  -21.8820   -4.8290   22.5640 C   0  0  0  0  0  0  0  0  0  0  0  0
  -22.2050   -4.2990   21.3600 F   0  0  0  0  0  0  0  0  0  0  0  0
  -21.3790   -3.7340   26.0300 F   0  0  0  0  0  0  0  0  0  0  0  0
  -22.7270  -13.5990   21.1600 C   0  0  0  0  0  0  0  0  0  0  0  0
  -21.9970  -12.9100   22.0290 N   0  0  0  0  0  0  0  0  0  0  0  0
  -22.2930  -14.6210   20.6300 O   0  0  0  0  0  0  0  0  0  0  0  0
  -22.3580  -12.0810   22.4770 H   0  0  0  0  0  0  0  0  0  0  0  0
  -21.0600  -13.2160   22.2510 H   0  0  0  0  0  0  0  0  0  0  0  0
  -25.3590  -15.2560   20.3340 N   0  0  0  0  0  0  0  0  0  0  0  0
  -24.5920  -15.9110   20.4330 H   0  0  0  0  0  0  0  0  0  0  0  0
  -26.2100  -15.6890   20.0000 H   0  0  0  0  0  0  0  0  0  0  0  0
  -28.7930  -22.3920   20.1430 C   0  0  0  0  0  3  0  0  0  0  0  0
  -28.7520  -23.7050   20.6000 C   0  0  0  0  0  3  0  0  0  0  0  0
  -28.0160  -24.9190   19.8990 C   0  0  0  0  0  2  0  0  0  0  0  0
  -28.2640  -26.3600   20.2650 O   0  0  0  0  0  0  0  0  0  0  0  0
  -24.6140  -31.8860   23.2510 C   0  0  0  0  0  0  0  0  0  0  0  0
  -27.1840  -27.2780   20.1770 C   0  0  0  0  0  0  0  0  0  0  0  0
  -23.4000  -30.4950   21.6140 C   0  0  0  0  0  3  0  0  0  0  0  0
  -24.8390  -28.9450   20.1750 C   0  0  0  0  0  0  0  0  0  0  0  0
  -25.9460  -30.7870   21.4330 C   0  0  0  0  0  2  0  0  0  0  0  0
  -26.0150  -29.4070   20.7810 C   0  0  0  0  0  0  0  0  0  0  0  0
  -27.1870  -28.5830   20.7800 C   0  0  0  0  0  3  0  0  0  0  0  0
  -25.9930  -26.9080   19.5100 C   0  0  0  0  0  3  0  0  0  0  0  0
  -24.8330  -27.7040   19.5310 C   0  0  0  0  0  3  0  0  0  0  0  0
  -23.6090  -29.8290   20.2310 C   0  0  0  0  0  2  0  0  0  0  0  0
  -24.6720  -31.0750   22.1550 N   0  0  0  0  0  0  0  0  0  0  0  0
  -23.5340  -32.1690   23.7890 O   0  0  0  0  0  0  0  0  0  0  0  0
  -22.7350  -29.4800   22.5760 C   0  0  0  0  0  0  0  0  0  0  0  0
  -21.4080  -29.3070   22.4550 N   0  0  0  0  0  0  0  0  0  0  0  0
  -23.4130  -28.8490   23.3910 O   0  0  0  0  0  0  0  0  0  0  0  0
  -20.9180  -29.8650   21.7710 H   0  0  0  0  0  0  0  0  0  0  0  0
  -18.0310  -28.1070   22.9640 C   0  0  0  0  0  0  0  0  0  0  0  0
  -20.5890  -28.3720   23.2310 C   0  0  0  0  0  3  0  0  0  0  0  0
  -20.6930  -26.9370   22.6640 C   0  0  0  0  0  2  0  0  0  0  0  0
  -19.5920  -26.6080   21.6500 C   0  0  0  0  0  2  0  0  0  0  0  0
  -18.2100  -26.7550   22.2930 C   0  0  0  0  0  2  0  0  0  0  0  0
  -19.1490  -28.8730   23.3900 C   0  0  0  0  0  0  0  0  0  0  0  0
  -18.9290  -30.1360   23.9800 C   0  0  0  0  0  3  0  0  0  0  0  0
  -17.6250  -30.6370   24.1430 C   0  0  0  0  0  3  0  0  0  0  0  0
  -16.5200  -29.8710   23.7330 C   0  0  0  0  0  3  0  0  0  0  0  0
  -16.7250  -28.6070   23.1510 C   0  0  0  0  0  3  0  0  0  0  0  0
  -25.9010  -32.5160   23.8660 C   0  0  0  0  0  3  0  0  0  0  0  0
  -26.4240  -31.7400   25.1380 C   0  0  1  0  0  0  0  0  0  0  0  0
  -25.3370  -31.5040   26.2120 C   0  0  0  0  0  1  0  0  0  0  0  0
  -27.0000  -30.3600   24.7420 C   0  0  0  0  0  1  0  0  0  0  0  0
  -27.5830  -32.5280   25.7930 C   0  0  0  0  0  1  0  0  0  0  0  0
  -25.5950  -33.9130   24.2040 N   0  0  0  0  0  0  0  0  0  0  0  0
  -25.9180  -34.9690   23.4460 C   0  0  0  0  0  0  0  0  0  0  0  0
  -26.5750  -34.8690   22.4070 O   0  0  0  0  0  0  0  0  0  0  0  0
  -25.0120  -34.0650   25.0140 H   0  0  0  0  0  0  0  0  0  0  0  0
  -24.1830  -36.7640   23.1250 C   0  0  0  0  0  1  0  0  0  0  0  0
  -25.4370  -36.3570   23.9150 C   0  0  0  0  0  3  0  0  0  0  0  0
  -27.5840  -37.2410   24.7120 C   0  0  0  0  0  1  0  0  0  0  0  0
  -26.4670  -37.4120   23.7880 N   0  0  0  0  0  0  0  0  0  0  0  0
  -26.0630  -38.3310   23.9450 H   0  0  0  0  0  0  0  0  0  0  0  0
  1  2  2  0
  4  6  2  0
  5  7  1  0
  6  3  1  0
  6  1  1  0
  7 18  1  0
  7  3  2  0
  8  5  2  0
  8  4  1  0
  9  8  1  0
 10 18  1  0
 11 16  1  0
 12 13  1  0
 12 11  1  0
 14 13  1  0
 14 23  1  0
 14 15  1  0
 16 10  1  0
 16 15  1  0
 17 10  2  0
 18 19  1  0
 20 21  2  0
 21 40  1  0
 22 21  1  0
 22 25  1  0
 23 20  1  0
 23 24  1  0
 24 22  2  0
 25 26  1  0
 26 27  2  0
 28 31  1  0
 28 27  1  0
 29 28  2  0
 30 29  1  0
 30 25  2  0
 31 32  1  0
 32 33  1  0
 33 34  2  0
 35 34  1  0
 35 39  1  0
 36 35  2  0
 37 32  2  0
 37 36  1  0
 38 37  1  0
 40 41  1  0
 41 44  1  0
 41 43  1  0
 42 40  2  0
 45 46  1  0
 45 20  1  0
 47 45  1  0
 48 49  2  0
 48  1  1  0
 50 51  1  0
 50 49  1  0
 52 63  2  0
 53 51  1  0
 53 58  1  0
 54 62  1  0
 54 64  1  0
 55 61  1  0
 55 57  1  0
 56 62  1  0
 57 56  1  0
 58 57  2  0
 59 60  1  0
 59 53  2  0
 60 55  2  0
 61 54  1  0
 62 52  1  0
 64 66  2  0
 65 64  1  0
 67 65  1  0
 68 77  2  0
 68 73  1  0
 69 65  1  0
 69 73  1  0
 70 69  1  0
 71 72  1  0
 71 70  1  0
 72 68  1  0
 73 74  2  0
 74 75  1  0
 76 75  2  0
 77 76  1  0
 78 52  1  0
 78 83  1  0
 78 79  1  0
 79 82  1  1
 79 80  1  0
 81 79  1  0
 83 86  1  0
 84 88  1  0
 84 83  1  0
 85 84  2  0
 88 87  1  0
 90 88  1  0
 90 91  1  0
 90 89  1  0
M  ISO  4  10 100  18 100  50 101  51 101
M  END
>  <TORSDO>  (47) 
F 19

>  <SCORE>  (47) 
-14.350

>  <name>  (47) 
46

>  <ligand_id>  (47) 
46

>  <original_smiles>  (47) 
[H]C(C(=O)c1c([H])c(F)c([H])c(N([H])C(=O)N2C([H])([H])C([H])([H])C([H])([H])C([H])(n3nc(-c4c([H])c([H])c(Oc5c([H])c([H])c(F)c([H])c5F)c([H])c4[H])c(C(=O)N([H])[H])c3N([H])[H])C2([H])[H])c1[H])=C([H])C([H])([H])Oc1c([H])c([H])c2c(c1[H])C([H])([H])N(C(=O)C([H])(N([H])C(=O)C([H])(N([H])C([H])([H])[H])C([H])([H])[H])C(C([H])([H])[H])(C([H])([H])[H])C([H])([H])[H])C([H])(C(=O)N([H])C1([H])c3c([H])c([H])c([H])c([H])c3C([H])([H])C([H])([H])C1([H])[H])C2([H])[H]

>  <smiles>  (47) 
[H]C(C(=O)c1c([H])c(F)c([H])c(N([H])C(=O)N2C([H])([H])C([H])([H])C([H])([H])C([H])(n3nc(-c4c([H])c([H])c(Oc5c([H])c([H])c(F)c([H])c5F)c([H])c4[H])c(C(=O)N([H])[H])c3N([H])[H])C2([H])[H])c1[H])=C([H])C([H])([H])Oc1c([H])c([H])c2c(c1[H])C([H])([H])N(C(=O)C([H])(N([H])C(=O)C([H])(N([H])C([H])([H])[H])C([H])([H])[H])C(C([H])([H])[H])(C([H])([H])[H])C([H])([H])[H])C([H])(C(=O)N([H])C1([H])c3c([H])c([H])c([H])c([H])c3C([H])([H])C([H])([H])C1([H])[H])C2([H])[H]

$$$$
47:0:0
     RDKit          3D

 93101  0  0  1  0  0  0  0  0999 V2000
  -29.0560  -20.6820   20.3920 C   0  0  0  0  0  3  0  0  0  0  0  0
  -29.3530  -21.9620   20.0410 C   0  0  0  0  0  3  0  0  0  0  0  0
  -30.5280  -19.5600   18.7180 C   0  0  0  0  0  3  0  0  0  0  0  0
  -31.1240  -18.4300   18.1500 C   0  0  0  0  0  3  0  0  0  0  0  0
  -29.6220  -18.1650   20.4900 C   0  0  0  0  0  3  0  0  0  0  0  0
  -29.7460  -19.4560   19.8860 C   0  0  0  0  0  0  0  0  0  0  0  0
  -30.9580  -17.1520   18.7120 C   0  0  0  0  0  0  0  0  0  0  0  0
  -30.2170  -16.9910   19.9270 C   0  0  0  0  0  0  0  0  0  0  0  0
  -31.5550  -16.0130   17.9000 C   0  0  0  0  0  1  0  0  0  0  0  0
  -30.7090  -14.5800   20.5670 C   0  0  0  0  0  0  0  0  0  0  0  0
  -30.4620  -12.3510   19.5610 C   0  0  0  0  0  2  0  0  0  0  0  0
  -29.5490  -12.4530   18.3180 C   0  0  0  0  0  2  0  0  0  0  0  0
  -28.0670  -12.3360   18.7130 C   0  0  0  0  0  2  0  0  0  0  0  0
  -27.6830  -13.2560   19.9040 C   0  0  0  0  0  3  0  0  0  0  0  0
  -28.7030  -13.1190   21.0550 C   0  0  0  0  0  2  0  0  0  0  0  0
  -30.0390  -13.3970   20.5080 N   0  0  0  0  0  0  0  0  0  0  0  0
  -31.9290  -14.6460   20.4080 O   0  0  0  0  0  0  0  0  0  0  0  0
  -29.9400  -15.7000   20.5370 N   0  0  0  0  0  0  0  0  0  0  0  0
  -28.9900  -15.5610   20.8470 H   0  0  0  0  0  0  0  0  0  0  0  0
  -25.2710  -13.8860   20.5330 C   0  0  0  0  0  0  0  0  0  0  0  0
  -24.1890  -13.1240   20.8810 C   0  0  0  0  0  0  0  0  0  0  0  0
  -24.6480  -11.7710   20.8920 C   0  0  0  0  0  0  0  0  0  0  0  0
  -26.3200  -12.9990   20.3540 N   0  0  0  0  0  0  0  0  0  0  0  0
  -25.9490  -11.7240   20.6370 N   0  0  0  0  0  0  0  0  0  0  0  0
  -23.9160  -10.5120   21.0700 C   0  0  0  0  0  0  0  0  0  0  0  0
  -24.3210   -9.5530   22.0230 C   0  0  0  0  0  3  0  0  0  0  0  0
  -23.5890   -8.3590   22.1930 C   0  0  0  0  0  3  0  0  0  0  0  0
  -22.4390   -8.1150   21.4050 C   0  0  0  0  0  0  0  0  0  0  0  0
  -22.0570   -9.0600   20.4360 C   0  0  0  0  0  3  0  0  0  0  0  0
  -22.7900  -10.2470   20.2650 C   0  0  0  0  0  3  0  0  0  0  0  0
  -21.6810   -6.9710   21.4820 O   0  0  0  0  0  0  0  0  0  0  0  0
  -21.6020   -6.2380   22.6370 C   0  0  0  0  0  0  0  0  0  0  0  0
  -21.1290   -6.7980   23.8440 C   0  0  0  0  0  3  0  0  0  0  0  0
  -20.9920   -5.9890   24.9890 C   0  0  0  0  0  3  0  0  0  0  0  0
  -21.3190   -4.6220   24.9290 C   0  0  0  0  0  0  0  0  0  0  0  0
  -21.7900   -4.0610   23.7280 C   0  0  0  0  0  3  0  0  0  0  0  0
  -21.9250   -4.8670   22.5850 C   0  0  0  0  0  0  0  0  0  0  0  0
  -22.3550   -4.3170   21.4230 F   0  0  0  0  0  0  0  0  0  0  0  0
  -21.1830   -3.8420   26.0280 F   0  0  0  0  0  0  0  0  0  0  0  0
  -22.7810  -13.6050   21.0850 C   0  0  0  0  0  0  0  0  0  0  0  0
  -22.0160  -12.9260   21.9340 N   0  0  0  0  0  0  0  0  0  0  0  0
  -22.3640  -14.6200   20.5290 O   0  0  0  0  0  0  0  0  0  0  0  0
  -22.3600  -12.1020   22.4040 H   0  0  0  0  0  0  0  0  0  0  0  0
  -21.0680  -13.2300   22.1100 H   0  0  0  0  0  0  0  0  0  0  0  0
  -25.4440  -15.2530   20.3250 N   0  0  0  0  0  0  0  0  0  0  0  0
  -24.6570  -15.8920   20.3490 H   0  0  0  0  0  0  0  0  0  0  0  0
  -26.2790  -15.6770   19.9430 H   0  0  0  0  0  0  0  0  0  0  0  0
  -28.5370  -23.2190   20.3700 C   0  0  0  0  0  2  0  0  0  0  0  0
  -29.9340  -24.0490   22.3060 C   0  0  0  0  0  1  0  0  0  0  0  0
  -30.4430  -24.9250   20.0270 C   0  0  0  0  0  1  0  0  0  0  0  0
  -29.3010  -24.4540   20.9570 C   0  0  1  0  0  0  0  0  0  0  0  0
  -28.3000  -25.6430   21.1980 C   0  0  0  0  0  2  0  0  0  0  0  0
  -28.2970  -26.6710   20.1880 O   0  0  0  0  0  0  0  0  0  0  0  0
  -24.5230  -31.8920   23.2520 C   0  0  0  0  0  0  0  0  0  0  0  0
  -27.1580  -27.4460   20.1840 C   0  0  0  0  0  0  0  0  0  0  0  0
  -23.3150  -30.4970   21.6050 C   0  0  0  0  0  3  0  0  0  0  0  0
  -24.7710  -28.9620   20.1770 C   0  0  0  0  0  0  0  0  0  0  0  0
  -25.8430  -30.8540   21.4110 C   0  0  0  0  0  2  0  0  0  0  0  0
  -25.9290  -29.4840   20.7680 C   0  0  0  0  0  0  0  0  0  0  0  0
  -27.1290  -28.7340   20.7660 C   0  0  0  0  0  3  0  0  0  0  0  0
  -25.9880  -26.9390   19.5840 C   0  0  0  0  0  3  0  0  0  0  0  0
  -24.7960  -27.6890   19.5770 C   0  0  0  0  0  3  0  0  0  0  0  0
  -23.5270  -29.8220   20.2230 C   0  0  0  0  0  2  0  0  0  0  0  0
  -24.5780  -31.0950   22.1490 N   0  0  0  0  0  0  0  0  0  0  0  0
  -23.4400  -32.1650   23.7930 O   0  0  0  0  0  0  0  0  0  0  0  0
  -22.6630  -29.4730   22.5620 C   0  0  0  0  0  0  0  0  0  0  0  0
  -21.3380  -29.2930   22.4330 N   0  0  0  0  0  0  0  0  0  0  0  0
  -23.3440  -28.8460   23.3770 O   0  0  0  0  0  0  0  0  0  0  0  0
  -20.8510  -29.8520   21.7470 H   0  0  0  0  0  0  0  0  0  0  0  0
  -17.9580  -28.1130   22.9290 C   0  0  0  0  0  0  0  0  0  0  0  0
  -20.5180  -28.3540   23.1980 C   0  0  0  0  0  3  0  0  0  0  0  0
  -20.6120  -26.9270   22.6120 C   0  0  0  0  0  2  0  0  0  0  0  0
  -19.5070  -26.6160   21.5980 C   0  0  0  0  0  2  0  0  0  0  0  0
  -18.1270  -26.7660   22.2450 C   0  0  0  0  0  2  0  0  0  0  0  0
  -19.0820  -28.8660   23.3610 C   0  0  0  0  0  0  0  0  0  0  0  0
  -18.8710  -30.1280   23.9590 C   0  0  0  0  0  3  0  0  0  0  0  0
  -17.5700  -30.6360   24.1290 C   0  0  0  0  0  3  0  0  0  0  0  0
  -16.4610  -29.8790   23.7130 C   0  0  0  0  0  3  0  0  0  0  0  0
  -16.6560  -28.6200   23.1180 C   0  0  0  0  0  3  0  0  0  0  0  0
  -25.8090  -32.5190   23.8760 C   0  0  0  0  0  3  0  0  0  0  0  0
  -26.3130  -31.7560   25.1640 C   0  0  1  0  0  0  0  0  0  0  0  0
  -25.2110  -31.5390   26.2260 C   0  0  0  0  0  1  0  0  0  0  0  0
  -26.8890  -30.3710   24.7890 C   0  0  0  0  0  1  0  0  0  0  0  0
  -27.4650  -32.5480   25.8250 C   0  0  0  0  0  1  0  0  0  0  0  0
  -25.5110  -33.9220   24.1860 N   0  0  0  0  0  0  0  0  0  0  0  0
  -25.8700  -34.9640   23.4220 C   0  0  0  0  0  0  0  0  0  0  0  0
  -26.5570  -34.8410   22.4060 O   0  0  0  0  0  0  0  0  0  0  0  0
  -24.9000  -34.0910   24.9720 H   0  0  0  0  0  0  0  0  0  0  0  0
  -24.1780  -36.7780   23.0040 C   0  0  0  0  0  1  0  0  0  0  0  0
  -25.3880  -36.3620   23.8560 C   0  0  0  0  0  3  0  0  0  0  0  0
  -27.5070  -37.2210   24.7470 C   0  0  0  0  0  1  0  0  0  0  0  0
  -26.4380  -37.3980   23.7690 N   0  0  0  0  0  0  0  0  0  0  0  0
  -26.0420  -38.3250   23.8960 H   0  0  0  0  0  0  0  0  0  0  0  0
  2 48  1  0
  2  1  2  0
  3  6  1  0
  4  7  1  0
  4  3  2  0
  6  1  1  0
  6  5  2  0
  7  8  2  0
  8  5  1  0
  8 18  1  0
  9  7  1  0
 11 16  1  0
 12 13  1  0
 12 11  1  0
 14 13  1  0
 14 23  1  0
 14 15  1  0
 16 10  1  0
 16 15  1  0
 17 10  2  0
 18 10  1  0
 18 19  1  0
 20 21  2  0
 21 22  1  0
 21 40  1  0
 22 25  1  0
 23 20  1  0
 23 24  1  0
 24 22  2  0
 25 26  1  0
 26 27  2  0
 28 31  1  0
 28 27  1  0
 29 28  2  0
 30 29  1  0
 30 25  2  0
 31 32  1  0
 32 33  1  0
 33 34  2  0
 35 34  1  0
 35 39  1  0
 36 35  2  0
 37 32  2  0
 37 36  1  0
 38 37  1  0
 40 41  1  0
 41 44  1  0
 41 43  1  0
 42 40  2  0
 45 46  1  0
 45 20  1  0
 47 45  1  0
 48 51  1  0
 51 50  1  6
 51 52  1  0
 51 49  1  0
 53 52  1  0
 54 65  2  0
 55 53  1  0
 55 60  1  0
 56 64  1  0
 56 66  1  0
 57 63  1  0
 57 59  1  0
 58 64  1  0
 59 58  1  0
 60 59  2  0
 61 55  2  0
 62 61  1  0
 62 57  2  0
 63 56  1  0
 64 54  1  0
 66 68  2  0
 67 66  1  0
 69 67  1  0
 70 79  2  0
 70 75  1  0
 71 67  1  0
 71 75  1  0
 72 71  1  0
 73 74  1  0
 73 72  1  0
 74 70  1  0
 75 76  2  0
 76 77  1  0
 78 77  2  0
 79 78  1  0
 80 54  1  0
 80 85  1  0
 80 81  1  0
 81 84  1  1
 81 82  1  0
 83 81  1  0
 85 88  1  0
 86 90  1  0
 86 85  1  0
 87 86  2  0
 90 89  1  0
 92 90  1  0
 92 93  1  0
 92 91  1  0
M  ISO  4  10 100  18 100  52 101  53 101
M  END
>  <TORSDO>  (48) 
F 20

>  <SCORE>  (48) 
-13.852

>  <name>  (48) 
47

>  <ligand_id>  (48) 
47

>  <original_smiles>  (48) 
[H]C(=C([H])C([H])([H])C(C([H])([H])[H])(C([H])([H])[H])C([H])([H])Oc1c([H])c([H])c2c(c1[H])C([H])([H])N(C(=O)C([H])(N([H])C(=O)C([H])(N([H])C([H])([H])[H])C([H])([H])[H])C(C([H])([H])[H])(C([H])([H])[H])C([H])([H])[H])C([H])(C(=O)N([H])C1([H])c3c([H])c([H])c([H])c([H])c3C([H])([H])C([H])([H])C1([H])[H])C2([H])[H])c1c([H])c([H])c(C([H])([H])[H])c(N([H])C(=O)N2C([H])([H])C([H])([H])C([H])([H])C([H])(n3nc(-c4c([H])c([H])c(Oc5c([H])c([H])c(F)c([H])c5F)c([H])c4[H])c(C(=O)N([H])[H])c3N([H])[H])C2([H])[H])c1[H]

>  <smiles>  (48) 
[H]C(=C([H])C([H])([H])C(C([H])([H])[H])(C([H])([H])[H])C([H])([H])Oc1c([H])c([H])c2c(c1[H])C([H])([H])N(C(=O)C([H])(N([H])C(=O)C([H])(N([H])C([H])([H])[H])C([H])([H])[H])C(C([H])([H])[H])(C([H])([H])[H])C([H])([H])[H])C([H])(C(=O)N([H])C1([H])c3c([H])c([H])c([H])c([H])c3C([H])([H])C([H])([H])C1([H])[H])C2([H])[H])c1c([H])c([H])c(C([H])([H])[H])c(N([H])C(=O)N2C([H])([H])C([H])([H])C([H])([H])C([H])(n3nc(-c4c([H])c([H])c(Oc5c([H])c([H])c(F)c([H])c5F)c([H])c4[H])c(C(=O)N([H])[H])c3N([H])[H])C2([H])[H])c1[H]

$$$$
48:0:0
     RDKit          3D

 91 99  0  0  1  0  0  0  0  0999 V2000
  -29.1260  -20.6520   21.1450 C   0  0  0  0  0  0  0  0  0  0  0  0
  -29.4310  -20.6710   22.3420 O   0  0  0  0  0  0  0  0  0  0  0  0
  -29.9610  -18.4040   18.1500 C   0  0  0  0  0  3  0  0  0  0  0  0
  -29.6250  -19.5360   18.9210 C   0  0  0  0  0  3  0  0  0  0  0  0
  -30.0930  -17.1410   18.7550 C   0  0  0  0  0  3  0  0  0  0  0  0
  -29.5380  -18.1270   20.9120 C   0  0  0  0  0  3  0  0  0  0  0  0
  -29.4230  -19.4220   20.3140 C   0  0  0  0  0  0  0  0  0  0  0  0
  -29.8810  -16.9740   20.1450 C   0  0  0  0  0  0  0  0  0  0  0  0
  -30.7000  -14.6190   20.3230 C   0  0  0  0  0  0  0  0  0  0  0  0
  -30.4530  -12.4380   19.2040 C   0  0  0  0  0  2  0  0  0  0  0  0
  -29.5110  -12.6550   18.0000 C   0  0  0  0  0  2  0  0  0  0  0  0
  -28.0340  -12.5180   18.4190 C   0  0  0  0  0  2  0  0  0  0  0  0
  -27.7010  -13.3220   19.7050 C   0  0  0  0  0  3  0  0  0  0  0  0
  -28.7560  -13.0890   20.8090 C   0  0  0  0  0  2  0  0  0  0  0  0
  -30.0720  -13.4120   20.2450 N   0  0  0  0  0  0  0  0  0  0  0  0
  -31.8460  -14.7930   19.8950 O   0  0  0  0  0  0  0  0  0  0  0  0
  -29.9410  -15.6620   20.7450 N   0  0  0  0  0  0  0  0  0  0  0  0
  -29.1430  -15.4100   21.3110 H   0  0  0  0  0  0  0  0  0  0  0  0
  -25.2940  -13.8980   20.4030 C   0  0  0  0  0  0  0  0  0  0  0  0
  -24.2370  -13.1180   20.7780 C   0  0  0  0  0  0  0  0  0  0  0  0
  -24.7130  -11.7710   20.7620 C   0  0  0  0  0  0  0  0  0  0  0  0
  -26.3510  -13.0300   20.1830 N   0  0  0  0  0  0  0  0  0  0  0  0
  -26.0030  -11.7450   20.4550 N   0  0  0  0  0  0  0  0  0  0  0  0
  -24.0010  -10.5040   20.9680 C   0  0  0  0  0  0  0  0  0  0  0  0
  -24.4370   -9.5560   21.9220 C   0  0  0  0  0  3  0  0  0  0  0  0
  -23.7250   -8.3520   22.1130 C   0  0  0  0  0  3  0  0  0  0  0  0
  -22.5620   -8.0870   21.3500 C   0  0  0  0  0  0  0  0  0  0  0  0
  -22.1470   -9.0220   20.3840 C   0  0  0  0  0  3  0  0  0  0  0  0
  -22.8610  -10.2170   20.1930 C   0  0  0  0  0  3  0  0  0  0  0  0
  -21.8240   -6.9340   21.4480 O   0  0  0  0  0  0  0  0  0  0  0  0
  -21.7660   -6.2130   22.6140 C   0  0  0  0  0  0  0  0  0  0  0  0
  -21.2990   -6.7830   23.8180 C   0  0  0  0  0  3  0  0  0  0  0  0
  -21.1890   -5.9900   24.9780 C   0  0  0  0  0  3  0  0  0  0  0  0
  -21.5360   -4.6250   24.9340 C   0  0  0  0  0  0  0  0  0  0  0  0
  -21.9960   -4.0550   23.7330 C   0  0  0  0  0  3  0  0  0  0  0  0
  -22.1070   -4.8470   22.5770 C   0  0  0  0  0  0  0  0  0  0  0  0
  -22.5310   -4.2880   21.4170 F   0  0  0  0  0  0  0  0  0  0  0  0
  -21.4230   -3.8590   26.0410 F   0  0  0  0  0  0  0  0  0  0  0  0
  -22.8330  -13.5810   21.0430 C   0  0  0  0  0  0  0  0  0  0  0  0
  -22.1140  -12.8800   21.9140 N   0  0  0  0  0  0  0  0  0  0  0  0
  -22.3830  -14.5970   20.5140 O   0  0  0  0  0  0  0  0  0  0  0  0
  -22.4960  -12.0600   22.3600 H   0  0  0  0  0  0  0  0  0  0  0  0
  -21.1700  -13.1650   22.1350 H   0  0  0  0  0  0  0  0  0  0  0  0
  -25.4470  -15.2670   20.2060 N   0  0  0  0  0  0  0  0  0  0  0  0
  -24.6760  -15.9220   20.2940 H   0  0  0  0  0  0  0  0  0  0  0  0
  -26.2950  -15.6990   19.8610 H   0  0  0  0  0  0  0  0  0  0  0  0
  -28.4290  -21.8270   20.5220 C   0  0  0  0  0  3  0  0  0  0  0  0
  -28.4990  -23.0840   21.0420 C   0  0  0  0  0  3  0  0  0  0  0  0
  -27.7160  -24.3290   20.5770 C   0  0  0  0  0  2  0  0  0  0  0  0
  -28.5100  -25.4060   19.7740 C   0  0  0  0  0  2  0  0  0  0  0  0
  -28.3980  -26.7820   20.2090 O   0  0  0  0  0  0  0  0  0  0  0  0
  -24.5700  -31.9400   23.2460 C   0  0  0  0  0  0  0  0  0  0  0  0
  -27.2110  -27.4940   20.1460 C   0  0  0  0  0  0  0  0  0  0  0  0
  -23.3570  -30.5410   21.6050 C   0  0  0  0  0  3  0  0  0  0  0  0
  -24.8080  -29.0110   20.1590 C   0  0  0  0  0  0  0  0  0  0  0  0
  -25.8780  -30.9070   21.3880 C   0  0  0  0  0  2  0  0  0  0  0  0
  -25.9650  -29.5320   20.7470 C   0  0  0  0  0  0  0  0  0  0  0  0
  -27.1650  -28.7810   20.7360 C   0  0  0  0  0  3  0  0  0  0  0  0
  -26.0370  -26.9960   19.5370 C   0  0  0  0  0  3  0  0  0  0  0  0
  -24.8410  -27.7450   19.5470 C   0  0  0  0  0  3  0  0  0  0  0  0
  -23.5580  -29.8640   20.2230 C   0  0  0  0  0  2  0  0  0  0  0  0
  -24.6210  -31.1470   22.1370 N   0  0  0  0  0  0  0  0  0  0  0  0
  -23.4910  -32.2080   23.7930 O   0  0  0  0  0  0  0  0  0  0  0  0
  -22.7130  -29.5170   22.5670 C   0  0  0  0  0  0  0  0  0  0  0  0
  -21.3880  -29.3290   22.4430 N   0  0  0  0  0  0  0  0  0  0  0  0
  -23.4010  -28.8930   23.3790 O   0  0  0  0  0  0  0  0  0  0  0  0
  -20.8920  -29.8860   21.7610 H   0  0  0  0  0  0  0  0  0  0  0  0
  -18.0230  -28.1130   22.9490 C   0  0  0  0  0  0  0  0  0  0  0  0
  -20.5800  -28.3850   23.2130 C   0  0  0  0  0  3  0  0  0  0  0  0
  -20.6880  -26.9560   22.6330 C   0  0  0  0  0  2  0  0  0  0  0  0
  -19.5860  -26.6310   21.6200 C   0  0  0  0  0  2  0  0  0  0  0  0
  -18.2060  -26.7680   22.2670 C   0  0  0  0  0  2  0  0  0  0  0  0
  -19.1390  -28.8810   23.3780 C   0  0  0  0  0  0  0  0  0  0  0  0
  -18.9150  -30.1410   23.9730 C   0  0  0  0  0  3  0  0  0  0  0  0
  -17.6080  -30.6370   24.1400 C   0  0  0  0  0  3  0  0  0  0  0  0
  -16.5060  -29.8670   23.7250 C   0  0  0  0  0  3  0  0  0  0  0  0
  -16.7160  -28.6070   23.1370 C   0  0  0  0  0  3  0  0  0  0  0  0
  -25.8570  -32.5730   23.8630 C   0  0  0  0  0  3  0  0  0  0  0  0
  -26.3740  -31.8070   25.1430 C   0  0  1  0  0  0  0  0  0  0  0  0
  -25.2820  -31.5770   26.2130 C   0  0  0  0  0  1  0  0  0  0  0  0
  -26.9520  -30.4250   24.7550 C   0  0  0  0  0  1  0  0  0  0  0  0
  -27.5300  -32.5990   25.7990 C   0  0  0  0  0  1  0  0  0  0  0  0
  -25.5540  -33.9750   24.1820 N   0  0  0  0  0  0  0  0  0  0  0  0
  -25.9010  -35.0200   23.4190 C   0  0  0  0  0  0  0  0  0  0  0  0
  -26.5790  -34.9040   22.3930 O   0  0  0  0  0  0  0  0  0  0  0  0
  -24.9500  -34.1380   24.9740 H   0  0  0  0  0  0  0  0  0  0  0  0
  -24.1910  -36.8250   23.0270 C   0  0  0  0  0  1  0  0  0  0  0  0
  -25.4160  -36.4150   23.8600 C   0  0  0  0  0  3  0  0  0  0  0  0
  -27.5450  -37.2870   24.7200 C   0  0  0  0  0  1  0  0  0  0  0  0
  -26.4590  -37.4580   23.7580 N   0  0  0  0  0  0  0  0  0  0  0  0
  -26.0580  -38.3820   23.8940 H   0  0  0  0  0  0  0  0  0  0  0  0
  1  2  2  0
  3  5  2  0
  3  4  1  0
  4  7  2  0
  5  8  1  0
  7  6  1  0
  7  1  1  0
  8 17  1  0
  8  6  2  0
  9 17  1  0
 10 15  1  0
 11 12  1  0
 11 10  1  0
 13 12  1  0
 13 22  1  0
 13 14  1  0
 15  9  1  0
 15 14  1  0
 16  9  2  0
 17 18  1  0
 19 20  2  0
 20 39  1  0
 21 20  1  0
 21 24  1  0
 22 19  1  0
 22 23  1  0
 23 21  2  0
 24 25  1  0
 25 26  2  0
 27 30  1  0
 27 26  1  0
 28 27  2  0
 29 28  1  0
 29 24  2  0
 30 31  1  0
 31 32  1  0
 32 33  2  0
 34 33  1  0
 34 38  1  0
 35 34  2  0
 36 31  2  0
 36 35  1  0
 37 36  1  0
 39 40  1  0
 40 43  1  0
 40 42  1  0
 41 39  2  0
 44 45  1  0
 44 19  1  0
 46 44  1  0
 47 48  2  0
 47  1  1  0
 49 48  1  0
 50 51  1  0
 50 49  1  0
 52 63  2  0
 53 51  1  0
 53 58  1  0
 54 62  1  0
 54 64  1  0
 55 61  1  0
 55 57  1  0
 56 62  1  0
 57 56  1  0
 58 57  2  0
 59 60  1  0
 59 53  2  0
 60 55  2  0
 61 54  1  0
 62 52  1  0
 64 66  2  0
 65 64  1  0
 67 65  1  0
 68 77  2  0
 68 73  1  0
 69 65  1  0
 69 73  1  0
 70 69  1  0
 71 72  1  0
 71 70  1  0
 72 68  1  0
 73 74  2  0
 74 75  1  0
 76 75  2  0
 77 76  1  0
 78 52  1  0
 78 83  1  0
 78 79  1  0
 79 82  1  1
 79 80  1  0
 81 79  1  0
 83 86  1  0
 84 88  1  0
 84 83  1  0
 85 84  2  0
 88 87  1  0
 90 88  1  0
 90 91  1  0
 90 89  1  0
M  ISO  4   9 100  17 100  50 101  51 101
M  END
>  <TORSDO>  (49) 
F 20

>  <SCORE>  (49) 
-13.600

>  <name>  (49) 
48

>  <ligand_id>  (49) 
48

>  <original_smiles>  (49) 
[H]C(C(=O)c1c([H])c([H])c([H])c(N([H])C(=O)N2C([H])([H])C([H])([H])C([H])([H])C([H])(n3nc(-c4c([H])c([H])c(Oc5c([H])c([H])c(F)c([H])c5F)c([H])c4[H])c(C(=O)N([H])[H])c3N([H])[H])C2([H])[H])c1[H])=C([H])C([H])([H])C([H])([H])Oc1c([H])c([H])c2c(c1[H])C([H])([H])N(C(=O)C([H])(N([H])C(=O)C([H])(N([H])C([H])([H])[H])C([H])([H])[H])C(C([H])([H])[H])(C([H])([H])[H])C([H])([H])[H])C([H])(C(=O)N([H])C1([H])c3c([H])c([H])c([H])c([H])c3C([H])([H])C([H])([H])C1([H])[H])C2([H])[H]

>  <smiles>  (49) 
[H]C(C(=O)c1c([H])c([H])c([H])c(N([H])C(=O)N2C([H])([H])C([H])([H])C([H])([H])C([H])(n3nc(-c4c([H])c([H])c(Oc5c([H])c([H])c(F)c([H])c5F)c([H])c4[H])c(C(=O)N([H])[H])c3N([H])[H])C2([H])[H])c1[H])=C([H])C([H])([H])C([H])([H])Oc1c([H])c([H])c2c(c1[H])C([H])([H])N(C(=O)C([H])(N([H])C(=O)C([H])(N([H])C([H])([H])[H])C([H])([H])[H])C(C([H])([H])[H])(C([H])([H])[H])C([H])([H])[H])C([H])(C(=O)N([H])C1([H])c3c([H])c([H])c([H])c([H])c3C([H])([H])C([H])([H])C1([H])[H])C2([H])[H]

$$$$
49:0:0
     RDKit          3D

 92100  0  0  1  0  0  0  0  0999 V2000
  -28.8470  -19.4660   20.5060 C   0  0  0  0  0  3  0  0  0  0  0  0
  -31.1910  -17.9370   20.5040 C   0  0  0  0  0  3  0  0  0  0  0  0
  -30.0670  -20.1770   20.4760 C   0  0  0  0  0  0  0  0  0  0  0  0
  -28.7910  -18.0430   20.5520 C   0  0  0  0  0  0  0  0  0  0  0  0
  -29.9620  -17.2230   20.5430 C   0  0  0  0  0  0  0  0  0  0  0  0
  -31.2410  -19.3660   20.4720 C   0  0  0  0  0  0  0  0  0  0  0  0
  -27.4150  -17.4210   20.5690 C   0  0  0  0  0  1  0  0  0  0  0  0
  -32.4540  -19.9690   20.4370 F   0  0  0  0  0  0  0  0  0  0  0  0
  -30.6080  -14.7090   20.1730 C   0  0  0  0  0  0  0  0  0  0  0  0
  -30.3470  -12.5150   19.0270 C   0  0  0  0  0  2  0  0  0  0  0  0
  -29.3570  -12.6870   17.8530 C   0  0  0  0  0  2  0  0  0  0  0  0
  -27.9020  -12.5080   18.3300 C   0  0  0  0  0  2  0  0  0  0  0  0
  -27.5860  -13.3210   19.6130 C   0  0  0  0  0  3  0  0  0  0  0  0
  -28.6880  -13.1300   20.6810 C   0  0  0  0  0  2  0  0  0  0  0  0
  -29.9770  -13.4940   20.0690 N   0  0  0  0  0  0  0  0  0  0  0  0
  -31.7590  -14.8660   19.7570 O   0  0  0  0  0  0  0  0  0  0  0  0
  -29.8260  -15.7580   20.5890 N   0  0  0  0  0  0  0  0  0  0  0  0
  -28.9120  -15.4450   20.8770 H   0  0  0  0  0  0  0  0  0  0  0  0
  -25.2020  -13.8780   20.4030 C   0  0  0  0  0  0  0  0  0  0  0  0
  -24.1580  -13.0940   20.8050 C   0  0  0  0  0  0  0  0  0  0  0  0
  -24.6320  -11.7500   20.7360 C   0  0  0  0  0  0  0  0  0  0  0  0
  -26.2540  -13.0170   20.1320 N   0  0  0  0  0  0  0  0  0  0  0  0
  -25.9140  -11.7270   20.3890 N   0  0  0  0  0  0  0  0  0  0  0  0
  -23.9170  -10.4820   20.9210 C   0  0  0  0  0  0  0  0  0  0  0  0
  -24.3370   -9.5330   21.8780 C   0  0  0  0  0  3  0  0  0  0  0  0
  -23.6220   -8.3290   22.0500 C   0  0  0  0  0  3  0  0  0  0  0  0
  -22.4720   -8.0680   21.2660 C   0  0  0  0  0  0  0  0  0  0  0  0
  -22.0720   -9.0070   20.3000 C   0  0  0  0  0  3  0  0  0  0  0  0
  -22.7890  -10.2030   20.1250 C   0  0  0  0  0  3  0  0  0  0  0  0
  -21.7310   -6.9140   21.3490 O   0  0  0  0  0  0  0  0  0  0  0  0
  -21.5950   -6.2300   22.5290 C   0  0  0  0  0  0  0  0  0  0  0  0
  -21.0270   -6.8270   23.6760 C   0  0  0  0  0  3  0  0  0  0  0  0
  -20.8420   -6.0640   24.8470 C   0  0  0  0  0  3  0  0  0  0  0  0
  -21.2160   -4.7080   24.8720 C   0  0  0  0  0  0  0  0  0  0  0  0
  -21.7790   -4.1110   23.7300 C   0  0  0  0  0  3  0  0  0  0  0  0
  -21.9650   -4.8700   22.5610 C   0  0  0  0  0  0  0  0  0  0  0  0
  -22.4870   -4.2840   21.4570 F   0  0  0  0  0  0  0  0  0  0  0  0
  -21.0310   -3.9740   25.9940 F   0  0  0  0  0  0  0  0  0  0  0  0
  -22.7680  -13.5620   21.1250 C   0  0  0  0  0  0  0  0  0  0  0  0
  -22.0720  -12.8540   22.0070 N   0  0  0  0  0  0  0  0  0  0  0  0
  -22.3080  -14.5920   20.6310 O   0  0  0  0  0  0  0  0  0  0  0  0
  -22.4560  -12.0220   22.4300 H   0  0  0  0  0  0  0  0  0  0  0  0
  -21.1400  -13.1500   22.2630 H   0  0  0  0  0  0  0  0  0  0  0  0
  -25.3220  -15.2440   20.2160 N   0  0  0  0  0  0  0  0  0  0  0  0
  -24.5130  -15.8500   20.2880 H   0  0  0  0  0  0  0  0  0  0  0  0
  -26.0850  -15.6590   19.6970 H   0  0  0  0  0  0  0  0  0  0  0  0
  -30.1420  -21.6970   20.4430 C   0  0  0  0  0  3  0  0  0  0  0  0
  -29.1520  -22.6350   20.2760 C   0  0  0  0  0  3  0  0  0  0  0  0
  -29.3730  -24.1400   20.2960 C   0  0  0  0  0  0  0  0  0  0  0  0
  -30.4720  -24.6300   20.5780 O   0  0  0  0  0  0  0  0  0  0  0  0
  -28.1900  -25.1130   19.9380 C   0  0  0  0  0  2  0  0  0  0  0  0
  -28.4000  -26.5530   20.2040 O   0  0  0  0  0  0  0  0  0  0  0  0
  -24.5880  -31.8710   23.2410 C   0  0  0  0  0  0  0  0  0  0  0  0
  -27.2630  -27.3750   20.1620 C   0  0  0  0  0  0  0  0  0  0  0  0
  -23.4080  -30.4810   21.5770 C   0  0  0  0  0  3  0  0  0  0  0  0
  -24.8810  -28.9560   20.1510 C   0  0  0  0  0  0  0  0  0  0  0  0
  -25.9460  -30.8210   21.4200 C   0  0  0  0  0  2  0  0  0  0  0  0
  -26.0400  -29.4520   20.7600 C   0  0  0  0  0  0  0  0  0  0  0  0
  -27.2350  -28.6720   20.7570 C   0  0  0  0  0  3  0  0  0  0  0  0
  -26.0740  -26.9280   19.5360 C   0  0  0  0  0  3  0  0  0  0  0  0
  -24.8990  -27.6990   19.5320 C   0  0  0  0  0  3  0  0  0  0  0  0
  -23.6390  -29.8220   20.1920 C   0  0  0  0  0  2  0  0  0  0  0  0
  -24.6660  -31.0730   22.1360 N   0  0  0  0  0  0  0  0  0  0  0  0
  -23.4970  -32.1390   23.7660 O   0  0  0  0  0  0  0  0  0  0  0  0
  -22.7410  -29.4510   22.5200 C   0  0  0  0  0  0  0  0  0  0  0  0
  -21.4160  -29.2750   22.3830 N   0  0  0  0  0  0  0  0  0  0  0  0
  -23.4160  -28.8140   23.3330 O   0  0  0  0  0  0  0  0  0  0  0  0
  -20.9330  -29.8430   21.7010 H   0  0  0  0  0  0  0  0  0  0  0  0
  -18.0280  -28.1150   22.8890 C   0  0  0  0  0  0  0  0  0  0  0  0
  -20.5920  -28.3300   23.1380 C   0  0  0  0  0  3  0  0  0  0  0  0
  -20.6680  -26.9130   22.5250 C   0  0  0  0  0  2  0  0  0  0  0  0
  -19.5500  -26.6310   21.5150 C   0  0  0  0  0  2  0  0  0  0  0  0
  -18.1780  -26.7810   22.1770 C   0  0  0  0  0  2  0  0  0  0  0  0
  -19.1620  -28.8500   23.3260 C   0  0  0  0  0  0  0  0  0  0  0  0
  -18.9680  -30.1000   23.9520 C   0  0  0  0  0  3  0  0  0  0  0  0
  -17.6710  -30.6150   24.1430 C   0  0  0  0  0  3  0  0  0  0  0  0
  -16.5530  -29.8770   23.7210 C   0  0  0  0  0  3  0  0  0  0  0  0
  -16.7320  -28.6280   23.1000 C   0  0  0  0  0  3  0  0  0  0  0  0
  -25.8620  -32.5030   23.8820 C   0  0  0  0  0  3  0  0  0  0  0  0
  -26.3450  -31.7470   25.1810 C   0  0  1  0  0  0  0  0  0  0  0  0
  -25.2240  -31.5250   26.2240 C   0  0  0  0  0  1  0  0  0  0  0  0
  -26.9350  -30.3630   24.8210 C   0  0  0  0  0  1  0  0  0  0  0  0
  -27.4810  -32.5470   25.8590 C   0  0  0  0  0  1  0  0  0  0  0  0
  -25.5560  -33.9090   24.1840 N   0  0  0  0  0  0  0  0  0  0  0  0
  -25.8810  -34.9430   23.3990 C   0  0  0  0  0  0  0  0  0  0  0  0
  -26.5410  -34.8160   22.3630 O   0  0  0  0  0  0  0  0  0  0  0  0
  -24.9690  -34.0810   24.9870 H   0  0  0  0  0  0  0  0  0  0  0  0
  -24.1380  -36.7200   23.0370 C   0  0  0  0  0  1  0  0  0  0  0  0
  -25.3990  -36.3420   23.8290 C   0  0  0  0  0  3  0  0  0  0  0  0
  -27.5470  -37.2600   24.5890 C   0  0  0  0  0  1  0  0  0  0  0  0
  -26.4230  -37.3960   23.6660 N   0  0  0  0  0  0  0  0  0  0  0  0
  -26.0130  -38.3170   23.8000 H   0  0  0  0  0  0  0  0  0  0  0  0
  1  4  1  0
  2  5  1  0
  3  1  2  0
  4  7  1  0
  5  4  2  0
  5 17  1  0
  6  3  1  0
  6  2  2  0
  8  6  1  0
  9 17  1  0
 10 15  1  0
 11 12  1  0
 11 10  1  0
 13 12  1  0
 13 22  1  0
 13 14  1  0
 15  9  1  0
 15 14  1  0
 16  9  2  0
 17 18  1  0
 19 20  2  0
 20 39  1  0
 21 20  1  0
 21 24  1  0
 22 23  1  0
 22 19  1  0
 23 21  2  0
 24 25  1  0
 25 26  2  0
 27 30  1  0
 27 26  1  0
 28 27  2  0
 29 28  1  0
 29 24  2  0
 30 31  1  0
 31 36  2  0
 31 32  1  0
 32 33  2  0
 33 34  1  0
 34 38  1  0
 35 34  2  0
 36 35  1  0
 37 36  1  0
 39 40  1  0
 40 43  1  0
 40 42  1  0
 41 39  2  0
 44 45  1  0
 44 19  1  0
 46 44  1  0
 47  3  1  0
 48 49  1  0
 48 47  2  0
 49 50  2  0
 51 52  1  0
 51 49  1  0
 53 64  2  0
 54 52  1  0
 54 59  1  0
 55 63  1  0
 55 65  1  0
 56 62  1  0
 56 58  1  0
 57 63  1  0
 58 57  1  0
 59 58  2  0
 60 54  2  0
 61 60  1  0
 61 56  2  0
 62 55  1  0
 63 53  1  0
 65 67  2  0
 66 65  1  0
 68 66  1  0
 69 78  2  0
 69 74  1  0
 70 66  1  0
 70 74  1  0
 71 70  1  0
 72 73  1  0
 72 71  1  0
 73 69  1  0
 74 75  2  0
 75 76  1  0
 77 76  2  0
 78 77  1  0
 79 53  1  0
 79 84  1  0
 79 80  1  0
 80 83  1  1
 80 81  1  0
 82 80  1  0
 84 87  1  0
 85 89  1  0
 85 84  1  0
 86 85  2  0
 89 88  1  0
 91 92  1  0
 91 89  1  0
 91 90  1  0
M  ISO  4   9 100  17 100  51 101  52 101
M  END
>  <TORSDO>  (50) 
F 19

>  <SCORE>  (50) 
-14.093

>  <name>  (50) 
49

>  <ligand_id>  (50) 
49

>  <original_smiles>  (50) 
[H]C(C(=O)C([H])([H])Oc1c([H])c([H])c2c(c1[H])C([H])([H])N(C(=O)C([H])(N([H])C(=O)C([H])(N([H])C([H])([H])[H])C([H])([H])[H])C(C([H])([H])[H])(C([H])([H])[H])C([H])([H])[H])C([H])(C(=O)N([H])C1([H])c3c([H])c([H])c([H])c([H])c3C([H])([H])C([H])([H])C1([H])[H])C2([H])[H])=C([H])c1c([H])c(C([H])([H])[H])c(N([H])C(=O)N2C([H])([H])C([H])([H])C([H])([H])C([H])(n3nc(-c4c([H])c([H])c(Oc5c([H])c([H])c(F)c([H])c5F)c([H])c4[H])c(C(=O)N([H])[H])c3N([H])[H])C2([H])[H])c([H])c1F

>  <smiles>  (50) 
[H]C(C(=O)C([H])([H])Oc1c([H])c([H])c2c(c1[H])C([H])([H])N(C(=O)C([H])(N([H])C(=O)C([H])(N([H])C([H])([H])[H])C([H])([H])[H])C(C([H])([H])[H])(C([H])([H])[H])C([H])([H])[H])C([H])(C(=O)N([H])C1([H])c3c([H])c([H])c([H])c([H])c3C([H])([H])C([H])([H])C1([H])[H])C2([H])[H])=C([H])c1c([H])c(C([H])([H])[H])c(N([H])C(=O)N2C([H])([H])C([H])([H])C([H])([H])C([H])(n3nc(-c4c([H])c([H])c(Oc5c([H])c([H])c(F)c([H])c5F)c([H])c4[H])c(C(=O)N([H])[H])c3N([H])[H])C2([H])[H])c([H])c1F

$$$$
50:0:0
     RDKit          3D

 91 99  0  0  1  0  0  0  0  0999 V2000
  -30.0360  -19.8190   18.2770 C   0  0  0  0  0  3  0  0  0  0  0  0
  -30.4690  -17.4030   18.3540 C   0  0  0  0  0  3  0  0  0  0  0  0
  -29.5870  -19.8530   19.6150 C   0  0  0  0  0  0  0  0  0  0  0  0
  -29.5350  -18.5480   20.2950 C   0  0  0  0  0  0  0  0  0  0  0  0
  -30.0120  -17.2960   19.6870 C   0  0  0  0  0  0  0  0  0  0  0  0
  -30.4640  -18.6270   17.6610 C   0  0  0  0  0  0  0  0  0  0  0  0
  -28.9490  -18.5070   21.6950 C   0  0  0  0  0  1  0  0  0  0  0  0
  -30.8870  -18.6580   16.3730 F   0  0  0  0  0  0  0  0  0  0  0  0
  -30.7200  -14.7800   19.9440 C   0  0  0  0  0  0  0  0  0  0  0  0
  -30.4540  -12.5100   18.9350 C   0  0  0  0  0  2  0  0  0  0  0  0
  -29.4440  -12.6220   17.7720 C   0  0  0  0  0  2  0  0  0  0  0  0
  -28.0010  -12.4510   18.2850 C   0  0  0  0  0  2  0  0  0  0  0  0
  -27.7160  -13.3130   19.5440 C   0  0  0  0  0  3  0  0  0  0  0  0
  -28.8390  -13.1920   20.5950 C   0  0  0  0  0  2  0  0  0  0  0  0
  -30.1000  -13.5480   19.9340 N   0  0  0  0  0  0  0  0  0  0  0  0
  -31.8750  -14.8700   19.5140 O   0  0  0  0  0  0  0  0  0  0  0  0
  -29.9830  -15.9200   20.2840 N   0  0  0  0  0  0  0  0  0  0  0  0
  -29.1760  -15.7240   20.8570 H   0  0  0  0  0  0  0  0  0  0  0  0
  -25.3930  -13.9090   20.4460 C   0  0  0  0  0  0  0  0  0  0  0  0
  -24.3440  -13.1390   20.8630 C   0  0  0  0  0  0  0  0  0  0  0  0
  -24.7860  -11.7840   20.7660 C   0  0  0  0  0  0  0  0  0  0  0  0
  -26.4060  -13.0250   20.1130 N   0  0  0  0  0  0  0  0  0  0  0  0
  -26.0530  -11.7390   20.3680 N   0  0  0  0  0  0  0  0  0  0  0  0
  -24.0570  -10.5240   20.9660 C   0  0  0  0  0  0  0  0  0  0  0  0
  -24.5110   -9.5410   21.8740 C   0  0  0  0  0  3  0  0  0  0  0  0
  -23.7790   -8.3500   22.0680 C   0  0  0  0  0  3  0  0  0  0  0  0
  -22.5800   -8.1300   21.3510 C   0  0  0  0  0  0  0  0  0  0  0  0
  -22.1420   -9.1000   20.4330 C   0  0  0  0  0  3  0  0  0  0  0  0
  -22.8740  -10.2830   20.2390 C   0  0  0  0  0  3  0  0  0  0  0  0
  -21.8180   -6.9910   21.4540 O   0  0  0  0  0  0  0  0  0  0  0  0
  -21.7690   -6.2590   22.6130 C   0  0  0  0  0  0  0  0  0  0  0  0
  -21.3110   -6.8190   23.8250 C   0  0  0  0  0  3  0  0  0  0  0  0
  -21.2090   -6.0140   24.9780 C   0  0  0  0  0  3  0  0  0  0  0  0
  -21.5550   -4.6500   24.9170 C   0  0  0  0  0  0  0  0  0  0  0  0
  -22.0070   -4.0910   23.7100 C   0  0  0  0  0  3  0  0  0  0  0  0
  -22.1100   -4.8930   22.5590 C   0  0  0  0  0  0  0  0  0  0  0  0
  -22.5250   -4.3440   21.3920 F   0  0  0  0  0  0  0  0  0  0  0  0
  -21.4510   -3.8740   26.0210 F   0  0  0  0  0  0  0  0  0  0  0  0
  -22.9740  -13.6240   21.2430 C   0  0  0  0  0  0  0  0  0  0  0  0
  -22.3020  -12.9150   22.1410 N   0  0  0  0  0  0  0  0  0  0  0  0
  -22.5150  -14.6670   20.7770 O   0  0  0  0  0  0  0  0  0  0  0  0
  -22.6880  -12.0690   22.5350 H   0  0  0  0  0  0  0  0  0  0  0  0
  -21.3870  -13.2200   22.4440 H   0  0  0  0  0  0  0  0  0  0  0  0
  -25.5640  -15.2840   20.2970 N   0  0  0  0  0  0  0  0  0  0  0  0
  -24.8090  -15.9400   20.4620 H   0  0  0  0  0  0  0  0  0  0  0  0
  -26.3900  -15.7210   19.9120 H   0  0  0  0  0  0  0  0  0  0  0  0
  -29.2410  -21.2610   20.2000 C   0  0  0  0  0  3  0  0  0  0  0  0
  -28.9360  -22.4740   19.5810 C   0  0  0  0  0  3  0  0  0  0  0  0
  -28.7710  -23.8570   20.2020 C   0  0  0  0  0  3  0  0  0  0  0  0
  -28.3510  -25.0450   19.6080 C   0  0  0  0  0  3  0  0  0  0  0  0
  -28.3390  -26.3590   20.1760 O   0  0  0  0  0  0  0  0  0  0  0  0
  -24.6150  -31.7940   23.2390 C   0  0  0  0  0  0  0  0  0  0  0  0
  -27.2350  -27.2450   20.1040 C   0  0  0  0  0  0  0  0  0  0  0  0
  -23.4270  -30.4350   21.5600 C   0  0  0  0  0  3  0  0  0  0  0  0
  -24.8870  -28.9010   20.1190 C   0  0  0  0  0  0  0  0  0  0  0  0
  -25.9730  -30.7310   21.4140 C   0  0  0  0  0  2  0  0  0  0  0  0
  -26.0540  -29.3620   20.7390 C   0  0  0  0  0  0  0  0  0  0  0  0
  -27.2290  -28.5440   20.7220 C   0  0  0  0  0  3  0  0  0  0  0  0
  -26.0380  -26.8450   19.4730 C   0  0  0  0  0  3  0  0  0  0  0  0
  -24.8830  -27.6520   19.4820 C   0  0  0  0  0  3  0  0  0  0  0  0
  -23.6580  -29.7840   20.1690 C   0  0  0  0  0  2  0  0  0  0  0  0
  -24.6920  -31.0040   22.1270 N   0  0  0  0  0  0  0  0  0  0  0  0
  -23.5260  -32.0680   23.7660 O   0  0  0  0  0  0  0  0  0  0  0  0
  -22.7450  -29.4080   22.4930 C   0  0  0  0  0  0  0  0  0  0  0  0
  -21.4220  -29.2270   22.3340 N   0  0  0  0  0  0  0  0  0  0  0  0
  -23.4050  -28.7760   23.3210 O   0  0  0  0  0  0  0  0  0  0  0  0
  -20.9500  -29.7900   21.6420 H   0  0  0  0  0  0  0  0  0  0  0  0
  -18.0420  -27.9950   22.7220 C   0  0  0  0  0  0  0  0  0  0  0  0
  -20.5880  -28.2780   23.0750 C   0  0  0  0  0  3  0  0  0  0  0  0
  -20.7220  -26.8510   22.4920 C   0  0  0  0  0  2  0  0  0  0  0  0
  -19.6540  -26.5240   21.4440 C   0  0  0  0  0  2  0  0  0  0  0  0
  -18.2510  -26.6500   22.0450 C   0  0  0  0  0  2  0  0  0  0  0  0
  -19.1380  -28.7650   23.1900 C   0  0  0  0  0  0  0  0  0  0  0  0
  -18.8870  -30.0210   23.7840 C   0  0  0  0  0  3  0  0  0  0  0  0
  -17.5740  -30.5050   23.9170 C   0  0  0  0  0  3  0  0  0  0  0  0
  -16.4910  -29.7320   23.4660 C   0  0  0  0  0  3  0  0  0  0  0  0
  -16.7250  -28.4790   22.8710 C   0  0  0  0  0  3  0  0  0  0  0  0
  -25.8920  -32.4130   23.8880 C   0  0  0  0  0  3  0  0  0  0  0  0
  -25.5930  -33.8150   24.2140 N   0  0  0  0  0  0  0  0  0  0  0  0
  -25.9250  -34.8630   23.4490 C   0  0  0  0  0  0  0  0  0  0  0  0
  -26.5820  -34.7510   22.4110 O   0  0  0  0  0  0  0  0  0  0  0  0
  -25.0060  -33.9810   25.0180 H   0  0  0  0  0  0  0  0  0  0  0  0
  -24.1950  -36.6640   23.1240 C   0  0  0  0  0  1  0  0  0  0  0  0
  -25.4530  -36.2600   23.9070 C   0  0  0  0  0  3  0  0  0  0  0  0
  -27.6070  -37.1460   24.6850 C   0  0  0  0  0  1  0  0  0  0  0  0
  -26.4880  -37.3080   23.7600 N   0  0  0  0  0  0  0  0  0  0  0  0
  -26.0880  -38.2300   23.9080 H   0  0  0  0  0  0  0  0  0  0  0  0
  -26.3670  -31.6380   25.1780 C   0  0  1  0  0  0  0  0  0  0  0  0
  -25.2450  -31.4220   26.2210 C   0  0  0  0  0  1  0  0  0  0  0  0
  -26.9350  -30.2490   24.8040 C   0  0  0  0  0  1  0  0  0  0  0  0
  -27.5120  -32.4160   25.8650 C   0  0  0  0  0  1  0  0  0  0  0  0
  1  3  1  0
  2  5  2  0
  3 47  1  0
  3  4  2  0
  4  7  1  0
  5 17  1  0
  5  4  1  0
  6  1  2  0
  6  2  1  0
  8  6  1  0
  9 17  1  0
 10 15  1  0
 11 12  1  0
 11 10  1  0
 13 12  1  0
 13 22  1  0
 13 14  1  0
 15  9  1  0
 15 14  1  0
 16  9  2  0
 17 18  1  0
 19 20  2  0
 20 39  1  0
 21 20  1  0
 21 24  1  0
 22 23  1  0
 22 19  1  0
 23 21  2  0
 24 25  1  0
 25 26  2  0
 27 30  1  0
 27 26  1  0
 28 27  2  0
 29 28  1  0
 29 24  2  0
 30 31  1  0
 31 32  1  0
 32 33  2  0
 34 33  1  0
 34 38  1  0
 35 34  2  0
 36 31  2  0
 36 35  1  0
 37 36  1  0
 39 40  1  0
 40 43  1  0
 40 42  1  0
 41 39  2  0
 44 19  1  0
 44 45  1  0
 46 44  1  0
 48 47  2  0
 48 49  1  0
 50 51  1  0
 50 49  2  0
 52 63  2  0
 53 51  1  0
 53 58  1  0
 54 62  1  0
 54 64  1  0
 55 61  1  0
 55 57  1  0
 56 62  1  0
 57 56  1  0
 58 57  2  0
 59 60  1  0
 59 53  2  0
 60 55  2  0
 61 54  1  0
 62 52  1  0
 64 66  2  0
 65 64  1  0
 67 65  1  0
 68 77  2  0
 68 73  1  0
 69 65  1  0
 69 73  1  0
 70 69  1  0
 71 72  1  0
 71 70  1  0
 72 68  1  0
 73 74  2  0
 74 75  1  0
 76 75  2  0
 77 76  1  0
 78 52  1  0
 78 79  1  0
 78 88  1  0
 79 82  1  0
 80 84  1  0
 80 79  1  0
 81 80  2  0
 84 83  1  0
 86 84  1  0
 86 87  1  0
 86 85  1  0
 88 91  1  1
 88 89  1  0
 90 88  1  0
M  ISO  4   9 100  17 100  50 101  51 101
M  END
>  <TORSDO>  (51) 
F 18

>  <SCORE>  (51) 
-13.174

>  <name>  (51) 
50

>  <ligand_id>  (51) 
50

>  <original_smiles>  (51) 
[H]C(Oc1c([H])c([H])c2c(c1[H])C([H])([H])N(C(=O)C([H])(N([H])C(=O)C([H])(N([H])C([H])([H])[H])C([H])([H])[H])C(C([H])([H])[H])(C([H])([H])[H])C([H])([H])[H])C([H])(C(=O)N([H])C1([H])c3c([H])c([H])c([H])c([H])c3C([H])([H])C([H])([H])C1([H])[H])C2([H])[H])=C([H])C([H])=C([H])c1c([H])c(F)c([H])c(N([H])C(=O)N2C([H])([H])C([H])([H])C([H])([H])C([H])(n3nc(-c4c([H])c([H])c(Oc5c([H])c([H])c(F)c([H])c5F)c([H])c4[H])c(C(=O)N([H])[H])c3N([H])[H])C2([H])[H])c1C([H])([H])[H]

>  <smiles>  (51) 
[H]C(Oc1c([H])c([H])c2c(c1[H])C([H])([H])N(C(=O)C([H])(N([H])C(=O)C([H])(N([H])C([H])([H])[H])C([H])([H])[H])C(C([H])([H])[H])(C([H])([H])[H])C([H])([H])[H])C([H])(C(=O)N([H])C1([H])c3c([H])c([H])c([H])c([H])c3C([H])([H])C([H])([H])C1([H])[H])C2([H])[H])=C([H])C([H])=C([H])c1c([H])c(F)c([H])c(N([H])C(=O)N2C([H])([H])C([H])([H])C([H])([H])C([H])(n3nc(-c4c([H])c([H])c(Oc5c([H])c([H])c(F)c([H])c5F)c([H])c4[H])c(C(=O)N([H])[H])c3N([H])[H])C2([H])[H])c1C([H])([H])[H]

$$$$
51:0:0
     RDKit          3D

 92100  0  0  1  0  0  0  0  0999 V2000
  -30.0930  -19.6670   20.3000 C   0  0  0  0  0  3  0  0  0  0  0  0
  -27.6820  -19.7550   18.9070 C   0  0  0  0  0  3  0  0  0  0  0  0
  -29.5130  -18.4390   19.8710 C   0  0  0  0  0  0  0  0  0  0  0  0
  -28.2830  -18.5020   19.1540 C   0  0  0  0  0  0  0  0  0  0  0  0
  -28.2850  -20.9650   19.3050 C   0  0  0  0  0  0  0  0  0  0  0  0
  -29.4970  -20.9350   20.0470 C   0  0  0  0  0  0  0  0  0  0  0  0
  -27.6350  -17.2800   18.5100 C   0  0  0  0  0  1  0  0  0  0  0  0
  -27.6440  -22.2700   18.8410 C   0  0  0  0  0  1  0  0  0  0  0  0
  -30.2730  -17.1670   20.1130 C   0  0  0  0  0  3  0  0  0  0  0  0
  -29.7940  -15.9290   20.4170 C   0  0  0  0  0  3  0  0  0  0  0  0
  -30.6690  -14.7300   20.4220 C   0  0  0  0  0  0  0  0  0  0  0  0
  -30.4120  -12.5550   19.3210 C   0  0  0  0  0  2  0  0  0  0  0  0
  -29.4740  -12.8140   18.1220 C   0  0  0  0  0  2  0  0  0  0  0  0
  -28.0040  -12.6090   18.5390 C   0  0  0  0  0  2  0  0  0  0  0  0
  -27.6450  -13.3940   19.8290 C   0  0  0  0  0  3  0  0  0  0  0  0
  -28.7180  -13.2110   20.9320 C   0  0  0  0  0  2  0  0  0  0  0  0
  -30.0360  -13.5240   20.3650 N   0  0  0  0  0  0  0  0  0  0  0  0
  -31.8790  -14.8260   20.1950 O   0  0  0  0  0  0  0  0  0  0  0  0
  -25.2540  -13.9470   20.5800 C   0  0  0  0  0  0  0  0  0  0  0  0
  -24.2050  -13.1480   20.9460 C   0  0  0  0  0  0  0  0  0  0  0  0
  -24.6980  -11.8080   20.9040 C   0  0  0  0  0  0  0  0  0  0  0  0
  -26.3110  -13.0860   20.3270 N   0  0  0  0  0  0  0  0  0  0  0  0
  -25.9860  -11.7990   20.5900 N   0  0  0  0  0  0  0  0  0  0  0  0
  -24.0060  -10.5300   21.0800 C   0  0  0  0  0  0  0  0  0  0  0  0
  -24.4330   -9.5840   22.0380 C   0  0  0  0  0  3  0  0  0  0  0  0
  -23.7440   -8.3640   22.2000 C   0  0  0  0  0  3  0  0  0  0  0  0
  -22.6080   -8.0840   21.4030 C   0  0  0  0  0  0  0  0  0  0  0  0
  -22.2000   -9.0180   20.4350 C   0  0  0  0  0  3  0  0  0  0  0  0
  -22.8940  -10.2280   20.2700 C   0  0  0  0  0  3  0  0  0  0  0  0
  -21.8850   -6.9200   21.4750 O   0  0  0  0  0  0  0  0  0  0  0  0
  -21.7820   -6.2030   22.6410 C   0  0  0  0  0  0  0  0  0  0  0  0
  -21.2110   -6.7550   23.8090 C   0  0  0  0  0  3  0  0  0  0  0  0
  -21.0650   -5.9630   24.9630 C   0  0  0  0  0  3  0  0  0  0  0  0
  -21.4830   -4.6170   24.9500 C   0  0  0  0  0  0  0  0  0  0  0  0
  -22.0470   -4.0650   23.7870 C   0  0  0  0  0  3  0  0  0  0  0  0
  -22.1910   -4.8570   22.6350 C   0  0  0  0  0  0  0  0  0  0  0  0
  -22.7160   -4.3120   21.5100 F   0  0  0  0  0  0  0  0  0  0  0  0
  -21.3370   -3.8510   26.0580 F   0  0  0  0  0  0  0  0  0  0  0  0
  -22.7970  -13.5890   21.2250 C   0  0  0  0  0  0  0  0  0  0  0  0
  -22.0760  -12.8620   22.0710 N   0  0  0  0  0  0  0  0  0  0  0  0
  -22.3430  -14.6120   20.7190 O   0  0  0  0  0  0  0  0  0  0  0  0
  -22.4570  -12.0310   22.5030 H   0  0  0  0  0  0  0  0  0  0  0  0
  -21.1300  -13.1400   22.2930 H   0  0  0  0  0  0  0  0  0  0  0  0
  -25.3950  -15.3230   20.4210 N   0  0  0  0  0  0  0  0  0  0  0  0
  -24.6250  -15.9700   20.5570 H   0  0  0  0  0  0  0  0  0  0  0  0
  -26.2520  -15.7780   20.1360 H   0  0  0  0  0  0  0  0  0  0  0  0
  -30.1490  -22.0870   20.4620 O   0  0  0  0  0  0  0  0  0  0  0  0
  -29.4050  -22.9980   21.2990 C   0  0  0  0  0  2  0  0  0  0  0  0
  -29.6280  -24.4880   20.9220 C   0  0  0  0  0  0  0  0  0  0  0  0
  -30.7480  -24.9300   20.6370 O   0  0  0  0  0  0  0  0  0  0  0  0
  -28.3730  -25.3890   20.9470 C   0  0  0  0  0  2  0  0  0  0  0  0
  -28.6080  -26.7790   20.6010 O   0  0  0  0  0  0  0  0  0  0  0  0
  -24.5810  -31.9790   23.3780 C   0  0  0  0  0  0  0  0  0  0  0  0
  -27.4500  -27.5330   20.4860 C   0  0  0  0  0  0  0  0  0  0  0  0
  -23.4830  -30.5340   21.7030 C   0  0  0  0  0  3  0  0  0  0  0  0
  -25.0310  -29.0140   20.3600 C   0  0  0  0  0  0  0  0  0  0  0  0
  -26.0140  -30.9340   21.6270 C   0  0  0  0  0  2  0  0  0  0  0  0
  -26.1550  -29.5640   20.9910 C   0  0  0  0  0  0  0  0  0  0  0  0
  -27.3700  -28.8360   21.0390 C   0  0  0  0  0  3  0  0  0  0  0  0
  -26.3080  -27.0150   19.8290 C   0  0  0  0  0  3  0  0  0  0  0  0
  -25.1060  -27.7420   19.7720 C   0  0  0  0  0  3  0  0  0  0  0  0
  -23.7660  -29.8390   20.3440 C   0  0  0  0  0  2  0  0  0  0  0  0
  -24.7070  -31.1680   22.2900 N   0  0  0  0  0  0  0  0  0  0  0  0
  -23.4680  -32.2330   23.8630 O   0  0  0  0  0  0  0  0  0  0  0  0
  -22.8080  -29.5130   22.6450 C   0  0  0  0  0  0  0  0  0  0  0  0
  -21.4940  -29.3030   22.4610 N   0  0  0  0  0  0  0  0  0  0  0  0
  -23.4670  -28.9090   23.4970 O   0  0  0  0  0  0  0  0  0  0  0  0
  -21.0280  -29.8370   21.7420 H   0  0  0  0  0  0  0  0  0  0  0  0
  -18.1110  -28.0930   22.8640 C   0  0  0  0  0  0  0  0  0  0  0  0
  -20.6590  -28.3610   23.2050 C   0  0  0  0  0  3  0  0  0  0  0  0
  -20.7810  -26.9340   22.6250 C   0  0  0  0  0  2  0  0  0  0  0  0
  -19.7090  -26.6100   21.5810 C   0  0  0  0  0  2  0  0  0  0  0  0
  -18.3090  -26.7510   22.1820 C   0  0  0  0  0  2  0  0  0  0  0  0
  -19.2140  -28.8580   23.3260 C   0  0  0  0  0  0  0  0  0  0  0  0
  -18.9730  -30.1190   23.9130 C   0  0  0  0  0  3  0  0  0  0  0  0
  -17.6630  -30.6120   24.0480 C   0  0  0  0  0  3  0  0  0  0  0  0
  -16.5750  -29.8430   23.6060 C   0  0  0  0  0  3  0  0  0  0  0  0
  -16.7990  -28.5870   23.0180 C   0  0  0  0  0  3  0  0  0  0  0  0
  -25.8200  -32.6420   24.0520 C   0  0  0  0  0  3  0  0  0  0  0  0
  -25.4830  -34.0460   24.3120 N   0  0  0  0  0  0  0  0  0  0  0  0
  -25.8420  -35.0770   23.5330 C   0  0  0  0  0  0  0  0  0  0  0  0
  -26.5630  -34.9470   22.5410 O   0  0  0  0  0  0  0  0  0  0  0  0
  -24.8400  -34.2210   25.0730 H   0  0  0  0  0  0  0  0  0  0  0  0
  -24.1160  -36.8370   23.0310 C   0  0  0  0  0  1  0  0  0  0  0  0
  -25.3150  -36.4730   23.9200 C   0  0  0  0  0  3  0  0  0  0  0  0
  -27.3890  -37.4130   24.8370 C   0  0  0  0  0  1  0  0  0  0  0  0
  -26.3410  -37.5350   23.8290 N   0  0  0  0  0  0  0  0  0  0  0  0
  -25.9160  -38.4550   23.9140 H   0  0  0  0  0  0  0  0  0  0  0  0
  -26.2690  -31.9220   25.3820 C   0  0  1  0  0  0  0  0  0  0  0  0
  -25.1150  -31.6970   26.3860 C   0  0  0  0  0  1  0  0  0  0  0  0
  -26.9000  -30.5430   25.0740 C   0  0  0  0  0  1  0  0  0  0  0  0
  -27.3620  -32.7620   26.0880 C   0  0  0  0  0  1  0  0  0  0  0  0
  2  4  2  0
  2  5  1  0
  3  9  1  0
  3  1  2  0
  4  3  1  0
  5  6  2  0
  6  1  1  0
  6 47  1  0
  7  4  1  0
  8  5  1  0
  9 10  2  0
 10 11  1  0
 12 17  1  0
 13 14  1  0
 13 12  1  0
 15 14  1  0
 15 22  1  0
 15 16  1  0
 17 11  1  0
 17 16  1  0
 18 11  2  0
 19 20  2  0
 20 39  1  0
 21 20  1  0
 21 24  1  0
 22 19  1  0
 22 23  1  0
 23 21  2  0
 24 25  1  0
 25 26  2  0
 27 30  1  0
 27 26  1  0
 28 27  2  0
 29 28  1  0
 29 24  2  0
 30 31  1  0
 31 32  1  0
 32 33  2  0
 34 33  1  0
 34 38  1  0
 35 34  2  0
 36 31  2  0
 36 35  1  0
 37 36  1  0
 39 40  1  0
 40 43  1  0
 40 42  1  0
 41 39  2  0
 44 45  1  0
 44 19  1  0
 46 44  1  0
 47 48  1  0
 49 51  1  0
 49 48  1  0
 50 49  2  0
 52 51  1  0
 53 64  2  0
 54 52  1  0
 54 59  1  0
 55 63  1  0
 55 65  1  0
 56 58  1  0
 57 63  1  0
 58 59  2  0
 58 57  1  0
 60 54  2  0
 61 60  1  0
 61 56  2  0
 62 56  1  0
 62 55  1  0
 63 53  1  0
 65 67  2  0
 66 65  1  0
 68 66  1  0
 69 78  2  0
 69 74  1  0
 70 66  1  0
 70 74  1  0
 71 70  1  0
 72 73  1  0
 72 71  1  0
 73 69  1  0
 74 75  2  0
 75 76  1  0
 77 76  2  0
 78 77  1  0
 79 53  1  0
 79 80  1  0
 79 89  1  0
 80 83  1  0
 81 85  1  0
 81 80  1  0
 82 81  2  0
 85 84  1  0
 87 88  1  0
 87 85  1  0
 87 86  1  0
 89 92  1  1
 89 90  1  0
 91 89  1  0
M  ISO  4  10 100  11 100  51 101  52 101
M  END
>  <TORSDO>  (52) 
F 21

>  <SCORE>  (52) 
-13.638

>  <name>  (52) 
51

>  <ligand_id>  (52) 
51

>  <original_smiles>  (52) 
[H]C(C(=O)N1C([H])([H])C([H])([H])C([H])([H])C([H])(n2nc(-c3c([H])c([H])c(Oc4c([H])c([H])c(F)c([H])c4F)c([H])c3[H])c(C(=O)N([H])[H])c2N([H])[H])C1([H])[H])=C([H])c1c([H])c(OC([H])([H])C(=O)C([H])([H])Oc2c([H])c([H])c3c(c2[H])C([H])([H])N(C(=O)C([H])(N([H])C(=O)C([H])(N([H])C([H])([H])[H])C([H])([H])[H])C(C([H])([H])[H])(C([H])([H])[H])C([H])([H])[H])C([H])(C(=O)N([H])C2([H])c4c([H])c([H])c([H])c([H])c4C([H])([H])C([H])([H])C2([H])[H])C3([H])[H])c(C([H])([H])[H])c([H])c1C([H])([H])[H]

>  <smiles>  (52) 
[H]C(C(=O)N1C([H])([H])C([H])([H])C([H])([H])C([H])(n2nc(-c3c([H])c([H])c(Oc4c([H])c([H])c(F)c([H])c4F)c([H])c3[H])c(C(=O)N([H])[H])c2N([H])[H])C1([H])[H])=C([H])c1c([H])c(OC([H])([H])C(=O)C([H])([H])Oc2c([H])c([H])c3c(c2[H])C([H])([H])N(C(=O)C([H])(N([H])C(=O)C([H])(N([H])C([H])([H])[H])C([H])([H])[H])C(C([H])([H])[H])(C([H])([H])[H])C([H])([H])[H])C([H])(C(=O)N([H])C2([H])c4c([H])c([H])c([H])c([H])c4C([H])([H])C([H])([H])C2([H])[H])C3([H])[H])c(C([H])([H])[H])c([H])c1C([H])([H])[H]

$$$$
52:0:0
     RDKit          3D

 92100  0  0  1  0  0  0  0  0999 V2000
  -30.7260  -19.8620   19.4390 C   0  0  0  0  0  3  0  0  0  0  0  0
  -30.8740  -18.4340   19.6640 C   0  0  0  0  0  3  0  0  0  0  0  0
  -28.3920  -19.6580   19.4810 C   0  0  0  0  0  3  0  0  0  0  0  0
  -29.4780  -20.5650   19.3340 C   0  0  0  0  0  0  0  0  0  0  0  0
  -29.7860  -17.5100   19.7980 C   0  0  0  0  0  0  0  0  0  0  0  0
  -28.5180  -18.2230   19.6680 C   0  0  0  0  0  0  0  0  0  0  0  0
  -29.9020  -15.9490   20.2180 C   0  0  0  0  0  0  0  0  0  0  0  0
  -29.5490  -15.6810   21.4060 N   0  0  0  0  0  0  0  0  0  0  0  0
  -29.2220  -16.5190   21.8710 H   0  0  0  0  0  0  0  0  0  0  0  0
  -30.4970  -14.6810   19.3690 C   0  0  0  0  0  0  0  0  0  0  0  0
  -30.2730  -12.3280   18.4640 C   0  0  0  0  0  2  0  0  0  0  0  0
  -29.1850  -12.2820   17.3640 C   0  0  0  0  0  2  0  0  0  0  0  0
  -27.7880  -12.0700   17.9770 C   0  0  0  0  0  2  0  0  0  0  0  0
  -27.5360  -12.9980   19.1920 C   0  0  0  0  0  3  0  0  0  0  0  0
  -28.7240  -12.9760   20.1750 C   0  0  0  0  0  2  0  0  0  0  0  0
  -29.9260  -13.4070   19.4360 N   0  0  0  0  0  0  0  0  0  0  0  0
  -31.5280  -14.8210   18.6980 O   0  0  0  0  0  0  0  0  0  0  0  0
  -25.2790  -13.5790   20.2600 C   0  0  0  0  0  0  0  0  0  0  0  0
  -24.2700  -12.8010   20.7610 C   0  0  0  0  0  0  0  0  0  0  0  0
  -24.7110  -11.4490   20.6270 C   0  0  0  0  0  0  0  0  0  0  0  0
  -26.2700  -12.7000   19.8550 N   0  0  0  0  0  0  0  0  0  0  0  0
  -25.9450  -11.4120   20.1360 N   0  0  0  0  0  0  0  0  0  0  0  0
  -24.0060  -10.1860   20.8860 C   0  0  0  0  0  0  0  0  0  0  0  0
  -24.4640   -9.2680   21.8560 C   0  0  0  0  0  3  0  0  0  0  0  0
  -23.7570   -8.0710   22.1000 C   0  0  0  0  0  3  0  0  0  0  0  0
  -22.5790   -7.7830   21.3730 C   0  0  0  0  0  0  0  0  0  0  0  0
  -22.1380   -8.6880   20.3920 C   0  0  0  0  0  3  0  0  0  0  0  0
  -22.8470   -9.8770   20.1460 C   0  0  0  0  0  3  0  0  0  0  0  0
  -21.8420   -6.6330   21.5230 O   0  0  0  0  0  0  0  0  0  0  0  0
  -21.7040   -6.0210   22.7420 C   0  0  0  0  0  0  0  0  0  0  0  0
  -21.1420   -6.6890   23.8530 C   0  0  0  0  0  3  0  0  0  0  0  0
  -20.9560   -6.0010   25.0680 C   0  0  0  0  0  3  0  0  0  0  0  0
  -21.3200   -4.6450   25.1740 C   0  0  0  0  0  0  0  0  0  0  0  0
  -21.8740   -3.9760   24.0680 C   0  0  0  0  0  3  0  0  0  0  0  0
  -22.0620   -4.6620   22.8550 C   0  0  0  0  0  0  0  0  0  0  0  0
  -22.5770   -4.0080   21.7870 F   0  0  0  0  0  0  0  0  0  0  0  0
  -21.1340   -3.9820   26.3390 F   0  0  0  0  0  0  0  0  0  0  0  0
  -22.9310  -13.2800   21.2410 C   0  0  0  0  0  0  0  0  0  0  0  0
  -22.3390  -12.5790   22.2020 N   0  0  0  0  0  0  0  0  0  0  0  0
  -22.4240  -14.3100   20.8000 O   0  0  0  0  0  0  0  0  0  0  0  0
  -22.7650  -11.7440   22.5770 H   0  0  0  0  0  0  0  0  0  0  0  0
  -21.4470  -12.8810   22.5680 H   0  0  0  0  0  0  0  0  0  0  0  0
  -25.4260  -14.9520   20.0930 N   0  0  0  0  0  0  0  0  0  0  0  0
  -24.6830  -15.6040   20.3170 H   0  0  0  0  0  0  0  0  0  0  0  0
  -26.2110  -15.3880   19.6280 H   0  0  0  0  0  0  0  0  0  0  0  0
  -29.3560  -22.1060   18.9700 C   0  0  0  0  0  3  0  0  0  0  0  0
  -28.5960  -23.2200   19.3820 C   0  0  0  0  0  3  0  0  0  0  0  0
  -29.1810  -24.7980   17.3490 C   0  0  0  0  0  1  0  0  0  0  0  0
  -28.3890  -24.6730   18.6590 C   0  0  0  0  0  3  0  0  0  0  0  0
  -28.4630  -26.0620   19.3270 O   0  0  0  0  0  0  0  0  0  0  0  0
  -24.7750  -31.4230   22.7250 C   0  0  0  0  0  0  0  0  0  0  0  0
  -27.3840  -27.0200   19.2980 C   0  0  0  0  0  0  0  0  0  0  0  0
  -23.5710  -30.1340   21.0030 C   0  0  0  0  0  3  0  0  0  0  0  0
  -25.0220  -28.7090   19.4400 C   0  0  0  0  0  0  0  0  0  0  0  0
  -26.1170  -30.4560   20.8270 C   0  0  0  0  0  2  0  0  0  0  0  0
  -26.2010  -29.1230   20.0720 C   0  0  0  0  0  0  0  0  0  0  0  0
  -27.3770  -28.2890   19.9990 C   0  0  0  0  0  3  0  0  0  0  0  0
  -26.1800  -26.7250   18.6120 C   0  0  0  0  0  3  0  0  0  0  0  0
  -25.0230  -27.5220   18.6990 C   0  0  0  0  0  3  0  0  0  0  0  0
  -23.7800  -29.5730   19.5730 C   0  0  0  0  0  2  0  0  0  0  0  0
  -24.8410  -30.6880   21.5740 N   0  0  0  0  0  0  0  0  0  0  0  0
  -23.6930  -31.6490   23.2860 O   0  0  0  0  0  0  0  0  0  0  0  0
  -22.9260  -29.0430   21.8930 C   0  0  0  0  0  0  0  0  0  0  0  0
  -21.5930  -28.8900   21.8070 N   0  0  0  0  0  0  0  0  0  0  0  0
  -23.6250  -28.3400   22.6280 O   0  0  0  0  0  0  0  0  0  0  0  0
  -21.0840  -29.5100   21.1920 H   0  0  0  0  0  0  0  0  0  0  0  0
  -18.2170  -27.7140   22.3920 C   0  0  0  0  0  0  0  0  0  0  0  0
  -20.7940  -27.8930   22.5240 C   0  0  0  0  0  3  0  0  0  0  0  0
  -20.8230  -26.5290   21.7960 C   0  0  0  0  0  2  0  0  0  0  0  0
  -19.6530  -26.3400   20.8250 C   0  0  0  0  0  2  0  0  0  0  0  0
  -18.3170  -26.4420   21.5660 C   0  0  0  0  0  2  0  0  0  0  0  0
  -19.3800  -28.4030   22.8280 C   0  0  0  0  0  0  0  0  0  0  0  0
  -19.2310  -29.5980   23.5660 C   0  0  0  0  0  3  0  0  0  0  0  0
  -17.9520  -30.1030   23.8680 C   0  0  0  0  0  3  0  0  0  0  0  0
  -16.8050  -29.4090   23.4450 C   0  0  0  0  0  3  0  0  0  0  0  0
  -16.9390  -28.2160   22.7130 C   0  0  0  0  0  3  0  0  0  0  0  0
  -26.0530  -32.0300   23.3770 C   0  0  0  0  0  3  0  0  0  0  0  0
  -26.6850  -31.1020   24.4870 C   0  0  1  0  0  0  0  0  0  0  0  0
  -25.6720  -30.6330   25.5580 C   0  0  0  0  0  1  0  0  0  0  0  0
  -27.3170  -29.8400   23.8540 C   0  0  0  0  0  1  0  0  0  0  0  0
  -27.8310  -31.8520   25.2060 C   0  0  0  0  0  1  0  0  0  0  0  0
  -25.6860  -33.3350   23.9490 N   0  0  0  0  0  0  0  0  0  0  0  0
  -25.9360  -34.5200   23.3750 C   0  0  0  0  0  0  0  0  0  0  0  0
  -26.5690  -34.6300   22.3220 O   0  0  0  0  0  0  0  0  0  0  0  0
  -25.1180  -33.3180   24.7840 H   0  0  0  0  0  0  0  0  0  0  0  0
  -24.1120  -36.2540   23.3880 C   0  0  0  0  0  1  0  0  0  0  0  0
  -25.4010  -35.7810   24.0810 C   0  0  0  0  0  3  0  0  0  0  0  0
  -27.5170  -36.6250   24.9970 C   0  0  0  0  0  1  0  0  0  0  0  0
  -26.3770  -36.8920   24.1230 N   0  0  0  0  0  0  0  0  0  0  0  0
  -25.9330  -37.7500   24.4380 H   0  0  0  0  0  0  0  0  0  0  0  0
  -26.4870  -17.5480   21.0580 C   0  0  0  0  0  1  0  0  0  0  0  0
  -27.1770  -17.4910   19.6860 C   0  0  0  0  0  2  0  0  0  0  0  0
  1  2  1  0
  2  5  2  0
  3  6  2  0
  4  1  2  0
  4  3  1  0
  5  7  1  0
  6 92  1  0
  6  5  1  0
  7  8  2  0
  8  9  1  0
 10 16  1  0
 10  7  1  0
 11 16  1  0
 12 13  1  0
 12 11  1  0
 14 13  1  0
 14 21  1  0
 14 15  1  0
 16 15  1  0
 17 10  2  0
 18 19  2  0
 19 38  1  0
 20 19  1  0
 20 23  1  0
 21 22  1  0
 21 18  1  0
 22 20  2  0
 23 24  1  0
 24 25  2  0
 26 29  1  0
 26 25  1  0
 27 26  2  0
 28 27  1  0
 28 23  2  0
 29 30  1  0
 30 35  2  0
 30 31  1  0
 31 32  2  0
 32 33  1  0
 33 37  1  0
 34 33  2  0
 35 34  1  0
 36 35  1  0
 38 39  1  0
 39 42  1  0
 39 41  1  0
 40 38  2  0
 43 18  1  0
 43 44  1  0
 45 43  1  0
 46  4  1  0
 46 47  2  0
 49 48  1  0
 49 50  1  0
 49 47  1  0
 51 62  2  0
 52 50  1  0
 52 57  1  0
 53 61  1  0
 53 63  1  0
 54 60  1  0
 54 56  1  0
 55 61  1  0
 56 55  1  0
 57 56  2  0
 58 59  1  0
 58 52  2  0
 59 54  2  0
 60 53  1  0
 61 51  1  0
 63 65  2  0
 64 63  1  0
 66 64  1  0
 67 76  2  0
 67 72  1  0
 68 64  1  0
 68 72  1  0
 69 68  1  0
 70 71  1  0
 70 69  1  0
 71 67  1  0
 72 73  2  0
 73 74  1  0
 75 74  2  0
 76 75  1  0
 77 51  1  0
 77 82  1  0
 77 78  1  0
 78 81  1  1
 78 79  1  0
 80 78  1  0
 82 85  1  0
 83 82  1  0
 83 87  1  0
 84 83  2  0
 87 86  1  0
 87 89  1  0
 89 90  1  0
 89 88  1  0
 92 91  1  0
M  ISO  4   7 100  10 100  49 101  50 101
M  END
>  <TORSDO>  (53) 
F 20

>  <SCORE>  (53) 
-10.417

>  <name>  (53) 
52

>  <ligand_id>  (53) 
52

>  <original_smiles>  (53) 
[H]N=C(C(=O)N1C([H])([H])C([H])([H])C([H])([H])C([H])(n2nc(-c3c([H])c([H])c(Oc4c([H])c([H])c(F)c([H])c4F)c([H])c3[H])c(C(=O)N([H])[H])c2N([H])[H])C1([H])[H])c1c([H])c([H])c(C([H])=C([H])C([H])(Oc2c([H])c([H])c3c(c2[H])C([H])([H])N(C(=O)C([H])(N([H])C(=O)C([H])(N([H])C([H])([H])[H])C([H])([H])[H])C(C([H])([H])[H])(C([H])([H])[H])C([H])([H])[H])C([H])(C(=O)N([H])C2([H])c4c([H])c([H])c([H])c([H])c4C([H])([H])C([H])([H])C2([H])[H])C3([H])[H])C([H])([H])[H])c([H])c1C([H])([H])C([H])([H])[H]

>  <smiles>  (53) 
[H]N=C(C(=O)N1C([H])([H])C([H])([H])C([H])([H])C([H])(n2nc(-c3c([H])c([H])c(Oc4c([H])c([H])c(F)c([H])c4F)c([H])c3[H])c(C(=O)N([H])[H])c2N([H])[H])C1([H])[H])c1c([H])c([H])c(C([H])=C([H])C([H])(Oc2c([H])c([H])c3c(c2[H])C([H])([H])N(C(=O)C([H])(N([H])C(=O)C([H])(N([H])C([H])([H])[H])C([H])([H])[H])C(C([H])([H])[H])(C([H])([H])[H])C([H])([H])[H])C([H])(C(=O)N([H])C2([H])c4c([H])c([H])c([H])c([H])c4C([H])([H])C([H])([H])C2([H])[H])C3([H])[H])C([H])([H])[H])c([H])c1C([H])([H])C([H])([H])[H]

$$$$
53:0:0
     RDKit          3D

 91 99  0  0  1  0  0  0  0  0999 V2000
  -30.0660  -17.3010   18.5400 C   0  0  0  0  0  3  0  0  0  0  0  0
  -29.8670  -19.7470   18.4960 C   0  0  0  0  0  3  0  0  0  0  0  0
  -30.1350  -18.5800   20.6160 C   0  0  0  0  0  0  0  0  0  0  0  0
  -30.1740  -17.2800   19.9480 C   0  0  0  0  0  0  0  0  0  0  0  0
  -29.9920  -19.8490   19.9010 C   0  0  0  0  0  0  0  0  0  0  0  0
  -29.9100  -18.5070   17.8320 C   0  0  0  0  0  0  0  0  0  0  0  0
  -30.2620  -18.6080   22.1280 C   0  0  0  0  0  1  0  0  0  0  0  0
  -29.7900  -18.4730   16.4830 F   0  0  0  0  0  0  0  0  0  0  0  0
  -30.9260  -14.8210   20.2760 C   0  0  0  0  0  0  0  0  0  0  0  0
  -30.7040  -12.5370   19.3080 C   0  0  0  0  0  2  0  0  0  0  0  0
  -29.7740  -12.6290   18.0770 C   0  0  0  0  0  2  0  0  0  0  0  0
  -28.3000  -12.4790   18.4970 C   0  0  0  0  0  2  0  0  0  0  0  0
  -27.9340  -13.3680   19.7160 C   0  0  0  0  0  3  0  0  0  0  0  0
  -28.9870  -13.2690   20.8430 C   0  0  0  0  0  2  0  0  0  0  0  0
  -30.2960  -13.5960   20.2610 N   0  0  0  0  0  0  0  0  0  0  0  0
  -32.0880  -14.9190   19.8710 O   0  0  0  0  0  0  0  0  0  0  0  0
  -30.1970  -15.9520   20.6130 N   0  0  0  0  0  0  0  0  0  0  0  0
  -29.3920  -15.7600   21.1910 H   0  0  0  0  0  0  0  0  0  0  0  0
  -25.5500  -13.9790   20.4400 C   0  0  0  0  0  0  0  0  0  0  0  0
  -24.4770  -13.2150   20.8080 C   0  0  0  0  0  0  0  0  0  0  0  0
  -24.9260  -11.8590   20.7720 C   0  0  0  0  0  0  0  0  0  0  0  0
  -26.5850  -13.0900   20.2010 N   0  0  0  0  0  0  0  0  0  0  0  0
  -26.2160  -11.8100   20.4630 N   0  0  0  0  0  0  0  0  0  0  0  0
  -24.1860  -10.6040   20.9600 C   0  0  0  0  0  0  0  0  0  0  0  0
  -24.5770   -9.6530   21.9290 C   0  0  0  0  0  3  0  0  0  0  0  0
  -23.8390   -8.4630   22.1040 C   0  0  0  0  0  3  0  0  0  0  0  0
  -22.6940   -8.2150   21.3090 C   0  0  0  0  0  0  0  0  0  0  0  0
  -22.3220   -9.1530   20.3310 C   0  0  0  0  0  3  0  0  0  0  0  0
  -23.0620  -10.3350   20.1550 C   0  0  0  0  0  3  0  0  0  0  0  0
  -21.9310   -7.0750   21.3920 O   0  0  0  0  0  0  0  0  0  0  0  0
  -21.7900   -6.3850   22.5700 C   0  0  0  0  0  0  0  0  0  0  0  0
  -21.2120   -6.9780   23.7140 C   0  0  0  0  0  3  0  0  0  0  0  0
  -21.0240   -6.2130   24.8820 C   0  0  0  0  0  3  0  0  0  0  0  0
  -21.4000   -4.8560   24.9060 C   0  0  0  0  0  0  0  0  0  0  0  0
  -21.9690   -4.2630   23.7650 C   0  0  0  0  0  3  0  0  0  0  0  0
  -22.1600   -5.0260   22.5990 C   0  0  0  0  0  0  0  0  0  0  0  0
  -22.6890   -4.4440   21.4960 F   0  0  0  0  0  0  0  0  0  0  0  0
  -21.2110   -4.1190   26.0250 F   0  0  0  0  0  0  0  0  0  0  0  0
  -23.0850  -13.7050   21.0820 C   0  0  0  0  0  0  0  0  0  0  0  0
  -22.3510  -13.0140   21.9480 N   0  0  0  0  0  0  0  0  0  0  0  0
  -22.6560  -14.7360   20.5630 O   0  0  0  0  0  0  0  0  0  0  0  0
  -22.7090  -12.1810   22.3900 H   0  0  0  0  0  0  0  0  0  0  0  0
  -21.4160  -13.3240   22.1720 H   0  0  0  0  0  0  0  0  0  0  0  0
  -25.7280  -15.3490   20.2680 N   0  0  0  0  0  0  0  0  0  0  0  0
  -24.9670  -16.0110   20.3810 H   0  0  0  0  0  0  0  0  0  0  0  0
  -26.5810  -15.7830   19.9390 H   0  0  0  0  0  0  0  0  0  0  0  0
  -29.9950  -21.1350   20.5340 O   0  0  0  0  0  0  0  0  0  0  0  0
  -29.5410  -22.3840   19.8430 C   0  0  0  0  0  3  0  0  0  0  0  0
  -29.5460  -23.8280   20.5800 C   0  0  0  0  0  3  0  0  0  0  0  0
  -28.6950  -25.0400   19.9320 C   0  0  0  0  0  2  0  0  0  0  0  0
  -28.7460  -26.4630   20.4250 O   0  0  0  0  0  0  0  0  0  0  0  0
  -24.7350  -31.7770   23.3050 C   0  0  0  0  0  0  0  0  0  0  0  0
  -27.6230  -27.3210   20.2940 C   0  0  0  0  0  0  0  0  0  0  0  0
  -23.6550  -30.3770   21.5850 C   0  0  0  0  0  3  0  0  0  0  0  0
  -25.2200  -28.9010   20.1960 C   0  0  0  0  0  0  0  0  0  0  0  0
  -26.1940  -30.7610   21.5370 C   0  0  0  0  0  2  0  0  0  0  0  0
  -26.3450  -29.3960   20.8670 C   0  0  0  0  0  0  0  0  0  0  0  0
  -27.5460  -28.6160   20.9140 C   0  0  0  0  0  3  0  0  0  0  0  0
  -26.4810  -26.9110   19.5670 C   0  0  0  0  0  3  0  0  0  0  0  0
  -25.2940  -27.6670   19.5360 C   0  0  0  0  0  3  0  0  0  0  0  0
  -23.9580  -29.7400   20.2030 C   0  0  0  0  0  2  0  0  0  0  0  0
  -24.8770  -30.9900   22.1990 N   0  0  0  0  0  0  0  0  0  0  0  0
  -23.6200  -32.0110   23.7910 O   0  0  0  0  0  0  0  0  0  0  0  0
  -22.9800  -29.3210   22.4920 C   0  0  0  0  0  0  0  0  0  0  0  0
  -21.6640  -29.1140   22.3090 N   0  0  0  0  0  0  0  0  0  0  0  0
  -23.6400  -28.6910   23.3240 O   0  0  0  0  0  0  0  0  0  0  0  0
  -21.1880  -29.6760   21.6170 H   0  0  0  0  0  0  0  0  0  0  0  0
  -18.2970  -27.8390   22.6660 C   0  0  0  0  0  0  0  0  0  0  0  0
  -20.8390  -28.1390   23.0260 C   0  0  0  0  0  3  0  0  0  0  0  0
  -20.9880  -26.7270   22.4140 C   0  0  0  0  0  2  0  0  0  0  0  0
  -19.9260  -26.4130   21.3560 C   0  0  0  0  0  2  0  0  0  0  0  0
  -18.5210  -26.5130   21.9590 C   0  0  0  0  0  2  0  0  0  0  0  0
  -19.3850  -28.6090   23.1540 C   0  0  0  0  0  0  0  0  0  0  0  0
  -19.1210  -29.8500   23.7760 C   0  0  0  0  0  3  0  0  0  0  0  0
  -17.8020  -30.3210   23.9120 C   0  0  0  0  0  3  0  0  0  0  0  0
  -16.7270  -29.5470   23.4400 C   0  0  0  0  0  3  0  0  0  0  0  0
  -16.9760  -28.3080   22.8230 C   0  0  0  0  0  3  0  0  0  0  0  0
  -25.9660  -32.4370   23.9990 C   0  0  0  0  0  3  0  0  0  0  0  0
  -26.3950  -31.7060   25.3300 C   0  0  1  0  0  0  0  0  0  0  0  0
  -25.2280  -31.4830   26.3200 C   0  0  0  0  0  1  0  0  0  0  0  0
  -27.0180  -30.3250   25.0210 C   0  0  0  0  0  1  0  0  0  0  0  0
  -27.4840  -32.5320   26.0530 C   0  0  0  0  0  1  0  0  0  0  0  0
  -25.6220  -33.8410   24.2690 N   0  0  0  0  0  0  0  0  0  0  0  0
  -25.9690  -34.8750   23.4900 C   0  0  0  0  0  0  0  0  0  0  0  0
  -26.6810  -34.7490   22.4900 O   0  0  0  0  0  0  0  0  0  0  0  0
  -24.9930  -34.0120   25.0410 H   0  0  0  0  0  0  0  0  0  0  0  0
  -24.2240  -36.6250   23.0210 C   0  0  0  0  0  1  0  0  0  0  0  0
  -25.4450  -36.2700   23.8840 C   0  0  0  0  0  3  0  0  0  0  0  0
  -27.5310  -37.2320   24.7550 C   0  0  0  0  0  1  0  0  0  0  0  0
  -26.4640  -37.3360   23.7630 N   0  0  0  0  0  0  0  0  0  0  0  0
  -26.0360  -38.2550   23.8510 H   0  0  0  0  0  0  0  0  0  0  0  0
  1  4  1  0
  2  5  2  0
  3  7  1  0
  4 17  1  0
  4  3  2  0
  5 47  1  0
  5  3  1  0
  6  2  1  0
  6  1  2  0
  8  6  1  0
  9 17  1  0
 10 15  1  0
 11 12  1  0
 11 10  1  0
 13 12  1  0
 13 22  1  0
 13 14  1  0
 15  9  1  0
 15 14  1  0
 16  9  2  0
 17 18  1  0
 19 20  2  0
 20 39  1  0
 21 20  1  0
 21 24  1  0
 22 19  1  0
 22 23  1  0
 23 21  2  0
 24 25  1  0
 25 26  2  0
 27 30  1  0
 27 26  1  0
 28 27  2  0
 29 28  1  0
 29 24  2  0
 30 31  1  0
 31 36  2  0
 31 32  1  0
 32 33  2  0
 33 34  1  0
 34 38  1  0
 35 34  2  0
 36 35  1  0
 37 36  1  0
 39 40  1  0
 40 43  1  0
 40 42  1  0
 41 39  2  0
 44 45  1  0
 44 19  1  0
 46 44  1  0
 48 47  1  0
 48 49  2  0
 50 51  1  0
 50 49  1  0
 52 63  2  0
 53 51  1  0
 53 58  1  0
 54 62  1  0
 54 64  1  0
 55 61  1  0
 55 57  1  0
 56 62  1  0
 57 58  2  0
 57 56  1  0
 59 53  2  0
 60 59  1  0
 60 55  2  0
 61 54  1  0
 62 52  1  0
 64 66  2  0
 65 64  1  0
 67 65  1  0
 68 77  2  0
 68 73  1  0
 69 65  1  0
 69 73  1  0
 70 69  1  0
 71 72  1  0
 71 70  1  0
 72 68  1  0
 73 74  2  0
 74 75  1  0
 76 75  2  0
 77 76  1  0
 78 52  1  0
 78 83  1  0
 78 79  1  0
 79 82  1  1
 79 80  1  0
 81 79  1  0
 83 86  1  0
 84 88  1  0
 84 83  1  0
 85 84  2  0
 88 87  1  0
 90 91  1  0
 90 88  1  0
 90 89  1  0
M  ISO  4   9 100  17 100  50 101  51 101
M  END
>  <TORSDO>  (54) 
F 20

>  <SCORE>  (54) 
-13.168

>  <name>  (54) 
53

>  <ligand_id>  (54) 
53

>  <original_smiles>  (54) 
[H]c1c([H])c([H])c2c(c1[H])C([H])([H])C([H])([H])C([H])([H])C2([H])N([H])C(=O)C1([H])N(C(=O)C([H])(N([H])C(=O)C([H])(N([H])C([H])([H])[H])C([H])([H])[H])C(C([H])([H])[H])(C([H])([H])[H])C([H])([H])[H])C([H])([H])c2c([H])c(OC([H])([H])C([H])([H])C([H])([H])Oc3c([H])c(F)c([H])c(N([H])C(=O)N4C([H])([H])C([H])([H])C([H])([H])C([H])(n5nc(-c6c([H])c([H])c(Oc7c([H])c([H])c(F)c([H])c7F)c([H])c6[H])c(C(=O)N([H])[H])c5N([H])[H])C4([H])[H])c3C([H])([H])[H])c([H])c([H])c2C1([H])[H]

>  <smiles>  (54) 
[H]c1c([H])c([H])c2c(c1[H])C([H])([H])C([H])([H])C([H])([H])C2([H])N([H])C(=O)C1([H])N(C(=O)C([H])(N([H])C(=O)C([H])(N([H])C([H])([H])[H])C([H])([H])[H])C(C([H])([H])[H])(C([H])([H])[H])C([H])([H])[H])C([H])([H])c2c([H])c(OC([H])([H])C([H])([H])C([H])([H])Oc3c([H])c(F)c([H])c(N([H])C(=O)N4C([H])([H])C([H])([H])C([H])([H])C([H])(n5nc(-c6c([H])c([H])c(Oc7c([H])c([H])c(F)c([H])c7F)c([H])c6[H])c(C(=O)N([H])[H])c5N([H])[H])C4([H])[H])c3C([H])([H])[H])c([H])c([H])c2C1([H])[H]

$$$$
54:0:0
     RDKit          3D

 92100  0  0  1  0  0  0  0  0999 V2000
  -31.2370  -19.3990   20.8110 C   0  0  0  0  0  3  0  0  0  0  0  0
  -31.1900  -17.9690   20.8510 C   0  0  0  0  0  3  0  0  0  0  0  0
  -28.9030  -19.4930   20.3020 C   0  0  0  0  0  3  0  0  0  0  0  0
  -30.0930  -20.2080   20.5550 C   0  0  0  0  0  0  0  0  0  0  0  0
  -28.8430  -18.0700   20.3440 C   0  0  0  0  0  0  0  0  0  0  0  0
  -29.9800  -17.2550   20.6360 C   0  0  0  0  0  0  0  0  0  0  0  0
  -30.6370  -14.7270   20.5110 C   0  0  0  0  0  0  0  0  0  0  0  0
  -30.4280  -12.4820   19.4610 C   0  0  0  0  0  2  0  0  0  0  0  0
  -29.4920  -12.6010   18.2370 C   0  0  0  0  0  2  0  0  0  0  0  0
  -28.0170  -12.4340   18.6540 C   0  0  0  0  0  2  0  0  0  0  0  0
  -27.6370  -13.2940   19.8900 C   0  0  0  0  0  3  0  0  0  0  0  0
  -28.6970  -13.1620   21.0100 C   0  0  0  0  0  2  0  0  0  0  0  0
  -30.0090  -13.5070   20.4350 N   0  0  0  0  0  0  0  0  0  0  0  0
  -31.8140  -14.8650   20.1690 O   0  0  0  0  0  0  0  0  0  0  0  0
  -29.8230  -15.7980   20.7750 N   0  0  0  0  0  0  0  0  0  0  0  0
  -28.8780  -15.5040   20.9570 H   0  0  0  0  0  0  0  0  0  0  0  0
  -25.2220  -13.8640   20.5830 C   0  0  0  0  0  0  0  0  0  0  0  0
  -24.1620  -13.0890   20.9490 C   0  0  0  0  0  0  0  0  0  0  0  0
  -24.6360  -11.7440   20.9140 C   0  0  0  0  0  0  0  0  0  0  0  0
  -26.2840  -13.0000   20.3610 N   0  0  0  0  0  0  0  0  0  0  0  0
  -25.9320  -11.7150   20.6190 N   0  0  0  0  0  0  0  0  0  0  0  0
  -23.9110  -10.4820   21.0840 C   0  0  0  0  0  0  0  0  0  0  0  0
  -24.3280   -9.5160   22.0250 C   0  0  0  0  0  3  0  0  0  0  0  0
  -23.6000   -8.3180   22.1870 C   0  0  0  0  0  3  0  0  0  0  0  0
  -22.4440   -8.0790   21.4070 C   0  0  0  0  0  0  0  0  0  0  0  0
  -22.0470   -9.0360   20.4560 C   0  0  0  0  0  3  0  0  0  0  0  0
  -22.7750  -10.2250   20.2920 C   0  0  0  0  0  3  0  0  0  0  0  0
  -21.6900   -6.9330   21.4780 O   0  0  0  0  0  0  0  0  0  0  0  0
  -21.6070   -6.1990   22.6340 C   0  0  0  0  0  0  0  0  0  0  0  0
  -21.1250   -6.7570   23.8380 C   0  0  0  0  0  3  0  0  0  0  0  0
  -20.9880   -5.9480   24.9830 C   0  0  0  0  0  3  0  0  0  0  0  0
  -21.3260   -4.5830   24.9260 C   0  0  0  0  0  0  0  0  0  0  0  0
  -21.8020   -4.0240   23.7270 C   0  0  0  0  0  3  0  0  0  0  0  0
  -21.9400   -4.8300   22.5840 C   0  0  0  0  0  0  0  0  0  0  0  0
  -22.3790   -4.2830   21.4240 F   0  0  0  0  0  0  0  0  0  0  0  0
  -21.1880   -3.8040   26.0240 F   0  0  0  0  0  0  0  0  0  0  0  0
  -22.7620  -13.5650   21.2060 C   0  0  0  0  0  0  0  0  0  0  0  0
  -22.0280  -12.8720   22.0680 N   0  0  0  0  0  0  0  0  0  0  0  0
  -22.3290  -14.5900   20.6810 O   0  0  0  0  0  0  0  0  0  0  0  0
  -22.3910  -12.0440   22.5170 H   0  0  0  0  0  0  0  0  0  0  0  0
  -21.0890  -13.1740   22.2830 H   0  0  0  0  0  0  0  0  0  0  0  0
  -25.3390  -15.2300   20.3920 N   0  0  0  0  0  0  0  0  0  0  0  0
  -24.5190  -15.8250   20.4310 H   0  0  0  0  0  0  0  0  0  0  0  0
  -26.1110  -15.6540   19.8980 H   0  0  0  0  0  0  0  0  0  0  0  0
  -30.1580  -21.7290   20.5780 C   0  0  0  0  0  3  0  0  0  0  0  0
  -29.1810  -22.6620   20.3290 C   0  0  0  0  0  3  0  0  0  0  0  0
  -29.3710  -24.1690   20.4220 C   0  0  0  0  0  0  0  0  0  0  0  0
  -30.4400  -24.6630   20.7950 O   0  0  0  0  0  0  0  0  0  0  0  0
  -28.1900  -25.1410   20.0410 C   0  0  0  0  0  2  0  0  0  0  0  0
  -28.3880  -26.5780   20.3310 O   0  0  0  0  0  0  0  0  0  0  0  0
  -24.6240  -31.9710   23.3030 C   0  0  0  0  0  0  0  0  0  0  0  0
  -27.2560  -27.4090   20.2760 C   0  0  0  0  0  0  0  0  0  0  0  0
  -23.4300  -30.5760   21.6510 C   0  0  0  0  0  3  0  0  0  0  0  0
  -24.8880  -29.0150   20.2480 C   0  0  0  0  0  0  0  0  0  0  0  0
  -25.9730  -30.8820   21.4970 C   0  0  0  0  0  2  0  0  0  0  0  0
  -26.0520  -29.5040   20.8550 C   0  0  0  0  0  0  0  0  0  0  0  0
  -27.2380  -28.7120   20.8610 C   0  0  0  0  0  3  0  0  0  0  0  0
  -26.0640  -26.9680   19.6530 C   0  0  0  0  0  3  0  0  0  0  0  0
  -24.8940  -27.7510   19.6420 C   0  0  0  0  0  3  0  0  0  0  0  0
  -23.6570  -29.8960   20.2760 C   0  0  0  0  0  2  0  0  0  0  0  0
  -24.6930  -31.1590   22.2080 N   0  0  0  0  0  0  0  0  0  0  0  0
  -23.5360  -32.2570   23.8240 O   0  0  0  0  0  0  0  0  0  0  0  0
  -22.7500  -29.5650   22.6050 C   0  0  0  0  0  0  0  0  0  0  0  0
  -21.4240  -29.3990   22.4630 N   0  0  0  0  0  0  0  0  0  0  0  0
  -23.4140  -28.9340   23.4320 O   0  0  0  0  0  0  0  0  0  0  0  0
  -20.9480  -29.9610   21.7700 H   0  0  0  0  0  0  0  0  0  0  0  0
  -18.0280  -28.2490   22.9400 C   0  0  0  0  0  0  0  0  0  0  0  0
  -20.5880  -28.4720   23.2260 C   0  0  0  0  0  3  0  0  0  0  0  0
  -20.6730  -27.0400   22.6480 C   0  0  0  0  0  2  0  0  0  0  0  0
  -19.5720  -26.7350   21.6260 C   0  0  0  0  0  2  0  0  0  0  0  0
  -18.1900  -26.9000   22.2620 C   0  0  0  0  0  2  0  0  0  0  0  0
  -19.1550  -28.9950   23.3790 C   0  0  0  0  0  0  0  0  0  0  0  0
  -18.9510  -30.2590   23.9720 C   0  0  0  0  0  3  0  0  0  0  0  0
  -17.6520  -30.7780   24.1310 C   0  0  0  0  0  3  0  0  0  0  0  0
  -16.5400  -30.0300   23.7090 C   0  0  0  0  0  3  0  0  0  0  0  0
  -16.7280  -28.7680   23.1190 C   0  0  0  0  0  3  0  0  0  0  0  0
  -25.9050  -32.5940   23.9390 C   0  0  0  0  0  3  0  0  0  0  0  0
  -26.3970  -31.8250   25.2260 C   0  0  1  0  0  0  0  0  0  0  0  0
  -25.2880  -31.6030   26.2810 C   0  0  0  0  0  1  0  0  0  0  0  0
  -26.9730  -30.4400   24.8500 C   0  0  0  0  0  1  0  0  0  0  0  0
  -27.5470  -32.6110   25.8970 C   0  0  0  0  0  1  0  0  0  0  0  0
  -25.6040  -33.9970   24.2570 N   0  0  0  0  0  0  0  0  0  0  0  0
  -25.9290  -35.0400   23.4820 C   0  0  0  0  0  0  0  0  0  0  0  0
  -26.5850  -34.9220   22.4430 O   0  0  0  0  0  0  0  0  0  0  0  0
  -25.0200  -34.1620   25.0640 H   0  0  0  0  0  0  0  0  0  0  0  0
  -24.1900  -36.8260   23.1460 C   0  0  0  0  0  1  0  0  0  0  0  0
  -25.4530  -36.4350   23.9300 C   0  0  0  0  0  3  0  0  0  0  0  0
  -27.6080  -37.3360   24.6890 C   0  0  0  0  0  1  0  0  0  0  0  0
  -26.4800  -37.4880   23.7720 N   0  0  0  0  0  0  0  0  0  0  0  0
  -26.0770  -38.4090   23.9160 H   0  0  0  0  0  0  0  0  0  0  0  0
  -27.3840  -17.0070   18.5860 C   0  0  0  0  0  1  0  0  0  0  0  0
  -27.5010  -17.4440   20.0530 C   0  0  0  0  0  2  0  0  0  0  0  0
  1  2  1  0
  3  5  2  0
  3  4  1  0
  4 45  1  0
  4  1  2  0
  5  6  1  0
  6 15  1  0
  6  2  2  0
  7 15  1  0
  8 13  1  0
  9 10  1  0
  9  8  1  0
 11 10  1  0
 11 20  1  0
 11 12  1  0
 13  7  1  0
 13 12  1  0
 14  7  2  0
 15 16  1  0
 17 18  2  0
 18 37  1  0
 19 18  1  0
 19 22  1  0
 20 17  1  0
 20 21  1  0
 21 19  2  0
 22 23  1  0
 23 24  2  0
 25 28  1  0
 25 24  1  0
 26 25  2  0
 27 26  1  0
 27 22  2  0
 28 29  1  0
 29 30  1  0
 30 31  2  0
 32 31  1  0
 32 36  1  0
 33 32  2  0
 34 29  2  0
 34 33  1  0
 35 34  1  0
 37 38  1  0
 38 41  1  0
 38 40  1  0
 39 37  2  0
 42 43  1  0
 42 17  1  0
 44 42  1  0
 46 47  1  0
 46 45  2  0
 47 48  2  0
 49 50  1  0
 49 47  1  0
 51 62  2  0
 52 50  1  0
 52 57  1  0
 53 61  1  0
 53 63  1  0
 54 60  1  0
 54 56  1  0
 55 61  1  0
 56 57  2  0
 56 55  1  0
 58 52  2  0
 59 58  1  0
 59 54  2  0
 60 53  1  0
 61 51  1  0
 63 65  2  0
 64 63  1  0
 66 64  1  0
 67 76  2  0
 67 72  1  0
 68 64  1  0
 68 72  1  0
 69 68  1  0
 70 71  1  0
 70 69  1  0
 71 67  1  0
 72 73  2  0
 73 74  1  0
 75 74  2  0
 76 75  1  0
 77 51  1  0
 77 82  1  0
 77 78  1  0
 78 81  1  1
 78 79  1  0
 80 78  1  0
 82 85  1  0
 83 87  1  0
 83 82  1  0
 84 83  2  0
 87 86  1  0
 89 90  1  0
 89 87  1  0
 89 88  1  0
 91 92  1  0
 92  5  1  0
M  ISO  4   7 100  15 100  49 101  50 101
M  END
>  <TORSDO>  (55) 
F 20

>  <SCORE>  (55) 
-14.013

>  <name>  (55) 
54

>  <ligand_id>  (55) 
54

>  <original_smiles>  (55) 
[H]C(C(=O)C([H])([H])Oc1c([H])c([H])c2c(c1[H])C([H])([H])N(C(=O)C([H])(N([H])C(=O)C([H])(N([H])C([H])([H])[H])C([H])([H])[H])C(C([H])([H])[H])(C([H])([H])[H])C([H])([H])[H])C([H])(C(=O)N([H])C1([H])c3c([H])c([H])c([H])c([H])c3C([H])([H])C([H])([H])C1([H])[H])C2([H])[H])=C([H])c1c([H])c([H])c(N([H])C(=O)N2C([H])([H])C([H])([H])C([H])([H])C([H])(n3nc(-c4c([H])c([H])c(Oc5c([H])c([H])c(F)c([H])c5F)c([H])c4[H])c(C(=O)N([H])[H])c3N([H])[H])C2([H])[H])c(C([H])([H])C([H])([H])[H])c1[H]

>  <smiles>  (55) 
[H]C(C(=O)C([H])([H])Oc1c([H])c([H])c2c(c1[H])C([H])([H])N(C(=O)C([H])(N([H])C(=O)C([H])(N([H])C([H])([H])[H])C([H])([H])[H])C(C([H])([H])[H])(C([H])([H])[H])C([H])([H])[H])C([H])(C(=O)N([H])C1([H])c3c([H])c([H])c([H])c([H])c3C([H])([H])C([H])([H])C1([H])[H])C2([H])[H])=C([H])c1c([H])c([H])c(N([H])C(=O)N2C([H])([H])C([H])([H])C([H])([H])C([H])(n3nc(-c4c([H])c([H])c(Oc5c([H])c([H])c(F)c([H])c5F)c([H])c4[H])c(C(=O)N([H])[H])c3N([H])[H])C2([H])[H])c(C([H])([H])C([H])([H])[H])c1[H]

$$$$
55:0:0
     RDKit          3D

 91 99  0  0  1  0  0  0  0  0999 V2000
  -30.7310  -19.6190   19.2390 C   0  0  0  0  0  3  0  0  0  0  0  0
  -30.9010  -18.2130   19.4690 C   0  0  0  0  0  3  0  0  0  0  0  0
  -30.2320  -18.5350   21.7500 C   0  0  0  0  0  3  0  0  0  0  0  0
  -30.3440  -20.5280   20.2660 C   0  0  0  0  0  0  0  0  0  0  0  0
  -30.0790  -19.9350   21.5420 C   0  0  0  0  0  0  0  0  0  0  0  0
  -30.6580  -17.6360   20.7440 C   0  0  0  0  0  0  0  0  0  0  0  0
  -31.5400  -15.1770   20.8130 C   0  0  0  0  0  0  0  0  0  0  0  0
  -31.5210  -12.7750   20.1530 C   0  0  0  0  0  2  0  0  0  0  0  0
  -30.6940  -12.6420   18.8530 C   0  0  0  0  0  2  0  0  0  0  0  0
  -29.1900  -12.4960   19.1640 C   0  0  0  0  0  2  0  0  0  0  0  0
  -28.6900  -13.5470   20.1890 C   0  0  0  0  0  3  0  0  0  0  0  0
  -29.6350  -13.6200   21.4100 C   0  0  0  0  0  2  0  0  0  0  0  0
  -30.9880  -13.9240   20.9120 N   0  0  0  0  0  0  0  0  0  0  0  0
  -32.7020  -15.3420   20.4300 O   0  0  0  0  0  0  0  0  0  0  0  0
  -30.6880  -16.2120   21.0810 N   0  0  0  0  0  0  0  0  0  0  0  0
  -29.8560  -15.8900   21.5530 H   0  0  0  0  0  0  0  0  0  0  0  0
  -26.2830  -14.2140   20.7990 C   0  0  0  0  0  0  0  0  0  0  0  0
  -25.1670  -13.4700   21.0740 C   0  0  0  0  0  0  0  0  0  0  0  0
  -25.5780  -12.1040   21.0050 C   0  0  0  0  0  0  0  0  0  0  0  0
  -27.3040  -13.3030   20.5830 N   0  0  0  0  0  0  0  0  0  0  0  0
  -26.8810  -12.0260   20.7640 N   0  0  0  0  0  0  0  0  0  0  0  0
  -24.7950  -10.8650   21.0970 C   0  0  0  0  0  0  0  0  0  0  0  0
  -25.1350   -9.8420   22.0100 C   0  0  0  0  0  3  0  0  0  0  0  0
  -24.3550   -8.6690   22.0920 C   0  0  0  0  0  3  0  0  0  0  0  0
  -23.2210   -8.5090   21.2600 C   0  0  0  0  0  0  0  0  0  0  0  0
  -22.9010   -9.5210   20.3370 C   0  0  0  0  0  3  0  0  0  0  0  0
  -23.6810  -10.6870   20.2530 C   0  0  0  0  0  3  0  0  0  0  0  0
  -22.4210   -7.3930   21.2520 O   0  0  0  0  0  0  0  0  0  0  0  0
  -22.2490   -6.6230   22.3740 C   0  0  0  0  0  0  0  0  0  0  0  0
  -21.7350   -7.1590   23.5750 C   0  0  0  0  0  3  0  0  0  0  0  0
  -21.5100   -6.3160   24.6830 C   0  0  0  0  0  3  0  0  0  0  0  0
  -21.7880   -4.9400   24.5890 C   0  0  0  0  0  0  0  0  0  0  0  0
  -22.2960   -4.4030   23.3920 C   0  0  0  0  0  3  0  0  0  0  0  0
  -22.5220   -5.2430   22.2870 C   0  0  0  0  0  0  0  0  0  0  0  0
  -22.9900   -4.7160   21.1300 F   0  0  0  0  0  0  0  0  0  0  0  0
  -21.5660   -4.1290   25.6500 F   0  0  0  0  0  0  0  0  0  0  0  0
  -23.7770  -13.9910   21.2940 C   0  0  0  0  0  0  0  0  0  0  0  0
  -22.9800  -13.2930   22.0960 N   0  0  0  0  0  0  0  0  0  0  0  0
  -23.4050  -15.0520   20.7920 O   0  0  0  0  0  0  0  0  0  0  0  0
  -23.2910  -12.4330   22.5220 H   0  0  0  0  0  0  0  0  0  0  0  0
  -22.0450  -13.6240   22.2870 H   0  0  0  0  0  0  0  0  0  0  0  0
  -26.5100  -15.5830   20.6950 N   0  0  0  0  0  0  0  0  0  0  0  0
  -25.7640  -16.2640   20.7930 H   0  0  0  0  0  0  0  0  0  0  0  0
  -27.3950  -16.0030   20.4380 H   0  0  0  0  0  0  0  0  0  0  0  0
  -28.9100  -21.8560   22.6850 C   0  0  0  0  0  2  0  0  0  0  0  0
  -29.5860  -20.6950   22.7100 C   0  0  0  0  0  3  0  0  0  0  0  0
  -30.2940  -22.0460   20.0880 C   0  0  0  0  0  3  0  0  0  0  0  0
  -29.8660  -22.8680   19.0810 C   0  0  0  0  0  3  0  0  0  0  0  0
  -30.0030  -24.4350   19.0500 C   0  0  0  0  0  3  0  0  0  0  0  0
  -28.7170  -25.3400   18.8480 C   0  0  0  0  0  3  0  0  0  0  0  0
  -28.8370  -26.7820   19.1600 O   0  0  0  0  0  0  0  0  0  0  0  0
  -24.9280  -31.3710   23.1220 C   0  0  0  0  0  0  0  0  0  0  0  0
  -27.6710  -27.5550   19.2700 C   0  0  0  0  0  0  0  0  0  0  0  0
  -23.7490  -30.2310   21.2740 C   0  0  0  0  0  3  0  0  0  0  0  0
  -25.2330  -29.0240   19.5770 C   0  0  0  0  0  0  0  0  0  0  0  0
  -26.2660  -30.6930   21.1180 C   0  0  0  0  0  2  0  0  0  0  0  0
  -26.3920  -29.4550   20.2360 C   0  0  0  0  0  0  0  0  0  0  0  0
  -27.6110  -28.7340   20.0770 C   0  0  0  0  0  3  0  0  0  0  0  0
  -26.4850  -27.1770   18.5970 C   0  0  0  0  0  3  0  0  0  0  0  0
  -25.2810  -27.8900   18.7510 C   0  0  0  0  0  3  0  0  0  0  0  0
  -23.9620  -29.8190   19.7940 C   0  0  0  0  0  2  0  0  0  0  0  0
  -25.0000  -30.7730   21.8960 N   0  0  0  0  0  0  0  0  0  0  0  0
  -23.8450  -31.5040   23.7100 O   0  0  0  0  0  0  0  0  0  0  0  0
  -23.1490  -29.0330   22.0470 C   0  0  0  0  0  0  0  0  0  0  0  0
  -21.8410  -28.7870   21.8570 N   0  0  0  0  0  0  0  0  0  0  0  0
  -23.8580  -28.3360   22.7790 O   0  0  0  0  0  0  0  0  0  0  0  0
  -21.3270  -29.4100   21.2510 H   0  0  0  0  0  0  0  0  0  0  0  0
  -18.5690  -27.2540   22.0040 C   0  0  0  0  0  0  0  0  0  0  0  0
  -21.0780  -27.6870   22.4500 C   0  0  0  0  0  3  0  0  0  0  0  0
  -21.3350  -26.3610   21.6960 C   0  0  0  0  0  2  0  0  0  0  0  0
  -20.3120  -26.0890   20.5870 C   0  0  0  0  0  2  0  0  0  0  0  0
  -18.8960  -26.0280   21.1680 C   0  0  0  0  0  2  0  0  0  0  0  0
  -19.5940  -28.0420   22.5930 C   0  0  0  0  0  0  0  0  0  0  0  0
  -19.2350  -29.1900   23.3310 C   0  0  0  0  0  3  0  0  0  0  0  0
  -17.8840  -29.5520   23.4910 C   0  0  0  0  0  3  0  0  0  0  0  0
  -16.8730  -28.7600   22.9190 C   0  0  0  0  0  3  0  0  0  0  0  0
  -17.2150  -27.6130   22.1810 C   0  0  0  0  0  3  0  0  0  0  0  0
  -26.1970  -31.9360   23.8290 C   0  0  0  0  0  3  0  0  0  0  0  0
  -26.7230  -31.0120   24.9970 C   0  0  1  0  0  0  0  0  0  0  0  0
  -25.6290  -30.6240   26.0200 C   0  0  0  0  0  1  0  0  0  0  0  0
  -27.3240  -29.7040   24.4300 C   0  0  0  0  0  1  0  0  0  0  0  0
  -27.8610  -31.7270   25.7600 C   0  0  0  0  0  1  0  0  0  0  0  0
  -25.8620  -33.2730   24.3400 N   0  0  0  0  0  0  0  0  0  0  0  0
  -26.1690  -34.4220   23.7240 C   0  0  0  0  0  0  0  0  0  0  0  0
  -26.8320  -34.4680   22.6840 O   0  0  0  0  0  0  0  0  0  0  0  0
  -25.2700  -33.3100   25.1560 H   0  0  0  0  0  0  0  0  0  0  0  0
  -24.4000  -36.2080   23.6160 C   0  0  0  0  0  1  0  0  0  0  0  0
  -25.6570  -35.7280   24.3590 C   0  0  0  0  0  3  0  0  0  0  0  0
  -27.7790  -36.5480   25.2840 C   0  0  0  0  0  1  0  0  0  0  0  0
  -26.6660  -36.8090   24.3760 N   0  0  0  0  0  0  0  0  0  0  0  0
  -26.2410  -37.6930   24.6420 H   0  0  0  0  0  0  0  0  0  0  0  0
  1  2  2  0
  1  4  1  0
  2  6  1  0
  4  5  2  0
  5  3  1  0
  5 46  1  0
  6 15  1  0
  6  3  2  0
  7 13  1  0
  7 15  1  0
  8 13  1  0
  9 10  1  0
  9  8  1  0
 11 10  1  0
 11 20  1  0
 11 12  1  0
 13 12  1  0
 14  7  2  0
 15 16  1  0
 17 18  2  0
 18 37  1  0
 19 18  1  0
 19 22  1  0
 20 21  1  0
 20 17  1  0
 21 19  2  0
 22 23  1  0
 23 24  2  0
 25 24  1  0
 26 25  2  0
 27 26  1  0
 27 22  2  0
 28 25  1  0
 28 29  1  0
 29 30  1  0
 30 31  2  0
 32 31  1  0
 32 36  1  0
 33 32  2  0
 34 29  2  0
 34 33  1  0
 35 34  1  0
 37 38  1  0
 38 41  1  0
 38 40  1  0
 39 37  2  0
 42 43  1  0
 42 17  1  0
 44 42  1  0
 45 46  2  0
 47  4  1  0
 48 47  2  0
 49 48  1  0
 50 49  2  0
 50 51  1  0
 51 53  1  0
 52 63  2  0
 53 58  1  0
 54 62  1  0
 54 64  1  0
 55 61  1  0
 55 57  1  0
 56 62  1  0
 57 56  1  0
 58 57  2  0
 59 60  1  0
 59 53  2  0
 60 55  2  0
 61 54  1  0
 62 52  1  0
 64 66  2  0
 65 64  1  0
 67 65  1  0
 68 77  2  0
 68 73  1  0
 69 65  1  0
 69 73  1  0
 70 69  1  0
 71 72  1  0
 71 70  1  0
 72 68  1  0
 73 74  2  0
 74 75  1  0
 76 75  2  0
 77 76  1  0
 78 52  1  0
 78 83  1  0
 78 79  1  0
 79 82  1  1
 79 80  1  0
 81 79  1  0
 83 86  1  0
 84 83  1  0
 84 88  1  0
 85 84  2  0
 88 87  1  0
 88 90  1  0
 90 91  1  0
 90 89  1  0
M  ISO  4   7 100  15 100  50 101  51 101
M  END
>  <TORSDO>  (56) 
F 20

>  <SCORE>  (56) 
-9.144

>  <name>  (56) 
55

>  <ligand_id>  (56) 
55

>  <original_smiles>  (56) 
[H]C([H])=C([H])c1c([H])c(N([H])C(=O)N2C([H])([H])C([H])([H])C([H])([H])C([H])(n3nc(-c4c([H])c([H])c(Oc5c([H])c([H])c(F)c([H])c5F)c([H])c4[H])c(C(=O)N([H])[H])c3N([H])[H])C2([H])[H])c([H])c([H])c1C([H])=C([H])C([H])([H])C([H])([H])Oc1c([H])c([H])c2c(c1[H])C([H])([H])N(C(=O)C([H])(N([H])C(=O)C([H])(N([H])C([H])([H])[H])C([H])([H])[H])C(C([H])([H])[H])(C([H])([H])[H])C([H])([H])[H])C([H])(C(=O)N([H])C1([H])c3c([H])c([H])c([H])c([H])c3C([H])([H])C([H])([H])C1([H])[H])C2([H])[H]

>  <smiles>  (56) 
[H]C([H])=C([H])c1c([H])c(N([H])C(=O)N2C([H])([H])C([H])([H])C([H])([H])C([H])(n3nc(-c4c([H])c([H])c(Oc5c([H])c([H])c(F)c([H])c5F)c([H])c4[H])c(C(=O)N([H])[H])c3N([H])[H])C2([H])[H])c([H])c([H])c1C([H])=C([H])C([H])([H])C([H])([H])Oc1c([H])c([H])c2c(c1[H])C([H])([H])N(C(=O)C([H])(N([H])C(=O)C([H])(N([H])C([H])([H])[H])C([H])([H])[H])C(C([H])([H])[H])(C([H])([H])[H])C([H])([H])[H])C([H])(C(=O)N([H])C1([H])c3c([H])c([H])c([H])c([H])c3C([H])([H])C([H])([H])C1([H])[H])C2([H])[H]

$$$$
56:0:0
     RDKit          3D

 92100  0  0  1  0  0  0  0  0999 V2000
  -31.2340  -19.4290   20.7000 C   0  0  0  0  0  3  0  0  0  0  0  0
  -31.1940  -17.9960   20.7140 C   0  0  0  0  0  3  0  0  0  0  0  0
  -28.8840  -19.5280   20.2890 C   0  0  0  0  0  3  0  0  0  0  0  0
  -28.8320  -18.1030   20.3070 C   0  0  0  0  0  0  0  0  0  0  0  0
  -30.0840  -20.2470   20.4930 C   0  0  0  0  0  0  0  0  0  0  0  0
  -29.9820  -17.2790   20.5280 C   0  0  0  0  0  0  0  0  0  0  0  0
  -30.6580  -14.7460   20.2960 C   0  0  0  0  0  0  0  0  0  0  0  0
  -30.4210  -12.5140   19.2140 C   0  0  0  0  0  2  0  0  0  0  0  0
  -29.4390  -12.6480   18.0290 C   0  0  0  0  0  2  0  0  0  0  0  0
  -27.9790  -12.4740   18.4950 C   0  0  0  0  0  2  0  0  0  0  0  0
  -27.6480  -13.3160   19.7580 C   0  0  0  0  0  3  0  0  0  0  0  0
  -28.7450  -13.1610   20.8360 C   0  0  0  0  0  2  0  0  0  0  0  0
  -30.0360  -13.5210   20.2220 N   0  0  0  0  0  0  0  0  0  0  0  0
  -31.8230  -14.8910   19.9200 O   0  0  0  0  0  0  0  0  0  0  0  0
  -29.8440  -15.8100   20.6000 N   0  0  0  0  0  0  0  0  0  0  0  0
  -28.9060  -15.5030   20.8020 H   0  0  0  0  0  0  0  0  0  0  0  0
  -25.2620  -13.8690   20.5570 C   0  0  0  0  0  0  0  0  0  0  0  0
  -24.2160  -13.0890   20.9470 C   0  0  0  0  0  0  0  0  0  0  0  0
  -24.6880  -11.7470   20.8720 C   0  0  0  0  0  0  0  0  0  0  0  0
  -26.3150  -13.0120   20.2770 N   0  0  0  0  0  0  0  0  0  0  0  0
  -25.9700  -11.7220   20.5270 N   0  0  0  0  0  0  0  0  0  0  0  0
  -23.9700  -10.4830   21.0510 C   0  0  0  0  0  0  0  0  0  0  0  0
  -24.4050   -9.5130   21.9770 C   0  0  0  0  0  3  0  0  0  0  0  0
  -23.6830   -8.3140   22.1470 C   0  0  0  0  0  3  0  0  0  0  0  0
  -22.5100   -8.0790   21.3900 C   0  0  0  0  0  0  0  0  0  0  0  0
  -22.0940   -9.0400   20.4520 C   0  0  0  0  0  3  0  0  0  0  0  0
  -22.8170  -10.2310   20.2790 C   0  0  0  0  0  3  0  0  0  0  0  0
  -21.7590   -6.9330   21.4700 O   0  0  0  0  0  0  0  0  0  0  0  0
  -21.6820   -6.2050   22.6300 C   0  0  0  0  0  0  0  0  0  0  0  0
  -21.1780   -6.7600   23.8280 C   0  0  0  0  0  3  0  0  0  0  0  0
  -21.0530   -5.9560   24.9780 C   0  0  0  0  0  3  0  0  0  0  0  0
  -21.4210   -4.5980   24.9320 C   0  0  0  0  0  0  0  0  0  0  0  0
  -21.9180   -4.0430   23.7390 C   0  0  0  0  0  3  0  0  0  0  0  0
  -22.0470   -4.8440   22.5910 C   0  0  0  0  0  0  0  0  0  0  0  0
  -22.5050   -4.2990   21.4390 F   0  0  0  0  0  0  0  0  0  0  0  0
  -21.2940   -3.8230   26.0340 F   0  0  0  0  0  0  0  0  0  0  0  0
  -22.8260  -13.5640   21.2630 C   0  0  0  0  0  0  0  0  0  0  0  0
  -22.1250  -12.8580   22.1410 N   0  0  0  0  0  0  0  0  0  0  0  0
  -22.3770  -14.6000   20.7720 O   0  0  0  0  0  0  0  0  0  0  0  0
  -22.5030  -12.0230   22.5610 H   0  0  0  0  0  0  0  0  0  0  0  0
  -21.1940  -13.1580   22.3960 H   0  0  0  0  0  0  0  0  0  0  0  0
  -25.3660  -15.2360   20.3920 N   0  0  0  0  0  0  0  0  0  0  0  0
  -24.5460  -15.8250   20.4850 H   0  0  0  0  0  0  0  0  0  0  0  0
  -26.1260  -15.6890   19.9050 H   0  0  0  0  0  0  0  0  0  0  0  0
  -29.2670  -22.5780   20.3280 C   0  0  0  0  0  3  0  0  0  0  0  0
  -30.2050  -21.6840   20.5060 N   0  0  0  0  0  0  0  0  0  0  0  0
  -30.7150  -24.5390   19.5330 C   0  0  0  0  0  1  0  0  0  0  0  0
  -29.4940  -24.1500   20.3850 C   0  0  0  0  0  3  0  0  0  0  0  0
  -28.2600  -25.0980   20.0250 C   0  0  0  0  0  2  0  0  0  0  0  0
  -28.4030  -26.5600   20.2360 O   0  0  0  0  0  0  0  0  0  0  0  0
  -24.6140  -31.9060   23.2620 C   0  0  0  0  0  0  0  0  0  0  0  0
  -27.2590  -27.3770   20.1910 C   0  0  0  0  0  0  0  0  0  0  0  0
  -23.4150  -30.5080   21.6170 C   0  0  0  0  0  3  0  0  0  0  0  0
  -24.8730  -28.9640   20.1910 C   0  0  0  0  0  0  0  0  0  0  0  0
  -25.9510  -30.8420   21.4300 C   0  0  0  0  0  2  0  0  0  0  0  0
  -26.0400  -29.4650   20.7820 C   0  0  0  0  0  0  0  0  0  0  0  0
  -27.2330  -28.6850   20.7700 C   0  0  0  0  0  3  0  0  0  0  0  0
  -26.0630  -26.9250   19.5840 C   0  0  0  0  0  3  0  0  0  0  0  0
  -24.8870  -27.6990   19.5850 C   0  0  0  0  0  3  0  0  0  0  0  0
  -23.6320  -29.8320   20.2380 C   0  0  0  0  0  2  0  0  0  0  0  0
  -24.6790  -31.1010   22.1600 N   0  0  0  0  0  0  0  0  0  0  0  0
  -23.5300  -32.1780   23.7980 O   0  0  0  0  0  0  0  0  0  0  0  0
  -22.7550  -29.4870   22.5750 C   0  0  0  0  0  0  0  0  0  0  0  0
  -21.4300  -29.3070   22.4460 N   0  0  0  0  0  0  0  0  0  0  0  0
  -23.4360  -28.8610   23.3920 O   0  0  0  0  0  0  0  0  0  0  0  0
  -20.9390  -29.8630   21.7590 H   0  0  0  0  0  0  0  0  0  0  0  0
  -18.0530  -28.1160   22.9580 C   0  0  0  0  0  0  0  0  0  0  0  0
  -20.6140  -28.3630   23.2130 C   0  0  0  0  0  3  0  0  0  0  0  0
  -20.7070  -26.9370   22.6250 C   0  0  0  0  0  2  0  0  0  0  0  0
  -19.5980  -26.6260   21.6150 C   0  0  0  0  0  2  0  0  0  0  0  0
  -18.2200  -26.7710   22.2700 C   0  0  0  0  0  2  0  0  0  0  0  0
  -19.1770  -28.8700   23.3880 C   0  0  0  0  0  0  0  0  0  0  0  0
  -18.9690  -30.1280   23.9930 C   0  0  0  0  0  3  0  0  0  0  0  0
  -17.6680  -30.6350   24.1690 C   0  0  0  0  0  3  0  0  0  0  0  0
  -16.5580  -29.8780   23.7560 C   0  0  0  0  0  3  0  0  0  0  0  0
  -16.7510  -28.6210   23.1560 C   0  0  0  0  0  3  0  0  0  0  0  0
  -25.8950  -32.5400   23.8860 C   0  0  0  0  0  3  0  0  0  0  0  0
  -26.4130  -31.7650   25.1600 C   0  0  1  0  0  0  0  0  0  0  0  0
  -25.3180  -31.5170   26.2220 C   0  0  0  0  0  1  0  0  0  0  0  0
  -27.0060  -30.3940   24.7590 C   0  0  0  0  0  1  0  0  0  0  0  0
  -27.5560  -32.5630   25.8300 C   0  0  0  0  0  1  0  0  0  0  0  0
  -25.5810  -33.9360   24.2230 N   0  0  0  0  0  0  0  0  0  0  0  0
  -25.8830  -34.9910   23.4550 C   0  0  0  0  0  0  0  0  0  0  0  0
  -26.5250  -34.8930   22.4050 O   0  0  0  0  0  0  0  0  0  0  0  0
  -25.0050  -34.0860   25.0380 H   0  0  0  0  0  0  0  0  0  0  0  0
  -24.1190  -36.7580   23.1590 C   0  0  0  0  0  1  0  0  0  0  0  0
  -25.3950  -36.3750   23.9250 C   0  0  0  0  0  3  0  0  0  0  0  0
  -27.5420  -37.2970   24.6760 C   0  0  0  0  0  1  0  0  0  0  0  0
  -26.4080  -37.4410   23.7670 N   0  0  0  0  0  0  0  0  0  0  0  0
  -25.9940  -38.3570   23.9210 H   0  0  0  0  0  0  0  0  0  0  0  0
  -27.2550  -17.3470   18.5110 C   0  0  0  0  0  1  0  0  0  0  0  0
  -27.4820  -17.4940   20.0240 C   0  0  0  0  0  2  0  0  0  0  0  0
  1  2  1  0
  3  4  2  0
  3  5  1  0
  4  6  1  0
  5 46  1  0
  5  1  2  0
  6 15  1  0
  6  2  2  0
  7 15  1  0
  8 13  1  0
  9 10  1  0
  9  8  1  0
 11 10  1  0
 11 20  1  0
 11 12  1  0
 13  7  1  0
 13 12  1  0
 14  7  2  0
 15 16  1  0
 17 18  2  0
 18 37  1  0
 19 18  1  0
 19 22  1  0
 20 21  1  0
 20 17  1  0
 21 19  2  0
 22 23  1  0
 23 24  2  0
 25 28  1  0
 25 24  1  0
 26 25  2  0
 27 26  1  0
 27 22  2  0
 28 29  1  0
 29 30  1  0
 30 31  2  0
 32 31  1  0
 32 36  1  0
 33 32  2  0
 34 29  2  0
 34 33  1  0
 35 34  1  0
 37 38  1  0
 38 41  1  0
 38 40  1  0
 39 37  2  0
 42 43  1  0
 42 17  1  0
 44 42  1  0
 45 48  1  0
 45 46  2  0
 48 47  1  0
 49 50  1  0
 49 48  1  0
 51 62  2  0
 52 50  1  0
 52 57  1  0
 53 61  1  0
 53 63  1  0
 54 60  1  0
 54 56  1  0
 55 61  1  0
 56 55  1  0
 57 56  2  0
 58 59  1  0
 58 52  2  0
 59 54  2  0
 60 53  1  0
 61 51  1  0
 63 65  2  0
 64 63  1  0
 66 64  1  0
 67 76  2  0
 67 72  1  0
 68 64  1  0
 68 72  1  0
 69 68  1  0
 70 71  1  0
 70 69  1  0
 71 67  1  0
 72 73  2  0
 73 74  1  0
 75 74  2  0
 76 75  1  0
 77 51  1  0
 77 82  1  0
 77 78  1  0
 78 81  1  1
 78 79  1  0
 80 78  1  0
 82 85  1  0
 83 87  1  0
 83 82  1  0
 84 83  2  0
 87 86  1  0
 89 90  1  0
 89 87  1  0
 89 88  1  0
 91 92  1  0
 92  4  1  0
M  ISO  4   7 100  15 100  49 101  50 101
M  END
>  <TORSDO>  (57) 
F 20

>  <SCORE>  (57) 
-14.006

>  <name>  (57) 
56

>  <ligand_id>  (57) 
56

>  <original_smiles>  (57) 
[H]C(=Nc1c([H])c([H])c(N([H])C(=O)N2C([H])([H])C([H])([H])C([H])([H])C([H])(n3nc(-c4c([H])c([H])c(Oc5c([H])c([H])c(F)c([H])c5F)c([H])c4[H])c(C(=O)N([H])[H])c3N([H])[H])C2([H])[H])c(C([H])([H])C([H])([H])[H])c1[H])C([H])(C([H])([H])[H])C([H])([H])Oc1c([H])c([H])c2c(c1[H])C([H])([H])N(C(=O)C([H])(N([H])C(=O)C([H])(N([H])C([H])([H])[H])C([H])([H])[H])C(C([H])([H])[H])(C([H])([H])[H])C([H])([H])[H])C([H])(C(=O)N([H])C1([H])c3c([H])c([H])c([H])c([H])c3C([H])([H])C([H])([H])C1([H])[H])C2([H])[H]

>  <smiles>  (57) 
[H]C(=Nc1c([H])c([H])c(N([H])C(=O)N2C([H])([H])C([H])([H])C([H])([H])C([H])(n3nc(-c4c([H])c([H])c(Oc5c([H])c([H])c(F)c([H])c5F)c([H])c4[H])c(C(=O)N([H])[H])c3N([H])[H])C2([H])[H])c(C([H])([H])C([H])([H])[H])c1[H])C([H])(C([H])([H])[H])C([H])([H])Oc1c([H])c([H])c2c(c1[H])C([H])([H])N(C(=O)C([H])(N([H])C(=O)C([H])(N([H])C([H])([H])[H])C([H])([H])[H])C(C([H])([H])[H])(C([H])([H])[H])C([H])([H])[H])C([H])(C(=O)N([H])C1([H])c3c([H])c([H])c([H])c([H])c3C([H])([H])C([H])([H])C1([H])[H])C2([H])[H]

$$$$
57:0:0
     RDKit          3D

 91 99  0  0  1  0  0  0  0  0999 V2000
  -30.2570  -21.9390   19.6440 C   0  0  0  0  0  3  0  0  0  0  0  0
  -29.3230  -22.7340   20.2380 C   0  0  0  0  0  3  0  0  0  0  0  0
  -29.9840  -19.4040   20.3830 C   0  0  0  0  0  3  0  0  0  0  0  0
  -31.1580  -20.0560   18.3650 C   0  0  0  0  0  3  0  0  0  0  0  0
  -30.9780  -17.6940   18.9540 C   0  0  0  0  0  3  0  0  0  0  0  0
  -30.4400  -20.4480   19.5150 C   0  0  0  0  0  0  0  0  0  0  0  0
  -30.2710  -18.0140   20.1320 C   0  0  0  0  0  0  0  0  0  0  0  0
  -31.4240  -18.7040   18.0810 C   0  0  0  0  0  0  0  0  0  0  0  0
  -32.2000  -18.3300   16.8340 C   0  0  0  0  0  1  0  0  0  0  0  0
  -29.8340  -16.9550   21.1100 C   0  0  0  0  0  3  0  0  0  0  0  0
  -29.9590  -15.5940   21.2630 C   0  0  0  0  0  3  0  0  0  0  0  0
  -30.6560  -14.5620   20.4610 C   0  0  0  0  0  0  0  0  0  0  0  0
  -30.3780  -12.3970   19.2610 C   0  0  0  0  0  2  0  0  0  0  0  0
  -29.4220  -12.5920   18.0640 C   0  0  0  0  0  2  0  0  0  0  0  0
  -27.9490  -12.4420   18.4950 C   0  0  0  0  0  2  0  0  0  0  0  0
  -27.6220  -13.2550   19.7750 C   0  0  0  0  0  3  0  0  0  0  0  0
  -28.6820  -13.0000   20.8660 C   0  0  0  0  0  2  0  0  0  0  0  0
  -29.9980  -13.3670   20.3090 N   0  0  0  0  0  0  0  0  0  0  0  0
  -31.7660  -14.7370   19.9470 O   0  0  0  0  0  0  0  0  0  0  0  0
  -25.2290  -13.8740   20.4830 C   0  0  0  0  0  0  0  0  0  0  0  0
  -24.1580  -13.1080   20.8580 C   0  0  0  0  0  0  0  0  0  0  0  0
  -24.6140  -11.7550   20.8370 C   0  0  0  0  0  0  0  0  0  0  0  0
  -26.2700  -12.9870   20.2560 N   0  0  0  0  0  0  0  0  0  0  0  0
  -25.9040  -11.7080   20.5260 N   0  0  0  0  0  0  0  0  0  0  0  0
  -23.8840  -10.4980   21.0380 C   0  0  0  0  0  0  0  0  0  0  0  0
  -24.3290   -9.5250   21.9610 C   0  0  0  0  0  3  0  0  0  0  0  0
  -23.6000   -8.3310   22.1500 C   0  0  0  0  0  3  0  0  0  0  0  0
  -22.4130   -8.1010   21.4140 C   0  0  0  0  0  0  0  0  0  0  0  0
  -21.9880   -9.0620   20.4800 C   0  0  0  0  0  3  0  0  0  0  0  0
  -22.7170  -10.2470   20.2900 C   0  0  0  0  0  3  0  0  0  0  0  0
  -21.6560   -6.9590   21.5110 O   0  0  0  0  0  0  0  0  0  0  0  0
  -21.6370   -6.2020   22.6560 C   0  0  0  0  0  0  0  0  0  0  0  0
  -21.2620   -6.7470   23.9030 C   0  0  0  0  0  3  0  0  0  0  0  0
  -21.1900   -5.9190   25.0410 C   0  0  0  0  0  3  0  0  0  0  0  0
  -21.4800   -4.5450   24.9320 C   0  0  0  0  0  0  0  0  0  0  0  0
  -21.8480   -3.9990   23.6900 C   0  0  0  0  0  3  0  0  0  0  0  0
  -21.9230   -4.8250   22.5540 C   0  0  0  0  0  0  0  0  0  0  0  0
  -22.2580   -4.2890   21.3550 F   0  0  0  0  0  0  0  0  0  0  0  0
  -21.4040   -3.7480   26.0230 F   0  0  0  0  0  0  0  0  0  0  0  0
  -22.7630  -13.5940   21.1310 C   0  0  0  0  0  0  0  0  0  0  0  0
  -22.0360  -12.9070   22.0040 N   0  0  0  0  0  0  0  0  0  0  0  0
  -22.3280  -14.6180   20.6050 O   0  0  0  0  0  0  0  0  0  0  0  0
  -22.4030  -12.0820   22.4520 H   0  0  0  0  0  0  0  0  0  0  0  0
  -21.1000  -13.2130   22.2290 H   0  0  0  0  0  0  0  0  0  0  0  0
  -25.3990  -15.2430   20.3000 N   0  0  0  0  0  0  0  0  0  0  0  0
  -24.6370  -15.9030   20.4150 H   0  0  0  0  0  0  0  0  0  0  0  0
  -26.2620  -15.6790   19.9970 H   0  0  0  0  0  0  0  0  0  0  0  0
  -29.4210  -24.2430   20.1630 C   0  0  0  0  0  0  0  0  0  0  0  0
  -30.4740  -24.8090   19.8480 O   0  0  0  0  0  0  0  0  0  0  0  0
  -28.1780  -25.1330   20.4720 C   0  0  0  0  0  2  0  0  0  0  0  0
  -28.3750  -26.5630   20.2070 O   0  0  0  0  0  0  0  0  0  0  0  0
  -24.6060  -31.8780   23.2370 C   0  0  0  0  0  0  0  0  0  0  0  0
  -27.2320  -27.3590   20.1870 C   0  0  0  0  0  0  0  0  0  0  0  0
  -23.4000  -30.4750   21.5960 C   0  0  0  0  0  3  0  0  0  0  0  0
  -24.8520  -28.9270   20.1790 C   0  0  0  0  0  0  0  0  0  0  0  0
  -25.9340  -30.8100   21.4090 C   0  0  0  0  0  2  0  0  0  0  0  0
  -26.0180  -29.4330   20.7710 C   0  0  0  0  0  0  0  0  0  0  0  0
  -27.2100  -28.6580   20.7670 C   0  0  0  0  0  3  0  0  0  0  0  0
  -26.0450  -26.8950   19.5710 C   0  0  0  0  0  3  0  0  0  0  0  0
  -24.8660  -27.6630   19.5700 C   0  0  0  0  0  3  0  0  0  0  0  0
  -23.6140  -29.7960   20.2180 C   0  0  0  0  0  2  0  0  0  0  0  0
  -24.6640  -31.0700   22.1380 N   0  0  0  0  0  0  0  0  0  0  0  0
  -23.5220  -32.1540   23.7730 O   0  0  0  0  0  0  0  0  0  0  0  0
  -22.7390  -29.4590   22.5580 C   0  0  0  0  0  0  0  0  0  0  0  0
  -21.4140  -29.2760   22.4250 N   0  0  0  0  0  0  0  0  0  0  0  0
  -23.4170  -28.8400   23.3830 O   0  0  0  0  0  0  0  0  0  0  0  0
  -20.9270  -29.8280   21.7330 H   0  0  0  0  0  0  0  0  0  0  0  0
  -18.0450  -28.0560   22.8930 C   0  0  0  0  0  0  0  0  0  0  0  0
  -20.5960  -28.3400   23.1960 C   0  0  0  0  0  3  0  0  0  0  0  0
  -20.7210  -26.9030   22.6400 C   0  0  0  0  0  2  0  0  0  0  0  0
  -19.6360  -26.5570   21.6150 C   0  0  0  0  0  2  0  0  0  0  0  0
  -18.2430  -26.6990   22.2370 C   0  0  0  0  0  2  0  0  0  0  0  0
  -19.1510  -28.8330   23.3290 C   0  0  0  0  0  0  0  0  0  0  0  0
  -18.9140  -30.1010   23.9010 C   0  0  0  0  0  3  0  0  0  0  0  0
  -17.6030  -30.5920   24.0450 C   0  0  0  0  0  3  0  0  0  0  0  0
  -16.5110  -29.8120   23.6260 C   0  0  0  0  0  3  0  0  0  0  0  0
  -16.7330  -28.5470   23.0540 C   0  0  0  0  0  3  0  0  0  0  0  0
  -25.8900  -32.5090   23.8560 C   0  0  0  0  0  3  0  0  0  0  0  0
  -26.4130  -31.7340   25.1280 C   0  0  1  0  0  0  0  0  0  0  0  0
  -25.3270  -31.4930   26.2010 C   0  0  0  0  0  1  0  0  0  0  0  0
  -26.9950  -30.3570   24.7300 C   0  0  0  0  0  1  0  0  0  0  0  0
  -27.5660  -32.5270   25.7880 C   0  0  0  0  0  1  0  0  0  0  0  0
  -25.5820  -33.9060   24.1900 N   0  0  0  0  0  0  0  0  0  0  0  0
  -25.9100  -34.9610   23.4300 C   0  0  0  0  0  0  0  0  0  0  0  0
  -26.5730  -34.8590   22.3950 O   0  0  0  0  0  0  0  0  0  0  0  0
  -24.9960  -34.0620   24.9970 H   0  0  0  0  0  0  0  0  0  0  0  0
  -24.1770  -36.7520   23.0880 C   0  0  0  0  0  1  0  0  0  0  0  0
  -25.4230  -36.3480   23.8920 C   0  0  0  0  0  3  0  0  0  0  0  0
  -27.5620  -37.2340   24.7120 C   0  0  0  0  0  1  0  0  0  0  0  0
  -26.4530  -37.4010   23.7760 N   0  0  0  0  0  0  0  0  0  0  0  0
  -26.0460  -38.3200   23.9290 H   0  0  0  0  0  0  0  0  0  0  0  0
  1  2  2  0
  4  6  1  0
  5  7  2  0
  6  1  1  0
  6  3  2  0
  7  3  1  0
  7 10  1  0
  8  4  2  0
  8  5  1  0
  9  8  1  0
 10 11  2  0
 12 11  1  0
 13 18  1  0
 14 15  1  0
 14 13  1  0
 16 15  1  0
 16 23  1  0
 16 17  1  0
 18 12  1  0
 18 17  1  0
 19 12  2  0
 20 21  2  0
 21 40  1  0
 22 21  1  0
 22 25  1  0
 23 20  1  0
 23 24  1  0
 24 22  2  0
 25 26  1  0
 26 27  2  0
 28 31  1  0
 28 27  1  0
 29 28  2  0
 30 29  1  0
 30 25  2  0
 31 32  1  0
 32 33  1  0
 33 34  2  0
 35 34  1  0
 35 39  1  0
 36 35  2  0
 37 32  2  0
 37 36  1  0
 38 37  1  0
 40 41  1  0
 41 44  1  0
 41 43  1  0
 42 40  2  0
 45 46  1  0
 45 20  1  0
 47 45  1  0
 48  2  1  0
 48 50  1  0
 49 48  2  0
 51 50  1  0
 52 63  2  0
 53 51  1  0
 53 58  1  0
 54 62  1  0
 54 64  1  0
 55 61  1  0
 55 57  1  0
 56 62  1  0
 57 56  1  0
 58 57  2  0
 59 53  2  0
 60 59  1  0
 60 55  2  0
 61 54  1  0
 62 52  1  0
 64 66  2  0
 65 64  1  0
 67 65  1  0
 68 77  2  0
 68 73  1  0
 69 65  1  0
 69 73  1  0
 70 69  1  0
 71 72  1  0
 71 70  1  0
 72 68  1  0
 73 74  2  0
 74 75  1  0
 76 75  2  0
 77 76  1  0
 78 52  1  0
 78 83  1  0
 78 79  1  0
 79 82  1  1
 79 80  1  0
 81 79  1  0
 83 86  1  0
 84 88  1  0
 84 83  1  0
 85 84  2  0
 88 87  1  0
 90 88  1  0
 90 91  1  0
 90 89  1  0
M  ISO  4  11 100  12 100  50 101  51 101
M  END
>  <TORSDO>  (58) 
F 20

>  <SCORE>  (58) 
-13.951

>  <name>  (58) 
57

>  <ligand_id>  (58) 
57

>  <original_smiles>  (58) 
[H]C(C(=O)N1C([H])([H])C([H])([H])C([H])([H])C([H])(n2nc(-c3c([H])c([H])c(Oc4c([H])c([H])c(F)c([H])c4F)c([H])c3[H])c(C(=O)N([H])[H])c2N([H])[H])C1([H])[H])=C([H])c1c([H])c(C([H])=C([H])C(=O)C([H])([H])Oc2c([H])c([H])c3c(c2[H])C([H])([H])N(C(=O)C([H])(N([H])C(=O)C([H])(N([H])C([H])([H])[H])C([H])([H])[H])C(C([H])([H])[H])(C([H])([H])[H])C([H])([H])[H])C([H])(C(=O)N([H])C2([H])c4c([H])c([H])c([H])c([H])c4C([H])([H])C([H])([H])C2([H])[H])C3([H])[H])c([H])c(C([H])([H])[H])c1[H]

>  <smiles>  (58) 
[H]C(C(=O)N1C([H])([H])C([H])([H])C([H])([H])C([H])(n2nc(-c3c([H])c([H])c(Oc4c([H])c([H])c(F)c([H])c4F)c([H])c3[H])c(C(=O)N([H])[H])c2N([H])[H])C1([H])[H])=C([H])c1c([H])c(C([H])=C([H])C(=O)C([H])([H])Oc2c([H])c([H])c3c(c2[H])C([H])([H])N(C(=O)C([H])(N([H])C(=O)C([H])(N([H])C([H])([H])[H])C([H])([H])[H])C(C([H])([H])[H])(C([H])([H])[H])C([H])([H])[H])C([H])(C(=O)N([H])C2([H])c4c([H])c([H])c([H])c([H])c4C([H])([H])C([H])([H])C2([H])[H])C3([H])[H])c([H])c(C([H])([H])[H])c1[H]

$$$$
58:0:0
     RDKit          3D

 92100  0  0  1  0  0  0  0  0999 V2000
  -27.8580  -19.1490   18.7250 C   0  0  0  0  0  3  0  0  0  0  0  0
  -28.1030  -20.3800   19.3370 C   0  0  0  0  0  3  0  0  0  0  0  0
  -28.6610  -18.0530   19.0680 C   0  0  0  0  0  3  0  0  0  0  0  0
  -29.1320  -20.5350   20.2920 C   0  0  0  0  0  0  0  0  0  0  0  0
  -29.6650  -18.1520   20.0660 C   0  0  0  0  0  0  0  0  0  0  0  0
  -29.8850  -19.3980   20.7140 C   0  0  0  0  0  0  0  0  0  0  0  0
  -29.3680  -21.9060   20.7730 C   0  0  0  0  0  3  0  0  0  0  0  0
  -29.1680  -22.9900   19.9930 C   0  0  0  0  0  3  0  0  0  0  0  0
  -30.2170  -24.6920   21.3430 C   0  0  0  0  0  2  0  0  0  0  0  0
  -29.2810  -24.3630   20.4370 C   0  0  0  0  0  0  0  0  0  0  0  0
  -28.2810  -25.3500   19.8490 C   0  0  0  0  0  2  0  0  0  0  0  0
  -28.4280  -26.7290   20.2070 O   0  0  0  0  0  0  0  0  0  0  0  0
  -24.6330  -31.8790   23.2640 C   0  0  0  0  0  0  0  0  0  0  0  0
  -27.2710  -27.4810   20.1390 C   0  0  0  0  0  0  0  0  0  0  0  0
  -23.4220  -30.5070   21.6000 C   0  0  0  0  0  3  0  0  0  0  0  0
  -24.8700  -28.9940   20.1580 C   0  0  0  0  0  0  0  0  0  0  0  0
  -25.9490  -30.8640   21.4120 C   0  0  0  0  0  2  0  0  0  0  0  0
  -26.0310  -29.5060   20.7510 C   0  0  0  0  0  0  0  0  0  0  0  0
  -27.2320  -28.7610   20.7360 C   0  0  0  0  0  3  0  0  0  0  0  0
  -26.0860  -27.0050   19.5090 C   0  0  0  0  0  3  0  0  0  0  0  0
  -24.8940  -27.7410   19.5340 C   0  0  0  0  0  3  0  0  0  0  0  0
  -23.6310  -29.8550   20.2100 C   0  0  0  0  0  2  0  0  0  0  0  0
  -24.6870  -31.0980   22.1490 N   0  0  0  0  0  0  0  0  0  0  0  0
  -23.5510  -32.1480   23.8040 O   0  0  0  0  0  0  0  0  0  0  0  0
  -22.7710  -29.4670   22.5420 C   0  0  0  0  0  0  0  0  0  0  0  0
  -21.4450  -29.2890   22.4120 N   0  0  0  0  0  0  0  0  0  0  0  0
  -23.4540  -28.8310   23.3490 O   0  0  0  0  0  0  0  0  0  0  0  0
  -20.9580  -29.8640   21.7390 H   0  0  0  0  0  0  0  0  0  0  0  0
  -18.0680  -28.1050   22.9020 C   0  0  0  0  0  0  0  0  0  0  0  0
  -20.6270  -28.3440   23.1720 C   0  0  0  0  0  3  0  0  0  0  0  0
  -20.7160  -26.9200   22.5790 C   0  0  0  0  0  2  0  0  0  0  0  0
  -19.6130  -26.6150   21.5610 C   0  0  0  0  0  2  0  0  0  0  0  0
  -18.2320  -26.7620   22.2110 C   0  0  0  0  0  2  0  0  0  0  0  0
  -19.1920  -28.8530   23.3400 C   0  0  0  0  0  0  0  0  0  0  0  0
  -18.9850  -30.1090   23.9510 C   0  0  0  0  0  3  0  0  0  0  0  0
  -17.6860  -30.6190   24.1250 C   0  0  0  0  0  3  0  0  0  0  0  0
  -16.5750  -29.8710   23.7000 C   0  0  0  0  0  3  0  0  0  0  0  0
  -16.7670  -28.6140   23.0950 C   0  0  0  0  0  3  0  0  0  0  0  0
  -25.9210  -32.4960   23.8890 C   0  0  0  0  0  3  0  0  0  0  0  0
  -25.6160  -33.8960   24.2130 N   0  0  0  0  0  0  0  0  0  0  0  0
  -25.9400  -34.9440   23.4420 C   0  0  0  0  0  0  0  0  0  0  0  0
  -26.5990  -34.8340   22.4060 O   0  0  0  0  0  0  0  0  0  0  0  0
  -25.0150  -34.0500   25.0060 H   0  0  0  0  0  0  0  0  0  0  0  0
  -24.2000  -36.7360   23.1040 C   0  0  0  0  0  1  0  0  0  0  0  0
  -25.4560  -36.3340   23.8940 C   0  0  0  0  0  3  0  0  0  0  0  0
  -27.6040  -37.2370   24.6800 C   0  0  0  0  0  1  0  0  0  0  0  0
  -26.4840  -37.3930   23.7550 N   0  0  0  0  0  0  0  0  0  0  0  0
  -26.0750  -38.3130   23.9020 H   0  0  0  0  0  0  0  0  0  0  0  0
  -26.4220  -31.7200   25.1690 C   0  0  1  0  0  0  0  0  0  0  0  0
  -25.3220  -31.4960   26.2320 C   0  0  0  0  0  1  0  0  0  0  0  0
  -26.9990  -30.3360   24.7810 C   0  0  0  0  0  1  0  0  0  0  0  0
  -27.5660  -32.5120   25.8450 C   0  0  0  0  0  1  0  0  0  0  0  0
  -30.4350  -16.9290   20.3930 C   0  0  0  0  0  3  0  0  0  0  0  0
  -29.9110  -15.6950   20.2860 C   0  0  0  0  0  3  0  0  0  0  0  0
  -30.7360  -14.4960   20.3080 C   0  0  0  0  0  0  0  0  0  0  0  0
  -30.3910  -12.3310   19.2380 C   0  0  0  0  0  2  0  0  0  0  0  0
  -29.4740  -12.5800   18.0220 C   0  0  0  0  0  2  0  0  0  0  0  0
  -27.9830  -12.4660   18.4180 C   0  0  0  0  0  2  0  0  0  0  0  0
  -27.6340  -13.2750   19.6940 C   0  0  0  0  0  3  0  0  0  0  0  0
  -28.7000  -13.0950   20.8080 C   0  0  0  0  0  2  0  0  0  0  0  0
  -30.0370  -13.3330   20.2460 N   0  0  0  0  0  0  0  0  0  0  0  0
  -31.9400  -14.5620   20.0520 O   0  0  0  0  0  0  0  0  0  0  0  0
  -25.2510  -13.8880   20.4280 C   0  0  0  0  0  0  0  0  0  0  0  0
  -24.1830  -13.1170   20.8110 C   0  0  0  0  0  0  0  0  0  0  0  0
  -24.6490  -11.7670   20.7910 C   0  0  0  0  0  0  0  0  0  0  0  0
  -26.2920  -13.0000   20.1950 N   0  0  0  0  0  0  0  0  0  0  0  0
  -25.9370  -11.7220   20.4740 N   0  0  0  0  0  0  0  0  0  0  0  0
  -23.9220  -10.5070   20.9830 C   0  0  0  0  0  0  0  0  0  0  0  0
  -24.3460   -9.5550   21.9340 C   0  0  0  0  0  3  0  0  0  0  0  0
  -23.6240   -8.3550   22.1140 C   0  0  0  0  0  3  0  0  0  0  0  0
  -22.4640   -8.1040   21.3450 C   0  0  0  0  0  0  0  0  0  0  0  0
  -22.0620   -9.0440   20.3830 C   0  0  0  0  0  3  0  0  0  0  0  0
  -22.7840  -10.2350   20.1990 C   0  0  0  0  0  3  0  0  0  0  0  0
  -21.7080   -6.9600   21.4430 O   0  0  0  0  0  0  0  0  0  0  0  0
  -21.6260   -6.2480   22.6140 C   0  0  0  0  0  0  0  0  0  0  0  0
  -21.1290   -6.8240   23.8030 C   0  0  0  0  0  3  0  0  0  0  0  0
  -20.9960   -6.0360   24.9660 C   0  0  0  0  0  3  0  0  0  0  0  0
  -21.3430   -4.6720   24.9350 C   0  0  0  0  0  0  0  0  0  0  0  0
  -21.8310   -4.0960   23.7510 C   0  0  0  0  0  3  0  0  0  0  0  0
  -21.9680   -4.8810   22.5930 C   0  0  0  0  0  0  0  0  0  0  0  0
  -22.4170   -4.3120   21.4480 F   0  0  0  0  0  0  0  0  0  0  0  0
  -21.2090   -3.9130   26.0490 F   0  0  0  0  0  0  0  0  0  0  0  0
  -22.7850  -13.5970   21.0700 C   0  0  0  0  0  0  0  0  0  0  0  0
  -22.0490  -12.9090   21.9410 N   0  0  0  0  0  0  0  0  0  0  0  0
  -22.3480  -14.6130   20.5350 O   0  0  0  0  0  0  0  0  0  0  0  0
  -22.4070  -12.0910   22.4100 H   0  0  0  0  0  0  0  0  0  0  0  0
  -21.1090  -13.2150   22.1440 H   0  0  0  0  0  0  0  0  0  0  0  0
  -25.4090  -15.2560   20.2430 N   0  0  0  0  0  0  0  0  0  0  0  0
  -24.6410  -15.9080   20.3540 H   0  0  0  0  0  0  0  0  0  0  0  0
  -26.2670  -15.7040   19.9490 H   0  0  0  0  0  0  0  0  0  0  0  0
  -32.3170  -19.6580   21.6060 C   0  0  0  0  0  1  0  0  0  0  0  0
  -30.8270  -19.4930   21.9240 C   0  0  0  0  0  2  0  0  0  0  0  0
  1  3  2  0
  1  2  1  0
  2  4  2  0
  3  5  1  0
  4  6  1  0
  4  7  1  0
  5 53  1  0
  5  6  2  0
  6 92  1  0
  8 10  1  0
  8  7  2  0
 10  9  2  0
 11 12  1  0
 11 10  1  0
 13 24  2  0
 14 12  1  0
 14 19  1  0
 15 23  1  0
 15 25  1  0
 16 22  1  0
 16 18  1  0
 17 23  1  0
 18 17  1  0
 19 18  2  0
 20 21  1  0
 20 14  2  0
 21 16  2  0
 22 15  1  0
 23 13  1  0
 25 27  2  0
 26 25  1  0
 28 26  1  0
 29 38  2  0
 29 34  1  0
 30 26  1  0
 30 34  1  0
 31 30  1  0
 32 33  1  0
 32 31  1  0
 33 29  1  0
 34 35  2  0
 35 36  1  0
 37 36  2  0
 38 37  1  0
 39 13  1  0
 39 40  1  0
 39 49  1  0
 40 43  1  0
 41 45  1  0
 41 40  1  0
 42 41  2  0
 45 44  1  0
 47 45  1  0
 47 48  1  0
 47 46  1  0
 49 52  1  1
 49 50  1  0
 51 49  1  0
 54 55  1  0
 54 53  2  0
 56 61  1  0
 57 58  1  0
 57 56  1  0
 59 58  1  0
 59 66  1  0
 59 60  1  0
 61 55  1  0
 61 60  1  0
 62 55  2  0
 63 64  2  0
 64 83  1  0
 65 64  1  0
 65 68  1  0
 66 63  1  0
 66 67  1  0
 67 65  2  0
 68 69  1  0
 69 70  2  0
 71 74  1  0
 71 70  1  0
 72 71  2  0
 73 72  1  0
 73 68  2  0
 74 75  1  0
 75 76  1  0
 76 77  2  0
 78 77  1  0
 78 82  1  0
 79 78  2  0
 80 75  2  0
 80 79  1  0
 81 80  1  0
 83 84  1  0
 84 87  1  0
 84 86  1  0
 85 83  2  0
 88 89  1  0
 88 63  1  0
 90 88  1  0
 91 92  1  0
M  ISO  4  11 101  12 101  54 100  55 100
M  END
>  <TORSDO>  (59) 
F 21

>  <SCORE>  (59) 
-13.880

>  <name>  (59) 
58

>  <ligand_id>  (59) 
58

>  <original_smiles>  (59) 
[H]C([H])=C(C([H])=C([H])c1c([H])c([H])c([H])c(C([H])=C([H])C(=O)N2C([H])([H])C([H])([H])C([H])([H])C([H])(n3nc(-c4c([H])c([H])c(Oc5c([H])c([H])c(F)c([H])c5F)c([H])c4[H])c(C(=O)N([H])[H])c3N([H])[H])C2([H])[H])c1C([H])([H])C([H])([H])[H])C([H])([H])Oc1c([H])c([H])c2c(c1[H])C([H])([H])N(C(=O)C([H])(N([H])C(=O)C([H])(N([H])C([H])([H])[H])C([H])([H])[H])C(C([H])([H])[H])(C([H])([H])[H])C([H])([H])[H])C([H])(C(=O)N([H])C1([H])c3c([H])c([H])c([H])c([H])c3C([H])([H])C([H])([H])C1([H])[H])C2([H])[H]

>  <smiles>  (59) 
[H]C([H])=C(C([H])=C([H])c1c([H])c([H])c([H])c(C([H])=C([H])C(=O)N2C([H])([H])C([H])([H])C([H])([H])C([H])(n3nc(-c4c([H])c([H])c(Oc5c([H])c([H])c(F)c([H])c5F)c([H])c4[H])c(C(=O)N([H])[H])c3N([H])[H])C2([H])[H])c1C([H])([H])C([H])([H])[H])C([H])([H])Oc1c([H])c([H])c2c(c1[H])C([H])([H])N(C(=O)C([H])(N([H])C(=O)C([H])(N([H])C([H])([H])[H])C([H])([H])[H])C(C([H])([H])[H])(C([H])([H])[H])C([H])([H])[H])C([H])(C(=O)N([H])C1([H])c3c([H])c([H])c([H])c([H])c3C([H])([H])C([H])([H])C1([H])[H])C2([H])[H]

$$$$
59:0:0
     RDKit          3D

 91 99  0  0  1  0  0  0  0  0999 V2000
  -29.3780  -18.7140   20.5580 C   0  0  0  0  0  3  0  0  0  0  0  0
  -29.6550  -20.0360   21.1630 C   0  0  0  0  0  0  0  0  0  0  0  0
  -30.2580  -17.6480   20.8470 C   0  0  0  0  0  0  0  0  0  0  0  0
  -30.7700  -19.9290   21.9910 C   0  0  0  0  0  0  0  0  0  0  0  0
  -31.5580  -18.3400   21.8110 S   0  0  0  0  0  0  0  0  0  0  0  0
  -29.9810  -16.1300   20.9160 C   0  0  0  0  0  0  0  0  0  0  0  0
  -29.0310  -15.8770   21.7140 N   0  0  0  0  0  0  0  0  0  0  0  0
  -28.6890  -16.7300   22.1490 H   0  0  0  0  0  0  0  0  0  0  0  0
  -30.7760  -14.9160   20.1330 C   0  0  0  0  0  0  0  0  0  0  0  0
  -30.6180  -12.6760   18.9450 C   0  0  0  0  0  2  0  0  0  0  0  0
  -29.6030  -12.7250   17.7690 C   0  0  0  0  0  2  0  0  0  0  0  0
  -28.1470  -12.5350   18.2480 C   0  0  0  0  0  2  0  0  0  0  0  0
  -27.8330  -13.3820   19.5070 C   0  0  0  0  0  3  0  0  0  0  0  0
  -28.9320  -13.1390   20.5600 C   0  0  0  0  0  2  0  0  0  0  0  0
  -30.1950  -13.6520   19.9940 N   0  0  0  0  0  0  0  0  0  0  0  0
  -31.8790  -15.1060   19.6000 O   0  0  0  0  0  0  0  0  0  0  0  0
  -25.4590  -14.0040   20.2700 C   0  0  0  0  0  0  0  0  0  0  0  0
  -24.3990  -13.2440   20.6760 C   0  0  0  0  0  0  0  0  0  0  0  0
  -24.8500  -11.8880   20.6410 C   0  0  0  0  0  0  0  0  0  0  0  0
  -26.4940  -13.1160   20.0220 N   0  0  0  0  0  0  0  0  0  0  0  0
  -26.1310  -11.8370   20.2950 N   0  0  0  0  0  0  0  0  0  0  0  0
  -24.1220  -10.6330   20.8600 C   0  0  0  0  0  0  0  0  0  0  0  0
  -24.5600   -9.6780   21.8050 C   0  0  0  0  0  3  0  0  0  0  0  0
  -23.8320   -8.4890   22.0130 C   0  0  0  0  0  3  0  0  0  0  0  0
  -22.6510   -8.2420   21.2750 C   0  0  0  0  0  0  0  0  0  0  0  0
  -22.2290   -9.1850   20.3220 C   0  0  0  0  0  3  0  0  0  0  0  0
  -22.9590  -10.3660   20.1120 C   0  0  0  0  0  3  0  0  0  0  0  0
  -21.8890   -7.1030   21.3960 O   0  0  0  0  0  0  0  0  0  0  0  0
  -21.8290   -6.3970   22.5700 C   0  0  0  0  0  0  0  0  0  0  0  0
  -21.3920   -6.9900   23.7750 C   0  0  0  0  0  3  0  0  0  0  0  0
  -21.2810   -6.2110   24.9430 C   0  0  0  0  0  3  0  0  0  0  0  0
  -21.5950   -4.8400   24.9090 C   0  0  0  0  0  0  0  0  0  0  0  0
  -22.0270   -4.2460   23.7100 C   0  0  0  0  0  3  0  0  0  0  0  0
  -22.1420   -5.0220   22.5440 C   0  0  0  0  0  0  0  0  0  0  0  0
  -22.5380   -4.4410   21.3860 F   0  0  0  0  0  0  0  0  0  0  0  0
  -21.4800   -4.0890   26.0300 F   0  0  0  0  0  0  0  0  0  0  0  0
  -23.0150  -13.7300   20.9930 C   0  0  0  0  0  0  0  0  0  0  0  0
  -22.3170  -13.0530   21.8950 N   0  0  0  0  0  0  0  0  0  0  0  0
  -22.5630  -14.7510   20.4750 O   0  0  0  0  0  0  0  0  0  0  0  0
  -22.6970  -12.2250   22.3370 H   0  0  0  0  0  0  0  0  0  0  0  0
  -21.3890  -13.3650   22.1540 H   0  0  0  0  0  0  0  0  0  0  0  0
  -25.6190  -15.3730   20.0700 N   0  0  0  0  0  0  0  0  0  0  0  0
  -24.8640  -16.0340   20.2050 H   0  0  0  0  0  0  0  0  0  0  0  0
  -26.4870  -15.8130   19.7900 H   0  0  0  0  0  0  0  0  0  0  0  0
  -32.6790  -21.1880   23.3440 C   0  0  0  0  0  1  0  0  0  0  0  0
  -31.1770  -20.8770   23.1190 C   0  0  0  0  0  2  0  0  0  0  0  0
  -28.7890  -21.1460   21.1850 O   0  0  0  0  0  0  0  0  0  0  0  0
  -29.0510  -22.4160   20.4410 C   0  0  0  0  0  3  0  0  0  0  0  0
  -28.2230  -23.7900   20.7630 C   0  0  0  0  0  3  0  0  0  0  0  0
  -28.4500  -25.1040   19.8310 C   0  0  0  0  0  2  0  0  0  0  0  0
  -28.3480  -26.5440   20.2540 O   0  0  0  0  0  0  0  0  0  0  0  0
  -24.5770  -31.8930   23.2210 C   0  0  0  0  0  0  0  0  0  0  0  0
  -27.2160  -27.3770   20.1260 C   0  0  0  0  0  0  0  0  0  0  0  0
  -23.3860  -30.5190   21.5470 C   0  0  0  0  0  3  0  0  0  0  0  0
  -24.8530  -29.0020   20.0910 C   0  0  0  0  0  0  0  0  0  0  0  0
  -25.9190  -30.8580   21.3730 C   0  0  0  0  0  2  0  0  0  0  0  0
  -26.0110  -29.4890   20.7060 C   0  0  0  0  0  0  0  0  0  0  0  0
  -27.1930  -28.6860   20.7100 C   0  0  0  0  0  3  0  0  0  0  0  0
  -26.0420  -26.9540   19.4730 C   0  0  0  0  0  3  0  0  0  0  0  0
  -24.8700  -27.7480   19.4580 C   0  0  0  0  0  3  0  0  0  0  0  0
  -23.6110  -29.8740   20.1540 C   0  0  0  0  0  2  0  0  0  0  0  0
  -24.6460  -31.1060   22.1090 N   0  0  0  0  0  0  0  0  0  0  0  0
  -23.4950  -32.1550   23.7640 O   0  0  0  0  0  0  0  0  0  0  0  0
  -22.7300  -29.4780   22.4890 C   0  0  0  0  0  0  0  0  0  0  0  0
  -21.4080  -29.2730   22.3440 N   0  0  0  0  0  0  0  0  0  0  0  0
  -23.4090  -28.8610   23.3120 O   0  0  0  0  0  0  0  0  0  0  0  0
  -20.9110  -29.8460   21.6740 H   0  0  0  0  0  0  0  0  0  0  0  0
  -18.0630  -27.9550   22.7530 C   0  0  0  0  0  0  0  0  0  0  0  0
  -20.6020  -28.3050   23.0920 C   0  0  0  0  0  3  0  0  0  0  0  0
  -20.7670  -26.8760   22.5250 C   0  0  0  0  0  2  0  0  0  0  0  0
  -19.7090  -26.5160   21.4770 C   0  0  0  0  0  2  0  0  0  0  0  0
  -18.3050  -26.6130   22.0840 C   0  0  0  0  0  2  0  0  0  0  0  0
  -19.1410  -28.7560   23.2110 C   0  0  0  0  0  0  0  0  0  0  0  0
  -18.8630  -30.0120   23.7930 C   0  0  0  0  0  3  0  0  0  0  0  0
  -17.5400  -30.4710   23.9170 C   0  0  0  0  0  3  0  0  0  0  0  0
  -16.4740  -29.6690   23.4770 C   0  0  0  0  0  3  0  0  0  0  0  0
  -16.7360  -28.4130   22.9010 C   0  0  0  0  0  3  0  0  0  0  0  0
  -25.8520  -32.5300   23.8550 C   0  0  0  0  0  3  0  0  0  0  0  0
  -25.5460  -33.9330   24.1710 N   0  0  0  0  0  0  0  0  0  0  0  0
  -25.8930  -34.9790   23.4060 C   0  0  0  0  0  0  0  0  0  0  0  0
  -26.5730  -34.8600   22.3850 O   0  0  0  0  0  0  0  0  0  0  0  0
  -24.9370  -34.0930   24.9610 H   0  0  0  0  0  0  0  0  0  0  0  0
  -24.1810  -36.7880   23.0130 C   0  0  0  0  0  1  0  0  0  0  0  0
  -25.4090  -36.3770   23.8420 C   0  0  0  0  0  3  0  0  0  0  0  0
  -27.5440  -37.2540   24.6920 C   0  0  0  0  0  1  0  0  0  0  0  0
  -26.4540  -37.4230   23.7340 N   0  0  0  0  0  0  0  0  0  0  0  0
  -26.0490  -38.3460   23.8760 H   0  0  0  0  0  0  0  0  0  0  0  0
  -26.3470  -31.7670   25.1460 C   0  0  1  0  0  0  0  0  0  0  0  0
  -25.2460  -31.5370   26.2090 C   0  0  0  0  0  1  0  0  0  0  0  0
  -26.9320  -30.3820   24.7760 C   0  0  0  0  0  1  0  0  0  0  0  0
  -27.4990  -32.5590   25.8100 C   0  0  0  0  0  1  0  0  0  0  0  0
  1  3  2  0
  1  2  1  0
  2 47  1  0
  2  4  2  0
  3  6  1  0
  3  5  1  0
  4 46  1  0
  5  4  1  0
  6  7  2  0
  7  8  1  0
  9  6  1  0
 10 15  1  0
 11 12  1  0
 11 10  1  0
 13 12  1  0
 13 20  1  0
 13 14  1  0
 15  9  1  0
 15 14  1  0
 16  9  2  0
 17 18  2  0
 18 37  1  0
 19 18  1  0
 19 22  1  0
 20 17  1  0
 20 21  1  0
 21 19  2  0
 22 23  1  0
 23 24  2  0
 25 28  1  0
 25 24  1  0
 26 25  2  0
 27 26  1  0
 27 22  2  0
 28 29  1  0
 29 30  1  0
 30 31  2  0
 32 31  1  0
 32 36  1  0
 33 32  2  0
 34 29  2  0
 34 33  1  0
 35 34  1  0
 37 38  1  0
 38 41  1  0
 38 40  1  0
 39 37  2  0
 42 43  1  0
 42 17  1  0
 44 42  1  0
 46 45  1  0
 48 49  2  0
 48 47  1  0
 50 51  1  0
 50 49  1  0
 52 63  2  0
 53 51  1  0
 53 58  1  0
 54 62  1  0
 54 64  1  0
 55 61  1  0
 55 57  1  0
 56 62  1  0
 57 58  2  0
 57 56  1  0
 59 53  2  0
 60 59  1  0
 60 55  2  0
 61 54  1  0
 62 52  1  0
 64 66  2  0
 65 64  1  0
 67 65  1  0
 68 77  2  0
 68 73  1  0
 69 65  1  0
 69 73  1  0
 70 69  1  0
 71 72  1  0
 71 70  1  0
 72 68  1  0
 73 74  2  0
 74 75  1  0
 76 75  2  0
 77 76  1  0
 78 52  1  0
 78 79  1  0
 78 88  1  0
 79 82  1  0
 80 84  1  0
 80 79  1  0
 81 80  2  0
 84 83  1  0
 86 84  1  0
 86 87  1  0
 86 85  1  0
 88 91  1  1
 88 89  1  0
 90 88  1  0
M  ISO  4   6 100   9 100  50 101  51 101
M  END
>  <TORSDO>  (60) 
F 22

>  <SCORE>  (60) 
-12.669

>  <name>  (60) 
59

>  <ligand_id>  (60) 
59

>  <original_smiles>  (60) 
[H]N=C(C(=O)N1C([H])([H])C([H])([H])C([H])([H])C([H])(n2nc(-c3c([H])c([H])c(Oc4c([H])c([H])c(F)c([H])c4F)c([H])c3[H])c(C(=O)N([H])[H])c2N([H])[H])C1([H])[H])c1sc(C([H])([H])C([H])([H])[H])c(OC([H])([H])C([H])([H])C([H])([H])Oc2c([H])c([H])c3c(c2[H])C([H])([H])N(C(=O)C([H])(N([H])C(=O)C([H])(N([H])C([H])([H])[H])C([H])([H])[H])C(C([H])([H])[H])(C([H])([H])[H])C([H])([H])[H])C([H])(C(=O)N([H])C2([H])c4c([H])c([H])c([H])c([H])c4C([H])([H])C([H])([H])C2([H])[H])C3([H])[H])c1[H]

>  <smiles>  (60) 
[H]N=C(C(=O)N1C([H])([H])C([H])([H])C([H])([H])C([H])(n2nc(-c3c([H])c([H])c(Oc4c([H])c([H])c(F)c([H])c4F)c([H])c3[H])c(C(=O)N([H])[H])c2N([H])[H])C1([H])[H])c1sc(C([H])([H])C([H])([H])[H])c(OC([H])([H])C([H])([H])C([H])([H])Oc2c([H])c([H])c3c(c2[H])C([H])([H])N(C(=O)C([H])(N([H])C(=O)C([H])(N([H])C([H])([H])[H])C([H])([H])[H])C(C([H])([H])[H])(C([H])([H])[H])C([H])([H])[H])C([H])(C(=O)N([H])C2([H])c4c([H])c([H])c([H])c([H])c4C([H])([H])C([H])([H])C2([H])[H])C3([H])[H])c1[H]

$$$$
60:0:0
     RDKit          3D

 94102  0  0  1  0  0  0  0  0999 V2000
  -29.0300  -16.9420   19.3540 C   0  0  0  0  0  3  0  0  0  0  0  0
  -30.1100  -17.9870   21.2610 C   0  0  0  0  0  3  0  0  0  0  0  0
  -28.5420  -18.1970   18.9260 C   0  0  0  0  0  0  0  0  0  0  0  0
  -28.8630  -19.3740   19.6580 C   0  0  0  0  0  0  0  0  0  0  0  0
  -29.7710  -16.8120   20.5450 C   0  0  0  0  0  0  0  0  0  0  0  0
  -29.6820  -19.2660   20.8160 C   0  0  0  0  0  0  0  0  0  0  0  0
  -27.6390  -18.2080   17.7000 C   0  0  0  0  0  1  0  0  0  0  0  0
  -30.6780  -14.5080   20.4930 C   0  0  0  0  0  0  0  0  0  0  0  0
  -30.3950  -12.3320   19.3660 C   0  0  0  0  0  2  0  0  0  0  0  0
  -29.4740  -12.5380   18.1440 C   0  0  0  0  0  2  0  0  0  0  0  0
  -27.9950  -12.4010   18.5520 C   0  0  0  0  0  2  0  0  0  0  0  0
  -27.6390  -13.2410   19.8070 C   0  0  0  0  0  3  0  0  0  0  0  0
  -28.6750  -13.0240   20.9340 C   0  0  0  0  0  2  0  0  0  0  0  0
  -30.0150  -13.3210   20.3890 N   0  0  0  0  0  0  0  0  0  0  0  0
  -31.7950  -14.6980   20.0040 O   0  0  0  0  0  0  0  0  0  0  0  0
  -30.0010  -15.5070   21.0940 N   0  0  0  0  0  0  0  0  0  0  0  0
  -29.2230  -15.1620   21.6380 H   0  0  0  0  0  0  0  0  0  0  0  0
  -25.2270  -13.8630   20.4550 C   0  0  0  0  0  0  0  0  0  0  0  0
  -24.1500  -13.0990   20.8110 C   0  0  0  0  0  0  0  0  0  0  0  0
  -24.6100  -11.7460   20.8140 C   0  0  0  0  0  0  0  0  0  0  0  0
  -26.2760  -12.9760   20.2630 N   0  0  0  0  0  0  0  0  0  0  0  0
  -25.9050  -11.6990   20.5320 N   0  0  0  0  0  0  0  0  0  0  0  0
  -23.8800  -10.4870   21.0140 C   0  0  0  0  0  0  0  0  0  0  0  0
  -24.3020   -9.5300   21.9610 C   0  0  0  0  0  3  0  0  0  0  0  0
  -23.5690   -8.3370   22.1460 C   0  0  0  0  0  3  0  0  0  0  0  0
  -22.4070   -8.0920   21.3790 C   0  0  0  0  0  0  0  0  0  0  0  0
  -22.0060   -9.0390   20.4190 C   0  0  0  0  0  3  0  0  0  0  0  0
  -22.7380  -10.2230   20.2340 C   0  0  0  0  0  3  0  0  0  0  0  0
  -21.6530   -6.9460   21.4660 O   0  0  0  0  0  0  0  0  0  0  0  0
  -21.5930   -6.2110   22.6230 C   0  0  0  0  0  0  0  0  0  0  0  0
  -21.1630   -6.7760   23.8420 C   0  0  0  0  0  3  0  0  0  0  0  0
  -21.0530   -5.9700   24.9920 C   0  0  0  0  0  3  0  0  0  0  0  0
  -21.3600   -4.5990   24.9240 C   0  0  0  0  0  0  0  0  0  0  0  0
  -21.7820   -4.0300   23.7080 C   0  0  0  0  0  3  0  0  0  0  0  0
  -21.8960   -4.8340   22.5600 C   0  0  0  0  0  0  0  0  0  0  0  0
  -22.2840   -4.2790   21.3870 F   0  0  0  0  0  0  0  0  0  0  0  0
  -21.2450   -3.8220   26.0260 F   0  0  0  0  0  0  0  0  0  0  0  0
  -22.7510  -13.5840   21.0450 C   0  0  0  0  0  0  0  0  0  0  0  0
  -22.0020  -12.9090   21.9070 N   0  0  0  0  0  0  0  0  0  0  0  0
  -22.3260  -14.6040   20.5000 O   0  0  0  0  0  0  0  0  0  0  0  0
  -22.3540  -12.0880   22.3770 H   0  0  0  0  0  0  0  0  0  0  0  0
  -21.0630  -13.2230   22.1030 H   0  0  0  0  0  0  0  0  0  0  0  0
  -25.4000  -15.2320   20.2640 N   0  0  0  0  0  0  0  0  0  0  0  0
  -24.6420  -15.8970   20.3640 H   0  0  0  0  0  0  0  0  0  0  0  0
  -26.2700  -15.6670   19.9870 H   0  0  0  0  0  0  0  0  0  0  0  0
  -28.9590  -21.3380   18.0000 C   0  0  0  0  0  1  0  0  0  0  0  0
  -28.3060  -20.7440   19.2560 C   0  0  0  0  0  2  0  0  0  0  0  0
  -29.9670  -20.3960   21.5600 O   0  0  0  0  0  0  0  0  0  0  0  0
  -31.1130  -21.1350   21.1300 C   0  0  0  0  0  2  0  0  0  0  0  0
  -31.0430  -22.6480   21.4810 C   0  0  0  0  0  2  0  0  0  0  0  0
  -30.1770  -23.4970   20.5530 C   0  0  0  0  0  3  0  0  0  0  0  0
  -29.2660  -24.4120   20.9510 C   0  0  0  0  0  3  0  0  0  0  0  0
  -28.3650  -25.2300   20.0290 C   0  0  0  0  0  2  0  0  0  0  0  0
  -28.4400  -26.6540   20.2690 O   0  0  0  0  0  0  0  0  0  0  0  0
  -24.6430  -31.8830   23.2700 C   0  0  0  0  0  0  0  0  0  0  0  0
  -27.2700  -27.3990   20.2130 C   0  0  0  0  0  0  0  0  0  0  0  0
  -23.4340  -30.4820   21.6320 C   0  0  0  0  0  3  0  0  0  0  0  0
  -24.8830  -28.9360   20.2120 C   0  0  0  0  0  0  0  0  0  0  0  0
  -25.9670  -30.8220   21.4420 C   0  0  0  0  0  2  0  0  0  0  0  0
  -26.0450  -29.4500   20.8020 C   0  0  0  0  0  0  0  0  0  0  0  0
  -27.2390  -28.6890   20.8000 C   0  0  0  0  0  3  0  0  0  0  0  0
  -26.0890  -26.9170   19.5990 C   0  0  0  0  0  3  0  0  0  0  0  0
  -24.9010  -27.6690   19.6090 C   0  0  0  0  0  3  0  0  0  0  0  0
  -23.6430  -29.7980   20.2550 C   0  0  0  0  0  2  0  0  0  0  0  0
  -24.6990  -31.0790   22.1710 N   0  0  0  0  0  0  0  0  0  0  0  0
  -23.5610  -32.1620   23.8080 O   0  0  0  0  0  0  0  0  0  0  0  0
  -22.7800  -29.4640   22.5940 C   0  0  0  0  0  0  0  0  0  0  0  0
  -21.4550  -29.2870   22.4640 N   0  0  0  0  0  0  0  0  0  0  0  0
  -23.4600  -28.8380   23.4100 O   0  0  0  0  0  0  0  0  0  0  0  0
  -20.9680  -29.8470   21.7790 H   0  0  0  0  0  0  0  0  0  0  0  0
  -18.0700  -28.1170   22.9650 C   0  0  0  0  0  0  0  0  0  0  0  0
  -20.6290  -28.3570   23.2360 C   0  0  0  0  0  3  0  0  0  0  0  0
  -20.7190  -26.9230   22.6650 C   0  0  0  0  0  2  0  0  0  0  0  0
  -19.6160  -26.6100   21.6480 C   0  0  0  0  0  2  0  0  0  0  0  0
  -18.2350  -26.7670   22.2890 C   0  0  0  0  0  2  0  0  0  0  0  0
  -19.1940  -28.8730   23.3930 C   0  0  0  0  0  0  0  0  0  0  0  0
  -18.9830  -30.1380   23.9820 C   0  0  0  0  0  3  0  0  0  0  0  0
  -17.6830  -30.6480   24.1470 C   0  0  0  0  0  3  0  0  0  0  0  0
  -16.5740  -29.8910   23.7360 C   0  0  0  0  0  3  0  0  0  0  0  0
  -16.7670  -28.6260   23.1520 C   0  0  0  0  0  3  0  0  0  0  0  0
  -25.9290  -32.5120   23.8900 C   0  0  0  0  0  3  0  0  0  0  0  0
  -25.6240  -33.9120   24.2130 N   0  0  0  0  0  0  0  0  0  0  0  0
  -25.9590  -34.9600   23.4470 C   0  0  0  0  0  0  0  0  0  0  0  0
  -26.6270  -34.8480   22.4160 O   0  0  0  0  0  0  0  0  0  0  0  0
  -25.0250  -34.0710   25.0100 H   0  0  0  0  0  0  0  0  0  0  0  0
  -24.2270  -36.7480   23.0910 C   0  0  0  0  0  1  0  0  0  0  0  0
  -25.4730  -36.3500   23.8970 C   0  0  0  0  0  3  0  0  0  0  0  0
  -27.6160  -37.2340   24.7040 C   0  0  0  0  0  1  0  0  0  0  0  0
  -26.5040  -37.4030   23.7720 N   0  0  0  0  0  0  0  0  0  0  0  0
  -26.0990  -38.3220   23.9280 H   0  0  0  0  0  0  0  0  0  0  0  0
  -26.4420  -31.7430   25.1700 C   0  0  1  0  0  0  0  0  0  0  0  0
  -25.3530  -31.5170   26.2430 C   0  0  0  0  0  1  0  0  0  0  0  0
  -27.0180  -30.3620   24.7810 C   0  0  0  0  0  1  0  0  0  0  0  0
  -27.6000  -32.5340   25.8220 C   0  0  0  0  0  1  0  0  0  0  0  0
  1  5  1  0
  3  1  2  0
  3  4  1  0
  4  6  2  0
  5 16  1  0
  5  2  2  0
  6  2  1  0
  6 48  1  0
  7  3  1  0
  8 16  1  0
  9 14  1  0
 10 11  1  0
 10  9  1  0
 12 11  1  0
 12 21  1  0
 12 13  1  0
 14  8  1  0
 14 13  1  0
 15  8  2  0
 16 17  1  0
 18 19  2  0
 19 20  1  0
 19 38  1  0
 20 23  1  0
 21 18  1  0
 21 22  1  0
 22 20  2  0
 23 24  1  0
 24 25  2  0
 26 29  1  0
 26 25  1  0
 27 26  2  0
 28 27  1  0
 28 23  2  0
 29 30  1  0
 30 31  1  0
 31 32  2  0
 33 32  1  0
 33 37  1  0
 34 33  2  0
 35 30  2  0
 35 34  1  0
 36 35  1  0
 38 39  1  0
 39 42  1  0
 39 41  1  0
 40 38  2  0
 43 44  1  0
 43 18  1  0
 45 43  1  0
 46 47  1  0
 47  4  1  0
 49 50  1  0
 49 48  1  0
 51 52  2  0
 51 50  1  0
 53 54  1  0
 53 52  1  0
 55 66  2  0
 56 54  1  0
 56 61  1  0
 57 65  1  0
 57 67  1  0
 58 64  1  0
 58 60  1  0
 59 65  1  0
 60 59  1  0
 61 60  2  0
 62 63  1  0
 62 56  2  0
 63 58  2  0
 64 57  1  0
 65 55  1  0
 67 69  2  0
 68 67  1  0
 70 68  1  0
 71 80  2  0
 71 76  1  0
 72 68  1  0
 72 76  1  0
 73 72  1  0
 74 75  1  0
 74 73  1  0
 75 71  1  0
 76 77  2  0
 77 78  1  0
 79 78  2  0
 80 79  1  0
 81 55  1  0
 81 82  1  0
 81 91  1  0
 82 85  1  0
 83 87  1  0
 83 82  1  0
 84 83  2  0
 87 86  1  0
 89 87  1  0
 89 90  1  0
 89 88  1  0
 91 94  1  1
 91 92  1  0
 93 91  1  0
M  ISO  4   8 100  16 100  53 101  54 101
M  END
>  <TORSDO>  (61) 
F 22

>  <SCORE>  (61) 
-13.325

>  <name>  (61) 
60

>  <ligand_id>  (61) 
60

>  <original_smiles>  (61) 
[H]C(=C([H])C([H])([H])C([H])([H])Oc1c([H])c(N([H])C(=O)N2C([H])([H])C([H])([H])C([H])([H])C([H])(n3nc(-c4c([H])c([H])c(Oc5c([H])c([H])c(F)c([H])c5F)c([H])c4[H])c(C(=O)N([H])[H])c3N([H])[H])C2([H])[H])c([H])c(C([H])([H])[H])c1C([H])([H])C([H])([H])[H])C([H])([H])Oc1c([H])c([H])c2c(c1[H])C([H])([H])N(C(=O)C([H])(N([H])C(=O)C([H])(N([H])C([H])([H])[H])C([H])([H])[H])C(C([H])([H])[H])(C([H])([H])[H])C([H])([H])[H])C([H])(C(=O)N([H])C1([H])c3c([H])c([H])c([H])c([H])c3C([H])([H])C([H])([H])C1([H])[H])C2([H])[H]

>  <smiles>  (61) 
[H]C(=C([H])C([H])([H])C([H])([H])Oc1c([H])c(N([H])C(=O)N2C([H])([H])C([H])([H])C([H])([H])C([H])(n3nc(-c4c([H])c([H])c(Oc5c([H])c([H])c(F)c([H])c5F)c([H])c4[H])c(C(=O)N([H])[H])c3N([H])[H])C2([H])[H])c([H])c(C([H])([H])[H])c1C([H])([H])C([H])([H])[H])C([H])([H])Oc1c([H])c([H])c2c(c1[H])C([H])([H])N(C(=O)C([H])(N([H])C(=O)C([H])(N([H])C([H])([H])[H])C([H])([H])[H])C(C([H])([H])[H])(C([H])([H])[H])C([H])([H])[H])C([H])(C(=O)N([H])C1([H])c3c([H])c([H])c([H])c([H])c3C([H])([H])C([H])([H])C1([H])[H])C2([H])[H]

$$$$
61:0:0
     RDKit          3D

 91 99  0  0  1  0  0  0  0  0999 V2000
  -30.2570  -21.9390   19.6440 C   0  0  0  0  0  3  0  0  0  0  0  0
  -29.3230  -22.7340   20.2380 C   0  0  0  0  0  3  0  0  0  0  0  0
  -29.9840  -19.4040   20.3830 C   0  0  0  0  0  3  0  0  0  0  0  0
  -31.1580  -20.0560   18.3650 C   0  0  0  0  0  3  0  0  0  0  0  0
  -30.9780  -17.6940   18.9540 C   0  0  0  0  0  3  0  0  0  0  0  0
  -30.4400  -20.4480   19.5150 C   0  0  0  0  0  0  0  0  0  0  0  0
  -30.2710  -18.0140   20.1320 C   0  0  0  0  0  0  0  0  0  0  0  0
  -31.4240  -18.7040   18.0810 C   0  0  0  0  0  0  0  0  0  0  0  0
  -32.2000  -18.3300   16.8340 C   0  0  0  0  0  1  0  0  0  0  0  0
  -29.8340  -16.9550   21.1100 C   0  0  0  0  0  3  0  0  0  0  0  0
  -29.9590  -15.5940   21.2630 C   0  0  0  0  0  3  0  0  0  0  0  0
  -30.6560  -14.5620   20.4610 C   0  0  0  0  0  0  0  0  0  0  0  0
  -30.3780  -12.3970   19.2610 C   0  0  0  0  0  2  0  0  0  0  0  0
  -29.4220  -12.5920   18.0640 C   0  0  0  0  0  2  0  0  0  0  0  0
  -27.9490  -12.4420   18.4950 C   0  0  0  0  0  2  0  0  0  0  0  0
  -27.6220  -13.2550   19.7750 C   0  0  0  0  0  3  0  0  0  0  0  0
  -28.6820  -13.0000   20.8660 C   0  0  0  0  0  2  0  0  0  0  0  0
  -29.9980  -13.3670   20.3090 N   0  0  0  0  0  0  0  0  0  0  0  0
  -31.7660  -14.7370   19.9470 O   0  0  0  0  0  0  0  0  0  0  0  0
  -25.2290  -13.8740   20.4830 C   0  0  0  0  0  0  0  0  0  0  0  0
  -24.1580  -13.1080   20.8580 C   0  0  0  0  0  0  0  0  0  0  0  0
  -24.6140  -11.7550   20.8370 C   0  0  0  0  0  0  0  0  0  0  0  0
  -26.2700  -12.9870   20.2560 N   0  0  0  0  0  0  0  0  0  0  0  0
  -25.9040  -11.7080   20.5260 N   0  0  0  0  0  0  0  0  0  0  0  0
  -23.8840  -10.4980   21.0380 C   0  0  0  0  0  0  0  0  0  0  0  0
  -24.3290   -9.5250   21.9610 C   0  0  0  0  0  3  0  0  0  0  0  0
  -23.6000   -8.3310   22.1500 C   0  0  0  0  0  3  0  0  0  0  0  0
  -22.4130   -8.1010   21.4140 C   0  0  0  0  0  0  0  0  0  0  0  0
  -21.9880   -9.0620   20.4800 C   0  0  0  0  0  3  0  0  0  0  0  0
  -22.7170  -10.2470   20.2900 C   0  0  0  0  0  3  0  0  0  0  0  0
  -21.6560   -6.9590   21.5110 O   0  0  0  0  0  0  0  0  0  0  0  0
  -21.6370   -6.2020   22.6560 C   0  0  0  0  0  0  0  0  0  0  0  0
  -21.2620   -6.7470   23.9030 C   0  0  0  0  0  3  0  0  0  0  0  0
  -21.1900   -5.9190   25.0410 C   0  0  0  0  0  3  0  0  0  0  0  0
  -21.4800   -4.5450   24.9320 C   0  0  0  0  0  0  0  0  0  0  0  0
  -21.8480   -3.9990   23.6900 C   0  0  0  0  0  3  0  0  0  0  0  0
  -21.9230   -4.8250   22.5540 C   0  0  0  0  0  0  0  0  0  0  0  0
  -22.2580   -4.2890   21.3550 F   0  0  0  0  0  0  0  0  0  0  0  0
  -21.4040   -3.7480   26.0230 F   0  0  0  0  0  0  0  0  0  0  0  0
  -22.7630  -13.5940   21.1310 C   0  0  0  0  0  0  0  0  0  0  0  0
  -22.0360  -12.9070   22.0040 N   0  0  0  0  0  0  0  0  0  0  0  0
  -22.3280  -14.6180   20.6050 O   0  0  0  0  0  0  0  0  0  0  0  0
  -22.4030  -12.0820   22.4520 H   0  0  0  0  0  0  0  0  0  0  0  0
  -21.1000  -13.2130   22.2290 H   0  0  0  0  0  0  0  0  0  0  0  0
  -25.3990  -15.2430   20.3000 N   0  0  0  0  0  0  0  0  0  0  0  0
  -24.6370  -15.9030   20.4150 H   0  0  0  0  0  0  0  0  0  0  0  0
  -26.2620  -15.6790   19.9970 H   0  0  0  0  0  0  0  0  0  0  0  0
  -29.4210  -24.2430   20.1630 C   0  0  0  0  0  0  0  0  0  0  0  0
  -30.4740  -24.8090   19.8480 O   0  0  0  0  0  0  0  0  0  0  0  0
  -28.1780  -25.1330   20.4720 C   0  0  0  0  0  2  0  0  0  0  0  0
  -28.3750  -26.5630   20.2070 O   0  0  0  0  0  0  0  0  0  0  0  0
  -24.6060  -31.8780   23.2370 C   0  0  0  0  0  0  0  0  0  0  0  0
  -27.2320  -27.3590   20.1870 C   0  0  0  0  0  0  0  0  0  0  0  0
  -23.4000  -30.4750   21.5960 C   0  0  0  0  0  3  0  0  0  0  0  0
  -24.8520  -28.9270   20.1790 C   0  0  0  0  0  0  0  0  0  0  0  0
  -25.9340  -30.8100   21.4090 C   0  0  0  0  0  2  0  0  0  0  0  0
  -26.0180  -29.4330   20.7710 C   0  0  0  0  0  0  0  0  0  0  0  0
  -27.2100  -28.6580   20.7670 C   0  0  0  0  0  3  0  0  0  0  0  0
  -26.0450  -26.8950   19.5710 C   0  0  0  0  0  3  0  0  0  0  0  0
  -24.8660  -27.6630   19.5700 C   0  0  0  0  0  3  0  0  0  0  0  0
  -23.6140  -29.7960   20.2180 C   0  0  0  0  0  2  0  0  0  0  0  0
  -24.6640  -31.0700   22.1380 N   0  0  0  0  0  0  0  0  0  0  0  0
  -23.5220  -32.1540   23.7730 O   0  0  0  0  0  0  0  0  0  0  0  0
  -22.7390  -29.4590   22.5580 C   0  0  0  0  0  0  0  0  0  0  0  0
  -21.4140  -29.2760   22.4250 N   0  0  0  0  0  0  0  0  0  0  0  0
  -23.4170  -28.8400   23.3830 O   0  0  0  0  0  0  0  0  0  0  0  0
  -20.9270  -29.8280   21.7330 H   0  0  0  0  0  0  0  0  0  0  0  0
  -18.0450  -28.0560   22.8930 C   0  0  0  0  0  0  0  0  0  0  0  0
  -20.5960  -28.3400   23.1960 C   0  0  0  0  0  3  0  0  0  0  0  0
  -20.7210  -26.9030   22.6400 C   0  0  0  0  0  2  0  0  0  0  0  0
  -19.6360  -26.5570   21.6150 C   0  0  0  0  0  2  0  0  0  0  0  0
  -18.2430  -26.6990   22.2370 C   0  0  0  0  0  2  0  0  0  0  0  0
  -19.1510  -28.8330   23.3290 C   0  0  0  0  0  0  0  0  0  0  0  0
  -18.9140  -30.1010   23.9010 C   0  0  0  0  0  3  0  0  0  0  0  0
  -17.6030  -30.5920   24.0450 C   0  0  0  0  0  3  0  0  0  0  0  0
  -16.5110  -29.8120   23.6260 C   0  0  0  0  0  3  0  0  0  0  0  0
  -16.7330  -28.5470   23.0540 C   0  0  0  0  0  3  0  0  0  0  0  0
  -25.8900  -32.5090   23.8560 C   0  0  0  0  0  3  0  0  0  0  0  0
  -26.4130  -31.7340   25.1280 C   0  0  1  0  0  0  0  0  0  0  0  0
  -25.3270  -31.4930   26.2010 C   0  0  0  0  0  1  0  0  0  0  0  0
  -26.9950  -30.3570   24.7300 C   0  0  0  0  0  1  0  0  0  0  0  0
  -27.5660  -32.5270   25.7880 C   0  0  0  0  0  1  0  0  0  0  0  0
  -25.5820  -33.9060   24.1900 N   0  0  0  0  0  0  0  0  0  0  0  0
  -25.9100  -34.9610   23.4300 C   0  0  0  0  0  0  0  0  0  0  0  0
  -26.5730  -34.8590   22.3950 O   0  0  0  0  0  0  0  0  0  0  0  0
  -24.9960  -34.0620   24.9970 H   0  0  0  0  0  0  0  0  0  0  0  0
  -24.1770  -36.7520   23.0880 C   0  0  0  0  0  1  0  0  0  0  0  0
  -25.4230  -36.3480   23.8920 C   0  0  0  0  0  3  0  0  0  0  0  0
  -27.5620  -37.2340   24.7120 C   0  0  0  0  0  1  0  0  0  0  0  0
  -26.4530  -37.4010   23.7760 N   0  0  0  0  0  0  0  0  0  0  0  0
  -26.0460  -38.3200   23.9290 H   0  0  0  0  0  0  0  0  0  0  0  0
  1  2  2  0
  4  6  1  0
  5  7  2  0
  6  1  1  0
  6  3  2  0
  7  3  1  0
  7 10  1  0
  8  4  2  0
  8  5  1  0
  9  8  1  0
 10 11  2  0
 12 11  1  0
 13 18  1  0
 14 15  1  0
 14 13  1  0
 16 15  1  0
 16 23  1  0
 16 17  1  0
 18 12  1  0
 18 17  1  0
 19 12  2  0
 20 21  2  0
 21 40  1  0
 22 21  1  0
 22 25  1  0
 23 20  1  0
 23 24  1  0
 24 22  2  0
 25 26  1  0
 26 27  2  0
 28 31  1  0
 28 27  1  0
 29 28  2  0
 30 29  1  0
 30 25  2  0
 31 32  1  0
 32 33  1  0
 33 34  2  0
 35 34  1  0
 35 39  1  0
 36 35  2  0
 37 32  2  0
 37 36  1  0
 38 37  1  0
 40 41  1  0
 41 44  1  0
 41 43  1  0
 42 40  2  0
 45 46  1  0
 45 20  1  0
 47 45  1  0
 48  2  1  0
 48 50  1  0
 49 48  2  0
 51 50  1  0
 52 63  2  0
 53 51  1  0
 53 58  1  0
 54 62  1  0
 54 64  1  0
 55 61  1  0
 55 57  1  0
 56 62  1  0
 57 56  1  0
 58 57  2  0
 59 53  2  0
 60 59  1  0
 60 55  2  0
 61 54  1  0
 62 52  1  0
 64 66  2  0
 65 64  1  0
 67 65  1  0
 68 77  2  0
 68 73  1  0
 69 65  1  0
 69 73  1  0
 70 69  1  0
 71 72  1  0
 71 70  1  0
 72 68  1  0
 73 74  2  0
 74 75  1  0
 76 75  2  0
 77 76  1  0
 78 52  1  0
 78 83  1  0
 78 79  1  0
 79 82  1  1
 79 80  1  0
 81 79  1  0
 83 86  1  0
 84 88  1  0
 84 83  1  0
 85 84  2  0
 88 87  1  0
 90 88  1  0
 90 91  1  0
 90 89  1  0
M  ISO  4  11 100  12 100  50 101  51 101
M  END
>  <TORSDO>  (62) 
F 20

>  <SCORE>  (62) 
-13.951

>  <name>  (62) 
61

>  <ligand_id>  (62) 
61

>  <original_smiles>  (62) 
[H]C(C(=O)N1C([H])([H])C([H])([H])C([H])([H])C([H])(n2nc(-c3c([H])c([H])c(Oc4c([H])c([H])c(F)c([H])c4F)c([H])c3[H])c(C(=O)N([H])[H])c2N([H])[H])C1([H])[H])=C([H])c1c([H])c(C([H])=C([H])C(=O)C([H])([H])Oc2c([H])c([H])c3c(c2[H])C([H])([H])N(C(=O)C([H])(N([H])C(=O)C([H])(N([H])C([H])([H])[H])C([H])([H])[H])C(C([H])([H])[H])(C([H])([H])[H])C([H])([H])[H])C([H])(C(=O)N([H])C2([H])c4c([H])c([H])c([H])c([H])c4C([H])([H])C([H])([H])C2([H])[H])C3([H])[H])c([H])c(C([H])([H])[H])c1[H]

>  <smiles>  (62) 
[H]C(C(=O)N1C([H])([H])C([H])([H])C([H])([H])C([H])(n2nc(-c3c([H])c([H])c(Oc4c([H])c([H])c(F)c([H])c4F)c([H])c3[H])c(C(=O)N([H])[H])c2N([H])[H])C1([H])[H])=C([H])c1c([H])c(C([H])=C([H])C(=O)C([H])([H])Oc2c([H])c([H])c3c(c2[H])C([H])([H])N(C(=O)C([H])(N([H])C(=O)C([H])(N([H])C([H])([H])[H])C([H])([H])[H])C(C([H])([H])[H])(C([H])([H])[H])C([H])([H])[H])C([H])(C(=O)N([H])C2([H])c4c([H])c([H])c([H])c([H])c4C([H])([H])C([H])([H])C2([H])[H])C3([H])[H])c([H])c(C([H])([H])[H])c1[H]

$$$$
62:0:0
     RDKit          3D

 91 99  0  0  1  0  0  0  0  0999 V2000
  -30.1190  -21.9910   21.1020 C   0  0  0  0  0  3  0  0  0  0  0  0
  -29.6830  -23.2120   21.5380 C   0  0  0  0  0  3  0  0  0  0  0  0
  -30.8670  -18.2410   23.2270 C   0  0  0  0  0  3  0  0  0  0  0  0
  -30.9300  -19.4650   23.9290 C   0  0  0  0  0  3  0  0  0  0  0  0
  -30.4320  -19.4850   21.1930 C   0  0  0  0  0  3  0  0  0  0  0  0
  -30.6870  -18.2340   21.8300 C   0  0  0  0  0  0  0  0  0  0  0  0
  -30.4440  -20.7410   21.8820 C   0  0  0  0  0  0  0  0  0  0  0  0
  -30.7720  -20.7070   23.2710 C   0  0  0  0  0  0  0  0  0  0  0  0
  -31.0680  -21.9620   24.0830 C   0  0  0  0  0  1  0  0  0  0  0  0
  -30.8410  -16.9690   21.0360 C   0  0  0  0  0  3  0  0  0  0  0  0
  -30.5170  -15.6740   21.3320 C   0  0  0  0  0  3  0  0  0  0  0  0
  -30.9450  -14.5880   20.4210 C   0  0  0  0  0  0  0  0  0  0  0  0
  -30.5160  -12.4350   19.2480 C   0  0  0  0  0  2  0  0  0  0  0  0
  -29.6020  -12.6460   18.0230 C   0  0  0  0  0  2  0  0  0  0  0  0
  -28.1260  -12.5080   18.4390 C   0  0  0  0  0  2  0  0  0  0  0  0
  -27.7900  -13.3530   19.7010 C   0  0  0  0  0  3  0  0  0  0  0  0
  -28.8440  -13.1880   20.8230 C   0  0  0  0  0  2  0  0  0  0  0  0
  -30.1800  -13.4580   20.2660 N   0  0  0  0  0  0  0  0  0  0  0  0
  -32.0010  -14.7030   19.7910 O   0  0  0  0  0  0  0  0  0  0  0  0
  -25.3880  -13.9510   20.4090 C   0  0  0  0  0  0  0  0  0  0  0  0
  -24.3200  -13.1830   20.7880 C   0  0  0  0  0  0  0  0  0  0  0  0
  -24.7840  -11.8310   20.7720 C   0  0  0  0  0  0  0  0  0  0  0  0
  -26.4340  -13.0720   20.1820 N   0  0  0  0  0  0  0  0  0  0  0  0
  -26.0750  -11.7920   20.4640 N   0  0  0  0  0  0  0  0  0  0  0  0
  -24.0570  -10.5690   20.9730 C   0  0  0  0  0  0  0  0  0  0  0  0
  -24.4880   -9.6120   21.9180 C   0  0  0  0  0  3  0  0  0  0  0  0
  -23.7600   -8.4170   22.1090 C   0  0  0  0  0  3  0  0  0  0  0  0
  -22.5890   -8.1680   21.3520 C   0  0  0  0  0  0  0  0  0  0  0  0
  -22.1760   -9.1150   20.3970 C   0  0  0  0  0  3  0  0  0  0  0  0
  -22.9040  -10.3030   20.2050 C   0  0  0  0  0  3  0  0  0  0  0  0
  -21.8360   -7.0220   21.4480 O   0  0  0  0  0  0  0  0  0  0  0  0
  -21.7790   -6.2940   22.6100 C   0  0  0  0  0  0  0  0  0  0  0  0
  -21.3400   -6.8650   23.8250 C   0  0  0  0  0  3  0  0  0  0  0  0
  -21.2270   -6.0600   24.9790 C   0  0  0  0  0  3  0  0  0  0  0  0
  -21.5480   -4.6910   24.9180 C   0  0  0  0  0  0  0  0  0  0  0  0
  -21.9840   -4.1230   23.7070 C   0  0  0  0  0  3  0  0  0  0  0  0
  -22.0950   -4.9200   22.5550 C   0  0  0  0  0  0  0  0  0  0  0  0
  -22.4910   -4.3640   21.3880 F   0  0  0  0  0  0  0  0  0  0  0  0
  -21.4380   -3.9190   26.0250 F   0  0  0  0  0  0  0  0  0  0  0  0
  -22.9210  -13.6640   21.0520 C   0  0  0  0  0  0  0  0  0  0  0  0
  -22.1840  -12.9870   21.9250 N   0  0  0  0  0  0  0  0  0  0  0  0
  -22.4870  -14.6840   20.5170 O   0  0  0  0  0  0  0  0  0  0  0  0
  -22.5420  -12.1710   22.3960 H   0  0  0  0  0  0  0  0  0  0  0  0
  -21.2440  -13.2990   22.1270 H   0  0  0  0  0  0  0  0  0  0  0  0
  -25.5570  -15.3180   20.2180 N   0  0  0  0  0  0  0  0  0  0  0  0
  -24.8180  -15.9980   20.3570 H   0  0  0  0  0  0  0  0  0  0  0  0
  -26.4320  -15.7370   19.9230 H   0  0  0  0  0  0  0  0  0  0  0  0
  -29.4350  -24.3810   20.6270 C   0  0  0  0  0  0  0  0  0  0  0  0
  -29.9720  -24.4760   19.5180 O   0  0  0  0  0  0  0  0  0  0  0  0
  -28.4680  -25.5160   21.0970 C   0  0  0  0  0  2  0  0  0  0  0  0
  -28.5080  -26.7120   20.2660 O   0  0  0  0  0  0  0  0  0  0  0  0
  -24.6150  -31.8970   23.2710 C   0  0  0  0  0  0  0  0  0  0  0  0
  -27.3430  -27.4620   20.2460 C   0  0  0  0  0  0  0  0  0  0  0  0
  -23.4410  -30.4870   21.6100 C   0  0  0  0  0  3  0  0  0  0  0  0
  -24.9310  -28.9550   20.2070 C   0  0  0  0  0  0  0  0  0  0  0  0
  -25.9640  -30.8730   21.4340 C   0  0  0  0  0  2  0  0  0  0  0  0
  -26.0790  -29.4960   20.8020 C   0  0  0  0  0  0  0  0  0  0  0  0
  -27.2890  -28.7570   20.8180 C   0  0  0  0  0  3  0  0  0  0  0  0
  -26.1800  -26.9410   19.6390 C   0  0  0  0  0  3  0  0  0  0  0  0
  -24.9760  -27.6770   19.6210 C   0  0  0  0  0  3  0  0  0  0  0  0
  -23.6750  -29.7980   20.2370 C   0  0  0  0  0  2  0  0  0  0  0  0
  -24.6920  -31.1010   22.1650 N   0  0  0  0  0  0  0  0  0  0  0  0
  -23.5270  -32.1570   23.8030 O   0  0  0  0  0  0  0  0  0  0  0  0
  -22.7840  -29.4660   22.5670 C   0  0  0  0  0  0  0  0  0  0  0  0
  -21.4600  -29.2810   22.4310 N   0  0  0  0  0  0  0  0  0  0  0  0
  -23.4640  -28.8400   23.3860 O   0  0  0  0  0  0  0  0  0  0  0  0
  -20.9760  -29.8360   21.7380 H   0  0  0  0  0  0  0  0  0  0  0  0
  -18.0880  -28.0620   22.8930 C   0  0  0  0  0  0  0  0  0  0  0  0
  -20.6420  -28.3360   23.1910 C   0  0  0  0  0  3  0  0  0  0  0  0
  -20.7610  -26.9080   22.6060 C   0  0  0  0  0  2  0  0  0  0  0  0
  -19.6690  -26.5820   21.5820 C   0  0  0  0  0  2  0  0  0  0  0  0
  -18.2800  -26.7160   22.2130 C   0  0  0  0  0  2  0  0  0  0  0  0
  -19.1970  -28.8300   23.3370 C   0  0  0  0  0  0  0  0  0  0  0  0
  -18.9640  -30.0870   23.9330 C   0  0  0  0  0  3  0  0  0  0  0  0
  -17.6540  -30.5770   24.0900 C   0  0  0  0  0  3  0  0  0  0  0  0
  -16.5590  -29.8070   23.6580 C   0  0  0  0  0  3  0  0  0  0  0  0
  -16.7780  -28.5510   23.0660 C   0  0  0  0  0  3  0  0  0  0  0  0
  -25.8880  -32.5370   23.9120 C   0  0  0  0  0  3  0  0  0  0  0  0
  -26.3770  -31.7790   25.2070 C   0  0  1  0  0  0  0  0  0  0  0  0
  -25.2590  -31.5610   26.2520 C   0  0  0  0  0  1  0  0  0  0  0  0
  -26.9600  -30.3960   24.8420 C   0  0  0  0  0  1  0  0  0  0  0  0
  -27.5180  -32.5750   25.8810 C   0  0  0  0  0  1  0  0  0  0  0  0
  -25.5730  -33.9400   24.2150 N   0  0  0  0  0  0  0  0  0  0  0  0
  -25.9320  -34.9820   23.4490 C   0  0  0  0  0  0  0  0  0  0  0  0
  -26.6280  -34.8620   22.4370 O   0  0  0  0  0  0  0  0  0  0  0  0
  -24.9480  -34.1060   24.9920 H   0  0  0  0  0  0  0  0  0  0  0  0
  -24.2240  -36.7810   23.0190 C   0  0  0  0  0  1  0  0  0  0  0  0
  -25.4370  -36.3780   23.8740 C   0  0  0  0  0  3  0  0  0  0  0  0
  -27.5510  -37.2610   24.7590 C   0  0  0  0  0  1  0  0  0  0  0  0
  -26.4810  -37.4230   23.7790 N   0  0  0  0  0  0  0  0  0  0  0  0
  -26.0750  -38.3470   23.9030 H   0  0  0  0  0  0  0  0  0  0  0  0
  1  2  2  0
  1  7  1  0
  3  4  1  0
  5  6  1  0
  5  7  2  0
  6  3  2  0
  7  8  1  0
  8  4  2  0
  8  9  1  0
 10 11  2  0
 10  6  1  0
 12 11  1  0
 13 18  1  0
 14 15  1  0
 14 13  1  0
 16 15  1  0
 16 23  1  0
 16 17  1  0
 18 12  1  0
 18 17  1  0
 19 12  2  0
 20 21  2  0
 21 40  1  0
 22 21  1  0
 22 25  1  0
 23 20  1  0
 23 24  1  0
 24 22  2  0
 25 26  1  0
 26 27  2  0
 28 31  1  0
 28 27  1  0
 29 28  2  0
 30 29  1  0
 30 25  2  0
 31 32  1  0
 32 33  1  0
 33 34  2  0
 35 34  1  0
 35 39  1  0
 36 35  2  0
 37 32  2  0
 37 36  1  0
 38 37  1  0
 40 41  1  0
 41 44  1  0
 41 43  1  0
 42 40  2  0
 45 46  1  0
 45 20  1  0
 47 45  1  0
 48 50  1  0
 48  2  1  0
 49 48  2  0
 51 50  1  0
 52 63  2  0
 53 51  1  0
 53 58  1  0
 54 62  1  0
 54 64  1  0
 55 61  1  0
 55 57  1  0
 56 62  1  0
 57 58  2  0
 57 56  1  0
 59 53  2  0
 60 59  1  0
 60 55  2  0
 61 54  1  0
 62 52  1  0
 64 66  2  0
 65 64  1  0
 67 65  1  0
 68 77  2  0
 68 73  1  0
 69 65  1  0
 69 73  1  0
 70 69  1  0
 71 72  1  0
 71 70  1  0
 72 68  1  0
 73 74  2  0
 74 75  1  0
 76 75  2  0
 77 76  1  0
 78 52  1  0
 78 83  1  0
 78 79  1  0
 79 82  1  1
 79 80  1  0
 81 79  1  0
 83 86  1  0
 84 88  1  0
 84 83  1  0
 85 84  2  0
 88 87  1  0
 90 88  1  0
 90 91  1  0
 90 89  1  0
M  ISO  4  11 100  12 100  50 101  51 101
M  END
>  <TORSDO>  (63) 
F 20

>  <SCORE>  (63) 
-13.586

>  <name>  (63) 
62

>  <ligand_id>  (63) 
62

>  <original_smiles>  (63) 
[H]C(C(=O)N1C([H])([H])C([H])([H])C([H])([H])C([H])(n2nc(-c3c([H])c([H])c(Oc4c([H])c([H])c(F)c([H])c4F)c([H])c3[H])c(C(=O)N([H])[H])c2N([H])[H])C1([H])[H])=C([H])c1c([H])c([H])c(C([H])([H])[H])c(C([H])=C([H])C(=O)C([H])([H])Oc2c([H])c([H])c3c(c2[H])C([H])([H])N(C(=O)C([H])(N([H])C(=O)C([H])(N([H])C([H])([H])[H])C([H])([H])[H])C(C([H])([H])[H])(C([H])([H])[H])C([H])([H])[H])C([H])(C(=O)N([H])C2([H])c4c([H])c([H])c([H])c([H])c4C([H])([H])C([H])([H])C2([H])[H])C3([H])[H])c1[H]

>  <smiles>  (63) 
[H]C(C(=O)N1C([H])([H])C([H])([H])C([H])([H])C([H])(n2nc(-c3c([H])c([H])c(Oc4c([H])c([H])c(F)c([H])c4F)c([H])c3[H])c(C(=O)N([H])[H])c2N([H])[H])C1([H])[H])=C([H])c1c([H])c([H])c(C([H])([H])[H])c(C([H])=C([H])C(=O)C([H])([H])Oc2c([H])c([H])c3c(c2[H])C([H])([H])N(C(=O)C([H])(N([H])C(=O)C([H])(N([H])C([H])([H])[H])C([H])([H])[H])C(C([H])([H])[H])(C([H])([H])[H])C([H])([H])[H])C([H])(C(=O)N([H])C2([H])c4c([H])c([H])c([H])c([H])c4C([H])([H])C([H])([H])C2([H])[H])C3([H])[H])c1[H]

$$$$
63:0:0
     RDKit          3D

 92100  0  0  1  0  0  0  0  0999 V2000
  -28.1400  -18.9210   20.7450 C   0  0  0  0  0  3  0  0  0  0  0  0
  -28.6090  -17.5820   20.8220 C   0  0  0  0  0  3  0  0  0  0  0  0
  -30.2930  -19.6390   19.9880 C   0  0  0  0  0  3  0  0  0  0  0  0
  -28.9730  -20.0040   20.3680 C   0  0  0  0  0  0  0  0  0  0  0  0
  -29.9500  -17.2110   20.5380 C   0  0  0  0  0  0  0  0  0  0  0  0
  -30.7850  -18.2910   20.0930 C   0  0  0  0  0  0  0  0  0  0  0  0
  -32.2570  -18.0630   19.7930 C   0  0  0  0  0  1  0  0  0  0  0  0
  -30.3910  -15.7890   20.9550 C   0  0  0  0  0  0  0  0  0  0  0  0
  -30.3360  -15.5160   22.1940 N   0  0  0  0  0  0  0  0  0  0  0  0
  -29.9990  -16.3140   22.7200 H   0  0  0  0  0  0  0  0  0  0  0  0
  -30.9050  -14.7010   19.9420 C   0  0  0  0  0  0  0  0  0  0  0  0
  -30.5750  -12.5110   18.7950 C   0  0  0  0  0  2  0  0  0  0  0  0
  -29.5420  -12.6680   17.6570 C   0  0  0  0  0  2  0  0  0  0  0  0
  -28.1050  -12.4950   18.1840 C   0  0  0  0  0  2  0  0  0  0  0  0
  -27.8460  -13.3200   19.4710 C   0  0  0  0  0  3  0  0  0  0  0  0
  -28.9780  -13.1090   20.4990 C   0  0  0  0  0  2  0  0  0  0  0  0
  -30.2510  -13.4910   19.8580 N   0  0  0  0  0  0  0  0  0  0  0  0
  -31.9250  -14.9160   19.2770 O   0  0  0  0  0  0  0  0  0  0  0  0
  -25.5220  -13.9100   20.3950 C   0  0  0  0  0  0  0  0  0  0  0  0
  -24.4810  -13.1310   20.8230 C   0  0  0  0  0  0  0  0  0  0  0  0
  -24.9250  -11.7790   20.7050 C   0  0  0  0  0  0  0  0  0  0  0  0
  -26.5350  -13.0320   20.0460 N   0  0  0  0  0  0  0  0  0  0  0  0
  -26.1860  -11.7430   20.2880 N   0  0  0  0  0  0  0  0  0  0  0  0
  -24.2040  -10.5150   20.9070 C   0  0  0  0  0  0  0  0  0  0  0  0
  -24.6470   -9.5530   21.8400 C   0  0  0  0  0  3  0  0  0  0  0  0
  -23.9260   -8.3550   22.0300 C   0  0  0  0  0  3  0  0  0  0  0  0
  -22.7480   -8.1090   21.2840 C   0  0  0  0  0  0  0  0  0  0  0  0
  -22.3240   -9.0610   20.3390 C   0  0  0  0  0  3  0  0  0  0  0  0
  -23.0460  -10.2500   20.1480 C   0  0  0  0  0  3  0  0  0  0  0  0
  -21.9970   -6.9630   21.3830 O   0  0  0  0  0  0  0  0  0  0  0  0
  -21.8800   -6.2780   22.5650 C   0  0  0  0  0  0  0  0  0  0  0  0
  -21.3670   -6.8870   23.7310 C   0  0  0  0  0  3  0  0  0  0  0  0
  -21.1990   -6.1270   24.9070 C   0  0  0  0  0  3  0  0  0  0  0  0
  -21.5340   -4.7600   24.9150 C   0  0  0  0  0  0  0  0  0  0  0  0
  -22.0400   -4.1500   23.7540 C   0  0  0  0  0  3  0  0  0  0  0  0
  -22.2090   -4.9070   22.5810 C   0  0  0  0  0  0  0  0  0  0  0  0
  -22.6770   -4.3100   21.4590 F   0  0  0  0  0  0  0  0  0  0  0  0
  -21.3660   -4.0290   26.0420 F   0  0  0  0  0  0  0  0  0  0  0  0
  -23.1150  -13.6080   21.2250 C   0  0  0  0  0  0  0  0  0  0  0  0
  -22.4600  -12.8940   22.1350 N   0  0  0  0  0  0  0  0  0  0  0  0
  -22.6380  -14.6460   20.7680 O   0  0  0  0  0  0  0  0  0  0  0  0
  -22.8590  -12.0520   22.5250 H   0  0  0  0  0  0  0  0  0  0  0  0
  -21.5470  -13.1930   22.4470 H   0  0  0  0  0  0  0  0  0  0  0  0
  -25.6840  -15.2850   20.2530 N   0  0  0  0  0  0  0  0  0  0  0  0
  -24.9340  -15.9400   20.4440 H   0  0  0  0  0  0  0  0  0  0  0  0
  -26.4930  -15.7220   19.8310 H   0  0  0  0  0  0  0  0  0  0  0  0
  -28.4130  -21.4210   20.4430 C   0  0  0  0  0  3  0  0  0  0  0  0
  -28.8200  -22.6230   19.9180 C   0  0  0  0  0  3  0  0  0  0  0  0
  -28.1230  -23.9500   20.2180 C   0  0  0  0  0  0  0  0  0  0  0  0
  -27.3570  -24.0600   21.1830 O   0  0  0  0  0  0  0  0  0  0  0  0
  -28.3360  -25.2210   19.3070 C   0  0  0  0  0  2  0  0  0  0  0  0
  -28.2370  -26.5430   19.9650 O   0  0  0  0  0  0  0  0  0  0  0  0
  -24.5820  -31.8420   23.1560 C   0  0  0  0  0  0  0  0  0  0  0  0
  -27.0810  -27.3300   19.9500 C   0  0  0  0  0  0  0  0  0  0  0  0
  -23.3120  -30.4540   21.5540 C   0  0  0  0  0  3  0  0  0  0  0  0
  -24.7050  -28.9160   20.0560 C   0  0  0  0  0  0  0  0  0  0  0  0
  -25.8380  -30.7850   21.2670 C   0  0  0  0  0  2  0  0  0  0  0  0
  -25.8930  -29.4120   20.6060 C   0  0  0  0  0  0  0  0  0  0  0  0
  -27.0790  -28.6290   20.5440 C   0  0  0  0  0  3  0  0  0  0  0  0
  -25.8660  -26.8730   19.3920 C   0  0  0  0  0  3  0  0  0  0  0  0
  -24.6920  -27.6510   19.4440 C   0  0  0  0  0  3  0  0  0  0  0  0
  -23.4690  -29.7860   20.1610 C   0  0  0  0  0  2  0  0  0  0  0  0
  -24.5980  -31.0440   22.0470 N   0  0  0  0  0  0  0  0  0  0  0  0
  -23.5200  -32.1110   23.7380 O   0  0  0  0  0  0  0  0  0  0  0  0
  -22.6930  -29.4290   22.5330 C   0  0  0  0  0  0  0  0  0  0  0  0
  -21.3690  -29.2230   22.4340 N   0  0  0  0  0  0  0  0  0  0  0  0
  -23.4020  -28.8210   23.3390 O   0  0  0  0  0  0  0  0  0  0  0  0
  -20.8550  -29.7650   21.7530 H   0  0  0  0  0  0  0  0  0  0  0  0
  -18.0330  -27.9440   22.9880 C   0  0  0  0  0  0  0  0  0  0  0  0
  -20.5860  -28.2750   23.2260 C   0  0  0  0  0  3  0  0  0  0  0  0
  -20.7210  -26.8390   22.6660 C   0  0  0  0  0  2  0  0  0  0  0  0
  -19.6160  -26.4750   21.6700 C   0  0  0  0  0  2  0  0  0  0  0  0
  -18.2370  -26.5910   22.3250 C   0  0  0  0  0  2  0  0  0  0  0  0
  -19.1340  -28.7400   23.3950 C   0  0  0  0  0  0  0  0  0  0  0  0
  -18.8870  -30.0050   23.9730 C   0  0  0  0  0  3  0  0  0  0  0  0
  -17.5710  -30.4740   24.1460 C   0  0  0  0  0  3  0  0  0  0  0  0
  -16.4840  -29.6730   23.7570 C   0  0  0  0  0  3  0  0  0  0  0  0
  -16.7150  -28.4100   23.1820 C   0  0  0  0  0  3  0  0  0  0  0  0
  -25.8890  -32.4700   23.7300 C   0  0  0  0  0  3  0  0  0  0  0  0
  -26.4710  -31.6770   24.9640 C   0  0  1  0  0  0  0  0  0  0  0  0
  -25.4310  -31.4030   26.0750 C   0  0  0  0  0  1  0  0  0  0  0  0
  -27.0500  -30.3140   24.5150 C   0  0  0  0  0  1  0  0  0  0  0  0
  -27.6420  -32.4690   25.5890 C   0  0  0  0  0  1  0  0  0  0  0  0
  -25.5880  -33.8580   24.1050 N   0  0  0  0  0  0  0  0  0  0  0  0
  -25.8860  -34.9300   23.3600 C   0  0  0  0  0  0  0  0  0  0  0  0
  -26.5150  -34.8550   22.3020 O   0  0  0  0  0  0  0  0  0  0  0  0
  -25.0290  -33.9890   24.9350 H   0  0  0  0  0  0  0  0  0  0  0  0
  -24.1460  -36.7290   23.1060 C   0  0  0  0  0  1  0  0  0  0  0  0
  -25.4110  -36.3050   23.8690 C   0  0  0  0  0  3  0  0  0  0  0  0
  -27.5660  -37.1730   24.6630 C   0  0  0  0  0  1  0  0  0  0  0  0
  -26.4380  -37.3630   23.7560 N   0  0  0  0  0  0  0  0  0  0  0  0
  -26.0360  -38.2780   23.9400 H   0  0  0  0  0  0  0  0  0  0  0  0
  1  2  1  0
  3  6  2  0
  3  4  1  0
  4 47  1  0
  4  1  2  0
  5  2  2  0
  5  8  1  0
  6  5  1  0
  7  6  1  0
  8  9  2  0
  9 10  1  0
 11  8  1  0
 12 17  1  0
 13 14  1  0
 13 12  1  0
 15 14  1  0
 15 22  1  0
 15 16  1  0
 17 11  1  0
 17 16  1  0
 18 11  2  0
 19 20  2  0
 20 39  1  0
 21 20  1  0
 21 24  1  0
 22 23  1  0
 22 19  1  0
 23 21  2  0
 24 25  1  0
 25 26  2  0
 27 30  1  0
 27 26  1  0
 28 27  2  0
 29 28  1  0
 29 24  2  0
 30 31  1  0
 31 36  2  0
 31 32  1  0
 32 33  2  0
 33 34  1  0
 34 38  1  0
 35 34  2  0
 36 35  1  0
 37 36  1  0
 39 40  1  0
 40 43  1  0
 40 42  1  0
 41 39  2  0
 44 19  1  0
 44 45  1  0
 46 44  1  0
 48 49  1  0
 48 47  2  0
 49 50  2  0
 51 52  1  0
 51 49  1  0
 53 64  2  0
 54 52  1  0
 54 59  1  0
 55 63  1  0
 55 65  1  0
 56 62  1  0
 56 58  1  0
 57 63  1  0
 58 57  1  0
 59 58  2  0
 60 61  1  0
 60 54  2  0
 61 56  2  0
 62 55  1  0
 63 53  1  0
 65 67  2  0
 66 65  1  0
 68 66  1  0
 69 78  2  0
 69 74  1  0
 70 66  1  0
 70 74  1  0
 71 70  1  0
 72 73  1  0
 72 71  1  0
 73 69  1  0
 74 75  2  0
 75 76  1  0
 77 76  2  0
 78 77  1  0
 79 53  1  0
 79 84  1  0
 79 80  1  0
 80 83  1  1
 80 81  1  0
 82 80  1  0
 84 87  1  0
 85 89  1  0
 85 84  1  0
 86 85  2  0
 89 88  1  0
 91 89  1  0
 91 92  1  0
 91 90  1  0
M  ISO  4   8 100  11 100  51 101  52 101
M  END
>  <TORSDO>  (64) 
F 20

>  <SCORE>  (64) 
-13.108

>  <name>  (64) 
63

>  <ligand_id>  (64) 
63

>  <original_smiles>  (64) 
[H]N=C(C(=O)N1C([H])([H])C([H])([H])C([H])([H])C([H])(n2nc(-c3c([H])c([H])c(Oc4c([H])c([H])c(F)c([H])c4F)c([H])c3[H])c(C(=O)N([H])[H])c2N([H])[H])C1([H])[H])c1c([H])c([H])c(C([H])=C([H])C(=O)C([H])([H])Oc2c([H])c([H])c3c(c2[H])C([H])([H])N(C(=O)C([H])(N([H])C(=O)C([H])(N([H])C([H])([H])[H])C([H])([H])[H])C(C([H])([H])[H])(C([H])([H])[H])C([H])([H])[H])C([H])(C(=O)N([H])C2([H])c4c([H])c([H])c([H])c([H])c4C([H])([H])C([H])([H])C2([H])[H])C3([H])[H])c([H])c1C([H])([H])[H]

>  <smiles>  (64) 
[H]N=C(C(=O)N1C([H])([H])C([H])([H])C([H])([H])C([H])(n2nc(-c3c([H])c([H])c(Oc4c([H])c([H])c(F)c([H])c4F)c([H])c3[H])c(C(=O)N([H])[H])c2N([H])[H])C1([H])[H])c1c([H])c([H])c(C([H])=C([H])C(=O)C([H])([H])Oc2c([H])c([H])c3c(c2[H])C([H])([H])N(C(=O)C([H])(N([H])C(=O)C([H])(N([H])C([H])([H])[H])C([H])([H])[H])C(C([H])([H])[H])(C([H])([H])[H])C([H])([H])[H])C([H])(C(=O)N([H])C2([H])c4c([H])c([H])c([H])c([H])c4C([H])([H])C([H])([H])C2([H])[H])C3([H])[H])c([H])c1C([H])([H])[H]

$$$$
64:0:0
     RDKit          3D

 92100  0  0  1  0  0  0  0  0999 V2000
  -29.4290  -18.5390   20.4980 C   0  0  0  0  0  3  0  0  0  0  0  0
  -31.6700  -17.6310   20.5140 C   0  0  0  0  0  3  0  0  0  0  0  0
  -29.9190  -19.9160   20.6220 C   0  0  0  0  0  0  0  0  0  0  0  0
  -32.1850  -18.9240   20.6270 C   0  0  0  0  0  0  0  0  0  0  0  0
  -31.3310  -20.0330   20.8050 C   0  0  0  0  0  0  0  0  0  0  0  0
  -30.2870  -17.3540   20.5000 C   0  0  0  0  0  0  0  0  0  0  0  0
  -33.7000  -19.0770   20.5440 C   0  0  0  0  0  1  0  0  0  0  0  0
  -31.9870  -21.2990   21.3380 C   0  0  0  0  0  1  0  0  0  0  0  0
  -30.5810  -14.7440   20.3320 C   0  0  0  0  0  0  0  0  0  0  0  0
  -30.3450  -12.4840   19.3360 C   0  0  0  0  0  2  0  0  0  0  0  0
  -29.4150  -12.6040   18.1130 C   0  0  0  0  0  2  0  0  0  0  0  0
  -27.9410  -12.4450   18.5390 C   0  0  0  0  0  2  0  0  0  0  0  0
  -27.5800  -13.3020   19.7850 C   0  0  0  0  0  3  0  0  0  0  0  0
  -28.6410  -13.1940   20.8980 C   0  0  0  0  0  2  0  0  0  0  0  0
  -29.9290  -13.5360   20.2900 N   0  0  0  0  0  0  0  0  0  0  0  0
  -31.7680  -14.7610   20.0080 O   0  0  0  0  0  0  0  0  0  0  0  0
  -29.8430  -15.9240   20.4900 N   0  0  0  0  0  0  0  0  0  0  0  0
  -28.8530  -15.7830   20.6160 H   0  0  0  0  0  0  0  0  0  0  0  0
  -25.1930  -13.8780   20.5120 C   0  0  0  0  0  0  0  0  0  0  0  0
  -24.1310  -13.0970   20.8850 C   0  0  0  0  0  0  0  0  0  0  0  0
  -24.6070  -11.7500   20.8580 C   0  0  0  0  0  0  0  0  0  0  0  0
  -26.2400  -13.0030   20.2780 N   0  0  0  0  0  0  0  0  0  0  0  0
  -25.8960  -11.7190   20.5500 N   0  0  0  0  0  0  0  0  0  0  0  0
  -23.8880  -10.4810   21.0520 C   0  0  0  0  0  0  0  0  0  0  0  0
  -24.3350   -9.5120   21.9770 C   0  0  0  0  0  3  0  0  0  0  0  0
  -23.6150   -8.3120   22.1590 C   0  0  0  0  0  3  0  0  0  0  0  0
  -22.4360   -8.0710   21.4150 C   0  0  0  0  0  0  0  0  0  0  0  0
  -22.0080   -9.0300   20.4800 C   0  0  0  0  0  3  0  0  0  0  0  0
  -22.7280  -10.2220   20.2970 C   0  0  0  0  0  3  0  0  0  0  0  0
  -21.6850   -6.9240   21.5080 O   0  0  0  0  0  0  0  0  0  0  0  0
  -21.6610   -6.1720   22.6530 C   0  0  0  0  0  0  0  0  0  0  0  0
  -21.2610   -6.7130   23.8950 C   0  0  0  0  0  3  0  0  0  0  0  0
  -21.1830   -5.8860   25.0320 C   0  0  0  0  0  3  0  0  0  0  0  0
  -21.4940   -4.5170   24.9300 C   0  0  0  0  0  0  0  0  0  0  0  0
  -21.8880   -3.9730   23.6960 C   0  0  0  0  0  3  0  0  0  0  0  0
  -21.9680   -4.7980   22.5600 C   0  0  0  0  0  0  0  0  0  0  0  0
  -22.3260   -4.2660   21.3660 F   0  0  0  0  0  0  0  0  0  0  0  0
  -21.4140   -3.7200   26.0230 F   0  0  0  0  0  0  0  0  0  0  0  0
  -22.7320  -13.5660   21.1550 C   0  0  0  0  0  0  0  0  0  0  0  0
  -22.0110  -12.8680   22.0250 N   0  0  0  0  0  0  0  0  0  0  0  0
  -22.2890  -14.5870   20.6330 O   0  0  0  0  0  0  0  0  0  0  0  0
  -22.3790  -12.0390   22.4680 H   0  0  0  0  0  0  0  0  0  0  0  0
  -21.0720  -13.1680   22.2540 H   0  0  0  0  0  0  0  0  0  0  0  0
  -25.3530  -15.2480   20.3250 N   0  0  0  0  0  0  0  0  0  0  0  0
  -24.5870  -15.9050   20.4110 H   0  0  0  0  0  0  0  0  0  0  0  0
  -26.1890  -15.6730   19.9480 H   0  0  0  0  0  0  0  0  0  0  0  0
  -29.0250  -21.1980   20.5910 C   0  0  0  0  0  3  0  0  0  0  0  0
  -29.2750  -22.4960   20.1440 C   0  0  0  0  0  3  0  0  0  0  0  0
  -28.3470  -23.7400   20.3000 C   0  0  0  0  0  0  0  0  0  0  0  0
  -27.3090  -23.6400   20.9590 O   0  0  0  0  0  0  0  0  0  0  0  0
  -28.6130  -25.1640   19.5930 C   0  0  0  0  0  2  0  0  0  0  0  0
  -28.3650  -26.4510   20.3360 O   0  0  0  0  0  0  0  0  0  0  0  0
  -24.6080  -31.9060   23.2500 C   0  0  0  0  0  0  0  0  0  0  0  0
  -27.2320  -27.2890   20.2180 C   0  0  0  0  0  0  0  0  0  0  0  0
  -23.4060  -30.4910   21.6190 C   0  0  0  0  0  3  0  0  0  0  0  0
  -24.8590  -28.9280   20.1880 C   0  0  0  0  0  0  0  0  0  0  0  0
  -25.9440  -30.7990   21.4300 C   0  0  0  0  0  2  0  0  0  0  0  0
  -26.0240  -29.4100   20.7980 C   0  0  0  0  0  0  0  0  0  0  0  0
  -27.1980  -28.5960   20.8150 C   0  0  0  0  0  3  0  0  0  0  0  0
  -26.0470  -26.8670   19.5780 C   0  0  0  0  0  3  0  0  0  0  0  0
  -24.8800  -27.6660   19.5660 C   0  0  0  0  0  3  0  0  0  0  0  0
  -23.6170  -29.8020   20.2410 C   0  0  0  0  0  2  0  0  0  0  0  0
  -24.6730  -31.0810   22.1600 N   0  0  0  0  0  0  0  0  0  0  0  0
  -23.5230  -32.1910   23.7750 O   0  0  0  0  0  0  0  0  0  0  0  0
  -22.7390  -29.4850   22.5860 C   0  0  0  0  0  0  0  0  0  0  0  0
  -21.4120  -29.3150   22.4660 N   0  0  0  0  0  0  0  0  0  0  0  0
  -23.4170  -28.8610   23.4070 O   0  0  0  0  0  0  0  0  0  0  0  0
  -20.9220  -29.8730   21.7800 H   0  0  0  0  0  0  0  0  0  0  0  0
  -18.0300  -28.1330   22.9660 C   0  0  0  0  0  0  0  0  0  0  0  0
  -20.5890  -28.3850   23.2420 C   0  0  0  0  0  3  0  0  0  0  0  0
  -20.6890  -26.9500   22.6730 C   0  0  0  0  0  2  0  0  0  0  0  0
  -19.5890  -26.6260   21.6590 C   0  0  0  0  0  2  0  0  0  0  0  0
  -18.2050  -26.7800   22.2950 C   0  0  0  0  0  2  0  0  0  0  0  0
  -19.1520  -28.8930   23.3950 C   0  0  0  0  0  0  0  0  0  0  0  0
  -18.9390  -30.1570   23.9830 C   0  0  0  0  0  3  0  0  0  0  0  0
  -17.6370  -30.6650   24.1470 C   0  0  0  0  0  3  0  0  0  0  0  0
  -16.5290  -29.9010   23.7400 C   0  0  0  0  0  3  0  0  0  0  0  0
  -16.7270  -28.6370   23.1550 C   0  0  0  0  0  3  0  0  0  0  0  0
  -25.8900  -32.5450   23.8700 C   0  0  0  0  0  3  0  0  0  0  0  0
  -26.4010  -31.7860   25.1560 C   0  0  1  0  0  0  0  0  0  0  0  0
  -25.3050  -31.5750   26.2260 C   0  0  0  0  0  1  0  0  0  0  0  0
  -26.9730  -30.4010   24.7760 C   0  0  0  0  0  1  0  0  0  0  0  0
  -27.5570  -32.5780   25.8130 C   0  0  0  0  0  1  0  0  0  0  0  0
  -25.5800  -33.9480   24.1920 N   0  0  0  0  0  0  0  0  0  0  0  0
  -25.9120  -34.9980   23.4300 C   0  0  0  0  0  0  0  0  0  0  0  0
  -26.5800  -34.8870   22.3990 O   0  0  0  0  0  0  0  0  0  0  0  0
  -24.9930  -34.1090   24.9950 H   0  0  0  0  0  0  0  0  0  0  0  0
  -24.1830  -36.7920   23.0740 C   0  0  0  0  0  1  0  0  0  0  0  0
  -25.4250  -36.3890   23.8840 C   0  0  0  0  0  3  0  0  0  0  0  0
  -27.5620  -37.2750   24.7040 C   0  0  0  0  0  1  0  0  0  0  0  0
  -26.4560  -37.4430   23.7670 N   0  0  0  0  0  0  0  0  0  0  0  0
  -26.0510  -38.3630   23.9170 H   0  0  0  0  0  0  0  0  0  0  0  0
  1  6  2  0
  1  3  1  0
  2  4  2  0
  3  5  2  0
  4  5  1  0
  5  8  1  0
  6  2  1  0
  7  4  1  0
  9 17  1  0
 10 15  1  0
 11 12  1  0
 11 10  1  0
 13 12  1  0
 13 22  1  0
 13 14  1  0
 15  9  1  0
 15 14  1  0
 16  9  2  0
 17  6  1  0
 17 18  1  0
 19 20  2  0
 20 39  1  0
 21 20  1  0
 21 24  1  0
 22 19  1  0
 22 23  1  0
 23 21  2  0
 24 25  1  0
 25 26  2  0
 27 30  1  0
 27 26  1  0
 28 27  2  0
 29 28  1  0
 29 24  2  0
 30 31  1  0
 31 32  1  0
 32 33  2  0
 34 33  1  0
 34 38  1  0
 35 34  2  0
 36 31  2  0
 36 35  1  0
 37 36  1  0
 39 40  1  0
 40 43  1  0
 40 42  1  0
 41 39  2  0
 44 45  1  0
 44 19  1  0
 46 44  1  0
 47  3  1  0
 48 49  1  0
 48 47  2  0
 49 50  2  0
 51 49  1  0
 51 52  1  0
 53 64  2  0
 54 52  1  0
 54 59  1  0
 55 63  1  0
 55 65  1  0
 56 62  1  0
 56 58  1  0
 57 63  1  0
 58 59  2  0
 58 57  1  0
 60 54  2  0
 61 60  1  0
 61 56  2  0
 62 55  1  0
 63 53  1  0
 65 67  2  0
 66 65  1  0
 68 66  1  0
 69 78  2  0
 69 74  1  0
 70 66  1  0
 70 74  1  0
 71 70  1  0
 72 73  1  0
 72 71  1  0
 73 69  1  0
 74 75  2  0
 75 76  1  0
 77 76  2  0
 78 77  1  0
 79 53  1  0
 79 84  1  0
 79 80  1  0
 80 83  1  1
 80 81  1  0
 82 80  1  0
 84 87  1  0
 85 89  1  0
 85 84  1  0
 86 85  2  0
 89 88  1  0
 91 89  1  0
 91 92  1  0
 91 90  1  0
M  ISO  4   9 100  17 100  51 101  52 101
M  END
>  <TORSDO>  (65) 
F 19

>  <SCORE>  (65) 
-14.566

>  <name>  (65) 
64

>  <ligand_id>  (65) 
64

>  <original_smiles>  (65) 
[H]C(C(=O)C([H])([H])Oc1c([H])c([H])c2c(c1[H])C([H])([H])N(C(=O)C([H])(N([H])C(=O)C([H])(N([H])C([H])([H])[H])C([H])([H])[H])C(C([H])([H])[H])(C([H])([H])[H])C([H])([H])[H])C([H])(C(=O)N([H])C1([H])c3c([H])c([H])c([H])c([H])c3C([H])([H])C([H])([H])C1([H])[H])C2([H])[H])=C([H])c1c([H])c(N([H])C(=O)N2C([H])([H])C([H])([H])C([H])([H])C([H])(n3nc(-c4c([H])c([H])c(Oc5c([H])c([H])c(F)c([H])c5F)c([H])c4[H])c(C(=O)N([H])[H])c3N([H])[H])C2([H])[H])c([H])c(C([H])([H])[H])c1C([H])([H])[H]

>  <smiles>  (65) 
[H]C(C(=O)C([H])([H])Oc1c([H])c([H])c2c(c1[H])C([H])([H])N(C(=O)C([H])(N([H])C(=O)C([H])(N([H])C([H])([H])[H])C([H])([H])[H])C(C([H])([H])[H])(C([H])([H])[H])C([H])([H])[H])C([H])(C(=O)N([H])C1([H])c3c([H])c([H])c([H])c([H])c3C([H])([H])C([H])([H])C1([H])[H])C2([H])[H])=C([H])c1c([H])c(N([H])C(=O)N2C([H])([H])C([H])([H])C([H])([H])C([H])(n3nc(-c4c([H])c([H])c(Oc5c([H])c([H])c(F)c([H])c5F)c([H])c4[H])c(C(=O)N([H])[H])c3N([H])[H])C2([H])[H])c([H])c(C([H])([H])[H])c1C([H])([H])[H]

$$$$
65:0:0
     RDKit          3D

 92100  0  0  1  0  0  0  0  0999 V2000
  -29.5220  -20.1260   21.3490 C   0  0  0  0  0  3  0  0  0  0  0  0
  -29.7860  -18.8140   21.7970 C   0  0  0  0  0  3  0  0  0  0  0  0
  -31.1000  -18.3980   19.8050 C   0  0  0  0  0  3  0  0  0  0  0  0
  -30.0540  -20.6110   20.1300 C   0  0  0  0  0  0  0  0  0  0  0  0
  -30.5930  -17.9410   21.0390 C   0  0  0  0  0  0  0  0  0  0  0  0
  -30.8480  -19.7180   19.3550 C   0  0  0  0  0  0  0  0  0  0  0  0
  -31.4790  -20.1580   18.0430 C   0  0  0  0  0  1  0  0  0  0  0  0
  -29.8260  -22.0230   19.6960 C   0  0  0  0  0  3  0  0  0  0  0  0
  -29.2490  -23.0230   20.4080 C   0  0  0  0  0  3  0  0  0  0  0  0
  -29.0790  -24.3980   19.8680 C   0  0  0  0  0  0  0  0  0  0  0  0
  -29.4460  -24.7220   18.7330 O   0  0  0  0  0  0  0  0  0  0  0  0
  -28.4080  -25.4480   20.7810 C   0  0  0  0  0  2  0  0  0  0  0  0
  -28.5110  -26.7870   20.2520 O   0  0  0  0  0  0  0  0  0  0  0  0
  -24.6150  -31.9430   23.2640 C   0  0  0  0  0  0  0  0  0  0  0  0
  -27.3370  -27.5070   20.2460 C   0  0  0  0  0  0  0  0  0  0  0  0
  -23.4400  -30.5220   21.6130 C   0  0  0  0  0  3  0  0  0  0  0  0
  -24.9260  -28.9860   20.2170 C   0  0  0  0  0  0  0  0  0  0  0  0
  -25.9640  -30.9030   21.4420 C   0  0  0  0  0  2  0  0  0  0  0  0
  -26.0710  -29.5290   20.8120 C   0  0  0  0  0  0  0  0  0  0  0  0
  -27.2820  -28.7980   20.8180 C   0  0  0  0  0  3  0  0  0  0  0  0
  -26.1750  -26.9770   19.6440 C   0  0  0  0  0  3  0  0  0  0  0  0
  -24.9720  -27.7090   19.6270 C   0  0  0  0  0  3  0  0  0  0  0  0
  -23.6720  -29.8320   20.2420 C   0  0  0  0  0  2  0  0  0  0  0  0
  -24.6910  -31.1390   22.1640 N   0  0  0  0  0  0  0  0  0  0  0  0
  -23.5250  -32.2070   23.7910 O   0  0  0  0  0  0  0  0  0  0  0  0
  -22.7860  -29.5020   22.5720 C   0  0  0  0  0  0  0  0  0  0  0  0
  -21.4680  -29.2950   22.4180 N   0  0  0  0  0  0  0  0  0  0  0  0
  -23.4630  -28.8970   23.4070 O   0  0  0  0  0  0  0  0  0  0  0  0
  -20.9830  -29.8380   21.7170 H   0  0  0  0  0  0  0  0  0  0  0  0
  -18.1060  -28.0420   22.8430 C   0  0  0  0  0  0  0  0  0  0  0  0
  -20.6500  -28.3530   23.1820 C   0  0  0  0  0  3  0  0  0  0  0  0
  -20.7950  -26.9160   22.6300 C   0  0  0  0  0  2  0  0  0  0  0  0
  -19.7300  -26.5570   21.5900 C   0  0  0  0  0  2  0  0  0  0  0  0
  -18.3270  -26.6880   22.1900 C   0  0  0  0  0  2  0  0  0  0  0  0
  -19.1980  -28.8300   23.2930 C   0  0  0  0  0  0  0  0  0  0  0  0
  -18.9400  -30.0970   23.8600 C   0  0  0  0  0  3  0  0  0  0  0  0
  -17.6220  -30.5770   23.9820 C   0  0  0  0  0  3  0  0  0  0  0  0
  -16.5440  -29.7850   23.5510 C   0  0  0  0  0  3  0  0  0  0  0  0
  -16.7870  -28.5200   22.9870 C   0  0  0  0  0  3  0  0  0  0  0  0
  -25.8890  -32.5860   23.8960 C   0  0  0  0  0  3  0  0  0  0  0  0
  -26.3920  -31.8300   25.1860 C   0  0  1  0  0  0  0  0  0  0  0  0
  -25.2860  -31.5970   26.2410 C   0  0  0  0  0  1  0  0  0  0  0  0
  -26.9900  -30.4550   24.8120 C   0  0  0  0  0  1  0  0  0  0  0  0
  -27.5270  -32.6410   25.8590 C   0  0  0  0  0  1  0  0  0  0  0  0
  -25.5700  -33.9860   24.2060 N   0  0  0  0  0  0  0  0  0  0  0  0
  -25.9100  -35.0320   23.4410 C   0  0  0  0  0  0  0  0  0  0  0  0
  -26.5980  -34.9200   22.4230 O   0  0  0  0  0  0  0  0  0  0  0  0
  -24.9660  -34.1470   24.9980 H   0  0  0  0  0  0  0  0  0  0  0  0
  -24.1830  -36.8120   23.0300 C   0  0  0  0  0  1  0  0  0  0  0  0
  -25.4070  -36.4220   23.8750 C   0  0  0  0  0  3  0  0  0  0  0  0
  -27.5170  -37.3240   24.7480 C   0  0  0  0  0  1  0  0  0  0  0  0
  -26.4370  -37.4780   23.7760 N   0  0  0  0  0  0  0  0  0  0  0  0
  -26.0230  -38.3980   23.9070 H   0  0  0  0  0  0  0  0  0  0  0  0
  -30.9990  -16.5760   21.5990 C   0  0  0  0  0  2  0  0  0  0  0  0
  -30.7870  -14.5170   20.1870 C   0  0  0  0  0  0  0  0  0  0  0  0
  -30.3530  -12.4360   18.9240 C   0  0  0  0  0  2  0  0  0  0  0  0
  -29.3460  -12.6950   17.7880 C   0  0  0  0  0  2  0  0  0  0  0  0
  -27.8980  -12.5540   18.2980 C   0  0  0  0  0  2  0  0  0  0  0  0
  -27.6470  -13.3470   19.6090 C   0  0  0  0  0  3  0  0  0  0  0  0
  -28.7610  -13.0730   20.6420 C   0  0  0  0  0  2  0  0  0  0  0  0
  -30.0560  -13.3810   20.0130 N   0  0  0  0  0  0  0  0  0  0  0  0
  -31.8350  -14.7390   19.5750 O   0  0  0  0  0  0  0  0  0  0  0  0
  -30.2910  -15.4080   21.0610 N   0  0  0  0  0  0  0  0  0  0  0  0
  -29.4140  -15.1680   21.4990 H   0  0  0  0  0  0  0  0  0  0  0  0
  -25.2950  -13.9530   20.4610 C   0  0  0  0  0  0  0  0  0  0  0  0
  -24.2420  -13.1790   20.8720 C   0  0  0  0  0  0  0  0  0  0  0  0
  -24.6900  -11.8250   20.7830 C   0  0  0  0  0  0  0  0  0  0  0  0
  -26.3180  -13.0700   20.1540 N   0  0  0  0  0  0  0  0  0  0  0  0
  -25.9610  -11.7840   20.4040 N   0  0  0  0  0  0  0  0  0  0  0  0
  -23.9640  -10.5640   20.9830 C   0  0  0  0  0  0  0  0  0  0  0  0
  -24.4220   -9.5840   21.8910 C   0  0  0  0  0  3  0  0  0  0  0  0
  -23.6970   -8.3870   22.0810 C   0  0  0  0  0  3  0  0  0  0  0  0
  -22.4990   -8.1620   21.3630 C   0  0  0  0  0  0  0  0  0  0  0  0
  -22.0590   -9.1300   20.4430 C   0  0  0  0  0  3  0  0  0  0  0  0
  -22.7850  -10.3180   20.2510 C   0  0  0  0  0  3  0  0  0  0  0  0
  -21.7430   -7.0190   21.4620 O   0  0  0  0  0  0  0  0  0  0  0  0
  -21.7130   -6.2740   22.6130 C   0  0  0  0  0  0  0  0  0  0  0  0
  -21.2880   -6.8210   23.8440 C   0  0  0  0  0  3  0  0  0  0  0  0
  -21.2070   -6.0020   24.9870 C   0  0  0  0  0  3  0  0  0  0  0  0
  -21.5400   -4.6360   24.9010 C   0  0  0  0  0  0  0  0  0  0  0  0
  -21.9580   -4.0890   23.6750 C   0  0  0  0  0  3  0  0  0  0  0  0
  -22.0410   -4.9060   22.5350 C   0  0  0  0  0  0  0  0  0  0  0  0
  -22.4250   -4.3690   21.3510 F   0  0  0  0  0  0  0  0  0  0  0  0
  -21.4540   -3.8460   25.9970 F   0  0  0  0  0  0  0  0  0  0  0  0
  -22.8660  -13.6590   21.2340 C   0  0  0  0  0  0  0  0  0  0  0  0
  -22.1790  -12.9440   22.1180 N   0  0  0  0  0  0  0  0  0  0  0  0
  -22.4100  -14.7040   20.7690 O   0  0  0  0  0  0  0  0  0  0  0  0
  -22.5600  -12.0970   22.5130 H   0  0  0  0  0  0  0  0  0  0  0  0
  -21.2580  -13.2470   22.4000 H   0  0  0  0  0  0  0  0  0  0  0  0
  -25.4610  -15.3260   20.3080 N   0  0  0  0  0  0  0  0  0  0  0  0
  -24.7080  -15.9850   20.4740 H   0  0  0  0  0  0  0  0  0  0  0  0
  -26.3030  -15.7670   19.9590 H   0  0  0  0  0  0  0  0  0  0  0  0
  1  2  1  0
  3  5  1  0
  4  1  2  0
  5 54  1  0
  5  2  2  0
  6  3  2  0
  6  4  1  0
  7  6  1  0
  8  4  1  0
  8  9  2  0
 10  9  1  0
 10 12  1  0
 11 10  2  0
 13 12  1  0
 14 25  2  0
 15 13  1  0
 15 20  1  0
 16 24  1  0
 16 26  1  0
 17 23  1  0
 17 19  1  0
 18 24  1  0
 19 20  2  0
 19 18  1  0
 21 15  2  0
 22 21  1  0
 22 17  2  0
 23 16  1  0
 24 14  1  0
 26 28  2  0
 27 26  1  0
 29 27  1  0
 30 39  2  0
 30 35  1  0
 31 27  1  0
 31 35  1  0
 32 31  1  0
 33 34  1  0
 33 32  1  0
 34 30  1  0
 35 36  2  0
 36 37  1  0
 38 37  2  0
 39 38  1  0
 40 14  1  0
 40 45  1  0
 40 41  1  0
 41 44  1  1
 41 42  1  0
 43 41  1  0
 45 48  1  0
 46 50  1  0
 46 45  1  0
 47 46  2  0
 50 49  1  0
 52 50  1  0
 52 53  1  0
 52 51  1  0
 55 63  1  0
 56 61  1  0
 57 58  1  0
 57 56  1  0
 59 58  1  0
 59 68  1  0
 59 60  1  0
 61 55  1  0
 61 60  1  0
 62 55  2  0
 63 64  1  0
 63 54  1  0
 65 66  2  0
 66 85  1  0
 67 66  1  0
 67 70  1  0
 68 69  1  0
 68 65  1  0
 69 67  2  0
 70 71  1  0
 71 72  2  0
 73 76  1  0
 73 72  1  0
 74 73  2  0
 75 74  1  0
 75 70  2  0
 76 77  1  0
 77 78  1  0
 78 79  2  0
 80 79  1  0
 80 84  1  0
 81 80  2  0
 82 77  2  0
 82 81  1  0
 83 82  1  0
 85 86  1  0
 86 89  1  0
 86 88  1  0
 87 85  2  0
 90 65  1  0
 90 91  1  0
 92 90  1  0
M  ISO  4  12 101  13 101  55 100  63 100
M  END
>  <TORSDO>  (66) 
F 20

>  <SCORE>  (66) 
-13.240

>  <name>  (66) 
65

>  <ligand_id>  (66) 
65

>  <original_smiles>  (66) 
[H]C(C(=O)C([H])([H])Oc1c([H])c([H])c2c(c1[H])C([H])([H])N(C(=O)C([H])(N([H])C(=O)C([H])(N([H])C([H])([H])[H])C([H])([H])[H])C(C([H])([H])[H])(C([H])([H])[H])C([H])([H])[H])C([H])(C(=O)N([H])C1([H])c3c([H])c([H])c([H])c([H])c3C([H])([H])C([H])([H])C1([H])[H])C2([H])[H])=C([H])c1c([H])c([H])c(C([H])([H])N([H])C(=O)N2C([H])([H])C([H])([H])C([H])([H])C([H])(n3nc(-c4c([H])c([H])c(Oc5c([H])c([H])c(F)c([H])c5F)c([H])c4[H])c(C(=O)N([H])[H])c3N([H])[H])C2([H])[H])c([H])c1C([H])([H])[H]

>  <smiles>  (66) 
[H]C(C(=O)C([H])([H])Oc1c([H])c([H])c2c(c1[H])C([H])([H])N(C(=O)C([H])(N([H])C(=O)C([H])(N([H])C([H])([H])[H])C([H])([H])[H])C(C([H])([H])[H])(C([H])([H])[H])C([H])([H])[H])C([H])(C(=O)N([H])C1([H])c3c([H])c([H])c([H])c([H])c3C([H])([H])C([H])([H])C1([H])[H])C2([H])[H])=C([H])c1c([H])c([H])c(C([H])([H])N([H])C(=O)N2C([H])([H])C([H])([H])C([H])([H])C([H])(n3nc(-c4c([H])c([H])c(Oc5c([H])c([H])c(F)c([H])c5F)c([H])c4[H])c(C(=O)N([H])[H])c3N([H])[H])C2([H])[H])c([H])c1C([H])([H])[H]

$$$$
66:0:0
     RDKit          3D

 91 99  0  0  1  0  0  0  0  0999 V2000
  -31.0620  -19.6040   20.3250 C   0  0  0  0  0  3  0  0  0  0  0  0
  -28.8300  -18.8000   19.9640 C   0  0  0  0  0  3  0  0  0  0  0  0
  -30.1790  -18.4950   20.2270 C   0  0  0  0  0  0  0  0  0  0  0  0
  -29.2840  -21.2550   19.8150 C   0  0  0  0  0  0  0  0  0  0  0  0
  -30.6430  -20.9540   20.1150 C   0  0  0  0  0  0  0  0  0  0  0  0
  -28.3910  -20.1340   19.7450 C   0  0  0  0  0  0  0  0  0  0  0  0
  -31.6960  -22.0530   20.0940 C   0  0  0  0  0  1  0  0  0  0  0  0
  -30.7100  -17.0830   20.2660 C   0  0  0  0  0  3  0  0  0  0  0  0
  -30.0640  -15.8710   20.2990 C   0  0  0  0  0  3  0  0  0  0  0  0
  -30.8250  -14.6060   20.1220 C   0  0  0  0  0  0  0  0  0  0  0  0
  -30.5460  -12.2900   19.2860 C   0  0  0  0  0  2  0  0  0  0  0  0
  -29.6040  -12.3150   18.0640 C   0  0  0  0  0  2  0  0  0  0  0  0
  -28.1360  -12.1860   18.5180 C   0  0  0  0  0  2  0  0  0  0  0  0
  -27.7800  -13.1460   19.6850 C   0  0  0  0  0  3  0  0  0  0  0  0
  -28.8560  -13.1310   20.7940 C   0  0  0  0  0  2  0  0  0  0  0  0
  -30.1570  -13.4080   20.1710 N   0  0  0  0  0  0  0  0  0  0  0  0
  -31.9930  -14.6330   19.7240 O   0  0  0  0  0  0  0  0  0  0  0  0
  -25.4320  -13.7750   20.5190 C   0  0  0  0  0  0  0  0  0  0  0  0
  -24.3600  -13.0200   20.9080 C   0  0  0  0  0  0  0  0  0  0  0  0
  -24.7860  -11.6570   20.8180 C   0  0  0  0  0  0  0  0  0  0  0  0
  -26.4440  -12.8800   20.2170 N   0  0  0  0  0  0  0  0  0  0  0  0
  -26.0620  -11.5980   20.4570 N   0  0  0  0  0  0  0  0  0  0  0  0
  -24.0350  -10.4080   20.9990 C   0  0  0  0  0  0  0  0  0  0  0  0
  -24.4600   -9.4190   21.9150 C   0  0  0  0  0  3  0  0  0  0  0  0
  -23.7090   -8.2340   22.0870 C   0  0  0  0  0  3  0  0  0  0  0  0
  -22.5220   -8.0310   21.3440 C   0  0  0  0  0  0  0  0  0  0  0  0
  -22.1180   -9.0090   20.4180 C   0  0  0  0  0  3  0  0  0  0  0  0
  -22.8670  -10.1850   20.2440 C   0  0  0  0  0  3  0  0  0  0  0  0
  -21.7450   -6.9000   21.4250 O   0  0  0  0  0  0  0  0  0  0  0  0
  -21.6570   -6.1680   22.5820 C   0  0  0  0  0  0  0  0  0  0  0  0
  -21.2060   -6.7370   23.7930 C   0  0  0  0  0  3  0  0  0  0  0  0
  -21.0680   -5.9320   24.9410 C   0  0  0  0  0  3  0  0  0  0  0  0
  -21.3680   -4.5580   24.8770 C   0  0  0  0  0  0  0  0  0  0  0  0
  -21.8110   -3.9890   23.6710 C   0  0  0  0  0  3  0  0  0  0  0  0
  -21.9530   -4.7920   22.5260 C   0  0  0  0  0  0  0  0  0  0  0  0
  -22.3600   -4.2330   21.3600 F   0  0  0  0  0  0  0  0  0  0  0  0
  -21.2290   -3.7820   25.9790 F   0  0  0  0  0  0  0  0  0  0  0  0
  -22.9860  -13.5220   21.2490 C   0  0  0  0  0  0  0  0  0  0  0  0
  -22.2730  -12.8270   22.1250 N   0  0  0  0  0  0  0  0  0  0  0  0
  -22.5550  -14.5710   20.7680 O   0  0  0  0  0  0  0  0  0  0  0  0
  -22.6270  -11.9760   22.5370 H   0  0  0  0  0  0  0  0  0  0  0  0
  -21.3520  -13.1500   22.3870 H   0  0  0  0  0  0  0  0  0  0  0  0
  -25.6290  -15.1470   20.3720 N   0  0  0  0  0  0  0  0  0  0  0  0
  -24.8920  -15.8230   20.5360 H   0  0  0  0  0  0  0  0  0  0  0  0
  -26.4800  -15.5650   20.0210 H   0  0  0  0  0  0  0  0  0  0  0  0
  -28.7650  -22.6510   19.5310 C   0  0  0  0  0  3  0  0  0  0  0  0
  -29.1340  -23.9230   19.8860 C   0  0  0  0  0  3  0  0  0  0  0  0
  -28.2970  -25.1170   19.3730 C   0  0  0  0  0  2  0  0  0  0  0  0
  -28.6130  -26.5240   19.6830 O   0  0  0  0  0  0  0  0  0  0  0  0
  -24.7000  -31.5800   23.0290 C   0  0  0  0  0  0  0  0  0  0  0  0
  -27.4880  -27.3710   19.6620 C   0  0  0  0  0  0  0  0  0  0  0  0
  -23.5610  -30.2940   21.2570 C   0  0  0  0  0  3  0  0  0  0  0  0
  -25.0800  -28.9120   19.7400 C   0  0  0  0  0  0  0  0  0  0  0  0
  -26.0950  -30.6980   21.1470 C   0  0  0  0  0  2  0  0  0  0  0  0
  -26.2280  -29.3810   20.3950 C   0  0  0  0  0  0  0  0  0  0  0  0
  -27.4330  -28.6210   20.3540 C   0  0  0  0  0  3  0  0  0  0  0  0
  -26.3120  -26.9680   18.9810 C   0  0  0  0  0  3  0  0  0  0  0  0
  -25.1220  -27.7100   19.0280 C   0  0  0  0  0  3  0  0  0  0  0  0
  -23.8160  -29.7390   19.8320 C   0  0  0  0  0  2  0  0  0  0  0  0
  -24.8030  -30.8690   21.8690 N   0  0  0  0  0  0  0  0  0  0  0  0
  -23.6000  -31.7830   23.5630 O   0  0  0  0  0  0  0  0  0  0  0  0
  -22.9150  -29.1780   22.1150 C   0  0  0  0  0  0  0  0  0  0  0  0
  -21.5840  -29.0270   22.0090 N   0  0  0  0  0  0  0  0  0  0  0  0
  -23.6090  -28.4580   22.8370 O   0  0  0  0  0  0  0  0  0  0  0  0
  -21.0790  -29.6850   21.4320 H   0  0  0  0  0  0  0  0  0  0  0  0
  -18.1970  -27.8620   22.5460 C   0  0  0  0  0  0  0  0  0  0  0  0
  -20.7740  -28.0110   22.6870 C   0  0  0  0  0  3  0  0  0  0  0  0
  -20.7890  -26.6680   21.9200 C   0  0  0  0  0  2  0  0  0  0  0  0
  -19.6180  -26.5110   20.9450 C   0  0  0  0  0  2  0  0  0  0  0  0
  -18.2810  -26.6140   21.6840 C   0  0  0  0  0  2  0  0  0  0  0  0
  -19.3650  -28.5280   23.0010 C   0  0  0  0  0  0  0  0  0  0  0  0
  -19.2280  -29.7050   23.7660 C   0  0  0  0  0  3  0  0  0  0  0  0
  -17.9540  -30.2200   24.0740 C   0  0  0  0  0  3  0  0  0  0  0  0
  -16.8010  -29.5470   23.6340 C   0  0  0  0  0  3  0  0  0  0  0  0
  -16.9240  -28.3680   22.8800 C   0  0  0  0  0  3  0  0  0  0  0  0
  -25.9530  -32.1950   23.7260 C   0  0  0  0  0  3  0  0  0  0  0  0
  -26.4270  -31.3750   24.9900 C   0  0  1  0  0  0  0  0  0  0  0  0
  -25.2970  -31.0870   26.0050 C   0  0  0  0  0  1  0  0  0  0  0  0
  -27.0340  -30.0170   24.5650 C   0  0  0  0  0  1  0  0  0  0  0  0
  -27.5490  -32.1450   25.7260 C   0  0  0  0  0  1  0  0  0  0  0  0
  -25.6230  -33.5770   24.0990 N   0  0  0  0  0  0  0  0  0  0  0  0
  -25.9370  -34.6570   23.3690 C   0  0  0  0  0  0  0  0  0  0  0  0
  -26.6120  -34.5920   22.3370 O   0  0  0  0  0  0  0  0  0  0  0  0
  -25.0380  -33.7030   24.9120 H   0  0  0  0  0  0  0  0  0  0  0  0
  -24.1740  -36.4220   23.0640 C   0  0  0  0  0  1  0  0  0  0  0  0
  -25.4250  -36.0220   23.8610 C   0  0  0  0  0  3  0  0  0  0  0  0
  -27.5450  -36.9270   24.7080 C   0  0  0  0  0  1  0  0  0  0  0  0
  -26.4360  -37.0990   23.7730 N   0  0  0  0  0  0  0  0  0  0  0  0
  -26.0110  -38.0060   23.9460 H   0  0  0  0  0  0  0  0  0  0  0  0
  -26.7490  -20.0530   17.8380 C   0  0  0  0  0  1  0  0  0  0  0  0
  -26.9280  -20.2790   19.3450 C   0  0  0  0  0  2  0  0  0  0  0  0
  2  3  2  0
  3  8  1  0
  3  1  1  0
  4  5  1  0
  5  1  2  0
  6  4  2  0
  6  2  1  0
  7  5  1  0
  8  9  2  0
 10 16  1  0
 10  9  1  0
 11 16  1  0
 12 13  1  0
 12 11  1  0
 14 13  1  0
 14 21  1  0
 14 15  1  0
 16 15  1  0
 17 10  2  0
 18 19  2  0
 19 38  1  0
 20 19  1  0
 20 23  1  0
 21 22  1  0
 21 18  1  0
 22 20  2  0
 23 24  1  0
 24 25  2  0
 26 29  1  0
 26 25  1  0
 27 26  2  0
 28 27  1  0
 28 23  2  0
 29 30  1  0
 30 31  1  0
 31 32  2  0
 33 32  1  0
 33 37  1  0
 34 33  2  0
 35 30  2  0
 35 34  1  0
 36 35  1  0
 38 39  1  0
 39 42  1  0
 39 41  1  0
 40 38  2  0
 43 18  1  0
 43 44  1  0
 45 43  1  0
 46  4  1  0
 46 47  2  0
 48 49  1  0
 48 47  1  0
 50 61  2  0
 51 49  1  0
 51 56  1  0
 52 60  1  0
 52 62  1  0
 53 59  1  0
 53 55  1  0
 54 60  1  0
 55 54  1  0
 56 55  2  0
 57 58  1  0
 57 51  2  0
 58 53  2  0
 59 52  1  0
 60 50  1  0
 62 64  2  0
 63 62  1  0
 65 63  1  0
 66 75  2  0
 66 71  1  0
 67 63  1  0
 67 71  1  0
 68 67  1  0
 69 70  1  0
 69 68  1  0
 70 66  1  0
 71 72  2  0
 72 73  1  0
 74 73  2  0
 75 74  1  0
 76 50  1  0
 76 81  1  0
 76 77  1  0
 77 80  1  1
 77 78  1  0
 79 77  1  0
 81 84  1  0
 82 86  1  0
 82 81  1  0
 83 82  2  0
 86 85  1  0
 88 86  1  0
 88 89  1  0
 88 87  1  0
 90 91  1  0
 91  6  1  0
M  ISO  4   9 100  10 100  48 101  49 101
M  END
>  <TORSDO>  (67) 
F 20

>  <SCORE>  (67) 
-12.914

>  <name>  (67) 
66

>  <ligand_id>  (67) 
66

>  <original_smiles>  (67) 
[H]C(C(=O)N1C([H])([H])C([H])([H])C([H])([H])C([H])(n2nc(-c3c([H])c([H])c(Oc4c([H])c([H])c(F)c([H])c4F)c([H])c3[H])c(C(=O)N([H])[H])c2N([H])[H])C1([H])[H])=C([H])c1c([H])c(C([H])([H])[H])c(C([H])=C([H])C([H])([H])Oc2c([H])c([H])c3c(c2[H])C([H])([H])N(C(=O)C([H])(N([H])C(=O)C([H])(N([H])C([H])([H])[H])C([H])([H])[H])C(C([H])([H])[H])(C([H])([H])[H])C([H])([H])[H])C([H])(C(=O)N([H])C2([H])c4c([H])c([H])c([H])c([H])c4C([H])([H])C([H])([H])C2([H])[H])C3([H])[H])c(C([H])([H])C([H])([H])[H])c1[H]

>  <smiles>  (67) 
[H]C(C(=O)N1C([H])([H])C([H])([H])C([H])([H])C([H])(n2nc(-c3c([H])c([H])c(Oc4c([H])c([H])c(F)c([H])c4F)c([H])c3[H])c(C(=O)N([H])[H])c2N([H])[H])C1([H])[H])=C([H])c1c([H])c(C([H])([H])[H])c(C([H])=C([H])C([H])([H])Oc2c([H])c([H])c3c(c2[H])C([H])([H])N(C(=O)C([H])(N([H])C(=O)C([H])(N([H])C([H])([H])[H])C([H])([H])[H])C(C([H])([H])[H])(C([H])([H])[H])C([H])([H])[H])C([H])(C(=O)N([H])C2([H])c4c([H])c([H])c([H])c([H])c4C([H])([H])C([H])([H])C2([H])[H])C3([H])[H])c(C([H])([H])C([H])([H])[H])c1[H]

$$$$
67:0:0
     RDKit          3D

 90 98  0  0  1  0  0  0  0  0999 V2000
  -29.0850  -20.5330   20.8370 C   0  0  0  0  0  3  0  0  0  0  0  0
  -29.4950  -21.8070   20.6470 C   0  0  0  0  0  3  0  0  0  0  0  0
  -30.9880  -18.3710   18.3560 C   0  0  0  0  0  3  0  0  0  0  0  0
  -30.4160  -19.4860   18.9870 C   0  0  0  0  0  3  0  0  0  0  0  0
  -30.8260  -17.0900   18.9040 C   0  0  0  0  0  3  0  0  0  0  0  0
  -29.5020  -18.0340   20.7170 C   0  0  0  0  0  3  0  0  0  0  0  0
  -29.6570  -19.3380   20.1680 C   0  0  0  0  0  0  0  0  0  0  0  0
  -30.0990  -16.8970   20.1060 C   0  0  0  0  0  0  0  0  0  0  0  0
  -30.6600  -14.4890   20.4040 C   0  0  0  0  0  0  0  0  0  0  0  0
  -30.3460  -12.3130   19.3220 C   0  0  0  0  0  2  0  0  0  0  0  0
  -29.4130  -12.5300   18.1110 C   0  0  0  0  0  2  0  0  0  0  0  0
  -27.9360  -12.4120   18.5340 C   0  0  0  0  0  2  0  0  0  0  0  0
  -27.6000  -13.2520   19.7970 C   0  0  0  0  0  3  0  0  0  0  0  0
  -28.6550  -13.0440   20.9070 C   0  0  0  0  0  2  0  0  0  0  0  0
  -29.9810  -13.3150   20.3350 N   0  0  0  0  0  0  0  0  0  0  0  0
  -31.8400  -14.5890   20.0570 O   0  0  0  0  0  0  0  0  0  0  0  0
  -29.9160  -15.5850   20.6720 N   0  0  0  0  0  0  0  0  0  0  0  0
  -29.0350  -15.4150   21.1310 H   0  0  0  0  0  0  0  0  0  0  0  0
  -25.2020  -13.8620   20.5040 C   0  0  0  0  0  0  0  0  0  0  0  0
  -24.1330  -13.0910   20.8760 C   0  0  0  0  0  0  0  0  0  0  0  0
  -24.5940  -11.7400   20.8550 C   0  0  0  0  0  0  0  0  0  0  0  0
  -26.2480  -12.9790   20.2780 N   0  0  0  0  0  0  0  0  0  0  0  0
  -25.8850  -11.6990   20.5490 N   0  0  0  0  0  0  0  0  0  0  0  0
  -23.8670  -10.4790   21.0490 C   0  0  0  0  0  0  0  0  0  0  0  0
  -24.3050   -9.5090   21.9770 C   0  0  0  0  0  3  0  0  0  0  0  0
  -23.5790   -8.3120   22.1590 C   0  0  0  0  0  3  0  0  0  0  0  0
  -22.3990   -8.0780   21.4140 C   0  0  0  0  0  0  0  0  0  0  0  0
  -21.9800   -9.0360   20.4740 C   0  0  0  0  0  3  0  0  0  0  0  0
  -22.7080  -10.2240   20.2890 C   0  0  0  0  0  3  0  0  0  0  0  0
  -21.6440   -6.9330   21.5060 O   0  0  0  0  0  0  0  0  0  0  0  0
  -21.6140   -6.1800   22.6530 C   0  0  0  0  0  0  0  0  0  0  0  0
  -21.2180   -6.7270   23.8930 C   0  0  0  0  0  3  0  0  0  0  0  0
  -21.1340   -5.9020   25.0320 C   0  0  0  0  0  3  0  0  0  0  0  0
  -21.4360   -4.5300   24.9320 C   0  0  0  0  0  0  0  0  0  0  0  0
  -21.8250   -3.9830   23.6970 C   0  0  0  0  0  3  0  0  0  0  0  0
  -21.9100   -4.8060   22.5600 C   0  0  0  0  0  0  0  0  0  0  0  0
  -22.2640   -4.2680   21.3680 F   0  0  0  0  0  0  0  0  0  0  0  0
  -21.3480   -3.7350   26.0240 F   0  0  0  0  0  0  0  0  0  0  0  0
  -22.7340  -13.5700   21.1410 C   0  0  0  0  0  0  0  0  0  0  0  0
  -22.0030  -12.8800   22.0090 N   0  0  0  0  0  0  0  0  0  0  0  0
  -22.2980  -14.5920   20.6120 O   0  0  0  0  0  0  0  0  0  0  0  0
  -22.3690  -12.0550   22.4620 H   0  0  0  0  0  0  0  0  0  0  0  0
  -21.0630  -13.1830   22.2250 H   0  0  0  0  0  0  0  0  0  0  0  0
  -25.3680  -15.2300   20.3160 N   0  0  0  0  0  0  0  0  0  0  0  0
  -24.5990  -15.8850   20.4160 H   0  0  0  0  0  0  0  0  0  0  0  0
  -26.2130  -15.6650   19.9680 H   0  0  0  0  0  0  0  0  0  0  0  0
  -28.9110  -23.0490   21.3070 C   0  0  0  0  0  2  0  0  0  0  0  0
  -28.8200  -24.2690   20.3560 C   0  0  0  0  0  2  0  0  0  0  0  0
  -28.3410  -25.5580   21.0600 C   0  0  0  0  0  2  0  0  0  0  0  0
  -28.4070  -26.7090   20.2040 O   0  0  0  0  0  0  0  0  0  0  0  0
  -24.5970  -31.8940   23.2430 C   0  0  0  0  0  0  0  0  0  0  0  0
  -27.2550  -27.4580   20.1880 C   0  0  0  0  0  0  0  0  0  0  0  0
  -23.3970  -30.4830   21.6030 C   0  0  0  0  0  3  0  0  0  0  0  0
  -24.8590  -28.9480   20.1820 C   0  0  0  0  0  0  0  0  0  0  0  0
  -25.9200  -30.8550   21.4060 C   0  0  0  0  0  2  0  0  0  0  0  0
  -26.0130  -29.4840   20.7680 C   0  0  0  0  0  0  0  0  0  0  0  0
  -27.2190  -28.7480   20.7650 C   0  0  0  0  0  3  0  0  0  0  0  0
  -26.0890  -26.9320   19.5980 C   0  0  0  0  0  3  0  0  0  0  0  0
  -24.8910  -27.6720   19.5900 C   0  0  0  0  0  3  0  0  0  0  0  0
  -23.6100  -29.8010   20.2250 C   0  0  0  0  0  2  0  0  0  0  0  0
  -24.6560  -31.0920   22.1430 N   0  0  0  0  0  0  0  0  0  0  0  0
  -23.5150  -32.1650   23.7820 O   0  0  0  0  0  0  0  0  0  0  0  0
  -22.7480  -29.4620   22.5660 C   0  0  0  0  0  0  0  0  0  0  0  0
  -21.4240  -29.2800   22.4420 N   0  0  0  0  0  0  0  0  0  0  0  0
  -23.4350  -28.8380   23.3800 O   0  0  0  0  0  0  0  0  0  0  0  0
  -20.9330  -29.8350   21.7560 H   0  0  0  0  0  0  0  0  0  0  0  0
  -18.0500  -28.0940   22.9480 C   0  0  0  0  0  0  0  0  0  0  0  0
  -20.6090  -28.3430   23.2120 C   0  0  0  0  0  3  0  0  0  0  0  0
  -20.7060  -26.9130   22.6330 C   0  0  0  0  0  2  0  0  0  0  0  0
  -19.5990  -26.5960   21.6230 C   0  0  0  0  0  2  0  0  0  0  0  0
  -18.2200  -26.7450   22.2720 C   0  0  0  0  0  2  0  0  0  0  0  0
  -19.1720  -28.8510   23.3770 C   0  0  0  0  0  0  0  0  0  0  0  0
  -18.9600  -30.1150   23.9690 C   0  0  0  0  0  3  0  0  0  0  0  0
  -17.6570  -30.6220   24.1370 C   0  0  0  0  0  3  0  0  0  0  0  0
  -16.5490  -29.8610   23.7260 C   0  0  0  0  0  3  0  0  0  0  0  0
  -16.7460  -28.5990   23.1380 C   0  0  0  0  0  3  0  0  0  0  0  0
  -25.8800  -32.5300   23.8620 C   0  0  0  0  0  3  0  0  0  0  0  0
  -26.3980  -31.7680   25.1420 C   0  0  1  0  0  0  0  0  0  0  0  0
  -25.3040  -31.5350   26.2110 C   0  0  0  0  0  1  0  0  0  0  0  0
  -26.9840  -30.3890   24.7570 C   0  0  0  0  0  1  0  0  0  0  0  0
  -27.5460  -32.5680   25.8010 C   0  0  0  0  0  1  0  0  0  0  0  0
  -25.5690  -33.9300   24.1800 N   0  0  0  0  0  0  0  0  0  0  0  0
  -25.9060  -34.9760   23.4160 C   0  0  0  0  0  0  0  0  0  0  0  0
  -26.5830  -34.8670   22.3900 O   0  0  0  0  0  0  0  0  0  0  0  0
  -24.9670  -34.0910   24.9740 H   0  0  0  0  0  0  0  0  0  0  0  0
  -24.1800  -36.7660   23.0370 C   0  0  0  0  0  1  0  0  0  0  0  0
  -25.4150  -36.3680   23.8600 C   0  0  0  0  0  3  0  0  0  0  0  0
  -27.5450  -37.2570   24.6990 C   0  0  0  0  0  1  0  0  0  0  0  0
  -26.4490  -37.4200   23.7470 N   0  0  0  0  0  0  0  0  0  0  0  0
  -26.0420  -38.3410   23.8870 H   0  0  0  0  0  0  0  0  0  0  0  0
  2  1  2  0
  2 47  1  0
  3  5  2  0
  3  4  1  0
  4  7  2  0
  5  8  1  0
  7  6  1  0
  7  1  1  0
  8 17  1  0
  8  6  2  0
  9 17  1  0
 10 15  1  0
 11 12  1  0
 11 10  1  0
 13 12  1  0
 13 22  1  0
 13 14  1  0
 15  9  1  0
 15 14  1  0
 16  9  2  0
 17 18  1  0
 19 20  2  0
 20 39  1  0
 21 20  1  0
 21 24  1  0
 22 19  1  0
 22 23  1  0
 23 21  2  0
 24 25  1  0
 25 26  2  0
 27 30  1  0
 27 26  1  0
 28 27  2  0
 29 28  1  0
 29 24  2  0
 30 31  1  0
 31 32  1  0
 32 33  2  0
 34 33  1  0
 34 38  1  0
 35 34  2  0
 36 31  2  0
 36 35  1  0
 37 36  1  0
 39 40  1  0
 40 43  1  0
 40 42  1  0
 41 39  2  0
 44 45  1  0
 44 19  1  0
 46 44  1  0
 48 49  1  0
 48 47  1  0
 50 49  1  0
 51 62  2  0
 52 50  1  0
 52 57  1  0
 53 61  1  0
 53 63  1  0
 54 60  1  0
 54 56  1  0
 55 61  1  0
 56 55  1  0
 57 56  2  0
 58 52  2  0
 59 58  1  0
 59 54  2  0
 60 53  1  0
 61 51  1  0
 63 65  2  0
 64 63  1  0
 66 64  1  0
 67 76  2  0
 67 72  1  0
 68 64  1  0
 68 72  1  0
 69 68  1  0
 70 71  1  0
 70 69  1  0
 71 67  1  0
 72 73  2  0
 73 74  1  0
 75 74  2  0
 76 75  1  0
 77 51  1  0
 77 82  1  0
 77 78  1  0
 78 81  1  1
 78 79  1  0
 80 78  1  0
 82 85  1  0
 83 87  1  0
 83 82  1  0
 84 83  2  0
 87 86  1  0
 89 87  1  0
 89 90  1  0
 89 88  1  0
M  ISO  4   9 100  17 100  49 101  50 101
M  END
>  <TORSDO>  (68) 
F 20

>  <SCORE>  (68) 
-13.930

>  <name>  (68) 
67

>  <ligand_id>  (68) 
67

>  <original_smiles>  (68) 
[H]C(=C([H])C([H])([H])C([H])([H])C([H])([H])Oc1c([H])c([H])c2c(c1[H])C([H])([H])N(C(=O)C([H])(N([H])C(=O)C([H])(N([H])C([H])([H])[H])C([H])([H])[H])C(C([H])([H])[H])(C([H])([H])[H])C([H])([H])[H])C([H])(C(=O)N([H])C1([H])c3c([H])c([H])c([H])c([H])c3C([H])([H])C([H])([H])C1([H])[H])C2([H])[H])c1c([H])c([H])c([H])c(N([H])C(=O)N2C([H])([H])C([H])([H])C([H])([H])C([H])(n3nc(-c4c([H])c([H])c(Oc5c([H])c([H])c(F)c([H])c5F)c([H])c4[H])c(C(=O)N([H])[H])c3N([H])[H])C2([H])[H])c1[H]

>  <smiles>  (68) 
[H]C(=C([H])C([H])([H])C([H])([H])C([H])([H])Oc1c([H])c([H])c2c(c1[H])C([H])([H])N(C(=O)C([H])(N([H])C(=O)C([H])(N([H])C([H])([H])[H])C([H])([H])[H])C(C([H])([H])[H])(C([H])([H])[H])C([H])([H])[H])C([H])(C(=O)N([H])C1([H])c3c([H])c([H])c([H])c([H])c3C([H])([H])C([H])([H])C1([H])[H])C2([H])[H])c1c([H])c([H])c([H])c(N([H])C(=O)N2C([H])([H])C([H])([H])C([H])([H])C([H])(n3nc(-c4c([H])c([H])c(Oc5c([H])c([H])c(F)c([H])c5F)c([H])c4[H])c(C(=O)N([H])[H])c3N([H])[H])C2([H])[H])c1[H]

$$$$
68:0:0
     RDKit          3D

 91 99  0  0  1  0  0  0  0  0999 V2000
  -29.4780  -20.8010   21.2790 C   0  0  0  0  0  3  0  0  0  0  0  0
  -29.0460  -21.8470   20.5120 C   0  0  0  0  0  3  0  0  0  0  0  0
  -30.6770  -19.7390   19.4210 C   0  0  0  0  0  3  0  0  0  0  0  0
  -31.0260  -18.6540   18.6160 C   0  0  0  0  0  3  0  0  0  0  0  0
  -29.9080  -18.2100   21.1470 C   0  0  0  0  0  3  0  0  0  0  0  0
  -30.0430  -19.5530   20.6600 C   0  0  0  0  0  0  0  0  0  0  0  0
  -30.7820  -17.3360   19.0320 C   0  0  0  0  0  0  0  0  0  0  0  0
  -30.2890  -17.0750   20.3470 C   0  0  0  0  0  0  0  0  0  0  0  0
  -30.9620  -16.2660   17.9660 C   0  0  0  0  0  1  0  0  0  0  0  0
  -30.7980  -14.6090   20.5760 C   0  0  0  0  0  0  0  0  0  0  0  0
  -30.5600  -12.4070   19.4880 C   0  0  0  0  0  2  0  0  0  0  0  0
  -29.6900  -12.5700   18.2240 C   0  0  0  0  0  2  0  0  0  0  0  0
  -28.1820  -12.5060   18.5590 C   0  0  0  0  0  2  0  0  0  0  0  0
  -27.7810  -13.3110   19.8280 C   0  0  0  0  0  3  0  0  0  0  0  0
  -28.7920  -13.1130   20.9810 C   0  0  0  0  0  2  0  0  0  0  0  0
  -30.1280  -13.4260   20.4590 N   0  0  0  0  0  0  0  0  0  0  0  0
  -31.9920  -14.7050   20.3020 O   0  0  0  0  0  0  0  0  0  0  0  0
  -30.0410  -15.7190   20.8110 N   0  0  0  0  0  0  0  0  0  0  0  0
  -29.1280  -15.5490   21.2020 H   0  0  0  0  0  0  0  0  0  0  0  0
  -25.3510  -13.8890   20.4470 C   0  0  0  0  0  0  0  0  0  0  0  0
  -24.2800  -13.1110   20.7960 C   0  0  0  0  0  0  0  0  0  0  0  0
  -24.7560  -11.7630   20.8020 C   0  0  0  0  0  0  0  0  0  0  0  0
  -26.4120  -13.0180   20.2570 N   0  0  0  0  0  0  0  0  0  0  0  0
  -26.0550  -11.7340   20.5240 N   0  0  0  0  0  0  0  0  0  0  0  0
  -24.0350  -10.4980   20.9970 C   0  0  0  0  0  0  0  0  0  0  0  0
  -24.4500   -9.5500   21.9600 C   0  0  0  0  0  3  0  0  0  0  0  0
  -23.7310   -8.3480   22.1380 C   0  0  0  0  0  3  0  0  0  0  0  0
  -22.5800   -8.0880   21.3560 C   0  0  0  0  0  0  0  0  0  0  0  0
  -22.1830   -9.0250   20.3870 C   0  0  0  0  0  3  0  0  0  0  0  0
  -22.9040  -10.2170   20.2060 C   0  0  0  0  0  3  0  0  0  0  0  0
  -21.8330   -6.9370   21.4430 O   0  0  0  0  0  0  0  0  0  0  0  0
  -21.7560   -6.2120   22.6030 C   0  0  0  0  0  0  0  0  0  0  0  0
  -21.2850   -6.7800   23.8080 C   0  0  0  0  0  3  0  0  0  0  0  0
  -21.1560   -5.9800   24.9590 C   0  0  0  0  0  3  0  0  0  0  0  0
  -21.4870   -4.6120   24.9120 C   0  0  0  0  0  0  0  0  0  0  0  0
  -21.9520   -4.0450   23.7120 C   0  0  0  0  0  3  0  0  0  0  0  0
  -22.0820   -4.8400   22.5620 C   0  0  0  0  0  0  0  0  0  0  0  0
  -22.5090   -4.2810   21.4020 F   0  0  0  0  0  0  0  0  0  0  0  0
  -21.3600   -3.8430   26.0170 F   0  0  0  0  0  0  0  0  0  0  0  0
  -22.8730  -13.5780   21.0300 C   0  0  0  0  0  0  0  0  0  0  0  0
  -22.1270  -12.8870   21.8870 N   0  0  0  0  0  0  0  0  0  0  0  0
  -22.4390  -14.5930   20.4850 O   0  0  0  0  0  0  0  0  0  0  0  0
  -22.4940  -12.0670   22.3460 H   0  0  0  0  0  0  0  0  0  0  0  0
  -21.1840  -13.1870   22.0940 H   0  0  0  0  0  0  0  0  0  0  0  0
  -25.5160  -15.2600   20.2640 N   0  0  0  0  0  0  0  0  0  0  0  0
  -24.7490  -15.9190   20.3420 H   0  0  0  0  0  0  0  0  0  0  0  0
  -26.3880  -15.6930   19.9870 H   0  0  0  0  0  0  0  0  0  0  0  0
  -28.5410  -23.2350   20.9420 C   0  0  0  0  0  2  0  0  0  0  0  0
  -27.9170  -24.1060   19.7920 C   0  0  0  0  0  2  0  0  0  0  0  0
  -28.5900  -25.4690   19.3930 C   0  0  0  0  0  2  0  0  0  0  0  0
  -28.3910  -26.6510   20.2050 O   0  0  0  0  0  0  0  0  0  0  0  0
  -24.5840  -31.8670   23.2320 C   0  0  0  0  0  0  0  0  0  0  0  0
  -27.2240  -27.4000   20.1330 C   0  0  0  0  0  0  0  0  0  0  0  0
  -23.3770  -30.4740   21.5820 C   0  0  0  0  0  3  0  0  0  0  0  0
  -24.8310  -28.9380   20.1480 C   0  0  0  0  0  0  0  0  0  0  0  0
  -25.9060  -30.8150   21.3970 C   0  0  0  0  0  2  0  0  0  0  0  0
  -25.9880  -29.4480   20.7470 C   0  0  0  0  0  0  0  0  0  0  0  0
  -27.1820  -28.6820   20.7430 C   0  0  0  0  0  3  0  0  0  0  0  0
  -26.0480  -26.9260   19.5070 C   0  0  0  0  0  3  0  0  0  0  0  0
  -24.8590  -27.6780   19.5250 C   0  0  0  0  0  3  0  0  0  0  0  0
  -23.5860  -29.7920   20.2010 C   0  0  0  0  0  2  0  0  0  0  0  0
  -24.6400  -31.0730   22.1250 N   0  0  0  0  0  0  0  0  0  0  0  0
  -23.5040  -32.1370   23.7760 O   0  0  0  0  0  0  0  0  0  0  0  0
  -22.7260  -29.4520   22.5420 C   0  0  0  0  0  0  0  0  0  0  0  0
  -21.4000  -29.2770   22.4210 N   0  0  0  0  0  0  0  0  0  0  0  0
  -23.4100  -28.8210   23.3540 O   0  0  0  0  0  0  0  0  0  0  0  0
  -20.9160  -29.8360   21.7330 H   0  0  0  0  0  0  0  0  0  0  0  0
  -18.0200  -28.1000   22.9250 C   0  0  0  0  0  0  0  0  0  0  0  0
  -20.5810  -28.3380   23.1860 C   0  0  0  0  0  3  0  0  0  0  0  0
  -20.6700  -26.9140   22.5930 C   0  0  0  0  0  2  0  0  0  0  0  0
  -19.5620  -26.6090   21.5810 C   0  0  0  0  0  2  0  0  0  0  0  0
  -18.1830  -26.7590   22.2280 C   0  0  0  0  0  2  0  0  0  0  0  0
  -19.1460  -28.8490   23.3570 C   0  0  0  0  0  0  0  0  0  0  0  0
  -18.9390  -30.1060   23.9640 C   0  0  0  0  0  3  0  0  0  0  0  0
  -17.6390  -30.6130   24.1460 C   0  0  0  0  0  3  0  0  0  0  0  0
  -16.5270  -29.8600   23.7320 C   0  0  0  0  0  3  0  0  0  0  0  0
  -16.7190  -28.6050   23.1260 C   0  0  0  0  0  3  0  0  0  0  0  0
  -25.8710  -32.4940   23.8560 C   0  0  0  0  0  3  0  0  0  0  0  0
  -26.3830  -31.7220   25.1350 C   0  0  1  0  0  0  0  0  0  0  0  0
  -25.2880  -31.4960   26.2020 C   0  0  0  0  0  1  0  0  0  0  0  0
  -26.9600  -30.3400   24.7490 C   0  0  0  0  0  1  0  0  0  0  0  0
  -27.5330  -32.5130   25.7990 C   0  0  0  0  0  1  0  0  0  0  0  0
  -25.5670  -33.8920   24.1860 N   0  0  0  0  0  0  0  0  0  0  0  0
  -25.8970  -34.9460   23.4280 C   0  0  0  0  0  0  0  0  0  0  0  0
  -26.5660  -34.8430   22.3950 O   0  0  0  0  0  0  0  0  0  0  0  0
  -24.9790  -34.0440   24.9930 H   0  0  0  0  0  0  0  0  0  0  0  0
  -24.1760  -36.7450   23.0650 C   0  0  0  0  0  1  0  0  0  0  0  0
  -25.4090  -36.3340   23.8870 C   0  0  0  0  0  3  0  0  0  0  0  0
  -27.5410  -37.2130   24.7310 C   0  0  0  0  0  1  0  0  0  0  0  0
  -26.4420  -37.3870   23.7840 N   0  0  0  0  0  0  0  0  0  0  0  0
  -26.0340  -38.3060   23.9380 H   0  0  0  0  0  0  0  0  0  0  0  0
  2 48  1  0
  2  1  2  0
  3  6  1  0
  4  7  1  0
  4  3  2  0
  6  5  2  0
  6  1  1  0
  7  8  2  0
  8 18  1  0
  8  5  1  0
  9  7  1  0
 10 18  1  0
 11 16  1  0
 12 13  1  0
 12 11  1  0
 14 13  1  0
 14 23  1  0
 14 15  1  0
 16 10  1  0
 16 15  1  0
 17 10  2  0
 18 19  1  0
 20 21  2  0
 21 22  1  0
 21 40  1  0
 22 25  1  0
 23 20  1  0
 23 24  1  0
 24 22  2  0
 25 26  1  0
 26 27  2  0
 28 31  1  0
 28 27  1  0
 29 28  2  0
 30 29  1  0
 30 25  2  0
 31 32  1  0
 32 33  1  0
 33 34  2  0
 35 34  1  0
 35 39  1  0
 36 35  2  0
 37 32  2  0
 37 36  1  0
 38 37  1  0
 40 41  1  0
 41 44  1  0
 41 43  1  0
 42 40  2  0
 45 46  1  0
 45 20  1  0
 47 45  1  0
 49 48  1  0
 50 49  1  0
 50 51  1  0
 52 63  2  0
 53 51  1  0
 53 58  1  0
 54 62  1  0
 54 64  1  0
 55 61  1  0
 55 57  1  0
 56 62  1  0
 57 56  1  0
 58 57  2  0
 59 60  1  0
 59 53  2  0
 60 55  2  0
 61 54  1  0
 62 52  1  0
 64 66  2  0
 65 64  1  0
 67 65  1  0
 68 77  2  0
 68 73  1  0
 69 65  1  0
 69 73  1  0
 70 69  1  0
 71 72  1  0
 71 70  1  0
 72 68  1  0
 73 74  2  0
 74 75  1  0
 76 75  2  0
 77 76  1  0
 78 52  1  0
 78 83  1  0
 78 79  1  0
 79 82  1  1
 79 80  1  0
 81 79  1  0
 83 86  1  0
 84 88  1  0
 84 83  1  0
 85 84  2  0
 88 87  1  0
 90 88  1  0
 90 91  1  0
 90 89  1  0
M  ISO  4  10 100  18 100  50 101  51 101
M  END
>  <TORSDO>  (69) 
F 20

>  <SCORE>  (69) 
-13.546

>  <name>  (69) 
68

>  <ligand_id>  (69) 
68

>  <original_smiles>  (69) 
[H]C(=C([H])C([H])([H])C([H])([H])C([H])([H])Oc1c([H])c([H])c2c(c1[H])C([H])([H])N(C(=O)C([H])(N([H])C(=O)C([H])(N([H])C([H])([H])[H])C([H])([H])[H])C(C([H])([H])[H])(C([H])([H])[H])C([H])([H])[H])C([H])(C(=O)N([H])C1([H])c3c([H])c([H])c([H])c([H])c3C([H])([H])C([H])([H])C1([H])[H])C2([H])[H])c1c([H])c([H])c(C([H])([H])[H])c(N([H])C(=O)N2C([H])([H])C([H])([H])C([H])([H])C([H])(n3nc(-c4c([H])c([H])c(Oc5c([H])c([H])c(F)c([H])c5F)c([H])c4[H])c(C(=O)N([H])[H])c3N([H])[H])C2([H])[H])c1[H]

>  <smiles>  (69) 
[H]C(=C([H])C([H])([H])C([H])([H])C([H])([H])Oc1c([H])c([H])c2c(c1[H])C([H])([H])N(C(=O)C([H])(N([H])C(=O)C([H])(N([H])C([H])([H])[H])C([H])([H])[H])C(C([H])([H])[H])(C([H])([H])[H])C([H])([H])[H])C([H])(C(=O)N([H])C1([H])c3c([H])c([H])c([H])c([H])c3C([H])([H])C([H])([H])C1([H])[H])C2([H])[H])c1c([H])c([H])c(C([H])([H])[H])c(N([H])C(=O)N2C([H])([H])C([H])([H])C([H])([H])C([H])(n3nc(-c4c([H])c([H])c(Oc5c([H])c([H])c(F)c([H])c5F)c([H])c4[H])c(C(=O)N([H])[H])c3N([H])[H])C2([H])[H])c1[H]

$$$$
69:0:0
     RDKit          3D

 95103  0  0  1  0  0  0  0  0999 V2000
  -28.3490  -22.2040   21.3300 C   0  0  0  0  0  0  0  0  0  0  0  0
  -27.2730  -22.3480   22.1000 N   0  0  0  0  0  4  0  0  0  0  0  0
  -28.8240  -23.2680   20.6550 N   0  0  0  0  0  0  0  0  0  0  0  0
  -26.9850  -21.5620   22.6630 H   0  0  0  0  0  0  0  0  0  0  0  0
  -26.8330  -23.2370   22.2670 H   0  0  0  0  0  0  0  0  0  0  0  0
  -29.6530  -23.1080   20.0930 H   0  0  0  0  0  0  0  0  0  0  0  0
  -28.7330  -18.5180   20.5460 C   0  0  0  0  0  3  0  0  0  0  0  0
  -28.1920  -19.8130   20.7020 C   0  0  0  0  0  3  0  0  0  0  0  0
  -30.8360  -19.2940   21.4730 C   0  0  0  0  0  3  0  0  0  0  0  0
  -30.0760  -18.2530   20.8940 C   0  0  0  0  0  0  0  0  0  0  0  0
  -28.9730  -20.8700   21.2260 C   0  0  0  0  0  0  0  0  0  0  0  0
  -30.3020  -20.5960   21.6500 C   0  0  0  0  0  0  0  0  0  0  0  0
  -31.1650  -21.6500   22.3300 C   0  0  0  0  0  1  0  0  0  0  0  0
  -30.7230  -16.9510   20.6160 C   0  0  0  0  0  3  0  0  0  0  0  0
  -30.1210  -15.7450   20.4910 C   0  0  0  0  0  3  0  0  0  0  0  0
  -30.8800  -14.5890   20.0070 C   0  0  0  0  0  0  0  0  0  0  0  0
  -30.5390  -12.4000   18.9220 C   0  0  0  0  0  2  0  0  0  0  0  0
  -29.5250  -12.5830   17.7730 C   0  0  0  0  0  2  0  0  0  0  0  0
  -28.0810  -12.4280   18.2870 C   0  0  0  0  0  2  0  0  0  0  0  0
  -27.8060  -13.2720   19.5620 C   0  0  0  0  0  3  0  0  0  0  0  0
  -28.9340  -13.0760   20.6030 C   0  0  0  0  0  2  0  0  0  0  0  0
  -30.2160  -13.4000   19.9550 N   0  0  0  0  0  0  0  0  0  0  0  0
  -31.9930  -14.7220   19.4880 O   0  0  0  0  0  0  0  0  0  0  0  0
  -25.4740  -13.8580   20.4820 C   0  0  0  0  0  0  0  0  0  0  0  0
  -24.4330  -13.0760   20.9030 C   0  0  0  0  0  0  0  0  0  0  0  0
  -24.8780  -11.7240   20.7700 C   0  0  0  0  0  0  0  0  0  0  0  0
  -26.4910  -12.9850   20.1310 N   0  0  0  0  0  0  0  0  0  0  0  0
  -26.1380  -11.6940   20.3570 N   0  0  0  0  0  0  0  0  0  0  0  0
  -24.1560  -10.4590   20.9520 C   0  0  0  0  0  0  0  0  0  0  0  0
  -24.5760   -9.5000   21.9000 C   0  0  0  0  0  3  0  0  0  0  0  0
  -23.8540   -8.3000   22.0710 C   0  0  0  0  0  3  0  0  0  0  0  0
  -22.6990   -8.0480   21.2930 C   0  0  0  0  0  0  0  0  0  0  0  0
  -22.3000   -8.9950   20.3340 C   0  0  0  0  0  3  0  0  0  0  0  0
  -23.0220  -10.1880   20.1610 C   0  0  0  0  0  3  0  0  0  0  0  0
  -21.9530   -6.8960   21.3720 O   0  0  0  0  0  0  0  0  0  0  0  0
  -21.7740   -6.2360   22.5620 C   0  0  0  0  0  0  0  0  0  0  0  0
  -21.1870   -6.8620   23.6830 C   0  0  0  0  0  3  0  0  0  0  0  0
  -20.9590   -6.1250   24.8620 C   0  0  0  0  0  3  0  0  0  0  0  0
  -21.3040   -4.7620   24.9200 C   0  0  0  0  0  0  0  0  0  0  0  0
  -21.8830   -4.1340   23.8030 C   0  0  0  0  0  3  0  0  0  0  0  0
  -22.1130   -4.8690   22.6250 C   0  0  0  0  0  0  0  0  0  0  0  0
  -22.6520   -4.2520   21.5450 F   0  0  0  0  0  0  0  0  0  0  0  0
  -21.0770   -4.0530   26.0510 F   0  0  0  0  0  0  0  0  0  0  0  0
  -23.0640  -13.5470   21.3070 C   0  0  0  0  0  0  0  0  0  0  0  0
  -22.4000  -12.8130   22.1940 N   0  0  0  0  0  0  0  0  0  0  0  0
  -22.5950  -14.6020   20.8760 O   0  0  0  0  0  0  0  0  0  0  0  0
  -22.7900  -11.9610   22.5670 H   0  0  0  0  0  0  0  0  0  0  0  0
  -21.4850  -13.1050   22.5060 H   0  0  0  0  0  0  0  0  0  0  0  0
  -25.6360  -15.2350   20.3500 N   0  0  0  0  0  0  0  0  0  0  0  0
  -24.8770  -15.8820   20.5340 H   0  0  0  0  0  0  0  0  0  0  0  0
  -26.4340  -15.6770   19.9160 H   0  0  0  0  0  0  0  0  0  0  0  0
  -28.2490  -24.6360   20.6120 C   0  0  0  0  0  2  0  0  0  0  0  0
  -28.9330  -25.1540   18.1550 C   0  0  0  0  0  1  0  0  0  0  0  0
  -28.9970  -25.5750   19.6370 C   0  0  0  0  0  3  0  0  0  0  0  0
  -28.7530  -26.9750   19.8630 O   0  0  0  0  0  0  0  0  0  0  0  0
  -24.6420  -31.7720   23.1120 C   0  0  0  0  0  0  0  0  0  0  0  0
  -27.5000  -27.5610   19.8870 C   0  0  0  0  0  0  0  0  0  0  0  0
  -23.4990  -30.3640   21.4280 C   0  0  0  0  0  3  0  0  0  0  0  0
  -25.0220  -28.9430   19.9570 C   0  0  0  0  0  0  0  0  0  0  0  0
  -26.0060  -30.8490   21.2420 C   0  0  0  0  0  2  0  0  0  0  0  0
  -26.1550  -29.5070   20.5520 C   0  0  0  0  0  0  0  0  0  0  0  0
  -27.3920  -28.8260   20.5090 C   0  0  0  0  0  3  0  0  0  0  0  0
  -26.3390  -26.9970   19.3090 C   0  0  0  0  0  3  0  0  0  0  0  0
  -25.1090  -27.6840   19.3390 C   0  0  0  0  0  3  0  0  0  0  0  0
  -23.7380  -29.7400   20.0300 C   0  0  0  0  0  2  0  0  0  0  0  0
  -24.7320  -31.0080   21.9860 N   0  0  0  0  0  0  0  0  0  0  0  0
  -23.5510  -31.9750   23.6630 O   0  0  0  0  0  0  0  0  0  0  0  0
  -22.9010  -29.2820   22.3550 C   0  0  0  0  0  0  0  0  0  0  0  0
  -21.5890  -29.0330   22.2130 N   0  0  0  0  0  0  0  0  0  0  0  0
  -23.6140  -28.6720   23.1540 O   0  0  0  0  0  0  0  0  0  0  0  0
  -21.0770  -29.5760   21.5310 H   0  0  0  0  0  0  0  0  0  0  0  0
  -18.2780  -27.6680   22.6680 C   0  0  0  0  0  0  0  0  0  0  0  0
  -20.8200  -28.0360   22.9550 C   0  0  0  0  0  3  0  0  0  0  0  0
  -20.9910  -26.6290   22.3400 C   0  0  0  0  0  2  0  0  0  0  0  0
  -19.9140  -26.2940   21.3030 C   0  0  0  0  0  2  0  0  0  0  0  0
  -18.5200  -26.3550   21.9390 C   0  0  0  0  0  2  0  0  0  0  0  0
  -19.3580  -28.4660   23.1270 C   0  0  0  0  0  0  0  0  0  0  0  0
  -19.0820  -29.6970   23.7600 C   0  0  0  0  0  3  0  0  0  0  0  0
  -17.7550  -30.1290   23.9450 C   0  0  0  0  0  3  0  0  0  0  0  0
  -16.6890  -29.3260   23.5050 C   0  0  0  0  0  3  0  0  0  0  0  0
  -16.9500  -28.0960   22.8730 C   0  0  0  0  0  3  0  0  0  0  0  0
  -25.8980  -32.4450   23.7490 C   0  0  0  0  0  3  0  0  0  0  0  0
  -26.4520  -31.6630   25.0030 C   0  0  1  0  0  0  0  0  0  0  0  0
  -25.3710  -31.3380   26.0590 C   0  0  0  0  0  1  0  0  0  0  0  0
  -27.1050  -30.3280   24.5750 C   0  0  0  0  0  1  0  0  0  0  0  0
  -27.5620  -32.4940   25.6890 C   0  0  0  0  0  1  0  0  0  0  0  0
  -25.5310  -33.8190   24.1160 N   0  0  0  0  0  0  0  0  0  0  0  0
  -25.8130  -34.9020   23.3780 C   0  0  0  0  0  0  0  0  0  0  0  0
  -26.4830  -34.8520   22.3430 O   0  0  0  0  0  0  0  0  0  0  0  0
  -24.9400  -33.9310   24.9280 H   0  0  0  0  0  0  0  0  0  0  0  0
  -23.9980  -36.6150   23.0710 C   0  0  0  0  0  1  0  0  0  0  0  0
  -25.2630  -36.2560   23.8680 C   0  0  0  0  0  3  0  0  0  0  0  0
  -27.3550  -37.2260   24.7090 C   0  0  0  0  0  1  0  0  0  0  0  0
  -26.2430  -37.3600   23.7710 N   0  0  0  0  0  0  0  0  0  0  0  0
  -25.7960  -38.2580   23.9370 H   0  0  0  0  0  0  0  0  0  0  0  0
  1  2  2  0
  2  5  1  0
  2  4  1  0
  3  1  1  0
  6  3  1  0
  7  8  2  0
  7 10  1  0
  8 11  1  0
  9 12  1  0
 10  9  2  0
 11  1  1  0
 11 12  2  0
 12 13  1  0
 14 10  1  0
 15 14  2  0
 16 15  1  0
 17 22  1  0
 18 19  1  0
 18 17  1  0
 20 19  1  0
 20 27  1  0
 20 21  1  0
 22 16  1  0
 22 21  1  0
 23 16  2  0
 24 25  2  0
 25 44  1  0
 26 25  1  0
 26 29  1  0
 27 28  1  0
 27 24  1  0
 28 26  2  0
 29 30  1  0
 30 31  2  0
 32 35  1  0
 32 31  1  0
 33 32  2  0
 34 33  1  0
 34 29  2  0
 35 36  1  0
 36 41  2  0
 36 37  1  0
 37 38  2  0
 38 39  1  0
 39 43  1  0
 40 39  2  0
 41 40  1  0
 42 41  1  0
 44 45  1  0
 45 48  1  0
 45 47  1  0
 46 44  2  0
 49 24  1  0
 49 50  1  0
 51 49  1  0
 52  3  1  0
 54 53  1  0
 54 55  1  0
 54 52  1  0
 55 57  1  0
 56 67  2  0
 57 62  1  0
 58 66  1  0
 58 68  1  0
 59 65  1  0
 59 61  1  0
 60 66  1  0
 61 60  1  0
 62 61  2  0
 63 64  1  0
 63 57  2  0
 64 59  2  0
 65 58  1  0
 66 56  1  0
 68 70  2  0
 69 68  1  0
 71 69  1  0
 72 81  2  0
 72 77  1  0
 73 69  1  0
 73 77  1  0
 74 73  1  0
 75 76  1  0
 75 74  1  0
 76 72  1  0
 77 78  2  0
 78 79  1  0
 80 79  2  0
 81 80  1  0
 82 56  1  0
 82 87  1  0
 82 83  1  0
 83 86  1  1
 83 84  1  0
 85 83  1  0
 87 90  1  0
 88 92  1  0
 88 87  1  0
 89 88  2  0
 92 91  1  0
 94 92  1  0
 94 95  1  0
 94 93  1  0
M  ISO  4  15 100  16 100  54 101  55 101
M  END
>  <TORSDO>  (70) 
F 20

>  <SCORE>  (70) 
-13.333

>  <name>  (70) 
69

>  <ligand_id>  (70) 
69

>  <original_smiles>  (70) 
[H]C(C(=O)N1C([H])([H])C([H])([H])C([H])([H])C([H])(n2nc(-c3c([H])c([H])c(Oc4c([H])c([H])c(F)c([H])c4F)c([H])c3[H])c(C(=O)N([H])[H])c2N([H])[H])C1([H])[H])=C([H])c1c([H])c([H])c(C(N([H])[H])=[N+]([H])C([H])([H])C([H])(Oc2c([H])c([H])c3c(c2[H])C([H])([H])N(C(=O)C([H])(N([H])C(=O)C([H])(N([H])C([H])([H])[H])C([H])([H])[H])C(C([H])([H])[H])(C([H])([H])[H])C([H])([H])[H])C([H])(C(=O)N([H])C2([H])c4c([H])c([H])c([H])c([H])c4C([H])([H])C([H])([H])C2([H])[H])C3([H])[H])C([H])([H])[H])c(C([H])([H])[H])c1[H]

>  <smiles>  (70) 
[H]C(C(=O)N1C([H])([H])C([H])([H])C([H])([H])C([H])(n2nc(-c3c([H])c([H])c(Oc4c([H])c([H])c(F)c([H])c4F)c([H])c3[H])c(C(=O)N([H])[H])c2N([H])[H])C1([H])[H])=C([H])c1c([H])c([H])c(C(N([H])[H])=[N+]([H])C([H])([H])C([H])(Oc2c([H])c([H])c3c(c2[H])C([H])([H])N(C(=O)C([H])(N([H])C(=O)C([H])(N([H])C([H])([H])[H])C([H])([H])[H])C(C([H])([H])[H])(C([H])([H])[H])C([H])([H])[H])C([H])(C(=O)N([H])C2([H])c4c([H])c([H])c([H])c([H])c4C([H])([H])C([H])([H])C2([H])[H])C3([H])[H])C([H])([H])[H])c(C([H])([H])[H])c1[H]

$$$$
70:0:0
     RDKit          3D

 90 98  0  0  1  0  0  0  0  0999 V2000
  -31.0670  -19.3280   19.7390 C   0  0  0  0  0  3  0  0  0  0  0  0
  -31.0800  -17.9110   19.9100 C   0  0  0  0  0  3  0  0  0  0  0  0
  -28.7150  -19.3910   20.1730 C   0  0  0  0  0  3  0  0  0  0  0  0
  -28.7160  -17.9710   20.3600 C   0  0  0  0  0  0  0  0  0  0  0  0
  -29.8920  -20.1200   19.8600 C   0  0  0  0  0  0  0  0  0  0  0  0
  -29.9040  -17.1820   20.2290 C   0  0  0  0  0  0  0  0  0  0  0  0
  -27.3810  -17.3320   20.7150 C   0  0  0  0  0  1  0  0  0  0  0  0
  -30.6260  -14.6720   19.9730 C   0  0  0  0  0  0  0  0  0  0  0  0
  -30.3760  -12.4100   18.9630 C   0  0  0  0  0  2  0  0  0  0  0  0
  -29.3690  -12.5120   17.7950 C   0  0  0  0  0  2  0  0  0  0  0  0
  -27.9200  -12.3570   18.3020 C   0  0  0  0  0  2  0  0  0  0  0  0
  -27.6240  -13.2430   19.5410 C   0  0  0  0  0  3  0  0  0  0  0  0
  -28.7380  -13.1060   20.6040 C   0  0  0  0  0  2  0  0  0  0  0  0
  -30.0160  -13.4430   19.9560 N   0  0  0  0  0  0  0  0  0  0  0  0
  -31.7610  -14.8240   19.5100 O   0  0  0  0  0  0  0  0  0  0  0  0
  -29.8440  -15.7200   20.3940 N   0  0  0  0  0  0  0  0  0  0  0  0
  -28.9870  -15.3970   20.8130 H   0  0  0  0  0  0  0  0  0  0  0  0
  -25.2820  -13.8600   20.4020 C   0  0  0  0  0  0  0  0  0  0  0  0
  -24.2300  -13.0950   20.8240 C   0  0  0  0  0  0  0  0  0  0  0  0
  -24.6700  -11.7390   20.7440 C   0  0  0  0  0  0  0  0  0  0  0  0
  -26.3010  -12.9700   20.0960 N   0  0  0  0  0  0  0  0  0  0  0  0
  -25.9400  -11.6890   20.3610 N   0  0  0  0  0  0  0  0  0  0  0  0
  -23.9380  -10.4830   20.9530 C   0  0  0  0  0  0  0  0  0  0  0  0
  -24.3680   -9.5260   21.8980 C   0  0  0  0  0  3  0  0  0  0  0  0
  -23.6360   -8.3360   22.0950 C   0  0  0  0  0  3  0  0  0  0  0  0
  -22.4600   -8.0940   21.3480 C   0  0  0  0  0  0  0  0  0  0  0  0
  -22.0480   -9.0400   20.3920 C   0  0  0  0  0  3  0  0  0  0  0  0
  -22.7800  -10.2220   20.1930 C   0  0  0  0  0  3  0  0  0  0  0  0
  -21.6990   -6.9550   21.4530 O   0  0  0  0  0  0  0  0  0  0  0  0
  -21.6140   -6.2530   22.6280 C   0  0  0  0  0  0  0  0  0  0  0  0
  -21.1110   -6.8380   23.8110 C   0  0  0  0  0  3  0  0  0  0  0  0
  -20.9760   -6.0600   24.9790 C   0  0  0  0  0  3  0  0  0  0  0  0
  -21.3340   -4.7000   24.9650 C   0  0  0  0  0  0  0  0  0  0  0  0
  -21.8300   -4.1140   23.7860 C   0  0  0  0  0  3  0  0  0  0  0  0
  -21.9670   -4.8880   22.6210 C   0  0  0  0  0  0  0  0  0  0  0  0
  -22.4250   -4.3140   21.4830 F   0  0  0  0  0  0  0  0  0  0  0  0
  -21.1970   -3.9500   26.0830 F   0  0  0  0  0  0  0  0  0  0  0  0
  -22.8570  -13.5870   21.1830 C   0  0  0  0  0  0  0  0  0  0  0  0
  -22.1740  -12.8920   22.0860 N   0  0  0  0  0  0  0  0  0  0  0  0
  -22.4020  -14.6230   20.7000 O   0  0  0  0  0  0  0  0  0  0  0  0
  -22.5560  -12.0540   22.4980 H   0  0  0  0  0  0  0  0  0  0  0  0
  -21.2550  -13.2020   22.3680 H   0  0  0  0  0  0  0  0  0  0  0  0
  -25.4510  -15.2280   20.2250 N   0  0  0  0  0  0  0  0  0  0  0  0
  -24.6830  -15.8780   20.3560 H   0  0  0  0  0  0  0  0  0  0  0  0
  -26.2550  -15.6510   19.7820 H   0  0  0  0  0  0  0  0  0  0  0  0
  -29.0490  -22.4440   19.7520 C   0  0  0  0  0  3  0  0  0  0  0  0
  -30.0000  -21.5530   19.7340 N   0  0  0  0  0  0  0  0  0  0  0  0
  -29.2950  -24.0080   19.7330 C   0  0  0  0  0  3  0  0  0  0  0  0
  -28.0760  -24.9860   19.4300 C   0  0  0  0  0  3  0  0  0  0  0  0
  -28.2630  -26.4510   19.6000 O   0  0  0  0  0  0  0  0  0  0  0  0
  -24.5230  -31.6070   23.0020 C   0  0  0  0  0  0  0  0  0  0  0  0
  -27.1220  -27.2710   19.6290 C   0  0  0  0  0  0  0  0  0  0  0  0
  -23.2920  -30.2700   21.3320 C   0  0  0  0  0  3  0  0  0  0  0  0
  -24.7230  -28.8280   19.7810 C   0  0  0  0  0  0  0  0  0  0  0  0
  -25.8170  -30.6530   21.0810 C   0  0  0  0  0  2  0  0  0  0  0  0
  -25.9020  -29.3120   20.3610 C   0  0  0  0  0  0  0  0  0  0  0  0
  -27.1040  -28.5470   20.2740 C   0  0  0  0  0  3  0  0  0  0  0  0
  -25.9140  -26.8390   19.0320 C   0  0  0  0  0  3  0  0  0  0  0  0
  -24.7300  -27.5970   19.1080 C   0  0  0  0  0  3  0  0  0  0  0  0
  -23.4720  -29.6700   19.9130 C   0  0  0  0  0  2  0  0  0  0  0  0
  -24.5640  -30.8580   21.8620 N   0  0  0  0  0  0  0  0  0  0  0  0
  -23.4530  -31.8340   23.5860 O   0  0  0  0  0  0  0  0  0  0  0  0
  -22.6820  -29.1910   22.2590 C   0  0  0  0  0  0  0  0  0  0  0  0
  -21.3560  -28.9900   22.1640 N   0  0  0  0  0  0  0  0  0  0  0  0
  -23.3980  -28.5410   23.0240 O   0  0  0  0  0  0  0  0  0  0  0  0
  -20.8350  -29.5700   21.5210 H   0  0  0  0  0  0  0  0  0  0  0  0
  -18.0220  -27.6960   22.7020 C   0  0  0  0  0  0  0  0  0  0  0  0
  -20.5810  -27.9980   22.9100 C   0  0  0  0  0  3  0  0  0  0  0  0
  -20.6950  -26.5990   22.2630 C   0  0  0  0  0  2  0  0  0  0  0  0
  -19.5700  -26.3010   21.2660 C   0  0  0  0  0  2  0  0  0  0  0  0
  -18.2050  -26.3860   21.9560 C   0  0  0  0  0  2  0  0  0  0  0  0
  -19.1360  -28.4610   23.1360 C   0  0  0  0  0  0  0  0  0  0  0  0
  -18.9090  -29.6890   23.7950 C   0  0  0  0  0  3  0  0  0  0  0  0
  -17.5990  -30.1530   24.0230 C   0  0  0  0  0  3  0  0  0  0  0  0
  -16.4990  -29.3850   23.6040 C   0  0  0  0  0  3  0  0  0  0  0  0
  -16.7110  -28.1570   22.9500 C   0  0  0  0  0  3  0  0  0  0  0  0
  -25.8130  -32.2340   23.6150 C   0  0  0  0  0  3  0  0  0  0  0  0
  -26.3830  -31.4130   24.8360 C   0  0  1  0  0  0  0  0  0  0  0  0
  -25.3320  -31.1190   25.9310 C   0  0  0  0  0  1  0  0  0  0  0  0
  -26.9620  -30.0600   24.3630 C   0  0  0  0  0  1  0  0  0  0  0  0
  -27.5510  -32.1880   25.4900 C   0  0  0  0  0  1  0  0  0  0  0  0
  -25.4900  -33.6090   24.0210 N   0  0  0  0  0  0  0  0  0  0  0  0
  -25.7940  -34.7040   23.3130 C   0  0  0  0  0  0  0  0  0  0  0  0
  -26.4460  -34.6640   22.2660 O   0  0  0  0  0  0  0  0  0  0  0  0
  -24.9090  -33.7130   24.8410 H   0  0  0  0  0  0  0  0  0  0  0  0
  -24.0450  -36.4950   23.0710 C   0  0  0  0  0  1  0  0  0  0  0  0
  -25.2960  -36.0600   23.8500 C   0  0  0  0  0  3  0  0  0  0  0  0
  -27.4210  -36.9290   24.7230 C   0  0  0  0  0  1  0  0  0  0  0  0
  -26.3170  -37.1290   23.7870 N   0  0  0  0  0  0  0  0  0  0  0  0
  -25.9000  -38.0360   23.9770 H   0  0  0  0  0  0  0  0  0  0  0  0
  1  5  2  0
  1  2  1  0
  2  6  2  0
  3  4  2  0
  4  7  1  0
  5  3  1  0
  6  4  1  0
  6 16  1  0
  8 16  1  0
  9 14  1  0
 10 11  1  0
 10  9  1  0
 12 11  1  0
 12 21  1  0
 12 13  1  0
 14  8  1  0
 14 13  1  0
 15  8  2  0
 16 17  1  0
 18 19  2  0
 19 38  1  0
 20 19  1  0
 20 23  1  0
 21 22  1  0
 21 18  1  0
 22 20  2  0
 23 24  1  0
 24 25  2  0
 26 29  1  0
 26 25  1  0
 27 26  2  0
 28 27  1  0
 28 23  2  0
 29 30  1  0
 30 31  1  0
 31 32  2  0
 33 32  1  0
 33 37  1  0
 34 33  2  0
 35 30  2  0
 35 34  1  0
 36 35  1  0
 38 39  1  0
 39 42  1  0
 39 41  1  0
 40 38  2  0
 43 44  1  0
 43 18  1  0
 45 43  1  0
 47 46  2  0
 47  5  1  0
 48 46  1  0
 49 50  1  0
 49 48  2  0
 50 52  1  0
 51 62  2  0
 52 57  1  0
 53 61  1  0
 53 63  1  0
 54 60  1  0
 54 56  1  0
 55 61  1  0
 56 55  1  0
 57 56  2  0
 58 59  1  0
 58 52  2  0
 59 54  2  0
 60 53  1  0
 61 51  1  0
 63 65  2  0
 64 63  1  0
 66 64  1  0
 67 76  2  0
 67 72  1  0
 68 64  1  0
 68 72  1  0
 69 68  1  0
 70 71  1  0
 70 69  1  0
 71 67  1  0
 72 73  2  0
 73 74  1  0
 75 74  2  0
 76 75  1  0
 77 51  1  0
 77 82  1  0
 77 78  1  0
 78 81  1  1
 78 79  1  0
 80 78  1  0
 82 85  1  0
 83 87  1  0
 83 82  1  0
 84 83  2  0
 87 86  1  0
 89 87  1  0
 89 90  1  0
 89 88  1  0
M  ISO  4   8 100  16 100  49 101  50 101
M  END
>  <TORSDO>  (71) 
F 19

>  <SCORE>  (71) 
-13.278

>  <name>  (71) 
70

>  <ligand_id>  (71) 
70

>  <original_smiles>  (71) 
[H]C(=Nc1c([H])c([H])c(N([H])C(=O)N2C([H])([H])C([H])([H])C([H])([H])C([H])(n3nc(-c4c([H])c([H])c(Oc5c([H])c([H])c(F)c([H])c5F)c([H])c4[H])c(C(=O)N([H])[H])c3N([H])[H])C2([H])[H])c(C([H])([H])[H])c1[H])C([H])([H])C([H])([H])Oc1c([H])c([H])c2c(c1[H])C([H])([H])N(C(=O)C([H])(N([H])C(=O)C([H])(N([H])C([H])([H])[H])C([H])([H])[H])C(C([H])([H])[H])(C([H])([H])[H])C([H])([H])[H])C([H])(C(=O)N([H])C1([H])c3c([H])c([H])c([H])c([H])c3C([H])([H])C([H])([H])C1([H])[H])C2([H])[H]

>  <smiles>  (71) 
[H]C(=Nc1c([H])c([H])c(N([H])C(=O)N2C([H])([H])C([H])([H])C([H])([H])C([H])(n3nc(-c4c([H])c([H])c(Oc5c([H])c([H])c(F)c([H])c5F)c([H])c4[H])c(C(=O)N([H])[H])c3N([H])[H])C2([H])[H])c(C([H])([H])[H])c1[H])C([H])([H])C([H])([H])Oc1c([H])c([H])c2c(c1[H])C([H])([H])N(C(=O)C([H])(N([H])C(=O)C([H])(N([H])C([H])([H])[H])C([H])([H])[H])C(C([H])([H])[H])(C([H])([H])[H])C([H])([H])[H])C([H])(C(=O)N([H])C1([H])c3c([H])c([H])c([H])c([H])c3C([H])([H])C([H])([H])C1([H])[H])C2([H])[H]

$$$$
71:0:0
     RDKit          3D

 93101  0  0  1  0  0  0  0  0999 V2000
  -29.4390  -19.2730   20.4120 C   0  0  0  0  0  3  0  0  0  0  0  0
  -31.5360  -17.5730   21.1560 C   0  0  0  0  0  3  0  0  0  0  0  0
  -30.7230  -19.8270   20.5780 C   0  0  0  0  0  0  0  0  0  0  0  0
  -29.2070  -17.8870   20.5550 C   0  0  0  0  0  0  0  0  0  0  0  0
  -30.2620  -17.0000   20.9060 C   0  0  0  0  0  0  0  0  0  0  0  0
  -31.7650  -18.9610   20.9870 C   0  0  0  0  0  0  0  0  0  0  0  0
  -33.0110  -19.4550   21.2020 F   0  0  0  0  0  0  0  0  0  0  0  0
  -30.6880  -14.5640   20.4550 C   0  0  0  0  0  0  0  0  0  0  0  0
  -30.3540  -12.4350   19.2470 C   0  0  0  0  0  2  0  0  0  0  0  0
  -29.3980  -12.6620   18.0560 C   0  0  0  0  0  2  0  0  0  0  0  0
  -27.9320  -12.5040   18.5020 C   0  0  0  0  0  2  0  0  0  0  0  0
  -27.6030  -13.3180   19.7800 C   0  0  0  0  0  3  0  0  0  0  0  0
  -28.6720  -13.0880   20.8760 C   0  0  0  0  0  2  0  0  0  0  0  0
  -29.9950  -13.3980   20.3030 N   0  0  0  0  0  0  0  0  0  0  0  0
  -31.8180  -14.7220   19.9850 O   0  0  0  0  0  0  0  0  0  0  0  0
  -30.0100  -15.5840   21.0270 N   0  0  0  0  0  0  0  0  0  0  0  0
  -29.0840  -15.3290   21.3330 H   0  0  0  0  0  0  0  0  0  0  0  0
  -25.1940  -13.8960   20.4930 C   0  0  0  0  0  0  0  0  0  0  0  0
  -24.1360  -13.1180   20.8680 C   0  0  0  0  0  0  0  0  0  0  0  0
  -24.6110  -11.7730   20.8350 C   0  0  0  0  0  0  0  0  0  0  0  0
  -26.2530  -13.0300   20.2640 N   0  0  0  0  0  0  0  0  0  0  0  0
  -25.9020  -11.7460   20.5280 N   0  0  0  0  0  0  0  0  0  0  0  0
  -23.8930  -10.5080   21.0190 C   0  0  0  0  0  0  0  0  0  0  0  0
  -24.3160   -9.5510   21.9680 C   0  0  0  0  0  3  0  0  0  0  0  0
  -23.5960   -8.3510   22.1420 C   0  0  0  0  0  3  0  0  0  0  0  0
  -22.4390   -8.0980   21.3660 C   0  0  0  0  0  0  0  0  0  0  0  0
  -22.0360   -9.0440   20.4070 C   0  0  0  0  0  3  0  0  0  0  0  0
  -22.7580  -10.2370   20.2320 C   0  0  0  0  0  3  0  0  0  0  0  0
  -21.6910   -6.9490   21.4480 O   0  0  0  0  0  0  0  0  0  0  0  0
  -21.6120   -6.2250   22.6110 C   0  0  0  0  0  0  0  0  0  0  0  0
  -21.1150   -6.7890   23.8060 C   0  0  0  0  0  3  0  0  0  0  0  0
  -20.9890   -5.9910   24.9620 C   0  0  0  0  0  3  0  0  0  0  0  0
  -21.3460   -4.6300   24.9210 C   0  0  0  0  0  0  0  0  0  0  0  0
  -21.8350   -4.0650   23.7280 C   0  0  0  0  0  3  0  0  0  0  0  0
  -21.9650   -4.8610   22.5780 C   0  0  0  0  0  0  0  0  0  0  0  0
  -22.4180   -4.3080   21.4240 F   0  0  0  0  0  0  0  0  0  0  0  0
  -21.2170   -3.8600   26.0270 F   0  0  0  0  0  0  0  0  0  0  0  0
  -22.7370  -13.5890   21.1400 C   0  0  0  0  0  0  0  0  0  0  0  0
  -22.0120  -12.8870   22.0040 N   0  0  0  0  0  0  0  0  0  0  0  0
  -22.2970  -14.6170   20.6290 O   0  0  0  0  0  0  0  0  0  0  0  0
  -22.3810  -12.0540   22.4390 H   0  0  0  0  0  0  0  0  0  0  0  0
  -21.0750  -13.1850   22.2330 H   0  0  0  0  0  0  0  0  0  0  0  0
  -25.3220  -15.2620   20.3020 N   0  0  0  0  0  0  0  0  0  0  0  0
  -24.5180  -15.8760   20.3580 H   0  0  0  0  0  0  0  0  0  0  0  0
  -26.1210  -15.6940   19.8580 H   0  0  0  0  0  0  0  0  0  0  0  0
  -30.9910  -21.2570   20.2700 C   0  0  0  0  0  3  0  0  0  0  0  0
  -30.0910  -22.2440   20.0380 C   0  0  0  0  0  3  0  0  0  0  0  0
  -30.4730  -23.6410   19.5480 C   0  0  0  0  0  2  0  0  0  0  0  0
  -29.9620  -24.8600   20.3610 C   0  0  0  0  0  2  0  0  0  0  0  0
  -28.5680  -25.4110   19.9700 C   0  0  0  0  0  2  0  0  0  0  0  0
  -28.4950  -26.7900   20.3570 O   0  0  0  0  0  0  0  0  0  0  0  0
  -24.5630  -31.9320   23.2550 C   0  0  0  0  0  0  0  0  0  0  0  0
  -27.2950  -27.4690   20.2850 C   0  0  0  0  0  0  0  0  0  0  0  0
  -23.3970  -30.5150   21.5940 C   0  0  0  0  0  3  0  0  0  0  0  0
  -24.8860  -28.9680   20.2160 C   0  0  0  0  0  0  0  0  0  0  0  0
  -25.9260  -30.8780   21.4530 C   0  0  0  0  0  2  0  0  0  0  0  0
  -26.0270  -29.5020   20.8280 C   0  0  0  0  0  0  0  0  0  0  0  0
  -27.2280  -28.7620   20.8540 C   0  0  0  0  0  3  0  0  0  0  0  0
  -26.1350  -26.9440   19.6690 C   0  0  0  0  0  3  0  0  0  0  0  0
  -24.9360  -27.6880   19.6330 C   0  0  0  0  0  3  0  0  0  0  0  0
  -23.6390  -29.8230   20.2240 C   0  0  0  0  0  2  0  0  0  0  0  0
  -24.6450  -31.1250   22.1590 N   0  0  0  0  0  0  0  0  0  0  0  0
  -23.4690  -32.2060   23.7680 O   0  0  0  0  0  0  0  0  0  0  0  0
  -22.7250  -29.5020   22.5480 C   0  0  0  0  0  0  0  0  0  0  0  0
  -21.3990  -29.3390   22.4110 N   0  0  0  0  0  0  0  0  0  0  0  0
  -23.3920  -28.8670   23.3670 O   0  0  0  0  0  0  0  0  0  0  0  0
  -20.9220  -29.9080   21.7260 H   0  0  0  0  0  0  0  0  0  0  0  0
  -17.9950  -28.2280   22.9060 C   0  0  0  0  0  0  0  0  0  0  0  0
  -20.5610  -28.4110   23.1680 C   0  0  0  0  0  3  0  0  0  0  0  0
  -20.6210  -26.9860   22.5670 C   0  0  0  0  0  2  0  0  0  0  0  0
  -19.5050  -26.7100   21.5570 C   0  0  0  0  0  2  0  0  0  0  0  0
  -18.1320  -26.8850   22.2090 C   0  0  0  0  0  2  0  0  0  0  0  0
  -19.1370  -28.9520   23.3430 C   0  0  0  0  0  0  0  0  0  0  0  0
  -18.9580  -30.2120   23.9530 C   0  0  0  0  0  3  0  0  0  0  0  0
  -17.6690  -30.7470   24.1330 C   0  0  0  0  0  3  0  0  0  0  0  0
  -16.5410  -30.0200   23.7130 C   0  0  0  0  0  3  0  0  0  0  0  0
  -16.7050  -28.7630   23.1040 C   0  0  0  0  0  3  0  0  0  0  0  0
  -25.8330  -32.5690   23.9010 C   0  0  0  0  0  3  0  0  0  0  0  0
  -25.5190  -33.9720   24.2080 N   0  0  0  0  0  0  0  0  0  0  0  0
  -25.8740  -35.0150   23.4460 C   0  0  0  0  0  0  0  0  0  0  0  0
  -26.5720  -34.8990   22.4360 O   0  0  0  0  0  0  0  0  0  0  0  0
  -24.9020  -34.1380   24.9900 H   0  0  0  0  0  0  0  0  0  0  0  0
  -24.1670  -36.8080   23.0150 C   0  0  0  0  0  1  0  0  0  0  0  0
  -25.3780  -36.4090   23.8730 C   0  0  0  0  0  3  0  0  0  0  0  0
  -27.4850  -37.2940   24.7690 C   0  0  0  0  0  1  0  0  0  0  0  0
  -26.4190  -37.4560   23.7840 N   0  0  0  0  0  0  0  0  0  0  0  0
  -26.0120  -38.3800   23.9070 H   0  0  0  0  0  0  0  0  0  0  0  0
  -26.3180  -31.8100   25.1960 C   0  0  1  0  0  0  0  0  0  0  0  0
  -25.1990  -31.5790   26.2400 C   0  0  0  0  0  1  0  0  0  0  0  0
  -26.9140  -30.4320   24.8240 C   0  0  0  0  0  1  0  0  0  0  0  0
  -27.4510  -32.6120   25.8790 C   0  0  0  0  0  1  0  0  0  0  0  0
  -27.5200  -17.4230   18.7390 C   0  0  0  0  0  1  0  0  0  0  0  0
  -27.8010  -17.4070   20.2510 C   0  0  0  0  0  2  0  0  0  0  0  0
  1  4  2  0
  1  3  1  0
  3  6  2  0
  4  5  1  0
  5 16  1  0
  5  2  2  0
  6  2  1  0
  6  7  1  0
  8 16  1  0
  9 14  1  0
 10 11  1  0
 10  9  1  0
 12 11  1  0
 12 21  1  0
 12 13  1  0
 14  8  1  0
 14 13  1  0
 15  8  2  0
 16 17  1  0
 18 19  2  0
 19 38  1  0
 20 19  1  0
 20 23  1  0
 21 18  1  0
 21 22  1  0
 22 20  2  0
 23 24  1  0
 24 25  2  0
 26 29  1  0
 26 25  1  0
 27 26  2  0
 28 27  1  0
 28 23  2  0
 29 30  1  0
 30 31  1  0
 31 32  2  0
 33 32  1  0
 33 37  1  0
 34 33  2  0
 35 30  2  0
 35 34  1  0
 36 35  1  0
 38 39  1  0
 39 42  1  0
 39 41  1  0
 40 38  2  0
 43 44  1  0
 43 18  1  0
 45 43  1  0
 46  3  1  0
 47 46  2  0
 48 47  1  0
 48 49  1  0
 50 51  1  0
 50 49  1  0
 52 63  2  0
 53 51  1  0
 53 58  1  0
 54 62  1  0
 54 64  1  0
 55 61  1  0
 55 57  1  0
 56 62  1  0
 57 58  2  0
 57 56  1  0
 59 53  2  0
 60 59  1  0
 60 55  2  0
 61 54  1  0
 62 52  1  0
 64 66  2  0
 65 64  1  0
 67 65  1  0
 68 77  2  0
 68 73  1  0
 69 65  1  0
 69 73  1  0
 70 69  1  0
 71 72  1  0
 71 70  1  0
 72 68  1  0
 73 74  2  0
 74 75  1  0
 76 75  2  0
 77 76  1  0
 78 52  1  0
 78 79  1  0
 78 88  1  0
 79 82  1  0
 80 84  1  0
 80 79  1  0
 81 80  2  0
 84 83  1  0
 86 84  1  0
 86 87  1  0
 86 85  1  0
 88 91  1  1
 88 89  1  0
 90 88  1  0
 92 93  1  0
 93  4  1  0
M  ISO  4   8 100  16 100  50 101  51 101
M  END
>  <TORSDO>  (72) 
F 21

>  <SCORE>  (72) 
-13.990

>  <name>  (72) 
71

>  <ligand_id>  (72) 
71

>  <original_smiles>  (72) 
[H]C(=C([H])C([H])([H])C([H])([H])C([H])([H])Oc1c([H])c([H])c2c(c1[H])C([H])([H])N(C(=O)C([H])(N([H])C(=O)C([H])(N([H])C([H])([H])[H])C([H])([H])[H])C(C([H])([H])[H])(C([H])([H])[H])C([H])([H])[H])C([H])(C(=O)N([H])C1([H])c3c([H])c([H])c([H])c([H])c3C([H])([H])C([H])([H])C1([H])[H])C2([H])[H])c1c([H])c(C([H])([H])C([H])([H])[H])c(N([H])C(=O)N2C([H])([H])C([H])([H])C([H])([H])C([H])(n3nc(-c4c([H])c([H])c(Oc5c([H])c([H])c(F)c([H])c5F)c([H])c4[H])c(C(=O)N([H])[H])c3N([H])[H])C2([H])[H])c([H])c1F

>  <smiles>  (72) 
[H]C(=C([H])C([H])([H])C([H])([H])C([H])([H])Oc1c([H])c([H])c2c(c1[H])C([H])([H])N(C(=O)C([H])(N([H])C(=O)C([H])(N([H])C([H])([H])[H])C([H])([H])[H])C(C([H])([H])[H])(C([H])([H])[H])C([H])([H])[H])C([H])(C(=O)N([H])C1([H])c3c([H])c([H])c([H])c([H])c3C([H])([H])C([H])([H])C1([H])[H])C2([H])[H])c1c([H])c(C([H])([H])C([H])([H])[H])c(N([H])C(=O)N2C([H])([H])C([H])([H])C([H])([H])C([H])(n3nc(-c4c([H])c([H])c(Oc5c([H])c([H])c(F)c([H])c5F)c([H])c4[H])c(C(=O)N([H])[H])c3N([H])[H])C2([H])[H])c([H])c1F

$$$$
72:0:0
     RDKit          3D

 91 99  0  0  1  0  0  0  0  0999 V2000
  -28.9490  -21.8240   20.5770 C   0  0  0  0  0  3  0  0  0  0  0  0
  -28.5330  -22.9220   19.8930 C   0  0  0  0  0  3  0  0  0  0  0  0
  -27.6750  -20.1290   19.2390 C   0  0  0  0  0  3  0  0  0  0  0  0
  -27.4480  -18.8170   18.7990 C   0  0  0  0  0  3  0  0  0  0  0  0
  -29.4540  -19.3200   20.6800 C   0  0  0  0  0  3  0  0  0  0  0  0
  -28.6870  -20.4110   20.1790 C   0  0  0  0  0  0  0  0  0  0  0  0
  -29.2340  -17.9740   20.2580 C   0  0  0  0  0  0  0  0  0  0  0  0
  -28.2260  -17.7450   19.2740 C   0  0  0  0  0  0  0  0  0  0  0  0
  -27.9570  -16.3920   18.6270 C   0  0  0  0  0  1  0  0  0  0  0  0
  -30.1150  -16.8670   20.7680 C   0  0  0  0  0  2  0  0  0  0  0  0
  -29.7190  -15.7020   21.1530 N   0  0  0  0  0  2  0  0  0  0  0  0
  -30.6370  -14.6420   21.1380 C   0  0  0  0  0  0  0  0  0  0  0  0
  -30.5250  -12.4210   20.0880 C   0  0  0  0  0  2  0  0  0  0  0  0
  -29.7040  -12.6010   18.7920 C   0  0  0  0  0  2  0  0  0  0  0  0
  -28.1930  -12.4470   19.0710 C   0  0  0  0  0  2  0  0  0  0  0  0
  -27.7200  -13.2850   20.2880 C   0  0  0  0  0  3  0  0  0  0  0  0
  -28.6700  -13.1090   21.4920 C   0  0  0  0  0  2  0  0  0  0  0  0
  -30.0410  -13.4180   21.0550 N   0  0  0  0  0  0  0  0  0  0  0  0
  -31.8520  -14.7590   20.9500 O   0  0  0  0  0  0  0  0  0  0  0  0
  -25.2580  -13.8740   20.7510 C   0  0  0  0  0  0  0  0  0  0  0  0
  -24.1670  -13.0940   21.0230 C   0  0  0  0  0  0  0  0  0  0  0  0
  -24.6480  -11.7490   21.0690 C   0  0  0  0  0  0  0  0  0  0  0  0
  -26.3320  -13.0030   20.6410 N   0  0  0  0  0  0  0  0  0  0  0  0
  -25.9630  -11.7220   20.8910 N   0  0  0  0  0  0  0  0  0  0  0  0
  -23.9260  -10.4800   21.2140 C   0  0  0  0  0  0  0  0  0  0  0  0
  -24.2950   -9.5270   22.1880 C   0  0  0  0  0  3  0  0  0  0  0  0
  -23.5740   -8.3220   22.3190 C   0  0  0  0  0  3  0  0  0  0  0  0
  -22.4700   -8.0590   21.4750 C   0  0  0  0  0  0  0  0  0  0  0  0
  -22.1200   -9.0010   20.4910 C   0  0  0  0  0  3  0  0  0  0  0  0
  -22.8420  -10.1990   20.3580 C   0  0  0  0  0  3  0  0  0  0  0  0
  -21.7270   -6.9050   21.5130 O   0  0  0  0  0  0  0  0  0  0  0  0
  -21.6120   -6.1610   22.6610 C   0  0  0  0  0  0  0  0  0  0  0  0
  -21.0950   -6.7090   23.8550 C   0  0  0  0  0  3  0  0  0  0  0  0
  -20.9290   -5.8900   24.9900 C   0  0  0  0  0  3  0  0  0  0  0  0
  -21.2700   -4.5250   24.9310 C   0  0  0  0  0  0  0  0  0  0  0  0
  -21.7800   -3.9770   23.7410 C   0  0  0  0  0  3  0  0  0  0  0  0
  -21.9470   -4.7930   22.6080 C   0  0  0  0  0  0  0  0  0  0  0  0
  -22.4200   -4.2550   21.4570 F   0  0  0  0  0  0  0  0  0  0  0  0
  -21.1030   -3.7370   26.0180 F   0  0  0  0  0  0  0  0  0  0  0  0
  -22.7440  -13.5540   21.1440 C   0  0  0  0  0  0  0  0  0  0  0  0
  -21.9440  -12.8670   21.9520 N   0  0  0  0  0  0  0  0  0  0  0  0
  -22.3440  -14.5590   20.5580 O   0  0  0  0  0  0  0  0  0  0  0  0
  -22.2770  -12.0560   22.4500 H   0  0  0  0  0  0  0  0  0  0  0  0
  -20.9860  -13.1590   22.0750 H   0  0  0  0  0  0  0  0  0  0  0  0
  -25.4230  -15.2440   20.5740 N   0  0  0  0  0  0  0  0  0  0  0  0
  -24.6530  -15.9010   20.6350 H   0  0  0  0  0  0  0  0  0  0  0  0
  -26.3200  -15.6930   20.4340 H   0  0  0  0  0  0  0  0  0  0  0  0
  -28.7480  -24.3230   20.3370 C   0  0  0  0  0  0  0  0  0  0  0  0
  -29.1380  -24.6110   21.4740 O   0  0  0  0  0  0  0  0  0  0  0  0
  -28.4850  -25.4500   19.3060 C   0  0  0  0  0  2  0  0  0  0  0  0
  -28.3790  -26.7590   19.9100 O   0  0  0  0  0  0  0  0  0  0  0  0
  -24.5950  -31.8700   23.1250 C   0  0  0  0  0  0  0  0  0  0  0  0
  -27.1780  -27.4520   19.9250 C   0  0  0  0  0  0  0  0  0  0  0  0
  -23.3540  -30.4870   21.4920 C   0  0  0  0  0  3  0  0  0  0  0  0
  -24.7770  -28.9690   20.0160 C   0  0  0  0  0  0  0  0  0  0  0  0
  -25.8750  -30.8480   21.2440 C   0  0  0  0  0  2  0  0  0  0  0  0
  -25.9470  -29.4830   20.5850 C   0  0  0  0  0  0  0  0  0  0  0  0
  -27.1450  -28.7310   20.5370 C   0  0  0  0  0  3  0  0  0  0  0  0
  -25.9770  -26.9510   19.3680 C   0  0  0  0  0  3  0  0  0  0  0  0
  -24.7870  -27.7030   19.4080 C   0  0  0  0  0  3  0  0  0  0  0  0
  -23.5330  -29.8260   20.1000 C   0  0  0  0  0  2  0  0  0  0  0  0
  -24.6280  -31.0830   22.0120 N   0  0  0  0  0  0  0  0  0  0  0  0
  -23.5250  -32.1340   23.6920 O   0  0  0  0  0  0  0  0  0  0  0  0
  -22.7250  -29.4540   22.4540 C   0  0  0  0  0  0  0  0  0  0  0  0
  -21.3980  -29.2700   22.3520 N   0  0  0  0  0  0  0  0  0  0  0  0
  -23.4270  -28.8190   23.2460 O   0  0  0  0  0  0  0  0  0  0  0  0
  -20.8920  -29.8340   21.6830 H   0  0  0  0  0  0  0  0  0  0  0  0
  -18.0400  -28.0510   22.8910 C   0  0  0  0  0  0  0  0  0  0  0  0
  -20.5990  -28.3210   23.1270 C   0  0  0  0  0  3  0  0  0  0  0  0
  -20.7030  -26.8960   22.5370 C   0  0  0  0  0  2  0  0  0  0  0  0
  -19.5870  -26.5760   21.5370 C   0  0  0  0  0  2  0  0  0  0  0  0
  -18.2140  -26.7080   22.2030 C   0  0  0  0  0  2  0  0  0  0  0  0
  -19.1600  -28.8160   23.3110 C   0  0  0  0  0  0  0  0  0  0  0  0
  -18.9440  -30.0740   23.9130 C   0  0  0  0  0  3  0  0  0  0  0  0
  -17.6390  -30.5680   24.1020 C   0  0  0  0  0  3  0  0  0  0  0  0
  -16.5330  -29.7990   23.6990 C   0  0  0  0  0  3  0  0  0  0  0  0
  -16.7340  -28.5430   23.0990 C   0  0  0  0  0  3  0  0  0  0  0  0
  -25.8940  -32.4940   23.7240 C   0  0  0  0  0  3  0  0  0  0  0  0
  -26.4620  -31.6870   24.9560 C   0  0  1  0  0  0  0  0  0  0  0  0
  -25.4090  -31.4050   26.0530 C   0  0  0  0  0  1  0  0  0  0  0  0
  -27.0410  -30.3280   24.4970 C   0  0  0  0  0  1  0  0  0  0  0  0
  -27.6280  -32.4700   25.6030 C   0  0  0  0  0  1  0  0  0  0  0  0
  -25.5830  -33.8780   24.1090 N   0  0  0  0  0  0  0  0  0  0  0  0
  -25.9000  -34.9580   23.3830 C   0  0  0  0  0  0  0  0  0  0  0  0
  -26.5570  -34.8960   22.3410 O   0  0  0  0  0  0  0  0  0  0  0  0
  -24.9990  -34.0000   24.9230 H   0  0  0  0  0  0  0  0  0  0  0  0
  -24.1680  -36.7590   23.1020 C   0  0  0  0  0  1  0  0  0  0  0  0
  -25.4100  -36.3260   23.8970 C   0  0  0  0  0  3  0  0  0  0  0  0
  -27.5430  -37.1800   24.7630 C   0  0  0  0  0  1  0  0  0  0  0  0
  -26.4410  -37.3850   23.8260 N   0  0  0  0  0  0  0  0  0  0  0  0
  -26.0320  -38.2970   24.0110 H   0  0  0  0  0  0  0  0  0  0  0  0
  2 48  1  0
  2  1  2  0
  3  6  1  0
  4  3  2  0
  4  8  1  0
  6  1  1  0
  6  5  2  0
  7  5  1  0
  7 10  1  0
  8  7  2  0
  9  8  1  0
 10 11  1  0
 12 11  1  0
 13 18  1  0
 14 15  1  0
 14 13  1  0
 16 15  1  0
 16 23  1  0
 16 17  1  0
 18 12  1  0
 18 17  1  0
 19 12  2  0
 20 21  2  0
 21 22  1  0
 21 40  1  0
 22 25  1  0
 23 20  1  0
 23 24  1  0
 24 22  2  0
 25 26  1  0
 26 27  2  0
 28 31  1  0
 28 27  1  0
 29 28  2  0
 30 29  1  0
 30 25  2  0
 31 32  1  0
 32 33  1  0
 33 34  2  0
 35 34  1  0
 35 39  1  0
 36 35  2  0
 37 32  2  0
 37 36  1  0
 38 37  1  0
 40 41  1  0
 41 44  1  0
 41 43  1  0
 42 40  2  0
 45 46  1  0
 45 20  1  0
 47 45  1  0
 48 49  2  0
 50 51  1  0
 50 48  1  0
 51 53  1  0
 52 63  2  0
 53 58  1  0
 54 62  1  0
 54 64  1  0
 55 61  1  0
 55 57  1  0
 56 62  1  0
 57 56  1  0
 58 57  2  0
 59 60  1  0
 59 53  2  0
 60 55  2  0
 61 54  1  0
 62 52  1  0
 64 66  2  0
 65 64  1  0
 67 65  1  0
 68 77  2  0
 68 73  1  0
 69 65  1  0
 69 73  1  0
 70 69  1  0
 71 72  1  0
 71 70  1  0
 72 68  1  0
 73 74  2  0
 74 75  1  0
 76 75  2  0
 77 76  1  0
 78 52  1  0
 78 83  1  0
 78 79  1  0
 79 82  1  1
 79 80  1  0
 81 79  1  0
 83 86  1  0
 84 88  1  0
 84 83  1  0
 85 84  2  0
 88 87  1  0
 90 88  1  0
 90 91  1  0
 90 89  1  0
M  ISO  4  11 100  12 100  50 101  51 101
M  END
>  <TORSDO>  (73) 
F 20

>  <SCORE>  (73) 
-13.706

>  <name>  (73) 
72

>  <ligand_id>  (73) 
72

>  <original_smiles>  (73) 
[H]C(=NC(=O)N1C([H])([H])C([H])([H])C([H])([H])C([H])(n2nc(-c3c([H])c([H])c(Oc4c([H])c([H])c(F)c([H])c4F)c([H])c3[H])c(C(=O)N([H])[H])c2N([H])[H])C1([H])[H])c1c([H])c(C([H])=C([H])C(=O)C([H])([H])Oc2c([H])c([H])c3c(c2[H])C([H])([H])N(C(=O)C([H])(N([H])C(=O)C([H])(N([H])C([H])([H])[H])C([H])([H])[H])C(C([H])([H])[H])(C([H])([H])[H])C([H])([H])[H])C([H])(C(=O)N([H])C2([H])c4c([H])c([H])c([H])c([H])c4C([H])([H])C([H])([H])C2([H])[H])C3([H])[H])c([H])c([H])c1C([H])([H])[H]

>  <smiles>  (73) 
[H]C(=NC(=O)N1C([H])([H])C([H])([H])C([H])([H])C([H])(n2nc(-c3c([H])c([H])c(Oc4c([H])c([H])c(F)c([H])c4F)c([H])c3[H])c(C(=O)N([H])[H])c2N([H])[H])C1([H])[H])c1c([H])c(C([H])=C([H])C(=O)C([H])([H])Oc2c([H])c([H])c3c(c2[H])C([H])([H])N(C(=O)C([H])(N([H])C(=O)C([H])(N([H])C([H])([H])[H])C([H])([H])[H])C(C([H])([H])[H])(C([H])([H])[H])C([H])([H])[H])C([H])(C(=O)N([H])C2([H])c4c([H])c([H])c([H])c([H])c4C([H])([H])C([H])([H])C2([H])[H])C3([H])[H])c([H])c([H])c1C([H])([H])[H]

$$$$
73:0:0
     RDKit          3D

 93101  0  0  1  0  0  0  0  0999 V2000
  -29.8550  -21.2980   20.8360 C   0  0  0  0  0  3  0  0  0  0  0  0
  -29.6840  -22.2800   19.9150 C   0  0  0  0  0  3  0  0  0  0  0  0
  -30.0580  -19.1840   19.3680 C   0  0  0  0  0  3  0  0  0  0  0  0
  -30.1860  -17.7720   19.2620 C   0  0  0  0  0  3  0  0  0  0  0  0
  -30.1020  -19.0020   21.7770 C   0  0  0  0  0  3  0  0  0  0  0  0
  -30.0220  -19.8260   20.6320 C   0  0  0  0  0  0  0  0  0  0  0  0
  -30.2010  -17.5930   21.6850 C   0  0  0  0  0  0  0  0  0  0  0  0
  -30.2490  -16.9540   20.4210 C   0  0  0  0  0  0  0  0  0  0  0  0
  -30.2430  -16.7690   22.9630 C   0  0  0  0  0  1  0  0  0  0  0  0
  -30.7920  -14.6270   19.5450 C   0  0  0  0  0  0  0  0  0  0  0  0
  -30.3300  -12.5020   18.3620 C   0  0  0  0  0  2  0  0  0  0  0  0
  -29.1890  -12.7450   17.3510 C   0  0  0  0  0  2  0  0  0  0  0  0
  -27.8090  -12.5850   18.0210 C   0  0  0  0  0  2  0  0  0  0  0  0
  -27.7000  -13.3650   19.3590 C   0  0  0  0  0  3  0  0  0  0  0  0
  -28.9270  -13.0770   20.2540 C   0  0  0  0  0  2  0  0  0  0  0  0
  -30.1410  -13.4280   19.4900 N   0  0  0  0  0  0  0  0  0  0  0  0
  -31.7770  -14.8870   18.8470 O   0  0  0  0  0  0  0  0  0  0  0  0
  -30.2440  -15.5170   20.3980 N   0  0  0  0  0  0  0  0  0  0  0  0
  -29.5960  -15.0930   21.0430 H   0  0  0  0  0  0  0  0  0  0  0  0
  -25.5120  -13.9520   20.5810 C   0  0  0  0  0  0  0  0  0  0  0  0
  -24.4860  -13.1730   21.0460 C   0  0  0  0  0  0  0  0  0  0  0  0
  -24.8530  -11.8230   20.7570 C   0  0  0  0  0  0  0  0  0  0  0  0
  -26.4440  -13.0750   20.0470 N   0  0  0  0  0  0  0  0  0  0  0  0
  -26.0590  -11.7830   20.2050 N   0  0  0  0  0  0  0  0  0  0  0  0
  -24.1020  -10.5710   20.9210 C   0  0  0  0  0  0  0  0  0  0  0  0
  -24.5840   -9.5230   21.7360 C   0  0  0  0  0  3  0  0  0  0  0  0
  -23.8350   -8.3370   21.8930 C   0  0  0  0  0  3  0  0  0  0  0  0
  -22.5910   -8.1910   21.2360 C   0  0  0  0  0  0  0  0  0  0  0  0
  -22.1270   -9.2280   20.4080 C   0  0  0  0  0  3  0  0  0  0  0  0
  -22.8760  -10.4060   20.2480 C   0  0  0  0  0  3  0  0  0  0  0  0
  -21.8080   -7.0640   21.3070 O   0  0  0  0  0  0  0  0  0  0  0  0
  -21.7310   -6.3140   22.4530 C   0  0  0  0  0  0  0  0  0  0  0  0
  -21.3170   -6.8710   23.6820 C   0  0  0  0  0  3  0  0  0  0  0  0
  -21.1840   -6.0500   24.8200 C   0  0  0  0  0  3  0  0  0  0  0  0
  -21.4560   -4.6720   24.7290 C   0  0  0  0  0  0  0  0  0  0  0  0
  -21.8640   -4.1130   23.5040 C   0  0  0  0  0  3  0  0  0  0  0  0
  -21.9980   -4.9320   22.3700 C   0  0  0  0  0  0  0  0  0  0  0  0
  -22.3710   -4.3850   21.1880 F   0  0  0  0  0  0  0  0  0  0  0  0
  -21.3220   -3.8810   25.8190 F   0  0  0  0  0  0  0  0  0  0  0  0
  -23.1940  -13.6540   21.6430 C   0  0  0  0  0  0  0  0  0  0  0  0
  -22.6190  -12.8850   22.5610 N   0  0  0  0  0  0  0  0  0  0  0  0
  -22.7120  -14.7430   21.3320 O   0  0  0  0  0  0  0  0  0  0  0  0
  -23.0260  -12.0020   22.8300 H   0  0  0  0  0  0  0  0  0  0  0  0
  -21.7620  -13.1860   23.0020 H   0  0  0  0  0  0  0  0  0  0  0  0
  -25.7210  -15.3280   20.5530 N   0  0  0  0  0  0  0  0  0  0  0  0
  -25.0320  -15.9890   20.8930 H   0  0  0  0  0  0  0  0  0  0  0  0
  -26.5300  -15.7760   20.1420 H   0  0  0  0  0  0  0  0  0  0  0  0
  -29.3660  -24.5780   19.1610 C   0  0  0  0  0  3  0  0  0  0  0  0
  -29.5360  -23.7250   20.2070 C   0  0  0  0  0  0  0  0  0  0  0  0
  -29.5960  -24.2220   21.6420 C   0  0  0  0  0  1  0  0  0  0  0  0
  -30.5130  -26.7790   18.6620 C   0  0  0  0  0  1  0  0  0  0  0  0
  -29.1870  -26.1130   19.0470 C   0  0  0  0  0  3  0  0  0  0  0  0
  -28.7110  -26.8320   20.2040 O   0  0  0  0  0  0  0  0  0  0  0  0
  -24.5340  -31.7790   23.2200 C   0  0  0  0  0  0  0  0  0  0  0  0
  -27.4980  -27.5070   20.1480 C   0  0  0  0  0  0  0  0  0  0  0  0
  -23.4410  -30.3120   21.5570 C   0  0  0  0  0  3  0  0  0  0  0  0
  -25.0080  -28.8750   20.1440 C   0  0  0  0  0  0  0  0  0  0  0  0
  -25.9440  -30.8220   21.3970 C   0  0  0  0  0  2  0  0  0  0  0  0
  -26.1240  -29.4610   20.7500 C   0  0  0  0  0  0  0  0  0  0  0  0
  -27.3680  -28.7810   20.7560 C   0  0  0  0  0  3  0  0  0  0  0  0
  -26.3510  -26.9300   19.5570 C   0  0  0  0  0  3  0  0  0  0  0  0
  -25.1160  -27.6070   19.5480 C   0  0  0  0  0  3  0  0  0  0  0  0
  -23.7120  -29.6570   20.1770 C   0  0  0  0  0  2  0  0  0  0  0  0
  -24.6570  -30.9870   22.1160 N   0  0  0  0  0  0  0  0  0  0  0  0
  -23.4300  -31.9780   23.7480 O   0  0  0  0  0  0  0  0  0  0  0  0
  -22.8430  -29.2470   22.5040 C   0  0  0  0  0  0  0  0  0  0  0  0
  -21.5560  -28.9200   22.3040 N   0  0  0  0  0  0  0  0  0  0  0  0
  -23.5360  -28.7170   23.3760 O   0  0  0  0  0  0  0  0  0  0  0  0
  -21.0520  -29.4060   21.5750 H   0  0  0  0  0  0  0  0  0  0  0  0
  -18.3260  -27.3240   22.5830 C   0  0  0  0  0  0  0  0  0  0  0  0
  -20.7990  -27.9150   23.0490 C   0  0  0  0  0  3  0  0  0  0  0  0
  -21.1260  -26.4870   22.5530 C   0  0  0  0  0  2  0  0  0  0  0  0
  -20.1660  -25.9890   21.4690 C   0  0  0  0  0  2  0  0  0  0  0  0
  -18.7260  -25.9830   21.9900 C   0  0  0  0  0  2  0  0  0  0  0  0
  -19.3000  -28.2370   23.0670 C   0  0  0  0  0  0  0  0  0  0  0  0
  -18.8770  -29.4840   23.5740 C   0  0  0  0  0  3  0  0  0  0  0  0
  -17.5110  -29.8230   23.6080 C   0  0  0  0  0  3  0  0  0  0  0  0
  -16.5490  -28.9090   23.1420 C   0  0  0  0  0  3  0  0  0  0  0  0
  -16.9560  -27.6620   22.6340 C   0  0  0  0  0  3  0  0  0  0  0  0
  -25.7680  -32.4870   23.8580 C   0  0  0  0  0  3  0  0  0  0  0  0
  -26.3040  -31.7580   25.1510 C   0  0  1  0  0  0  0  0  0  0  0  0
  -25.2030  -31.4470   26.1910 C   0  0  0  0  0  1  0  0  0  0  0  0
  -26.9940  -30.4270   24.7760 C   0  0  0  0  0  1  0  0  0  0  0  0
  -27.3770  -32.6350   25.8390 C   0  0  0  0  0  1  0  0  0  0  0  0
  -25.3730  -33.8680   24.1680 N   0  0  0  0  0  0  0  0  0  0  0  0
  -25.6440  -34.9280   23.3960 C   0  0  0  0  0  0  0  0  0  0  0  0
  -26.3230  -34.8530   22.3680 O   0  0  0  0  0  0  0  0  0  0  0  0
  -24.7680  -33.9960   24.9650 H   0  0  0  0  0  0  0  0  0  0  0  0
  -23.8060  -36.6020   23.0200 C   0  0  0  0  0  1  0  0  0  0  0  0
  -25.0710  -36.2900   23.8340 C   0  0  0  0  0  3  0  0  0  0  0  0
  -27.1480  -37.3230   24.6430 C   0  0  0  0  0  1  0  0  0  0  0  0
  -26.0340  -37.4050   23.7020 N   0  0  0  0  0  0  0  0  0  0  0  0
  -25.5700  -38.2990   23.8380 H   0  0  0  0  0  0  0  0  0  0  0  0
  2 49  1  0
  2  1  2  0
  3  6  1  0
  4  3  2  0
  4  8  1  0
  6  1  1  0
  6  5  2  0
  7  5  1  0
  7  9  1  0
  8  7  2  0
 10 18  1  0
 11 16  1  0
 12 13  1  0
 12 11  1  0
 14 13  1  0
 14 23  1  0
 14 15  1  0
 16 10  1  0
 16 15  1  0
 17 10  2  0
 18  8  1  0
 18 19  1  0
 20 21  2  0
 21 40  1  0
 22 25  1  0
 22 21  1  0
 23 24  1  0
 23 20  1  0
 24 22  2  0
 25 26  1  0
 26 27  2  0
 28 31  1  0
 28 27  1  0
 29 28  2  0
 30 29  1  0
 30 25  2  0
 31 32  1  0
 32 33  1  0
 33 34  2  0
 35 34  1  0
 35 39  1  0
 36 35  2  0
 37 32  2  0
 37 36  1  0
 38 37  1  0
 40 41  1  0
 41 43  1  0
 41 44  1  0
 42 40  2  0
 45 20  1  0
 45 46  1  0
 47 45  1  0
 48 49  2  0
 49 50  1  0
 52 51  1  0
 52 48  1  0
 52 53  1  0
 54 65  2  0
 55 53  1  0
 55 60  1  0
 56 64  1  0
 56 66  1  0
 57 63  1  0
 57 59  1  0
 58 64  1  0
 59 60  2  0
 59 58  1  0
 61 55  2  0
 62 61  1  0
 62 57  2  0
 63 56  1  0
 64 54  1  0
 66 68  2  0
 67 66  1  0
 69 67  1  0
 70 79  2  0
 70 75  1  0
 71 67  1  0
 71 75  1  0
 72 71  1  0
 73 74  1  0
 73 72  1  0
 74 70  1  0
 75 76  2  0
 76 77  1  0
 78 77  2  0
 79 78  1  0
 80 54  1  0
 80 85  1  0
 80 81  1  0
 81 84  1  1
 81 82  1  0
 83 81  1  0
 85 88  1  0
 86 90  1  0
 86 85  1  0
 87 86  2  0
 90 89  1  0
 92 90  1  0
 92 93  1  0
 92 91  1  0
M  ISO  4  10 100  18 100  52 101  53 101
M  END
>  <TORSDO>  (74) 
F 19

>  <SCORE>  (74) 
-11.364

>  <name>  (74) 
73

>  <ligand_id>  (74) 
73

>  <original_smiles>  (74) 
[H]C(=C([H])c1c([H])c([H])c(N([H])C(=O)N2C([H])([H])C([H])([H])C([H])([H])C([H])(n3nc(-c4c([H])c([H])c(Oc5c([H])c([H])c(F)c([H])c5F)c([H])c4[H])c(C(=O)N([H])[H])c3N([H])[H])C2([H])[H])c(C([H])([H])[H])c1[H])C(=C([H])C([H])(Oc1c([H])c([H])c2c(c1[H])C([H])([H])N(C(=O)C([H])(N([H])C(=O)C([H])(N([H])C([H])([H])[H])C([H])([H])[H])C(C([H])([H])[H])(C([H])([H])[H])C([H])([H])[H])C([H])(C(=O)N([H])C1([H])c3c([H])c([H])c([H])c([H])c3C([H])([H])C([H])([H])C1([H])[H])C2([H])[H])C([H])([H])[H])C([H])([H])[H]

>  <smiles>  (74) 
[H]C(=C([H])c1c([H])c([H])c(N([H])C(=O)N2C([H])([H])C([H])([H])C([H])([H])C([H])(n3nc(-c4c([H])c([H])c(Oc5c([H])c([H])c(F)c([H])c5F)c([H])c4[H])c(C(=O)N([H])[H])c3N([H])[H])C2([H])[H])c(C([H])([H])[H])c1[H])C(=C([H])C([H])(Oc1c([H])c([H])c2c(c1[H])C([H])([H])N(C(=O)C([H])(N([H])C(=O)C([H])(N([H])C([H])([H])[H])C([H])([H])[H])C(C([H])([H])[H])(C([H])([H])[H])C([H])([H])[H])C([H])(C(=O)N([H])C1([H])c3c([H])c([H])c([H])c([H])c3C([H])([H])C([H])([H])C1([H])[H])C2([H])[H])C([H])([H])[H])C([H])([H])[H]

$$$$
74:0:0
     RDKit          3D

 89 97  0  0  1  0  0  0  0  0999 V2000
  -30.5750  -18.9300   22.3080 C   0  0  0  0  0  3  0  0  0  0  0  0
  -30.0880  -19.9650   20.1670 C   0  0  0  0  0  3  0  0  0  0  0  0
  -30.0040  -21.3200   22.1830 C   0  0  0  0  0  3  0  0  0  0  0  0
  -30.4760  -18.7790   20.9050 C   0  0  0  0  0  0  0  0  0  0  0  0
  -30.3770  -20.1820   22.9360 C   0  0  0  0  0  0  0  0  0  0  0  0
  -29.8330  -21.2520   20.7850 C   0  0  0  0  0  0  0  0  0  0  0  0
  -30.5800  -20.3170   24.4370 C   0  0  0  0  0  1  0  0  0  0  0  0
  -30.8110  -17.4210   20.2710 C   0  0  0  0  0  3  0  0  0  0  0  0
  -30.7190  -16.1360   20.7760 C   0  0  0  0  0  3  0  0  0  0  0  0
  -31.2960  -14.9290   20.0880 C   0  0  0  0  0  0  0  0  0  0  0  0
  -30.9000  -12.7160   19.0020 C   0  0  0  0  0  2  0  0  0  0  0  0
  -29.9360  -12.9030   17.8090 C   0  0  0  0  0  2  0  0  0  0  0  0
  -28.4710  -12.8060   18.2720 C   0  0  0  0  0  2  0  0  0  0  0  0
  -28.1900  -13.6710   19.5310 C   0  0  0  0  0  3  0  0  0  0  0  0
  -29.2700  -13.4630   20.6160 C   0  0  0  0  0  2  0  0  0  0  0  0
  -30.5800  -13.7530   20.0150 N   0  0  0  0  0  0  0  0  0  0  0  0
  -32.4020  -14.9890   19.5390 O   0  0  0  0  0  0  0  0  0  0  0  0
  -25.8680  -14.3770   20.3660 C   0  0  0  0  0  0  0  0  0  0  0  0
  -24.7700  -13.6570   20.7520 C   0  0  0  0  0  0  0  0  0  0  0  0
  -25.1450  -12.2820   20.6550 C   0  0  0  0  0  0  0  0  0  0  0  0
  -26.8450  -13.4450   20.0570 N   0  0  0  0  0  0  0  0  0  0  0  0
  -26.4190  -12.1760   20.2910 N   0  0  0  0  0  0  0  0  0  0  0  0
  -24.3500  -11.0590   20.8300 C   0  0  0  0  0  0  0  0  0  0  0  0
  -24.7250  -10.0580   21.7520 C   0  0  0  0  0  3  0  0  0  0  0  0
  -23.9300   -8.9030   21.9150 C   0  0  0  0  0  3  0  0  0  0  0  0
  -22.7470   -8.7410   21.1560 C   0  0  0  0  0  0  0  0  0  0  0  0
  -22.3920   -9.7320   20.2240 C   0  0  0  0  0  3  0  0  0  0  0  0
  -23.1860  -10.8790   20.0580 C   0  0  0  0  0  3  0  0  0  0  0  0
  -21.9300   -7.6380   21.2280 O   0  0  0  0  0  0  0  0  0  0  0  0
  -21.8130   -6.9020   22.3800 C   0  0  0  0  0  0  0  0  0  0  0  0
  -21.3500   -7.4710   23.5860 C   0  0  0  0  0  3  0  0  0  0  0  0
  -21.1800   -6.6600   24.7270 C   0  0  0  0  0  3  0  0  0  0  0  0
  -21.4640   -5.2830   24.6630 C   0  0  0  0  0  0  0  0  0  0  0  0
  -21.9200   -4.7140   23.4610 C   0  0  0  0  0  3  0  0  0  0  0  0
  -22.0920   -5.5220   22.3230 C   0  0  0  0  0  0  0  0  0  0  0  0
  -22.5110   -4.9630   21.1620 F   0  0  0  0  0  0  0  0  0  0  0  0
  -21.2970   -4.5040   25.7570 F   0  0  0  0  0  0  0  0  0  0  0  0
  -23.4150  -14.2100   21.0930 C   0  0  0  0  0  0  0  0  0  0  0  0
  -22.6740  -13.5390   21.9660 N   0  0  0  0  0  0  0  0  0  0  0  0
  -23.0200  -15.2730   20.6160 O   0  0  0  0  0  0  0  0  0  0  0  0
  -23.0030  -12.6850   22.3900 H   0  0  0  0  0  0  0  0  0  0  0  0
  -21.7640  -13.8940   22.2210 H   0  0  0  0  0  0  0  0  0  0  0  0
  -26.1120  -15.7420   20.2370 N   0  0  0  0  0  0  0  0  0  0  0  0
  -25.4020  -16.4410   20.4280 H   0  0  0  0  0  0  0  0  0  0  0  0
  -26.9920  -16.1440   19.9350 H   0  0  0  0  0  0  0  0  0  0  0  0
  -29.2610  -22.5090   20.0070 C   0  0  0  0  0  2  0  0  0  0  0  0
  -29.5490  -24.0400   20.4350 C   0  0  0  0  0  3  0  0  0  0  0  0
  -28.5770  -25.1480   19.7950 C   0  0  0  0  0  3  0  0  0  0  0  0
  -28.7080  -26.6160   20.0460 O   0  0  0  0  0  0  0  0  0  0  0  0
  -24.7150  -31.7540   23.1650 C   0  0  0  0  0  0  0  0  0  0  0  0
  -27.5580  -27.4310   19.9710 C   0  0  0  0  0  0  0  0  0  0  0  0
  -23.5780  -30.3400   21.4900 C   0  0  0  0  0  3  0  0  0  0  0  0
  -25.1070  -28.9230   20.0060 C   0  0  0  0  0  0  0  0  0  0  0  0
  -26.0950  -30.8050   21.3040 C   0  0  0  0  0  2  0  0  0  0  0  0
  -26.2500  -29.4530   20.6180 C   0  0  0  0  0  0  0  0  0  0  0  0
  -27.4750  -28.7180   20.5980 C   0  0  0  0  0  3  0  0  0  0  0  0
  -26.3940  -26.9770   19.3040 C   0  0  0  0  0  3  0  0  0  0  0  0
  -25.1840  -27.6920   19.3390 C   0  0  0  0  0  3  0  0  0  0  0  0
  -23.8230  -29.7210   20.0890 C   0  0  0  0  0  2  0  0  0  0  0  0
  -24.8150  -30.9840   22.0440 N   0  0  0  0  0  0  0  0  0  0  0  0
  -23.6220  -31.9520   23.7160 O   0  0  0  0  0  0  0  0  0  0  0  0
  -22.9820  -29.2590   22.4210 C   0  0  0  0  0  0  0  0  0  0  0  0
  -21.6740  -28.9900   22.2750 N   0  0  0  0  0  0  0  0  0  0  0  0
  -23.6960  -28.6680   23.2340 O   0  0  0  0  0  0  0  0  0  0  0  0
  -21.1530  -29.5170   21.5890 H   0  0  0  0  0  0  0  0  0  0  0  0
  -18.3930  -27.5270   22.7030 C   0  0  0  0  0  0  0  0  0  0  0  0
  -20.9190  -27.9820   23.0200 C   0  0  0  0  0  3  0  0  0  0  0  0
  -21.1440  -26.5710   22.4280 C   0  0  0  0  0  2  0  0  0  0  0  0
  -20.0850  -26.1780   21.3910 C   0  0  0  0  0  2  0  0  0  0  0  0
  -18.6860  -26.2060   22.0120 C   0  0  0  0  0  2  0  0  0  0  0  0
  -19.4420  -28.3680   23.1620 C   0  0  0  0  0  0  0  0  0  0  0  0
  -19.1130  -29.6020   23.7660 C   0  0  0  0  0  3  0  0  0  0  0  0
  -17.7700  -29.9950   23.9180 C   0  0  0  0  0  3  0  0  0  0  0  0
  -16.7360  -29.1520   23.4740 C   0  0  0  0  0  3  0  0  0  0  0  0
  -17.0500  -27.9200   22.8720 C   0  0  0  0  0  3  0  0  0  0  0  0
  -25.9660  -32.4380   23.8000 C   0  0  0  0  0  3  0  0  0  0  0  0
  -26.5080  -31.6850   25.0760 C   0  0  1  0  0  0  0  0  0  0  0  0
  -25.4140  -31.3860   26.1280 C   0  0  0  0  0  1  0  0  0  0  0  0
  -27.1630  -30.3410   24.6830 C   0  0  0  0  0  1  0  0  0  0  0  0
  -27.6150  -32.5260   25.7540 C   0  0  0  0  0  1  0  0  0  0  0  0
  -25.5920  -33.8200   24.1330 N   0  0  0  0  0  0  0  0  0  0  0  0
  -25.8690  -34.8890   23.3750 C   0  0  0  0  0  0  0  0  0  0  0  0
  -26.5350  -34.8180   22.3390 O   0  0  0  0  0  0  0  0  0  0  0  0
  -24.9940  -33.9440   24.9380 H   0  0  0  0  0  0  0  0  0  0  0  0
  -24.0460  -36.5940   23.0490 C   0  0  0  0  0  1  0  0  0  0  0  0
  -25.3200  -36.2520   23.8390 C   0  0  0  0  0  3  0  0  0  0  0  0
  -27.4150  -37.2520   24.6370 C   0  0  0  0  0  1  0  0  0  0  0  0
  -26.2940  -37.3560   23.7070 N   0  0  0  0  0  0  0  0  0  0  0  0
  -25.8430  -38.2540   23.8540 H   0  0  0  0  0  0  0  0  0  0  0  0
  1  5  1  0
  2  6  2  0
  2  4  1  0
  3  5  2  0
  4  1  2  0
  5  7  1  0
  6  3  1  0
  8  9  2  0
  8  4  1  0
 10  9  1  0
 11 16  1  0
 12 13  1  0
 12 11  1  0
 14 13  1  0
 14 21  1  0
 14 15  1  0
 16 10  1  0
 16 15  1  0
 17 10  2  0
 18 19  2  0
 19 38  1  0
 20 19  1  0
 20 23  1  0
 21 22  1  0
 21 18  1  0
 22 20  2  0
 23 24  1  0
 24 25  2  0
 26 29  1  0
 26 25  1  0
 27 26  2  0
 28 27  1  0
 28 23  2  0
 29 30  1  0
 30 31  1  0
 31 32  2  0
 33 32  1  0
 33 37  1  0
 34 33  2  0
 35 30  2  0
 35 34  1  0
 36 35  1  0
 38 39  1  0
 39 42  1  0
 39 41  1  0
 40 38  2  0
 43 18  1  0
 43 44  1  0
 45 43  1  0
 46 47  1  0
 46  6  1  0
 48 49  1  0
 48 47  2  0
 50 61  2  0
 51 49  1  0
 51 56  1  0
 52 60  1  0
 52 62  1  0
 53 59  1  0
 53 55  1  0
 54 60  1  0
 55 54  1  0
 56 55  2  0
 57 58  1  0
 57 51  2  0
 58 53  2  0
 59 52  1  0
 60 50  1  0
 62 64  2  0
 63 62  1  0
 65 63  1  0
 66 75  2  0
 66 71  1  0
 67 63  1  0
 67 71  1  0
 68 67  1  0
 69 70  1  0
 69 68  1  0
 70 66  1  0
 71 72  2  0
 72 73  1  0
 74 73  2  0
 75 74  1  0
 76 50  1  0
 76 81  1  0
 76 77  1  0
 77 80  1  1
 77 78  1  0
 79 77  1  0
 81 84  1  0
 82 86  1  0
 82 81  1  0
 83 82  2  0
 86 85  1  0
 88 86  1  0
 88 89  1  0
 88 87  1  0
M  ISO  4   9 100  10 100  48 101  49 101
M  END
>  <TORSDO>  (75) 
F 20

>  <SCORE>  (75) 
-12.068

>  <name>  (75) 
74

>  <ligand_id>  (75) 
74

>  <original_smiles>  (75) 
[H]C(C(=O)N1C([H])([H])C([H])([H])C([H])([H])C([H])(n2nc(-c3c([H])c([H])c(Oc4c([H])c([H])c(F)c([H])c4F)c([H])c3[H])c(C(=O)N([H])[H])c2N([H])[H])C1([H])[H])=C([H])c1c([H])c(C([H])([H])[H])c([H])c(C([H])([H])C([H])([H])C([H])([H])Oc2c([H])c([H])c3c(c2[H])C([H])([H])N(C(=O)C([H])(N([H])C(=O)C([H])(N([H])C([H])([H])[H])C([H])([H])[H])C(C([H])([H])[H])(C([H])([H])[H])C([H])([H])[H])C([H])(C(=O)N([H])C2([H])c4c([H])c([H])c([H])c([H])c4C([H])([H])C([H])([H])C2([H])[H])C3([H])[H])c1[H]

>  <smiles>  (75) 
[H]C(C(=O)N1C([H])([H])C([H])([H])C([H])([H])C([H])(n2nc(-c3c([H])c([H])c(Oc4c([H])c([H])c(F)c([H])c4F)c([H])c3[H])c(C(=O)N([H])[H])c2N([H])[H])C1([H])[H])=C([H])c1c([H])c(C([H])([H])[H])c([H])c(C([H])([H])C([H])([H])C([H])([H])Oc2c([H])c([H])c3c(c2[H])C([H])([H])N(C(=O)C([H])(N([H])C(=O)C([H])(N([H])C([H])([H])[H])C([H])([H])[H])C(C([H])([H])[H])(C([H])([H])[H])C([H])([H])[H])C([H])(C(=O)N([H])C2([H])c4c([H])c([H])c([H])c([H])c4C([H])([H])C([H])([H])C2([H])[H])C3([H])[H])c1[H]

$$$$
75:0:0
     RDKit          3D

 92100  0  0  1  0  0  0  0  0999 V2000
  -28.9690  -19.4440   20.0470 C   0  0  0  0  0  3  0  0  0  0  0  0
  -31.0120  -17.9080   21.1780 C   0  0  0  0  0  3  0  0  0  0  0  0
  -30.0220  -20.1550   20.6690 C   0  0  0  0  0  0  0  0  0  0  0  0
  -28.9170  -18.0210   20.0060 C   0  0  0  0  0  0  0  0  0  0  0  0
  -31.0620  -19.3390   21.2180 C   0  0  0  0  0  0  0  0  0  0  0  0
  -29.9290  -17.2040   20.5930 C   0  0  0  0  0  0  0  0  0  0  0  0
  -27.7170  -17.3990   19.3260 C   0  0  0  0  0  1  0  0  0  0  0  0
  -32.2590  -19.9820   21.9010 C   0  0  0  0  0  1  0  0  0  0  0  0
  -30.5750  -14.6870   20.4220 C   0  0  0  0  0  0  0  0  0  0  0  0
  -30.3540  -12.4580   19.3440 C   0  0  0  0  0  2  0  0  0  0  0  0
  -29.3940  -12.5900   18.1400 C   0  0  0  0  0  2  0  0  0  0  0  0
  -27.9260  -12.4170   18.5830 C   0  0  0  0  0  2  0  0  0  0  0  0
  -27.5740  -13.2680   19.8310 C   0  0  0  0  0  3  0  0  0  0  0  0
  -28.6490  -13.1210   20.9330 C   0  0  0  0  0  2  0  0  0  0  0  0
  -29.9520  -13.4680   20.3400 N   0  0  0  0  0  0  0  0  0  0  0  0
  -31.7500  -14.8350   20.0750 O   0  0  0  0  0  0  0  0  0  0  0  0
  -29.7520  -15.7520   20.6870 N   0  0  0  0  0  0  0  0  0  0  0  0
  -28.8000  -15.4590   20.8390 H   0  0  0  0  0  0  0  0  0  0  0  0
  -25.1820  -13.8550   20.5720 C   0  0  0  0  0  0  0  0  0  0  0  0
  -24.1200  -13.0800   20.9450 C   0  0  0  0  0  0  0  0  0  0  0  0
  -24.5840  -11.7310   20.8980 C   0  0  0  0  0  0  0  0  0  0  0  0
  -26.2290  -12.9800   20.3250 N   0  0  0  0  0  0  0  0  0  0  0  0
  -25.8730  -11.6960   20.5810 N   0  0  0  0  0  0  0  0  0  0  0  0
  -23.8600  -10.4700   21.0770 C   0  0  0  0  0  0  0  0  0  0  0  0
  -24.2990   -9.4920   21.9970 C   0  0  0  0  0  3  0  0  0  0  0  0
  -23.5740   -8.2930   22.1670 C   0  0  0  0  0  3  0  0  0  0  0  0
  -22.3950   -8.0650   21.4180 C   0  0  0  0  0  0  0  0  0  0  0  0
  -21.9750   -9.0310   20.4870 C   0  0  0  0  0  3  0  0  0  0  0  0
  -22.7010  -10.2210   20.3150 C   0  0  0  0  0  3  0  0  0  0  0  0
  -21.6420   -6.9190   21.4980 O   0  0  0  0  0  0  0  0  0  0  0  0
  -21.5980   -6.1670   22.6440 C   0  0  0  0  0  0  0  0  0  0  0  0
  -21.1650   -6.7080   23.8740 C   0  0  0  0  0  3  0  0  0  0  0  0
  -21.0680   -5.8810   25.0110 C   0  0  0  0  0  3  0  0  0  0  0  0
  -21.3950   -4.5140   24.9200 C   0  0  0  0  0  0  0  0  0  0  0  0
  -21.8240   -3.9730   23.6950 C   0  0  0  0  0  3  0  0  0  0  0  0
  -21.9210   -4.7970   22.5590 C   0  0  0  0  0  0  0  0  0  0  0  0
  -22.3130   -4.2660   21.3760 F   0  0  0  0  0  0  0  0  0  0  0  0
  -21.2950   -3.7190   26.0090 F   0  0  0  0  0  0  0  0  0  0  0  0
  -22.7230  -13.5570   21.2280 C   0  0  0  0  0  0  0  0  0  0  0  0
  -22.0020  -12.8570   22.0940 N   0  0  0  0  0  0  0  0  0  0  0  0
  -22.2840  -14.5860   20.7170 O   0  0  0  0  0  0  0  0  0  0  0  0
  -22.3700  -12.0250   22.5310 H   0  0  0  0  0  0  0  0  0  0  0  0
  -21.0660  -13.1580   22.3250 H   0  0  0  0  0  0  0  0  0  0  0  0
  -25.3280  -15.2230   20.3980 N   0  0  0  0  0  0  0  0  0  0  0  0
  -24.5400  -15.8560   20.4890 H   0  0  0  0  0  0  0  0  0  0  0  0
  -26.1380  -15.6580   19.9820 H   0  0  0  0  0  0  0  0  0  0  0  0
  -30.0320  -21.6820   20.7590 C   0  0  0  0  0  3  0  0  0  0  0  0
  -29.1290  -22.6160   20.3140 C   0  0  0  0  0  3  0  0  0  0  0  0
  -29.2830  -24.1210   20.4950 C   0  0  0  0  0  0  0  0  0  0  0  0
  -30.2940  -24.6090   21.0140 O   0  0  0  0  0  0  0  0  0  0  0  0
  -28.1430  -25.0990   20.0200 C   0  0  0  0  0  2  0  0  0  0  0  0
  -28.3350  -26.5380   20.3040 O   0  0  0  0  0  0  0  0  0  0  0  0
  -24.5850  -31.9350   23.2640 C   0  0  0  0  0  0  0  0  0  0  0  0
  -27.2040  -27.3660   20.2420 C   0  0  0  0  0  0  0  0  0  0  0  0
  -23.3810  -30.5290   21.6280 C   0  0  0  0  0  3  0  0  0  0  0  0
  -24.8320  -28.9670   20.2170 C   0  0  0  0  0  0  0  0  0  0  0  0
  -25.9210  -30.8430   21.4520 C   0  0  0  0  0  2  0  0  0  0  0  0
  -25.9990  -29.4620   20.8140 C   0  0  0  0  0  0  0  0  0  0  0  0
  -27.1860  -28.6720   20.8180 C   0  0  0  0  0  3  0  0  0  0  0  0
  -26.0120  -26.9210   19.6220 C   0  0  0  0  0  3  0  0  0  0  0  0
  -24.8400  -27.7010   19.6140 C   0  0  0  0  0  3  0  0  0  0  0  0
  -23.5970  -29.8420   20.2550 C   0  0  0  0  0  2  0  0  0  0  0  0
  -24.6470  -31.1190   22.1720 N   0  0  0  0  0  0  0  0  0  0  0  0
  -23.5020  -32.2210   23.7920 O   0  0  0  0  0  0  0  0  0  0  0  0
  -22.7110  -29.5210   22.5920 C   0  0  0  0  0  0  0  0  0  0  0  0
  -21.3840  -29.3510   22.4600 N   0  0  0  0  0  0  0  0  0  0  0  0
  -23.3830  -28.8970   23.4180 O   0  0  0  0  0  0  0  0  0  0  0  0
  -20.9050  -29.9020   21.7630 H   0  0  0  0  0  0  0  0  0  0  0  0
  -17.9950  -28.1960   22.9630 C   0  0  0  0  0  0  0  0  0  0  0  0
  -20.5560  -28.4250   23.2340 C   0  0  0  0  0  3  0  0  0  0  0  0
  -20.6420  -26.9920   22.6610 C   0  0  0  0  0  2  0  0  0  0  0  0
  -19.5360  -26.6790   21.6480 C   0  0  0  0  0  2  0  0  0  0  0  0
  -18.1550  -26.8430   22.2900 C   0  0  0  0  0  2  0  0  0  0  0  0
  -19.1220  -28.9460   23.3910 C   0  0  0  0  0  0  0  0  0  0  0  0
  -18.9170  -30.2130   23.9800 C   0  0  0  0  0  3  0  0  0  0  0  0
  -17.6180  -30.7290   24.1470 C   0  0  0  0  0  3  0  0  0  0  0  0
  -16.5050  -29.9740   23.7350 C   0  0  0  0  0  3  0  0  0  0  0  0
  -16.6940  -28.7100   23.1490 C   0  0  0  0  0  3  0  0  0  0  0  0
  -25.8700  -32.5640   23.8870 C   0  0  0  0  0  3  0  0  0  0  0  0
  -26.3670  -31.8060   25.1800 C   0  0  1  0  0  0  0  0  0  0  0  0
  -25.2610  -31.5970   26.2410 C   0  0  0  0  0  1  0  0  0  0  0  0
  -26.9400  -30.4170   24.8160 C   0  0  0  0  0  1  0  0  0  0  0  0
  -27.5190  -32.6000   25.8390 C   0  0  0  0  0  1  0  0  0  0  0  0
  -25.5710  -33.9690   24.1940 N   0  0  0  0  0  0  0  0  0  0  0  0
  -25.9050  -35.0050   23.4140 C   0  0  0  0  0  0  0  0  0  0  0  0
  -26.5690  -34.8790   22.3800 O   0  0  0  0  0  0  0  0  0  0  0  0
  -24.9840  -34.1420   24.9970 H   0  0  0  0  0  0  0  0  0  0  0  0
  -24.1810  -36.7990   23.0420 C   0  0  0  0  0  1  0  0  0  0  0  0
  -25.4280  -36.4050   23.8500 C   0  0  0  0  0  3  0  0  0  0  0  0
  -27.5750  -37.2940   24.6430 C   0  0  0  0  0  1  0  0  0  0  0  0
  -26.4640  -37.4520   23.7080 N   0  0  0  0  0  0  0  0  0  0  0  0
  -26.0620  -38.3740   23.8500 H   0  0  0  0  0  0  0  0  0  0  0  0
  1  3  1  0
  2  5  1  0
  3 47  1  0
  3  5  2  0
  4  1  2  0
  4  6  1  0
  5  8  1  0
  6 17  1  0
  6  2  2  0
  7  4  1  0
  9 17  1  0
 10 15  1  0
 11 12  1  0
 11 10  1  0
 13 12  1  0
 13 22  1  0
 13 14  1  0
 15  9  1  0
 15 14  1  0
 16  9  2  0
 17 18  1  0
 19 20  2  0
 20 39  1  0
 21 20  1  0
 21 24  1  0
 22 19  1  0
 22 23  1  0
 23 21  2  0
 24 25  1  0
 25 26  2  0
 27 30  1  0
 27 26  1  0
 28 27  2  0
 29 28  1  0
 29 24  2  0
 30 31  1  0
 31 32  1  0
 32 33  2  0
 34 33  1  0
 34 38  1  0
 35 34  2  0
 36 31  2  0
 36 35  1  0
 37 36  1  0
 39 40  1  0
 40 43  1  0
 40 42  1  0
 41 39  2  0
 44 45  1  0
 44 19  1  0
 46 44  1  0
 48 49  1  0
 48 47  2  0
 49 50  2  0
 51 52  1  0
 51 49  1  0
 53 64  2  0
 54 52  1  0
 54 59  1  0
 55 63  1  0
 55 65  1  0
 56 62  1  0
 56 58  1  0
 57 63  1  0
 58 59  2  0
 58 57  1  0
 60 54  2  0
 61 60  1  0
 61 56  2  0
 62 55  1  0
 63 53  1  0
 65 67  2  0
 66 65  1  0
 68 66  1  0
 69 78  2  0
 69 74  1  0
 70 66  1  0
 70 74  1  0
 71 70  1  0
 72 73  1  0
 72 71  1  0
 73 69  1  0
 74 75  2  0
 75 76  1  0
 77 76  2  0
 78 77  1  0
 79 53  1  0
 79 84  1  0
 79 80  1  0
 80 83  1  1
 80 81  1  0
 82 80  1  0
 84 87  1  0
 85 89  1  0
 85 84  1  0
 86 85  2  0
 89 88  1  0
 91 92  1  0
 91 89  1  0
 91 90  1  0
M  ISO  4   9 100  17 100  51 101  52 101
M  END
>  <TORSDO>  (76) 
F 19

>  <SCORE>  (76) 
-14.744

>  <name>  (76) 
75

>  <ligand_id>  (76) 
75

>  <original_smiles>  (76) 
[H]C(C(=O)C([H])([H])Oc1c([H])c([H])c2c(c1[H])C([H])([H])N(C(=O)C([H])(N([H])C(=O)C([H])(N([H])C([H])([H])[H])C([H])([H])[H])C(C([H])([H])[H])(C([H])([H])[H])C([H])([H])[H])C([H])(C(=O)N([H])C1([H])c3c([H])c([H])c([H])c([H])c3C([H])([H])C([H])([H])C1([H])[H])C2([H])[H])=C([H])c1c([H])c(C([H])([H])[H])c(N([H])C(=O)N2C([H])([H])C([H])([H])C([H])([H])C([H])(n3nc(-c4c([H])c([H])c(Oc5c([H])c([H])c(F)c([H])c5F)c([H])c4[H])c(C(=O)N([H])[H])c3N([H])[H])C2([H])[H])c([H])c1C([H])([H])[H]

>  <smiles>  (76) 
[H]C(C(=O)C([H])([H])Oc1c([H])c([H])c2c(c1[H])C([H])([H])N(C(=O)C([H])(N([H])C(=O)C([H])(N([H])C([H])([H])[H])C([H])([H])[H])C(C([H])([H])[H])(C([H])([H])[H])C([H])([H])[H])C([H])(C(=O)N([H])C1([H])c3c([H])c([H])c([H])c([H])c3C([H])([H])C([H])([H])C1([H])[H])C2([H])[H])=C([H])c1c([H])c(C([H])([H])[H])c(N([H])C(=O)N2C([H])([H])C([H])([H])C([H])([H])C([H])(n3nc(-c4c([H])c([H])c(Oc5c([H])c([H])c(F)c([H])c5F)c([H])c4[H])c(C(=O)N([H])[H])c3N([H])[H])C2([H])[H])c([H])c1C([H])([H])[H]

$$$$
76:0:0
     RDKit          3D

 93101  0  0  1  0  0  0  0  0999 V2000
  -31.6230  -19.6840   20.0590 C   0  0  0  0  0  3  0  0  0  0  0  0
  -32.1580  -17.3500   20.4050 C   0  0  0  0  0  3  0  0  0  0  0  0
  -30.2620  -19.4340   20.3320 C   0  0  0  0  0  0  0  0  0  0  0  0
  -30.7970  -17.0180   20.6270 C   0  0  0  0  0  0  0  0  0  0  0  0
  -29.8330  -18.0810   20.5340 C   0  0  0  0  0  0  0  0  0  0  0  0
  -32.5590  -18.6480   20.0700 C   0  0  0  0  0  0  0  0  0  0  0  0
  -28.3390  -17.7670   20.6690 C   0  0  0  0  0  1  0  0  0  0  0  0
  -33.8610  -18.9120   19.8100 F   0  0  0  0  0  0  0  0  0  0  0  0
  -30.4290  -15.6070   21.0540 C   0  0  0  0  0  0  0  0  0  0  0  0
  -29.8380  -15.4340   22.1620 N   0  0  0  0  0  0  0  0  0  0  0  0
  -29.6740  -16.3250   22.6130 H   0  0  0  0  0  0  0  0  0  0  0  0
  -30.8450  -14.4570   20.1080 C   0  0  0  0  0  0  0  0  0  0  0  0
  -30.3570  -12.3860   18.8770 C   0  0  0  0  0  2  0  0  0  0  0  0
  -29.3660  -12.7220   17.7460 C   0  0  0  0  0  2  0  0  0  0  0  0
  -27.9130  -12.5830   18.2430 C   0  0  0  0  0  2  0  0  0  0  0  0
  -27.6740  -13.3150   19.5930 C   0  0  0  0  0  3  0  0  0  0  0  0
  -28.7910  -12.9790   20.6060 C   0  0  0  0  0  2  0  0  0  0  0  0
  -30.0910  -13.3170   19.9960 N   0  0  0  0  0  0  0  0  0  0  0  0
  -31.8630  -14.6000   19.4270 O   0  0  0  0  0  0  0  0  0  0  0  0
  -25.3170  -13.8870   20.4550 C   0  0  0  0  0  0  0  0  0  0  0  0
  -24.2750  -13.1030   20.8640 C   0  0  0  0  0  0  0  0  0  0  0  0
  -24.7330  -11.7530   20.7590 C   0  0  0  0  0  0  0  0  0  0  0  0
  -26.3490  -13.0180   20.1350 N   0  0  0  0  0  0  0  0  0  0  0  0
  -26.0020  -11.7270   20.3710 N   0  0  0  0  0  0  0  0  0  0  0  0
  -24.0180  -10.4840   20.9500 C   0  0  0  0  0  0  0  0  0  0  0  0
  -24.4490   -9.5270   21.8960 C   0  0  0  0  0  3  0  0  0  0  0  0
  -23.7360   -8.3210   22.0730 C   0  0  0  0  0  3  0  0  0  0  0  0
  -22.5760   -8.0640   21.3040 C   0  0  0  0  0  0  0  0  0  0  0  0
  -22.1640   -9.0080   20.3480 C   0  0  0  0  0  3  0  0  0  0  0  0
  -22.8780  -10.2040   20.1700 C   0  0  0  0  0  3  0  0  0  0  0  0
  -21.8330   -6.9110   21.3900 O   0  0  0  0  0  0  0  0  0  0  0  0
  -21.7150   -6.2170   22.5680 C   0  0  0  0  0  0  0  0  0  0  0  0
  -21.1870   -6.8130   23.7340 C   0  0  0  0  0  3  0  0  0  0  0  0
  -21.0220   -6.0460   24.9050 C   0  0  0  0  0  3  0  0  0  0  0  0
  -21.3670   -4.6810   24.9070 C   0  0  0  0  0  0  0  0  0  0  0  0
  -21.8840   -4.0840   23.7440 C   0  0  0  0  0  3  0  0  0  0  0  0
  -22.0540   -4.8500   22.5770 C   0  0  0  0  0  0  0  0  0  0  0  0
  -22.5350   -4.2640   21.4540 F   0  0  0  0  0  0  0  0  0  0  0  0
  -21.1960   -3.9410   26.0270 F   0  0  0  0  0  0  0  0  0  0  0  0
  -22.8960  -13.5680   21.2350 C   0  0  0  0  0  0  0  0  0  0  0  0
  -22.2200  -12.8490   22.1210 N   0  0  0  0  0  0  0  0  0  0  0  0
  -22.4270  -14.6060   20.7710 O   0  0  0  0  0  0  0  0  0  0  0  0
  -22.6100  -12.0080   22.5230 H   0  0  0  0  0  0  0  0  0  0  0  0
  -21.2950  -13.1400   22.4020 H   0  0  0  0  0  0  0  0  0  0  0  0
  -25.4720  -15.2640   20.3090 N   0  0  0  0  0  0  0  0  0  0  0  0
  -24.7200  -15.9180   20.4970 H   0  0  0  0  0  0  0  0  0  0  0  0
  -26.3040  -15.7060   19.9420 H   0  0  0  0  0  0  0  0  0  0  0  0
  -29.3690  -20.6080   20.5330 C   0  0  0  0  0  3  0  0  0  0  0  0
  -29.7680  -21.8680   20.8250 C   0  0  0  0  0  3  0  0  0  0  0  0
  -28.8240  -23.0210   21.1180 C   0  0  0  0  0  2  0  0  0  0  0  0
  -29.2290  -24.3750   20.5000 C   0  0  0  0  0  2  0  0  0  0  0  0
  -28.1610  -25.4340   20.8060 C   0  0  0  0  0  2  0  0  0  0  0  0
  -28.3540  -26.6690   20.1070 O   0  0  0  0  0  0  0  0  0  0  0  0
  -24.5870  -31.8270   23.2270 C   0  0  0  0  0  0  0  0  0  0  0  0
  -27.2100  -27.4310   20.0890 C   0  0  0  0  0  0  0  0  0  0  0  0
  -23.3720  -30.4470   21.5720 C   0  0  0  0  0  3  0  0  0  0  0  0
  -24.8180  -28.9290   20.1210 C   0  0  0  0  0  0  0  0  0  0  0  0
  -25.8960  -30.8050   21.3720 C   0  0  0  0  0  2  0  0  0  0  0  0
  -25.9780  -29.4430   20.7180 C   0  0  0  0  0  0  0  0  0  0  0  0
  -27.1780  -28.6980   20.7060 C   0  0  0  0  0  3  0  0  0  0  0  0
  -26.0430  -26.9350   19.4720 C   0  0  0  0  0  3  0  0  0  0  0  0
  -24.8460  -27.6720   19.4940 C   0  0  0  0  0  3  0  0  0  0  0  0
  -23.5770  -29.7880   20.1820 C   0  0  0  0  0  2  0  0  0  0  0  0
  -24.6370  -31.0390   22.1170 N   0  0  0  0  0  0  0  0  0  0  0  0
  -23.5080  -32.0960   23.7740 O   0  0  0  0  0  0  0  0  0  0  0  0
  -22.7260  -29.4130   22.5250 C   0  0  0  0  0  0  0  0  0  0  0  0
  -21.3990  -29.2380   22.4040 N   0  0  0  0  0  0  0  0  0  0  0  0
  -23.4120  -28.7760   23.3290 O   0  0  0  0  0  0  0  0  0  0  0  0
  -20.9080  -29.8080   21.7280 H   0  0  0  0  0  0  0  0  0  0  0  0
  -18.0230  -28.0550   22.9050 C   0  0  0  0  0  0  0  0  0  0  0  0
  -20.5820  -28.2940   23.1660 C   0  0  0  0  0  3  0  0  0  0  0  0
  -20.6750  -26.8700   22.5720 C   0  0  0  0  0  2  0  0  0  0  0  0
  -19.5670  -26.5660   21.5590 C   0  0  0  0  0  2  0  0  0  0  0  0
  -18.1890  -26.7130   22.2120 C   0  0  0  0  0  2  0  0  0  0  0  0
  -19.1480  -28.8050   23.3380 C   0  0  0  0  0  0  0  0  0  0  0  0
  -18.9410  -30.0610   23.9450 C   0  0  0  0  0  3  0  0  0  0  0  0
  -17.6410  -30.5720   24.1200 C   0  0  0  0  0  3  0  0  0  0  0  0
  -16.5300  -29.8210   23.7020 C   0  0  0  0  0  3  0  0  0  0  0  0
  -16.7210  -28.5630   23.1020 C   0  0  0  0  0  3  0  0  0  0  0  0
  -25.8790  -32.4480   23.8450 C   0  0  0  0  0  3  0  0  0  0  0  0
  -25.5800  -33.8470   24.1790 N   0  0  0  0  0  0  0  0  0  0  0  0
  -25.9180  -34.8990   23.4210 C   0  0  0  0  0  0  0  0  0  0  0  0
  -26.5890  -34.7930   22.3890 O   0  0  0  0  0  0  0  0  0  0  0  0
  -24.9870  -34.0040   24.9800 H   0  0  0  0  0  0  0  0  0  0  0  0
  -24.2060  -36.7040   23.0590 C   0  0  0  0  0  1  0  0  0  0  0  0
  -25.4370  -36.2880   23.8790 C   0  0  0  0  0  3  0  0  0  0  0  0
  -27.5710  -37.1560   24.7300 C   0  0  0  0  0  1  0  0  0  0  0  0
  -26.4790  -37.3350   23.7780 N   0  0  0  0  0  0  0  0  0  0  0  0
  -26.0790  -38.2570   23.9240 H   0  0  0  0  0  0  0  0  0  0  0  0
  -26.3960  -31.6690   25.1150 C   0  0  1  0  0  0  0  0  0  0  0  0
  -25.3040  -31.4300   26.1840 C   0  0  0  0  0  1  0  0  0  0  0  0
  -26.9730  -30.2910   24.7100 C   0  0  0  0  0  1  0  0  0  0  0  0
  -27.5500  -32.4550   25.7810 C   0  0  0  0  0  1  0  0  0  0  0  0
  1  6  2  0
  1  3  1  0
  2  4  2  0
  3 48  1  0
  3  5  2  0
  4  9  1  0
  5  4  1  0
  5  7  1  0
  6  2  1  0
  8  6  1  0
  9 10  2  0
 10 11  1  0
 12  9  1  0
 13 18  1  0
 14 15  1  0
 14 13  1  0
 16 15  1  0
 16 23  1  0
 16 17  1  0
 18 12  1  0
 18 17  1  0
 19 12  2  0
 20 21  2  0
 21 40  1  0
 22 21  1  0
 22 25  1  0
 23 24  1  0
 23 20  1  0
 24 22  2  0
 25 26  1  0
 26 27  2  0
 28 31  1  0
 28 27  1  0
 29 28  2  0
 30 29  1  0
 30 25  2  0
 31 32  1  0
 32 37  2  0
 32 33  1  0
 33 34  2  0
 34 35  1  0
 35 39  1  0
 36 35  2  0
 37 36  1  0
 38 37  1  0
 40 41  1  0
 41 44  1  0
 41 43  1  0
 42 40  2  0
 45 20  1  0
 45 46  1  0
 47 45  1  0
 48 49  2  0
 49 50  1  0
 51 52  1  0
 51 50  1  0
 53 52  1  0
 54 65  2  0
 55 53  1  0
 55 60  1  0
 56 64  1  0
 56 66  1  0
 57 63  1  0
 57 59  1  0
 58 64  1  0
 59 58  1  0
 60 59  2  0
 61 62  1  0
 61 55  2  0
 62 57  2  0
 63 56  1  0
 64 54  1  0
 66 68  2  0
 67 66  1  0
 69 67  1  0
 70 79  2  0
 70 75  1  0
 71 67  1  0
 71 75  1  0
 72 71  1  0
 73 74  1  0
 73 72  1  0
 74 70  1  0
 75 76  2  0
 76 77  1  0
 78 77  2  0
 79 78  1  0
 80 54  1  0
 80 81  1  0
 80 90  1  0
 81 84  1  0
 82 86  1  0
 82 81  1  0
 83 82  2  0
 86 85  1  0
 88 86  1  0
 88 89  1  0
 88 87  1  0
 90 93  1  1
 90 91  1  0
 92 90  1  0
M  ISO  4   9 100  12 100  52 101  53 101
M  END
>  <TORSDO>  (77) 
F 21

>  <SCORE>  (77) 
-13.144

>  <name>  (77) 
76

>  <ligand_id>  (77) 
76

>  <original_smiles>  (77) 
[H]N=C(C(=O)N1C([H])([H])C([H])([H])C([H])([H])C([H])(n2nc(-c3c([H])c([H])c(Oc4c([H])c([H])c(F)c([H])c4F)c([H])c3[H])c(C(=O)N([H])[H])c2N([H])[H])C1([H])[H])c1c([H])c(F)c([H])c(C([H])=C([H])C([H])([H])C([H])([H])C([H])([H])Oc2c([H])c([H])c3c(c2[H])C([H])([H])N(C(=O)C([H])(N([H])C(=O)C([H])(N([H])C([H])([H])[H])C([H])([H])[H])C(C([H])([H])[H])(C([H])([H])[H])C([H])([H])[H])C([H])(C(=O)N([H])C2([H])c4c([H])c([H])c([H])c([H])c4C([H])([H])C([H])([H])C2([H])[H])C3([H])[H])c1C([H])([H])[H]

>  <smiles>  (77) 
[H]N=C(C(=O)N1C([H])([H])C([H])([H])C([H])([H])C([H])(n2nc(-c3c([H])c([H])c(Oc4c([H])c([H])c(F)c([H])c4F)c([H])c3[H])c(C(=O)N([H])[H])c2N([H])[H])C1([H])[H])c1c([H])c(F)c([H])c(C([H])=C([H])C([H])([H])C([H])([H])C([H])([H])Oc2c([H])c([H])c3c(c2[H])C([H])([H])N(C(=O)C([H])(N([H])C(=O)C([H])(N([H])C([H])([H])[H])C([H])([H])[H])C(C([H])([H])[H])(C([H])([H])[H])C([H])([H])[H])C([H])(C(=O)N([H])C2([H])c4c([H])c([H])c([H])c([H])c4C([H])([H])C([H])([H])C2([H])[H])C3([H])[H])c1C([H])([H])[H]

$$$$
77:0:0
     RDKit          3D

 91 99  0  0  1  0  0  0  0  0999 V2000
  -29.4650  -21.2010   20.7800 C   0  0  0  0  0  0  0  0  0  0  0  0
  -30.0110  -21.3290   21.8790 O   0  0  0  0  0  0  0  0  0  0  0  0
  -29.3570  -19.7200   18.6940 C   0  0  0  0  0  3  0  0  0  0  0  0
  -29.7160  -18.5250   20.7820 C   0  0  0  0  0  3  0  0  0  0  0  0
  -29.6790  -17.2790   18.6940 C   0  0  0  0  0  3  0  0  0  0  0  0
  -29.5050  -19.7960   20.0950 C   0  0  0  0  0  0  0  0  0  0  0  0
  -29.4510  -18.4910   18.0040 C   0  0  0  0  0  0  0  0  0  0  0  0
  -29.8130  -17.2420   20.1010 C   0  0  0  0  0  0  0  0  0  0  0  0
  -29.3030  -18.4800   16.4950 C   0  0  0  0  0  1  0  0  0  0  0  0
  -30.6300  -14.7990   20.3530 C   0  0  0  0  0  0  0  0  0  0  0  0
  -30.4200  -12.5280   19.3430 C   0  0  0  0  0  2  0  0  0  0  0  0
  -29.4950  -12.6480   18.1120 C   0  0  0  0  0  2  0  0  0  0  0  0
  -28.0200  -12.4810   18.5230 C   0  0  0  0  0  2  0  0  0  0  0  0
  -27.6500  -13.3360   19.7650 C   0  0  0  0  0  3  0  0  0  0  0  0
  -28.7030  -13.2200   20.8920 C   0  0  0  0  0  2  0  0  0  0  0  0
  -30.0100  -13.5680   20.3180 N   0  0  0  0  0  0  0  0  0  0  0  0
  -31.7830  -14.9180   19.9300 O   0  0  0  0  0  0  0  0  0  0  0  0
  -29.9050  -15.9130   20.7490 N   0  0  0  0  0  0  0  0  0  0  0  0
  -29.1260  -15.6950   21.3530 H   0  0  0  0  0  0  0  0  0  0  0  0
  -25.2500  -13.9120   20.4590 C   0  0  0  0  0  0  0  0  0  0  0  0
  -24.1890  -13.1330   20.8350 C   0  0  0  0  0  0  0  0  0  0  0  0
  -24.6610  -11.7850   20.8180 C   0  0  0  0  0  0  0  0  0  0  0  0
  -26.3030  -13.0400   20.2440 N   0  0  0  0  0  0  0  0  0  0  0  0
  -25.9550  -11.7550   20.5180 N   0  0  0  0  0  0  0  0  0  0  0  0
  -23.9410  -10.5200   21.0130 C   0  0  0  0  0  0  0  0  0  0  0  0
  -24.3770   -9.5600   21.9530 C   0  0  0  0  0  3  0  0  0  0  0  0
  -23.6560   -8.3600   22.1360 C   0  0  0  0  0  3  0  0  0  0  0  0
  -22.4860   -8.1110   21.3790 C   0  0  0  0  0  0  0  0  0  0  0  0
  -22.0700   -9.0600   20.4290 C   0  0  0  0  0  3  0  0  0  0  0  0
  -22.7910  -10.2520   20.2450 C   0  0  0  0  0  3  0  0  0  0  0  0
  -21.7400   -6.9620   21.4710 O   0  0  0  0  0  0  0  0  0  0  0  0
  -21.6960   -6.2220   22.6260 C   0  0  0  0  0  0  0  0  0  0  0  0
  -21.2690   -6.7780   23.8520 C   0  0  0  0  0  3  0  0  0  0  0  0
  -21.1710   -5.9650   24.9980 C   0  0  0  0  0  3  0  0  0  0  0  0
  -21.4910   -4.5950   24.9210 C   0  0  0  0  0  0  0  0  0  0  0  0
  -21.9100   -4.0390   23.7000 C   0  0  0  0  0  3  0  0  0  0  0  0
  -22.0100   -4.8500   22.5560 C   0  0  0  0  0  0  0  0  0  0  0  0
  -22.3940   -4.3030   21.3770 F   0  0  0  0  0  0  0  0  0  0  0  0
  -21.3910   -3.8130   26.0200 F   0  0  0  0  0  0  0  0  0  0  0  0
  -22.7880  -13.6040   21.0950 C   0  0  0  0  0  0  0  0  0  0  0  0
  -22.0600  -12.9100   21.9640 N   0  0  0  0  0  0  0  0  0  0  0  0
  -22.3470  -14.6230   20.5650 O   0  0  0  0  0  0  0  0  0  0  0  0
  -22.4270  -12.0830   22.4130 H   0  0  0  0  0  0  0  0  0  0  0  0
  -21.1220  -13.2120   22.1870 H   0  0  0  0  0  0  0  0  0  0  0  0
  -25.4040  -15.2800   20.2550 N   0  0  0  0  0  0  0  0  0  0  0  0
  -24.6170  -15.9200   20.2840 H   0  0  0  0  0  0  0  0  0  0  0  0
  -26.2320  -15.6930   19.8440 H   0  0  0  0  0  0  0  0  0  0  0  0
  -28.7540  -22.4270   20.1640 C   0  0  0  0  0  3  0  0  0  0  0  0
  -28.8290  -23.7580   20.5680 C   0  0  0  0  0  3  0  0  0  0  0  0
  -27.9700  -24.9600   19.9920 C   0  0  0  0  0  2  0  0  0  0  0  0
  -28.2540  -26.4070   20.3090 O   0  0  0  0  0  0  0  0  0  0  0  0
  -24.6130  -31.9750   23.2430 C   0  0  0  0  0  0  0  0  0  0  0  0
  -27.1790  -27.3300   20.2190 C   0  0  0  0  0  0  0  0  0  0  0  0
  -23.4000  -30.5750   21.6160 C   0  0  0  0  0  3  0  0  0  0  0  0
  -24.8380  -29.0060   20.1920 C   0  0  0  0  0  0  0  0  0  0  0  0
  -25.9470  -30.8560   21.4370 C   0  0  0  0  0  2  0  0  0  0  0  0
  -26.0130  -29.4700   20.7970 C   0  0  0  0  0  0  0  0  0  0  0  0
  -27.1830  -28.6420   20.8050 C   0  0  0  0  0  3  0  0  0  0  0  0
  -25.9830  -26.9520   19.5610 C   0  0  0  0  0  3  0  0  0  0  0  0
  -24.8290  -27.7550   19.5640 C   0  0  0  0  0  3  0  0  0  0  0  0
  -23.6110  -29.8930   20.2390 C   0  0  0  0  0  2  0  0  0  0  0  0
  -24.6730  -31.1540   22.1540 N   0  0  0  0  0  0  0  0  0  0  0  0
  -23.5320  -32.2660   23.7760 O   0  0  0  0  0  0  0  0  0  0  0  0
  -22.7280  -29.5700   22.5840 C   0  0  0  0  0  0  0  0  0  0  0  0
  -21.4010  -29.4000   22.4590 N   0  0  0  0  0  0  0  0  0  0  0  0
  -23.4010  -28.9460   23.4090 O   0  0  0  0  0  0  0  0  0  0  0  0
  -20.9150  -29.9550   21.7670 H   0  0  0  0  0  0  0  0  0  0  0  0
  -18.0140  -28.2320   22.9780 C   0  0  0  0  0  0  0  0  0  0  0  0
  -20.5760  -28.4740   23.2380 C   0  0  0  0  0  3  0  0  0  0  0  0
  -20.6670  -27.0380   22.6740 C   0  0  0  0  0  2  0  0  0  0  0  0
  -19.5600  -26.7150   21.6640 C   0  0  0  0  0  2  0  0  0  0  0  0
  -18.1800  -26.8750   22.3100 C   0  0  0  0  0  2  0  0  0  0  0  0
  -19.1400  -28.9880   23.3990 C   0  0  0  0  0  0  0  0  0  0  0  0
  -18.9330  -30.2550   23.9860 C   0  0  0  0  0  3  0  0  0  0  0  0
  -17.6330  -30.7680   24.1510 C   0  0  0  0  0  3  0  0  0  0  0  0
  -16.5220  -30.0090   23.7460 C   0  0  0  0  0  3  0  0  0  0  0  0
  -16.7130  -28.7430   23.1650 C   0  0  0  0  0  3  0  0  0  0  0  0
  -25.9000  -32.6060   23.8590 C   0  0  0  0  0  3  0  0  0  0  0  0
  -26.4190  -31.8330   25.1330 C   0  0  1  0  0  0  0  0  0  0  0  0
  -25.3290  -31.5970   26.2040 C   0  0  0  0  0  1  0  0  0  0  0  0
  -26.9950  -30.4540   24.7400 C   0  0  0  0  0  1  0  0  0  0  0  0
  -27.5760  -32.6220   25.7870 C   0  0  0  0  0  1  0  0  0  0  0  0
  -25.5940  -34.0040   24.1930 N   0  0  0  0  0  0  0  0  0  0  0  0
  -25.9190  -35.0590   23.4330 C   0  0  0  0  0  0  0  0  0  0  0  0
  -26.5780  -34.9560   22.3950 O   0  0  0  0  0  0  0  0  0  0  0  0
  -25.0080  -34.1570   25.0000 H   0  0  0  0  0  0  0  0  0  0  0  0
  -24.1890  -36.8550   23.1020 C   0  0  0  0  0  1  0  0  0  0  0  0
  -25.4400  -36.4480   23.8990 C   0  0  0  0  0  3  0  0  0  0  0  0
  -27.5840  -37.3300   24.7050 C   0  0  0  0  0  1  0  0  0  0  0  0
  -26.4730  -37.4990   23.7730 N   0  0  0  0  0  0  0  0  0  0  0  0
  -26.0700  -38.4200   23.9230 H   0  0  0  0  0  0  0  0  0  0  0  0
  1  2  2  0
  3  6  1  0
  5  8  2  0
  6  1  1  0
  6  4  2  0
  7  3  2  0
  7  5  1  0
  8 18  1  0
  8  4  1  0
  9  7  1  0
 10 18  1  0
 11 16  1  0
 12 13  1  0
 12 11  1  0
 14 13  1  0
 14 23  1  0
 14 15  1  0
 16 10  1  0
 16 15  1  0
 17 10  2  0
 18 19  1  0
 20 21  2  0
 21 40  1  0
 22 21  1  0
 22 25  1  0
 23 20  1  0
 23 24  1  0
 24 22  2  0
 25 26  1  0
 26 27  2  0
 28 31  1  0
 28 27  1  0
 29 28  2  0
 30 29  1  0
 30 25  2  0
 31 32  1  0
 32 33  1  0
 33 34  2  0
 35 34  1  0
 35 39  1  0
 36 35  2  0
 37 32  2  0
 37 36  1  0
 38 37  1  0
 40 41  1  0
 41 44  1  0
 41 43  1  0
 42 40  2  0
 45 46  1  0
 45 20  1  0
 47 45  1  0
 48 49  2  0
 48  1  1  0
 50 51  1  0
 50 49  1  0
 52 63  2  0
 53 51  1  0
 53 58  1  0
 54 62  1  0
 54 64  1  0
 55 61  1  0
 55 57  1  0
 56 62  1  0
 57 58  2  0
 57 56  1  0
 59 60  1  0
 59 53  2  0
 60 55  2  0
 61 54  1  0
 62 52  1  0
 64 66  2  0
 65 64  1  0
 67 65  1  0
 68 77  2  0
 68 73  1  0
 69 65  1  0
 69 73  1  0
 70 69  1  0
 71 72  1  0
 71 70  1  0
 72 68  1  0
 73 74  2  0
 74 75  1  0
 76 75  2  0
 77 76  1  0
 78 52  1  0
 78 83  1  0
 78 79  1  0
 79 82  1  1
 79 80  1  0
 81 79  1  0
 83 86  1  0
 84 88  1  0
 84 83  1  0
 85 84  2  0
 88 87  1  0
 90 88  1  0
 90 91  1  0
 90 89  1  0
M  ISO  4  10 100  18 100  50 101  51 101
M  END
>  <TORSDO>  (78) 
F 19

>  <SCORE>  (78) 
-14.239

>  <name>  (78) 
77

>  <ligand_id>  (78) 
77

>  <original_smiles>  (78) 
[H]C(C(=O)c1c([H])c(N([H])C(=O)N2C([H])([H])C([H])([H])C([H])([H])C([H])(n3nc(-c4c([H])c([H])c(Oc5c([H])c([H])c(F)c([H])c5F)c([H])c4[H])c(C(=O)N([H])[H])c3N([H])[H])C2([H])[H])c([H])c(C([H])([H])[H])c1[H])=C([H])C([H])([H])Oc1c([H])c([H])c2c(c1[H])C([H])([H])N(C(=O)C([H])(N([H])C(=O)C([H])(N([H])C([H])([H])[H])C([H])([H])[H])C(C([H])([H])[H])(C([H])([H])[H])C([H])([H])[H])C([H])(C(=O)N([H])C1([H])c3c([H])c([H])c([H])c([H])c3C([H])([H])C([H])([H])C1([H])[H])C2([H])[H]

>  <smiles>  (78) 
[H]C(C(=O)c1c([H])c(N([H])C(=O)N2C([H])([H])C([H])([H])C([H])([H])C([H])(n3nc(-c4c([H])c([H])c(Oc5c([H])c([H])c(F)c([H])c5F)c([H])c4[H])c(C(=O)N([H])[H])c3N([H])[H])C2([H])[H])c([H])c(C([H])([H])[H])c1[H])=C([H])C([H])([H])Oc1c([H])c([H])c2c(c1[H])C([H])([H])N(C(=O)C([H])(N([H])C(=O)C([H])(N([H])C([H])([H])[H])C([H])([H])[H])C(C([H])([H])[H])(C([H])([H])[H])C([H])([H])[H])C([H])(C(=O)N([H])C1([H])c3c([H])c([H])c([H])c([H])c3C([H])([H])C([H])([H])C1([H])[H])C2([H])[H]

$$$$
78:0:0
     RDKit          3D

 91 99  0  0  1  0  0  0  0  0999 V2000
  -29.0820  -18.2960   18.1380 C   0  0  0  0  0  3  0  0  0  0  0  0
  -29.1340  -19.5960   18.6710 C   0  0  0  0  0  3  0  0  0  0  0  0
  -29.5610  -17.1910   18.8650 C   0  0  0  0  0  3  0  0  0  0  0  0
  -29.6920  -19.8580   19.9410 C   0  0  0  0  0  0  0  0  0  0  0  0
  -30.1250  -17.3330   20.1520 C   0  0  0  0  0  0  0  0  0  0  0  0
  -30.2070  -18.7040   20.6680 C   0  0  0  0  0  0  0  0  0  0  0  0
  -30.8690  -18.9630   22.0190 C   0  0  0  0  0  1  0  0  0  0  0  0
  -30.4560  -16.0150   20.9120 C   0  0  0  0  0  0  0  0  0  0  0  0
  -30.2140  -15.9490   22.1550 N   0  0  0  0  0  0  0  0  0  0  0  0
  -29.8080  -16.8160   22.4840 H   0  0  0  0  0  0  0  0  0  0  0  0
  -31.0970  -14.7750   20.1490 C   0  0  0  0  0  0  0  0  0  0  0  0
  -30.7290  -12.6130   18.9620 C   0  0  0  0  0  2  0  0  0  0  0  0
  -29.7630  -12.8480   17.7790 C   0  0  0  0  0  2  0  0  0  0  0  0
  -28.2940  -12.7270   18.2350 C   0  0  0  0  0  2  0  0  0  0  0  0
  -28.0130  -13.5270   19.5340 C   0  0  0  0  0  3  0  0  0  0  0  0
  -29.0880  -13.2430   20.6030 C   0  0  0  0  0  2  0  0  0  0  0  0
  -30.3990  -13.5890   20.0280 N   0  0  0  0  0  0  0  0  0  0  0  0
  -32.2060  -14.9030   19.6180 O   0  0  0  0  0  0  0  0  0  0  0  0
  -25.6600  -14.1940   20.3190 C   0  0  0  0  0  0  0  0  0  0  0  0
  -24.5760  -13.4520   20.7000 C   0  0  0  0  0  0  0  0  0  0  0  0
  -24.9880  -12.0850   20.6300 C   0  0  0  0  0  0  0  0  0  0  0  0
  -26.6660  -13.2820   20.0420 N   0  0  0  0  0  0  0  0  0  0  0  0
  -26.2680  -12.0080   20.2870 N   0  0  0  0  0  0  0  0  0  0  0  0
  -24.2220  -10.8470   20.8140 C   0  0  0  0  0  0  0  0  0  0  0  0
  -24.6260   -9.8580   21.7380 C   0  0  0  0  0  3  0  0  0  0  0  0
  -23.8600   -8.6840   21.9100 C   0  0  0  0  0  3  0  0  0  0  0  0
  -22.6770   -8.4910   21.1570 C   0  0  0  0  0  0  0  0  0  0  0  0
  -22.2920   -9.4680   20.2230 C   0  0  0  0  0  3  0  0  0  0  0  0
  -23.0570  -10.6340   20.0490 C   0  0  0  0  0  3  0  0  0  0  0  0
  -21.8860   -7.3710   21.2390 O   0  0  0  0  0  0  0  0  0  0  0  0
  -21.7870   -6.6420   22.3970 C   0  0  0  0  0  0  0  0  0  0  0  0
  -21.3610   -7.2260   23.6100 C   0  0  0  0  0  3  0  0  0  0  0  0
  -21.2050   -6.4270   24.7590 C   0  0  0  0  0  3  0  0  0  0  0  0
  -21.4660   -5.0450   24.6980 C   0  0  0  0  0  0  0  0  0  0  0  0
  -21.8840   -4.4610   23.4900 C   0  0  0  0  0  3  0  0  0  0  0  0
  -22.0410   -5.2570   22.3410 C   0  0  0  0  0  0  0  0  0  0  0  0
  -22.4250   -4.6850   21.1750 F   0  0  0  0  0  0  0  0  0  0  0  0
  -21.3090   -4.2750   25.8000 F   0  0  0  0  0  0  0  0  0  0  0  0
  -23.2050  -13.9740   21.0170 C   0  0  0  0  0  0  0  0  0  0  0  0
  -22.4790  -13.2920   21.8980 N   0  0  0  0  0  0  0  0  0  0  0  0
  -22.7860  -15.0180   20.5200 O   0  0  0  0  0  0  0  0  0  0  0  0
  -22.8310  -12.4470   22.3220 H   0  0  0  0  0  0  0  0  0  0  0  0
  -21.5610  -13.6230   22.1550 H   0  0  0  0  0  0  0  0  0  0  0  0
  -25.8710  -15.5610   20.1660 N   0  0  0  0  0  0  0  0  0  0  0  0
  -25.1360  -16.2430   20.3190 H   0  0  0  0  0  0  0  0  0  0  0  0
  -26.7410  -15.9790   19.8590 H   0  0  0  0  0  0  0  0  0  0  0  0
  -29.7140  -21.3250   20.4250 C   0  0  0  0  0  3  0  0  0  0  0  0
  -29.2350  -22.4690   19.8160 C   0  0  0  0  0  3  0  0  0  0  0  0
  -29.3610  -23.9700   20.2860 C   0  0  0  0  0  3  0  0  0  0  0  0
  -28.2160  -25.0100   19.8830 C   0  0  0  0  0  3  0  0  0  0  0  0
  -28.3960  -26.4680   20.1360 O   0  0  0  0  0  0  0  0  0  0  0  0
  -24.5810  -31.8040   23.1690 C   0  0  0  0  0  0  0  0  0  0  0  0
  -27.2710  -27.3140   20.0690 C   0  0  0  0  0  0  0  0  0  0  0  0
  -23.4070  -30.4130   21.5030 C   0  0  0  0  0  3  0  0  0  0  0  0
  -24.8860  -28.9050   20.0630 C   0  0  0  0  0  0  0  0  0  0  0  0
  -25.9440  -30.7650   21.3420 C   0  0  0  0  0  2  0  0  0  0  0  0
  -26.0460  -29.3980   20.6740 C   0  0  0  0  0  0  0  0  0  0  0  0
  -27.2410  -28.6150   20.6690 C   0  0  0  0  0  3  0  0  0  0  0  0
  -26.0870  -26.8830   19.4270 C   0  0  0  0  0  3  0  0  0  0  0  0
  -24.9100  -27.6530   19.4300 C   0  0  0  0  0  3  0  0  0  0  0  0
  -23.6370  -29.7620   20.1150 C   0  0  0  0  0  2  0  0  0  0  0  0
  -24.6630  -31.0110   22.0610 N   0  0  0  0  0  0  0  0  0  0  0  0
  -23.4900  -32.0610   23.6990 O   0  0  0  0  0  0  0  0  0  0  0  0
  -22.7520  -29.3740   22.4450 C   0  0  0  0  0  0  0  0  0  0  0  0
  -21.4310  -29.1750   22.3000 N   0  0  0  0  0  0  0  0  0  0  0  0
  -23.4320  -28.7500   23.2640 O   0  0  0  0  0  0  0  0  0  0  0  0
  -20.9410  -29.7330   21.6140 H   0  0  0  0  0  0  0  0  0  0  0  0
  -18.0710  -27.9020   22.7290 C   0  0  0  0  0  0  0  0  0  0  0  0
  -20.6170  -28.2170   23.0500 C   0  0  0  0  0  3  0  0  0  0  0  0
  -20.7610  -26.7900   22.4730 C   0  0  0  0  0  2  0  0  0  0  0  0
  -19.6870  -26.4470   21.4360 C   0  0  0  0  0  2  0  0  0  0  0  0
  -18.2900  -26.5590   22.0530 C   0  0  0  0  0  2  0  0  0  0  0  0
  -19.1640  -28.6880   23.1830 C   0  0  0  0  0  0  0  0  0  0  0  0
  -18.9050  -29.9420   23.7750 C   0  0  0  0  0  3  0  0  0  0  0  0
  -17.5880  -30.4150   23.9180 C   0  0  0  0  0  3  0  0  0  0  0  0
  -16.5080  -29.6260   23.4820 C   0  0  0  0  0  3  0  0  0  0  0  0
  -16.7500  -28.3730   22.8920 C   0  0  0  0  0  3  0  0  0  0  0  0
  -25.8520  -32.4460   23.8070 C   0  0  0  0  0  3  0  0  0  0  0  0
  -26.3720  -31.6600   25.0740 C   0  0  1  0  0  0  0  0  0  0  0  0
  -25.2770  -31.3900   26.1320 C   0  0  0  0  0  1  0  0  0  0  0  0
  -26.9760  -30.2970   24.6650 C   0  0  0  0  0  1  0  0  0  0  0  0
  -27.5090  -32.4600   25.7560 C   0  0  0  0  0  1  0  0  0  0  0  0
  -25.5190  -33.8330   24.1610 N   0  0  0  0  0  0  0  0  0  0  0  0
  -25.8280  -34.9030   23.4170 C   0  0  0  0  0  0  0  0  0  0  0  0
  -26.4920  -34.8270   22.3790 O   0  0  0  0  0  0  0  0  0  0  0  0
  -24.9280  -33.9650   24.9690 H   0  0  0  0  0  0  0  0  0  0  0  0
  -24.0590  -36.6660   23.1090 C   0  0  0  0  0  1  0  0  0  0  0  0
  -25.3200  -36.2760   23.8980 C   0  0  0  0  0  3  0  0  0  0  0  0
  -27.4470  -37.1930   24.7130 C   0  0  0  0  0  1  0  0  0  0  0  0
  -26.3290  -37.3510   23.7860 N   0  0  0  0  0  0  0  0  0  0  0  0
  -25.9070  -38.2600   23.9510 H   0  0  0  0  0  0  0  0  0  0  0  0
  1  2  2  0
  1  3  1  0
  2  4  1  0
  3  5  2  0
  4 47  1  0
  4  6  2  0
  5  6  1  0
  5  8  1  0
  6  7  1  0
  8  9  2  0
  9 10  1  0
 11  8  1  0
 12 17  1  0
 13 14  1  0
 13 12  1  0
 15 14  1  0
 15 22  1  0
 15 16  1  0
 17 11  1  0
 17 16  1  0
 18 11  2  0
 19 20  2  0
 20 39  1  0
 21 20  1  0
 21 24  1  0
 22 23  1  0
 22 19  1  0
 23 21  2  0
 24 25  1  0
 25 26  2  0
 27 30  1  0
 27 26  1  0
 28 27  2  0
 29 28  1  0
 29 24  2  0
 30 31  1  0
 31 32  1  0
 32 33  2  0
 34 33  1  0
 34 38  1  0
 35 34  2  0
 36 31  2  0
 36 35  1  0
 37 36  1  0
 39 40  1  0
 40 43  1  0
 40 42  1  0
 41 39  2  0
 44 19  1  0
 44 45  1  0
 46 44  1  0
 48 49  1  0
 48 47  2  0
 50 51  1  0
 50 49  2  0
 52 63  2  0
 53 51  1  0
 53 58  1  0
 54 62  1  0
 54 64  1  0
 55 61  1  0
 55 57  1  0
 56 62  1  0
 57 56  1  0
 58 57  2  0
 59 60  1  0
 59 53  2  0
 60 55  2  0
 61 54  1  0
 62 52  1  0
 64 66  2  0
 65 64  1  0
 67 65  1  0
 68 77  2  0
 68 73  1  0
 69 65  1  0
 69 73  1  0
 70 69  1  0
 71 72  1  0
 71 70  1  0
 72 68  1  0
 73 74  2  0
 74 75  1  0
 76 75  2  0
 77 76  1  0
 78 52  1  0
 78 83  1  0
 78 79  1  0
 79 82  1  1
 79 80  1  0
 81 79  1  0
 83 86  1  0
 84 88  1  0
 84 83  1  0
 85 84  2  0
 88 87  1  0
 90 88  1  0
 90 91  1  0
 90 89  1  0
M  ISO  4   8 100  11 100  50 101  51 101
M  END
>  <TORSDO>  (79) 
F 20

>  <SCORE>  (79) 
-13.604

>  <name>  (79) 
78

>  <ligand_id>  (79) 
78

>  <original_smiles>  (79) 
[H]N=C(C(=O)N1C([H])([H])C([H])([H])C([H])([H])C([H])(n2nc(-c3c([H])c([H])c(Oc4c([H])c([H])c(F)c([H])c4F)c([H])c3[H])c(C(=O)N([H])[H])c2N([H])[H])C1([H])[H])c1c([H])c([H])c([H])c(C([H])=C([H])C([H])([H])C([H])([H])Oc2c([H])c([H])c3c(c2[H])C([H])([H])N(C(=O)C([H])(N([H])C(=O)C([H])(N([H])C([H])([H])[H])C([H])([H])[H])C(C([H])([H])[H])(C([H])([H])[H])C([H])([H])[H])C([H])(C(=O)N([H])C2([H])c4c([H])c([H])c([H])c([H])c4C([H])([H])C([H])([H])C2([H])[H])C3([H])[H])c1C([H])([H])[H]

>  <smiles>  (79) 
[H]N=C(C(=O)N1C([H])([H])C([H])([H])C([H])([H])C([H])(n2nc(-c3c([H])c([H])c(Oc4c([H])c([H])c(F)c([H])c4F)c([H])c3[H])c(C(=O)N([H])[H])c2N([H])[H])C1([H])[H])c1c([H])c([H])c([H])c(C([H])=C([H])C([H])([H])C([H])([H])Oc2c([H])c([H])c3c(c2[H])C([H])([H])N(C(=O)C([H])(N([H])C(=O)C([H])(N([H])C([H])([H])[H])C([H])([H])[H])C(C([H])([H])[H])(C([H])([H])[H])C([H])([H])[H])C([H])(C(=O)N([H])C2([H])c4c([H])c([H])c([H])c([H])c4C([H])([H])C([H])([H])C2([H])[H])C3([H])[H])c1C([H])([H])[H]

$$$$
79:0:0
     RDKit          3D

 91 99  0  0  1  0  0  0  0  0999 V2000
  -29.2700  -19.3950   19.3930 C   0  0  0  0  0  3  0  0  0  0  0  0
  -29.2240  -20.5040   21.9190 C   0  0  0  0  0  3  0  0  0  0  0  0
  -29.6630  -18.5390   20.4640 C   0  0  0  0  0  0  0  0  0  0  0  0
  -28.7540  -21.3350   20.8670 C   0  0  0  0  0  0  0  0  0  0  0  0
  -29.6800  -19.1610   21.7410 C   0  0  0  0  0  0  0  0  0  0  0  0
  -28.8480  -20.7610   19.5690 C   0  0  0  0  0  0  0  0  0  0  0  0
  -30.2330  -18.4270   22.9470 C   0  0  0  0  0  1  0  0  0  0  0  0
  -28.4580  -21.5770   18.3540 C   0  0  0  0  0  1  0  0  0  0  0  0
  -27.9850  -22.5890   21.2880 C   0  0  0  0  0  3  0  0  0  0  0  0
  -27.7680  -23.9370   21.0320 C   0  0  0  0  0  0  0  0  0  0  0  0
  -26.6500  -24.5740   21.8670 C   0  0  0  0  0  1  0  0  0  0  0  0
  -28.4380  -24.9740   20.0460 C   0  0  0  0  0  2  0  0  0  0  0  0
  -28.3590  -26.4680   20.2000 O   0  0  0  0  0  0  0  0  0  0  0  0
  -24.6210  -31.8630   23.2050 C   0  0  0  0  0  0  0  0  0  0  0  0
  -27.2140  -27.2900   20.1210 C   0  0  0  0  0  0  0  0  0  0  0  0
  -23.4170  -30.4820   21.5520 C   0  0  0  0  0  3  0  0  0  0  0  0
  -24.8600  -28.9320   20.1200 C   0  0  0  0  0  0  0  0  0  0  0  0
  -25.9580  -30.7750   21.3860 C   0  0  0  0  0  2  0  0  0  0  0  0
  -26.0280  -29.4020   20.7270 C   0  0  0  0  0  0  0  0  0  0  0  0
  -27.2040  -28.5920   20.7200 C   0  0  0  0  0  3  0  0  0  0  0  0
  -26.0170  -26.8830   19.4850 C   0  0  0  0  0  3  0  0  0  0  0  0
  -24.8570  -27.6770   19.4960 C   0  0  0  0  0  3  0  0  0  0  0  0
  -23.6310  -29.8210   20.1640 C   0  0  0  0  0  2  0  0  0  0  0  0
  -24.6830  -31.0620   22.1030 N   0  0  0  0  0  0  0  0  0  0  0  0
  -23.5370  -32.1420   23.7380 O   0  0  0  0  0  0  0  0  0  0  0  0
  -22.7420  -29.4600   22.4980 C   0  0  0  0  0  0  0  0  0  0  0  0
  -21.4130  -29.3030   22.3740 N   0  0  0  0  0  0  0  0  0  0  0  0
  -23.4180  -28.8110   23.3040 O   0  0  0  0  0  0  0  0  0  0  0  0
  -20.9220  -29.8710   21.6970 H   0  0  0  0  0  0  0  0  0  0  0  0
  -18.0300  -28.1390   22.8480 C   0  0  0  0  0  0  0  0  0  0  0  0
  -20.5860  -28.3670   23.1300 C   0  0  0  0  0  3  0  0  0  0  0  0
  -20.6710  -26.9370   22.5450 C   0  0  0  0  0  2  0  0  0  0  0  0
  -19.5690  -26.6270   21.5260 C   0  0  0  0  0  2  0  0  0  0  0  0
  -18.1910  -26.7840   22.1760 C   0  0  0  0  0  2  0  0  0  0  0  0
  -19.1550  -28.8890   23.2870 C   0  0  0  0  0  0  0  0  0  0  0  0
  -18.9450  -30.1520   23.8800 C   0  0  0  0  0  3  0  0  0  0  0  0
  -17.6400  -30.6560   24.0520 C   0  0  0  0  0  3  0  0  0  0  0  0
  -16.5300  -29.9060   23.6330 C   0  0  0  0  0  3  0  0  0  0  0  0
  -16.7260  -28.6480   23.0320 C   0  0  0  0  0  3  0  0  0  0  0  0
  -25.9050  -32.4830   23.8380 C   0  0  0  0  0  3  0  0  0  0  0  0
  -26.4440  -31.6660   25.0760 C   0  0  1  0  0  0  0  0  0  0  0  0
  -25.3660  -31.3730   26.1460 C   0  0  0  0  0  1  0  0  0  0  0  0
  -27.0280  -30.3100   24.6210 C   0  0  0  0  0  1  0  0  0  0  0  0
  -27.6040  -32.4380   25.7500 C   0  0  0  0  0  1  0  0  0  0  0  0
  -25.5850  -33.8630   24.2300 N   0  0  0  0  0  0  0  0  0  0  0  0
  -25.9010  -34.9500   23.5140 C   0  0  0  0  0  0  0  0  0  0  0  0
  -26.5650  -34.8960   22.4750 O   0  0  0  0  0  0  0  0  0  0  0  0
  -25.0030  -33.9820   25.0450 H   0  0  0  0  0  0  0  0  0  0  0  0
  -24.1470  -36.7280   23.2650 C   0  0  0  0  0  1  0  0  0  0  0  0
  -25.4100  -36.3140   24.0350 C   0  0  0  0  0  3  0  0  0  0  0  0
  -27.5570  -37.1810   24.8490 C   0  0  0  0  0  1  0  0  0  0  0  0
  -26.4320  -37.3810   23.9400 N   0  0  0  0  0  0  0  0  0  0  0  0
  -26.0250  -38.2920   24.1400 H   0  0  0  0  0  0  0  0  0  0  0  0
  -30.1100  -17.0920   20.1930 C   0  0  0  0  0  3  0  0  0  0  0  0
  -29.9370  -15.9040   20.8770 C   0  0  0  0  0  3  0  0  0  0  0  0
  -30.6580  -14.6580   20.4660 C   0  0  0  0  0  0  0  0  0  0  0  0
  -30.4140  -12.3910   19.4790 C   0  0  0  0  0  2  0  0  0  0  0  0
  -29.5100  -12.5040   18.2350 C   0  0  0  0  0  2  0  0  0  0  0  0
  -28.0340  -12.3370   18.6390 C   0  0  0  0  0  2  0  0  0  0  0  0
  -27.6500  -13.2190   19.8560 C   0  0  0  0  0  3  0  0  0  0  0  0
  -28.6850  -13.1330   20.9970 C   0  0  0  0  0  2  0  0  0  0  0  0
  -30.0030  -13.4490   20.4340 N   0  0  0  0  0  0  0  0  0  0  0  0
  -31.8200  -14.7200   20.0540 O   0  0  0  0  0  0  0  0  0  0  0  0
  -25.2560  -13.8170   20.5690 C   0  0  0  0  0  0  0  0  0  0  0  0
  -24.1850  -13.0450   20.9130 C   0  0  0  0  0  0  0  0  0  0  0  0
  -24.6430  -11.6910   20.8650 C   0  0  0  0  0  0  0  0  0  0  0  0
  -26.2990  -12.9350   20.3260 N   0  0  0  0  0  0  0  0  0  0  0  0
  -25.9360  -11.6490   20.5660 N   0  0  0  0  0  0  0  0  0  0  0  0
  -23.9080  -10.4290   21.0340 C   0  0  0  0  0  0  0  0  0  0  0  0
  -24.3640   -9.4230   21.9140 C   0  0  0  0  0  3  0  0  0  0  0  0
  -23.6330   -8.2270   22.0730 C   0  0  0  0  0  3  0  0  0  0  0  0
  -22.4300   -8.0300   21.3540 C   0  0  0  0  0  0  0  0  0  0  0  0
  -21.9920   -9.0240   20.4610 C   0  0  0  0  0  3  0  0  0  0  0  0
  -22.7230  -10.2120   20.3000 C   0  0  0  0  0  3  0  0  0  0  0  0
  -21.6680   -6.8900   21.4230 O   0  0  0  0  0  0  0  0  0  0  0  0
  -21.6880   -6.0740   22.5260 C   0  0  0  0  0  0  0  0  0  0  0  0
  -21.4040   -6.5650   23.8170 C   0  0  0  0  0  3  0  0  0  0  0  0
  -21.3660   -5.6790   24.9140 C   0  0  0  0  0  3  0  0  0  0  0  0
  -21.6030   -4.3040   24.7200 C   0  0  0  0  0  0  0  0  0  0  0  0
  -21.8840   -3.8160   23.4330 C   0  0  0  0  0  3  0  0  0  0  0  0
  -21.9210   -4.6970   22.3390 C   0  0  0  0  0  0  0  0  0  0  0  0
  -22.1660   -4.2180   21.0970 F   0  0  0  0  0  0  0  0  0  0  0  0
  -21.5640   -3.4540   25.7720 F   0  0  0  0  0  0  0  0  0  0  0  0
  -22.7870  -13.5210   21.1840 C   0  0  0  0  0  0  0  0  0  0  0  0
  -22.0600  -12.8140   22.0400 N   0  0  0  0  0  0  0  0  0  0  0  0
  -22.3490  -14.5530   20.6700 O   0  0  0  0  0  0  0  0  0  0  0  0
  -22.4290  -11.9800   22.4710 H   0  0  0  0  0  0  0  0  0  0  0  0
  -21.1170  -13.1000   22.2660 H   0  0  0  0  0  0  0  0  0  0  0  0
  -25.4280  -15.1910   20.4190 N   0  0  0  0  0  0  0  0  0  0  0  0
  -24.6540  -15.8330   20.5350 H   0  0  0  0  0  0  0  0  0  0  0  0
  -26.2900  -15.6460   20.1510 H   0  0  0  0  0  0  0  0  0  0  0  0
  1  6  2  0
  1  3  1  0
  3  5  2  0
  4  9  1  0
  4  2  2  0
  5  2  1  0
  5  7  1  0
  6  4  1  0
  8  6  1  0
 10  9  2  0
 10 11  1  0
 12 13  1  0
 12 10  1  0
 14 25  2  0
 15 13  1  0
 15 20  1  0
 16 24  1  0
 16 26  1  0
 17 23  1  0
 17 19  1  0
 18 24  1  0
 19 18  1  0
 20 19  2  0
 21 22  1  0
 21 15  2  0
 22 17  2  0
 23 16  1  0
 24 14  1  0
 26 28  2  0
 27 26  1  0
 29 27  1  0
 30 39  2  0
 30 35  1  0
 31 27  1  0
 31 35  1  0
 32 31  1  0
 33 34  1  0
 33 32  1  0
 34 30  1  0
 35 36  2  0
 36 37  1  0
 38 37  2  0
 39 38  1  0
 40 14  1  0
 40 45  1  0
 40 41  1  0
 41 44  1  1
 41 42  1  0
 43 41  1  0
 45 48  1  0
 46 50  1  0
 46 45  1  0
 47 46  2  0
 50 49  1  0
 52 50  1  0
 52 53  1  0
 52 51  1  0
 54  3  1  0
 54 55  2  0
 56 55  1  0
 57 62  1  0
 58 59  1  0
 58 57  1  0
 60 59  1  0
 60 67  1  0
 60 61  1  0
 62 56  1  0
 62 61  1  0
 63 56  2  0
 64 65  2  0
 65 84  1  0
 66 65  1  0
 66 69  1  0
 67 68  1  0
 67 64  1  0
 68 66  2  0
 69 70  1  0
 70 71  2  0
 72 75  1  0
 72 71  1  0
 73 72  2  0
 74 73  1  0
 74 69  2  0
 75 76  1  0
 76 77  1  0
 77 78  2  0
 79 78  1  0
 79 83  1  0
 80 79  2  0
 81 76  2  0
 81 80  1  0
 82 81  1  0
 84 85  1  0
 85 88  1  0
 85 87  1  0
 86 84  2  0
 89 90  1  0
 89 64  1  0
 91 89  1  0
M  ISO  4  12 101  13 101  55 100  56 100
M  END
>  <TORSDO>  (80) 
F 19

>  <SCORE>  (80) 
-12.570

>  <name>  (80) 
79

>  <ligand_id>  (80) 
79

>  <original_smiles>  (80) 
[H]C(C(=O)N1C([H])([H])C([H])([H])C([H])([H])C([H])(n2nc(-c3c([H])c([H])c(Oc4c([H])c([H])c(F)c([H])c4F)c([H])c3[H])c(C(=O)N([H])[H])c2N([H])[H])C1([H])[H])=C([H])c1c([H])c(C([H])([H])[H])c(C([H])=C(C([H])([H])[H])C([H])([H])Oc2c([H])c([H])c3c(c2[H])C([H])([H])N(C(=O)C([H])(N([H])C(=O)C([H])(N([H])C([H])([H])[H])C([H])([H])[H])C(C([H])([H])[H])(C([H])([H])[H])C([H])([H])[H])C([H])(C(=O)N([H])C2([H])c4c([H])c([H])c([H])c([H])c4C([H])([H])C([H])([H])C2([H])[H])C3([H])[H])c([H])c1C([H])([H])[H]

>  <smiles>  (80) 
[H]C(C(=O)N1C([H])([H])C([H])([H])C([H])([H])C([H])(n2nc(-c3c([H])c([H])c(Oc4c([H])c([H])c(F)c([H])c4F)c([H])c3[H])c(C(=O)N([H])[H])c2N([H])[H])C1([H])[H])=C([H])c1c([H])c(C([H])([H])[H])c(C([H])=C(C([H])([H])[H])C([H])([H])Oc2c([H])c([H])c3c(c2[H])C([H])([H])N(C(=O)C([H])(N([H])C(=O)C([H])(N([H])C([H])([H])[H])C([H])([H])[H])C(C([H])([H])[H])(C([H])([H])[H])C([H])([H])[H])C([H])(C(=O)N([H])C2([H])c4c([H])c([H])c([H])c([H])c4C([H])([H])C([H])([H])C2([H])[H])C3([H])[H])c([H])c1C([H])([H])[H]

$$$$
80:0:0
     RDKit          3D

 93101  0  0  1  0  0  0  0  0999 V2000
  -29.1880  -19.5610   21.0190 C   0  0  0  0  0  3  0  0  0  0  0  0
  -29.2090  -18.1440   20.8940 C   0  0  0  0  0  3  0  0  0  0  0  0
  -31.3090  -19.6610   19.9040 C   0  0  0  0  0  3  0  0  0  0  0  0
  -30.2390  -20.3580   20.5140 C   0  0  0  0  0  0  0  0  0  0  0  0
  -30.2420  -17.4390   20.2080 C   0  0  0  0  0  0  0  0  0  0  0  0
  -31.3090  -18.2480   19.7020 C   0  0  0  0  0  0  0  0  0  0  0  0
  -29.9400  -16.0060   19.7710 C   0  0  0  0  0  0  0  0  0  0  0  0
  -29.0730  -15.9480   18.8530 N   0  0  0  0  0  0  0  0  0  0  0  0
  -28.7380  -16.8750   18.6270 H   0  0  0  0  0  0  0  0  0  0  0  0
  -30.7120  -14.7210   20.2830 C   0  0  0  0  0  0  0  0  0  0  0  0
  -30.4520  -12.4380   19.3660 C   0  0  0  0  0  2  0  0  0  0  0  0
  -29.5230  -12.4890   18.1340 C   0  0  0  0  0  2  0  0  0  0  0  0
  -28.0500  -12.3140   18.5560 C   0  0  0  0  0  2  0  0  0  0  0  0
  -27.6480  -13.2370   19.7330 C   0  0  0  0  0  3  0  0  0  0  0  0
  -28.7110  -13.2500   20.8570 C   0  0  0  0  0  2  0  0  0  0  0  0
  -30.0300  -13.5260   20.2640 N   0  0  0  0  0  0  0  0  0  0  0  0
  -31.9410  -14.7460   20.2480 O   0  0  0  0  0  0  0  0  0  0  0  0
  -25.2740  -13.8810   20.4410 C   0  0  0  0  0  0  0  0  0  0  0  0
  -24.1960  -13.1220   20.8030 C   0  0  0  0  0  0  0  0  0  0  0  0
  -24.6500  -11.7690   20.8010 C   0  0  0  0  0  0  0  0  0  0  0  0
  -26.3080  -12.9810   20.2310 N   0  0  0  0  0  0  0  0  0  0  0  0
  -25.9430  -11.7110   20.5160 N   0  0  0  0  0  0  0  0  0  0  0  0
  -23.9190  -10.5140   20.9960 C   0  0  0  0  0  0  0  0  0  0  0  0
  -24.3420   -9.5570   21.9420 C   0  0  0  0  0  3  0  0  0  0  0  0
  -23.6140   -8.3610   22.1240 C   0  0  0  0  0  3  0  0  0  0  0  0
  -22.4500   -8.1190   21.3580 C   0  0  0  0  0  0  0  0  0  0  0  0
  -22.0460   -9.0660   20.4000 C   0  0  0  0  0  3  0  0  0  0  0  0
  -22.7750  -10.2520   20.2170 C   0  0  0  0  0  3  0  0  0  0  0  0
  -21.6930   -6.9760   21.4500 O   0  0  0  0  0  0  0  0  0  0  0  0
  -21.6310   -6.2470   22.6090 C   0  0  0  0  0  0  0  0  0  0  0  0
  -21.2020   -6.8160   23.8270 C   0  0  0  0  0  3  0  0  0  0  0  0
  -21.0890   -6.0120   24.9790 C   0  0  0  0  0  3  0  0  0  0  0  0
  -21.3950   -4.6390   24.9130 C   0  0  0  0  0  0  0  0  0  0  0  0
  -21.8170   -4.0700   23.6990 C   0  0  0  0  0  3  0  0  0  0  0  0
  -21.9330   -4.8710   22.5500 C   0  0  0  0  0  0  0  0  0  0  0  0
  -22.3220   -4.3140   21.3780 F   0  0  0  0  0  0  0  0  0  0  0  0
  -21.2780   -3.8650   26.0160 F   0  0  0  0  0  0  0  0  0  0  0  0
  -22.7960  -13.6130   21.0400 C   0  0  0  0  0  0  0  0  0  0  0  0
  -22.0490  -12.9330   21.9020 N   0  0  0  0  0  0  0  0  0  0  0  0
  -22.3740  -14.6310   20.4950 O   0  0  0  0  0  0  0  0  0  0  0  0
  -22.4050  -12.1110   22.3660 H   0  0  0  0  0  0  0  0  0  0  0  0
  -21.1090  -13.2420   22.1040 H   0  0  0  0  0  0  0  0  0  0  0  0
  -25.4560  -15.2470   20.2430 N   0  0  0  0  0  0  0  0  0  0  0  0
  -24.7010  -15.9200   20.3220 H   0  0  0  0  0  0  0  0  0  0  0  0
  -26.3200  -15.6520   19.9030 H   0  0  0  0  0  0  0  0  0  0  0  0
  -30.2430  -21.8650   20.5010 C   0  0  0  0  0  3  0  0  0  0  0  0
  -29.1950  -22.7400   20.4840 C   0  0  0  0  0  3  0  0  0  0  0  0
  -29.3590  -24.2400   20.4600 C   0  0  0  0  0  0  0  0  0  0  0  0
  -30.4450  -24.7830   20.6950 O   0  0  0  0  0  0  0  0  0  0  0  0
  -28.1290  -25.1390   20.1120 C   0  0  0  0  0  2  0  0  0  0  0  0
  -28.3430  -26.5850   20.2390 O   0  0  0  0  0  0  0  0  0  0  0  0
  -24.5850  -31.9180   23.2270 C   0  0  0  0  0  0  0  0  0  0  0  0
  -27.2020  -27.3870   20.1850 C   0  0  0  0  0  0  0  0  0  0  0  0
  -23.3760  -30.5130   21.5940 C   0  0  0  0  0  3  0  0  0  0  0  0
  -24.8240  -28.9620   20.1740 C   0  0  0  0  0  0  0  0  0  0  0  0
  -25.9110  -30.8420   21.4020 C   0  0  0  0  0  2  0  0  0  0  0  0
  -25.9900  -29.4660   20.7630 C   0  0  0  0  0  0  0  0  0  0  0  0
  -27.1820  -28.6900   20.7590 C   0  0  0  0  0  3  0  0  0  0  0  0
  -26.0100  -26.9240   19.5760 C   0  0  0  0  0  3  0  0  0  0  0  0
  -24.8330  -27.6930   19.5740 C   0  0  0  0  0  3  0  0  0  0  0  0
  -23.5850  -29.8300   20.2180 C   0  0  0  0  0  2  0  0  0  0  0  0
  -24.6430  -31.1070   22.1320 N   0  0  0  0  0  0  0  0  0  0  0  0
  -23.5040  -32.1980   23.7640 O   0  0  0  0  0  0  0  0  0  0  0  0
  -22.7160  -29.5010   22.5590 C   0  0  0  0  0  0  0  0  0  0  0  0
  -21.3890  -29.3290   22.4360 N   0  0  0  0  0  0  0  0  0  0  0  0
  -23.3950  -28.8730   23.3750 O   0  0  0  0  0  0  0  0  0  0  0  0
  -20.9010  -29.8870   21.7490 H   0  0  0  0  0  0  0  0  0  0  0  0
  -18.0050  -28.1680   22.9570 C   0  0  0  0  0  0  0  0  0  0  0  0
  -20.5660  -28.3990   23.2130 C   0  0  0  0  0  3  0  0  0  0  0  0
  -20.6490  -26.9680   22.6360 C   0  0  0  0  0  2  0  0  0  0  0  0
  -19.5390  -26.6570   21.6280 C   0  0  0  0  0  2  0  0  0  0  0  0
  -18.1620  -26.8190   22.2780 C   0  0  0  0  0  2  0  0  0  0  0  0
  -19.1340  -28.9190   23.3810 C   0  0  0  0  0  0  0  0  0  0  0  0
  -18.9310  -30.1840   23.9730 C   0  0  0  0  0  3  0  0  0  0  0  0
  -17.6330  -30.6990   24.1470 C   0  0  0  0  0  3  0  0  0  0  0  0
  -16.5180  -29.9460   23.7410 C   0  0  0  0  0  3  0  0  0  0  0  0
  -16.7040  -28.6830   23.1510 C   0  0  0  0  0  3  0  0  0  0  0  0
  -25.8720  -32.5480   23.8460 C   0  0  0  0  0  3  0  0  0  0  0  0
  -25.5640  -33.9450   24.1790 N   0  0  0  0  0  0  0  0  0  0  0  0
  -25.8950  -35.0000   23.4230 C   0  0  0  0  0  0  0  0  0  0  0  0
  -26.5640  -34.8990   22.3900 O   0  0  0  0  0  0  0  0  0  0  0  0
  -24.9700  -34.0970   24.9810 H   0  0  0  0  0  0  0  0  0  0  0  0
  -24.1690  -36.7950   23.0730 C   0  0  0  0  0  1  0  0  0  0  0  0
  -25.4090  -36.3870   23.8850 C   0  0  0  0  0  3  0  0  0  0  0  0
  -27.5440  -37.2650   24.7200 C   0  0  0  0  0  1  0  0  0  0  0  0
  -26.4430  -37.4390   23.7760 N   0  0  0  0  0  0  0  0  0  0  0  0
  -26.0390  -38.3590   23.9280 H   0  0  0  0  0  0  0  0  0  0  0  0
  -26.3930  -31.7730   25.1180 C   0  0  1  0  0  0  0  0  0  0  0  0
  -25.3040  -31.5330   26.1890 C   0  0  0  0  0  1  0  0  0  0  0  0
  -26.9750  -30.3960   24.7200 C   0  0  0  0  0  1  0  0  0  0  0  0
  -27.5470  -32.5670   25.7760 C   0  0  0  0  0  1  0  0  0  0  0  0
  -32.4980  -18.3230   17.4380 C   0  0  0  0  0  1  0  0  0  0  0  0
  -32.4350  -17.6860   18.8350 C   0  0  0  0  0  2  0  0  0  0  0  0
  2  1  1  0
  3  4  1  0
  4  1  2  0
  5  2  2  0
  6  3  2  0
  6  5  1  0
  7  5  1  0
  7 10  1  0
  8  7  2  0
  9  8  1  0
 11 16  1  0
 12 13  1  0
 12 11  1  0
 14 13  1  0
 14 21  1  0
 14 15  1  0
 16 10  1  0
 16 15  1  0
 17 10  2  0
 18 19  2  0
 19 38  1  0
 20 19  1  0
 20 23  1  0
 21 18  1  0
 21 22  1  0
 22 20  2  0
 23 24  1  0
 24 25  2  0
 26 29  1  0
 26 25  1  0
 27 26  2  0
 28 27  1  0
 28 23  2  0
 29 30  1  0
 30 31  1  0
 31 32  2  0
 33 32  1  0
 33 37  1  0
 34 33  2  0
 35 30  2  0
 35 34  1  0
 36 35  1  0
 38 39  1  0
 39 42  1  0
 39 41  1  0
 40 38  2  0
 43 44  1  0
 43 18  1  0
 45 43  1  0
 46  4  1  0
 47 46  2  0
 48 47  1  0
 48 49  2  0
 50 51  1  0
 50 48  1  0
 52 63  2  0
 53 51  1  0
 53 58  1  0
 54 62  1  0
 54 64  1  0
 55 61  1  0
 55 57  1  0
 56 62  1  0
 57 56  1  0
 58 57  2  0
 59 53  2  0
 60 59  1  0
 60 55  2  0
 61 54  1  0
 62 52  1  0
 64 66  2  0
 65 64  1  0
 67 65  1  0
 68 77  2  0
 68 73  1  0
 69 65  1  0
 69 73  1  0
 70 69  1  0
 71 72  1  0
 71 70  1  0
 72 68  1  0
 73 74  2  0
 74 75  1  0
 76 75  2  0
 77 76  1  0
 78 52  1  0
 78 79  1  0
 78 88  1  0
 79 82  1  0
 80 84  1  0
 80 79  1  0
 81 80  2  0
 84 83  1  0
 86 84  1  0
 86 87  1  0
 86 85  1  0
 88 91  1  1
 88 89  1  0
 90 88  1  0
 92 93  1  0
 93  6  1  0
M  ISO  4   7 100  10 100  50 101  51 101
M  END
>  <TORSDO>  (81) 
F 21

>  <SCORE>  (81) 
-13.509

>  <name>  (81) 
80

>  <ligand_id>  (81) 
80

>  <original_smiles>  (81) 
[H]N=C(C(=O)N1C([H])([H])C([H])([H])C([H])([H])C([H])(n2nc(-c3c([H])c([H])c(Oc4c([H])c([H])c(F)c([H])c4F)c([H])c3[H])c(C(=O)N([H])[H])c2N([H])[H])C1([H])[H])c1c([H])c([H])c(C([H])=C([H])C(=O)C([H])([H])Oc2c([H])c([H])c3c(c2[H])C([H])([H])N(C(=O)C([H])(N([H])C(=O)C([H])(N([H])C([H])([H])[H])C([H])([H])[H])C(C([H])([H])[H])(C([H])([H])[H])C([H])([H])[H])C([H])(C(=O)N([H])C2([H])c4c([H])c([H])c([H])c([H])c4C([H])([H])C([H])([H])C2([H])[H])C3([H])[H])c([H])c1C([H])([H])C([H])([H])[H]

>  <smiles>  (81) 
[H]N=C(C(=O)N1C([H])([H])C([H])([H])C([H])([H])C([H])(n2nc(-c3c([H])c([H])c(Oc4c([H])c([H])c(F)c([H])c4F)c([H])c3[H])c(C(=O)N([H])[H])c2N([H])[H])C1([H])[H])c1c([H])c([H])c(C([H])=C([H])C(=O)C([H])([H])Oc2c([H])c([H])c3c(c2[H])C([H])([H])N(C(=O)C([H])(N([H])C(=O)C([H])(N([H])C([H])([H])[H])C([H])([H])[H])C(C([H])([H])[H])(C([H])([H])[H])C([H])([H])[H])C([H])(C(=O)N([H])C2([H])c4c([H])c([H])c([H])c([H])c4C([H])([H])C([H])([H])C2([H])[H])C3([H])[H])c([H])c1C([H])([H])C([H])([H])[H]

$$$$
81:0:0
     RDKit          3D

 92100  0  0  1  0  0  0  0  0999 V2000
  -29.0140  -18.9500   19.1940 C   0  0  0  0  0  3  0  0  0  0  0  0
  -29.8570  -21.0050   20.8850 C   0  0  0  0  0  3  0  0  0  0  0  0
  -29.8750  -18.5870   20.2570 C   0  0  0  0  0  0  0  0  0  0  0  0
  -29.0880  -21.3830   19.7550 C   0  0  0  0  0  0  0  0  0  0  0  0
  -30.2570  -19.6500   21.1280 C   0  0  0  0  0  0  0  0  0  0  0  0
  -28.6350  -20.3020   18.9360 C   0  0  0  0  0  0  0  0  0  0  0  0
  -31.1520  -19.3600   22.3200 C   0  0  0  0  0  1  0  0  0  0  0  0
  -27.7710  -20.5730   17.7120 C   0  0  0  0  0  1  0  0  0  0  0  0
  -30.4940  -17.1970   20.3270 C   0  0  0  0  0  3  0  0  0  0  0  0
  -29.9370  -15.9420   20.3130 C   0  0  0  0  0  3  0  0  0  0  0  0
  -30.7560  -14.6980   20.1640 C   0  0  0  0  0  0  0  0  0  0  0  0
  -30.4620  -12.4850   19.0880 C   0  0  0  0  0  2  0  0  0  0  0  0
  -29.4950  -12.6600   17.8980 C   0  0  0  0  0  2  0  0  0  0  0  0
  -28.0340  -12.4960   18.3580 C   0  0  0  0  0  2  0  0  0  0  0  0
  -27.7110  -13.3280   19.6260 C   0  0  0  0  0  3  0  0  0  0  0  0
  -28.8010  -13.1760   20.7090 C   0  0  0  0  0  2  0  0  0  0  0  0
  -30.0970  -13.4970   20.1000 N   0  0  0  0  0  0  0  0  0  0  0  0
  -31.9490  -14.7520   19.8530 O   0  0  0  0  0  0  0  0  0  0  0  0
  -25.3470  -13.9170   20.4280 C   0  0  0  0  0  0  0  0  0  0  0  0
  -24.2910  -13.1390   20.8190 C   0  0  0  0  0  0  0  0  0  0  0  0
  -24.7560  -11.7890   20.7660 C   0  0  0  0  0  0  0  0  0  0  0  0
  -26.3830  -13.0390   20.1530 N   0  0  0  0  0  0  0  0  0  0  0  0
  -26.0370  -11.7540   20.4220 N   0  0  0  0  0  0  0  0  0  0  0  0
  -24.0380  -10.5250   20.9640 C   0  0  0  0  0  0  0  0  0  0  0  0
  -24.4830   -9.5620   21.8950 C   0  0  0  0  0  3  0  0  0  0  0  0
  -23.7650   -8.3610   22.0810 C   0  0  0  0  0  3  0  0  0  0  0  0
  -22.5870   -8.1160   21.3350 C   0  0  0  0  0  0  0  0  0  0  0  0
  -22.1640   -9.0660   20.3900 C   0  0  0  0  0  3  0  0  0  0  0  0
  -22.8820  -10.2580   20.2030 C   0  0  0  0  0  3  0  0  0  0  0  0
  -21.8390   -6.9670   21.4310 O   0  0  0  0  0  0  0  0  0  0  0  0
  -21.7790   -6.2420   22.5930 C   0  0  0  0  0  0  0  0  0  0  0  0
  -21.3070   -6.8040   23.7990 C   0  0  0  0  0  3  0  0  0  0  0  0
  -21.1970   -6.0020   24.9530 C   0  0  0  0  0  3  0  0  0  0  0  0
  -21.5480   -4.6410   24.9020 C   0  0  0  0  0  0  0  0  0  0  0  0
  -22.0120   -4.0780   23.7000 C   0  0  0  0  0  3  0  0  0  0  0  0
  -22.1240   -4.8760   22.5480 C   0  0  0  0  0  0  0  0  0  0  0  0
  -22.5520   -4.3240   21.3870 F   0  0  0  0  0  0  0  0  0  0  0  0
  -21.4340   -3.8680   26.0060 F   0  0  0  0  0  0  0  0  0  0  0  0
  -22.9000  -13.6100   21.1290 C   0  0  0  0  0  0  0  0  0  0  0  0
  -22.1970  -12.9010   22.0040 N   0  0  0  0  0  0  0  0  0  0  0  0
  -22.4490  -14.6410   20.6310 O   0  0  0  0  0  0  0  0  0  0  0  0
  -22.5780  -12.0690   22.4320 H   0  0  0  0  0  0  0  0  0  0  0  0
  -21.2610  -13.1920   22.2500 H   0  0  0  0  0  0  0  0  0  0  0  0
  -25.5060  -15.2900   20.2590 N   0  0  0  0  0  0  0  0  0  0  0  0
  -24.7470  -15.9480   20.3960 H   0  0  0  0  0  0  0  0  0  0  0  0
  -26.3500  -15.7280   19.9160 H   0  0  0  0  0  0  0  0  0  0  0  0
  -28.8320  -22.8370   19.3590 C   0  0  0  0  0  3  0  0  0  0  0  0
  -28.9610  -24.0340   20.0210 C   0  0  0  0  0  3  0  0  0  0  0  0
  -28.2680  -25.4620   17.9480 C   0  0  0  0  0  1  0  0  0  0  0  0
  -30.3430  -25.9020   19.1950 C   0  0  0  0  0  1  0  0  0  0  0  0
  -28.8760  -25.4700   19.3730 C   0  0  2  0  0  0  0  0  0  0  0  0
  -28.4430  -26.5890   20.2370 O   0  0  0  0  0  0  0  0  0  0  0  0
  -24.5910  -31.8640   23.2160 C   0  0  0  0  0  0  0  0  0  0  0  0
  -27.2700  -27.3540   20.1500 C   0  0  0  0  0  0  0  0  0  0  0  0
  -23.4070  -30.4600   21.5640 C   0  0  0  0  0  3  0  0  0  0  0  0
  -24.8750  -28.9210   20.1450 C   0  0  0  0  0  0  0  0  0  0  0  0
  -25.9420  -30.8050   21.3930 C   0  0  0  0  0  2  0  0  0  0  0  0
  -26.0340  -29.4310   20.7410 C   0  0  0  0  0  0  0  0  0  0  0  0
  -27.2280  -28.6550   20.7360 C   0  0  0  0  0  3  0  0  0  0  0  0
  -26.0720  -26.8710   19.5800 C   0  0  0  0  0  3  0  0  0  0  0  0
  -24.8950  -27.6440   19.5600 C   0  0  0  0  0  3  0  0  0  0  0  0
  -23.6320  -29.7840   20.1860 C   0  0  0  0  0  2  0  0  0  0  0  0
  -24.6650  -31.0610   22.1150 N   0  0  0  0  0  0  0  0  0  0  0  0
  -23.5020  -32.1330   23.7440 O   0  0  0  0  0  0  0  0  0  0  0  0
  -22.7450  -29.4390   22.5200 C   0  0  0  0  0  0  0  0  0  0  0  0
  -21.4180  -29.2670   22.3960 N   0  0  0  0  0  0  0  0  0  0  0  0
  -23.4240  -28.8040   23.3300 O   0  0  0  0  0  0  0  0  0  0  0  0
  -20.9290  -29.8360   21.7190 H   0  0  0  0  0  0  0  0  0  0  0  0
  -18.0340  -28.0990   22.9100 C   0  0  0  0  0  0  0  0  0  0  0  0
  -20.5980  -28.3260   23.1590 C   0  0  0  0  0  3  0  0  0  0  0  0
  -20.6770  -26.9030   22.5580 C   0  0  0  0  0  2  0  0  0  0  0  0
  -19.5620  -26.6090   21.5500 C   0  0  0  0  0  2  0  0  0  0  0  0
  -18.1890  -26.7590   22.2120 C   0  0  0  0  0  2  0  0  0  0  0  0
  -19.1660  -28.8420   23.3410 C   0  0  0  0  0  0  0  0  0  0  0  0
  -18.9670  -30.0960   23.9560 C   0  0  0  0  0  3  0  0  0  0  0  0
  -17.6690  -30.6100   24.1420 C   0  0  0  0  0  3  0  0  0  0  0  0
  -16.5530  -29.8630   23.7280 C   0  0  0  0  0  3  0  0  0  0  0  0
  -16.7360  -28.6100   23.1190 C   0  0  0  0  0  3  0  0  0  0  0  0
  -25.8650  -32.5020   23.8530 C   0  0  0  0  0  3  0  0  0  0  0  0
  -26.3660  -31.7390   25.1410 C   0  0  1  0  0  0  0  0  0  0  0  0
  -25.2610  -31.5040   26.1960 C   0  0  0  0  0  1  0  0  0  0  0  0
  -26.9560  -30.3590   24.7640 C   0  0  0  0  0  1  0  0  0  0  0  0
  -27.5060  -32.5390   25.8120 C   0  0  0  0  0  1  0  0  0  0  0  0
  -25.5500  -33.9020   24.1720 N   0  0  0  0  0  0  0  0  0  0  0  0
  -25.8960  -34.9520   23.4170 C   0  0  0  0  0  0  0  0  0  0  0  0
  -26.5850  -34.8450   22.3980 O   0  0  0  0  0  0  0  0  0  0  0  0
  -24.9400  -34.0610   24.9620 H   0  0  0  0  0  0  0  0  0  0  0  0
  -24.1860  -36.7530   23.0150 C   0  0  0  0  0  1  0  0  0  0  0  0
  -25.4020  -36.3430   23.8620 C   0  0  0  0  0  3  0  0  0  0  0  0
  -27.5120  -37.2230   24.7570 C   0  0  0  0  0  1  0  0  0  0  0  0
  -26.4410  -37.3910   23.7790 N   0  0  0  0  0  0  0  0  0  0  0  0
  -26.0330  -38.3140   23.9110 H   0  0  0  0  0  0  0  0  0  0  0  0
  1  3  1  0
  2  5  1  0
  3  9  1  0
  3  5  2  0
  4  2  2  0
  5  7  1  0
  6  1  2  0
  6  4  1  0
  8  6  1  0
 10  9  2  0
 11 10  1  0
 12 17  1  0
 13 14  1  0
 13 12  1  0
 15 14  1  0
 15 22  1  0
 15 16  1  0
 17 11  1  0
 17 16  1  0
 18 11  2  0
 19 20  2  0
 20 39  1  0
 21 20  1  0
 21 24  1  0
 22 23  1  0
 22 19  1  0
 23 21  2  0
 24 25  1  0
 25 26  2  0
 27 30  1  0
 27 26  1  0
 28 27  2  0
 29 28  1  0
 29 24  2  0
 30 31  1  0
 31 32  1  0
 32 33  2  0
 34 33  1  0
 34 38  1  0
 35 34  2  0
 36 31  2  0
 36 35  1  0
 37 36  1  0
 39 40  1  0
 40 43  1  0
 40 42  1  0
 41 39  2  0
 44 45  1  0
 44 19  1  0
 46 44  1  0
 47  4  1  0
 47 48  2  0
 51 49  1  6
 50 51  1  0
 51 48  1  0
 51 52  1  0
 53 64  2  0
 54 52  1  0
 54 59  1  0
 55 63  1  0
 55 65  1  0
 56 62  1  0
 56 58  1  0
 57 63  1  0
 58 57  1  0
 59 58  2  0
 60 54  2  0
 61 60  1  0
 61 56  2  0
 62 55  1  0
 63 53  1  0
 65 67  2  0
 66 65  1  0
 68 66  1  0
 69 78  2  0
 69 74  1  0
 70 66  1  0
 70 74  1  0
 71 70  1  0
 72 73  1  0
 72 71  1  0
 73 69  1  0
 74 75  2  0
 75 76  1  0
 77 76  2  0
 78 77  1  0
 79 53  1  0
 79 84  1  0
 79 80  1  0
 80 83  1  1
 80 81  1  0
 82 80  1  0
 84 87  1  0
 85 89  1  0
 85 84  1  0
 86 85  2  0
 89 88  1  0
 91 89  1  0
 91 92  1  0
 91 90  1  0
M  ISO  4  10 100  11 100  51 101  52 101
M  END
>  <TORSDO>  (82) 
F 19

>  <SCORE>  (82) 
-14.431

>  <name>  (82) 
81

>  <ligand_id>  (82) 
81

>  <original_smiles>  (82) 
[H]C(C(=O)N1C([H])([H])C([H])([H])C([H])([H])C([H])(n2nc(-c3c([H])c([H])c(Oc4c([H])c([H])c(F)c([H])c4F)c([H])c3[H])c(C(=O)N([H])[H])c2N([H])[H])C1([H])[H])=C([H])c1c([H])c(C([H])([H])[H])c(C([H])=C([H])C(Oc2c([H])c([H])c3c(c2[H])C([H])([H])N(C(=O)C([H])(N([H])C(=O)C([H])(N([H])C([H])([H])[H])C([H])([H])[H])C(C([H])([H])[H])(C([H])([H])[H])C([H])([H])[H])C([H])(C(=O)N([H])C2([H])c4c([H])c([H])c([H])c([H])c4C([H])([H])C([H])([H])C2([H])[H])C3([H])[H])(C([H])([H])[H])C([H])([H])[H])c([H])c1C([H])([H])[H]

>  <smiles>  (82) 
[H]C(C(=O)N1C([H])([H])C([H])([H])C([H])([H])C([H])(n2nc(-c3c([H])c([H])c(Oc4c([H])c([H])c(F)c([H])c4F)c([H])c3[H])c(C(=O)N([H])[H])c2N([H])[H])C1([H])[H])=C([H])c1c([H])c(C([H])([H])[H])c(C([H])=C([H])C(Oc2c([H])c([H])c3c(c2[H])C([H])([H])N(C(=O)C([H])(N([H])C(=O)C([H])(N([H])C([H])([H])[H])C([H])([H])[H])C(C([H])([H])[H])(C([H])([H])[H])C([H])([H])[H])C([H])(C(=O)N([H])C2([H])c4c([H])c([H])c([H])c([H])c4C([H])([H])C([H])([H])C2([H])[H])C3([H])[H])(C([H])([H])[H])C([H])([H])[H])c([H])c1C([H])([H])[H]

$$$$
82:0:0
     RDKit          3D

 90 98  0  0  1  0  0  0  0  0999 V2000
  -29.2800  -18.4060   20.2960 C   0  0  0  0  0  3  0  0  0  0  0  0
  -30.9320  -20.0680   20.9420 C   0  0  0  0  0  3  0  0  0  0  0  0
  -31.4600  -17.6770   21.0830 C   0  0  0  0  0  3  0  0  0  0  0  0
  -29.6350  -19.8070   20.4530 C   0  0  0  0  0  0  0  0  0  0  0  0
  -30.1830  -17.3080   20.5970 C   0  0  0  0  0  0  0  0  0  0  0  0
  -31.8260  -19.0260   21.2560 C   0  0  0  0  0  0  0  0  0  0  0  0
  -33.3940  -19.4160   21.8600 Cl  0  0  0  0  0  0  0  0  0  0  0  0
  -30.6210  -14.7500   20.3360 C   0  0  0  0  0  0  0  0  0  0  0  0
  -30.4030  -12.4870   19.3140 C   0  0  0  0  0  2  0  0  0  0  0  0
  -29.4480  -12.5810   18.1040 C   0  0  0  0  0  2  0  0  0  0  0  0
  -27.9810  -12.4140   18.5510 C   0  0  0  0  0  2  0  0  0  0  0  0
  -27.6240  -13.2840   19.7860 C   0  0  0  0  0  3  0  0  0  0  0  0
  -28.7020  -13.1860   20.8880 C   0  0  0  0  0  2  0  0  0  0  0  0
  -29.9880  -13.5340   20.2710 N   0  0  0  0  0  0  0  0  0  0  0  0
  -31.8110  -14.8420   20.0260 O   0  0  0  0  0  0  0  0  0  0  0  0
  -29.8270  -15.8760   20.4830 N   0  0  0  0  0  0  0  0  0  0  0  0
  -28.8400  -15.6760   20.5000 H   0  0  0  0  0  0  0  0  0  0  0  0
  -25.2440  -13.8560   20.5590 C   0  0  0  0  0  0  0  0  0  0  0  0
  -24.1880  -13.0720   20.9370 C   0  0  0  0  0  0  0  0  0  0  0  0
  -24.6590  -11.7240   20.8840 C   0  0  0  0  0  0  0  0  0  0  0  0
  -26.2890  -12.9850   20.2970 N   0  0  0  0  0  0  0  0  0  0  0  0
  -25.9450  -11.6970   20.5570 N   0  0  0  0  0  0  0  0  0  0  0  0
  -23.9400  -10.4560   21.0710 C   0  0  0  0  0  0  0  0  0  0  0  0
  -24.3900   -9.4790   21.9850 C   0  0  0  0  0  3  0  0  0  0  0  0
  -23.6720   -8.2760   22.1610 C   0  0  0  0  0  3  0  0  0  0  0  0
  -22.4880   -8.0420   21.4210 C   0  0  0  0  0  0  0  0  0  0  0  0
  -22.0560   -9.0090   20.4970 C   0  0  0  0  0  3  0  0  0  0  0  0
  -22.7760  -10.2030   20.3180 C   0  0  0  0  0  3  0  0  0  0  0  0
  -21.7390   -6.8930   21.5070 O   0  0  0  0  0  0  0  0  0  0  0  0
  -21.7080   -6.1380   22.6510 C   0  0  0  0  0  0  0  0  0  0  0  0
  -21.2870   -6.6760   23.8880 C   0  0  0  0  0  3  0  0  0  0  0  0
  -21.2040   -5.8460   25.0240 C   0  0  0  0  0  3  0  0  0  0  0  0
  -21.5320   -4.4800   24.9250 C   0  0  0  0  0  0  0  0  0  0  0  0
  -21.9460   -3.9440   23.6930 C   0  0  0  0  0  3  0  0  0  0  0  0
  -22.0310   -4.7700   22.5600 C   0  0  0  0  0  0  0  0  0  0  0  0
  -22.4110   -4.2420   21.3700 F   0  0  0  0  0  0  0  0  0  0  0  0
  -21.4450   -3.6810   26.0140 F   0  0  0  0  0  0  0  0  0  0  0  0
  -22.7920  -13.5400   21.2300 C   0  0  0  0  0  0  0  0  0  0  0  0
  -22.0770  -12.8320   22.0980 N   0  0  0  0  0  0  0  0  0  0  0  0
  -22.3410  -14.5680   20.7260 O   0  0  0  0  0  0  0  0  0  0  0  0
  -22.4520  -12.0010   22.5310 H   0  0  0  0  0  0  0  0  0  0  0  0
  -21.1390  -13.1260   22.3340 H   0  0  0  0  0  0  0  0  0  0  0  0
  -25.3920  -15.2300   20.3900 N   0  0  0  0  0  0  0  0  0  0  0  0
  -24.6140  -15.8670   20.5160 H   0  0  0  0  0  0  0  0  0  0  0  0
  -26.2140  -15.6810   20.0080 H   0  0  0  0  0  0  0  0  0  0  0  0
  -28.7080  -21.0310   20.0460 C   0  0  0  0  0  3  0  0  0  0  0  0
  -28.9220  -22.4940   20.6910 C   0  0  0  0  0  3  0  0  0  0  0  0
  -28.3420  -23.8150   19.9740 C   0  0  0  0  0  2  0  0  0  0  0  0
  -28.2870  -25.1770   20.8190 C   0  0  0  0  0  2  0  0  0  0  0  0
  -28.3420  -26.5260   20.1990 O   0  0  0  0  0  0  0  0  0  0  0  0
  -24.6020  -31.9330   23.2440 C   0  0  0  0  0  0  0  0  0  0  0  0
  -27.2120  -27.3520   20.2270 C   0  0  0  0  0  0  0  0  0  0  0  0
  -23.3960  -30.5210   21.6160 C   0  0  0  0  0  3  0  0  0  0  0  0
  -24.8450  -28.9530   20.2060 C   0  0  0  0  0  0  0  0  0  0  0  0
  -25.9320  -30.8450   21.4190 C   0  0  0  0  0  2  0  0  0  0  0  0
  -26.0140  -29.4570   20.7900 C   0  0  0  0  0  0  0  0  0  0  0  0
  -27.2040  -28.6690   20.7850 C   0  0  0  0  0  3  0  0  0  0  0  0
  -26.0200  -26.8890   19.6350 C   0  0  0  0  0  3  0  0  0  0  0  0
  -24.8480  -27.6740   19.6210 C   0  0  0  0  0  3  0  0  0  0  0  0
  -23.6080  -29.8290   20.2430 C   0  0  0  0  0  2  0  0  0  0  0  0
  -24.6630  -31.1170   22.1500 N   0  0  0  0  0  0  0  0  0  0  0  0
  -23.5190  -32.2130   23.7780 O   0  0  0  0  0  0  0  0  0  0  0  0
  -22.7350  -29.5130   22.5850 C   0  0  0  0  0  0  0  0  0  0  0  0
  -21.4100  -29.3310   22.4600 N   0  0  0  0  0  0  0  0  0  0  0  0
  -23.4150  -28.8950   23.4100 O   0  0  0  0  0  0  0  0  0  0  0  0
  -20.9200  -29.8780   21.7660 H   0  0  0  0  0  0  0  0  0  0  0  0
  -18.0370  -28.1260   22.9640 C   0  0  0  0  0  0  0  0  0  0  0  0
  -20.5940  -28.3990   23.2400 C   0  0  0  0  0  3  0  0  0  0  0  0
  -20.7030  -26.9610   22.6800 C   0  0  0  0  0  2  0  0  0  0  0  0
  -19.6050  -26.6220   21.6670 C   0  0  0  0  0  2  0  0  0  0  0  0
  -18.2200  -26.7710   22.3040 C   0  0  0  0  0  2  0  0  0  0  0  0
  -19.1510  -28.8970   23.3900 C   0  0  0  0  0  0  0  0  0  0  0  0
  -18.9240  -30.1660   23.9670 C   0  0  0  0  0  3  0  0  0  0  0  0
  -17.6170  -30.6630   24.1230 C   0  0  0  0  0  3  0  0  0  0  0  0
  -16.5170  -29.8900   23.7120 C   0  0  0  0  0  3  0  0  0  0  0  0
  -16.7280  -28.6230   23.1390 C   0  0  0  0  0  3  0  0  0  0  0  0
  -25.8860  -32.5700   23.8590 C   0  0  0  0  0  3  0  0  0  0  0  0
  -26.4070  -31.8060   25.1380 C   0  0  1  0  0  0  0  0  0  0  0  0
  -25.3160  -31.5730   26.2090 C   0  0  0  0  0  1  0  0  0  0  0  0
  -26.9900  -30.4280   24.7500 C   0  0  0  0  0  1  0  0  0  0  0  0
  -27.5570  -32.6040   25.7930 C   0  0  0  0  0  1  0  0  0  0  0  0
  -25.5760  -33.9690   24.1860 N   0  0  0  0  0  0  0  0  0  0  0  0
  -25.9070  -35.0200   23.4230 C   0  0  0  0  0  0  0  0  0  0  0  0
  -26.5760  -34.9130   22.3930 O   0  0  0  0  0  0  0  0  0  0  0  0
  -24.9830  -34.1250   24.9880 H   0  0  0  0  0  0  0  0  0  0  0  0
  -24.1860  -36.8170   23.0580 C   0  0  0  0  0  1  0  0  0  0  0  0
  -25.4200  -36.4100   23.8780 C   0  0  0  0  0  3  0  0  0  0  0  0
  -27.5490  -37.2910   24.7250 C   0  0  0  0  0  1  0  0  0  0  0  0
  -26.4550  -37.4610   23.7710 N   0  0  0  0  0  0  0  0  0  0  0  0
  -26.0490  -38.3810   23.9180 H   0  0  0  0  0  0  0  0  0  0  0  0
  1  4  2  0
  1  5  1  0
  2  6  2  0
  3  6  1  0
  4  2  1  0
  5  3  2  0
  6  7  1  0
  8 16  1  0
  9 14  1  0
 10 11  1  0
 10  9  1  0
 12 11  1  0
 12 21  1  0
 12 13  1  0
 14  8  1  0
 14 13  1  0
 15  8  2  0
 16 17  1  0
 16  5  1  0
 18 19  2  0
 19 38  1  0
 20 19  1  0
 20 23  1  0
 21 22  1  0
 21 18  1  0
 22 20  2  0
 23 24  1  0
 24 25  2  0
 26 29  1  0
 26 25  1  0
 27 26  2  0
 28 27  1  0
 28 23  2  0
 29 30  1  0
 30 31  1  0
 31 32  2  0
 33 32  1  0
 33 37  1  0
 34 33  2  0
 35 30  2  0
 35 34  1  0
 36 35  1  0
 38 39  1  0
 39 42  1  0
 39 41  1  0
 40 38  2  0
 43 44  1  0
 43 18  1  0
 45 43  1  0
 46  4  1  0
 46 47  2  0
 48 47  1  0
 48 49  1  0
 50 52  1  0
 50 49  1  0
 51 62  2  0
 52 57  1  0
 53 61  1  0
 53 63  1  0
 54 60  1  0
 54 56  1  0
 55 61  1  0
 56 55  1  0
 57 56  2  0
 58 52  2  0
 59 58  1  0
 59 54  2  0
 60 53  1  0
 61 51  1  0
 63 65  2  0
 64 63  1  0
 66 64  1  0
 67 76  2  0
 67 72  1  0
 68 64  1  0
 68 72  1  0
 69 68  1  0
 70 71  1  0
 70 69  1  0
 71 67  1  0
 72 73  2  0
 73 74  1  0
 75 74  2  0
 76 75  1  0
 77 51  1  0
 77 82  1  0
 77 78  1  0
 78 81  1  1
 78 79  1  0
 80 78  1  0
 82 85  1  0
 83 87  1  0
 83 82  1  0
 84 83  2  0
 87 86  1  0
 89 87  1  0
 89 90  1  0
 89 88  1  0
M  ISO  4   8 100  16 100  49 101  50 101
M  END
>  <TORSDO>  (83) 
F 20

>  <SCORE>  (83) 
-14.008

>  <name>  (83) 
82

>  <ligand_id>  (83) 
82

>  <original_smiles>  (83) 
[H]c1c([H])c([H])c2c(c1[H])C([H])([H])C([H])([H])C([H])([H])C2([H])N([H])C(=O)C1([H])N(C(=O)C([H])(N([H])C(=O)C([H])(N([H])C([H])([H])[H])C([H])([H])[H])C(C([H])([H])[H])(C([H])([H])[H])C([H])([H])[H])C([H])([H])c2c([H])c(OC([H])([H])C([H])([H])C([H])([H])C([H])([H])c3c([H])c(Cl)c([H])c(N([H])C(=O)N4C([H])([H])C([H])([H])C([H])([H])C([H])(n5nc(-c6c([H])c([H])c(Oc7c([H])c([H])c(F)c([H])c7F)c([H])c6[H])c(C(=O)N([H])[H])c5N([H])[H])C4([H])[H])c3[H])c([H])c([H])c2C1([H])[H]

>  <smiles>  (83) 
[H]c1c([H])c([H])c2c(c1[H])C([H])([H])C([H])([H])C([H])([H])C2([H])N([H])C(=O)C1([H])N(C(=O)C([H])(N([H])C(=O)C([H])(N([H])C([H])([H])[H])C([H])([H])[H])C(C([H])([H])[H])(C([H])([H])[H])C([H])([H])[H])C([H])([H])c2c([H])c(OC([H])([H])C([H])([H])C([H])([H])C([H])([H])c3c([H])c(Cl)c([H])c(N([H])C(=O)N4C([H])([H])C([H])([H])C([H])([H])C([H])(n5nc(-c6c([H])c([H])c(Oc7c([H])c([H])c(F)c([H])c7F)c([H])c6[H])c(C(=O)N([H])[H])c5N([H])[H])C4([H])[H])c3[H])c([H])c([H])c2C1([H])[H]

$$$$
83:0:0
     RDKit          3D

 93101  0  0  1  0  0  0  0  0999 V2000
  -30.1300  -21.4480   22.4070 C   0  0  0  0  0  0  0  0  0  0  0  0
  -30.3400  -21.5180   23.6640 N   0  0  0  0  0  0  0  0  0  0  0  0
  -30.3910  -20.6250   24.1480 H   0  0  0  0  0  0  0  0  0  0  0  0
  -29.9430  -18.9170   22.6870 C   0  0  0  0  0  3  0  0  0  0  0  0
  -29.9850  -17.5660   22.2580 C   0  0  0  0  0  3  0  0  0  0  0  0
  -30.1220  -18.3120   19.9800 C   0  0  0  0  0  3  0  0  0  0  0  0
  -30.0190  -20.0310   21.7980 C   0  0  0  0  0  0  0  0  0  0  0  0
  -30.1140  -17.2180   20.8950 C   0  0  0  0  0  0  0  0  0  0  0  0
  -30.0720  -19.6820   20.4180 C   0  0  0  0  0  0  0  0  0  0  0  0
  -30.1010  -20.6640   19.4850 F   0  0  0  0  0  0  0  0  0  0  0  0
  -30.8350  -14.8570   19.9890 C   0  0  0  0  0  0  0  0  0  0  0  0
  -30.6300  -12.6490   18.8200 C   0  0  0  0  0  2  0  0  0  0  0  0
  -29.5900  -12.7710   17.6820 C   0  0  0  0  0  2  0  0  0  0  0  0
  -28.1490  -12.5950   18.2060 C   0  0  0  0  0  2  0  0  0  0  0  0
  -27.8750  -13.4160   19.4930 C   0  0  0  0  0  3  0  0  0  0  0  0
  -29.0060  -13.1950   20.5210 C   0  0  0  0  0  2  0  0  0  0  0  0
  -30.2630  -13.6100   19.8790 N   0  0  0  0  0  0  0  0  0  0  0  0
  -31.9380  -15.1060   19.4940 O   0  0  0  0  0  0  0  0  0  0  0  0
  -30.0110  -15.7990   20.5570 N   0  0  0  0  0  0  0  0  0  0  0  0
  -29.1710  -15.3680   20.9170 H   0  0  0  0  0  0  0  0  0  0  0  0
  -25.5490  -14.0090   20.4110 C   0  0  0  0  0  0  0  0  0  0  0  0
  -24.5010  -13.2320   20.8230 C   0  0  0  0  0  0  0  0  0  0  0  0
  -24.9420  -11.8790   20.6950 C   0  0  0  0  0  0  0  0  0  0  0  0
  -26.5600  -13.1290   20.0580 N   0  0  0  0  0  0  0  0  0  0  0  0
  -26.2050  -11.8390   20.2900 N   0  0  0  0  0  0  0  0  0  0  0  0
  -24.2150  -10.6180   20.8860 C   0  0  0  0  0  0  0  0  0  0  0  0
  -24.6410   -9.6610   21.8330 C   0  0  0  0  0  3  0  0  0  0  0  0
  -23.9190   -8.4600   22.0110 C   0  0  0  0  0  3  0  0  0  0  0  0
  -22.7600   -8.2100   21.2400 C   0  0  0  0  0  0  0  0  0  0  0  0
  -22.3540   -9.1560   20.2840 C   0  0  0  0  0  3  0  0  0  0  0  0
  -23.0760  -10.3460   20.1050 C   0  0  0  0  0  3  0  0  0  0  0  0
  -22.0130   -7.0600   21.3240 O   0  0  0  0  0  0  0  0  0  0  0  0
  -21.8310   -6.4030   22.5150 C   0  0  0  0  0  0  0  0  0  0  0  0
  -21.2540   -7.0380   23.6360 C   0  0  0  0  0  3  0  0  0  0  0  0
  -21.0240   -6.3080   24.8180 C   0  0  0  0  0  3  0  0  0  0  0  0
  -21.3600   -4.9420   24.8810 C   0  0  0  0  0  0  0  0  0  0  0  0
  -21.9290   -4.3070   23.7640 C   0  0  0  0  0  3  0  0  0  0  0  0
  -22.1630   -5.0340   22.5850 C   0  0  0  0  0  0  0  0  0  0  0  0
  -22.6930   -4.4130   21.5040 F   0  0  0  0  0  0  0  0  0  0  0  0
  -21.1300   -4.2390   26.0130 F   0  0  0  0  0  0  0  0  0  0  0  0
  -23.1330  -13.7110   21.2150 C   0  0  0  0  0  0  0  0  0  0  0  0
  -22.4700  -13.0010   22.1180 N   0  0  0  0  0  0  0  0  0  0  0  0
  -22.6650  -14.7530   20.7580 O   0  0  0  0  0  0  0  0  0  0  0  0
  -22.8650  -12.1630   22.5180 H   0  0  0  0  0  0  0  0  0  0  0  0
  -21.5540  -13.3040   22.4190 H   0  0  0  0  0  0  0  0  0  0  0  0
  -25.7130  -15.3840   20.2880 N   0  0  0  0  0  0  0  0  0  0  0  0
  -24.9580  -16.0280   20.5020 H   0  0  0  0  0  0  0  0  0  0  0  0
  -26.5290  -15.8460   19.9020 H   0  0  0  0  0  0  0  0  0  0  0  0
  -29.8710  -23.4150   20.6660 C   0  0  0  0  0  0  0  0  0  0  0  0
  -30.1050  -22.8620   21.8490 C   0  0  0  0  0  3  0  0  0  0  0  0
  -29.6800  -24.3650   19.7580 C   0  0  0  0  0  3  0  0  0  0  0  0
  -28.4180  -25.2480   19.6120 C   0  0  0  0  0  2  0  0  0  0  0  0
  -28.5510  -26.6680   19.9590 O   0  0  0  0  0  0  0  0  0  0  0  0
  -24.5880  -31.7690   23.1670 C   0  0  0  0  0  0  0  0  0  0  0  0
  -27.3770  -27.4280   19.9710 C   0  0  0  0  0  0  0  0  0  0  0  0
  -23.4360  -30.3580   21.5040 C   0  0  0  0  0  3  0  0  0  0  0  0
  -24.9390  -28.9050   20.0450 C   0  0  0  0  0  0  0  0  0  0  0  0
  -25.9550  -30.7960   21.3120 C   0  0  0  0  0  2  0  0  0  0  0  0
  -26.0880  -29.4360   20.6400 C   0  0  0  0  0  0  0  0  0  0  0  0
  -27.3100  -28.7090   20.5950 C   0  0  0  0  0  3  0  0  0  0  0  0
  -26.1900  -26.9410   19.3670 C   0  0  0  0  0  3  0  0  0  0  0  0
  -24.9870  -27.6600   19.4070 C   0  0  0  0  0  3  0  0  0  0  0  0
  -23.6680  -29.7210   20.1110 C   0  0  0  0  0  2  0  0  0  0  0  0
  -24.6780  -30.9900   22.0520 N   0  0  0  0  0  0  0  0  0  0  0  0
  -23.4970  -31.9910   23.7130 O   0  0  0  0  0  0  0  0  0  0  0  0
  -22.8220  -29.2930   22.4450 C   0  0  0  0  0  0  0  0  0  0  0  0
  -21.5110  -29.0420   22.2940 N   0  0  0  0  0  0  0  0  0  0  0  0
  -23.5240  -28.6990   23.2670 O   0  0  0  0  0  0  0  0  0  0  0  0
  -21.0030  -29.5750   21.6020 H   0  0  0  0  0  0  0  0  0  0  0  0
  -18.2020  -27.6420   22.7220 C   0  0  0  0  0  0  0  0  0  0  0  0
  -20.7340  -28.0540   23.0440 C   0  0  0  0  0  3  0  0  0  0  0  0
  -20.9340  -26.6330   22.4680 C   0  0  0  0  0  2  0  0  0  0  0  0
  -19.8730  -26.2490   21.4300 C   0  0  0  0  0  2  0  0  0  0  0  0
  -18.4740  -26.3080   22.0460 C   0  0  0  0  0  2  0  0  0  0  0  0
  -19.2630  -28.4690   23.1770 C   0  0  0  0  0  0  0  0  0  0  0  0
  -18.9550  -29.7140   23.7660 C   0  0  0  0  0  3  0  0  0  0  0  0
  -17.6200  -30.1340   23.9080 C   0  0  0  0  0  3  0  0  0  0  0  0
  -16.5730  -29.3070   23.4660 C   0  0  0  0  0  3  0  0  0  0  0  0
  -16.8630  -28.0620   22.8790 C   0  0  0  0  0  3  0  0  0  0  0  0
  -25.8490  -32.4410   23.7950 C   0  0  0  0  0  3  0  0  0  0  0  0
  -26.3600  -31.7070   25.0940 C   0  0  1  0  0  0  0  0  0  0  0  0
  -25.2500  -31.4540   26.1410 C   0  0  0  0  0  1  0  0  0  0  0  0
  -26.9920  -30.3420   24.7360 C   0  0  0  0  0  1  0  0  0  0  0  0
  -27.4750  -32.5430   25.7620 C   0  0  0  0  0  1  0  0  0  0  0  0
  -25.5040  -33.8380   24.0920 N   0  0  0  0  0  0  0  0  0  0  0  0
  -25.8170  -34.8820   23.3130 C   0  0  0  0  0  0  0  0  0  0  0  0
  -26.4950  -34.7730   22.2890 O   0  0  0  0  0  0  0  0  0  0  0  0
  -24.9000  -33.9940   24.8860 H   0  0  0  0  0  0  0  0  0  0  0  0
  -24.0390  -36.6190   22.9170 C   0  0  0  0  0  1  0  0  0  0  0  0
  -25.2920  -36.2700   23.7360 C   0  0  0  0  0  3  0  0  0  0  0  0
  -27.4020  -37.2320   24.5460 C   0  0  0  0  0  1  0  0  0  0  0  0
  -26.2980  -37.3470   23.5960 N   0  0  0  0  0  0  0  0  0  0  0  0
  -25.8680  -38.2610   23.7130 H   0  0  0  0  0  0  0  0  0  0  0  0
  1  2  2  0
  2  3  1  0
  5  4  1  0
  6  9  2  0
  6  8  1  0
  7  1  1  0
  7  4  2  0
  8  5  2  0
  9  7  1  0
 10  9  1  0
 11 19  1  0
 12 17  1  0
 13 14  1  0
 13 12  1  0
 15 14  1  0
 15 24  1  0
 15 16  1  0
 17 11  1  0
 17 16  1  0
 18 11  2  0
 19  8  1  0
 19 20  1  0
 21 22  2  0
 22 41  1  0
 23 22  1  0
 23 26  1  0
 24 25  1  0
 24 21  1  0
 25 23  2  0
 26 27  1  0
 27 28  2  0
 29 32  1  0
 29 28  1  0
 30 29  2  0
 31 30  1  0
 31 26  2  0
 32 33  1  0
 33 38  2  0
 33 34  1  0
 34 35  2  0
 35 36  1  0
 36 40  1  0
 37 36  2  0
 38 37  1  0
 39 38  1  0
 41 42  1  0
 42 45  1  0
 42 44  1  0
 43 41  2  0
 46 21  1  0
 46 47  1  0
 48 46  1  0
 49 50  2  0
 50  1  1  0
 51 49  2  0
 52 51  1  0
 52 53  1  0
 53 55  1  0
 54 65  2  0
 55 60  1  0
 56 64  1  0
 56 66  1  0
 57 63  1  0
 57 59  1  0
 58 64  1  0
 59 58  1  0
 60 59  2  0
 61 62  1  0
 61 55  2  0
 62 57  2  0
 63 56  1  0
 64 54  1  0
 66 68  2  0
 67 66  1  0
 69 67  1  0
 70 79  2  0
 70 75  1  0
 71 67  1  0
 71 75  1  0
 72 71  1  0
 73 74  1  0
 73 72  1  0
 74 70  1  0
 75 76  2  0
 76 77  1  0
 78 77  2  0
 79 78  1  0
 80 54  1  0
 80 85  1  0
 80 81  1  0
 81 84  1  1
 81 82  1  0
 83 81  1  0
 85 88  1  0
 86 90  1  0
 86 85  1  0
 87 86  2  0
 90 89  1  0
 92 93  1  0
 92 90  1  0
 92 91  1  0
M  ISO  4  11 100  19 100  52 101  53 101
M  END
>  <TORSDO>  (84) 
F 19

>  <SCORE>  (84) 
-12.234

>  <name>  (84) 
83

>  <ligand_id>  (84) 
83

>  <original_smiles>  (84) 
[H]N=C(C([H])=C=C([H])C([H])([H])Oc1c([H])c([H])c2c(c1[H])C([H])([H])N(C(=O)C([H])(N([H])C(=O)C([H])(N([H])C([H])([H])[H])C([H])([H])[H])C(C([H])([H])[H])(C([H])([H])[H])C([H])([H])[H])C([H])(C(=O)N([H])C1([H])c3c([H])c([H])c([H])c([H])c3C([H])([H])C([H])([H])C1([H])[H])C2([H])[H])c1c([H])c([H])c(N([H])C(=O)N2C([H])([H])C([H])([H])C([H])([H])C([H])(n3nc(-c4c([H])c([H])c(Oc5c([H])c([H])c(F)c([H])c5F)c([H])c4[H])c(C(=O)N([H])[H])c3N([H])[H])C2([H])[H])c([H])c1F

>  <smiles>  (84) 
[H]N=C(C([H])=C=C([H])C([H])([H])Oc1c([H])c([H])c2c(c1[H])C([H])([H])N(C(=O)C([H])(N([H])C(=O)C([H])(N([H])C([H])([H])[H])C([H])([H])[H])C(C([H])([H])[H])(C([H])([H])[H])C([H])([H])[H])C([H])(C(=O)N([H])C1([H])c3c([H])c([H])c([H])c([H])c3C([H])([H])C([H])([H])C1([H])[H])C2([H])[H])c1c([H])c([H])c(N([H])C(=O)N2C([H])([H])C([H])([H])C([H])([H])C([H])(n3nc(-c4c([H])c([H])c(Oc5c([H])c([H])c(F)c([H])c5F)c([H])c4[H])c(C(=O)N([H])[H])c3N([H])[H])C2([H])[H])c([H])c1F

$$$$
84:0:0
     RDKit          3D

 91 99  0  0  1  0  0  0  0  0999 V2000
  -29.2120  -21.2890   20.6700 C   0  0  0  0  0  3  0  0  0  0  0  0
  -29.0480  -22.4910   19.9870 C   0  0  0  0  0  3  0  0  0  0  0  0
  -30.3040  -19.9360   18.8480 C   0  0  0  0  0  3  0  0  0  0  0  0
  -30.7810  -18.7630   18.2460 C   0  0  0  0  0  3  0  0  0  0  0  0
  -29.7110  -18.6280   20.8020 C   0  0  0  0  0  3  0  0  0  0  0  0
  -29.7380  -19.9320   20.1370 C   0  0  0  0  0  0  0  0  0  0  0  0
  -30.7230  -17.5100   18.8870 C   0  0  0  0  0  0  0  0  0  0  0  0
  -30.2190  -17.3850   20.2170 C   0  0  0  0  0  0  0  0  0  0  0  0
  -31.1250  -16.3200   18.0330 C   0  0  0  0  0  1  0  0  0  0  0  0
  -30.8790  -14.8900   20.7640 C   0  0  0  0  0  0  0  0  0  0  0  0
  -30.7550  -12.5740   19.8390 C   0  0  0  0  0  2  0  0  0  0  0  0
  -29.9080  -12.5890   18.5460 C   0  0  0  0  0  2  0  0  0  0  0  0
  -28.4070  -12.4570   18.8710 C   0  0  0  0  0  2  0  0  0  0  0  0
  -27.9490  -13.3770   20.0340 C   0  0  0  0  0  3  0  0  0  0  0  0
  -28.9260  -13.3220   21.2280 C   0  0  0  0  0  2  0  0  0  0  0  0
  -30.2600  -13.6590   20.7190 N   0  0  0  0  0  0  0  0  0  0  0  0
  -32.0930  -14.9640   20.5610 O   0  0  0  0  0  0  0  0  0  0  0  0
  -30.0900  -16.0360   20.8550 N   0  0  0  0  0  0  0  0  0  0  0  0
  -29.1820  -15.8610   21.2550 H   0  0  0  0  0  0  0  0  0  0  0  0
  -25.5150  -13.9740   20.5900 C   0  0  0  0  0  0  0  0  0  0  0  0
  -24.4270  -13.2040   20.9010 C   0  0  0  0  0  0  0  0  0  0  0  0
  -24.8940  -11.8540   20.9280 C   0  0  0  0  0  0  0  0  0  0  0  0
  -26.5740  -13.0940   20.4400 N   0  0  0  0  0  0  0  0  0  0  0  0
  -26.2030  -11.8140   20.7090 N   0  0  0  0  0  0  0  0  0  0  0  0
  -24.1580  -10.5920   21.0900 C   0  0  0  0  0  0  0  0  0  0  0  0
  -24.5240   -9.6430   22.0700 C   0  0  0  0  0  3  0  0  0  0  0  0
  -23.7890   -8.4470   22.2190 C   0  0  0  0  0  3  0  0  0  0  0  0
  -22.6730   -8.1910   21.3860 C   0  0  0  0  0  0  0  0  0  0  0  0
  -22.3270   -9.1290   20.3960 C   0  0  0  0  0  3  0  0  0  0  0  0
  -23.0650  -10.3150   20.2460 C   0  0  0  0  0  3  0  0  0  0  0  0
  -21.9140   -7.0460   21.4430 O   0  0  0  0  0  0  0  0  0  0  0  0
  -21.7760   -6.3310   22.6040 C   0  0  0  0  0  0  0  0  0  0  0  0
  -21.2340   -6.9070   23.7740 C   0  0  0  0  0  3  0  0  0  0  0  0
  -21.0450   -6.1160   24.9250 C   0  0  0  0  0  3  0  0  0  0  0  0
  -21.3880   -4.7510   24.9060 C   0  0  0  0  0  0  0  0  0  0  0  0
  -21.9220   -4.1750   23.7410 C   0  0  0  0  0  3  0  0  0  0  0  0
  -22.1130   -4.9630   22.5920 C   0  0  0  0  0  0  0  0  0  0  0  0
  -22.6090   -4.3970   21.4640 F   0  0  0  0  0  0  0  0  0  0  0  0
  -21.1980   -3.9900   26.0100 F   0  0  0  0  0  0  0  0  0  0  0  0
  -23.0130  -13.6800   21.0650 C   0  0  0  0  0  0  0  0  0  0  0  0
  -22.2280  -13.0000   21.8940 N   0  0  0  0  0  0  0  0  0  0  0  0
  -22.6100  -14.6910   20.4920 O   0  0  0  0  0  0  0  0  0  0  0  0
  -22.5660  -12.1820   22.3790 H   0  0  0  0  0  0  0  0  0  0  0  0
  -21.2770  -13.3030   22.0470 H   0  0  0  0  0  0  0  0  0  0  0  0
  -25.6890  -15.3410   20.3980 N   0  0  0  0  0  0  0  0  0  0  0  0
  -24.9130  -15.9940   20.4340 H   0  0  0  0  0  0  0  0  0  0  0  0
  -26.5530  -15.7730   20.0960 H   0  0  0  0  0  0  0  0  0  0  0  0
  -28.5760  -23.8560   20.5250 C   0  0  0  0  0  0  0  0  0  0  0  0
  -28.3300  -24.0170   21.7240 O   0  0  0  0  0  0  0  0  0  0  0  0
  -28.4020  -25.1090   19.5430 C   0  0  0  0  0  2  0  0  0  0  0  0
  -28.3410  -26.4890   20.1290 O   0  0  0  0  0  0  0  0  0  0  0  0
  -24.5880  -31.8850   23.1460 C   0  0  0  0  0  0  0  0  0  0  0  0
  -27.2060  -27.3250   20.0560 C   0  0  0  0  0  0  0  0  0  0  0  0
  -23.3820  -30.4880   21.5050 C   0  0  0  0  0  3  0  0  0  0  0  0
  -24.8330  -28.9450   20.0650 C   0  0  0  0  0  0  0  0  0  0  0  0
  -25.9200  -30.8140   21.3090 C   0  0  0  0  0  2  0  0  0  0  0  0
  -26.0020  -29.4350   20.6570 C   0  0  0  0  0  0  0  0  0  0  0  0
  -27.1880  -28.6350   20.6450 C   0  0  0  0  0  3  0  0  0  0  0  0
  -26.0040  -26.8950   19.4450 C   0  0  0  0  0  3  0  0  0  0  0  0
  -24.8380  -27.6850   19.4510 C   0  0  0  0  0  3  0  0  0  0  0  0
  -23.5920  -29.8150   20.1220 C   0  0  0  0  0  2  0  0  0  0  0  0
  -24.6490  -31.0800   22.0430 N   0  0  0  0  0  0  0  0  0  0  0  0
  -23.5060  -32.1540   23.6870 O   0  0  0  0  0  0  0  0  0  0  0  0
  -22.7280  -29.4650   22.4670 C   0  0  0  0  0  0  0  0  0  0  0  0
  -21.4000  -29.2860   22.3490 N   0  0  0  0  0  0  0  0  0  0  0  0
  -23.4130  -28.8370   23.2780 O   0  0  0  0  0  0  0  0  0  0  0  0
  -20.9070  -29.8480   21.6700 H   0  0  0  0  0  0  0  0  0  0  0  0
  -18.0290  -28.0830   22.8730 C   0  0  0  0  0  0  0  0  0  0  0  0
  -20.5890  -28.3430   23.1210 C   0  0  0  0  0  3  0  0  0  0  0  0
  -20.6860  -26.9150   22.5360 C   0  0  0  0  0  2  0  0  0  0  0  0
  -19.5760  -26.5980   21.5300 C   0  0  0  0  0  2  0  0  0  0  0  0
  -18.2000  -26.7380   22.1870 C   0  0  0  0  0  2  0  0  0  0  0  0
  -19.1500  -28.8430   23.2970 C   0  0  0  0  0  0  0  0  0  0  0  0
  -18.9360  -30.1010   23.9000 C   0  0  0  0  0  3  0  0  0  0  0  0
  -17.6310  -30.6000   24.0810 C   0  0  0  0  0  3  0  0  0  0  0  0
  -16.5250  -29.8370   23.6710 C   0  0  0  0  0  3  0  0  0  0  0  0
  -16.7240  -28.5800   23.0740 C   0  0  0  0  0  3  0  0  0  0  0  0
  -25.8700  -32.5220   23.7650 C   0  0  0  0  0  3  0  0  0  0  0  0
  -26.4030  -31.7400   25.0280 C   0  0  1  0  0  0  0  0  0  0  0  0
  -25.3200  -31.4840   26.1040 C   0  0  0  0  0  1  0  0  0  0  0  0
  -26.9900  -30.3710   24.6150 C   0  0  0  0  0  1  0  0  0  0  0  0
  -27.5550  -32.5330   25.6880 C   0  0  0  0  0  1  0  0  0  0  0  0
  -25.5500  -33.9130   24.1170 N   0  0  0  0  0  0  0  0  0  0  0  0
  -25.8920  -34.9820   23.3860 C   0  0  0  0  0  0  0  0  0  0  0  0
  -26.5780  -34.9010   22.3620 O   0  0  0  0  0  0  0  0  0  0  0  0
  -24.9420  -34.0500   24.9110 H   0  0  0  0  0  0  0  0  0  0  0  0
  -24.1880  -36.7960   23.0160 C   0  0  0  0  0  1  0  0  0  0  0  0
  -25.3940  -36.3600   23.8630 C   0  0  0  0  0  3  0  0  0  0  0  0
  -27.4980  -37.2120   24.8020 C   0  0  0  0  0  1  0  0  0  0  0  0
  -26.4350  -37.4100   23.8190 N   0  0  0  0  0  0  0  0  0  0  0  0
  -26.0280  -38.3290   23.9710 H   0  0  0  0  0  0  0  0  0  0  0  0
  2 48  1  0
  2  1  2  0
  3  6  1  0
  4  3  2  0
  4  7  1  0
  6  1  1  0
  6  5  2  0
  7  8  2  0
  8  5  1  0
  8 18  1  0
  9  7  1  0
 10 18  1  0
 11 16  1  0
 12 13  1  0
 12 11  1  0
 14 13  1  0
 14 23  1  0
 14 15  1  0
 16 10  1  0
 16 15  1  0
 17 10  2  0
 18 19  1  0
 20 21  2  0
 21 22  1  0
 21 40  1  0
 22 25  1  0
 23 20  1  0
 23 24  1  0
 24 22  2  0
 25 26  1  0
 26 27  2  0
 28 31  1  0
 28 27  1  0
 29 28  2  0
 30 29  1  0
 30 25  2  0
 31 32  1  0
 32 33  1  0
 33 34  2  0
 35 34  1  0
 35 39  1  0
 36 35  2  0
 37 32  2  0
 37 36  1  0
 38 37  1  0
 40 41  1  0
 41 44  1  0
 41 43  1  0
 42 40  2  0
 45 46  1  0
 45 20  1  0
 47 45  1  0
 48 49  2  0
 50 51  1  0
 50 48  1  0
 52 63  2  0
 53 51  1  0
 53 58  1  0
 54 62  1  0
 54 64  1  0
 55 61  1  0
 55 57  1  0
 56 62  1  0
 57 56  1  0
 58 57  2  0
 59 60  1  0
 59 53  2  0
 60 55  2  0
 61 54  1  0
 62 52  1  0
 64 66  2  0
 65 64  1  0
 67 65  1  0
 68 77  2  0
 68 73  1  0
 69 65  1  0
 69 73  1  0
 70 69  1  0
 71 72  1  0
 71 70  1  0
 72 68  1  0
 73 74  2  0
 74 75  1  0
 76 75  2  0
 77 76  1  0
 78 52  1  0
 78 83  1  0
 78 79  1  0
 79 82  1  1
 79 80  1  0
 81 79  1  0
 83 86  1  0
 84 88  1  0
 84 83  1  0
 85 84  2  0
 88 87  1  0
 90 88  1  0
 90 91  1  0
 90 89  1  0
M  ISO  4  10 100  18 100  50 101  51 101
M  END
>  <TORSDO>  (85) 
F 19

>  <SCORE>  (85) 
-13.893

>  <name>  (85) 
84

>  <ligand_id>  (85) 
84

>  <original_smiles>  (85) 
[H]C(C(=O)C([H])([H])Oc1c([H])c([H])c2c(c1[H])C([H])([H])N(C(=O)C([H])(N([H])C(=O)C([H])(N([H])C([H])([H])[H])C([H])([H])[H])C(C([H])([H])[H])(C([H])([H])[H])C([H])([H])[H])C([H])(C(=O)N([H])C1([H])c3c([H])c([H])c([H])c([H])c3C([H])([H])C([H])([H])C1([H])[H])C2([H])[H])=C([H])c1c([H])c([H])c(C([H])([H])[H])c(N([H])C(=O)N2C([H])([H])C([H])([H])C([H])([H])C([H])(n3nc(-c4c([H])c([H])c(Oc5c([H])c([H])c(F)c([H])c5F)c([H])c4[H])c(C(=O)N([H])[H])c3N([H])[H])C2([H])[H])c1[H]

>  <smiles>  (85) 
[H]C(C(=O)C([H])([H])Oc1c([H])c([H])c2c(c1[H])C([H])([H])N(C(=O)C([H])(N([H])C(=O)C([H])(N([H])C([H])([H])[H])C([H])([H])[H])C(C([H])([H])[H])(C([H])([H])[H])C([H])([H])[H])C([H])(C(=O)N([H])C1([H])c3c([H])c([H])c([H])c([H])c3C([H])([H])C([H])([H])C1([H])[H])C2([H])[H])=C([H])c1c([H])c([H])c(C([H])([H])[H])c(N([H])C(=O)N2C([H])([H])C([H])([H])C([H])([H])C([H])(n3nc(-c4c([H])c([H])c(Oc5c([H])c([H])c(F)c([H])c5F)c([H])c4[H])c(C(=O)N([H])[H])c3N([H])[H])C2([H])[H])c1[H]

$$$$
85:0:0
     RDKit          3D

 92100  0  0  1  0  0  0  0  0999 V2000
  -30.4360  -17.9790   19.4620 C   0  0  0  0  0  3  0  0  0  0  0  0
  -30.3760  -18.2410   21.8470 C   0  0  0  0  0  3  0  0  0  0  0  0
  -30.3960  -19.4070   19.3000 C   0  0  0  0  0  0  0  0  0  0  0  0
  -30.3680  -19.6600   21.7020 C   0  0  0  0  0  0  0  0  0  0  0  0
  -30.4360  -17.3550   20.7400 C   0  0  0  0  0  0  0  0  0  0  0  0
  -30.3680  -20.2910   20.4270 C   0  0  0  0  0  0  0  0  0  0  0  0
  -30.4140  -19.9660   17.8890 C   0  0  0  0  0  1  0  0  0  0  0  0
  -30.3730  -20.5250   22.9530 C   0  0  0  0  0  1  0  0  0  0  0  0
  -31.1570  -14.8480   20.6400 C   0  0  0  0  0  0  0  0  0  0  0  0
  -31.0280  -12.5020   19.8090 C   0  0  0  0  0  2  0  0  0  0  0  0
  -30.1720  -12.4970   18.5220 C   0  0  0  0  0  2  0  0  0  0  0  0
  -28.6740  -12.3710   18.8580 C   0  0  0  0  0  2  0  0  0  0  0  0
  -28.2310  -13.3570   19.9710 C   0  0  0  0  0  3  0  0  0  0  0  0
  -29.2070  -13.3190   21.1700 C   0  0  0  0  0  2  0  0  0  0  0  0
  -30.5560  -13.6140   20.6600 N   0  0  0  0  0  0  0  0  0  0  0  0
  -32.3200  -14.9860   20.2480 O   0  0  0  0  0  0  0  0  0  0  0  0
  -30.3580  -15.9100   20.9830 N   0  0  0  0  0  0  0  0  0  0  0  0
  -29.5190  -15.6140   21.4560 H   0  0  0  0  0  0  0  0  0  0  0  0
  -25.8300  -14.0460   20.5670 C   0  0  0  0  0  0  0  0  0  0  0  0
  -24.7160  -13.3140   20.8780 C   0  0  0  0  0  0  0  0  0  0  0  0
  -25.1250  -11.9450   20.8600 C   0  0  0  0  0  0  0  0  0  0  0  0
  -26.8500  -13.1250   20.3820 N   0  0  0  0  0  0  0  0  0  0  0  0
  -26.4280  -11.8570   20.6180 N   0  0  0  0  0  0  0  0  0  0  0  0
  -24.3430  -10.7120   21.0080 C   0  0  0  0  0  0  0  0  0  0  0  0
  -24.6950   -9.7200   21.9490 C   0  0  0  0  0  3  0  0  0  0  0  0
  -23.9150   -8.5530   22.0830 C   0  0  0  0  0  3  0  0  0  0  0  0
  -22.7690   -8.3670   21.2750 C   0  0  0  0  0  0  0  0  0  0  0  0
  -22.4340   -9.3480   20.3240 C   0  0  0  0  0  3  0  0  0  0  0  0
  -23.2150  -10.5080   20.1890 C   0  0  0  0  0  3  0  0  0  0  0  0
  -21.9660   -7.2530   21.3190 O   0  0  0  0  0  0  0  0  0  0  0  0
  -21.8390   -6.5010   22.4590 C   0  0  0  0  0  0  0  0  0  0  0  0
  -21.3620   -7.0550   23.6670 C   0  0  0  0  0  3  0  0  0  0  0  0
  -21.1800   -6.2310   24.7950 C   0  0  0  0  0  3  0  0  0  0  0  0
  -21.4640   -4.8560   24.7180 C   0  0  0  0  0  0  0  0  0  0  0  0
  -21.9340   -4.3010   23.5150 C   0  0  0  0  0  3  0  0  0  0  0  0
  -22.1180   -5.1210   22.3870 C   0  0  0  0  0  0  0  0  0  0  0  0
  -22.5510   -4.5770   21.2230 F   0  0  0  0  0  0  0  0  0  0  0  0
  -21.2800   -4.0630   25.8000 F   0  0  0  0  0  0  0  0  0  0  0  0
  -23.3280  -13.8470   21.0850 C   0  0  0  0  0  0  0  0  0  0  0  0
  -22.5340  -13.1850   21.9180 N   0  0  0  0  0  0  0  0  0  0  0  0
  -22.9550  -14.8870   20.5440 O   0  0  0  0  0  0  0  0  0  0  0  0
  -22.8460  -12.3440   22.3810 H   0  0  0  0  0  0  0  0  0  0  0  0
  -21.6010  -13.5290   22.1020 H   0  0  0  0  0  0  0  0  0  0  0  0
  -26.0580  -15.4110   20.4090 N   0  0  0  0  0  0  0  0  0  0  0  0
  -25.3130  -16.0950   20.4890 H   0  0  0  0  0  0  0  0  0  0  0  0
  -26.9420  -15.8180   20.1310 H   0  0  0  0  0  0  0  0  0  0  0  0
  -30.5070  -21.6970   20.3630 O   0  0  0  0  0  0  0  0  0  0  0  0
  -29.4900  -22.5860   19.7820 C   0  0  0  0  0  2  0  0  0  0  0  0
  -29.6630  -24.1220   20.1590 C   0  0  0  0  0  0  0  0  0  0  0  0
  -30.6530  -24.5030   20.7960 O   0  0  0  0  0  0  0  0  0  0  0  0
  -28.5530  -25.1600   19.7230 C   0  0  0  0  0  2  0  0  0  0  0  0
  -28.7140  -26.5820   20.1400 O   0  0  0  0  0  0  0  0  0  0  0  0
  -24.7140  -31.6670   23.3440 C   0  0  0  0  0  0  0  0  0  0  0  0
  -27.5750  -27.4100   20.0850 C   0  0  0  0  0  0  0  0  0  0  0  0
  -23.6070  -30.3450   21.5770 C   0  0  0  0  0  3  0  0  0  0  0  0
  -25.1550  -28.9440   20.0990 C   0  0  0  0  0  0  0  0  0  0  0  0
  -26.1370  -30.7580   21.4970 C   0  0  0  0  0  2  0  0  0  0  0  0
  -26.2870  -29.4290   20.7660 C   0  0  0  0  0  0  0  0  0  0  0  0
  -27.4980  -28.6720   20.7540 C   0  0  0  0  0  3  0  0  0  0  0  0
  -26.4200  -26.9910   19.3820 C   0  0  0  0  0  3  0  0  0  0  0  0
  -25.2220  -27.7300   19.4000 C   0  0  0  0  0  3  0  0  0  0  0  0
  -23.8870  -29.7690   20.1620 C   0  0  0  0  0  2  0  0  0  0  0  0
  -24.8360  -30.9370   22.1980 N   0  0  0  0  0  0  0  0  0  0  0  0
  -23.6060  -31.8740   23.8630 O   0  0  0  0  0  0  0  0  0  0  0  0
  -22.9490  -29.2460   22.4450 C   0  0  0  0  0  0  0  0  0  0  0  0
  -21.6340  -29.0410   22.2670 N   0  0  0  0  0  0  0  0  0  0  0  0
  -23.6240  -28.5830   23.2380 O   0  0  0  0  0  0  0  0  0  0  0  0
  -21.1480  -29.6300   21.6060 H   0  0  0  0  0  0  0  0  0  0  0  0
  -18.2820  -27.7190   22.5840 C   0  0  0  0  0  0  0  0  0  0  0  0
  -20.8230  -28.0300   22.9490 C   0  0  0  0  0  3  0  0  0  0  0  0
  -20.9850  -26.6440   22.2830 C   0  0  0  0  0  2  0  0  0  0  0  0
  -19.9230  -26.3590   21.2160 C   0  0  0  0  0  2  0  0  0  0  0  0
  -18.5200  -26.4220   21.8260 C   0  0  0  0  0  2  0  0  0  0  0  0
  -19.3650  -28.4800   23.0970 C   0  0  0  0  0  0  0  0  0  0  0  0
  -19.0910  -29.6930   23.7670 C   0  0  0  0  0  3  0  0  0  0  0  0
  -17.7680  -30.1430   23.9280 C   0  0  0  0  0  3  0  0  0  0  0  0
  -16.6990  -29.3770   23.4320 C   0  0  0  0  0  3  0  0  0  0  0  0
  -16.9570  -28.1670   22.7640 C   0  0  0  0  0  3  0  0  0  0  0  0
  -25.9570  -32.2950   24.0470 C   0  0  0  0  0  3  0  0  0  0  0  0
  -26.4230  -31.4870   25.3200 C   0  0  1  0  0  0  0  0  0  0  0  0
  -25.2860  -31.2090   26.3300 C   0  0  0  0  0  1  0  0  0  0  0  0
  -27.0380  -30.1280   24.9140 C   0  0  0  0  0  1  0  0  0  0  0  0
  -27.5330  -32.2710   26.0590 C   0  0  0  0  0  1  0  0  0  0  0  0
  -25.6120  -33.6760   24.4090 N   0  0  0  0  0  0  0  0  0  0  0  0
  -25.9420  -34.7580   23.6930 C   0  0  0  0  0  0  0  0  0  0  0  0
  -26.6420  -34.6990   22.6780 O   0  0  0  0  0  0  0  0  0  0  0  0
  -24.9940  -33.7940   25.2010 H   0  0  0  0  0  0  0  0  0  0  0  0
  -24.1770  -36.5190   23.3580 C   0  0  0  0  0  1  0  0  0  0  0  0
  -25.4150  -36.1230   24.1780 C   0  0  0  0  0  3  0  0  0  0  0  0
  -27.5120  -37.0390   25.0650 C   0  0  0  0  0  1  0  0  0  0  0  0
  -26.4230  -37.2020   24.1070 N   0  0  0  0  0  0  0  0  0  0  0  0
  -25.9910  -38.1080   24.2720 H   0  0  0  0  0  0  0  0  0  0  0  0
  1  5  1  0
  3  1  2  0
  3  6  1  0
  4  2  1  0
  4  8  1  0
  5 17  1  0
  5  2  2  0
  6  4  2  0
  7  3  1  0
  9 15  1  0
  9 17  1  0
 10 15  1  0
 11 12  1  0
 11 10  1  0
 13 12  1  0
 13 22  1  0
 13 14  1  0
 15 14  1  0
 16  9  2  0
 17 18  1  0
 19 20  2  0
 20 39  1  0
 21 20  1  0
 21 24  1  0
 22 19  1  0
 22 23  1  0
 23 21  2  0
 24 25  1  0
 25 26  2  0
 27 30  1  0
 27 26  1  0
 28 27  2  0
 29 28  1  0
 29 24  2  0
 30 31  1  0
 31 32  1  0
 32 33  2  0
 34 33  1  0
 34 38  1  0
 35 34  2  0
 36 31  2  0
 36 35  1  0
 37 36  1  0
 39 40  1  0
 40 43  1  0
 40 42  1  0
 41 39  2  0
 44 45  1  0
 44 19  1  0
 46 44  1  0
 47  6  1  0
 48 49  1  0
 48 47  1  0
 49 50  2  0
 51 52  1  0
 51 49  1  0
 53 64  2  0
 54 52  1  0
 54 59  1  0
 55 63  1  0
 55 65  1  0
 56 62  1  0
 56 58  1  0
 57 63  1  0
 58 57  1  0
 59 58  2  0
 60 61  1  0
 60 54  2  0
 61 56  2  0
 62 55  1  0
 63 53  1  0
 65 67  2  0
 66 65  1  0
 68 66  1  0
 69 78  2  0
 69 74  1  0
 70 66  1  0
 70 74  1  0
 71 70  1  0
 72 73  1  0
 72 71  1  0
 73 69  1  0
 74 75  2  0
 75 76  1  0
 77 76  2  0
 78 77  1  0
 79 53  1  0
 79 84  1  0
 79 80  1  0
 80 83  1  1
 80 81  1  0
 82 80  1  0
 84 87  1  0
 85 89  1  0
 85 84  1  0
 86 85  2  0
 89 88  1  0
 91 89  1  0
 91 92  1  0
 91 90  1  0
M  ISO  4   9 100  17 100  51 101  52 101
M  END
>  <TORSDO>  (86) 
F 20

>  <SCORE>  (86) 
-12.621

>  <name>  (86) 
85

>  <ligand_id>  (86) 
85

>  <original_smiles>  (86) 
[H]c1c([H])c([H])c2c(c1[H])C([H])([H])C([H])([H])C([H])([H])C2([H])N([H])C(=O)C1([H])N(C(=O)C([H])(N([H])C(=O)C([H])(N([H])C([H])([H])[H])C([H])([H])[H])C(C([H])([H])[H])(C([H])([H])[H])C([H])([H])[H])C([H])([H])c2c([H])c(OC([H])([H])C(=O)C([H])([H])Oc3c(C([H])([H])[H])c([H])c(N([H])C(=O)N4C([H])([H])C([H])([H])C([H])([H])C([H])(n5nc(-c6c([H])c([H])c(Oc7c([H])c([H])c(F)c([H])c7F)c([H])c6[H])c(C(=O)N([H])[H])c5N([H])[H])C4([H])[H])c([H])c3C([H])([H])[H])c([H])c([H])c2C1([H])[H]

>  <smiles>  (86) 
[H]c1c([H])c([H])c2c(c1[H])C([H])([H])C([H])([H])C([H])([H])C2([H])N([H])C(=O)C1([H])N(C(=O)C([H])(N([H])C(=O)C([H])(N([H])C([H])([H])[H])C([H])([H])[H])C(C([H])([H])[H])(C([H])([H])[H])C([H])([H])[H])C([H])([H])c2c([H])c(OC([H])([H])C(=O)C([H])([H])Oc3c(C([H])([H])[H])c([H])c(N([H])C(=O)N4C([H])([H])C([H])([H])C([H])([H])C([H])(n5nc(-c6c([H])c([H])c(Oc7c([H])c([H])c(F)c([H])c7F)c([H])c6[H])c(C(=O)N([H])[H])c5N([H])[H])C4([H])[H])c([H])c3C([H])([H])[H])c([H])c([H])c2C1([H])[H]

$$$$
86:0:0
     RDKit          3D

 94102  0  0  1  0  0  0  0  0999 V2000
  -31.2480  -20.4340   20.5280 C   0  0  0  0  0  3  0  0  0  0  0  0
  -30.7980  -21.6660   20.2150 C   0  0  0  0  0  3  0  0  0  0  0  0
  -29.9180  -19.3290   18.7560 C   0  0  0  0  0  3  0  0  0  0  0  0
  -29.1010  -18.2950   18.2980 C   0  0  0  0  0  3  0  0  0  0  0  0
  -30.4770  -18.0280   20.7400 C   0  0  0  0  0  3  0  0  0  0  0  0
  -30.5780  -19.2320   20.0000 C   0  0  0  0  0  0  0  0  0  0  0  0
  -28.9390  -17.1310   19.0630 C   0  0  0  0  0  0  0  0  0  0  0  0
  -29.6670  -16.9590   20.2770 C   0  0  0  0  0  0  0  0  0  0  0  0
  -27.9540  -16.1230   18.5240 C   0  0  0  0  0  1  0  0  0  0  0  0
  -30.4140  -14.7790   21.1360 C   0  0  0  0  0  0  0  0  0  0  0  0
  -30.4290  -12.4540   20.3490 C   0  0  0  0  0  2  0  0  0  0  0  0
  -29.6340  -12.3770   19.0300 C   0  0  0  0  0  2  0  0  0  0  0  0
  -28.1060  -12.2900   19.2790 C   0  0  0  0  0  2  0  0  0  0  0  0
  -27.5690  -13.2070   20.4180 C   0  0  0  0  0  3  0  0  0  0  0  0
  -28.5120  -13.2030   21.6400 C   0  0  0  0  0  2  0  0  0  0  0  0
  -29.8640  -13.5370   21.1630 N   0  0  0  0  0  0  0  0  0  0  0  0
  -31.6150  -14.9840   20.9420 O   0  0  0  0  0  0  0  0  0  0  0  0
  -29.5140  -15.7800   21.0730 N   0  0  0  0  0  0  0  0  0  0  0  0
  -28.5660  -15.4800   21.2300 H   0  0  0  0  0  0  0  0  0  0  0  0
  -25.0970  -13.7240   20.9200 C   0  0  0  0  0  0  0  0  0  0  0  0
  -24.0320  -12.9070   21.1870 C   0  0  0  0  0  0  0  0  0  0  0  0
  -24.5480  -11.5760   21.1860 C   0  0  0  0  0  0  0  0  0  0  0  0
  -26.1920  -12.8830   20.7770 N   0  0  0  0  0  0  0  0  0  0  0  0
  -25.8600  -11.5880   20.9970 N   0  0  0  0  0  0  0  0  0  0  0  0
  -23.8620  -10.2840   21.2970 C   0  0  0  0  0  0  0  0  0  0  0  0
  -24.2660   -9.3150   22.2420 C   0  0  0  0  0  3  0  0  0  0  0  0
  -23.5800   -8.0870   22.3430 C   0  0  0  0  0  3  0  0  0  0  0  0
  -22.4770   -7.8180   21.4980 C   0  0  0  0  0  0  0  0  0  0  0  0
  -22.0950   -8.7760   20.5420 C   0  0  0  0  0  3  0  0  0  0  0  0
  -22.7810   -9.9970   20.4390 C   0  0  0  0  0  3  0  0  0  0  0  0
  -21.7660   -6.6420   21.5090 O   0  0  0  0  0  0  0  0  0  0  0  0
  -21.6820   -5.8630   22.6350 C   0  0  0  0  0  0  0  0  0  0  0  0
  -21.1300   -6.3520   23.8390 C   0  0  0  0  0  3  0  0  0  0  0  0
  -20.9970   -5.4960   24.9510 C   0  0  0  0  0  3  0  0  0  0  0  0
  -21.4070   -4.1520   24.8590 C   0  0  0  0  0  0  0  0  0  0  0  0
  -21.9530   -3.6620   23.6590 C   0  0  0  0  0  3  0  0  0  0  0  0
  -22.0870   -4.5160   22.5490 C   0  0  0  0  0  0  0  0  0  0  0  0
  -22.5940   -4.0340   21.3890 F   0  0  0  0  0  0  0  0  0  0  0  0
  -21.2740   -3.3280   25.9240 F   0  0  0  0  0  0  0  0  0  0  0  0
  -22.5970  -13.3250   21.3390 C   0  0  0  0  0  0  0  0  0  0  0  0
  -21.8230  -12.5860   22.1250 N   0  0  0  0  0  0  0  0  0  0  0  0
  -22.1670  -14.3430   20.7970 O   0  0  0  0  0  0  0  0  0  0  0  0
  -22.1800  -11.7640   22.5900 H   0  0  0  0  0  0  0  0  0  0  0  0
  -20.8560  -12.8430   22.2630 H   0  0  0  0  0  0  0  0  0  0  0  0
  -25.2180  -15.1030   20.7700 N   0  0  0  0  0  0  0  0  0  0  0  0
  -24.4150  -15.7200   20.8400 H   0  0  0  0  0  0  0  0  0  0  0  0
  -26.0670  -15.5910   20.5200 H   0  0  0  0  0  0  0  0  0  0  0  0
  -31.4230  -22.9310   20.6040 C   0  0  0  0  0  0  0  0  0  0  0  0
  -32.4610  -23.0500   21.2590 O   0  0  0  0  0  0  0  0  0  0  0  0
  -30.6970  -23.9370   20.0950 O   0  0  0  0  0  0  0  0  0  0  0  0
  -31.0930  -25.2910   20.2070 C   0  0  0  0  0  2  0  0  0  0  0  0
  -30.4450  -26.0640   19.0440 C   0  0  0  0  0  2  0  0  0  0  0  0
  -28.9050  -26.1000   19.0870 C   0  0  0  0  0  2  0  0  0  0  0  0
  -28.5430  -26.9000   20.2000 O   0  0  0  0  0  0  0  0  0  0  0  0
  -24.6670  -31.8840   23.3650 C   0  0  0  0  0  0  0  0  0  0  0  0
  -27.3340  -27.5500   20.1810 C   0  0  0  0  0  0  0  0  0  0  0  0
  -23.4560  -30.5070   21.6980 C   0  0  0  0  0  3  0  0  0  0  0  0
  -24.9110  -29.0010   20.2380 C   0  0  0  0  0  0  0  0  0  0  0  0
  -25.9720  -30.8890   21.4950 C   0  0  0  0  0  2  0  0  0  0  0  0
  -26.0610  -29.5290   20.8380 C   0  0  0  0  0  0  0  0  0  0  0  0
  -27.2640  -28.8010   20.8240 C   0  0  0  0  0  3  0  0  0  0  0  0
  -26.1720  -27.0190   19.5770 C   0  0  0  0  0  3  0  0  0  0  0  0
  -24.9580  -27.7400   19.6120 C   0  0  0  0  0  3  0  0  0  0  0  0
  -23.6590  -29.8470   20.3070 C   0  0  0  0  0  2  0  0  0  0  0  0
  -24.7170  -31.1080   22.2450 N   0  0  0  0  0  0  0  0  0  0  0  0
  -23.5900  -32.1420   23.9170 O   0  0  0  0  0  0  0  0  0  0  0  0
  -22.8150  -29.4680   22.6460 C   0  0  0  0  0  0  0  0  0  0  0  0
  -21.4970  -29.2640   22.5020 N   0  0  0  0  0  0  0  0  0  0  0  0
  -23.5020  -28.8470   23.4610 O   0  0  0  0  0  0  0  0  0  0  0  0
  -21.0040  -29.8180   21.8150 H   0  0  0  0  0  0  0  0  0  0  0  0
  -18.1440  -27.9930   22.9260 C   0  0  0  0  0  0  0  0  0  0  0  0
  -20.6880  -28.3070   23.2550 C   0  0  0  0  0  3  0  0  0  0  0  0
  -20.8360  -26.8810   22.6760 C   0  0  0  0  0  2  0  0  0  0  0  0
  -19.7630  -26.5350   21.6380 C   0  0  0  0  0  2  0  0  0  0  0  0
  -18.3650  -26.6480   22.2530 C   0  0  0  0  0  2  0  0  0  0  0  0
  -19.2350  -28.7780   23.3810 C   0  0  0  0  0  0  0  0  0  0  0  0
  -18.9770  -30.0350   23.9690 C   0  0  0  0  0  3  0  0  0  0  0  0
  -17.6590  -30.5090   24.1050 C   0  0  0  0  0  3  0  0  0  0  0  0
  -16.5810  -29.7200   23.6680 C   0  0  0  0  0  3  0  0  0  0  0  0
  -16.8230  -28.4640   23.0840 C   0  0  0  0  0  3  0  0  0  0  0  0
  -25.9580  -32.5040   23.9880 C   0  0  0  0  0  3  0  0  0  0  0  0
  -25.6540  -33.8990   24.3340 N   0  0  0  0  0  0  0  0  0  0  0  0
  -25.9920  -34.9580   23.5870 C   0  0  0  0  0  0  0  0  0  0  0  0
  -26.6640  -34.8650   22.5560 O   0  0  0  0  0  0  0  0  0  0  0  0
  -25.0530  -34.0460   25.1320 H   0  0  0  0  0  0  0  0  0  0  0  0
  -24.2720  -36.7610   23.2410 C   0  0  0  0  0  1  0  0  0  0  0  0
  -25.5060  -36.3420   24.0570 C   0  0  0  0  0  3  0  0  0  0  0  0
  -27.6340  -37.2100   24.9200 C   0  0  0  0  0  1  0  0  0  0  0  0
  -26.5430  -37.3920   23.9670 N   0  0  0  0  0  0  0  0  0  0  0  0
  -26.1390  -38.3120   24.1200 H   0  0  0  0  0  0  0  0  0  0  0  0
  -26.4800  -31.7160   25.2510 C   0  0  1  0  0  0  0  0  0  0  0  0
  -25.3950  -31.4720   26.3240 C   0  0  0  0  0  1  0  0  0  0  0  0
  -27.0520  -30.3410   24.8360 C   0  0  0  0  0  1  0  0  0  0  0  0
  -27.6410  -32.4960   25.9140 C   0  0  0  0  0  1  0  0  0  0  0  0
  2  1  2  0
  2 48  1  0
  3  6  1  0
  4  3  2  0
  4  7  1  0
  6  1  1  0
  6  5  2  0
  7  8  2  0
  8  5  1  0
  8 18  1  0
  9  7  1  0
 10 16  1  0
 11 16  1  0
 12 13  1  0
 12 11  1  0
 14 13  1  0
 14 23  1  0
 14 15  1  0
 16 15  1  0
 17 10  2  0
 18 10  1  0
 18 19  1  0
 20 21  2  0
 21 40  1  0
 22 21  1  0
 22 25  1  0
 23 20  1  0
 23 24  1  0
 24 22  2  0
 25 26  1  0
 26 27  2  0
 28 31  1  0
 28 27  1  0
 29 28  2  0
 30 29  1  0
 30 25  2  0
 31 32  1  0
 32 33  1  0
 33 34  2  0
 35 34  1  0
 35 39  1  0
 36 35  2  0
 37 32  2  0
 37 36  1  0
 38 37  1  0
 40 41  1  0
 41 44  1  0
 41 43  1  0
 42 40  2  0
 45 46  1  0
 45 20  1  0
 47 45  1  0
 48 49  2  0
 50 51  1  0
 50 48  1  0
 52 53  1  0
 52 51  1  0
 53 54  1  0
 55 66  2  0
 56 54  1  0
 56 61  1  0
 57 65  1  0
 57 67  1  0
 58 64  1  0
 58 60  1  0
 59 65  1  0
 60 59  1  0
 61 60  2  0
 62 63  1  0
 62 56  2  0
 63 58  2  0
 64 57  1  0
 65 55  1  0
 67 69  2  0
 68 67  1  0
 70 68  1  0
 71 80  2  0
 71 76  1  0
 72 68  1  0
 72 76  1  0
 73 72  1  0
 74 75  1  0
 74 73  1  0
 75 71  1  0
 76 77  2  0
 77 78  1  0
 79 78  2  0
 80 79  1  0
 81 55  1  0
 81 82  1  0
 81 91  1  0
 82 85  1  0
 83 87  1  0
 83 82  1  0
 84 83  2  0
 87 86  1  0
 89 87  1  0
 89 90  1  0
 89 88  1  0
 91 94  1  1
 91 92  1  0
 93 91  1  0
M  ISO  4  10 100  18 100  53 101  54 101
M  END
>  <TORSDO>  (87) 
F 22

>  <SCORE>  (87) 
-11.762

>  <name>  (87) 
86

>  <ligand_id>  (87) 
86

>  <original_smiles>  (87) 
[H]C(C(=O)OC([H])([H])C([H])([H])C([H])([H])Oc1c([H])c([H])c2c(c1[H])C([H])([H])N(C(=O)C([H])(N([H])C(=O)C([H])(N([H])C([H])([H])[H])C([H])([H])[H])C(C([H])([H])[H])(C([H])([H])[H])C([H])([H])[H])C([H])(C(=O)N([H])C1([H])c3c([H])c([H])c([H])c([H])c3C([H])([H])C([H])([H])C1([H])[H])C2([H])[H])=C([H])c1c([H])c([H])c(C([H])([H])[H])c(N([H])C(=O)N2C([H])([H])C([H])([H])C([H])([H])C([H])(n3nc(-c4c([H])c([H])c(Oc5c([H])c([H])c(F)c([H])c5F)c([H])c4[H])c(C(=O)N([H])[H])c3N([H])[H])C2([H])[H])c1[H]

>  <smiles>  (87) 
[H]C(C(=O)OC([H])([H])C([H])([H])C([H])([H])Oc1c([H])c([H])c2c(c1[H])C([H])([H])N(C(=O)C([H])(N([H])C(=O)C([H])(N([H])C([H])([H])[H])C([H])([H])[H])C(C([H])([H])[H])(C([H])([H])[H])C([H])([H])[H])C([H])(C(=O)N([H])C1([H])c3c([H])c([H])c([H])c([H])c3C([H])([H])C([H])([H])C1([H])[H])C2([H])[H])=C([H])c1c([H])c([H])c(C([H])([H])[H])c(N([H])C(=O)N2C([H])([H])C([H])([H])C([H])([H])C([H])(n3nc(-c4c([H])c([H])c(Oc5c([H])c([H])c(F)c([H])c5F)c([H])c4[H])c(C(=O)N([H])[H])c3N([H])[H])C2([H])[H])c1[H]

$$$$
87:0:0
     RDKit          3D

 92100  0  0  1  0  0  0  0  0999 V2000
  -28.8540  -20.7520   20.9920 C   0  0  0  0  0  0  0  0  0  0  0  0
  -28.5790  -20.5910   22.1850 O   0  0  0  0  0  0  0  0  0  0  0  0
  -30.4240  -20.0190   19.1630 C   0  0  0  0  0  3  0  0  0  0  0  0
  -29.5090  -18.2910   20.6210 C   0  0  0  0  0  3  0  0  0  0  0  0
  -31.0790  -17.6830   18.8680 C   0  0  0  0  0  3  0  0  0  0  0  0
  -29.5910  -19.6700   20.2430 C   0  0  0  0  0  0  0  0  0  0  0  0
  -31.1780  -19.0390   18.4930 C   0  0  0  0  0  0  0  0  0  0  0  0
  -30.2470  -17.2730   19.9440 C   0  0  0  0  0  0  0  0  0  0  0  0
  -32.1130  -19.4520   17.3750 C   0  0  0  0  0  1  0  0  0  0  0  0
  -30.8340  -14.7960   19.9470 C   0  0  0  0  0  0  0  0  0  0  0  0
  -30.5180  -12.5800   18.9170 C   0  0  0  0  0  2  0  0  0  0  0  0
  -29.5060  -12.7380   17.7620 C   0  0  0  0  0  2  0  0  0  0  0  0
  -28.0640  -12.5870   18.2790 C   0  0  0  0  0  2  0  0  0  0  0  0
  -27.7890  -13.4390   19.5460 C   0  0  0  0  0  3  0  0  0  0  0  0
  -28.9120  -13.2840   20.5950 C   0  0  0  0  0  2  0  0  0  0  0  0
  -30.1880  -13.5950   19.9330 N   0  0  0  0  0  0  0  0  0  0  0  0
  -31.9780  -14.9110   19.5020 O   0  0  0  0  0  0  0  0  0  0  0  0
  -30.0960  -15.8790   20.3210 N   0  0  0  0  0  0  0  0  0  0  0  0
  -29.2450  -15.6550   20.8140 H   0  0  0  0  0  0  0  0  0  0  0  0
  -25.4540  -14.0210   20.4460 C   0  0  0  0  0  0  0  0  0  0  0  0
  -24.4090  -13.2400   20.8570 C   0  0  0  0  0  0  0  0  0  0  0  0
  -24.8590  -11.8890   20.7530 C   0  0  0  0  0  0  0  0  0  0  0  0
  -26.4750  -13.1470   20.1140 N   0  0  0  0  0  0  0  0  0  0  0  0
  -26.1260  -11.8560   20.3560 N   0  0  0  0  0  0  0  0  0  0  0  0
  -24.1430  -10.6220   20.9530 C   0  0  0  0  0  0  0  0  0  0  0  0
  -24.5910   -9.6550   21.8810 C   0  0  0  0  0  3  0  0  0  0  0  0
  -23.8730   -8.4560   22.0690 C   0  0  0  0  0  3  0  0  0  0  0  0
  -22.6920   -8.2120   21.3290 C   0  0  0  0  0  0  0  0  0  0  0  0
  -22.2620   -9.1660   20.3890 C   0  0  0  0  0  3  0  0  0  0  0  0
  -22.9810  -10.3590   20.2000 C   0  0  0  0  0  3  0  0  0  0  0  0
  -21.9470   -7.0630   21.4240 O   0  0  0  0  0  0  0  0  0  0  0  0
  -21.8750   -6.3450   22.5900 C   0  0  0  0  0  0  0  0  0  0  0  0
  -21.3630   -6.9080   23.7790 C   0  0  0  0  0  3  0  0  0  0  0  0
  -21.2430   -6.1180   24.9400 C   0  0  0  0  0  3  0  0  0  0  0  0
  -21.6250   -4.7630   24.9100 C   0  0  0  0  0  0  0  0  0  0  0  0
  -22.1300   -4.1980   23.7250 C   0  0  0  0  0  3  0  0  0  0  0  0
  -22.2520   -4.9890   22.5680 C   0  0  0  0  0  0  0  0  0  0  0  0
  -22.7210   -4.4350   21.4230 F   0  0  0  0  0  0  0  0  0  0  0  0
  -21.5010   -3.9980   26.0200 F   0  0  0  0  0  0  0  0  0  0  0  0
  -23.0370  -13.7120   21.2400 C   0  0  0  0  0  0  0  0  0  0  0  0
  -22.3680  -12.9870   22.1320 N   0  0  0  0  0  0  0  0  0  0  0  0
  -22.5680  -14.7540   20.7870 O   0  0  0  0  0  0  0  0  0  0  0  0
  -22.7670  -12.1420   22.5130 H   0  0  0  0  0  0  0  0  0  0  0  0
  -21.4490  -13.2790   22.4330 H   0  0  0  0  0  0  0  0  0  0  0  0
  -25.6160  -15.3960   20.3030 N   0  0  0  0  0  0  0  0  0  0  0  0
  -24.8650  -16.0500   20.4900 H   0  0  0  0  0  0  0  0  0  0  0  0
  -26.4390  -15.8390   19.9150 H   0  0  0  0  0  0  0  0  0  0  0  0
  -28.4180  -22.0010   20.2830 C   0  0  0  0  0  3  0  0  0  0  0  0
  -28.2840  -23.1930   20.9260 C   0  0  0  0  0  3  0  0  0  0  0  0
  -27.6660  -24.5040   20.3960 C   0  0  0  0  0  2  0  0  0  0  0  0
  -28.5940  -25.5270   19.6730 C   0  0  0  0  0  2  0  0  0  0  0  0
  -28.4790  -26.9290   20.0280 O   0  0  0  0  0  0  0  0  0  0  0  0
  -24.6090  -31.9670   23.2140 C   0  0  0  0  0  0  0  0  0  0  0  0
  -27.2870  -27.6360   19.9840 C   0  0  0  0  0  0  0  0  0  0  0  0
  -23.4080  -30.6010   21.5350 C   0  0  0  0  0  3  0  0  0  0  0  0
  -24.8710  -29.1280   20.0440 C   0  0  0  0  0  0  0  0  0  0  0  0
  -25.9240  -30.9990   21.3270 C   0  0  0  0  0  2  0  0  0  0  0  0
  -26.0230  -29.6450   20.6460 C   0  0  0  0  0  0  0  0  0  0  0  0
  -27.2300  -28.9030   20.6140 C   0  0  0  0  0  3  0  0  0  0  0  0
  -26.1230  -27.1520   19.3490 C   0  0  0  0  0  3  0  0  0  0  0  0
  -24.9180  -27.8850   19.3850 C   0  0  0  0  0  3  0  0  0  0  0  0
  -23.6130  -29.9670   20.1320 C   0  0  0  0  0  2  0  0  0  0  0  0
  -24.6660  -31.2030   22.0840 N   0  0  0  0  0  0  0  0  0  0  0  0
  -23.5300  -32.2070   23.7720 O   0  0  0  0  0  0  0  0  0  0  0  0
  -22.7770  -29.5440   22.4710 C   0  0  0  0  0  0  0  0  0  0  0  0
  -21.4560  -29.3400   22.3400 N   0  0  0  0  0  0  0  0  0  0  0  0
  -23.4720  -28.9100   23.2690 O   0  0  0  0  0  0  0  0  0  0  0  0
  -20.9530  -29.9080   21.6720 H   0  0  0  0  0  0  0  0  0  0  0  0
  -18.1060  -28.0660   22.8090 C   0  0  0  0  0  0  0  0  0  0  0  0
  -20.6590  -28.3650   23.0830 C   0  0  0  0  0  3  0  0  0  0  0  0
  -20.7860  -26.9530   22.4640 C   0  0  0  0  0  2  0  0  0  0  0  0
  -19.6880  -26.6410   21.4420 C   0  0  0  0  0  2  0  0  0  0  0  0
  -18.3070  -26.7410   22.0930 C   0  0  0  0  0  2  0  0  0  0  0  0
  -19.2100  -28.8360   23.2600 C   0  0  0  0  0  0  0  0  0  0  0  0
  -18.9700  -30.0770   23.8890 C   0  0  0  0  0  3  0  0  0  0  0  0
  -17.6580  -30.5510   24.0680 C   0  0  0  0  0  3  0  0  0  0  0  0
  -16.5670  -29.7780   23.6320 C   0  0  0  0  0  3  0  0  0  0  0  0
  -16.7920  -28.5360   23.0110 C   0  0  0  0  0  3  0  0  0  0  0  0
  -25.8930  -32.5960   23.8440 C   0  0  0  0  0  3  0  0  0  0  0  0
  -26.4000  -31.8200   25.1220 C   0  0  1  0  0  0  0  0  0  0  0  0
  -25.2990  -31.5740   26.1820 C   0  0  0  0  0  1  0  0  0  0  0  0
  -26.9880  -30.4440   24.7260 C   0  0  0  0  0  1  0  0  0  0  0  0
  -27.5490  -32.6100   25.7960 C   0  0  0  0  0  1  0  0  0  0  0  0
  -25.5860  -33.9940   24.1730 N   0  0  0  0  0  0  0  0  0  0  0  0
  -25.9340  -35.0440   23.4170 C   0  0  0  0  0  0  0  0  0  0  0  0
  -26.6130  -34.9370   22.3920 O   0  0  0  0  0  0  0  0  0  0  0  0
  -24.9800  -34.1510   24.9650 H   0  0  0  0  0  0  0  0  0  0  0  0
  -24.2230  -36.8500   23.0330 C   0  0  0  0  0  1  0  0  0  0  0  0
  -25.4470  -36.4350   23.8660 C   0  0  0  0  0  3  0  0  0  0  0  0
  -27.5670  -37.3100   24.7430 C   0  0  0  0  0  1  0  0  0  0  0  0
  -26.4890  -37.4810   23.7740 N   0  0  0  0  0  0  0  0  0  0  0  0
  -26.0840  -38.4040   23.9100 H   0  0  0  0  0  0  0  0  0  0  0  0
  1  2  2  0
  3  6  1  0
  5  8  2  0
  6  4  2  0
  6  1  1  0
  7  5  1  0
  7  3  2  0
  8 18  1  0
  8  4  1  0
  9  7  1  0
 10 18  1  0
 11 16  1  0
 12 13  1  0
 12 11  1  0
 14 13  1  0
 14 23  1  0
 14 15  1  0
 16 10  1  0
 16 15  1  0
 17 10  2  0
 18 19  1  0
 20 21  2  0
 21 40  1  0
 22 21  1  0
 22 25  1  0
 23 24  1  0
 23 20  1  0
 24 22  2  0
 25 26  1  0
 26 27  2  0
 28 31  1  0
 28 27  1  0
 29 28  2  0
 30 29  1  0
 30 25  2  0
 31 32  1  0
 32 33  1  0
 33 34  2  0
 35 34  1  0
 35 39  1  0
 36 35  2  0
 37 32  2  0
 37 36  1  0
 38 37  1  0
 40 41  1  0
 41 44  1  0
 41 43  1  0
 42 40  2  0
 45 20  1  0
 45 46  1  0
 47 45  1  0
 48 49  2  0
 48  1  1  0
 50 49  1  0
 51 52  1  0
 51 50  1  0
 53 64  2  0
 54 52  1  0
 54 59  1  0
 55 63  1  0
 55 65  1  0
 56 62  1  0
 56 58  1  0
 57 63  1  0
 58 57  1  0
 59 58  2  0
 60 61  1  0
 60 54  2  0
 61 56  2  0
 62 55  1  0
 63 53  1  0
 65 67  2  0
 66 65  1  0
 68 66  1  0
 69 78  2  0
 69 74  1  0
 70 66  1  0
 70 74  1  0
 71 70  1  0
 72 73  1  0
 72 71  1  0
 73 69  1  0
 74 75  2  0
 75 76  1  0
 77 76  2  0
 78 77  1  0
 79 53  1  0
 79 84  1  0
 79 80  1  0
 80 83  1  1
 80 81  1  0
 82 80  1  0
 84 87  1  0
 85 89  1  0
 85 84  1  0
 86 85  2  0
 89 88  1  0
 91 89  1  0
 91 92  1  0
 91 90  1  0
M  ISO  4  10 100  18 100  51 101  52 101
M  END
>  <TORSDO>  (88) 
F 20

>  <SCORE>  (88) 
-12.795

>  <name>  (88) 
87

>  <ligand_id>  (88) 
87

>  <original_smiles>  (88) 
[H]C(C(=O)c1c([H])c(N([H])C(=O)N2C([H])([H])C([H])([H])C([H])([H])C([H])(n3nc(-c4c([H])c([H])c(Oc5c([H])c([H])c(F)c([H])c5F)c([H])c4[H])c(C(=O)N([H])[H])c3N([H])[H])C2([H])[H])c([H])c(C([H])([H])[H])c1[H])=C([H])C([H])([H])C([H])([H])Oc1c([H])c([H])c2c(c1[H])C([H])([H])N(C(=O)C([H])(N([H])C(=O)C([H])(N([H])C([H])([H])[H])C([H])([H])[H])C(C([H])([H])[H])(C([H])([H])[H])C([H])([H])[H])C([H])(C(=O)N([H])C1([H])c3c([H])c([H])c([H])c([H])c3C([H])([H])C([H])([H])C1([H])[H])C2([H])[H]

>  <smiles>  (88) 
[H]C(C(=O)c1c([H])c(N([H])C(=O)N2C([H])([H])C([H])([H])C([H])([H])C([H])(n3nc(-c4c([H])c([H])c(Oc5c([H])c([H])c(F)c([H])c5F)c([H])c4[H])c(C(=O)N([H])[H])c3N([H])[H])C2([H])[H])c([H])c(C([H])([H])[H])c1[H])=C([H])C([H])([H])C([H])([H])Oc1c([H])c([H])c2c(c1[H])C([H])([H])N(C(=O)C([H])(N([H])C(=O)C([H])(N([H])C([H])([H])[H])C([H])([H])[H])C(C([H])([H])[H])(C([H])([H])[H])C([H])([H])[H])C([H])(C(=O)N([H])C1([H])c3c([H])c([H])c([H])c([H])c3C([H])([H])C([H])([H])C1([H])[H])C2([H])[H]

$$$$
88:0:0
     RDKit          3D

 91 99  0  0  1  0  0  0  0  0999 V2000
  -28.8200  -19.3830   21.0170 C   0  0  0  0  0  3  0  0  0  0  0  0
  -28.8070  -17.9580   21.0450 C   0  0  0  0  0  3  0  0  0  0  0  0
  -30.9060  -17.8990   19.8820 C   0  0  0  0  0  3  0  0  0  0  0  0
  -29.8960  -20.1150   20.4530 C   0  0  0  0  0  0  0  0  0  0  0  0
  -30.9470  -19.3260   19.8780 C   0  0  0  0  0  0  0  0  0  0  0  0
  -29.8530  -17.1700   20.4890 C   0  0  0  0  0  0  0  0  0  0  0  0
  -30.5550  -14.6880   20.1030 C   0  0  0  0  0  0  0  0  0  0  0  0
  -30.2970  -12.4900   18.9740 C   0  0  0  0  0  2  0  0  0  0  0  0
  -29.2930  -12.6960   17.8170 C   0  0  0  0  0  2  0  0  0  0  0  0
  -27.8380  -12.5360   18.3040 C   0  0  0  0  0  2  0  0  0  0  0  0
  -27.5590  -13.3250   19.6130 C   0  0  0  0  0  3  0  0  0  0  0  0
  -28.6720  -13.0990   20.6600 C   0  0  0  0  0  2  0  0  0  0  0  0
  -29.9510  -13.4620   20.0290 N   0  0  0  0  0  0  0  0  0  0  0  0
  -31.6950  -14.8670   19.6530 O   0  0  0  0  0  0  0  0  0  0  0  0
  -29.7580  -15.7120   20.5440 N   0  0  0  0  0  0  0  0  0  0  0  0
  -28.8820  -15.3700   20.9090 H   0  0  0  0  0  0  0  0  0  0  0  0
  -25.2120  -13.9210   20.4650 C   0  0  0  0  0  0  0  0  0  0  0  0
  -24.1580  -13.1450   20.8670 C   0  0  0  0  0  0  0  0  0  0  0  0
  -24.6060  -11.7910   20.7760 C   0  0  0  0  0  0  0  0  0  0  0  0
  -26.2330  -13.0380   20.1530 N   0  0  0  0  0  0  0  0  0  0  0  0
  -25.8780  -11.7510   20.3970 N   0  0  0  0  0  0  0  0  0  0  0  0
  -23.8790  -10.5290   20.9690 C   0  0  0  0  0  0  0  0  0  0  0  0
  -24.3240   -9.5560   21.8900 C   0  0  0  0  0  3  0  0  0  0  0  0
  -23.5970   -8.3590   22.0730 C   0  0  0  0  0  3  0  0  0  0  0  0
  -22.4120   -8.1270   21.3360 C   0  0  0  0  0  0  0  0  0  0  0  0
  -21.9870   -9.0910   20.4040 C   0  0  0  0  0  3  0  0  0  0  0  0
  -22.7120  -10.2780   20.2190 C   0  0  0  0  0  3  0  0  0  0  0  0
  -21.6580   -6.9810   21.4260 O   0  0  0  0  0  0  0  0  0  0  0  0
  -21.5800   -6.2620   22.5920 C   0  0  0  0  0  0  0  0  0  0  0  0
  -21.0980   -6.8330   23.7900 C   0  0  0  0  0  3  0  0  0  0  0  0
  -20.9720   -6.0390   24.9470 C   0  0  0  0  0  3  0  0  0  0  0  0
  -21.3140   -4.6730   24.9060 C   0  0  0  0  0  0  0  0  0  0  0  0
  -21.7890   -4.1020   23.7110 C   0  0  0  0  0  3  0  0  0  0  0  0
  -21.9190   -4.8950   22.5580 C   0  0  0  0  0  0  0  0  0  0  0  0
  -22.3580   -4.3360   21.4030 F   0  0  0  0  0  0  0  0  0  0  0  0
  -21.1830   -3.9070   26.0140 F   0  0  0  0  0  0  0  0  0  0  0  0
  -22.7810  -13.6280   21.2220 C   0  0  0  0  0  0  0  0  0  0  0  0
  -22.0920  -12.9250   22.1140 N   0  0  0  0  0  0  0  0  0  0  0  0
  -22.3280  -14.6670   20.7440 O   0  0  0  0  0  0  0  0  0  0  0  0
  -22.4690  -12.0860   22.5290 H   0  0  0  0  0  0  0  0  0  0  0  0
  -21.1740  -13.2420   22.3940 H   0  0  0  0  0  0  0  0  0  0  0  0
  -25.3830  -15.2950   20.3250 N   0  0  0  0  0  0  0  0  0  0  0  0
  -24.6240  -15.9510   20.4740 H   0  0  0  0  0  0  0  0  0  0  0  0
  -26.2380  -15.7440   20.0190 H   0  0  0  0  0  0  0  0  0  0  0  0
  -29.9400  -21.6350   20.4480 C   0  0  0  0  0  3  0  0  0  0  0  0
  -28.9830  -22.6020   20.5650 C   0  0  0  0  0  3  0  0  0  0  0  0
  -29.2930  -24.1360   20.5810 C   0  0  0  0  0  3  0  0  0  0  0  0
  -28.2040  -25.1310   20.0190 C   0  0  0  0  0  3  0  0  0  0  0  0
  -28.4040  -26.5710   20.2610 O   0  0  0  0  0  0  0  0  0  0  0  0
  -24.6110  -31.8770   23.2950 C   0  0  0  0  0  0  0  0  0  0  0  0
  -27.2790  -27.4030   20.1930 C   0  0  0  0  0  0  0  0  0  0  0  0
  -23.4280  -30.4990   21.6200 C   0  0  0  0  0  3  0  0  0  0  0  0
  -24.9000  -28.9870   20.1790 C   0  0  0  0  0  0  0  0  0  0  0  0
  -25.9670  -30.8360   21.4730 C   0  0  0  0  0  2  0  0  0  0  0  0
  -26.0570  -29.4740   20.8000 C   0  0  0  0  0  0  0  0  0  0  0  0
  -27.2480  -28.6920   20.8030 C   0  0  0  0  0  3  0  0  0  0  0  0
  -26.1020  -26.9720   19.5340 C   0  0  0  0  0  3  0  0  0  0  0  0
  -24.9250  -27.7420   19.5330 C   0  0  0  0  0  3  0  0  0  0  0  0
  -23.6580  -29.8500   20.2300 C   0  0  0  0  0  2  0  0  0  0  0  0
  -24.6860  -31.0870   22.1850 N   0  0  0  0  0  0  0  0  0  0  0  0
  -23.5230  -32.1440   23.8240 O   0  0  0  0  0  0  0  0  0  0  0  0
  -22.7640  -29.4640   22.5580 C   0  0  0  0  0  0  0  0  0  0  0  0
  -21.4380  -29.2880   22.4200 N   0  0  0  0  0  0  0  0  0  0  0  0
  -23.4370  -28.8230   23.3680 O   0  0  0  0  0  0  0  0  0  0  0  0
  -20.9550  -29.8570   21.7410 H   0  0  0  0  0  0  0  0  0  0  0  0
  -18.0540  -28.1110   22.8930 C   0  0  0  0  0  0  0  0  0  0  0  0
  -20.6140  -28.3410   23.1700 C   0  0  0  0  0  3  0  0  0  0  0  0
  -20.7040  -26.9220   22.5610 C   0  0  0  0  0  2  0  0  0  0  0  0
  -19.6000  -26.6340   21.5380 C   0  0  0  0  0  2  0  0  0  0  0  0
  -18.2190  -26.7770   22.1840 C   0  0  0  0  0  2  0  0  0  0  0  0
  -19.1780  -28.8520   23.3410 C   0  0  0  0  0  0  0  0  0  0  0  0
  -18.9700  -30.1030   23.9620 C   0  0  0  0  0  3  0  0  0  0  0  0
  -17.6690  -30.6100   24.1410 C   0  0  0  0  0  3  0  0  0  0  0  0
  -16.5590  -29.8640   23.7090 C   0  0  0  0  0  3  0  0  0  0  0  0
  -16.7510  -28.6160   23.0900 C   0  0  0  0  0  3  0  0  0  0  0  0
  -25.8880  -32.5010   23.9390 C   0  0  0  0  0  3  0  0  0  0  0  0
  -26.3700  -31.7340   25.2320 C   0  0  1  0  0  0  0  0  0  0  0  0
  -25.2540  -31.5130   26.2780 C   0  0  0  0  0  1  0  0  0  0  0  0
  -26.9480  -30.3480   24.8620 C   0  0  0  0  0  1  0  0  0  0  0  0
  -27.5150  -32.5230   25.9100 C   0  0  0  0  0  1  0  0  0  0  0  0
  -25.5850  -33.9040   24.2530 N   0  0  0  0  0  0  0  0  0  0  0  0
  -25.9140  -34.9460   23.4760 C   0  0  0  0  0  0  0  0  0  0  0  0
  -26.5710  -34.8260   22.4380 O   0  0  0  0  0  0  0  0  0  0  0  0
  -24.9940  -34.0720   25.0550 H   0  0  0  0  0  0  0  0  0  0  0  0
  -24.1670  -36.7250   23.1420 C   0  0  0  0  0  1  0  0  0  0  0  0
  -25.4360  -36.3420   23.9210 C   0  0  0  0  0  3  0  0  0  0  0  0
  -27.5910  -37.2540   24.6650 C   0  0  0  0  0  1  0  0  0  0  0  0
  -26.4600  -37.3960   23.7510 N   0  0  0  0  0  0  0  0  0  0  0  0
  -26.0550  -38.3180   23.8880 H   0  0  0  0  0  0  0  0  0  0  0  0
  -33.4480  -19.7080   20.0680 C   0  0  0  0  0  1  0  0  0  0  0  0
  -32.1800  -19.9700   19.2440 C   0  0  0  0  0  2  0  0  0  0  0  0
  1  2  1  0
  3  6  1  0
  4  1  2  0
  5  3  2  0
  5  4  1  0
  6 15  1  0
  6  2  2  0
  7 15  1  0
  8 13  1  0
  9 10  1  0
  9  8  1  0
 11 10  1  0
 11 20  1  0
 11 12  1  0
 13  7  1  0
 13 12  1  0
 14  7  2  0
 15 16  1  0
 17 18  2  0
 18 37  1  0
 19 18  1  0
 19 22  1  0
 20 21  1  0
 20 17  1  0
 21 19  2  0
 22 23  1  0
 23 24  2  0
 25 28  1  0
 25 24  1  0
 26 25  2  0
 27 26  1  0
 27 22  2  0
 28 29  1  0
 29 30  1  0
 30 31  2  0
 32 31  1  0
 32 36  1  0
 33 32  2  0
 34 29  2  0
 34 33  1  0
 35 34  1  0
 37 38  1  0
 38 41  1  0
 38 40  1  0
 39 37  2  0
 42 17  1  0
 42 43  1  0
 44 42  1  0
 45  4  1  0
 45 46  2  0
 46 47  1  0
 48 49  1  0
 48 47  2  0
 50 61  2  0
 51 49  1  0
 51 56  1  0
 52 60  1  0
 52 62  1  0
 53 59  1  0
 53 55  1  0
 54 60  1  0
 55 56  2  0
 55 54  1  0
 57 51  2  0
 58 57  1  0
 58 53  2  0
 59 52  1  0
 60 50  1  0
 62 64  2  0
 63 62  1  0
 65 63  1  0
 66 75  2  0
 66 71  1  0
 67 63  1  0
 67 71  1  0
 68 67  1  0
 69 70  1  0
 69 68  1  0
 70 66  1  0
 71 72  2  0
 72 73  1  0
 74 73  2  0
 75 74  1  0
 76 50  1  0
 76 81  1  0
 76 77  1  0
 77 80  1  1
 77 78  1  0
 79 77  1  0
 81 84  1  0
 82 86  1  0
 82 81  1  0
 83 82  2  0
 86 85  1  0
 88 89  1  0
 88 86  1  0
 88 87  1  0
 91  5  1  0
 91 90  1  0
M  ISO  4   7 100  15 100  48 101  49 101
M  END
>  <TORSDO>  (89) 
F 20

>  <SCORE>  (89) 
-13.299

>  <name>  (89) 
88

>  <ligand_id>  (89) 
88

>  <original_smiles>  (89) 
[H]C(=C([H])C([H])([H])C([H])([H])Oc1c([H])c([H])c2c(c1[H])C([H])([H])N(C(=O)C([H])(N([H])C(=O)C([H])(N([H])C([H])([H])[H])C([H])([H])[H])C(C([H])([H])[H])(C([H])([H])[H])C([H])([H])[H])C([H])(C(=O)N([H])C1([H])c3c([H])c([H])c([H])c([H])c3C([H])([H])C([H])([H])C1([H])[H])C2([H])[H])c1c([H])c([H])c(N([H])C(=O)N2C([H])([H])C([H])([H])C([H])([H])C([H])(n3nc(-c4c([H])c([H])c(Oc5c([H])c([H])c(F)c([H])c5F)c([H])c4[H])c(C(=O)N([H])[H])c3N([H])[H])C2([H])[H])c([H])c1C([H])([H])C([H])([H])[H]

>  <smiles>  (89) 
[H]C(=C([H])C([H])([H])C([H])([H])Oc1c([H])c([H])c2c(c1[H])C([H])([H])N(C(=O)C([H])(N([H])C(=O)C([H])(N([H])C([H])([H])[H])C([H])([H])[H])C(C([H])([H])[H])(C([H])([H])[H])C([H])([H])[H])C([H])(C(=O)N([H])C1([H])c3c([H])c([H])c([H])c([H])c3C([H])([H])C([H])([H])C1([H])[H])C2([H])[H])c1c([H])c([H])c(N([H])C(=O)N2C([H])([H])C([H])([H])C([H])([H])C([H])(n3nc(-c4c([H])c([H])c(Oc5c([H])c([H])c(F)c([H])c5F)c([H])c4[H])c(C(=O)N([H])[H])c3N([H])[H])C2([H])[H])c([H])c1C([H])([H])C([H])([H])[H]

$$$$
89:0:0
     RDKit          3D

 92100  0  0  1  0  0  0  0  0999 V2000
  -28.9460  -20.5590   21.0420 C   0  0  0  0  0  2  0  0  0  0  0  0
  -31.3620  -19.7450   20.8840 C   0  0  0  0  0  3  0  0  0  0  0  0
  -31.9120  -17.3780   20.6660 C   0  0  0  0  0  3  0  0  0  0  0  0
  -29.5820  -18.0850   20.7490 C   0  0  0  0  0  3  0  0  0  0  0  0
  -32.3230  -18.7200   20.7840 C   0  0  0  0  0  0  0  0  0  0  0  0
  -29.9840  -19.4430   20.8630 C   0  0  0  0  0  0  0  0  0  0  0  0
  -30.5370  -17.0420   20.6350 C   0  0  0  0  0  0  0  0  0  0  0  0
  -33.8000  -19.0560   20.8090 C   0  0  0  0  0  1  0  0  0  0  0  0
  -30.7410  -14.6470   19.9530 C   0  0  0  0  0  0  0  0  0  0  0  0
  -30.3710  -12.4450   18.9030 C   0  0  0  0  0  2  0  0  0  0  0  0
  -29.3520  -12.5940   17.7550 C   0  0  0  0  0  2  0  0  0  0  0  0
  -27.9120  -12.4590   18.2870 C   0  0  0  0  0  2  0  0  0  0  0  0
  -27.6480  -13.3450   19.5340 C   0  0  0  0  0  3  0  0  0  0  0  0
  -28.7760  -13.1850   20.5780 C   0  0  0  0  0  2  0  0  0  0  0  0
  -30.0570  -13.4710   19.9100 N   0  0  0  0  0  0  0  0  0  0  0  0
  -31.8190  -14.8000   19.3720 O   0  0  0  0  0  0  0  0  0  0  0  0
  -30.1010  -15.6800   20.5430 N   0  0  0  0  0  0  0  0  0  0  0  0
  -29.1640  -15.4820   20.8590 H   0  0  0  0  0  0  0  0  0  0  0  0
  -25.3340  -13.9690   20.4720 C   0  0  0  0  0  0  0  0  0  0  0  0
  -24.2810  -13.2020   20.8910 C   0  0  0  0  0  0  0  0  0  0  0  0
  -24.7010  -11.8440   20.7540 C   0  0  0  0  0  0  0  0  0  0  0  0
  -26.3330  -13.0770   20.1110 N   0  0  0  0  0  0  0  0  0  0  0  0
  -25.9600  -11.7910   20.3360 N   0  0  0  0  0  0  0  0  0  0  0  0
  -23.9600  -10.5900   20.9420 C   0  0  0  0  0  0  0  0  0  0  0  0
  -24.4110   -9.5910   21.8330 C   0  0  0  0  0  3  0  0  0  0  0  0
  -23.6710   -8.4020   22.0090 C   0  0  0  0  0  3  0  0  0  0  0  0
  -22.4650   -8.2040   21.2960 C   0  0  0  0  0  0  0  0  0  0  0  0
  -22.0330   -9.1910   20.3940 C   0  0  0  0  0  3  0  0  0  0  0  0
  -22.7720  -10.3710   20.2140 C   0  0  0  0  0  3  0  0  0  0  0  0
  -21.6940   -7.0700   21.3850 O   0  0  0  0  0  0  0  0  0  0  0  0
  -21.6410   -6.3240   22.5350 C   0  0  0  0  0  0  0  0  0  0  0  0
  -21.1980   -6.8720   23.7580 C   0  0  0  0  0  3  0  0  0  0  0  0
  -21.0940   -6.0510   24.9000 C   0  0  0  0  0  3  0  0  0  0  0  0
  -21.4210   -4.6840   24.8180 C   0  0  0  0  0  0  0  0  0  0  0  0
  -21.8560   -4.1370   23.5990 C   0  0  0  0  0  3  0  0  0  0  0  0
  -21.9630   -4.9540   22.4590 C   0  0  0  0  0  0  0  0  0  0  0  0
  -22.3630   -4.4160   21.2820 F   0  0  0  0  0  0  0  0  0  0  0  0
  -21.3130   -3.8940   25.9110 F   0  0  0  0  0  0  0  0  0  0  0  0
  -22.9240  -13.6960   21.3050 C   0  0  0  0  0  0  0  0  0  0  0  0
  -22.2510  -12.9690   22.1890 N   0  0  0  0  0  0  0  0  0  0  0  0
  -22.4740  -14.7590   20.8790 O   0  0  0  0  0  0  0  0  0  0  0  0
  -22.6290  -12.1070   22.5530 H   0  0  0  0  0  0  0  0  0  0  0  0
  -21.3430  -13.2800   22.5070 H   0  0  0  0  0  0  0  0  0  0  0  0
  -25.5210  -15.3420   20.3480 N   0  0  0  0  0  0  0  0  0  0  0  0
  -24.7810  -16.0080   20.5460 H   0  0  0  0  0  0  0  0  0  0  0  0
  -26.3470  -15.7750   19.9540 H   0  0  0  0  0  0  0  0  0  0  0  0
  -29.2240  -21.8930   20.2930 C   0  0  0  0  0  2  0  0  0  0  0  0
  -28.2260  -23.0180   20.6770 C   0  0  0  0  0  2  0  0  0  0  0  0
  -28.5040  -24.4030   20.0570 C   0  0  0  0  0  0  0  0  0  0  0  0
  -29.1420  -24.5230   19.0060 O   0  0  0  0  0  0  0  0  0  0  0  0
  -27.9460  -25.6230   20.8150 C   0  0  0  0  0  2  0  0  0  0  0  0
  -28.1220  -26.8620   20.0990 O   0  0  0  0  0  0  0  0  0  0  0  0
  -24.6030  -32.0960   23.4080 C   0  0  0  0  0  0  0  0  0  0  0  0
  -27.0030  -27.6590   20.1360 C   0  0  0  0  0  0  0  0  0  0  0  0
  -23.3000  -30.7710   21.7760 C   0  0  0  0  0  3  0  0  0  0  0  0
  -24.6570  -29.2290   20.2630 C   0  0  0  0  0  0  0  0  0  0  0  0
  -25.8250  -31.0640   21.4950 C   0  0  0  0  0  2  0  0  0  0  0  0
  -25.8510  -29.7080   20.8190 C   0  0  0  0  0  0  0  0  0  0  0  0
  -27.0300  -28.9320   20.7500 C   0  0  0  0  0  3  0  0  0  0  0  0
  -25.7970  -27.1950   19.5690 C   0  0  0  0  0  3  0  0  0  0  0  0
  -24.6260  -27.9720   19.6330 C   0  0  0  0  0  3  0  0  0  0  0  0
  -23.4400  -30.1200   20.3740 C   0  0  0  0  0  2  0  0  0  0  0  0
  -24.5970  -31.3230   22.2840 N   0  0  0  0  0  0  0  0  0  0  0  0
  -23.5500  -32.3850   23.9920 O   0  0  0  0  0  0  0  0  0  0  0  0
  -22.6520  -29.7450   22.7350 C   0  0  0  0  0  0  0  0  0  0  0  0
  -21.3310  -29.5460   22.5950 N   0  0  0  0  0  0  0  0  0  0  0  0
  -23.3360  -29.1310   23.5580 O   0  0  0  0  0  0  0  0  0  0  0  0
  -20.8420  -30.0930   21.9020 H   0  0  0  0  0  0  0  0  0  0  0  0
  -17.9840  -28.2480   22.9990 C   0  0  0  0  0  0  0  0  0  0  0  0
  -20.5190  -28.6010   23.3610 C   0  0  0  0  0  3  0  0  0  0  0  0
  -20.6920  -27.1600   22.8310 C   0  0  0  0  0  2  0  0  0  0  0  0
  -19.6420  -26.7720   21.7840 C   0  0  0  0  0  2  0  0  0  0  0  0
  -18.2320  -26.8860   22.3710 C   0  0  0  0  0  2  0  0  0  0  0  0
  -19.0580  -29.0590   23.4490 C   0  0  0  0  0  0  0  0  0  0  0  0
  -18.7740  -30.3300   23.9940 C   0  0  0  0  0  3  0  0  0  0  0  0
  -17.4480  -30.7910   24.0930 C   0  0  0  0  0  3  0  0  0  0  0  0
  -16.3870  -29.9760   23.6610 C   0  0  0  0  0  3  0  0  0  0  0  0
  -16.6560  -28.7070   23.1200 C   0  0  0  0  0  3  0  0  0  0  0  0
  -25.9290  -32.6730   23.9960 C   0  0  0  0  0  3  0  0  0  0  0  0
  -25.6900  -34.0850   24.3230 N   0  0  0  0  0  0  0  0  0  0  0  0
  -26.0590  -35.1170   23.5510 C   0  0  0  0  0  0  0  0  0  0  0  0
  -26.7080  -34.9760   22.5100 O   0  0  0  0  0  0  0  0  0  0  0  0
  -25.1170  -34.2720   25.1320 H   0  0  0  0  0  0  0  0  0  0  0  0
  -24.4060  -36.9800   23.2090 C   0  0  0  0  0  1  0  0  0  0  0  0
  -25.6400  -36.5280   24.0040 C   0  0  0  0  0  3  0  0  0  0  0  0
  -27.8250  -37.3240   24.7960 C   0  0  0  0  0  1  0  0  0  0  0  0
  -26.7170  -37.5340   23.8670 N   0  0  0  0  0  0  0  0  0  0  0  0
  -26.3540  -38.4720   24.0120 H   0  0  0  0  0  0  0  0  0  0  0  0
  -26.4410  -31.8860   25.2640 C   0  0  1  0  0  0  0  0  0  0  0  0
  -25.3580  -31.6790   26.3480 C   0  0  0  0  0  1  0  0  0  0  0  0
  -26.9770  -30.4920   24.8590 C   0  0  0  0  0  1  0  0  0  0  0  0
  -27.6250  -32.6440   25.9090 C   0  0  0  0  0  1  0  0  0  0  0  0
  3  5  1  0
  4  6  2  0
  5  8  1  0
  5  2  2  0
  6  2  1  0
  6  1  1  0
  7  3  2  0
  7  4  1  0
  9 17  1  0
 10 15  1  0
 11 12  1  0
 11 10  1  0
 13 12  1  0
 13 22  1  0
 13 14  1  0
 15  9  1  0
 15 14  1  0
 16  9  2  0
 17  7  1  0
 17 18  1  0
 19 20  2  0
 20 39  1  0
 21 20  1  0
 21 24  1  0
 22 23  1  0
 22 19  1  0
 23 21  2  0
 24 25  1  0
 25 26  2  0
 27 30  1  0
 27 26  1  0
 28 27  2  0
 29 28  1  0
 29 24  2  0
 30 31  1  0
 31 32  1  0
 32 33  2  0
 34 33  1  0
 34 38  1  0
 35 34  2  0
 36 31  2  0
 36 35  1  0
 37 36  1  0
 39 40  1  0
 40 43  1  0
 40 42  1  0
 41 39  2  0
 44 19  1  0
 44 45  1  0
 46 44  1  0
 47 48  1  0
 47  1  1  0
 49 48  1  0
 49 51  1  0
 50 49  2  0
 52 54  1  0
 52 51  1  0
 53 64  2  0
 54 59  1  0
 55 63  1  0
 55 65  1  0
 56 62  1  0
 56 58  1  0
 57 63  1  0
 58 57  1  0
 59 58  2  0
 60 61  1  0
 60 54  2  0
 61 56  2  0
 62 55  1  0
 63 53  1  0
 65 67  2  0
 66 65  1  0
 68 66  1  0
 69 78  2  0
 69 74  1  0
 70 66  1  0
 70 74  1  0
 71 70  1  0
 72 73  1  0
 72 71  1  0
 73 69  1  0
 74 75  2  0
 75 76  1  0
 77 76  2  0
 78 77  1  0
 79 53  1  0
 79 80  1  0
 79 89  1  0
 80 83  1  0
 81 85  1  0
 81 80  1  0
 82 81  2  0
 85 84  1  0
 87 85  1  0
 87 88  1  0
 87 86  1  0
 89 92  1  1
 89 90  1  0
 91 89  1  0
M  ISO  4   9 100  17 100  51 101  52 101
M  END
>  <TORSDO>  (90) 
F 21

>  <SCORE>  (90) 
-13.234

>  <name>  (90) 
89

>  <ligand_id>  (90) 
89

>  <original_smiles>  (90) 
[H]c1c([H])c([H])c2c(c1[H])C([H])([H])C([H])([H])C([H])([H])C2([H])N([H])C(=O)C1([H])N(C(=O)C([H])(N([H])C(=O)C([H])(N([H])C([H])([H])[H])C([H])([H])[H])C(C([H])([H])[H])(C([H])([H])[H])C([H])([H])[H])C([H])([H])c2c([H])c(OC([H])([H])C(=O)C([H])([H])C([H])([H])C([H])([H])c3c([H])c(N([H])C(=O)N4C([H])([H])C([H])([H])C([H])([H])C([H])(n5nc(-c6c([H])c([H])c(Oc7c([H])c([H])c(F)c([H])c7F)c([H])c6[H])c(C(=O)N([H])[H])c5N([H])[H])C4([H])[H])c([H])c(C([H])([H])[H])c3[H])c([H])c([H])c2C1([H])[H]

>  <smiles>  (90) 
[H]c1c([H])c([H])c2c(c1[H])C([H])([H])C([H])([H])C([H])([H])C2([H])N([H])C(=O)C1([H])N(C(=O)C([H])(N([H])C(=O)C([H])(N([H])C([H])([H])[H])C([H])([H])[H])C(C([H])([H])[H])(C([H])([H])[H])C([H])([H])[H])C([H])([H])c2c([H])c(OC([H])([H])C(=O)C([H])([H])C([H])([H])C([H])([H])c3c([H])c(N([H])C(=O)N4C([H])([H])C([H])([H])C([H])([H])C([H])(n5nc(-c6c([H])c([H])c(Oc7c([H])c([H])c(F)c([H])c7F)c([H])c6[H])c(C(=O)N([H])[H])c5N([H])[H])C4([H])[H])c([H])c(C([H])([H])[H])c3[H])c([H])c([H])c2C1([H])[H]

$$$$
90:0:0
     RDKit          3D

 93101  0  0  1  0  0  0  0  0999 V2000
  -31.0730  -17.8950   20.6840 C   0  0  0  0  0  3  0  0  0  0  0  0
  -28.7390  -17.9130   20.1170 C   0  0  0  0  0  3  0  0  0  0  0  0
  -29.8900  -20.0900   20.4430 C   0  0  0  0  0  0  0  0  0  0  0  0
  -31.0700  -19.3230   20.6940 C   0  0  0  0  0  0  0  0  0  0  0  0
  -29.8980  -17.1510   20.4250 C   0  0  0  0  0  0  0  0  0  0  0  0
  -28.7290  -19.3460   20.0890 C   0  0  0  0  0  0  0  0  0  0  0  0
  -32.3840  -20.0280   20.9860 C   0  0  0  0  0  1  0  0  0  0  0  0
  -30.6170  -14.6610   20.1690 C   0  0  0  0  0  0  0  0  0  0  0  0
  -30.3650  -12.4520   19.0650 C   0  0  0  0  0  2  0  0  0  0  0  0
  -29.3820  -12.6240   17.8860 C   0  0  0  0  0  2  0  0  0  0  0  0
  -27.9190  -12.4810   18.3540 C   0  0  0  0  0  2  0  0  0  0  0  0
  -27.6140  -13.3180   19.6250 C   0  0  0  0  0  3  0  0  0  0  0  0
  -28.7020  -13.1050   20.7020 C   0  0  0  0  0  2  0  0  0  0  0  0
  -30.0000  -13.4430   20.0940 N   0  0  0  0  0  0  0  0  0  0  0  0
  -31.7770  -14.8240   19.7740 O   0  0  0  0  0  0  0  0  0  0  0  0
  -29.7890  -15.6970   20.5100 N   0  0  0  0  0  0  0  0  0  0  0  0
  -28.8670  -15.3690   20.7530 H   0  0  0  0  0  0  0  0  0  0  0  0
  -25.2520  -13.9500   20.4240 C   0  0  0  0  0  0  0  0  0  0  0  0
  -24.1870  -13.1890   20.8230 C   0  0  0  0  0  0  0  0  0  0  0  0
  -24.6260  -11.8310   20.7630 C   0  0  0  0  0  0  0  0  0  0  0  0
  -26.2750  -13.0540   20.1470 N   0  0  0  0  0  0  0  0  0  0  0  0
  -25.9060  -11.7740   20.4110 N   0  0  0  0  0  0  0  0  0  0  0  0
  -23.8860  -10.5780   20.9610 C   0  0  0  0  0  0  0  0  0  0  0  0
  -24.3290   -9.6010   21.8800 C   0  0  0  0  0  3  0  0  0  0  0  0
  -23.5920   -8.4110   22.0680 C   0  0  0  0  0  3  0  0  0  0  0  0
  -22.4000   -8.1930   21.3380 C   0  0  0  0  0  0  0  0  0  0  0  0
  -21.9750   -9.1600   20.4080 C   0  0  0  0  0  3  0  0  0  0  0  0
  -22.7120  -10.3400   20.2190 C   0  0  0  0  0  3  0  0  0  0  0  0
  -21.6330   -7.0570   21.4350 O   0  0  0  0  0  0  0  0  0  0  0  0
  -21.5910   -6.3130   22.5880 C   0  0  0  0  0  0  0  0  0  0  0  0
  -21.1640   -6.8660   23.8150 C   0  0  0  0  0  3  0  0  0  0  0  0
  -21.0650   -6.0500   24.9590 C   0  0  0  0  0  3  0  0  0  0  0  0
  -21.3860   -4.6830   24.8790 C   0  0  0  0  0  0  0  0  0  0  0  0
  -21.8080   -4.1290   23.6570 C   0  0  0  0  0  3  0  0  0  0  0  0
  -21.9070   -4.9420   22.5140 C   0  0  0  0  0  0  0  0  0  0  0  0
  -22.2920   -4.3980   21.3330 F   0  0  0  0  0  0  0  0  0  0  0  0
  -21.2850   -3.8970   25.9770 F   0  0  0  0  0  0  0  0  0  0  0  0
  -22.8050  -13.6860   21.1390 C   0  0  0  0  0  0  0  0  0  0  0  0
  -22.0890  -12.9980   22.0210 N   0  0  0  0  0  0  0  0  0  0  0  0
  -22.3670  -14.7200   20.6380 O   0  0  0  0  0  0  0  0  0  0  0  0
  -22.4540  -12.1620   22.4520 H   0  0  0  0  0  0  0  0  0  0  0  0
  -21.1630  -13.3150   22.2700 H   0  0  0  0  0  0  0  0  0  0  0  0
  -25.4290  -15.3180   20.2500 N   0  0  0  0  0  0  0  0  0  0  0  0
  -24.6610  -15.9700   20.3780 H   0  0  0  0  0  0  0  0  0  0  0  0
  -26.2270  -15.7310   19.7890 H   0  0  0  0  0  0  0  0  0  0  0  0
  -29.9240  -21.6140   20.5500 C   0  0  0  0  0  3  0  0  0  0  0  0
  -29.1550  -22.5940   19.9760 C   0  0  0  0  0  3  0  0  0  0  0  0
  -29.3250  -24.0810   20.2370 C   0  0  0  0  0  0  0  0  0  0  0  0
  -30.3050  -24.5280   20.8440 O   0  0  0  0  0  0  0  0  0  0  0  0
  -28.2330  -25.0940   19.7370 C   0  0  0  0  0  2  0  0  0  0  0  0
  -28.4320  -26.5190   20.0760 O   0  0  0  0  0  0  0  0  0  0  0  0
  -24.5370  -31.7500   23.1470 C   0  0  0  0  0  0  0  0  0  0  0  0
  -27.2980  -27.3430   20.0180 C   0  0  0  0  0  0  0  0  0  0  0  0
  -23.3980  -30.3840   21.4360 C   0  0  0  0  0  3  0  0  0  0  0  0
  -24.9070  -28.9080   20.0010 C   0  0  0  0  0  0  0  0  0  0  0  0
  -25.9360  -30.7510   21.3290 C   0  0  0  0  0  2  0  0  0  0  0  0
  -26.0530  -29.3980   20.6390 C   0  0  0  0  0  0  0  0  0  0  0  0
  -27.2520  -28.6280   20.6390 C   0  0  0  0  0  3  0  0  0  0  0  0
  -26.1250  -26.9050   19.3560 C   0  0  0  0  0  3  0  0  0  0  0  0
  -24.9440  -27.6650   19.3550 C   0  0  0  0  0  3  0  0  0  0  0  0
  -23.6550  -29.7570   20.0420 C   0  0  0  0  0  2  0  0  0  0  0  0
  -24.6410  -30.9780   22.0280 N   0  0  0  0  0  0  0  0  0  0  0  0
  -23.4350  -31.9970   23.6600 O   0  0  0  0  0  0  0  0  0  0  0  0
  -22.7290  -29.3270   22.3460 C   0  0  0  0  0  0  0  0  0  0  0  0
  -21.4040  -29.1580   22.2010 N   0  0  0  0  0  0  0  0  0  0  0  0
  -23.4010  -28.6630   23.1400 O   0  0  0  0  0  0  0  0  0  0  0  0
  -20.9230  -29.7470   21.5360 H   0  0  0  0  0  0  0  0  0  0  0  0
  -18.0120  -27.9940   22.6660 C   0  0  0  0  0  0  0  0  0  0  0  0
  -20.5760  -28.1920   22.9240 C   0  0  0  0  0  3  0  0  0  0  0  0
  -20.6460  -26.7950   22.2660 C   0  0  0  0  0  2  0  0  0  0  0  0
  -19.5290  -26.5500   21.2470 C   0  0  0  0  0  2  0  0  0  0  0  0
  -18.1570  -26.6830   21.9120 C   0  0  0  0  0  2  0  0  0  0  0  0
  -19.1470  -28.7110   23.1270 C   0  0  0  0  0  0  0  0  0  0  0  0
  -18.9570  -29.9400   23.7930 C   0  0  0  0  0  3  0  0  0  0  0  0
  -17.6630  -30.4550   23.9990 C   0  0  0  0  0  3  0  0  0  0  0  0
  -16.5420  -29.7330   23.5550 C   0  0  0  0  0  3  0  0  0  0  0  0
  -16.7170  -28.5040   22.8970 C   0  0  0  0  0  3  0  0  0  0  0  0
  -25.7930  -32.3820   23.8220 C   0  0  0  0  0  3  0  0  0  0  0  0
  -26.2680  -31.6000   25.1070 C   0  0  1  0  0  0  0  0  0  0  0  0
  -25.1370  -31.3490   26.1330 C   0  0  0  0  0  1  0  0  0  0  0  0
  -26.8690  -30.2290   24.7230 C   0  0  0  0  0  1  0  0  0  0  0  0
  -27.3920  -32.3910   25.8160 C   0  0  0  0  0  1  0  0  0  0  0  0
  -25.4630  -33.7750   24.1570 N   0  0  0  0  0  0  0  0  0  0  0  0
  -25.7920  -34.8370   23.4090 C   0  0  0  0  0  0  0  0  0  0  0  0
  -26.4780  -34.7490   22.3870 O   0  0  0  0  0  0  0  0  0  0  0  0
  -24.8550  -33.9150   24.9500 H   0  0  0  0  0  0  0  0  0  0  0  0
  -24.0430  -36.6090   23.0490 C   0  0  0  0  0  1  0  0  0  0  0  0
  -25.2820  -36.2160   23.8700 C   0  0  0  0  0  3  0  0  0  0  0  0
  -27.3930  -37.1290   24.7290 C   0  0  0  0  0  1  0  0  0  0  0  0
  -26.2990  -37.2850   23.7730 N   0  0  0  0  0  0  0  0  0  0  0  0
  -25.8780  -38.1970   23.9210 H   0  0  0  0  0  0  0  0  0  0  0  0
  -26.8600  -19.5740   18.6370 C   0  0  0  0  0  1  0  0  0  0  0  0
  -27.5860  -20.0430   19.7680 O   0  0  0  0  0  0  0  0  0  0  0  0
  1  4  1  0
  2  5  1  0
  3 46  1  0
  3  4  2  0
  4  7  1  0
  5 16  1  0
  5  1  2  0
  6  2  2  0
  6  3  1  0
  8 16  1  0
  9 14  1  0
 10 11  1  0
 10  9  1  0
 12 11  1  0
 12 21  1  0
 12 13  1  0
 14  8  1  0
 14 13  1  0
 15  8  2  0
 16 17  1  0
 18 19  2  0
 19 38  1  0
 20 19  1  0
 20 23  1  0
 21 22  1  0
 21 18  1  0
 22 20  2  0
 23 24  1  0
 24 25  2  0
 26 29  1  0
 26 25  1  0
 27 26  2  0
 28 27  1  0
 28 23  2  0
 29 30  1  0
 30 31  1  0
 31 32  2  0
 33 32  1  0
 33 37  1  0
 34 33  2  0
 35 30  2  0
 35 34  1  0
 36 35  1  0
 38 39  1  0
 39 42  1  0
 39 41  1  0
 40 38  2  0
 43 44  1  0
 43 18  1  0
 45 43  1  0
 47 48  1  0
 47 46  2  0
 48 49  2  0
 50 51  1  0
 50 48  1  0
 52 63  2  0
 53 51  1  0
 53 58  1  0
 54 62  1  0
 54 64  1  0
 55 61  1  0
 55 57  1  0
 56 62  1  0
 57 58  2  0
 57 56  1  0
 59 53  2  0
 60 59  1  0
 60 55  2  0
 61 54  1  0
 62 52  1  0
 64 66  2  0
 65 64  1  0
 67 65  1  0
 68 77  2  0
 68 73  1  0
 69 65  1  0
 69 73  1  0
 70 69  1  0
 71 72  1  0
 71 70  1  0
 72 68  1  0
 73 74  2  0
 74 75  1  0
 76 75  2  0
 77 76  1  0
 78 52  1  0
 78 83  1  0
 78 79  1  0
 79 82  1  1
 79 80  1  0
 81 79  1  0
 83 86  1  0
 84 88  1  0
 84 83  1  0
 85 84  2  0
 88 87  1  0
 90 88  1  0
 90 91  1  0
 90 89  1  0
 92 93  1  0
 93  6  1  0
M  ISO  4   8 100  16 100  50 101  51 101
M  END
>  <TORSDO>  (91) 
F 20

>  <SCORE>  (91) 
-14.032

>  <name>  (91) 
90

>  <ligand_id>  (91) 
90

>  <original_smiles>  (91) 
[H]C(C(=O)C([H])([H])Oc1c([H])c([H])c2c(c1[H])C([H])([H])N(C(=O)C([H])(N([H])C(=O)C([H])(N([H])C([H])([H])[H])C([H])([H])[H])C(C([H])([H])[H])(C([H])([H])[H])C([H])([H])[H])C([H])(C(=O)N([H])C1([H])c3c([H])c([H])c([H])c([H])c3C([H])([H])C([H])([H])C1([H])[H])C2([H])[H])=C([H])c1c(OC([H])([H])[H])c([H])c(N([H])C(=O)N2C([H])([H])C([H])([H])C([H])([H])C([H])(n3nc(-c4c([H])c([H])c(Oc5c([H])c([H])c(F)c([H])c5F)c([H])c4[H])c(C(=O)N([H])[H])c3N([H])[H])C2([H])[H])c([H])c1C([H])([H])[H]

>  <smiles>  (91) 
[H]C(C(=O)C([H])([H])Oc1c([H])c([H])c2c(c1[H])C([H])([H])N(C(=O)C([H])(N([H])C(=O)C([H])(N([H])C([H])([H])[H])C([H])([H])[H])C(C([H])([H])[H])(C([H])([H])[H])C([H])([H])[H])C([H])(C(=O)N([H])C1([H])c3c([H])c([H])c([H])c([H])c3C([H])([H])C([H])([H])C1([H])[H])C2([H])[H])=C([H])c1c(OC([H])([H])[H])c([H])c(N([H])C(=O)N2C([H])([H])C([H])([H])C([H])([H])C([H])(n3nc(-c4c([H])c([H])c(Oc5c([H])c([H])c(F)c([H])c5F)c([H])c4[H])c(C(=O)N([H])[H])c3N([H])[H])C2([H])[H])c([H])c1C([H])([H])[H]

$$$$
91:0:0
     RDKit          3D

 92100  0  0  1  0  0  0  0  0999 V2000
  -28.4310  -19.8770   20.0540 C   0  0  0  0  0  3  0  0  0  0  0  0
  -30.7870  -18.6860   20.8950 C   0  0  0  0  0  3  0  0  0  0  0  0
  -29.4510  -20.8270   20.3460 C   0  0  0  0  0  0  0  0  0  0  0  0
  -28.5610  -18.4390   20.1630 C   0  0  0  0  0  0  0  0  0  0  0  0
  -29.7530  -17.7360   20.5850 C   0  0  0  0  0  0  0  0  0  0  0  0
  -30.6480  -20.1400   20.7760 C   0  0  0  0  0  0  0  0  0  0  0  0
  -31.7370  -20.8950   21.0580 F   0  0  0  0  0  0  0  0  0  0  0  0
  -30.6180  -15.0840   20.6190 C   0  0  0  0  0  0  0  0  0  0  0  0
  -30.5760  -12.7310   19.6720 C   0  0  0  0  0  2  0  0  0  0  0  0
  -29.6840  -12.6870   18.4090 C   0  0  0  0  0  2  0  0  0  0  0  0
  -28.2010  -12.4710   18.7800 C   0  0  0  0  0  2  0  0  0  0  0  0
  -27.7370  -13.3770   19.9520 C   0  0  0  0  0  3  0  0  0  0  0  0
  -28.7580  -13.3860   21.1120 C   0  0  0  0  0  2  0  0  0  0  0  0
  -30.0560  -13.8100   20.5580 N   0  0  0  0  0  0  0  0  0  0  0  0
  -31.8280  -15.1960   20.3950 O   0  0  0  0  0  0  0  0  0  0  0  0
  -29.7520  -16.2010   20.7220 N   0  0  0  0  0  0  0  0  0  0  0  0
  -28.8110  -15.8490   20.8070 H   0  0  0  0  0  0  0  0  0  0  0  0
  -25.3060  -13.9000   20.5970 C   0  0  0  0  0  0  0  0  0  0  0  0
  -24.2470  -13.1140   20.9360 C   0  0  0  0  0  0  0  0  0  0  0  0
  -24.7400  -11.7760   20.9250 C   0  0  0  0  0  0  0  0  0  0  0  0
  -26.3830  -13.0520   20.4000 N   0  0  0  0  0  0  0  0  0  0  0  0
  -26.0440  -11.7620   20.6630 N   0  0  0  0  0  0  0  0  0  0  0  0
  -24.0220  -10.5080   21.0860 C   0  0  0  0  0  0  0  0  0  0  0  0
  -24.4140   -9.5570   22.0530 C   0  0  0  0  0  3  0  0  0  0  0  0
  -23.6940   -8.3530   22.2030 C   0  0  0  0  0  3  0  0  0  0  0  0
  -22.5670   -8.0940   21.3850 C   0  0  0  0  0  0  0  0  0  0  0  0
  -22.1920   -9.0350   20.4100 C   0  0  0  0  0  3  0  0  0  0  0  0
  -22.9150  -10.2300   20.2580 C   0  0  0  0  0  3  0  0  0  0  0  0
  -21.8220   -6.9420   21.4470 O   0  0  0  0  0  0  0  0  0  0  0  0
  -21.7020   -6.2230   22.6090 C   0  0  0  0  0  0  0  0  0  0  0  0
  -21.1650   -6.7910   23.7840 C   0  0  0  0  0  3  0  0  0  0  0  0
  -20.9950   -5.9970   24.9350 C   0  0  0  0  0  3  0  0  0  0  0  0
  -21.3540   -4.6350   24.9110 C   0  0  0  0  0  0  0  0  0  0  0  0
  -21.8850   -4.0670   23.7410 C   0  0  0  0  0  3  0  0  0  0  0  0
  -22.0560   -4.8580   22.5910 C   0  0  0  0  0  0  0  0  0  0  0  0
  -22.5490   -4.3010   21.4590 F   0  0  0  0  0  0  0  0  0  0  0  0
  -21.1830   -3.8690   26.0150 F   0  0  0  0  0  0  0  0  0  0  0  0
  -22.8330  -13.5770   21.1420 C   0  0  0  0  0  0  0  0  0  0  0  0
  -22.0740  -12.8800   21.9780 N   0  0  0  0  0  0  0  0  0  0  0  0
  -22.4110  -14.5970   20.5990 O   0  0  0  0  0  0  0  0  0  0  0  0
  -22.4270  -12.0600   22.4480 H   0  0  0  0  0  0  0  0  0  0  0  0
  -21.1230  -13.1720   22.1500 H   0  0  0  0  0  0  0  0  0  0  0  0
  -25.4050  -15.2640   20.4050 N   0  0  0  0  0  0  0  0  0  0  0  0
  -24.5660  -15.8330   20.4220 H   0  0  0  0  0  0  0  0  0  0  0  0
  -26.1610  -15.6890   19.8890 H   0  0  0  0  0  0  0  0  0  0  0  0
  -28.7020  -23.5170   20.4160 C   0  0  0  0  0  3  0  0  0  0  0  0
  -29.3290  -22.3560   19.8890 C   0  0  0  0  0  0  0  0  0  0  0  0
  -29.9920  -22.4650   18.5230 C   0  0  0  0  0  1  0  0  0  0  0  0
  -28.5020  -24.9990   19.7280 C   0  0  0  0  0  2  0  0  0  0  0  0
  -28.3490  -26.3550   20.4460 O   0  0  0  0  0  0  0  0  0  0  0  0
  -24.5630  -31.9540   23.2810 C   0  0  0  0  0  0  0  0  0  0  0  0
  -27.2560  -27.2800   20.3020 C   0  0  0  0  0  0  0  0  0  0  0  0
  -23.4030  -30.5400   21.6250 C   0  0  0  0  0  3  0  0  0  0  0  0
  -24.8930  -28.9740   20.2300 C   0  0  0  0  0  0  0  0  0  0  0  0
  -25.9530  -30.8340   21.5040 C   0  0  0  0  0  2  0  0  0  0  0  0
  -26.0520  -29.4430   20.8590 C   0  0  0  0  0  0  0  0  0  0  0  0
  -27.2270  -28.6070   20.8860 C   0  0  0  0  0  3  0  0  0  0  0  0
  -26.0650  -26.9030   19.6380 C   0  0  0  0  0  3  0  0  0  0  0  0
  -24.9100  -27.7150   19.6080 C   0  0  0  0  0  3  0  0  0  0  0  0
  -23.6510  -29.8530   20.2550 C   0  0  0  0  0  2  0  0  0  0  0  0
  -24.6580  -31.1320   22.1920 N   0  0  0  0  0  0  0  0  0  0  0  0
  -23.4660  -32.2330   23.7870 O   0  0  0  0  0  0  0  0  0  0  0  0
  -22.7160  -29.5340   22.5810 C   0  0  0  0  0  0  0  0  0  0  0  0
  -21.3880  -29.3660   22.4410 N   0  0  0  0  0  0  0  0  0  0  0  0
  -23.3790  -28.9060   23.4100 O   0  0  0  0  0  0  0  0  0  0  0  0
  -20.9110  -29.9240   21.7480 H   0  0  0  0  0  0  0  0  0  0  0  0
  -17.9950  -28.1990   22.9300 C   0  0  0  0  0  0  0  0  0  0  0  0
  -20.5570  -28.4290   23.2020 C   0  0  0  0  0  3  0  0  0  0  0  0
  -20.6420  -27.0030   22.6120 C   0  0  0  0  0  2  0  0  0  0  0  0
  -19.5380  -26.7030   21.5930 C   0  0  0  0  0  2  0  0  0  0  0  0
  -18.1570  -26.8560   22.2390 C   0  0  0  0  0  2  0  0  0  0  0  0
  -19.1220  -28.9440   23.3680 C   0  0  0  0  0  0  0  0  0  0  0  0
  -18.9150  -30.2020   23.9750 C   0  0  0  0  0  3  0  0  0  0  0  0
  -17.6160  -30.7130   24.1490 C   0  0  0  0  0  3  0  0  0  0  0  0
  -16.5040  -29.9630   23.7300 C   0  0  0  0  0  3  0  0  0  0  0  0
  -16.6940  -28.7090   23.1250 C   0  0  0  0  0  3  0  0  0  0  0  0
  -25.8250  -32.6000   23.9310 C   0  0  0  0  0  3  0  0  0  0  0  0
  -26.2980  -31.8600   25.2430 C   0  0  1  0  0  0  0  0  0  0  0  0
  -25.1710  -31.6500   26.2820 C   0  0  0  0  0  1  0  0  0  0  0  0
  -26.8860  -30.4710   24.9080 C   0  0  0  0  0  1  0  0  0  0  0  0
  -27.4300  -32.6670   25.9230 C   0  0  0  0  0  1  0  0  0  0  0  0
  -25.5090  -34.0070   24.2190 N   0  0  0  0  0  0  0  0  0  0  0  0
  -25.8720  -35.0460   23.4540 C   0  0  0  0  0  0  0  0  0  0  0  0
  -26.5760  -34.9200   22.4470 O   0  0  0  0  0  0  0  0  0  0  0  0
  -24.8860  -34.1800   24.9940 H   0  0  0  0  0  0  0  0  0  0  0  0
  -24.1750  -36.8490   23.0040 C   0  0  0  0  0  1  0  0  0  0  0  0
  -25.3770  -36.4440   23.8700 C   0  0  0  0  0  3  0  0  0  0  0  0
  -27.4790  -37.3290   24.7810 C   0  0  0  0  0  1  0  0  0  0  0  0
  -26.4210  -37.4880   23.7880 N   0  0  0  0  0  0  0  0  0  0  0  0
  -26.0150  -38.4130   23.9010 H   0  0  0  0  0  0  0  0  0  0  0  0
  -27.2850  -17.3940   18.2470 C   0  0  0  0  0  1  0  0  0  0  0  0
  -27.3400  -17.6500   19.7580 C   0  0  0  0  0  2  0  0  0  0  0  0
  1  4  2  0
  1  3  1  0
  3  6  2  0
  4  5  1  0
  5 16  1  0
  5  2  2  0
  6  2  1  0
  6  7  1  0
  8 16  1  0
  9 14  1  0
 10 11  1  0
 10  9  1  0
 12 11  1  0
 12 21  1  0
 12 13  1  0
 14  8  1  0
 14 13  1  0
 15  8  2  0
 16 17  1  0
 18 19  2  0
 19 38  1  0
 20 19  1  0
 20 23  1  0
 21 18  1  0
 21 22  1  0
 22 20  2  0
 23 24  1  0
 24 25  2  0
 26 29  1  0
 26 25  1  0
 27 26  2  0
 28 27  1  0
 28 23  2  0
 29 30  1  0
 30 31  1  0
 31 32  2  0
 33 32  1  0
 33 37  1  0
 34 33  2  0
 35 30  2  0
 35 34  1  0
 36 35  1  0
 38 39  1  0
 39 42  1  0
 39 41  1  0
 40 38  2  0
 43 44  1  0
 43 18  1  0
 45 43  1  0
 47  3  1  0
 47 46  2  0
 48 47  1  0
 49 46  1  0
 49 50  1  0
 51 62  2  0
 52 50  1  0
 52 57  1  0
 53 61  1  0
 53 63  1  0
 54 60  1  0
 54 56  1  0
 55 61  1  0
 56 57  2  0
 56 55  1  0
 58 52  2  0
 59 58  1  0
 59 54  2  0
 60 53  1  0
 61 51  1  0
 63 65  2  0
 64 63  1  0
 66 64  1  0
 67 76  2  0
 67 72  1  0
 68 64  1  0
 68 72  1  0
 69 68  1  0
 70 71  1  0
 70 69  1  0
 71 67  1  0
 72 73  2  0
 73 74  1  0
 75 74  2  0
 76 75  1  0
 77 51  1  0
 77 82  1  0
 77 78  1  0
 78 81  1  1
 78 79  1  0
 80 78  1  0
 82 85  1  0
 83 87  1  0
 83 82  1  0
 84 83  2  0
 87 86  1  0
 89 87  1  0
 89 90  1  0
 89 88  1  0
 91 92  1  0
 92  4  1  0
M  ISO  4   8 100  16 100  49 101  50 101
M  END
>  <TORSDO>  (92) 
F 19

>  <SCORE>  (92) 
-14.095

>  <name>  (92) 
91

>  <ligand_id>  (92) 
91

>  <original_smiles>  (92) 
[H]C(=C(c1c([H])c(C([H])([H])C([H])([H])[H])c(N([H])C(=O)N2C([H])([H])C([H])([H])C([H])([H])C([H])(n3nc(-c4c([H])c([H])c(Oc5c([H])c([H])c(F)c([H])c5F)c([H])c4[H])c(C(=O)N([H])[H])c3N([H])[H])C2([H])[H])c([H])c1F)C([H])([H])[H])C([H])([H])Oc1c([H])c([H])c2c(c1[H])C([H])([H])N(C(=O)C([H])(N([H])C(=O)C([H])(N([H])C([H])([H])[H])C([H])([H])[H])C(C([H])([H])[H])(C([H])([H])[H])C([H])([H])[H])C([H])(C(=O)N([H])C1([H])c3c([H])c([H])c([H])c([H])c3C([H])([H])C([H])([H])C1([H])[H])C2([H])[H]

>  <smiles>  (92) 
[H]C(=C(c1c([H])c(C([H])([H])C([H])([H])[H])c(N([H])C(=O)N2C([H])([H])C([H])([H])C([H])([H])C([H])(n3nc(-c4c([H])c([H])c(Oc5c([H])c([H])c(F)c([H])c5F)c([H])c4[H])c(C(=O)N([H])[H])c3N([H])[H])C2([H])[H])c([H])c1F)C([H])([H])[H])C([H])([H])Oc1c([H])c([H])c2c(c1[H])C([H])([H])N(C(=O)C([H])(N([H])C(=O)C([H])(N([H])C([H])([H])[H])C([H])([H])[H])C(C([H])([H])[H])(C([H])([H])[H])C([H])([H])[H])C([H])(C(=O)N([H])C1([H])c3c([H])c([H])c([H])c([H])c3C([H])([H])C([H])([H])C1([H])[H])C2([H])[H]

$$$$
92:0:0
     RDKit          3D

 92100  0  0  1  0  0  0  0  0999 V2000
  -29.8480  -18.6730   20.7980 C   0  0  0  0  0  3  0  0  0  0  0  0
  -30.4920  -18.6900   18.1060 C   0  0  0  0  0  3  0  0  0  0  0  0
  -29.8800  -19.9670   20.1170 C   0  0  0  0  0  0  0  0  0  0  0  0
  -30.2650  -19.9200   18.7470 C   0  0  0  0  0  0  0  0  0  0  0  0
  -30.4110  -17.4540   18.7690 C   0  0  0  0  0  0  0  0  0  0  0  0
  -30.1530  -17.3890   20.1660 C   0  0  0  0  0  0  0  0  0  0  0  0
  -30.5020  -21.1590   17.8930 C   0  0  0  0  0  1  0  0  0  0  0  0
  -30.5360  -16.2220   17.8930 C   0  0  0  0  0  1  0  0  0  0  0  0
  -30.8460  -14.9150   20.6610 C   0  0  0  0  0  0  0  0  0  0  0  0
  -30.6940  -12.6240   19.6810 C   0  0  0  0  0  2  0  0  0  0  0  0
  -29.8200  -12.6510   18.4070 C   0  0  0  0  0  2  0  0  0  0  0  0
  -28.3230  -12.5400   18.7540 C   0  0  0  0  0  2  0  0  0  0  0  0
  -27.8940  -13.4330   19.9510 C   0  0  0  0  0  3  0  0  0  0  0  0
  -28.8940  -13.3460   21.1230 C   0  0  0  0  0  2  0  0  0  0  0  0
  -30.2200  -13.6890   20.5960 N   0  0  0  0  0  0  0  0  0  0  0  0
  -32.0480  -15.0020   20.3980 O   0  0  0  0  0  0  0  0  0  0  0  0
  -30.0700  -16.0570   20.8360 N   0  0  0  0  0  0  0  0  0  0  0  0
  -29.1870  -15.8780   21.2900 H   0  0  0  0  0  0  0  0  0  0  0  0
  -25.4670  -14.0200   20.5470 C   0  0  0  0  0  0  0  0  0  0  0  0
  -24.3870  -13.2430   20.8690 C   0  0  0  0  0  0  0  0  0  0  0  0
  -24.8590  -11.8950   20.8800 C   0  0  0  0  0  0  0  0  0  0  0  0
  -26.5270  -13.1440   20.3760 N   0  0  0  0  0  0  0  0  0  0  0  0
  -26.1640  -11.8630   20.6430 N   0  0  0  0  0  0  0  0  0  0  0  0
  -24.1310  -10.6300   21.0460 C   0  0  0  0  0  0  0  0  0  0  0  0
  -24.5050   -9.6840   22.0260 C   0  0  0  0  0  3  0  0  0  0  0  0
  -23.7770   -8.4850   22.1770 C   0  0  0  0  0  3  0  0  0  0  0  0
  -22.6600   -8.2210   21.3490 C   0  0  0  0  0  0  0  0  0  0  0  0
  -22.3060   -9.1560   20.3600 C   0  0  0  0  0  3  0  0  0  0  0  0
  -23.0350  -10.3470   20.2060 C   0  0  0  0  0  3  0  0  0  0  0  0
  -21.9100   -7.0720   21.4080 O   0  0  0  0  0  0  0  0  0  0  0  0
  -21.7710   -6.3630   22.5740 C   0  0  0  0  0  0  0  0  0  0  0  0
  -21.2100   -6.9390   23.7340 C   0  0  0  0  0  3  0  0  0  0  0  0
  -21.0200   -6.1540   24.8890 C   0  0  0  0  0  3  0  0  0  0  0  0
  -21.3810   -4.7930   24.8830 C   0  0  0  0  0  0  0  0  0  0  0  0
  -21.9350   -4.2170   23.7280 C   0  0  0  0  0  3  0  0  0  0  0  0
  -22.1260   -4.9980   22.5750 C   0  0  0  0  0  0  0  0  0  0  0  0
  -22.6400   -4.4320   21.4570 F   0  0  0  0  0  0  0  0  0  0  0  0
  -21.1920   -4.0370   25.9910 F   0  0  0  0  0  0  0  0  0  0  0  0
  -22.9740  -13.7150   21.0590 C   0  0  0  0  0  0  0  0  0  0  0  0
  -22.2110  -13.0380   21.9090 N   0  0  0  0  0  0  0  0  0  0  0  0
  -22.5540  -14.7200   20.4870 O   0  0  0  0  0  0  0  0  0  0  0  0
  -22.5630  -12.2260   22.3950 H   0  0  0  0  0  0  0  0  0  0  0  0
  -21.2610  -13.3360   22.0790 H   0  0  0  0  0  0  0  0  0  0  0  0
  -25.6310  -15.3890   20.3610 N   0  0  0  0  0  0  0  0  0  0  0  0
  -24.8520  -16.0370   20.4180 H   0  0  0  0  0  0  0  0  0  0  0  0
  -26.4890  -15.8320   20.0580 H   0  0  0  0  0  0  0  0  0  0  0  0
  -29.5760  -21.3460   20.7670 C   0  0  0  0  0  3  0  0  0  0  0  0
  -29.0350  -22.4970   20.2050 C   0  0  0  0  0  3  0  0  0  0  0  0
  -28.9200  -23.9100   20.8070 C   0  0  0  0  0  0  0  0  0  0  0  0
  -29.4580  -24.1910   21.8820 O   0  0  0  0  0  0  0  0  0  0  0  0
  -28.0930  -25.0480   20.0520 C   0  0  0  0  0  2  0  0  0  0  0  0
  -28.3150  -26.4970   20.3920 O   0  0  0  0  0  0  0  0  0  0  0  0
  -24.5690  -32.0050   23.2590 C   0  0  0  0  0  0  0  0  0  0  0  0
  -27.2190  -27.3870   20.2840 C   0  0  0  0  0  0  0  0  0  0  0  0
  -23.3860  -30.5800   21.6290 C   0  0  0  0  0  3  0  0  0  0  0  0
  -24.8550  -29.0230   20.2280 C   0  0  0  0  0  0  0  0  0  0  0  0
  -25.9290  -30.8980   21.4660 C   0  0  0  0  0  2  0  0  0  0  0  0
  -26.0190  -29.5110   20.8340 C   0  0  0  0  0  0  0  0  0  0  0  0
  -27.2020  -28.7030   20.8560 C   0  0  0  0  0  3  0  0  0  0  0  0
  -26.0340  -26.9780   19.6250 C   0  0  0  0  0  3  0  0  0  0  0  0
  -24.8680  -27.7640   19.6110 C   0  0  0  0  0  3  0  0  0  0  0  0
  -23.6150  -29.8930   20.2580 C   0  0  0  0  0  2  0  0  0  0  0  0
  -24.6460  -31.1800   22.1740 N   0  0  0  0  0  0  0  0  0  0  0  0
  -23.4800  -32.2830   23.7820 O   0  0  0  0  0  0  0  0  0  0  0  0
  -22.7210  -29.5700   22.5960 C   0  0  0  0  0  0  0  0  0  0  0  0
  -21.3960  -29.3870   22.4660 N   0  0  0  0  0  0  0  0  0  0  0  0
  -23.3970  -28.9550   23.4250 O   0  0  0  0  0  0  0  0  0  0  0  0
  -20.9080  -29.9340   21.7700 H   0  0  0  0  0  0  0  0  0  0  0  0
  -18.0160  -28.2000   22.9830 C   0  0  0  0  0  0  0  0  0  0  0  0
  -20.5770  -28.4550   23.2450 C   0  0  0  0  0  3  0  0  0  0  0  0
  -20.6730  -27.0200   22.6780 C   0  0  0  0  0  2  0  0  0  0  0  0
  -19.5680  -26.6930   21.6680 C   0  0  0  0  0  2  0  0  0  0  0  0
  -18.1890  -26.8460   22.3140 C   0  0  0  0  0  2  0  0  0  0  0  0
  -19.1380  -28.9620   23.4060 C   0  0  0  0  0  0  0  0  0  0  0  0
  -18.9230  -30.2280   23.9920 C   0  0  0  0  0  3  0  0  0  0  0  0
  -17.6200  -30.7320   24.1590 C   0  0  0  0  0  3  0  0  0  0  0  0
  -16.5130  -29.9670   23.7520 C   0  0  0  0  0  3  0  0  0  0  0  0
  -16.7120  -28.7020   23.1700 C   0  0  0  0  0  3  0  0  0  0  0  0
  -25.8430  -32.6530   23.8820 C   0  0  0  0  0  3  0  0  0  0  0  0
  -26.3460  -31.9110   25.1810 C   0  0  1  0  0  0  0  0  0  0  0  0
  -25.2370  -31.6820   26.2340 C   0  0  0  0  0  1  0  0  0  0  0  0
  -26.9500  -30.5330   24.8270 C   0  0  0  0  0  1  0  0  0  0  0  0
  -27.4750  -32.7320   25.8480 C   0  0  0  0  0  1  0  0  0  0  0  0
  -25.5260  -34.0570   24.1790 N   0  0  0  0  0  0  0  0  0  0  0  0
  -25.8720  -35.0970   23.4080 C   0  0  0  0  0  0  0  0  0  0  0  0
  -26.5600  -34.9760   22.3910 O   0  0  0  0  0  0  0  0  0  0  0  0
  -24.9170  -34.2260   24.9660 H   0  0  0  0  0  0  0  0  0  0  0  0
  -24.1650  -36.8940   22.9730 C   0  0  0  0  0  1  0  0  0  0  0  0
  -25.3750  -36.4940   23.8310 C   0  0  0  0  0  3  0  0  0  0  0  0
  -27.4810  -37.3850   24.7280 C   0  0  0  0  0  1  0  0  0  0  0  0
  -26.4160  -37.5410   23.7410 N   0  0  0  0  0  0  0  0  0  0  0  0
  -26.0090  -38.4650   23.8570 H   0  0  0  0  0  0  0  0  0  0  0  0
  2  4  2  0
  2  5  1  0
  3 47  1  0
  3  1  2  0
  4  3  1  0
  5  6  2  0
  6  1  1  0
  6 17  1  0
  7  4  1  0
  8  5  1  0
  9 17  1  0
 10 15  1  0
 11 12  1  0
 11 10  1  0
 13 12  1  0
 13 22  1  0
 13 14  1  0
 15  9  1  0
 15 14  1  0
 16  9  2  0
 17 18  1  0
 19 20  2  0
 20 21  1  0
 20 39  1  0
 21 24  1  0
 22 19  1  0
 22 23  1  0
 23 21  2  0
 24 25  1  0
 25 26  2  0
 27 30  1  0
 27 26  1  0
 28 27  2  0
 29 28  1  0
 29 24  2  0
 30 31  1  0
 31 36  2  0
 31 32  1  0
 32 33  2  0
 34 33  1  0
 34 38  1  0
 35 34  2  0
 36 35  1  0
 37 36  1  0
 39 40  1  0
 40 43  1  0
 40 42  1  0
 41 39  2  0
 44 45  1  0
 44 19  1  0
 46 44  1  0
 48 47  2  0
 48 49  1  0
 49 50  2  0
 51 52  1  0
 51 49  1  0
 53 64  2  0
 54 52  1  0
 54 59  1  0
 55 63  1  0
 55 65  1  0
 56 62  1  0
 56 58  1  0
 57 63  1  0
 58 59  2  0
 58 57  1  0
 60 54  2  0
 61 60  1  0
 61 56  2  0
 62 55  1  0
 63 53  1  0
 65 67  2  0
 66 65  1  0
 68 66  1  0
 69 78  2  0
 69 74  1  0
 70 66  1  0
 70 74  1  0
 71 70  1  0
 72 73  1  0
 72 71  1  0
 73 69  1  0
 74 75  2  0
 75 76  1  0
 77 76  2  0
 78 77  1  0
 79 53  1  0
 79 84  1  0
 79 80  1  0
 80 83  1  1
 80 81  1  0
 82 80  1  0
 84 87  1  0
 85 89  1  0
 85 84  1  0
 86 85  2  0
 89 88  1  0
 91 89  1  0
 91 92  1  0
 91 90  1  0
M  ISO  4   9 100  17 100  51 101  52 101
M  END
>  <TORSDO>  (93) 
F 19

>  <SCORE>  (93) 
-13.582

>  <name>  (93) 
92

>  <ligand_id>  (93) 
92

>  <original_smiles>  (93) 
[H]C(C(=O)C([H])([H])Oc1c([H])c([H])c2c(c1[H])C([H])([H])N(C(=O)C([H])(N([H])C(=O)C([H])(N([H])C([H])([H])[H])C([H])([H])[H])C(C([H])([H])[H])(C([H])([H])[H])C([H])([H])[H])C([H])(C(=O)N([H])C1([H])c3c([H])c([H])c([H])c([H])c3C([H])([H])C([H])([H])C1([H])[H])C2([H])[H])=C([H])c1c([H])c(N([H])C(=O)N2C([H])([H])C([H])([H])C([H])([H])C([H])(n3nc(-c4c([H])c([H])c(Oc5c([H])c([H])c(F)c([H])c5F)c([H])c4[H])c(C(=O)N([H])[H])c3N([H])[H])C2([H])[H])c(C([H])([H])[H])c([H])c1C([H])([H])[H]

>  <smiles>  (93) 
[H]C(C(=O)C([H])([H])Oc1c([H])c([H])c2c(c1[H])C([H])([H])N(C(=O)C([H])(N([H])C(=O)C([H])(N([H])C([H])([H])[H])C([H])([H])[H])C(C([H])([H])[H])(C([H])([H])[H])C([H])([H])[H])C([H])(C(=O)N([H])C1([H])c3c([H])c([H])c([H])c([H])c3C([H])([H])C([H])([H])C1([H])[H])C2([H])[H])=C([H])c1c([H])c(N([H])C(=O)N2C([H])([H])C([H])([H])C([H])([H])C([H])(n3nc(-c4c([H])c([H])c(Oc5c([H])c([H])c(F)c([H])c5F)c([H])c4[H])c(C(=O)N([H])[H])c3N([H])[H])C2([H])[H])c(C([H])([H])[H])c([H])c1C([H])([H])[H]

$$$$
93:0:0
     RDKit          3D

 89 97  0  0  1  0  0  0  0  0999 V2000
  -30.2010  -21.1950   19.7700 C   0  0  0  0  0  2  0  0  0  0  0  0
  -30.2220  -18.4300   19.6910 C   0  0  0  0  0  3  0  0  0  0  0  0
  -30.2960  -19.7350   20.3910 C   0  0  0  0  0  0  0  0  0  0  0  0
  -30.5860  -19.5010   21.7140 C   0  0  0  0  0  0  0  0  0  0  0  0
  -30.4640  -17.2620   20.4440 C   0  0  0  0  0  0  0  0  0  0  0  0
  -30.7610  -20.5190   22.7950 C   0  0  0  0  0  1  0  0  0  0  0  0
  -30.7830  -17.7870   22.0810 S   0  0  0  0  0  0  0  0  0  0  0  0
  -31.0910  -14.7900   20.0510 C   0  0  0  0  0  0  0  0  0  0  0  0
  -30.8220  -12.5030   19.0600 C   0  0  0  0  0  2  0  0  0  0  0  0
  -29.8370  -12.5850   17.8720 C   0  0  0  0  0  2  0  0  0  0  0  0
  -28.3780  -12.4610   18.3570 C   0  0  0  0  0  2  0  0  0  0  0  0
  -28.0730  -13.3780   19.5710 C   0  0  0  0  0  3  0  0  0  0  0  0
  -29.1660  -13.2570   20.6550 C   0  0  0  0  0  2  0  0  0  0  0  0
  -30.4520  -13.5700   20.0150 N   0  0  0  0  0  0  0  0  0  0  0  0
  -32.2770  -14.8830   19.7160 O   0  0  0  0  0  0  0  0  0  0  0  0
  -30.2680  -15.8970   20.1820 N   0  0  0  0  0  0  0  0  0  0  0  0
  -29.3160  -15.6040   20.3340 H   0  0  0  0  0  0  0  0  0  0  0  0
  -25.7450  -14.0760   20.4000 C   0  0  0  0  0  0  0  0  0  0  0  0
  -24.6570  -13.3480   20.7980 C   0  0  0  0  0  0  0  0  0  0  0  0
  -25.0510  -11.9770   20.7250 C   0  0  0  0  0  0  0  0  0  0  0  0
  -26.7350  -13.1500   20.1070 N   0  0  0  0  0  0  0  0  0  0  0  0
  -26.3260  -11.8820   20.3650 N   0  0  0  0  0  0  0  0  0  0  0  0
  -24.2710  -10.7490   20.9190 C   0  0  0  0  0  0  0  0  0  0  0  0
  -24.6640   -9.7620   21.8510 C   0  0  0  0  0  3  0  0  0  0  0  0
  -23.8860   -8.5990   22.0330 C   0  0  0  0  0  3  0  0  0  0  0  0
  -22.7010   -8.4130   21.2840 C   0  0  0  0  0  0  0  0  0  0  0  0
  -22.3260   -9.3860   20.3410 C   0  0  0  0  0  3  0  0  0  0  0  0
  -23.1030  -10.5420   20.1570 C   0  0  0  0  0  3  0  0  0  0  0  0
  -21.8980   -7.3020   21.3750 O   0  0  0  0  0  0  0  0  0  0  0  0
  -21.7900   -6.5850   22.5400 C   0  0  0  0  0  0  0  0  0  0  0  0
  -21.3420   -7.1770   23.7400 C   0  0  0  0  0  3  0  0  0  0  0  0
  -21.1810   -6.3890   24.8970 C   0  0  0  0  0  3  0  0  0  0  0  0
  -21.4570   -5.0090   24.8540 C   0  0  0  0  0  0  0  0  0  0  0  0
  -21.8980   -4.4170   23.6570 C   0  0  0  0  0  3  0  0  0  0  0  0
  -22.0610   -5.2030   22.5030 C   0  0  0  0  0  0  0  0  0  0  0  0
  -22.4660   -4.6230   21.3480 F   0  0  0  0  0  0  0  0  0  0  0  0
  -21.2940   -4.2500   25.9620 F   0  0  0  0  0  0  0  0  0  0  0  0
  -23.2960  -13.8880   21.1300 C   0  0  0  0  0  0  0  0  0  0  0  0
  -22.5750  -13.2240   22.0270 N   0  0  0  0  0  0  0  0  0  0  0  0
  -22.8830  -14.9330   20.6290 O   0  0  0  0  0  0  0  0  0  0  0  0
  -22.9230  -12.3770   22.4530 H   0  0  0  0  0  0  0  0  0  0  0  0
  -21.6640  -13.5680   22.2930 H   0  0  0  0  0  0  0  0  0  0  0  0
  -25.9660  -15.4410   20.2390 N   0  0  0  0  0  0  0  0  0  0  0  0
  -25.2290  -16.1210   20.3860 H   0  0  0  0  0  0  0  0  0  0  0  0
  -26.8030  -15.8510   19.8440 H   0  0  0  0  0  0  0  0  0  0  0  0
  -29.2100  -22.3460   20.2490 C   0  0  0  0  0  3  0  0  0  0  0  0
  -29.3360  -23.7260   20.1100 C   0  0  0  0  0  3  0  0  0  0  0  0
  -28.2330  -24.8350   20.3930 C   0  0  0  0  0  2  0  0  0  0  0  0
  -28.5270  -26.3160   20.4900 O   0  0  0  0  0  0  0  0  0  0  0  0
  -24.6680  -31.8540   23.2580 C   0  0  0  0  0  0  0  0  0  0  0  0
  -27.4250  -27.2110   20.3890 C   0  0  0  0  0  0  0  0  0  0  0  0
  -23.5330  -30.3950   21.6280 C   0  0  0  0  0  3  0  0  0  0  0  0
  -25.0450  -28.8360   20.2780 C   0  0  0  0  0  0  0  0  0  0  0  0
  -26.0780  -30.7360   21.5070 C   0  0  0  0  0  2  0  0  0  0  0  0
  -26.1980  -29.3400   20.8950 C   0  0  0  0  0  0  0  0  0  0  0  0
  -27.3910  -28.5410   20.9390 C   0  0  0  0  0  3  0  0  0  0  0  0
  -26.2410  -26.7880   19.7380 C   0  0  0  0  0  3  0  0  0  0  0  0
  -25.0740  -27.5680   19.6890 C   0  0  0  0  0  3  0  0  0  0  0  0
  -23.7960  -29.6960   20.2710 C   0  0  0  0  0  2  0  0  0  0  0  0
  -24.7780  -31.0150   22.1870 N   0  0  0  0  0  0  0  0  0  0  0  0
  -23.5660  -32.1260   23.7570 O   0  0  0  0  0  0  0  0  0  0  0  0
  -22.8610  -29.3890   22.5960 C   0  0  0  0  0  0  0  0  0  0  0  0
  -21.5460  -29.1650   22.4260 N   0  0  0  0  0  0  0  0  0  0  0  0
  -23.5240  -28.8130   23.4620 O   0  0  0  0  0  0  0  0  0  0  0  0
  -21.0660  -29.6840   21.7040 H   0  0  0  0  0  0  0  0  0  0  0  0
  -18.1970  -27.8500   22.8210 C   0  0  0  0  0  0  0  0  0  0  0  0
  -20.7270  -28.2300   23.1990 C   0  0  0  0  0  3  0  0  0  0  0  0
  -20.9140  -26.7780   22.6990 C   0  0  0  0  0  2  0  0  0  0  0  0
  -19.8770  -26.3640   21.6490 C   0  0  0  0  0  2  0  0  0  0  0  0
  -18.4600  -26.4810   22.2180 C   0  0  0  0  0  2  0  0  0  0  0  0
  -19.2620  -28.6780   23.2670 C   0  0  0  0  0  0  0  0  0  0  0  0
  -18.9630  -29.9540   23.7890 C   0  0  0  0  0  3  0  0  0  0  0  0
  -17.6320  -30.4070   23.8690 C   0  0  0  0  0  3  0  0  0  0  0  0
  -16.5820  -29.5790   23.4380 C   0  0  0  0  0  3  0  0  0  0  0  0
  -16.8640  -28.3030   22.9210 C   0  0  0  0  0  3  0  0  0  0  0  0
  -25.9210  -32.5290   23.8940 C   0  0  0  0  0  3  0  0  0  0  0  0
  -26.4290  -31.7920   25.1940 C   0  0  1  0  0  0  0  0  0  0  0  0
  -25.3170  -31.5350   26.2390 C   0  0  0  0  0  1  0  0  0  0  0  0
  -27.0650  -30.4280   24.8390 C   0  0  0  0  0  1  0  0  0  0  0  0
  -27.5370  -32.6310   25.8730 C   0  0  0  0  0  1  0  0  0  0  0  0
  -25.5710  -33.9250   24.1970 N   0  0  0  0  0  0  0  0  0  0  0  0
  -25.9010  -34.9750   23.4360 C   0  0  0  0  0  0  0  0  0  0  0  0
  -26.6030  -34.8750   22.4260 O   0  0  0  0  0  0  0  0  0  0  0  0
  -24.9510  -34.0760   24.9810 H   0  0  0  0  0  0  0  0  0  0  0  0
  -24.1420  -36.7240   23.0130 C   0  0  0  0  0  1  0  0  0  0  0  0
  -25.3700  -36.3600   23.8620 C   0  0  0  0  0  3  0  0  0  0  0  0
  -27.4610  -37.3030   24.7390 C   0  0  0  0  0  1  0  0  0  0  0  0
  -26.3820  -37.4340   23.7630 N   0  0  0  0  0  0  0  0  0  0  0  0
  -25.9530  -38.3470   23.8840 H   0  0  0  0  0  0  0  0  0  0  0  0
  1 46  1  0
  1  3  1  0
  2  3  1  0
  2  5  2  0
  3  4  2  0
  4  7  1  0
  4  6  1  0
  5  7  1  0
  8 16  1  0
  9 14  1  0
 10 11  1  0
 10  9  1  0
 12 11  1  0
 12 21  1  0
 12 13  1  0
 14  8  1  0
 14 13  1  0
 15  8  2  0
 16 17  1  0
 16  5  1  0
 18 19  2  0
 19 38  1  0
 20 19  1  0
 20 23  1  0
 21 22  1  0
 21 18  1  0
 22 20  2  0
 23 24  1  0
 24 25  2  0
 26 29  1  0
 26 25  1  0
 27 26  2  0
 28 27  1  0
 28 23  2  0
 29 30  1  0
 30 31  1  0
 31 32  2  0
 33 32  1  0
 33 37  1  0
 34 33  2  0
 35 30  2  0
 35 34  1  0
 36 35  1  0
 38 39  1  0
 39 42  1  0
 39 41  1  0
 40 38  2  0
 43 44  1  0
 43 18  1  0
 45 43  1  0
 47 46  2  0
 47 48  1  0
 48 49  1  0
 50 61  2  0
 51 49  1  0
 51 56  1  0
 52 60  1  0
 52 62  1  0
 53 55  1  0
 54 60  1  0
 55 56  2  0
 55 54  1  0
 57 51  2  0
 58 57  1  0
 58 53  2  0
 59 53  1  0
 59 52  1  0
 60 50  1  0
 62 64  2  0
 63 62  1  0
 65 63  1  0
 66 75  2  0
 66 71  1  0
 67 63  1  0
 67 71  1  0
 68 67  1  0
 69 70  1  0
 69 68  1  0
 70 66  1  0
 71 72  2  0
 72 73  1  0
 74 73  2  0
 75 74  1  0
 76 50  1  0
 76 81  1  0
 76 77  1  0
 77 80  1  1
 77 78  1  0
 79 77  1  0
 81 84  1  0
 82 86  1  0
 82 81  1  0
 83 82  2  0
 86 85  1  0
 88 86  1  0
 88 89  1  0
 88 87  1  0
M  ISO  4   8 100  16 100  48 101  49 101
M  END
>  <TORSDO>  (94) 
F 19

>  <SCORE>  (94) 
-13.629

>  <name>  (94) 
93

>  <ligand_id>  (94) 
93

>  <original_smiles>  (94) 
[H]C(=C([H])C([H])([H])c1c(C([H])([H])[H])sc(N([H])C(=O)N2C([H])([H])C([H])([H])C([H])([H])C([H])(n3nc(-c4c([H])c([H])c(Oc5c([H])c([H])c(F)c([H])c5F)c([H])c4[H])c(C(=O)N([H])[H])c3N([H])[H])C2([H])[H])c1[H])C([H])([H])Oc1c([H])c([H])c2c(c1[H])C([H])([H])N(C(=O)C([H])(N([H])C(=O)C([H])(N([H])C([H])([H])[H])C([H])([H])[H])C(C([H])([H])[H])(C([H])([H])[H])C([H])([H])[H])C([H])(C(=O)N([H])C1([H])c3c([H])c([H])c([H])c([H])c3C([H])([H])C([H])([H])C1([H])[H])C2([H])[H]

>  <smiles>  (94) 
[H]C(=C([H])C([H])([H])c1c(C([H])([H])[H])sc(N([H])C(=O)N2C([H])([H])C([H])([H])C([H])([H])C([H])(n3nc(-c4c([H])c([H])c(Oc5c([H])c([H])c(F)c([H])c5F)c([H])c4[H])c(C(=O)N([H])[H])c3N([H])[H])C2([H])[H])c1[H])C([H])([H])Oc1c([H])c([H])c2c(c1[H])C([H])([H])N(C(=O)C([H])(N([H])C(=O)C([H])(N([H])C([H])([H])[H])C([H])([H])[H])C(C([H])([H])[H])(C([H])([H])[H])C([H])([H])[H])C([H])(C(=O)N([H])C1([H])c3c([H])c([H])c([H])c([H])c3C([H])([H])C([H])([H])C1([H])[H])C2([H])[H]

$$$$
94:0:0
     RDKit          3D

 95103  0  0  1  0  0  0  0  0999 V2000
  -28.8700  -20.7330   20.2590 O   0  0  0  0  0  0  0  0  0  0  0  0
  -31.3410  -18.7590   22.3710 C   0  0  0  0  0  3  0  0  0  0  0  0
  -31.1060  -17.4610   21.8850 C   0  0  0  0  0  3  0  0  0  0  0  0
  -29.4200  -18.3800   20.4050 C   0  0  0  0  0  3  0  0  0  0  0  0
  -30.6240  -19.8940   21.9090 C   0  0  0  0  0  0  0  0  0  0  0  0
  -30.1150  -17.2340   20.9140 C   0  0  0  0  0  0  0  0  0  0  0  0
  -29.6670  -19.7280   20.8490 C   0  0  0  0  0  0  0  0  0  0  0  0
  -30.5860  -14.8270   20.2350 C   0  0  0  0  0  0  0  0  0  0  0  0
  -30.3350  -12.6690   19.0420 C   0  0  0  0  0  2  0  0  0  0  0  0
  -29.3370  -12.8660   17.8840 C   0  0  0  0  0  2  0  0  0  0  0  0
  -27.8870  -12.6720   18.3760 C   0  0  0  0  0  2  0  0  0  0  0  0
  -27.5820  -13.4710   19.6730 C   0  0  0  0  0  3  0  0  0  0  0  0
  -28.6890  -13.2450   20.7270 C   0  0  0  0  0  2  0  0  0  0  0  0
  -29.9640  -13.6220   20.1020 N   0  0  0  0  0  0  0  0  0  0  0  0
  -31.7420  -15.0110   19.8460 O   0  0  0  0  0  0  0  0  0  0  0  0
  -29.7700  -15.8740   20.5530 N   0  0  0  0  0  0  0  0  0  0  0  0
  -28.7880  -15.6460   20.5710 H   0  0  0  0  0  0  0  0  0  0  0  0
  -25.2130  -14.0230   20.5050 C   0  0  0  0  0  0  0  0  0  0  0  0
  -24.1720  -13.2230   20.8970 C   0  0  0  0  0  0  0  0  0  0  0  0
  -24.6490  -11.8800   20.8030 C   0  0  0  0  0  0  0  0  0  0  0  0
  -26.2560  -13.1610   20.2020 N   0  0  0  0  0  0  0  0  0  0  0  0
  -25.9270  -11.8670   20.4440 N   0  0  0  0  0  0  0  0  0  0  0  0
  -23.9470  -10.6040   20.9820 C   0  0  0  0  0  0  0  0  0  0  0  0
  -24.3740   -9.6560   21.9380 C   0  0  0  0  0  3  0  0  0  0  0  0
  -23.6750   -8.4420   22.1050 C   0  0  0  0  0  3  0  0  0  0  0  0
  -22.5330   -8.1660   21.3150 C   0  0  0  0  0  0  0  0  0  0  0  0
  -22.1230   -9.1010   20.3500 C   0  0  0  0  0  3  0  0  0  0  0  0
  -22.8230  -10.3090   20.1830 C   0  0  0  0  0  3  0  0  0  0  0  0
  -21.8080   -7.0020   21.3900 O   0  0  0  0  0  0  0  0  0  0  0  0
  -21.6910   -6.3000   22.5630 C   0  0  0  0  0  0  0  0  0  0  0  0
  -21.1220   -6.8740   23.7210 C   0  0  0  0  0  3  0  0  0  0  0  0
  -20.9590   -6.0950   24.8850 C   0  0  0  0  0  3  0  0  0  0  0  0
  -21.3520   -4.7420   24.8870 C   0  0  0  0  0  0  0  0  0  0  0  0
  -21.9130   -4.1690   23.7340 C   0  0  0  0  0  3  0  0  0  0  0  0
  -22.0770   -4.9450   22.5740 C   0  0  0  0  0  0  0  0  0  0  0  0
  -22.6000   -4.3840   21.4560 F   0  0  0  0  0  0  0  0  0  0  0  0
  -21.1870   -3.9910   26.0010 F   0  0  0  0  0  0  0  0  0  0  0  0
  -22.7820  -13.6740   21.2370 C   0  0  0  0  0  0  0  0  0  0  0  0
  -22.0870  -12.9360   22.0950 N   0  0  0  0  0  0  0  0  0  0  0  0
  -22.3160  -14.7120   20.7710 O   0  0  0  0  0  0  0  0  0  0  0  0
  -22.4700  -12.0920   22.4930 H   0  0  0  0  0  0  0  0  0  0  0  0
  -21.1580  -13.2280   22.3620 H   0  0  0  0  0  0  0  0  0  0  0  0
  -25.3470  -15.4010   20.3580 N   0  0  0  0  0  0  0  0  0  0  0  0
  -24.5620  -16.0220   20.5200 H   0  0  0  0  0  0  0  0  0  0  0  0
  -26.1380  -15.8700   19.9350 H   0  0  0  0  0  0  0  0  0  0  0  0
  -30.8150  -21.1530   22.7030 C   0  0  0  0  0  0  0  0  0  0  0  0
  -32.1950  -21.4440   23.2930 C   0  0  0  0  0  1  0  0  0  0  0  0
  -29.9130  -21.9510   22.9500 O   0  0  0  0  0  0  0  0  0  0  0  0
  -29.2550  -22.1290   19.9930 C   0  0  0  0  0  2  0  0  0  0  0  0
  -28.1240  -24.5330   20.1940 C   0  0  0  0  0  3  0  0  0  0  0  0
  -28.1080  -23.1620   20.2450 C   0  0  0  0  0  0  0  0  0  0  0  0
  -25.9250  -22.4280   19.2440 C   0  0  0  0  0  1  0  0  0  0  0  0
  -26.7560  -22.5240   20.5340 C   0  0  0  0  0  2  0  0  0  0  0  0
  -29.2060  -25.5610   19.8300 C   0  0  0  0  0  2  0  0  0  0  0  0
  -28.9840  -26.9100   20.3540 O   0  0  0  0  0  0  0  0  0  0  0  0
  -24.5760  -31.7680   23.2050 C   0  0  0  0  0  0  0  0  0  0  0  0
  -27.7650  -27.5750   20.2250 C   0  0  0  0  0  0  0  0  0  0  0  0
  -23.6070  -30.3520   21.4250 C   0  0  0  0  0  3  0  0  0  0  0  0
  -25.2750  -28.9580   20.0780 C   0  0  0  0  0  0  0  0  0  0  0  0
  -26.1150  -30.8730   21.4480 C   0  0  0  0  0  2  0  0  0  0  0  0
  -26.3460  -29.5290   20.7740 C   0  0  0  0  0  0  0  0  0  0  0  0
  -27.5910  -28.8470   20.8400 C   0  0  0  0  0  3  0  0  0  0  0  0
  -26.6670  -27.0320   19.5160 C   0  0  0  0  0  3  0  0  0  0  0  0
  -25.4300  -27.7100   19.4500 C   0  0  0  0  0  3  0  0  0  0  0  0
  -23.9760  -29.7370   20.0450 C   0  0  0  0  0  2  0  0  0  0  0  0
  -24.7800  -31.0120   22.0860 N   0  0  0  0  0  0  0  0  0  0  0  0
  -23.4390  -31.9470   23.6600 O   0  0  0  0  0  0  0  0  0  0  0  0
  -22.9500  -29.2560   22.2960 C   0  0  0  0  0  0  0  0  0  0  0  0
  -21.6340  -29.0570   22.1200 N   0  0  0  0  0  0  0  0  0  0  0  0
  -23.6220  -28.5930   23.0900 O   0  0  0  0  0  0  0  0  0  0  0  0
  -21.1410  -29.6560   21.4700 H   0  0  0  0  0  0  0  0  0  0  0  0
  -18.2580  -27.8430   22.5440 C   0  0  0  0  0  0  0  0  0  0  0  0
  -20.8220  -28.0450   22.7960 C   0  0  0  0  0  3  0  0  0  0  0  0
  -20.8960  -26.6850   22.0630 C   0  0  0  0  0  2  0  0  0  0  0  0
  -19.7750  -26.4900   21.0360 C   0  0  0  0  0  2  0  0  0  0  0  0
  -18.4080  -26.5750   21.7200 C   0  0  0  0  0  2  0  0  0  0  0  0
  -19.3930  -28.5420   23.0360 C   0  0  0  0  0  0  0  0  0  0  0  0
  -19.1970  -29.7370   23.7630 C   0  0  0  0  0  3  0  0  0  0  0  0
  -17.9020  -30.2320   23.9990 C   0  0  0  0  0  3  0  0  0  0  0  0
  -16.7820  -29.5310   23.5220 C   0  0  0  0  0  3  0  0  0  0  0  0
  -16.9620  -28.3370   22.8000 C   0  0  0  0  0  3  0  0  0  0  0  0
  -25.7570  -32.4610   23.9500 C   0  0  0  0  0  3  0  0  0  0  0  0
  -25.3560  -33.8500   24.2250 N   0  0  0  0  0  0  0  0  0  0  0  0
  -25.6960  -34.9040   23.4710 C   0  0  0  0  0  0  0  0  0  0  0  0
  -26.4450  -34.8160   22.4960 O   0  0  0  0  0  0  0  0  0  0  0  0
  -24.6970  -33.9900   24.9780 H   0  0  0  0  0  0  0  0  0  0  0  0
  -23.8960  -36.5870   22.9660 C   0  0  0  0  0  1  0  0  0  0  0  0
  -25.1090  -36.2750   23.8600 C   0  0  0  0  0  3  0  0  0  0  0  0
  -27.1370  -37.3050   24.7880 C   0  0  0  0  0  1  0  0  0  0  0  0
  -26.0900  -37.3800   23.7720 N   0  0  0  0  0  0  0  0  0  0  0  0
  -25.6270  -38.2820   23.8600 H   0  0  0  0  0  0  0  0  0  0  0  0
  -26.1680  -31.7230   25.2840 C   0  0  1  0  0  0  0  0  0  0  0  0
  -24.9820  -31.4360   26.2320 C   0  0  0  0  0  1  0  0  0  0  0  0
  -26.8480  -30.3730   24.9650 C   0  0  0  0  0  1  0  0  0  0  0  0
  -27.2040  -32.5750   26.0550 C   0  0  0  0  0  1  0  0  0  0  0  0
  1  7  1  0
  3  2  2  0
  4  7  1  0
  4  6  2  0
  5  2  1  0
  5 46  1  0
  6  3  1  0
  7  5  2  0
  8 16  1  0
  9 14  1  0
 10 11  1  0
 10  9  1  0
 12 11  1  0
 12 21  1  0
 12 13  1  0
 14  8  1  0
 14 13  1  0
 15  8  2  0
 16 17  1  0
 16  6  1  0
 18 19  2  0
 19 38  1  0
 20 19  1  0
 20 23  1  0
 21 22  1  0
 21 18  1  0
 22 20  2  0
 23 24  1  0
 24 25  2  0
 26 29  1  0
 26 25  1  0
 27 26  2  0
 28 27  1  0
 28 23  2  0
 29 30  1  0
 30 35  2  0
 30 31  1  0
 31 32  2  0
 32 33  1  0
 33 37  1  0
 34 33  2  0
 35 34  1  0
 36 35  1  0
 38 39  1  0
 39 42  1  0
 39 41  1  0
 40 38  2  0
 43 18  1  0
 43 44  1  0
 45 43  1  0
 46 48  2  0
 46 47  1  0
 49 51  1  0
 49  1  1  0
 50 51  2  0
 51 53  1  0
 52 53  1  0
 54 50  1  0
 54 55  1  0
 56 67  2  0
 57 55  1  0
 57 62  1  0
 58 66  1  0
 58 68  1  0
 59 61  1  0
 60 66  1  0
 61 62  2  0
 61 60  1  0
 63 57  2  0
 64 63  1  0
 64 59  2  0
 65 59  1  0
 65 58  1  0
 66 56  1  0
 68 70  2  0
 69 68  1  0
 71 69  1  0
 72 81  2  0
 72 77  1  0
 73 69  1  0
 73 77  1  0
 74 73  1  0
 75 76  1  0
 75 74  1  0
 76 72  1  0
 77 78  2  0
 78 79  1  0
 80 79  2  0
 81 80  1  0
 82 56  1  0
 82 83  1  0
 82 92  1  0
 83 86  1  0
 84 88  1  0
 84 83  1  0
 85 84  2  0
 88 87  1  0
 90 88  1  0
 90 91  1  0
 90 89  1  0
 92 95  1  1
 92 93  1  0
 94 92  1  0
M  ISO  4   8 100  16 100  54 101  55 101
M  END
>  <TORSDO>  (95) 
F 22

>  <SCORE>  (95) 
-12.826

>  <name>  (95) 
94

>  <ligand_id>  (95) 
94

>  <original_smiles>  (95) 
[H]C(=C(C([H])([H])Oc1c([H])c(N([H])C(=O)N2C([H])([H])C([H])([H])C([H])([H])C([H])(n3nc(-c4c([H])c([H])c(Oc5c([H])c([H])c(F)c([H])c5F)c([H])c4[H])c(C(=O)N([H])[H])c3N([H])[H])C2([H])[H])c([H])c([H])c1C(=O)C([H])([H])[H])C([H])([H])C([H])([H])[H])C([H])([H])Oc1c([H])c([H])c2c(c1[H])C([H])([H])N(C(=O)C([H])(N([H])C(=O)C([H])(N([H])C([H])([H])[H])C([H])([H])[H])C(C([H])([H])[H])(C([H])([H])[H])C([H])([H])[H])C([H])(C(=O)N([H])C1([H])c3c([H])c([H])c([H])c([H])c3C([H])([H])C([H])([H])C1([H])[H])C2([H])[H]

>  <smiles>  (95) 
[H]C(=C(C([H])([H])Oc1c([H])c(N([H])C(=O)N2C([H])([H])C([H])([H])C([H])([H])C([H])(n3nc(-c4c([H])c([H])c(Oc5c([H])c([H])c(F)c([H])c5F)c([H])c4[H])c(C(=O)N([H])[H])c3N([H])[H])C2([H])[H])c([H])c([H])c1C(=O)C([H])([H])[H])C([H])([H])C([H])([H])[H])C([H])([H])Oc1c([H])c([H])c2c(c1[H])C([H])([H])N(C(=O)C([H])(N([H])C(=O)C([H])(N([H])C([H])([H])[H])C([H])([H])[H])C(C([H])([H])[H])(C([H])([H])[H])C([H])([H])[H])C([H])(C(=O)N([H])C1([H])c3c([H])c([H])c([H])c([H])c3C([H])([H])C([H])([H])C1([H])[H])C2([H])[H]

$$$$
95:0:0
     RDKit          3D

 91 99  0  0  1  0  0  0  0  0999 V2000
  -28.9840  -20.9240   20.3700 C   0  0  0  0  0  3  0  0  0  0  0  0
  -30.8210  -17.5990   21.9330 C   0  0  0  0  0  3  0  0  0  0  0  0
  -29.0080  -18.3720   20.0210 C   0  0  0  0  0  3  0  0  0  0  0  0
  -30.3040  -16.5130   21.1320 C   0  0  0  0  0  0  0  0  0  0  0  0
  -29.4110  -16.9960   20.1090 C   0  0  0  0  0  0  0  0  0  0  0  0
  -29.5060  -19.4460   20.8090 C   0  0  0  0  0  0  0  0  0  0  0  0
  -30.4510  -18.9980   21.7900 C   0  0  0  0  0  0  0  0  0  0  0  0
  -31.0720  -19.9090   22.5790 F   0  0  0  0  0  0  0  0  0  0  0  0
  -30.9610  -15.0650   21.1210 C   0  0  0  0  0  0  0  0  0  0  0  0
  -30.8300  -12.7120   20.2250 C   0  0  0  0  0  2  0  0  0  0  0  0
  -30.0130  -12.5920   18.9160 C   0  0  0  0  0  2  0  0  0  0  0  0
  -28.5030  -12.4980   19.1960 C   0  0  0  0  0  2  0  0  0  0  0  0
  -28.0010  -13.4600   20.3060 C   0  0  0  0  0  3  0  0  0  0  0  0
  -28.9570  -13.5110   21.5230 C   0  0  0  0  0  2  0  0  0  0  0  0
  -30.2980  -13.8480   21.0340 N   0  0  0  0  0  0  0  0  0  0  0  0
  -32.1800  -15.0590   20.9470 O   0  0  0  0  0  0  0  0  0  0  0  0
  -25.5600  -14.0200   20.8260 C   0  0  0  0  0  0  0  0  0  0  0  0
  -24.4760  -13.2390   21.0960 C   0  0  0  0  0  0  0  0  0  0  0  0
  -24.9510  -11.8890   21.1120 C   0  0  0  0  0  0  0  0  0  0  0  0
  -26.6290  -13.1530   20.6890 N   0  0  0  0  0  0  0  0  0  0  0  0
  -26.2670  -11.8660   20.9280 N   0  0  0  0  0  0  0  0  0  0  0  0
  -24.2210  -10.6220   21.2440 C   0  0  0  0  0  0  0  0  0  0  0  0
  -24.5690   -9.6620   22.2190 C   0  0  0  0  0  3  0  0  0  0  0  0
  -23.8340   -8.4610   22.3360 C   0  0  0  0  0  3  0  0  0  0  0  0
  -22.7400   -8.2100   21.4750 C   0  0  0  0  0  0  0  0  0  0  0  0
  -22.4050   -9.1620   20.5010 C   0  0  0  0  0  3  0  0  0  0  0  0
  -23.1400  -10.3550   20.3790 C   0  0  0  0  0  3  0  0  0  0  0  0
  -21.9900   -7.0590   21.4960 O   0  0  0  0  0  0  0  0  0  0  0  0
  -21.8240   -6.3300   22.6450 C   0  0  0  0  0  0  0  0  0  0  0  0
  -21.2610   -6.8940   23.8110 C   0  0  0  0  0  3  0  0  0  0  0  0
  -21.0460   -6.0890   24.9460 C   0  0  0  0  0  3  0  0  0  0  0  0
  -21.3840   -4.7220   24.9150 C   0  0  0  0  0  0  0  0  0  0  0  0
  -21.9400   -4.1590   23.7520 C   0  0  0  0  0  3  0  0  0  0  0  0
  -22.1550   -4.9610   22.6170 C   0  0  0  0  0  0  0  0  0  0  0  0
  -22.6680   -4.4080   21.4910 F   0  0  0  0  0  0  0  0  0  0  0  0
  -21.1710   -3.9470   26.0010 F   0  0  0  0  0  0  0  0  0  0  0  0
  -23.0560  -13.7100   21.2430 C   0  0  0  0  0  0  0  0  0  0  0  0
  -22.2550  -13.0290   22.0520 N   0  0  0  0  0  0  0  0  0  0  0  0
  -22.6610  -14.7300   20.6730 O   0  0  0  0  0  0  0  0  0  0  0  0
  -22.5930  -12.2200   22.5510 H   0  0  0  0  0  0  0  0  0  0  0  0
  -21.2950  -13.3200   22.1880 H   0  0  0  0  0  0  0  0  0  0  0  0
  -25.7270  -15.3950   20.6710 N   0  0  0  0  0  0  0  0  0  0  0  0
  -24.9600  -16.0390   20.8030 H   0  0  0  0  0  0  0  0  0  0  0  0
  -26.6130  -15.8690   20.5530 H   0  0  0  0  0  0  0  0  0  0  0  0
  -27.5590  -16.2380   18.4600 C   0  0  0  0  0  1  0  0  0  0  0  0
  -29.0120  -16.1120   18.9310 C   0  0  0  0  0  2  0  0  0  0  0  0
  -29.1970  -22.4150   21.0130 C   0  0  0  0  0  3  0  0  0  0  0  0
  -28.7350  -23.7330   20.1660 C   0  0  0  0  0  0  0  0  0  0  0  0
  -28.9180  -23.7110   18.9470 O   0  0  0  0  0  0  0  0  0  0  0  0
  -28.0760  -25.0820   20.7900 C   0  0  0  0  0  2  0  0  0  0  0  0
  -28.1850  -26.4080   20.0390 O   0  0  0  0  0  0  0  0  0  0  0  0
  -24.6150  -31.9240   23.1850 C   0  0  0  0  0  0  0  0  0  0  0  0
  -27.0960  -27.3210   20.0420 C   0  0  0  0  0  0  0  0  0  0  0  0
  -23.3490  -30.5440   21.5750 C   0  0  0  0  0  3  0  0  0  0  0  0
  -24.7450  -28.9920   20.0820 C   0  0  0  0  0  0  0  0  0  0  0  0
  -25.8830  -30.8490   21.3010 C   0  0  0  0  0  2  0  0  0  0  0  0
  -25.9390  -29.4690   20.6410 C   0  0  0  0  0  0  0  0  0  0  0  0
  -27.1180  -28.6500   20.5980 C   0  0  0  0  0  3  0  0  0  0  0  0
  -25.8830  -26.9210   19.4400 C   0  0  0  0  0  3  0  0  0  0  0  0
  -24.7270  -27.7330   19.4600 C   0  0  0  0  0  3  0  0  0  0  0  0
  -23.5130  -29.8760   20.1820 C   0  0  0  0  0  2  0  0  0  0  0  0
  -24.6370  -31.1270   22.0750 N   0  0  0  0  0  0  0  0  0  0  0  0
  -23.5510  -32.1970   23.7640 O   0  0  0  0  0  0  0  0  0  0  0  0
  -22.7140  -29.5270   22.5530 C   0  0  0  0  0  0  0  0  0  0  0  0
  -21.3860  -29.3300   22.4490 N   0  0  0  0  0  0  0  0  0  0  0  0
  -23.4140  -28.9130   23.3630 O   0  0  0  0  0  0  0  0  0  0  0  0
  -20.8770  -29.8750   21.7680 H   0  0  0  0  0  0  0  0  0  0  0  0
  -18.0460  -28.0350   22.9760 C   0  0  0  0  0  0  0  0  0  0  0  0
  -20.5960  -28.3800   23.2370 C   0  0  0  0  0  3  0  0  0  0  0  0
  -20.7410  -26.9420   22.6840 C   0  0  0  0  0  2  0  0  0  0  0  0
  -19.6490  -26.5710   21.6760 C   0  0  0  0  0  2  0  0  0  0  0  0
  -18.2640  -26.6820   22.3200 C   0  0  0  0  0  2  0  0  0  0  0  0
  -19.1400  -28.8380   23.3940 C   0  0  0  0  0  0  0  0  0  0  0  0
  -18.8840  -30.1020   23.9680 C   0  0  0  0  0  3  0  0  0  0  0  0
  -17.5640  -30.5650   24.1290 C   0  0  0  0  0  3  0  0  0  0  0  0
  -16.4850  -29.7600   23.7300 C   0  0  0  0  0  3  0  0  0  0  0  0
  -16.7260  -28.4980   23.1590 C   0  0  0  0  0  3  0  0  0  0  0  0
  -25.9200  -32.5470   23.7680 C   0  0  0  0  0  3  0  0  0  0  0  0
  -25.6190  -33.9340   24.1510 N   0  0  0  0  0  0  0  0  0  0  0  0
  -25.9390  -35.0130   23.4230 C   0  0  0  0  0  0  0  0  0  0  0  0
  -26.5900  -34.9430   22.3760 O   0  0  0  0  0  0  0  0  0  0  0  0
  -25.0350  -34.0620   24.9650 H   0  0  0  0  0  0  0  0  0  0  0  0
  -24.2210  -36.8310   23.1560 C   0  0  0  0  0  1  0  0  0  0  0  0
  -25.4690  -36.3890   23.9370 C   0  0  0  0  0  3  0  0  0  0  0  0
  -27.6190  -37.2290   24.7720 C   0  0  0  0  0  1  0  0  0  0  0  0
  -26.5080  -37.4380   23.8480 N   0  0  0  0  0  0  0  0  0  0  0  0
  -26.1100  -38.3560   24.0320 H   0  0  0  0  0  0  0  0  0  0  0  0
  -26.4930  -31.7450   25.0020 C   0  0  1  0  0  0  0  0  0  0  0  0
  -25.4490  -31.4810   26.1130 C   0  0  0  0  0  1  0  0  0  0  0  0
  -27.0550  -30.3760   24.5530 C   0  0  0  0  0  1  0  0  0  0  0  0
  -27.6740  -32.5230   25.6270 C   0  0  0  0  0  1  0  0  0  0  0  0
  1  6  1  0
  1 47  2  0
  3  5  2  0
  3  6  1  0
  4  2  2  0
  5  4  1  0
  6  7  2  0
  7  2  1  0
  7  8  1  0
  9  4  1  0
 10 15  1  0
 11 12  1  0
 11 10  1  0
 13 12  1  0
 13 20  1  0
 13 14  1  0
 15  9  1  0
 15 14  1  0
 16  9  2  0
 17 18  2  0
 18 19  1  0
 18 37  1  0
 19 22  1  0
 20 17  1  0
 20 21  1  0
 21 19  2  0
 22 23  1  0
 23 24  2  0
 25 28  1  0
 25 24  1  0
 26 25  2  0
 27 26  1  0
 27 22  2  0
 28 29  1  0
 29 30  1  0
 30 31  2  0
 32 31  1  0
 32 36  1  0
 33 32  2  0
 34 29  2  0
 34 33  1  0
 35 34  1  0
 37 38  1  0
 38 41  1  0
 38 40  1  0
 39 37  2  0
 42 43  1  0
 42 17  1  0
 44 42  1  0
 45 46  1  0
 46  5  1  0
 48 50  1  0
 48 47  1  0
 49 48  2  0
 51 53  1  0
 51 50  1  0
 52 63  2  0
 53 58  1  0
 54 62  1  0
 54 64  1  0
 55 61  1  0
 55 57  1  0
 56 62  1  0
 57 56  1  0
 58 57  2  0
 59 60  1  0
 59 53  2  0
 60 55  2  0
 61 54  1  0
 62 52  1  0
 64 66  2  0
 65 64  1  0
 67 65  1  0
 68 77  2  0
 68 73  1  0
 69 65  1  0
 69 73  1  0
 70 69  1  0
 71 72  1  0
 71 70  1  0
 72 68  1  0
 73 74  2  0
 74 75  1  0
 76 75  2  0
 77 76  1  0
 78 52  1  0
 78 79  1  0
 78 88  1  0
 79 82  1  0
 80 84  1  0
 80 79  1  0
 81 80  2  0
 84 83  1  0
 86 84  1  0
 86 87  1  0
 86 85  1  0
 88 91  1  1
 88 89  1  0
 90 88  1  0
M  ISO  4   4 100   9 100  50 101  51 101
M  END
>  <TORSDO>  (96) 
F 21

>  <SCORE>  (96) 
-12.332

>  <name>  (96) 
95

>  <ligand_id>  (96) 
95

>  <original_smiles>  (96) 
[H]c1c([H])c([H])c2c(c1[H])C([H])([H])C([H])([H])C([H])([H])C2([H])N([H])C(=O)C1([H])N(C(=O)C([H])(N([H])C(=O)C([H])(N([H])C([H])([H])[H])C([H])([H])[H])C(C([H])([H])[H])(C([H])([H])[H])C([H])([H])[H])C([H])([H])c2c([H])c(OC([H])([H])C(=O)C([H])([H])C([H])([H])c3c([H])c(C([H])([H])C([H])([H])[H])c(C(=O)N4C([H])([H])C([H])([H])C([H])([H])C([H])(n5nc(-c6c([H])c([H])c(Oc7c([H])c([H])c(F)c([H])c7F)c([H])c6[H])c(C(=O)N([H])[H])c5N([H])[H])C4([H])[H])c([H])c3F)c([H])c([H])c2C1([H])[H]

>  <smiles>  (96) 
[H]c1c([H])c([H])c2c(c1[H])C([H])([H])C([H])([H])C([H])([H])C2([H])N([H])C(=O)C1([H])N(C(=O)C([H])(N([H])C(=O)C([H])(N([H])C([H])([H])[H])C([H])([H])[H])C(C([H])([H])[H])(C([H])([H])[H])C([H])([H])[H])C([H])([H])c2c([H])c(OC([H])([H])C(=O)C([H])([H])C([H])([H])c3c([H])c(C([H])([H])C([H])([H])[H])c(C(=O)N4C([H])([H])C([H])([H])C([H])([H])C([H])(n5nc(-c6c([H])c([H])c(Oc7c([H])c([H])c(F)c([H])c7F)c([H])c6[H])c(C(=O)N([H])[H])c5N([H])[H])C4([H])[H])c([H])c3F)c([H])c([H])c2C1([H])[H]

$$$$
96:0:0
     RDKit          3D

 91 99  0  0  1  0  0  0  0  0999 V2000
  -28.9490  -19.4310   20.5520 C   0  0  0  0  0  3  0  0  0  0  0  0
  -31.2530  -17.8740   20.2720 C   0  0  0  0  0  3  0  0  0  0  0  0
  -30.1630  -20.1290   20.3570 C   0  0  0  0  0  0  0  0  0  0  0  0
  -28.8770  -18.0090   20.6170 C   0  0  0  0  0  0  0  0  0  0  0  0
  -31.3250  -19.3030   20.2210 C   0  0  0  0  0  0  0  0  0  0  0  0
  -30.0300  -17.1800   20.4730 C   0  0  0  0  0  0  0  0  0  0  0  0
  -27.5020  -17.3980   20.8020 C   0  0  0  0  0  1  0  0  0  0  0  0
  -32.6910  -19.9370   20.0130 C   0  0  0  0  0  1  0  0  0  0  0  0
  -30.6370  -14.6750   20.0590 C   0  0  0  0  0  0  0  0  0  0  0  0
  -30.3190  -12.4980   18.9010 C   0  0  0  0  0  2  0  0  0  0  0  0
  -29.3060  -12.6860   17.7490 C   0  0  0  0  0  2  0  0  0  0  0  0
  -27.8590  -12.5200   18.2550 C   0  0  0  0  0  2  0  0  0  0  0  0
  -27.5830  -13.3340   19.5460 C   0  0  0  0  0  3  0  0  0  0  0  0
  -28.7030  -13.1220   20.5920 C   0  0  0  0  0  2  0  0  0  0  0  0
  -29.9840  -13.4730   19.9560 N   0  0  0  0  0  0  0  0  0  0  0  0
  -31.7760  -14.8230   19.6110 O   0  0  0  0  0  0  0  0  0  0  0  0
  -29.8870  -15.7210   20.5260 N   0  0  0  0  0  0  0  0  0  0  0  0
  -28.9950  -15.4140   20.8790 H   0  0  0  0  0  0  0  0  0  0  0  0
  -25.2160  -13.9100   20.3760 C   0  0  0  0  0  0  0  0  0  0  0  0
  -24.1740  -13.1310   20.7970 C   0  0  0  0  0  0  0  0  0  0  0  0
  -24.6400  -11.7840   20.7230 C   0  0  0  0  0  0  0  0  0  0  0  0
  -26.2580  -13.0420   20.0900 N   0  0  0  0  0  0  0  0  0  0  0  0
  -25.9160  -11.7560   20.3580 N   0  0  0  0  0  0  0  0  0  0  0  0
  -23.9240  -10.5180   20.9210 C   0  0  0  0  0  0  0  0  0  0  0  0
  -24.3400   -9.5790   21.8900 C   0  0  0  0  0  3  0  0  0  0  0  0
  -23.6210   -8.3780   22.0760 C   0  0  0  0  0  3  0  0  0  0  0  0
  -22.4750   -8.1090   21.2900 C   0  0  0  0  0  0  0  0  0  0  0  0
  -22.0780   -9.0380   20.3130 C   0  0  0  0  0  3  0  0  0  0  0  0
  -22.7970  -10.2300   20.1250 C   0  0  0  0  0  3  0  0  0  0  0  0
  -21.7290   -6.9590   21.3850 O   0  0  0  0  0  0  0  0  0  0  0  0
  -21.5700   -6.3030   22.5780 C   0  0  0  0  0  0  0  0  0  0  0  0
  -20.9820   -6.9290   23.7000 C   0  0  0  0  0  3  0  0  0  0  0  0
  -20.7720   -6.1960   24.8860 C   0  0  0  0  0  3  0  0  0  0  0  0
  -21.1410   -4.8390   24.9490 C   0  0  0  0  0  0  0  0  0  0  0  0
  -21.7200   -4.2130   23.8310 C   0  0  0  0  0  3  0  0  0  0  0  0
  -21.9320   -4.9430   22.6490 C   0  0  0  0  0  0  0  0  0  0  0  0
  -22.4720   -4.3290   21.5670 F   0  0  0  0  0  0  0  0  0  0  0  0
  -20.9320   -4.1320   26.0840 F   0  0  0  0  0  0  0  0  0  0  0  0
  -22.7910  -13.6030   21.1400 C   0  0  0  0  0  0  0  0  0  0  0  0
  -22.1060  -12.8980   22.0330 N   0  0  0  0  0  0  0  0  0  0  0  0
  -22.3280  -14.6340   20.6540 O   0  0  0  0  0  0  0  0  0  0  0  0
  -22.4920  -12.0630   22.4500 H   0  0  0  0  0  0  0  0  0  0  0  0
  -21.1810  -13.1990   22.3080 H   0  0  0  0  0  0  0  0  0  0  0  0
  -25.3450  -15.2770   20.1810 N   0  0  0  0  0  0  0  0  0  0  0  0
  -24.5400  -15.8900   20.2560 H   0  0  0  0  0  0  0  0  0  0  0  0
  -26.1020  -15.6890   19.6520 H   0  0  0  0  0  0  0  0  0  0  0  0
  -30.2370  -21.6520   20.3040 C   0  0  0  0  0  3  0  0  0  0  0  0
  -29.2700  -22.6150   20.4190 C   0  0  0  0  0  3  0  0  0  0  0  0
  -29.5130  -24.1620   20.4250 C   0  0  0  0  0  3  0  0  0  0  0  0
  -28.3310  -25.1120   19.9720 C   0  0  0  0  0  3  0  0  0  0  0  0
  -28.4950  -26.5620   20.1900 O   0  0  0  0  0  0  0  0  0  0  0  0
  -24.6940  -31.8460   23.2770 C   0  0  0  0  0  0  0  0  0  0  0  0
  -27.3540  -27.3760   20.1500 C   0  0  0  0  0  0  0  0  0  0  0  0
  -23.5060  -30.4780   21.5950 C   0  0  0  0  0  3  0  0  0  0  0  0
  -24.9730  -28.9640   20.1480 C   0  0  0  0  0  0  0  0  0  0  0  0
  -26.0440  -30.8090   21.4440 C   0  0  0  0  0  2  0  0  0  0  0  0
  -26.1350  -29.4490   20.7630 C   0  0  0  0  0  0  0  0  0  0  0  0
  -27.3250  -28.6690   20.7530 C   0  0  0  0  0  3  0  0  0  0  0  0
  -26.1670  -26.9350   19.5160 C   0  0  0  0  0  3  0  0  0  0  0  0
  -24.9910  -27.7090   19.5170 C   0  0  0  0  0  3  0  0  0  0  0  0
  -23.7320  -29.8300   20.2040 C   0  0  0  0  0  2  0  0  0  0  0  0
  -24.7660  -31.0610   22.1620 N   0  0  0  0  0  0  0  0  0  0  0  0
  -23.6060  -32.1150   23.8070 O   0  0  0  0  0  0  0  0  0  0  0  0
  -22.8390  -29.4400   22.5270 C   0  0  0  0  0  0  0  0  0  0  0  0
  -21.5150  -29.2610   22.3820 N   0  0  0  0  0  0  0  0  0  0  0  0
  -23.5090  -28.8010   23.3410 O   0  0  0  0  0  0  0  0  0  0  0  0
  -21.0370  -29.8270   21.6970 H   0  0  0  0  0  0  0  0  0  0  0  0
  -18.1280  -28.0790   22.8400 C   0  0  0  0  0  0  0  0  0  0  0  0
  -20.6880  -28.3080   23.1230 C   0  0  0  0  0  3  0  0  0  0  0  0
  -20.7790  -26.8930   22.5060 C   0  0  0  0  0  2  0  0  0  0  0  0
  -19.6750  -26.6090   21.4820 C   0  0  0  0  0  2  0  0  0  0  0  0
  -18.2940  -26.7460   22.1280 C   0  0  0  0  0  2  0  0  0  0  0  0
  -19.2530  -28.8200   23.2900 C   0  0  0  0  0  0  0  0  0  0  0  0
  -19.0450  -30.0660   23.9180 C   0  0  0  0  0  3  0  0  0  0  0  0
  -17.7450  -30.5740   24.1010 C   0  0  0  0  0  3  0  0  0  0  0  0
  -16.6340  -29.8270   23.6700 C   0  0  0  0  0  3  0  0  0  0  0  0
  -16.8260  -28.5840   23.0430 C   0  0  0  0  0  3  0  0  0  0  0  0
  -25.9730  -32.4660   23.9220 C   0  0  0  0  0  3  0  0  0  0  0  0
  -26.4590  -31.6900   25.2080 C   0  0  1  0  0  0  0  0  0  0  0  0
  -25.3430  -31.4550   26.2530 C   0  0  0  0  0  1  0  0  0  0  0  0
  -27.0490  -30.3140   24.8260 C   0  0  0  0  0  1  0  0  0  0  0  0
  -27.5980  -32.4810   25.8960 C   0  0  0  0  0  1  0  0  0  0  0  0
  -25.6710  -33.8660   24.2480 N   0  0  0  0  0  0  0  0  0  0  0  0
  -25.9950  -34.9150   23.4780 C   0  0  0  0  0  0  0  0  0  0  0  0
  -26.6510  -34.8040   22.4380 O   0  0  0  0  0  0  0  0  0  0  0  0
  -25.1010  -34.0260   25.0630 H   0  0  0  0  0  0  0  0  0  0  0  0
  -24.2530  -36.6970   23.1510 C   0  0  0  0  0  1  0  0  0  0  0  0
  -25.5160  -36.3050   23.9360 C   0  0  0  0  0  3  0  0  0  0  0  0
  -27.6600  -37.2130   24.7090 C   0  0  0  0  0  1  0  0  0  0  0  0
  -26.5410  -37.3610   23.7850 N   0  0  0  0  0  0  0  0  0  0  0  0
  -26.1330  -38.2810   23.9270 H   0  0  0  0  0  0  0  0  0  0  0  0
  1  4  1  0
  2  6  1  0
  3  1  2  0
  4  7  1  0
  5  2  2  0
  5  3  1  0
  6 17  1  0
  6  4  2  0
  8  5  1  0
  9 17  1  0
 10 15  1  0
 11 12  1  0
 11 10  1  0
 13 12  1  0
 13 22  1  0
 13 14  1  0
 15  9  1  0
 15 14  1  0
 16  9  2  0
 17 18  1  0
 19 20  2  0
 20 39  1  0
 21 20  1  0
 21 24  1  0
 22 23  1  0
 22 19  1  0
 23 21  2  0
 24 25  1  0
 25 26  2  0
 27 30  1  0
 27 26  1  0
 28 27  2  0
 29 28  1  0
 29 24  2  0
 30 31  1  0
 31 36  2  0
 31 32  1  0
 32 33  2  0
 33 34  1  0
 34 38  1  0
 35 34  2  0
 36 35  1  0
 37 36  1  0
 39 40  1  0
 40 43  1  0
 40 42  1  0
 41 39  2  0
 44 45  1  0
 44 19  1  0
 46 44  1  0
 47  3  1  0
 47 48  2  0
 48 49  1  0
 50 51  1  0
 50 49  2  0
 52 63  2  0
 53 51  1  0
 53 58  1  0
 54 62  1  0
 54 64  1  0
 55 61  1  0
 55 57  1  0
 56 62  1  0
 57 56  1  0
 58 57  2  0
 59 60  1  0
 59 53  2  0
 60 55  2  0
 61 54  1  0
 62 52  1  0
 64 66  2  0
 65 64  1  0
 67 65  1  0
 68 77  2  0
 68 73  1  0
 69 65  1  0
 69 73  1  0
 70 69  1  0
 71 72  1  0
 71 70  1  0
 72 68  1  0
 73 74  2  0
 74 75  1  0
 76 75  2  0
 77 76  1  0
 78 52  1  0
 78 83  1  0
 78 79  1  0
 79 82  1  1
 79 80  1  0
 81 79  1  0
 83 86  1  0
 84 88  1  0
 84 83  1  0
 85 84  2  0
 88 87  1  0
 90 91  1  0
 90 88  1  0
 90 89  1  0
M  ISO  4   9 100  17 100  50 101  51 101
M  END
>  <TORSDO>  (97) 
F 19

>  <SCORE>  (97) 
-13.526

>  <name>  (97) 
96

>  <ligand_id>  (97) 
96

>  <original_smiles>  (97) 
[H]C(=C([H])C([H])([H])C([H])([H])Oc1c([H])c([H])c2c(c1[H])C([H])([H])N(C(=O)C([H])(N([H])C(=O)C([H])(N([H])C([H])([H])[H])C([H])([H])[H])C(C([H])([H])[H])(C([H])([H])[H])C([H])([H])[H])C([H])(C(=O)N([H])C1([H])c3c([H])c([H])c([H])c([H])c3C([H])([H])C([H])([H])C1([H])[H])C2([H])[H])c1c([H])c(C([H])([H])[H])c(N([H])C(=O)N2C([H])([H])C([H])([H])C([H])([H])C([H])(n3nc(-c4c([H])c([H])c(Oc5c([H])c([H])c(F)c([H])c5F)c([H])c4[H])c(C(=O)N([H])[H])c3N([H])[H])C2([H])[H])c([H])c1C([H])([H])[H]

>  <smiles>  (97) 
[H]C(=C([H])C([H])([H])C([H])([H])Oc1c([H])c([H])c2c(c1[H])C([H])([H])N(C(=O)C([H])(N([H])C(=O)C([H])(N([H])C([H])([H])[H])C([H])([H])[H])C(C([H])([H])[H])(C([H])([H])[H])C([H])([H])[H])C([H])(C(=O)N([H])C1([H])c3c([H])c([H])c([H])c([H])c3C([H])([H])C([H])([H])C1([H])[H])C2([H])[H])c1c([H])c(C([H])([H])[H])c(N([H])C(=O)N2C([H])([H])C([H])([H])C([H])([H])C([H])(n3nc(-c4c([H])c([H])c(Oc5c([H])c([H])c(F)c([H])c5F)c([H])c4[H])c(C(=O)N([H])[H])c3N([H])[H])C2([H])[H])c([H])c1C([H])([H])[H]

$$$$
