0:0:0
     RDKit          3D

 95103  0  0  1  0  0  0  0  0999 V2000
  -30.2150  -21.8210   19.8700 C   0  0  0  0  0  2  0  0  0  0  0  0
  -29.8300  -17.9870   19.1860 C   0  0  0  0  0  3  0  0  0  0  0  0
  -29.8600  -19.3930   18.9960 C   0  0  0  0  0  3  0  0  0  0  0  0
  -30.3340  -19.6950   21.3390 C   0  0  0  0  0  3  0  0  0  0  0  0
  -30.0350  -17.3870   20.4570 C   0  0  0  0  0  0  0  0  0  0  0  0
  -30.0850  -20.2800   20.0720 C   0  0  0  0  0  0  0  0  0  0  0  0
  -30.3350  -18.2770   21.5400 C   0  0  0  0  0  0  0  0  0  0  0  0
  -29.6800  -15.9180   20.6820 C   0  0  0  0  0  0  0  0  0  0  0  0
  -28.7300  -15.7210   21.4980 N   0  0  0  0  0  0  0  0  0  0  0  0
  -28.3750  -16.6020   21.8510 H   0  0  0  0  0  0  0  0  0  0  0  0
  -30.4620  -14.7540   19.9530 C   0  0  0  0  0  0  0  0  0  0  0  0
  -30.3150  -12.4980   18.8910 C   0  0  0  0  0  2  0  0  0  0  0  0
  -29.2580  -12.5490   17.7630 C   0  0  0  0  0  2  0  0  0  0  0  0
  -27.8200  -12.3580   18.2920 C   0  0  0  0  0  2  0  0  0  0  0  0
  -27.5310  -13.1850   19.5740 C   0  0  0  0  0  3  0  0  0  0  0  0
  -28.6890  -12.9810   20.5750 C   0  0  0  0  0  2  0  0  0  0  0  0
  -29.9200  -13.4780   19.9270 N   0  0  0  0  0  0  0  0  0  0  0  0
  -31.5160  -15.0020   19.3490 O   0  0  0  0  0  0  0  0  0  0  0  0
  -25.1960  -13.7020   20.5310 C   0  0  0  0  0  0  0  0  0  0  0  0
  -24.1790  -12.8960   20.9570 C   0  0  0  0  0  0  0  0  0  0  0  0
  -24.6510  -11.5530   20.8030 C   0  0  0  0  0  0  0  0  0  0  0  0
  -26.2310  -12.8560   20.1560 N   0  0  0  0  0  0  0  0  0  0  0  0
  -25.9060  -11.5540   20.3710 N   0  0  0  0  0  0  0  0  0  0  0  0
  -23.9620  -10.2730   20.9870 C   0  0  0  0  0  0  0  0  0  0  0  0
  -24.4150   -9.3200   21.9270 C   0  0  0  0  0  3  0  0  0  0  0  0
  -23.7250   -8.1000   22.1000 C   0  0  0  0  0  3  0  0  0  0  0  0
  -22.5660   -7.8270   21.3350 C   0  0  0  0  0  0  0  0  0  0  0  0
  -22.1290   -8.7720   20.3890 C   0  0  0  0  0  3  0  0  0  0  0  0
  -22.8210   -9.9810   20.2140 C   0  0  0  0  0  3  0  0  0  0  0  0
  -21.8460   -6.6620   21.4180 O   0  0  0  0  0  0  0  0  0  0  0  0
  -21.7160   -5.9740   22.5990 C   0  0  0  0  0  0  0  0  0  0  0  0
  -21.1350   -6.5620   23.7430 C   0  0  0  0  0  3  0  0  0  0  0  0
  -20.9650   -5.8010   24.9150 C   0  0  0  0  0  3  0  0  0  0  0  0
  -21.3600   -4.4520   24.9440 C   0  0  0  0  0  0  0  0  0  0  0  0
  -21.9390   -3.8640   23.8050 C   0  0  0  0  0  3  0  0  0  0  0  0
  -22.1130   -4.6220   22.6340 C   0  0  0  0  0  0  0  0  0  0  0  0
  -22.6500   -4.0440   21.5330 F   0  0  0  0  0  0  0  0  0  0  0  0
  -21.1890   -3.7180   26.0670 F   0  0  0  0  0  0  0  0  0  0  0  0
  -22.8060  -13.3310   21.3850 C   0  0  0  0  0  0  0  0  0  0  0  0
  -22.1790  -12.5910   22.2890 N   0  0  0  0  0  0  0  0  0  0  0  0
  -22.3120  -14.3780   20.9630 O   0  0  0  0  0  0  0  0  0  0  0  0
  -22.5980  -11.7530   22.6690 H   0  0  0  0  0  0  0  0  0  0  0  0
  -21.2640  -12.8710   22.6120 H   0  0  0  0  0  0  0  0  0  0  0  0
  -25.3020  -15.0870   20.4140 N   0  0  0  0  0  0  0  0  0  0  0  0
  -24.5220  -15.6880   20.6580 H   0  0  0  0  0  0  0  0  0  0  0  0
  -26.1120  -15.5950   20.0830 H   0  0  0  0  0  0  0  0  0  0  0  0
  -30.9620  -18.6940   24.0480 C   0  0  0  0  0  1  0  0  0  0  0  0
  -30.6420  -17.6940   22.9260 C   0  0  0  0  0  2  0  0  0  0  0  0
  -28.9620  -22.7960   19.8620 C   0  0  0  0  0  3  0  0  0  0  0  0
  -26.9930  -21.7750   18.6360 C   0  0  0  0  0  1  0  0  0  0  0  0
  -27.5860  -22.0810   20.0160 C   0  0  0  0  0  2  0  0  0  0  0  0
  -29.2890  -23.6470   22.2010 C   0  0  0  0  0  1  0  0  0  0  0  0
  -29.1240  -24.1080   20.7300 C   0  0  0  0  0  3  0  0  0  0  0  0
  -27.9980  -25.2160   20.5450 C   0  0  0  0  0  2  0  0  0  0  0  0
  -28.3340  -26.5960   20.1250 O   0  0  0  0  0  0  0  0  0  0  0  0
  -24.6480  -31.9060   23.2160 C   0  0  0  0  0  0  0  0  0  0  0  0
  -27.2320  -27.4600   20.0470 C   0  0  0  0  0  0  0  0  0  0  0  0
  -23.4240  -30.5440   21.5500 C   0  0  0  0  0  3  0  0  0  0  0  0
  -24.8740  -29.0610   20.0510 C   0  0  0  0  0  0  0  0  0  0  0  0
  -25.9500  -30.9000   21.3420 C   0  0  0  0  0  2  0  0  0  0  0  0
  -26.0340  -29.5400   20.6660 C   0  0  0  0  0  0  0  0  0  0  0  0
  -27.2160  -28.7430   20.6670 C   0  0  0  0  0  3  0  0  0  0  0  0
  -26.0510  -27.0420   19.3920 C   0  0  0  0  0  3  0  0  0  0  0  0
  -24.8830  -27.8210   19.3950 C   0  0  0  0  0  3  0  0  0  0  0  0
  -23.6300  -29.9180   20.1430 C   0  0  0  0  0  2  0  0  0  0  0  0
  -24.6900  -31.1400   22.0890 N   0  0  0  0  0  0  0  0  0  0  0  0
  -23.5780  -32.1530   23.7860 O   0  0  0  0  0  0  0  0  0  0  0  0
  -22.8030  -29.4860   22.4950 C   0  0  0  0  0  0  0  0  0  0  0  0
  -21.4820  -29.2690   22.3780 N   0  0  0  0  0  0  0  0  0  0  0  0
  -23.5080  -28.8690   23.2980 O   0  0  0  0  0  0  0  0  0  0  0  0
  -20.9640  -29.8340   21.7180 H   0  0  0  0  0  0  0  0  0  0  0  0
  -18.1520  -27.9370   22.8580 C   0  0  0  0  0  0  0  0  0  0  0  0
  -20.6990  -28.2960   23.1400 C   0  0  0  0  0  3  0  0  0  0  0  0
  -20.8560  -26.8710   22.5610 C   0  0  0  0  0  2  0  0  0  0  0  0
  -19.7740  -26.5110   21.5350 C   0  0  0  0  0  2  0  0  0  0  0  0
  -18.3840  -26.6000   22.1710 C   0  0  0  0  0  2  0  0  0  0  0  0
  -19.2400  -28.7400   23.2980 C   0  0  0  0  0  0  0  0  0  0  0  0
  -18.9690  -29.9880   23.9000 C   0  0  0  0  0  3  0  0  0  0  0  0
  -17.6440  -30.4360   24.0630 C   0  0  0  0  0  3  0  0  0  0  0  0
  -16.5730  -29.6360   23.6320 C   0  0  0  0  0  3  0  0  0  0  0  0
  -16.8280  -28.3890   23.0360 C   0  0  0  0  0  3  0  0  0  0  0  0
  -25.9420  -32.5320   23.8300 C   0  0  0  0  0  3  0  0  0  0  0  0
  -25.6360  -33.9260   24.1760 N   0  0  0  0  0  0  0  0  0  0  0  0
  -25.9560  -34.9870   23.4200 C   0  0  0  0  0  0  0  0  0  0  0  0
  -26.6110  -34.8940   22.3780 O   0  0  0  0  0  0  0  0  0  0  0  0
  -25.0580  -34.0710   24.9910 H   0  0  0  0  0  0  0  0  0  0  0  0
  -24.2230  -36.7840   23.1000 C   0  0  0  0  0  1  0  0  0  0  0  0
  -25.4710  -36.3680   23.9000 C   0  0  0  0  0  3  0  0  0  0  0  0
  -27.6060  -37.2500   24.7310 C   0  0  0  0  0  1  0  0  0  0  0  0
  -26.5000  -37.4260   23.7900 N   0  0  0  0  0  0  0  0  0  0  0  0
  -26.0910  -38.3420   23.9490 H   0  0  0  0  0  0  0  0  0  0  0  0
  -26.4800  -31.7490   25.0910 C   0  0  1  0  0  0  0  0  0  0  0  0
  -25.4000  -31.4990   26.1690 C   0  0  0  0  0  1  0  0  0  0  0  0
  -27.0650  -30.3770   24.6770 C   0  0  0  0  0  1  0  0  0  0  0  0
  -27.6350  -32.5420   25.7460 C   0  0  0  0  0  1  0  0  0  0  0  0
  1  6  1  0
  2  5  1  0
  3  2  2  0
  3  6  1  0
  4  7  1  0
  5  8  1  0
  5  7  2  0
  6  4  2  0
  7 48  1  0
  8  9  2  0
  9 10  1  0
 11  8  1  0
 12 17  1  0
 13 14  1  0
 13 12  1  0
 15 14  1  0
 15 22  1  0
 15 16  1  0
 17 11  1  0
 17 16  1  0
 18 11  2  0
 19 20  2  0
 20 39  1  0
 21 20  1  0
 21 24  1  0
 22 23  1  0
 22 19  1  0
 23 21  2  0
 24 25  1  0
 25 26  2  0
 27 30  1  0
 27 26  1  0
 28 27  2  0
 29 28  1  0
 29 24  2  0
 30 31  1  0
 31 36  2  0
 31 32  1  0
 32 33  2  0
 33 34  1  0
 34 38  1  0
 35 34  2  0
 36 35  1  0
 37 36  1  0
 39 40  1  0
 40 43  1  0
 40 42  1  0
 41 39  2  0
 44 19  1  0
 44 45  1  0
 46 44  1  0
 48 47  1  0
 49  1  1  0
 49 51  1  0
 49 53  1  0
 50 51  1  0
 53 52  1  0
 54 53  1  0
 55 54  1  0
 56 67  2  0
 57 55  1  0
 57 62  1  0
 58 66  1  0
 58 68  1  0
 59 65  1  0
 59 61  1  0
 60 66  1  0
 61 62  2  0
 61 60  1  0
 63 64  1  0
 63 57  2  0
 64 59  2  0
 65 58  1  0
 66 56  1  0
 68 70  2  0
 69 68  1  0
 71 69  1  0
 72 81  2  0
 72 77  1  0
 73 69  1  0
 73 77  1  0
 74 73  1  0
 75 76  1  0
 75 74  1  0
 76 72  1  0
 77 78  2  0
 78 79  1  0
 80 79  2  0
 81 80  1  0
 82 56  1  0
 82 83  1  0
 82 92  1  0
 83 86  1  0
 84 88  1  0
 84 83  1  0
 85 84  2  0
 88 87  1  0
 90 88  1  0
 90 91  1  0
 90 89  1  0
 92 95  1  1
 92 93  1  0
 94 92  1  0
M  ISO  4   8 100  11 100  54 101  55 101
M  END
>  <TORSDO>  (1) 
F 23

>  <SCORE>  (1) 
-11.828

>  <name>  (1) 
0

>  <ligand_id>  (1) 
0

>  <original_smiles>  (1) 
[H]N=C(C(=O)N1C([H])([H])C([H])([H])C([H])([H])C([H])(n2nc(-c3c([H])c([H])c(Oc4c([H])c([H])c(F)c([H])c4F)c([H])c3[H])c(C(=O)N([H])[H])c2N([H])[H])C1([H])[H])c1c([H])c([H])c(C([H])([H])C([H])(C([H])([H])C([H])([H])[H])C([H])(C([H])([H])[H])C([H])([H])Oc2c([H])c([H])c3c(c2[H])C([H])([H])N(C(=O)C([H])(N([H])C(=O)C([H])(N([H])C([H])([H])[H])C([H])([H])[H])C(C([H])([H])[H])(C([H])([H])[H])C([H])([H])[H])C([H])(C(=O)N([H])C2([H])c4c([H])c([H])c([H])c([H])c4C([H])([H])C([H])([H])C2([H])[H])C3([H])[H])c([H])c1C([H])([H])C([H])([H])[H]

>  <smiles>  (1) 
[H]N=C(C(=O)N1C([H])([H])C([H])([H])C([H])([H])C([H])(n2nc(-c3c([H])c([H])c(Oc4c([H])c([H])c(F)c([H])c4F)c([H])c3[H])c(C(=O)N([H])[H])c2N([H])[H])C1([H])[H])c1c([H])c([H])c(C([H])([H])C([H])(C([H])([H])C([H])([H])[H])C([H])(C([H])([H])[H])C([H])([H])Oc2c([H])c([H])c3c(c2[H])C([H])([H])N(C(=O)C([H])(N([H])C(=O)C([H])(N([H])C([H])([H])[H])C([H])([H])[H])C(C([H])([H])[H])(C([H])([H])[H])C([H])([H])[H])C([H])(C(=O)N([H])C2([H])c4c([H])c([H])c([H])c([H])c4C([H])([H])C([H])([H])C2([H])[H])C3([H])[H])c([H])c1C([H])([H])C([H])([H])[H]

$$$$
1:0:0
     RDKit          3D

 95103  0  0  1  0  0  0  0  0999 V2000
  -29.0130  -20.3550   20.8770 O   0  0  0  0  0  0  0  0  0  0  0  0
  -32.4720  -17.9180   20.5860 C   0  0  0  0  0  3  0  0  0  0  0  0
  -30.1400  -18.3490   20.0580 C   0  0  0  0  0  3  0  0  0  0  0  0
  -32.5220  -19.1200   21.3210 C   0  0  0  0  0  0  0  0  0  0  0  0
  -31.3630  -19.9340   21.4630 C   0  0  0  0  0  0  0  0  0  0  0  0
  -31.2750  -17.4900   19.9810 C   0  0  0  0  0  0  0  0  0  0  0  0
  -30.1720  -19.5890   20.7630 C   0  0  0  0  0  0  0  0  0  0  0  0
  -33.8260  -19.4610   22.0240 C   0  0  0  0  0  1  0  0  0  0  0  0
  -31.9920  -15.0760   19.6200 C   0  0  0  0  0  0  0  0  0  0  0  0
  -31.7310  -12.6920   18.9840 C   0  0  0  0  0  2  0  0  0  0  0  0
  -30.7850  -12.6210   17.7660 C   0  0  0  0  0  2  0  0  0  0  0  0
  -29.3050  -12.5920   18.2160 C   0  0  0  0  0  2  0  0  0  0  0  0
  -28.9740  -13.6840   19.2670 C   0  0  0  0  0  3  0  0  0  0  0  0
  -30.0350  -13.7110   20.3920 C   0  0  0  0  0  2  0  0  0  0  0  0
  -31.3430  -13.8880   19.7480 N   0  0  0  0  0  0  0  0  0  0  0  0
  -33.1780  -15.1570   19.2940 O   0  0  0  0  0  0  0  0  0  0  0  0
  -31.1520  -16.1400   19.5020 N   0  0  0  0  0  0  0  0  0  0  0  0
  -30.2000  -15.8730   19.3120 H   0  0  0  0  0  0  0  0  0  0  0  0
  -26.6810  -14.5310   20.0570 C   0  0  0  0  0  0  0  0  0  0  0  0
  -25.5570  -13.8740   20.4670 C   0  0  0  0  0  0  0  0  0  0  0  0
  -25.8780  -12.4820   20.4340 C   0  0  0  0  0  0  0  0  0  0  0  0
  -27.6210  -13.5450   19.7920 N   0  0  0  0  0  0  0  0  0  0  0  0
  -27.1470  -12.3090   20.0860 N   0  0  0  0  0  0  0  0  0  0  0  0
  -25.0370  -11.3030   20.6640 C   0  0  0  0  0  0  0  0  0  0  0  0
  -25.3110  -10.3900   21.7060 C   0  0  0  0  0  3  0  0  0  0  0  0
  -24.4800   -9.2680   21.9130 C   0  0  0  0  0  3  0  0  0  0  0  0
  -23.3550   -9.0550   21.0790 C   0  0  0  0  0  0  0  0  0  0  0  0
  -23.1020   -9.9530   20.0280 C   0  0  0  0  0  3  0  0  0  0  0  0
  -23.9330  -11.0660   19.8200 C   0  0  0  0  0  3  0  0  0  0  0  0
  -22.5070   -7.9800   21.1890 O   0  0  0  0  0  0  0  0  0  0  0  0
  -22.1870   -7.4400   22.4090 C   0  0  0  0  0  0  0  0  0  0  0  0
  -21.5740   -8.2060   23.4240 C   0  0  0  0  0  3  0  0  0  0  0  0
  -21.1970   -7.5930   24.6370 C   0  0  0  0  0  3  0  0  0  0  0  0
  -21.4230   -6.2180   24.8320 C   0  0  0  0  0  0  0  0  0  0  0  0
  -22.0250   -5.4530   23.8190 C   0  0  0  0  0  3  0  0  0  0  0  0
  -22.4050   -6.0630   22.6100 C   0  0  0  0  0  0  0  0  0  0  0  0
  -22.9680   -5.3170   21.6290 F   0  0  0  0  0  0  0  0  0  0  0  0
  -21.0540   -5.6260   25.9940 F   0  0  0  0  0  0  0  0  0  0  0  0
  -24.2220  -14.4920   20.7780 C   0  0  0  0  0  0  0  0  0  0  0  0
  -23.4770  -13.9060   21.7070 N   0  0  0  0  0  0  0  0  0  0  0  0
  -23.8590  -15.5320   20.2320 O   0  0  0  0  0  0  0  0  0  0  0  0
  -23.7830  -13.0620   22.1670 H   0  0  0  0  0  0  0  0  0  0  0  0
  -22.5880  -14.3070   21.9620 H   0  0  0  0  0  0  0  0  0  0  0  0
  -26.9790  -15.8770   19.8540 N   0  0  0  0  0  0  0  0  0  0  0  0
  -26.2820  -16.6050   19.9730 H   0  0  0  0  0  0  0  0  0  0  0  0
  -27.8530  -16.2290   19.4850 H   0  0  0  0  0  0  0  0  0  0  0  0
  -31.3200  -20.5630   23.9220 C   0  0  0  0  0  1  0  0  0  0  0  0
  -31.3670  -21.0810   22.4770 C   0  0  0  0  0  2  0  0  0  0  0  0
  -29.0810  -21.7620   20.5290 C   0  0  0  0  0  2  0  0  0  0  0  0
  -28.0370  -22.6750   21.2920 C   0  0  0  0  0  2  0  0  0  0  0  0
  -27.2060  -23.6110   19.0200 C   0  0  0  0  0  1  0  0  0  0  0  0
  -25.6380  -23.5090   20.9670 C   0  0  0  0  0  1  0  0  0  0  0  0
  -27.1180  -23.7620   20.5500 C   0  0  1  0  0  0  0  0  0  0  0  0
  -27.5430  -25.2480   20.9430 C   0  0  0  0  0  2  0  0  0  0  0  0
  -27.5860  -26.3120   19.9350 O   0  0  0  0  0  0  0  0  0  0  0  0
  -24.4610  -31.8710   23.2090 C   0  0  0  0  0  0  0  0  0  0  0  0
  -26.5560  -27.2320   19.9690 C   0  0  0  0  0  0  0  0  0  0  0  0
  -23.0570  -30.5740   21.6390 C   0  0  0  0  0  3  0  0  0  0  0  0
  -24.3060  -28.9450   20.1140 C   0  0  0  0  0  0  0  0  0  0  0  0
  -25.5880  -30.7330   21.2980 C   0  0  0  0  0  2  0  0  0  0  0  0
  -25.5320  -29.3570   20.6590 C   0  0  0  0  0  0  0  0  0  0  0  0
  -26.6590  -28.4980   20.6050 C   0  0  0  0  0  3  0  0  0  0  0  0
  -25.3510  -26.8980   19.3300 C   0  0  0  0  0  3  0  0  0  0  0  0
  -24.2150  -27.7140   19.4410 C   0  0  0  0  0  3  0  0  0  0  0  0
  -23.1280  -29.8890   20.2480 C   0  0  0  0  0  2  0  0  0  0  0  0
  -24.3900  -31.0790   22.1030 N   0  0  0  0  0  0  0  0  0  0  0  0
  -23.4380  -32.2160   23.8220 O   0  0  0  0  0  0  0  0  0  0  0  0
  -22.4030  -29.5920   22.6420 C   0  0  0  0  0  0  0  0  0  0  0  0
  -21.0750  -29.4260   22.5320 N   0  0  0  0  0  0  0  0  0  0  0  0
  -23.0840  -28.9870   23.4770 O   0  0  0  0  0  0  0  0  0  0  0  0
  -20.5960  -29.9570   21.8210 H   0  0  0  0  0  0  0  0  0  0  0  0
  -17.7030  -28.2270   23.0210 C   0  0  0  0  0  0  0  0  0  0  0  0
  -20.2490  -28.5270   23.3370 C   0  0  0  0  0  3  0  0  0  0  0  0
  -20.3820  -27.0650   22.8500 C   0  0  0  0  0  2  0  0  0  0  0  0
  -19.3140  -26.6710   21.8280 C   0  0  0  0  0  2  0  0  0  0  0  0
  -17.9070  -26.8460   22.4140 C   0  0  0  0  0  2  0  0  0  0  0  0
  -18.8040  -29.0220   23.4310 C   0  0  0  0  0  0  0  0  0  0  0  0
  -18.5600  -30.3140   23.9510 C   0  0  0  0  0  3  0  0  0  0  0  0
  -17.2500  -30.8100   24.0600 C   0  0  0  0  0  3  0  0  0  0  0  0
  -16.1600  -30.0110   23.6680 C   0  0  0  0  0  3  0  0  0  0  0  0
  -16.3890  -28.7220   23.1520 C   0  0  0  0  0  3  0  0  0  0  0  0
  -25.8290  -32.4000   23.7480 C   0  0  0  0  0  3  0  0  0  0  0  0
  -25.6340  -33.8030   24.1360 N   0  0  0  0  0  0  0  0  0  0  0  0
  -26.0040  -34.8570   23.3950 C   0  0  0  0  0  0  0  0  0  0  0  0
  -26.6160  -34.7420   22.3280 O   0  0  0  0  0  0  0  0  0  0  0  0
  -25.0900  -33.9700   24.9730 H   0  0  0  0  0  0  0  0  0  0  0  0
  -24.3870  -36.7690   23.1750 C   0  0  0  0  0  1  0  0  0  0  0  0
  -25.6350  -36.2570   23.9130 C   0  0  0  0  0  3  0  0  0  0  0  0
  -27.8630  -36.9680   24.6640 C   0  0  0  0  0  1  0  0  0  0  0  0
  -26.7320  -37.2410   23.7810 N   0  0  0  0  0  0  0  0  0  0  0  0
  -26.3970  -38.1810   23.9750 H   0  0  0  0  0  0  0  0  0  0  0  0
  -26.3890  -31.5600   24.9600 C   0  0  1  0  0  0  0  0  0  0  0  0
  -25.3580  -31.3400   26.0920 C   0  0  0  0  0  1  0  0  0  0  0  0
  -26.8780  -30.1710   24.4880 C   0  0  0  0  0  1  0  0  0  0  0  0
  -27.6210  -32.2730   25.5630 C   0  0  0  0  0  1  0  0  0  0  0  0
  2  4  1  0
  3  7  2  0
  4  5  2  0
  4  8  1  0
  5 48  1  0
  6  3  1  0
  6  2  2  0
  7  1  1  0
  7  5  1  0
  9 15  1  0
 10 15  1  0
 11 12  1  0
 11 10  1  0
 13 12  1  0
 13 22  1  0
 13 14  1  0
 15 14  1  0
 16  9  2  0
 17  9  1  0
 17  6  1  0
 18 17  1  0
 19 20  2  0
 20 39  1  0
 21 20  1  0
 21 24  1  0
 22 19  1  0
 22 23  1  0
 23 21  2  0
 24 25  1  0
 25 26  2  0
 27 30  1  0
 27 26  1  0
 28 27  2  0
 29 28  1  0
 29 24  2  0
 30 31  1  0
 31 36  2  0
 31 32  1  0
 32 33  2  0
 33 34  1  0
 34 38  1  0
 35 34  2  0
 36 35  1  0
 37 36  1  0
 39 40  1  0
 40 43  1  0
 40 42  1  0
 41 39  2  0
 44 45  1  0
 44 19  1  0
 46 44  1  0
 48 47  1  0
 49  1  1  0
 49 50  1  0
 53 51  1  6
 53 54  1  0
 53 52  1  0
 53 50  1  0
 55 57  1  0
 55 54  1  0
 56 67  2  0
 57 62  1  0
 58 66  1  0
 58 68  1  0
 59 65  1  0
 59 61  1  0
 60 66  1  0
 61 60  1  0
 62 61  2  0
 63 64  1  0
 63 57  2  0
 64 59  2  0
 65 58  1  0
 66 56  1  0
 68 70  2  0
 69 68  1  0
 71 69  1  0
 72 81  2  0
 72 77  1  0
 73 69  1  0
 73 77  1  0
 74 73  1  0
 75 76  1  0
 75 74  1  0
 76 72  1  0
 77 78  2  0
 78 79  1  0
 80 79  2  0
 81 80  1  0
 82 56  1  0
 82 83  1  0
 82 92  1  0
 83 86  1  0
 84 88  1  0
 84 83  1  0
 85 84  2  0
 88 87  1  0
 90 88  1  0
 90 91  1  0
 90 89  1  0
 92 95  1  1
 92 93  1  0
 94 92  1  0
M  ISO  4   9 100  17 100  54 101  55 101
M  END
>  <TORSDO>  (2) 
F 22

>  <SCORE>  (2) 
-11.470

>  <name>  (2) 
1

>  <ligand_id>  (2) 
1

>  <original_smiles>  (2) 
[H]c1c([H])c([H])c2c(c1[H])C([H])([H])C([H])([H])C([H])([H])C2([H])N([H])C(=O)C1([H])N(C(=O)C([H])(N([H])C(=O)C([H])(N([H])C([H])([H])[H])C([H])([H])[H])C(C([H])([H])[H])(C([H])([H])[H])C([H])([H])[H])C([H])([H])c2c([H])c(OC([H])([H])C(C([H])([H])[H])(C([H])([H])[H])C([H])([H])C([H])([H])Oc3c([H])c(N([H])C(=O)N4C([H])([H])C([H])([H])C([H])([H])C([H])(n5nc(-c6c([H])c([H])c(Oc7c([H])c([H])c(F)c([H])c7F)c([H])c6[H])c(C(=O)N([H])[H])c5N([H])[H])C4([H])[H])c([H])c(C([H])([H])[H])c3C([H])([H])C([H])([H])[H])c([H])c([H])c2C1([H])[H]

>  <smiles>  (2) 
[H]c1c([H])c([H])c2c(c1[H])C([H])([H])C([H])([H])C([H])([H])C2([H])N([H])C(=O)C1([H])N(C(=O)C([H])(N([H])C(=O)C([H])(N([H])C([H])([H])[H])C([H])([H])[H])C(C([H])([H])[H])(C([H])([H])[H])C([H])([H])[H])C([H])([H])c2c([H])c(OC([H])([H])C(C([H])([H])[H])(C([H])([H])[H])C([H])([H])C([H])([H])Oc3c([H])c(N([H])C(=O)N4C([H])([H])C([H])([H])C([H])([H])C([H])(n5nc(-c6c([H])c([H])c(Oc7c([H])c([H])c(F)c([H])c7F)c([H])c6[H])c(C(=O)N([H])[H])c5N([H])[H])C4([H])[H])c([H])c(C([H])([H])[H])c3C([H])([H])C([H])([H])[H])c([H])c([H])c2C1([H])[H]

$$$$
2:0:0
     RDKit          3D

 92101  0  0  1  0  0  0  0  0999 V2000
  -32.8620  -21.2970   22.2050 C   0  0  0  0  0  2  0  0  0  0  0  0
  -32.0590  -20.7270   21.0550 C   0  0  0  0  0  3  0  0  0  0  0  0
  -31.4750  -21.8240   21.9170 C   0  0  0  0  0  3  0  0  0  0  0  0
  -32.3170  -18.2560   21.5000 C   0  0  0  0  0  3  0  0  0  0  0  0
  -30.1800  -19.0770   20.6810 C   0  0  0  0  0  3  0  0  0  0  0  0
  -31.8210  -16.9400   21.4810 C   0  0  0  0  0  3  0  0  0  0  0  0
  -29.6780  -17.7590   20.6630 C   0  0  0  0  0  3  0  0  0  0  0  0
  -31.5060  -19.3350   21.0870 C   0  0  0  0  0  0  0  0  0  0  0  0
  -30.5060  -16.6800   21.0340 C   0  0  0  0  0  0  0  0  0  0  0  0
  -30.5770  -14.3950   20.1820 C   0  0  0  0  0  0  0  0  0  0  0  0
  -30.1450  -12.3320   18.9180 C   0  0  0  0  0  2  0  0  0  0  0  0
  -29.1350  -12.6170   17.7920 C   0  0  0  0  0  2  0  0  0  0  0  0
  -27.6930  -12.4520   18.3070 C   0  0  0  0  0  2  0  0  0  0  0  0
  -27.4400  -13.2170   19.6330 C   0  0  0  0  0  3  0  0  0  0  0  0
  -28.5630  -12.9440   20.6610 C   0  0  0  0  0  2  0  0  0  0  0  0
  -29.8530  -13.2570   20.0240 N   0  0  0  0  0  0  0  0  0  0  0  0
  -31.6400  -14.5960   19.5880 O   0  0  0  0  0  0  0  0  0  0  0  0
  -30.0150  -15.3510   20.9390 N   0  0  0  0  0  0  0  0  0  0  0  0
  -29.0810  -15.1670   21.2700 H   0  0  0  0  0  0  0  0  0  0  0  0
  -25.0710  -13.7670   20.4820 C   0  0  0  0  0  0  0  0  0  0  0  0
  -24.0380  -12.9660   20.8910 C   0  0  0  0  0  0  0  0  0  0  0  0
  -24.5210  -11.6250   20.8120 C   0  0  0  0  0  0  0  0  0  0  0  0
  -26.1200  -12.9100   20.1810 N   0  0  0  0  0  0  0  0  0  0  0  0
  -25.7930  -11.6160   20.4350 N   0  0  0  0  0  0  0  0  0  0  0  0
  -23.8300  -10.3460   21.0190 C   0  0  0  0  0  0  0  0  0  0  0  0
  -24.3050   -9.3930   21.9470 C   0  0  0  0  0  3  0  0  0  0  0  0
  -23.6130   -8.1790   22.1450 C   0  0  0  0  0  3  0  0  0  0  0  0
  -22.4310   -7.9090   21.4120 C   0  0  0  0  0  0  0  0  0  0  0  0
  -21.9770   -8.8500   20.4740 C   0  0  0  0  0  3  0  0  0  0  0  0
  -22.6700  -10.0560   20.2740 C   0  0  0  0  0  3  0  0  0  0  0  0
  -21.7090   -6.7440   21.5190 O   0  0  0  0  0  0  0  0  0  0  0  0
  -21.6810   -6.0170   22.6810 C   0  0  0  0  0  0  0  0  0  0  0  0
  -21.2300   -6.5740   23.8970 C   0  0  0  0  0  3  0  0  0  0  0  0
  -21.1500   -5.7710   25.0530 C   0  0  0  0  0  3  0  0  0  0  0  0
  -21.5110   -4.4110   24.9930 C   0  0  0  0  0  0  0  0  0  0  0  0
  -21.9550   -3.8530   23.7820 C   0  0  0  0  0  3  0  0  0  0  0  0
  -22.0360   -4.6530   22.6280 C   0  0  0  0  0  0  0  0  0  0  0  0
  -22.4440   -4.1050   21.4580 F   0  0  0  0  0  0  0  0  0  0  0  0
  -21.4260   -3.6390   26.1010 F   0  0  0  0  0  0  0  0  0  0  0  0
  -22.6480  -13.4120   21.2470 C   0  0  0  0  0  0  0  0  0  0  0  0
  -21.9850  -12.6900   22.1430 N   0  0  0  0  0  0  0  0  0  0  0  0
  -22.1610  -14.4360   20.7690 O   0  0  0  0  0  0  0  0  0  0  0  0
  -22.3890  -11.8580   22.5490 H   0  0  0  0  0  0  0  0  0  0  0  0
  -21.0580  -12.9720   22.4280 H   0  0  0  0  0  0  0  0  0  0  0  0
  -25.2060  -15.1430   20.3220 N   0  0  0  0  0  0  0  0  0  0  0  0
  -24.4440  -15.7920   20.4930 H   0  0  0  0  0  0  0  0  0  0  0  0
  -26.0490  -15.6020   20.0010 H   0  0  0  0  0  0  0  0  0  0  0  0
  -31.2860  -23.2260   21.3720 C   0  0  0  0  0  2  0  0  0  0  0  0
  -29.8500  -23.4950   20.9020 C   0  0  0  0  0  2  0  0  0  0  0  0
  -29.6920  -24.9240   20.3630 C   0  0  0  0  0  2  0  0  0  0  0  0
  -28.2370  -25.3400   20.1150 C   0  0  0  0  0  2  0  0  0  0  0  0
  -28.2640  -26.7460   19.9260 O   0  0  0  0  0  0  0  0  0  0  0  0
  -24.5320  -31.8080   23.2000 C   0  0  0  0  0  0  0  0  0  0  0  0
  -27.0680  -27.4150   19.9920 C   0  0  0  0  0  0  0  0  0  0  0  0
  -23.2710  -30.4350   21.5740 C   0  0  0  0  0  3  0  0  0  0  0  0
  -24.6740  -28.9030   20.0970 C   0  0  0  0  0  0  0  0  0  0  0  0
  -25.7880  -30.7900   21.3070 C   0  0  0  0  0  2  0  0  0  0  0  0
  -25.8470  -29.4270   20.6520 C   0  0  0  0  0  0  0  0  0  0  0  0
  -27.0480  -28.6900   20.5920 C   0  0  0  0  0  3  0  0  0  0  0  0
  -25.8750  -26.8890   19.4490 C   0  0  0  0  0  3  0  0  0  0  0  0
  -24.6800  -27.6320   19.4950 C   0  0  0  0  0  3  0  0  0  0  0  0
  -23.4350  -29.7650   20.1840 C   0  0  0  0  0  2  0  0  0  0  0  0
  -24.5500  -31.0240   22.0860 N   0  0  0  0  0  0  0  0  0  0  0  0
  -23.4680  -32.0790   23.7750 O   0  0  0  0  0  0  0  0  0  0  0  0
  -22.6410  -29.4050   22.5380 C   0  0  0  0  0  0  0  0  0  0  0  0
  -21.3160  -29.2160   22.4260 N   0  0  0  0  0  0  0  0  0  0  0  0
  -23.3390  -28.7780   23.3400 O   0  0  0  0  0  0  0  0  0  0  0  0
  -20.8160  -29.7710   21.7450 H   0  0  0  0  0  0  0  0  0  0  0  0
  -17.9540  -28.0050   22.9510 C   0  0  0  0  0  0  0  0  0  0  0  0
  -20.5120  -28.2730   23.2010 C   0  0  0  0  0  3  0  0  0  0  0  0
  -20.6170  -26.8440   22.6190 C   0  0  0  0  0  2  0  0  0  0  0  0
  -19.5070  -26.5190   21.6130 C   0  0  0  0  0  2  0  0  0  0  0  0
  -18.1290  -26.6590   22.2690 C   0  0  0  0  0  2  0  0  0  0  0  0
  -19.0740  -28.7710   23.3730 C   0  0  0  0  0  0  0  0  0  0  0  0
  -18.8570  -30.0330   23.9670 C   0  0  0  0  0  3  0  0  0  0  0  0
  -17.5510  -30.5300   24.1440 C   0  0  0  0  0  3  0  0  0  0  0  0
  -16.4460  -29.7610   23.7410 C   0  0  0  0  0  3  0  0  0  0  0  0
  -16.6480  -28.5020   23.1490 C   0  0  0  0  0  3  0  0  0  0  0  0
  -25.8400  -32.4200   23.7940 C   0  0  0  0  0  3  0  0  0  0  0  0
  -25.5460  -33.8100   24.1680 N   0  0  0  0  0  0  0  0  0  0  0  0
  -25.8700  -34.8800   23.4290 C   0  0  0  0  0  0  0  0  0  0  0  0
  -26.5200  -34.8010   22.3830 O   0  0  0  0  0  0  0  0  0  0  0  0
  -24.9700  -33.9480   24.9850 H   0  0  0  0  0  0  0  0  0  0  0  0
  -24.1560  -36.6940   23.1360 C   0  0  0  0  0  1  0  0  0  0  0  0
  -25.3950  -36.2560   23.9310 C   0  0  0  0  0  3  0  0  0  0  0  0
  -27.5450  -37.0900   24.7760 C   0  0  0  0  0  1  0  0  0  0  0  0
  -26.4330  -37.3070   23.8530 N   0  0  0  0  0  0  0  0  0  0  0  0
  -26.0320  -38.2200   24.0510 H   0  0  0  0  0  0  0  0  0  0  0  0
  -26.4000  -31.6150   25.0290 C   0  0  1  0  0  0  0  0  0  0  0  0
  -25.3430  -31.3420   26.1260 C   0  0  0  0  0  1  0  0  0  0  0  0
  -26.9750  -30.2540   24.5750 C   0  0  0  0  0  1  0  0  0  0  0  0
  -27.5690  -32.3940   25.6760 C   0  0  0  0  0  1  0  0  0  0  0  0
  2  8  1  0
  2  3  1  0
  2  1  1  0
  3 48  1  0
  3  1  1  0
  5  8  1  0
  6  4  1  0
  7  5  2  0
  7  9  1  0
  8  4  2  0
  9  6  2  0
 10 18  1  0
 11 16  1  0
 12 13  1  0
 12 11  1  0
 14 13  1  0
 14 23  1  0
 14 15  1  0
 16 10  1  0
 16 15  1  0
 17 10  2  0
 18  9  1  0
 18 19  1  0
 20 21  2  0
 21 40  1  0
 22 21  1  0
 22 25  1  0
 23 24  1  0
 23 20  1  0
 24 22  2  0
 25 26  1  0
 26 27  2  0
 28 31  1  0
 28 27  1  0
 29 28  2  0
 30 29  1  0
 30 25  2  0
 31 32  1  0
 32 33  1  0
 33 34  2  0
 35 34  1  0
 35 39  1  0
 36 35  2  0
 37 32  2  0
 37 36  1  0
 38 37  1  0
 40 41  1  0
 41 44  1  0
 41 43  1  0
 42 40  2  0
 45 20  1  0
 45 46  1  0
 47 45  1  0
 49 48  1  0
 50 49  1  0
 51 50  1  0
 52 54  1  0
 52 51  1  0
 53 64  2  0
 54 59  1  0
 55 63  1  0
 55 65  1  0
 56 62  1  0
 56 58  1  0
 57 63  1  0
 58 57  1  0
 59 58  2  0
 60 61  1  0
 60 54  2  0
 61 56  2  0
 62 55  1  0
 63 53  1  0
 65 67  2  0
 66 65  1  0
 68 66  1  0
 69 78  2  0
 69 74  1  0
 70 66  1  0
 70 74  1  0
 71 70  1  0
 72 73  1  0
 72 71  1  0
 73 69  1  0
 74 75  2  0
 75 76  1  0
 77 76  2  0
 78 77  1  0
 79 53  1  0
 79 80  1  0
 79 89  1  0
 80 83  1  0
 81 85  1  0
 81 80  1  0
 82 81  2  0
 85 84  1  0
 87 85  1  0
 87 88  1  0
 87 86  1  0
 89 92  1  1
 89 90  1  0
 91 89  1  0
M  ISO  4  10 100  18 100  51 101  52 101
M  END
>  <TORSDO>  (3) 
F 21

>  <SCORE>  (3) 
-12.468

>  <name>  (3) 
2

>  <ligand_id>  (3) 
2

>  <original_smiles>  (3) 
[H]c1c([H])c([H])c2c(c1[H])C([H])([H])C([H])([H])C([H])([H])C2([H])N([H])C(=O)C1([H])N(C(=O)C([H])(N([H])C(=O)C([H])(N([H])C([H])([H])[H])C([H])([H])[H])C(C([H])([H])[H])(C([H])([H])[H])C([H])([H])[H])C([H])([H])c2c([H])c(OC([H])([H])C([H])([H])C([H])([H])C([H])([H])C3([H])C([H])([H])C3([H])c3c([H])c([H])c(N([H])C(=O)N4C([H])([H])C([H])([H])C([H])([H])C([H])(n5nc(-c6c([H])c([H])c(Oc7c([H])c([H])c(F)c([H])c7F)c([H])c6[H])c(C(=O)N([H])[H])c5N([H])[H])C4([H])[H])c([H])c3[H])c([H])c([H])c2C1([H])[H]

>  <smiles>  (3) 
[H]c1c([H])c([H])c2c(c1[H])C([H])([H])C([H])([H])C([H])([H])C2([H])N([H])C(=O)C1([H])N(C(=O)C([H])(N([H])C(=O)C([H])(N([H])C([H])([H])[H])C([H])([H])[H])C(C([H])([H])[H])(C([H])([H])[H])C([H])([H])[H])C([H])([H])c2c([H])c(OC([H])([H])C([H])([H])C([H])([H])C([H])([H])C3([H])C([H])([H])C3([H])c3c([H])c([H])c(N([H])C(=O)N4C([H])([H])C([H])([H])C([H])([H])C([H])(n5nc(-c6c([H])c([H])c(Oc7c([H])c([H])c(F)c([H])c7F)c([H])c6[H])c(C(=O)N([H])[H])c5N([H])[H])C4([H])[H])c([H])c3[H])c([H])c([H])c2C1([H])[H]

$$$$
3:0:0
     RDKit          3D

 92100  0  0  1  0  0  0  0  0999 V2000
  -28.9530  -21.0380   21.1490 C   0  0  0  0  0  2  0  0  0  0  0  0
  -28.6380  -18.7090   20.1980 C   0  0  0  0  0  3  0  0  0  0  0  0
  -28.9020  -17.3240   20.1830 C   0  0  0  0  0  3  0  0  0  0  0  0
  -30.8140  -17.6720   21.6450 C   0  0  0  0  0  3  0  0  0  0  0  0
  -29.4240  -19.5880   20.9740 C   0  0  0  0  0  0  0  0  0  0  0  0
  -30.5480  -19.0660   21.6690 C   0  0  0  0  0  0  0  0  0  0  0  0
  -29.9710  -16.7910   20.9330 C   0  0  0  0  0  0  0  0  0  0  0  0
  -31.4440  -19.9710   22.4970 C   0  0  0  0  0  1  0  0  0  0  0  0
  -30.6820  -14.5060   20.3020 C   0  0  0  0  0  0  0  0  0  0  0  0
  -30.3580  -12.3930   19.0630 C   0  0  0  0  0  2  0  0  0  0  0  0
  -29.3740  -12.6240   17.8950 C   0  0  0  0  0  2  0  0  0  0  0  0
  -27.9120  -12.4790   18.3640 C   0  0  0  0  0  2  0  0  0  0  0  0
  -27.6160  -13.2790   19.6610 C   0  0  0  0  0  3  0  0  0  0  0  0
  -28.6990  -13.0030   20.7280 C   0  0  0  0  0  2  0  0  0  0  0  0
  -30.0150  -13.3290   20.1440 N   0  0  0  0  0  0  0  0  0  0  0  0
  -31.7460  -14.7670   19.7330 O   0  0  0  0  0  0  0  0  0  0  0  0
  -30.0650  -15.3830   21.1130 N   0  0  0  0  0  0  0  0  0  0  0  0
  -29.2670  -14.9670   21.5680 H   0  0  0  0  0  0  0  0  0  0  0  0
  -25.2350  -13.8860   20.4360 C   0  0  0  0  0  0  0  0  0  0  0  0
  -24.1750  -13.1110   20.8260 C   0  0  0  0  0  0  0  0  0  0  0  0
  -24.6340  -11.7600   20.7720 C   0  0  0  0  0  0  0  0  0  0  0  0
  -26.2720  -13.0060   20.1690 N   0  0  0  0  0  0  0  0  0  0  0  0
  -25.9150  -11.7210   20.4270 N   0  0  0  0  0  0  0  0  0  0  0  0
  -23.9120  -10.4970   20.9730 C   0  0  0  0  0  0  0  0  0  0  0  0
  -24.3540   -9.5340   21.9070 C   0  0  0  0  0  3  0  0  0  0  0  0
  -23.6350   -8.3340   22.0920 C   0  0  0  0  0  3  0  0  0  0  0  0
  -22.4590   -8.0880   21.3440 C   0  0  0  0  0  0  0  0  0  0  0  0
  -22.0350   -9.0400   20.4010 C   0  0  0  0  0  3  0  0  0  0  0  0
  -22.7540  -10.2330   20.2130 C   0  0  0  0  0  3  0  0  0  0  0  0
  -21.7110   -6.9400   21.4390 O   0  0  0  0  0  0  0  0  0  0  0  0
  -21.6520   -6.2130   22.6010 C   0  0  0  0  0  0  0  0  0  0  0  0
  -21.1970   -6.7790   23.8120 C   0  0  0  0  0  3  0  0  0  0  0  0
  -21.0880   -5.9780   24.9660 C   0  0  0  0  0  3  0  0  0  0  0  0
  -21.4230   -4.6110   24.9100 C   0  0  0  0  0  0  0  0  0  0  0  0
  -21.8710   -4.0440   23.7040 C   0  0  0  0  0  3  0  0  0  0  0  0
  -21.9830   -4.8430   22.5530 C   0  0  0  0  0  0  0  0  0  0  0  0
  -22.3940   -4.2870   21.3880 F   0  0  0  0  0  0  0  0  0  0  0  0
  -21.3100   -3.8390   26.0170 F   0  0  0  0  0  0  0  0  0  0  0  0
  -22.7860  -13.5870   21.1410 C   0  0  0  0  0  0  0  0  0  0  0  0
  -22.0790  -12.8840   22.0180 N   0  0  0  0  0  0  0  0  0  0  0  0
  -22.3340  -14.6190   20.6430 O   0  0  0  0  0  0  0  0  0  0  0  0
  -22.4570  -12.0510   22.4450 H   0  0  0  0  0  0  0  0  0  0  0  0
  -21.1480  -13.1850   22.2680 H   0  0  0  0  0  0  0  0  0  0  0  0
  -25.3950  -15.2570   20.2690 N   0  0  0  0  0  0  0  0  0  0  0  0
  -24.6320  -15.9120   20.4050 H   0  0  0  0  0  0  0  0  0  0  0  0
  -26.2410  -15.7000   19.9340 H   0  0  0  0  0  0  0  0  0  0  0  0
  -29.6010  -22.0950   20.2210 C   0  0  0  0  0  2  0  0  0  0  0  0
  -29.0140  -23.5110   20.4100 C   0  0  0  0  0  0  0  0  0  0  0  0
  -28.0200  -23.7020   21.1190 O   0  0  0  0  0  0  0  0  0  0  0  0
  -29.7040  -24.6780   19.6860 C   0  0  0  0  0  2  0  0  0  0  0  0
  -28.7420  -25.7740   19.1620 C   0  0  0  0  0  2  0  0  0  0  0  0
  -28.4560  -26.7820   20.1510 O   0  0  0  0  0  0  0  0  0  0  0  0
  -24.5770  -31.9120   23.2250 C   0  0  0  0  0  0  0  0  0  0  0  0
  -27.2600  -27.4820   20.1220 C   0  0  0  0  0  0  0  0  0  0  0  0
  -23.3840  -30.5080   21.5760 C   0  0  0  0  0  3  0  0  0  0  0  0
  -24.8490  -28.9820   20.1540 C   0  0  0  0  0  0  0  0  0  0  0  0
  -25.9110  -30.8740   21.3920 C   0  0  0  0  0  2  0  0  0  0  0  0
  -26.0040  -29.5040   20.7460 C   0  0  0  0  0  0  0  0  0  0  0  0
  -27.2060  -28.7580   20.7350 C   0  0  0  0  0  3  0  0  0  0  0  0
  -26.0720  -26.9690   19.5460 C   0  0  0  0  0  3  0  0  0  0  0  0
  -24.8760  -27.7110   19.5590 C   0  0  0  0  0  3  0  0  0  0  0  0
  -23.6020  -29.8360   20.1960 C   0  0  0  0  0  2  0  0  0  0  0  0
  -24.6420  -31.1120   22.1230 N   0  0  0  0  0  0  0  0  0  0  0  0
  -23.4910  -32.1780   23.7600 O   0  0  0  0  0  0  0  0  0  0  0  0
  -22.7330  -29.4810   22.5300 C   0  0  0  0  0  0  0  0  0  0  0  0
  -21.4100  -29.2940   22.3960 N   0  0  0  0  0  0  0  0  0  0  0  0
  -23.4150  -28.8570   23.3470 O   0  0  0  0  0  0  0  0  0  0  0  0
  -20.9210  -29.8500   21.7090 H   0  0  0  0  0  0  0  0  0  0  0  0
  -18.0370  -28.0920   22.8840 C   0  0  0  0  0  0  0  0  0  0  0  0
  -20.5940  -28.3520   23.1620 C   0  0  0  0  0  3  0  0  0  0  0  0
  -20.6990  -26.9230   22.5790 C   0  0  0  0  0  2  0  0  0  0  0  0
  -19.6010  -26.6040   21.5620 C   0  0  0  0  0  2  0  0  0  0  0  0
  -18.2170  -26.7460   22.2030 C   0  0  0  0  0  2  0  0  0  0  0  0
  -19.1540  -28.8540   23.3200 C   0  0  0  0  0  0  0  0  0  0  0  0
  -18.9340  -30.1140   23.9150 C   0  0  0  0  0  3  0  0  0  0  0  0
  -17.6280  -30.6130   24.0800 C   0  0  0  0  0  3  0  0  0  0  0  0
  -16.5250  -29.8500   23.6600 C   0  0  0  0  0  3  0  0  0  0  0  0
  -16.7310  -28.5910   23.0680 C   0  0  0  0  0  3  0  0  0  0  0  0
  -25.8570  -32.5480   23.8500 C   0  0  0  0  0  3  0  0  0  0  0  0
  -25.5420  -33.9460   24.1750 N   0  0  0  0  0  0  0  0  0  0  0  0
  -25.8800  -34.9960   23.4140 C   0  0  0  0  0  0  0  0  0  0  0  0
  -26.5600  -34.8910   22.3900 O   0  0  0  0  0  0  0  0  0  0  0  0
  -24.9400  -34.1010   24.9680 H   0  0  0  0  0  0  0  0  0  0  0  0
  -24.1580  -36.7890   23.0290 C   0  0  0  0  0  1  0  0  0  0  0  0
  -25.3850  -36.3850   23.8630 C   0  0  0  0  0  3  0  0  0  0  0  0
  -27.5060  -37.2680   24.7270 C   0  0  0  0  0  1  0  0  0  0  0  0
  -26.4180  -37.4390   23.7680 N   0  0  0  0  0  0  0  0  0  0  0  0
  -26.0080  -38.3570   23.9150 H   0  0  0  0  0  0  0  0  0  0  0  0
  -26.3700  -31.7810   25.1300 C   0  0  1  0  0  0  0  0  0  0  0  0
  -25.2720  -31.5440   26.1930 C   0  0  0  0  0  1  0  0  0  0  0  0
  -26.9570  -30.4040   24.7400 C   0  0  0  0  0  1  0  0  0  0  0  0
  -27.5150  -32.5800   25.7950 C   0  0  0  0  0  1  0  0  0  0  0  0
  2  5  1  0
  3  2  2  0
  3  7  1  0
  4  6  1  0
  5  1  1  0
  5  6  2  0
  6  8  1  0
  7 17  1  0
  7  4  2  0
  9 17  1  0
 10 15  1  0
 11 12  1  0
 11 10  1  0
 13 12  1  0
 13 22  1  0
 13 14  1  0
 15  9  1  0
 15 14  1  0
 16  9  2  0
 17 18  1  0
 19 20  2  0
 20 39  1  0
 21 20  1  0
 21 24  1  0
 22 23  1  0
 22 19  1  0
 23 21  2  0
 24 25  1  0
 25 26  2  0
 27 30  1  0
 27 26  1  0
 28 27  2  0
 29 28  1  0
 29 24  2  0
 30 31  1  0
 31 32  1  0
 32 33  2  0
 34 33  1  0
 34 38  1  0
 35 34  2  0
 36 31  2  0
 36 35  1  0
 37 36  1  0
 39 40  1  0
 40 43  1  0
 40 42  1  0
 41 39  2  0
 44 45  1  0
 44 19  1  0
 46 44  1  0
 47 48  1  0
 47  1  1  0
 48 49  2  0
 50 48  1  0
 51 50  1  0
 51 52  1  0
 53 64  2  0
 54 52  1  0
 54 59  1  0
 55 63  1  0
 55 65  1  0
 56 62  1  0
 56 58  1  0
 57 63  1  0
 58 57  1  0
 59 58  2  0
 60 61  1  0
 60 54  2  0
 61 56  2  0
 62 55  1  0
 63 53  1  0
 65 67  2  0
 66 65  1  0
 68 66  1  0
 69 78  2  0
 69 74  1  0
 70 66  1  0
 70 74  1  0
 71 70  1  0
 72 73  1  0
 72 71  1  0
 73 69  1  0
 74 75  2  0
 75 76  1  0
 77 76  2  0
 78 77  1  0
 79 53  1  0
 79 80  1  0
 79 89  1  0
 80 83  1  0
 81 85  1  0
 81 80  1  0
 82 81  2  0
 85 84  1  0
 87 85  1  0
 87 88  1  0
 87 86  1  0
 89 92  1  1
 89 90  1  0
 91 89  1  0
M  ISO  4   9 100  17 100  51 101  52 101
M  END
>  <TORSDO>  (4) 
F 21

>  <SCORE>  (4) 
-13.799

>  <name>  (4) 
3

>  <ligand_id>  (4) 
3

>  <original_smiles>  (4) 
[H]c1c([H])c([H])c2c(c1[H])C([H])([H])C([H])([H])C([H])([H])C2([H])N([H])C(=O)C1([H])N(C(=O)C([H])(N([H])C(=O)C([H])(N([H])C([H])([H])[H])C([H])([H])[H])C(C([H])([H])[H])(C([H])([H])[H])C([H])([H])[H])C([H])([H])c2c([H])c(OC([H])([H])C([H])([H])C(=O)C([H])([H])C([H])([H])c3c([H])c([H])c(N([H])C(=O)N4C([H])([H])C([H])([H])C([H])([H])C([H])(n5nc(-c6c([H])c([H])c(Oc7c([H])c([H])c(F)c([H])c7F)c([H])c6[H])c(C(=O)N([H])[H])c5N([H])[H])C4([H])[H])c([H])c3C([H])([H])[H])c([H])c([H])c2C1([H])[H]

>  <smiles>  (4) 
[H]c1c([H])c([H])c2c(c1[H])C([H])([H])C([H])([H])C([H])([H])C2([H])N([H])C(=O)C1([H])N(C(=O)C([H])(N([H])C(=O)C([H])(N([H])C([H])([H])[H])C([H])([H])[H])C(C([H])([H])[H])(C([H])([H])[H])C([H])([H])[H])C([H])([H])c2c([H])c(OC([H])([H])C([H])([H])C(=O)C([H])([H])C([H])([H])c3c([H])c([H])c(N([H])C(=O)N4C([H])([H])C([H])([H])C([H])([H])C([H])(n5nc(-c6c([H])c([H])c(Oc7c([H])c([H])c(F)c([H])c7F)c([H])c6[H])c(C(=O)N([H])[H])c5N([H])[H])C4([H])[H])c([H])c3C([H])([H])[H])c([H])c([H])c2C1([H])[H]

$$$$
4:0:0
     RDKit          3D

 95103  0  0  1  0  0  0  0  0999 V2000
  -30.3410  -19.2670   21.4290 C   0  0  0  0  0  3  0  0  0  0  0  0
  -30.1490  -17.6590   19.6050 C   0  0  0  0  0  3  0  0  0  0  0  0
  -30.8820  -18.2670   22.2620 C   0  0  0  0  0  0  0  0  0  0  0  0
  -31.0580  -16.9430   21.7720 C   0  0  0  0  0  0  0  0  0  0  0  0
  -30.6560  -16.6110   20.4440 C   0  0  0  0  0  0  0  0  0  0  0  0
  -29.9790  -19.0040   20.0930 C   0  0  0  0  0  0  0  0  0  0  0  0
  -31.1420  -14.3600   19.1830 C   0  0  0  0  0  0  0  0  0  0  0  0
  -30.6150  -12.2230   17.9970 C   0  0  0  0  0  2  0  0  0  0  0  0
  -29.4480  -12.4800   17.0170 C   0  0  0  0  0  2  0  0  0  0  0  0
  -28.0770  -12.3700   17.7200 C   0  0  0  0  0  2  0  0  0  0  0  0
  -28.0350  -13.1580   19.0550 C   0  0  0  0  0  3  0  0  0  0  0  0
  -29.2770  -12.8080   19.9020 C   0  0  0  0  0  2  0  0  0  0  0  0
  -30.4790  -13.1610   19.1220 N   0  0  0  0  0  0  0  0  0  0  0  0
  -32.0920  -14.6320   18.4400 O   0  0  0  0  0  0  0  0  0  0  0  0
  -30.6680  -15.1880   20.1480 N   0  0  0  0  0  0  0  0  0  0  0  0
  -30.1010  -14.6690   20.7970 H   0  0  0  0  0  0  0  0  0  0  0  0
  -25.9000  -13.8510   20.3160 C   0  0  0  0  0  0  0  0  0  0  0  0
  -24.8580  -13.1190   20.8250 C   0  0  0  0  0  0  0  0  0  0  0  0
  -25.1680  -11.7530   20.5540 C   0  0  0  0  0  0  0  0  0  0  0  0
  -26.7850  -12.9280   19.7780 N   0  0  0  0  0  0  0  0  0  0  0  0
  -26.3550  -11.6550   19.9680 N   0  0  0  0  0  0  0  0  0  0  0  0
  -24.3740  -10.5350   20.7610 C   0  0  0  0  0  0  0  0  0  0  0  0
  -24.7920   -9.5280   21.6570 C   0  0  0  0  0  3  0  0  0  0  0  0
  -24.0040   -8.3750   21.8580 C   0  0  0  0  0  3  0  0  0  0  0  0
  -22.7840   -8.2210   21.1590 C   0  0  0  0  0  0  0  0  0  0  0  0
  -22.3820   -9.2140   20.2500 C   0  0  0  0  0  3  0  0  0  0  0  0
  -23.1710  -10.3610   20.0480 C   0  0  0  0  0  3  0  0  0  0  0  0
  -21.9650   -7.1220   21.2690 O   0  0  0  0  0  0  0  0  0  0  0  0
  -21.7770   -6.4820   22.4680 C   0  0  0  0  0  0  0  0  0  0  0  0
  -21.3060   -7.1650   23.6110 C   0  0  0  0  0  3  0  0  0  0  0  0
  -21.0620   -6.4560   24.8040 C   0  0  0  0  0  3  0  0  0  0  0  0
  -21.2760   -5.0650   24.8520 C   0  0  0  0  0  0  0  0  0  0  0  0
  -21.7390   -4.3830   23.7130 C   0  0  0  0  0  3  0  0  0  0  0  0
  -21.9860   -5.0900   22.5240 C   0  0  0  0  0  0  0  0  0  0  0  0
  -22.4110   -4.4250   21.4220 F   0  0  0  0  0  0  0  0  0  0  0  0
  -21.0330   -4.3810   25.9950 F   0  0  0  0  0  0  0  0  0  0  0  0
  -23.6020  -13.6630   21.4430 C   0  0  0  0  0  0  0  0  0  0  0  0
  -23.0400  -12.9520   22.4170 N   0  0  0  0  0  0  0  0  0  0  0  0
  -23.1380  -14.7470   21.1010 O   0  0  0  0  0  0  0  0  0  0  0  0
  -23.4300  -12.0710   22.7160 H   0  0  0  0  0  0  0  0  0  0  0  0
  -22.2050  -13.3010   22.8690 H   0  0  0  0  0  0  0  0  0  0  0  0
  -26.1550  -15.2170   20.2570 N   0  0  0  0  0  0  0  0  0  0  0  0
  -25.5050  -15.9040   20.6230 H   0  0  0  0  0  0  0  0  0  0  0  0
  -26.9570  -15.6380   19.8090 H   0  0  0  0  0  0  0  0  0  0  0  0
  -30.7410  -14.6530   22.8550 C   0  0  0  0  0  1  0  0  0  0  0  0
  -31.6740  -15.8620   22.6740 C   0  0  0  0  0  2  0  0  0  0  0  0
  -32.5990  -19.4070   23.7390 C   0  0  0  0  0  1  0  0  0  0  0  0
  -31.2500  -18.6770   23.6890 C   0  0  0  0  0  2  0  0  0  0  0  0
  -29.5140  -20.0460   19.2820 O   0  0  0  0  0  0  0  0  0  0  0  0
  -28.7600  -21.1690   19.8560 C   0  0  0  0  0  2  0  0  0  0  0  0
  -29.5170  -22.5410   19.9110 C   0  0  0  0  0  0  0  0  0  0  0  0
  -30.6040  -22.6190   20.4920 O   0  0  0  0  0  0  0  0  0  0  0  0
  -28.9240  -23.8070   19.1870 C   0  0  0  0  0  3  0  0  0  0  0  0
  -28.3790  -25.0130   20.0470 C   0  0  0  0  0  3  0  0  0  0  0  0
  -28.2320  -26.2870   19.3250 O   0  0  0  0  0  0  0  0  0  0  0  0
  -24.6960  -31.2460   23.1440 C   0  0  0  0  0  0  0  0  0  0  0  0
  -27.0730  -27.0490   19.5000 C   0  0  0  0  0  0  0  0  0  0  0  0
  -23.3580  -30.0040   21.4800 C   0  0  0  0  0  3  0  0  0  0  0  0
  -24.6910  -28.5940   19.8080 C   0  0  0  0  0  0  0  0  0  0  0  0
  -25.8680  -30.3750   21.1120 C   0  0  0  0  0  2  0  0  0  0  0  0
  -25.8980  -29.0580   20.3470 C   0  0  0  0  0  0  0  0  0  0  0  0
  -27.0890  -28.3000   20.1790 C   0  0  0  0  0  3  0  0  0  0  0  0
  -25.8450  -26.6180   18.9550 C   0  0  0  0  0  3  0  0  0  0  0  0
  -24.6630  -27.3760   19.1040 C   0  0  0  0  0  3  0  0  0  0  0  0
  -23.4540  -29.4460   20.0330 C   0  0  0  0  0  2  0  0  0  0  0  0
  -24.6650  -30.5520   21.9710 N   0  0  0  0  0  0  0  0  0  0  0  0
  -23.6600  -31.4650   23.7910 O   0  0  0  0  0  0  0  0  0  0  0  0
  -22.7710  -28.9010   22.3920 C   0  0  0  0  0  0  0  0  0  0  0  0
  -21.4790  -28.5860   22.2010 N   0  0  0  0  0  0  0  0  0  0  0  0
  -23.4790  -28.3320   23.2270 O   0  0  0  0  0  0  0  0  0  0  0  0
  -20.9660  -29.1050   21.5020 H   0  0  0  0  0  0  0  0  0  0  0  0
  -18.2960  -26.8730   22.3580 C   0  0  0  0  0  0  0  0  0  0  0  0
  -20.7320  -27.5460   22.9090 C   0  0  0  0  0  3  0  0  0  0  0  0
  -21.1250  -26.1360   22.4080 C   0  0  0  0  0  2  0  0  0  0  0  0
  -20.2150  -25.6170   21.2910 C   0  0  0  0  0  2  0  0  0  0  0  0
  -18.7600  -25.5530   21.7640 C   0  0  0  0  0  2  0  0  0  0  0  0
  -19.2230  -27.8160   22.8800 C   0  0  0  0  0  0  0  0  0  0  0  0
  -18.7390  -29.0410   23.3850 C   0  0  0  0  0  3  0  0  0  0  0  0
  -17.3610  -29.3280   23.3850 C   0  0  0  0  0  3  0  0  0  0  0  0
  -16.4470  -28.3860   22.8790 C   0  0  0  0  0  3  0  0  0  0  0  0
  -16.9150  -27.1620   22.3690 C   0  0  0  0  0  3  0  0  0  0  0  0
  -26.0280  -31.8180   23.7230 C   0  0  0  0  0  3  0  0  0  0  0  0
  -25.7630  -33.1850   24.1900 N   0  0  0  0  0  0  0  0  0  0  0  0
  -26.0800  -34.2970   23.5140 C   0  0  0  0  0  0  0  0  0  0  0  0
  -26.6990  -34.2750   22.4460 O   0  0  0  0  0  0  0  0  0  0  0  0
  -25.2180  -33.2760   25.0350 H   0  0  0  0  0  0  0  0  0  0  0  0
  -24.3830  -36.1460   23.3900 C   0  0  0  0  0  1  0  0  0  0  0  0
  -25.6430  -35.6460   24.1170 C   0  0  0  0  0  3  0  0  0  0  0  0
  -27.8280  -36.3950   24.9400 C   0  0  0  0  0  1  0  0  0  0  0  0
  -26.6950  -36.6860   24.0650 N   0  0  0  0  0  0  0  0  0  0  0  0
  -26.3190  -37.5950   24.3240 H   0  0  0  0  0  0  0  0  0  0  0  0
  -26.6190  -30.9430   24.8960 C   0  0  1  0  0  0  0  0  0  0  0  0
  -25.5850  -30.5870   25.9910 C   0  0  0  0  0  1  0  0  0  0  0  0
  -27.2070  -29.6250   24.3440 C   0  0  0  0  0  1  0  0  0  0  0  0
  -27.7880  -31.6980   25.5720 C   0  0  0  0  0  1  0  0  0  0  0  0
  1  3  1  0
  2  6  1  0
  2  5  2  0
  3 48  1  0
  4  3  2  0
  4 46  1  0
  5  4  1  0
  6  1  2  0
  7 15  1  0
  8 13  1  0
  9 10  1  0
  9  8  1  0
 11 10  1  0
 11 20  1  0
 11 12  1  0
 13  7  1  0
 13 12  1  0
 14  7  2  0
 15  5  1  0
 15 16  1  0
 17 18  2  0
 18 37  1  0
 19 22  1  0
 19 18  1  0
 20 21  1  0
 20 17  1  0
 21 19  2  0
 22 23  1  0
 23 24  2  0
 25 28  1  0
 25 24  1  0
 26 25  2  0
 27 26  1  0
 27 22  2  0
 28 29  1  0
 29 34  2  0
 29 30  1  0
 30 31  2  0
 31 32  1  0
 32 36  1  0
 33 32  2  0
 34 33  1  0
 35 34  1  0
 37 38  1  0
 38 40  1  0
 38 41  1  0
 39 37  2  0
 42 17  1  0
 42 43  1  0
 44 42  1  0
 46 45  1  0
 48 47  1  0
 49 50  1  0
 49  6  1  0
 50 51  1  0
 51 52  2  0
 53 51  1  0
 53 54  2  0
 55 57  1  0
 55 54  1  0
 56 67  2  0
 57 62  1  0
 58 66  1  0
 58 68  1  0
 59 65  1  0
 59 61  1  0
 60 66  1  0
 61 60  1  0
 62 61  2  0
 63 64  1  0
 63 57  2  0
 64 59  2  0
 65 58  1  0
 66 56  1  0
 68 70  2  0
 69 68  1  0
 71 69  1  0
 72 81  2  0
 72 77  1  0
 73 69  1  0
 74 73  1  0
 75 76  1  0
 75 74  1  0
 76 72  1  0
 77 73  1  0
 77 78  2  0
 79 78  1  0
 80 79  2  0
 81 80  1  0
 82 56  1  0
 82 83  1  0
 82 92  1  0
 83 86  1  0
 84 88  1  0
 84 83  1  0
 85 84  2  0
 88 87  1  0
 90 88  1  0
 90 91  1  0
 90 89  1  0
 92 95  1  1
 92 93  1  0
 94 92  1  0
M  ISO  4   7 100  15 100  54 101  55 101
M  END
>  <TORSDO>  (5) 
F 23

>  <SCORE>  (5) 
-4.593

>  <name>  (5) 
4

>  <ligand_id>  (5) 
4

>  <original_smiles>  (5) 
[H]c1c([H])c([H])c2c(c1[H])C([H])([H])C([H])([H])C([H])([H])C2([H])N([H])C(=O)C1([H])N(C(=O)C([H])(N([H])C(=O)C([H])(N([H])C([H])([H])[H])C([H])([H])[H])C(C([H])([H])[H])(C([H])([H])[H])C([H])([H])[H])C([H])([H])c2c([H])c(OC([H])([H])C([H])([H])C(=O)C([H])([H])Oc3c([H])c(N([H])C(=O)N4C([H])([H])C([H])([H])C([H])([H])C([H])(n5nc(-c6c([H])c([H])c(Oc7c([H])c([H])c(F)c([H])c7F)c([H])c6[H])c(C(=O)N([H])[H])c5N([H])[H])C4([H])[H])c(C([H])([H])C([H])([H])[H])c(C([H])([H])C([H])([H])[H])c3[H])c([H])c([H])c2C1([H])[H]

>  <smiles>  (5) 
[H]c1c([H])c([H])c2c(c1[H])C([H])([H])C([H])([H])C([H])([H])C2([H])N([H])C(=O)C1([H])N(C(=O)C([H])(N([H])C(=O)C([H])(N([H])C([H])([H])[H])C([H])([H])[H])C(C([H])([H])[H])(C([H])([H])[H])C([H])([H])[H])C([H])([H])c2c([H])c(OC([H])([H])C([H])([H])C(=O)C([H])([H])Oc3c([H])c(N([H])C(=O)N4C([H])([H])C([H])([H])C([H])([H])C([H])(n5nc(-c6c([H])c([H])c(Oc7c([H])c([H])c(F)c([H])c7F)c([H])c6[H])c(C(=O)N([H])[H])c5N([H])[H])C4([H])[H])c(C([H])([H])C([H])([H])[H])c(C([H])([H])C([H])([H])[H])c3[H])c([H])c([H])c2C1([H])[H]

$$$$
5:0:0
     RDKit          3D

 94103  0  0  1  0  0  0  0  0999 V2000
  -29.3100  -22.0120   21.8730 C   0  0  0  0  0  2  0  0  0  0  0  0
  -30.2520  -21.9740   19.4710 C   0  0  0  0  0  2  0  0  0  0  0  0
  -29.0960  -23.5440   21.7270 C   0  0  0  0  0  2  0  0  0  0  0  0
  -30.0400  -23.5120   19.4090 C   0  0  0  0  0  2  0  0  0  0  0  0
  -30.3710  -21.3950   20.9100 C   0  0  0  0  0  3  0  0  0  0  0  0
  -28.8170  -23.8920   20.2550 C   0  0  0  0  0  3  0  0  0  0  0  0
  -29.1180  -19.1870   20.5800 C   0  0  0  0  0  3  0  0  0  0  0  0
  -28.9960  -17.7800   20.6020 C   0  0  0  0  0  3  0  0  0  0  0  0
  -31.3290  -17.5920   21.2110 C   0  0  0  0  0  3  0  0  0  0  0  0
  -30.3320  -19.8380   20.9090 C   0  0  0  0  0  0  0  0  0  0  0  0
  -31.4530  -19.0100   21.2220 C   0  0  0  0  0  0  0  0  0  0  0  0
  -30.1010  -16.9590   20.9120 C   0  0  0  0  0  0  0  0  0  0  0  0
  -30.6440  -14.5400   20.4670 C   0  0  0  0  0  0  0  0  0  0  0  0
  -30.3690  -12.3760   19.3020 C   0  0  0  0  0  2  0  0  0  0  0  0
  -29.4250  -12.5820   18.0980 C   0  0  0  0  0  2  0  0  0  0  0  0
  -27.9480  -12.4380   18.5240 C   0  0  0  0  0  2  0  0  0  0  0  0
  -27.6080  -13.2640   19.7920 C   0  0  0  0  0  3  0  0  0  0  0  0
  -28.6620  -13.0320   20.8980 C   0  0  0  0  0  2  0  0  0  0  0  0
  -29.9880  -13.3510   20.3370 N   0  0  0  0  0  0  0  0  0  0  0  0
  -31.7780  -14.7260   20.0180 O   0  0  0  0  0  0  0  0  0  0  0  0
  -29.8980  -15.5400   20.9810 N   0  0  0  0  0  0  0  0  0  0  0  0
  -28.9680  -15.2480   21.2410 H   0  0  0  0  0  0  0  0  0  0  0  0
  -25.2040  -13.8710   20.4900 C   0  0  0  0  0  0  0  0  0  0  0  0
  -24.1350  -13.0990   20.8570 C   0  0  0  0  0  0  0  0  0  0  0  0
  -24.5970  -11.7470   20.8290 C   0  0  0  0  0  0  0  0  0  0  0  0
  -26.2520  -12.9900   20.2640 N   0  0  0  0  0  0  0  0  0  0  0  0
  -25.8880  -11.7080   20.5260 N   0  0  0  0  0  0  0  0  0  0  0  0
  -23.8710  -10.4850   21.0190 C   0  0  0  0  0  0  0  0  0  0  0  0
  -24.2930   -9.5250   21.9650 C   0  0  0  0  0  3  0  0  0  0  0  0
  -23.5670   -8.3260   22.1410 C   0  0  0  0  0  3  0  0  0  0  0  0
  -22.4060   -8.0800   21.3700 C   0  0  0  0  0  0  0  0  0  0  0  0
  -22.0030   -9.0300   20.4140 C   0  0  0  0  0  3  0  0  0  0  0  0
  -22.7290  -10.2190   20.2370 C   0  0  0  0  0  3  0  0  0  0  0  0
  -21.6530   -6.9330   21.4540 O   0  0  0  0  0  0  0  0  0  0  0  0
  -21.5770   -6.2070   22.6160 C   0  0  0  0  0  0  0  0  0  0  0  0
  -21.0950   -6.7700   23.8170 C   0  0  0  0  0  3  0  0  0  0  0  0
  -20.9680   -5.9690   24.9690 C   0  0  0  0  0  3  0  0  0  0  0  0
  -21.3120   -4.6050   24.9210 C   0  0  0  0  0  0  0  0  0  0  0  0
  -21.7870   -4.0400   23.7230 C   0  0  0  0  0  3  0  0  0  0  0  0
  -21.9160   -4.8390   22.5730 C   0  0  0  0  0  0  0  0  0  0  0  0
  -22.3540   -4.2860   21.4170 F   0  0  0  0  0  0  0  0  0  0  0  0
  -21.1820   -3.8320   26.0250 F   0  0  0  0  0  0  0  0  0  0  0  0
  -22.7360  -13.5770   21.1230 C   0  0  0  0  0  0  0  0  0  0  0  0
  -22.0040  -12.8820   21.9870 N   0  0  0  0  0  0  0  0  0  0  0  0
  -22.2990  -14.6010   20.6000 O   0  0  0  0  0  0  0  0  0  0  0  0
  -22.3670  -12.0540   22.4350 H   0  0  0  0  0  0  0  0  0  0  0  0
  -21.0650  -13.1860   22.2060 H   0  0  0  0  0  0  0  0  0  0  0  0
  -25.3680  -15.2410   20.3070 N   0  0  0  0  0  0  0  0  0  0  0  0
  -24.5960  -15.8920   20.3980 H   0  0  0  0  0  0  0  0  0  0  0  0
  -26.2080  -15.6720   19.9430 H   0  0  0  0  0  0  0  0  0  0  0  0
  -33.6140  -20.0510   20.3700 C   0  0  0  0  0  1  0  0  0  0  0  0
  -32.8120  -19.5910   21.5930 C   0  0  0  0  0  2  0  0  0  0  0  0
  -27.9990  -25.1740   19.8960 C   0  0  0  0  0  2  0  0  0  0  0  0
  -28.3060  -26.5650   20.2150 O   0  0  0  0  0  0  0  0  0  0  0  0
  -24.6080  -31.9140   23.2700 C   0  0  0  0  0  0  0  0  0  0  0  0
  -27.1920  -27.4150   20.1530 C   0  0  0  0  0  0  0  0  0  0  0  0
  -23.3880  -30.5300   21.6330 C   0  0  0  0  0  3  0  0  0  0  0  0
  -24.8230  -29.0080   20.1820 C   0  0  0  0  0  0  0  0  0  0  0  0
  -25.9270  -30.8540   21.4330 C   0  0  0  0  0  2  0  0  0  0  0  0
  -25.9970  -29.4880   20.7760 C   0  0  0  0  0  0  0  0  0  0  0  0
  -27.1830  -28.7010   20.7610 C   0  0  0  0  0  3  0  0  0  0  0  0
  -25.9920  -26.9990   19.5130 C   0  0  0  0  0  3  0  0  0  0  0  0
  -24.8200  -27.7640   19.5460 C   0  0  0  0  0  3  0  0  0  0  0  0
  -23.5860  -29.8720   20.2460 C   0  0  0  0  0  2  0  0  0  0  0  0
  -24.6600  -31.1140   22.1680 N   0  0  0  0  0  0  0  0  0  0  0  0
  -23.5290  -32.1920   23.8110 O   0  0  0  0  0  0  0  0  0  0  0  0
  -22.7360  -29.5010   22.5870 C   0  0  0  0  0  0  0  0  0  0  0  0
  -21.4110  -29.3170   22.4590 N   0  0  0  0  0  0  0  0  0  0  0  0
  -23.4190  -28.8740   23.4020 O   0  0  0  0  0  0  0  0  0  0  0  0
  -20.9200  -29.8730   21.7730 H   0  0  0  0  0  0  0  0  0  0  0  0
  -18.0360  -28.1190   22.9620 C   0  0  0  0  0  0  0  0  0  0  0  0
  -20.5940  -28.3770   23.2300 C   0  0  0  0  0  3  0  0  0  0  0  0
  -20.6960  -26.9460   22.6520 C   0  0  0  0  0  2  0  0  0  0  0  0
  -19.5930  -26.6250   21.6390 C   0  0  0  0  0  2  0  0  0  0  0  0
  -18.2110  -26.7700   22.2860 C   0  0  0  0  0  2  0  0  0  0  0  0
  -19.1540  -28.8800   23.3900 C   0  0  0  0  0  0  0  0  0  0  0  0
  -18.9370  -30.1430   23.9840 C   0  0  0  0  0  3  0  0  0  0  0  0
  -17.6330  -30.6470   24.1480 C   0  0  0  0  0  3  0  0  0  0  0  0
  -16.5280  -29.8820   23.7360 C   0  0  0  0  0  3  0  0  0  0  0  0
  -16.7300  -28.6190   23.1510 C   0  0  0  0  0  3  0  0  0  0  0  0
  -25.8990  -32.5360   23.8830 C   0  0  0  0  0  3  0  0  0  0  0  0
  -26.4220  -31.7560   25.1510 C   0  0  1  0  0  0  0  0  0  0  0  0
  -25.3360  -31.5110   26.2230 C   0  0  0  0  0  1  0  0  0  0  0  0
  -27.0010  -30.3780   24.7490 C   0  0  0  0  0  1  0  0  0  0  0  0
  -27.5800  -32.5430   25.8080 C   0  0  0  0  0  1  0  0  0  0  0  0
  -25.5980  -33.9350   24.2170 N   0  0  0  0  0  0  0  0  0  0  0  0
  -25.9110  -34.9840   23.4470 C   0  0  0  0  0  0  0  0  0  0  0  0
  -26.5550  -34.8780   22.3990 O   0  0  0  0  0  0  0  0  0  0  0  0
  -25.0190  -34.0920   25.0300 H   0  0  0  0  0  0  0  0  0  0  0  0
  -24.1680  -36.7710   23.1360 C   0  0  0  0  0  1  0  0  0  0  0  0
  -25.4340  -36.3740   23.9100 C   0  0  0  0  0  3  0  0  0  0  0  0
  -27.5890  -37.2710   24.6710 C   0  0  0  0  0  1  0  0  0  0  0  0
  -26.4600  -37.4280   23.7570 N   0  0  0  0  0  0  0  0  0  0  0  0
  -26.0570  -38.3490   23.9050 H   0  0  0  0  0  0  0  0  0  0  0  0
  2  5  1  0
  3  1  1  0
  4  2  1  0
  4  6  1  0
  5 10  1  0
  5  1  1  0
  6 53  1  0
  6  3  1  0
  7  8  2  0
  7 10  1  0
  8 12  1  0
  9 11  1  0
 10 11  2  0
 11 52  1  0
 12 21  1  0
 12  9  2  0
 13 21  1  0
 14 19  1  0
 15 16  1  0
 15 14  1  0
 17 16  1  0
 17 26  1  0
 17 18  1  0
 19 13  1  0
 19 18  1  0
 20 13  2  0
 21 22  1  0
 23 24  2  0
 24 43  1  0
 25 24  1  0
 25 28  1  0
 26 23  1  0
 26 27  1  0
 27 25  2  0
 28 29  1  0
 29 30  2  0
 31 34  1  0
 31 30  1  0
 32 31  2  0
 33 32  1  0
 33 28  2  0
 34 35  1  0
 35 36  1  0
 36 37  2  0
 38 37  1  0
 38 42  1  0
 39 38  2  0
 40 35  2  0
 40 39  1  0
 41 40  1  0
 43 44  1  0
 44 47  1  0
 44 46  1  0
 45 43  2  0
 48 49  1  0
 48 23  1  0
 50 48  1  0
 51 52  1  0
 53 54  1  0
 55 66  2  0
 56 54  1  0
 56 61  1  0
 57 65  1  0
 57 67  1  0
 58 64  1  0
 58 60  1  0
 59 65  1  0
 60 59  1  0
 61 60  2  0
 62 63  1  0
 62 56  2  0
 63 58  2  0
 64 57  1  0
 65 55  1  0
 67 69  2  0
 68 67  1  0
 70 68  1  0
 71 80  2  0
 71 76  1  0
 72 68  1  0
 72 76  1  0
 73 72  1  0
 74 75  1  0
 74 73  1  0
 75 71  1  0
 76 77  2  0
 77 78  1  0
 79 78  2  0
 80 79  1  0
 81 55  1  0
 81 86  1  0
 81 82  1  0
 82 85  1  1
 82 83  1  0
 84 82  1  0
 86 89  1  0
 87 91  1  0
 87 86  1  0
 88 87  2  0
 91 90  1  0
 93 94  1  0
 93 91  1  0
 93 92  1  0
M  ISO  4  13 100  21 100  53 101  54 101
M  END
>  <TORSDO>  (6) 
F 19

>  <SCORE>  (6) 
-14.794

>  <name>  (6) 
5

>  <ligand_id>  (6) 
5

>  <original_smiles>  (6) 
[H]c1c([H])c([H])c2c(c1[H])C([H])([H])C([H])([H])C([H])([H])C2([H])N([H])C(=O)C1([H])N(C(=O)C([H])(N([H])C(=O)C([H])(N([H])C([H])([H])[H])C([H])([H])[H])C(C([H])([H])[H])(C([H])([H])[H])C([H])([H])[H])C([H])([H])c2c([H])c(OC([H])([H])C3([H])C([H])([H])C([H])([H])C([H])(c4c([H])c([H])c(N([H])C(=O)N5C([H])([H])C([H])([H])C([H])([H])C([H])(n6nc(-c7c([H])c([H])c(Oc8c([H])c([H])c(F)c([H])c8F)c([H])c7[H])c(C(=O)N([H])[H])c6N([H])[H])C5([H])[H])c([H])c4C([H])([H])C([H])([H])[H])C([H])([H])C3([H])[H])c([H])c([H])c2C1([H])[H]

>  <smiles>  (6) 
[H]c1c([H])c([H])c2c(c1[H])C([H])([H])C([H])([H])C([H])([H])C2([H])N([H])C(=O)C1([H])N(C(=O)C([H])(N([H])C(=O)C([H])(N([H])C([H])([H])[H])C([H])([H])[H])C(C([H])([H])[H])(C([H])([H])[H])C([H])([H])[H])C([H])([H])c2c([H])c(OC([H])([H])C3([H])C([H])([H])C([H])([H])C([H])(c4c([H])c([H])c(N([H])C(=O)N5C([H])([H])C([H])([H])C([H])([H])C([H])(n6nc(-c7c([H])c([H])c(Oc8c([H])c([H])c(F)c([H])c8F)c([H])c7[H])c(C(=O)N([H])[H])c6N([H])[H])C5([H])[H])c([H])c4C([H])([H])C([H])([H])[H])C([H])([H])C3([H])[H])c([H])c([H])c2C1([H])[H]

$$$$
6:0:0
     RDKit          3D

 94102  0  0  1  0  0  0  0  0999 V2000
  -29.8300  -20.5590   20.9130 C   0  0  0  0  0  0  0  0  0  0  0  0
  -30.9560  -20.8150   21.4340 N   0  0  0  0  0  0  0  0  0  0  0  0
  -31.5970  -20.0340   21.3390 H   0  0  0  0  0  0  0  0  0  0  0  0
  -28.7560  -17.9560   18.3580 C   0  0  0  0  0  3  0  0  0  0  0  0
  -28.9730  -19.1880   19.0000 C   0  0  0  0  0  3  0  0  0  0  0  0
  -29.1000  -16.7500   18.9990 C   0  0  0  0  0  3  0  0  0  0  0  0
  -29.8680  -18.0110   20.9390 C   0  0  0  0  0  3  0  0  0  0  0  0
  -29.5420  -19.2360   20.2900 C   0  0  0  0  0  0  0  0  0  0  0  0
  -29.6540  -16.7610   20.3000 C   0  0  0  0  0  0  0  0  0  0  0  0
  -30.6180  -14.5100   20.4790 C   0  0  0  0  0  0  0  0  0  0  0  0
  -30.3440  -12.3390   19.3540 C   0  0  0  0  0  2  0  0  0  0  0  0
  -29.3960  -12.5520   18.1560 C   0  0  0  0  0  2  0  0  0  0  0  0
  -27.9220  -12.4180   18.5890 C   0  0  0  0  0  2  0  0  0  0  0  0
  -27.5910  -13.2390   19.8640 C   0  0  0  0  0  3  0  0  0  0  0  0
  -28.6520  -13.0070   20.9650 C   0  0  0  0  0  2  0  0  0  0  0  0
  -29.9740  -13.3140   20.3950 N   0  0  0  0  0  0  0  0  0  0  0  0
  -31.7410  -14.7040   20.0040 O   0  0  0  0  0  0  0  0  0  0  0  0
  -29.8910  -15.5270   20.9860 N   0  0  0  0  0  0  0  0  0  0  0  0
  -29.1170  -15.2160   21.5530 H   0  0  0  0  0  0  0  0  0  0  0  0
  -25.1930  -13.8490   20.5750 C   0  0  0  0  0  0  0  0  0  0  0  0
  -24.1240  -13.0760   20.9440 C   0  0  0  0  0  0  0  0  0  0  0  0
  -24.5850  -11.7240   20.9100 C   0  0  0  0  0  0  0  0  0  0  0  0
  -26.2380  -12.9660   20.3410 N   0  0  0  0  0  0  0  0  0  0  0  0
  -25.8740  -11.6840   20.5980 N   0  0  0  0  0  0  0  0  0  0  0  0
  -23.8580  -10.4620   21.0990 C   0  0  0  0  0  0  0  0  0  0  0  0
  -24.3060   -9.4820   22.0120 C   0  0  0  0  0  3  0  0  0  0  0  0
  -23.5800   -8.2840   22.1900 C   0  0  0  0  0  3  0  0  0  0  0  0
  -22.3920   -8.0580   21.4530 C   0  0  0  0  0  0  0  0  0  0  0  0
  -21.9630   -9.0280   20.5290 C   0  0  0  0  0  3  0  0  0  0  0  0
  -22.6900  -10.2170   20.3500 C   0  0  0  0  0  3  0  0  0  0  0  0
  -21.6380   -6.9130   21.5400 O   0  0  0  0  0  0  0  0  0  0  0  0
  -21.6240   -6.1460   22.6770 C   0  0  0  0  0  0  0  0  0  0  0  0
  -21.2510   -6.6780   23.9310 C   0  0  0  0  0  3  0  0  0  0  0  0
  -21.1810   -5.8370   25.0600 C   0  0  0  0  0  3  0  0  0  0  0  0
  -21.4790   -4.4660   24.9370 C   0  0  0  0  0  0  0  0  0  0  0  0
  -21.8460   -3.9340   23.6890 C   0  0  0  0  0  3  0  0  0  0  0  0
  -21.9180   -4.7710   22.5620 C   0  0  0  0  0  0  0  0  0  0  0  0
  -22.2510   -4.2510   21.3560 F   0  0  0  0  0  0  0  0  0  0  0  0
  -21.4060   -3.6560   26.0190 F   0  0  0  0  0  0  0  0  0  0  0  0
  -22.7290  -13.5540   21.2220 C   0  0  0  0  0  0  0  0  0  0  0  0
  -22.0020  -12.8580   22.0890 N   0  0  0  0  0  0  0  0  0  0  0  0
  -22.2890  -14.5810   20.7050 O   0  0  0  0  0  0  0  0  0  0  0  0
  -22.3670  -12.0290   22.5310 H   0  0  0  0  0  0  0  0  0  0  0  0
  -21.0660  -13.1660   22.3160 H   0  0  0  0  0  0  0  0  0  0  0  0
  -25.3560  -15.2200   20.4000 N   0  0  0  0  0  0  0  0  0  0  0  0
  -24.5900  -15.8720   20.5210 H   0  0  0  0  0  0  0  0  0  0  0  0
  -26.2050  -15.6640   20.0750 H   0  0  0  0  0  0  0  0  0  0  0  0
  -28.7170  -21.6120   20.9860 C   0  0  0  0  0  2  0  0  0  0  0  0
  -28.9430  -22.9030   20.1300 C   0  0  0  0  0  2  0  0  0  0  0  0
  -26.9680  -24.0960   21.1990 C   0  0  0  0  0  1  0  0  0  0  0  0
  -29.3270  -24.6420   21.9300 C   0  0  0  0  0  1  0  0  0  0  0  0
  -28.4300  -24.2570   20.7340 C   0  0  1  0  0  0  0  0  0  0  0  0
  -28.5340  -25.3960   19.6630 C   0  0  0  0  0  2  0  0  0  0  0  0
  -28.4090  -26.7430   20.1740 O   0  0  0  0  0  0  0  0  0  0  0  0
  -24.5930  -31.9140   23.2410 C   0  0  0  0  0  0  0  0  0  0  0  0
  -27.2110  -27.4400   20.1540 C   0  0  0  0  0  0  0  0  0  0  0  0
  -23.3760  -30.5130   21.6080 C   0  0  0  0  0  3  0  0  0  0  0  0
  -24.8170  -28.9660   20.1780 C   0  0  0  0  0  0  0  0  0  0  0  0
  -25.9040  -30.8580   21.4010 C   0  0  0  0  0  2  0  0  0  0  0  0
  -25.9800  -29.4840   20.7600 C   0  0  0  0  0  0  0  0  0  0  0  0
  -27.1740  -28.7270   20.7460 C   0  0  0  0  0  3  0  0  0  0  0  0
  -26.0240  -26.9380   19.5720 C   0  0  0  0  0  3  0  0  0  0  0  0
  -24.8350  -27.6930   19.5840 C   0  0  0  0  0  3  0  0  0  0  0  0
  -23.5750  -29.8290   20.2290 C   0  0  0  0  0  2  0  0  0  0  0  0
  -24.6430  -31.1100   22.1410 N   0  0  0  0  0  0  0  0  0  0  0  0
  -23.5140  -32.1940   23.7820 O   0  0  0  0  0  0  0  0  0  0  0  0
  -22.7250  -29.4950   22.5730 C   0  0  0  0  0  0  0  0  0  0  0  0
  -21.4000  -29.3170   22.4510 N   0  0  0  0  0  0  0  0  0  0  0  0
  -23.4100  -28.8690   23.3870 O   0  0  0  0  0  0  0  0  0  0  0  0
  -20.9090  -29.8740   21.7670 H   0  0  0  0  0  0  0  0  0  0  0  0
  -18.0230  -28.1360   22.9580 C   0  0  0  0  0  0  0  0  0  0  0  0
  -20.5820  -28.3840   23.2260 C   0  0  0  0  0  3  0  0  0  0  0  0
  -20.6790  -26.9510   22.6500 C   0  0  0  0  0  2  0  0  0  0  0  0
  -19.5730  -26.6320   21.6400 C   0  0  0  0  0  2  0  0  0  0  0  0
  -18.1940  -26.7840   22.2870 C   0  0  0  0  0  2  0  0  0  0  0  0
  -19.1460  -28.8950   23.3840 C   0  0  0  0  0  0  0  0  0  0  0  0
  -18.9330  -30.1630   23.9690 C   0  0  0  0  0  3  0  0  0  0  0  0
  -17.6300  -30.6690   24.1350 C   0  0  0  0  0  3  0  0  0  0  0  0
  -16.5230  -29.9060   23.7270 C   0  0  0  0  0  3  0  0  0  0  0  0
  -16.7200  -28.6430   23.1430 C   0  0  0  0  0  3  0  0  0  0  0  0
  -25.8840  -32.5420   23.8540 C   0  0  0  0  0  3  0  0  0  0  0  0
  -25.5780  -33.9400   24.1890 N   0  0  0  0  0  0  0  0  0  0  0  0
  -25.9060  -34.9930   23.4300 C   0  0  0  0  0  0  0  0  0  0  0  0
  -26.5690  -34.8930   22.3940 O   0  0  0  0  0  0  0  0  0  0  0  0
  -24.9880  -34.0930   24.9940 H   0  0  0  0  0  0  0  0  0  0  0  0
  -24.1750  -36.7870   23.0910 C   0  0  0  0  0  1  0  0  0  0  0  0
  -25.4210  -36.3800   23.8930 C   0  0  0  0  0  3  0  0  0  0  0  0
  -27.5620  -37.2630   24.7090 C   0  0  0  0  0  1  0  0  0  0  0  0
  -26.4520  -37.4340   23.7760 N   0  0  0  0  0  0  0  0  0  0  0  0
  -26.0470  -38.3530   23.9310 H   0  0  0  0  0  0  0  0  0  0  0  0
  -26.4100  -31.7680   25.1240 C   0  0  1  0  0  0  0  0  0  0  0  0
  -25.3260  -31.5290   26.2010 C   0  0  0  0  0  1  0  0  0  0  0  0
  -26.9880  -30.3900   24.7240 C   0  0  0  0  0  1  0  0  0  0  0  0
  -27.5660  -32.5590   25.7820 C   0  0  0  0  0  1  0  0  0  0  0  0
  1 48  1  0
  1  2  2  0
  3  2  1  0
  4  6  2  0
  4  5  1  0
  5  8  2  0
  6  9  1  0
  8  1  1  0
  8  7  1  0
  9  7  2  0
  9 18  1  0
 10 18  1  0
 11 16  1  0
 12 13  1  0
 12 11  1  0
 14 13  1  0
 14 23  1  0
 14 15  1  0
 16 10  1  0
 16 15  1  0
 17 10  2  0
 18 19  1  0
 20 21  2  0
 21 40  1  0
 22 21  1  0
 22 25  1  0
 23 20  1  0
 23 24  1  0
 24 22  2  0
 25 26  1  0
 26 27  2  0
 28 31  1  0
 28 27  1  0
 29 28  2  0
 30 29  1  0
 30 25  2  0
 31 32  1  0
 32 33  1  0
 33 34  2  0
 35 34  1  0
 35 39  1  0
 36 35  2  0
 37 32  2  0
 37 36  1  0
 38 37  1  0
 40 41  1  0
 41 44  1  0
 41 43  1  0
 42 40  2  0
 45 46  1  0
 45 20  1  0
 47 45  1  0
 49 52  1  0
 49 48  1  0
 52 50  1  1
 52 51  1  0
 53 54  1  0
 53 52  1  0
 55 66  2  0
 56 54  1  0
 56 61  1  0
 57 65  1  0
 57 67  1  0
 58 64  1  0
 58 60  1  0
 59 65  1  0
 60 59  1  0
 61 60  2  0
 62 63  1  0
 62 56  2  0
 63 58  2  0
 64 57  1  0
 65 55  1  0
 67 69  2  0
 68 67  1  0
 70 68  1  0
 71 80  2  0
 71 76  1  0
 72 68  1  0
 72 76  1  0
 73 72  1  0
 74 75  1  0
 74 73  1  0
 75 71  1  0
 76 77  2  0
 77 78  1  0
 79 78  2  0
 80 79  1  0
 81 55  1  0
 81 82  1  0
 81 91  1  0
 82 85  1  0
 83 87  1  0
 83 82  1  0
 84 83  2  0
 87 86  1  0
 89 87  1  0
 89 90  1  0
 89 88  1  0
 91 94  1  1
 91 92  1  0
 93 91  1  0
M  ISO  4  10 100  18 100  53 101  54 101
M  END
>  <TORSDO>  (7) 
F 21

>  <SCORE>  (7) 
-13.892

>  <name>  (7) 
6

>  <ligand_id>  (7) 
6

>  <original_smiles>  (7) 
[H]N=C(c1c([H])c([H])c([H])c(N([H])C(=O)N2C([H])([H])C([H])([H])C([H])([H])C([H])(n3nc(-c4c([H])c([H])c(Oc5c([H])c([H])c(F)c([H])c5F)c([H])c4[H])c(C(=O)N([H])[H])c3N([H])[H])C2([H])[H])c1[H])C([H])([H])C([H])([H])C(C([H])([H])[H])(C([H])([H])[H])C([H])([H])Oc1c([H])c([H])c2c(c1[H])C([H])([H])N(C(=O)C([H])(N([H])C(=O)C([H])(N([H])C([H])([H])[H])C([H])([H])[H])C(C([H])([H])[H])(C([H])([H])[H])C([H])([H])[H])C([H])(C(=O)N([H])C1([H])c3c([H])c([H])c([H])c([H])c3C([H])([H])C([H])([H])C1([H])[H])C2([H])[H]

>  <smiles>  (7) 
[H]N=C(c1c([H])c([H])c([H])c(N([H])C(=O)N2C([H])([H])C([H])([H])C([H])([H])C([H])(n3nc(-c4c([H])c([H])c(Oc5c([H])c([H])c(F)c([H])c5F)c([H])c4[H])c(C(=O)N([H])[H])c3N([H])[H])C2([H])[H])c1[H])C([H])([H])C([H])([H])C(C([H])([H])[H])(C([H])([H])[H])C([H])([H])Oc1c([H])c([H])c2c(c1[H])C([H])([H])N(C(=O)C([H])(N([H])C(=O)C([H])(N([H])C([H])([H])[H])C([H])([H])[H])C(C([H])([H])[H])(C([H])([H])[H])C([H])([H])[H])C([H])(C(=O)N([H])C1([H])c3c([H])c([H])c([H])c([H])c3C([H])([H])C([H])([H])C1([H])[H])C2([H])[H]

$$$$
7:0:0
     RDKit          3D

 93101  0  0  1  0  0  0  0  0999 V2000
  -29.5570  -21.0460   22.2460 C   0  0  0  0  0  2  0  0  0  0  0  0
  -31.0730  -17.5890   21.4390 C   0  0  0  0  0  3  0  0  0  0  0  0
  -30.8390  -18.8310   22.0690 C   0  0  0  0  0  3  0  0  0  0  0  0
  -28.9850  -19.2370   20.5700 C   0  0  0  0  0  3  0  0  0  0  0  0
  -30.2930  -17.1510   20.3370 C   0  0  0  0  0  0  0  0  0  0  0  0
  -29.8060  -19.6750   21.6200 C   0  0  0  0  0  0  0  0  0  0  0  0
  -29.2130  -18.0020   19.9220 C   0  0  0  0  0  0  0  0  0  0  0  0
  -28.2780  -17.6970   18.7560 C   0  0  0  0  0  1  0  0  0  0  0  0
  -30.6980  -15.9290   19.5490 C   0  0  0  0  0  0  0  0  0  0  0  0
  -30.5840  -15.9290   18.2860 N   0  0  0  0  0  0  0  0  0  0  0  0
  -30.1820  -16.8010   17.9720 H   0  0  0  0  0  0  0  0  0  0  0  0
  -31.3960  -14.7470   20.2380 C   0  0  0  0  0  0  0  0  0  0  0  0
  -31.0350  -12.4870   19.3560 C   0  0  0  0  0  2  0  0  0  0  0  0
  -30.1180  -12.5660   18.1180 C   0  0  0  0  0  2  0  0  0  0  0  0
  -28.6300  -12.5480   18.5270 C   0  0  0  0  0  2  0  0  0  0  0  0
  -28.2880  -13.5040   19.7020 C   0  0  0  0  0  3  0  0  0  0  0  0
  -29.3350  -13.4200   20.8340 C   0  0  0  0  0  2  0  0  0  0  0  0
  -30.6720  -13.5930   20.2510 N   0  0  0  0  0  0  0  0  0  0  0  0
  -32.6250  -14.7660   20.1590 O   0  0  0  0  0  0  0  0  0  0  0  0
  -25.9290  -14.2210   20.4420 C   0  0  0  0  0  0  0  0  0  0  0  0
  -24.8200  -13.4980   20.7820 C   0  0  0  0  0  0  0  0  0  0  0  0
  -25.2120  -12.1280   20.7290 C   0  0  0  0  0  0  0  0  0  0  0  0
  -26.9280  -13.2920   20.1930 N   0  0  0  0  0  0  0  0  0  0  0  0
  -26.5020  -12.0270   20.4330 N   0  0  0  0  0  0  0  0  0  0  0  0
  -24.4210  -10.9020   20.8880 C   0  0  0  0  0  0  0  0  0  0  0  0
  -24.7830   -9.9060   21.8220 C   0  0  0  0  0  3  0  0  0  0  0  0
  -23.9940   -8.7450   21.9710 C   0  0  0  0  0  3  0  0  0  0  0  0
  -22.8300   -8.5720   21.1850 C   0  0  0  0  0  0  0  0  0  0  0  0
  -22.4890   -9.5560   20.2410 C   0  0  0  0  0  3  0  0  0  0  0  0
  -23.2760  -10.7090   20.0910 C   0  0  0  0  0  3  0  0  0  0  0  0
  -22.0190   -7.4650   21.2440 O   0  0  0  0  0  0  0  0  0  0  0  0
  -21.8790   -6.7350   22.3970 C   0  0  0  0  0  0  0  0  0  0  0  0
  -21.3990   -7.3150   23.5920 C   0  0  0  0  0  3  0  0  0  0  0  0
  -21.2050   -6.5140   24.7350 C   0  0  0  0  0  3  0  0  0  0  0  0
  -21.4800   -5.1330   24.6820 C   0  0  0  0  0  0  0  0  0  0  0  0
  -21.9520   -4.5540   23.4920 C   0  0  0  0  0  3  0  0  0  0  0  0
  -22.1480   -5.3530   22.3520 C   0  0  0  0  0  0  0  0  0  0  0  0
  -22.5830   -4.7850   21.2010 F   0  0  0  0  0  0  0  0  0  0  0  0
  -21.2870   -4.3630   25.7780 F   0  0  0  0  0  0  0  0  0  0  0  0
  -23.4470  -14.0440   21.0500 C   0  0  0  0  0  0  0  0  0  0  0  0
  -22.6820  -13.3770   21.9080 N   0  0  0  0  0  0  0  0  0  0  0  0
  -23.0630  -15.0940   20.5370 O   0  0  0  0  0  0  0  0  0  0  0  0
  -23.0070  -12.5270   22.3450 H   0  0  0  0  0  0  0  0  0  0  0  0
  -21.7600  -13.7230   22.1330 H   0  0  0  0  0  0  0  0  0  0  0  0
  -26.1620  -15.5840   20.3080 N   0  0  0  0  0  0  0  0  0  0  0  0
  -25.4330  -16.2720   20.4610 H   0  0  0  0  0  0  0  0  0  0  0  0
  -27.0590  -15.9950   20.0920 H   0  0  0  0  0  0  0  0  0  0  0  0
  -29.9110  -22.2280   21.3060 C   0  0  0  0  0  2  0  0  0  0  0  0
  -29.6420  -23.6160   21.9140 C   0  0  0  0  0  0  0  0  0  0  0  0
  -29.3070  -23.7420   23.0950 O   0  0  0  0  0  0  0  0  0  0  0  0
  -29.8100  -24.8550   21.0190 C   0  0  0  0  0  2  0  0  0  0  0  0
  -28.4650  -25.5500   20.7150 C   0  0  0  0  0  2  0  0  0  0  0  0
  -28.6260  -26.8700   20.1670 O   0  0  0  0  0  0  0  0  0  0  0  0
  -24.7230  -31.9270   23.2610 C   0  0  0  0  0  0  0  0  0  0  0  0
  -27.4550  -27.5950   20.1280 C   0  0  0  0  0  0  0  0  0  0  0  0
  -23.5410  -30.5220   21.6030 C   0  0  0  0  0  3  0  0  0  0  0  0
  -25.0260  -29.0420   20.1460 C   0  0  0  0  0  0  0  0  0  0  0  0
  -26.0540  -30.9460   21.3990 C   0  0  0  0  0  2  0  0  0  0  0  0
  -26.1720  -29.5870   20.7400 C   0  0  0  0  0  0  0  0  0  0  0  0
  -27.3900  -28.8740   20.7240 C   0  0  0  0  0  3  0  0  0  0  0  0
  -26.2960  -27.0660   19.5170 C   0  0  0  0  0  3  0  0  0  0  0  0
  -25.0850  -27.7830   19.5220 C   0  0  0  0  0  3  0  0  0  0  0  0
  -23.7580  -29.8640   20.2130 C   0  0  0  0  0  2  0  0  0  0  0  0
  -24.7910  -31.1460   22.1460 N   0  0  0  0  0  0  0  0  0  0  0  0
  -23.6370  -32.1690   23.8090 O   0  0  0  0  0  0  0  0  0  0  0  0
  -22.9150  -29.4750   22.5510 C   0  0  0  0  0  0  0  0  0  0  0  0
  -21.5950  -29.2620   22.4200 N   0  0  0  0  0  0  0  0  0  0  0  0
  -23.6130  -28.8570   23.3600 O   0  0  0  0  0  0  0  0  0  0  0  0
  -21.0920  -29.8130   21.7390 H   0  0  0  0  0  0  0  0  0  0  0  0
  -18.2480  -28.0010   22.9190 C   0  0  0  0  0  0  0  0  0  0  0  0
  -20.8020  -28.2970   23.1800 C   0  0  0  0  0  3  0  0  0  0  0  0
  -20.9250  -26.8790   22.5780 C   0  0  0  0  0  2  0  0  0  0  0  0
  -19.8230  -26.5560   21.5650 C   0  0  0  0  0  2  0  0  0  0  0  0
  -18.4420  -26.6680   22.2180 C   0  0  0  0  0  2  0  0  0  0  0  0
  -19.3560  -28.7740   23.3560 C   0  0  0  0  0  0  0  0  0  0  0  0
  -19.1200  -30.0230   23.9690 C   0  0  0  0  0  3  0  0  0  0  0  0
  -17.8080  -30.5010   24.1500 C   0  0  0  0  0  3  0  0  0  0  0  0
  -16.7140  -29.7240   23.7310 C   0  0  0  0  0  3  0  0  0  0  0  0
  -16.9350  -28.4770   23.1210 C   0  0  0  0  0  3  0  0  0  0  0  0
  -25.9980  -32.5760   23.8840 C   0  0  0  0  0  3  0  0  0  0  0  0
  -25.6760  -33.9740   24.1960 N   0  0  0  0  0  0  0  0  0  0  0  0
  -26.0100  -35.0200   23.4260 C   0  0  0  0  0  0  0  0  0  0  0  0
  -26.6920  -34.9090   22.4020 O   0  0  0  0  0  0  0  0  0  0  0  0
  -25.0740  -34.1340   24.9880 H   0  0  0  0  0  0  0  0  0  0  0  0
  -24.2750  -36.7970   23.0230 C   0  0  0  0  0  1  0  0  0  0  0  0
  -25.5050  -36.4100   23.8600 C   0  0  0  0  0  3  0  0  0  0  0  0
  -27.6170  -37.3210   24.7190 C   0  0  0  0  0  1  0  0  0  0  0  0
  -26.5330  -37.4680   23.7520 N   0  0  0  0  0  0  0  0  0  0  0  0
  -26.1170  -38.3870   23.8790 H   0  0  0  0  0  0  0  0  0  0  0  0
  -26.5130  -31.8210   25.1710 C   0  0  1  0  0  0  0  0  0  0  0  0
  -25.4140  -31.5770   26.2310 C   0  0  0  0  0  1  0  0  0  0  0  0
  -27.1160  -30.4480   24.7920 C   0  0  0  0  0  1  0  0  0  0  0  0
  -27.6490  -32.6330   25.8350 C   0  0  0  0  0  1  0  0  0  0  0  0
  2  3  1  0
  4  6  1  0
  5  2  2  0
  6  3  2  0
  6  1  1  0
  7  5  1  0
  7  4  2  0
  8  7  1  0
  9 12  1  0
  9  5  1  0
 10  9  2  0
 11 10  1  0
 12 18  1  0
 13 18  1  0
 14 15  1  0
 14 13  1  0
 16 15  1  0
 16 23  1  0
 16 17  1  0
 18 17  1  0
 19 12  2  0
 20 21  2  0
 21 40  1  0
 22 21  1  0
 22 25  1  0
 23 24  1  0
 23 20  1  0
 24 22  2  0
 25 26  1  0
 26 27  2  0
 28 31  1  0
 28 27  1  0
 29 28  2  0
 30 29  1  0
 30 25  2  0
 31 32  1  0
 32 33  1  0
 33 34  2  0
 35 34  1  0
 35 39  1  0
 36 35  2  0
 37 32  2  0
 37 36  1  0
 38 37  1  0
 40 41  1  0
 41 44  1  0
 41 43  1  0
 42 40  2  0
 45 20  1  0
 45 46  1  0
 47 45  1  0
 48 49  1  0
 48  1  1  0
 49 50  2  0
 51 49  1  0
 52 51  1  0
 53 52  1  0
 54 65  2  0
 55 53  1  0
 55 60  1  0
 56 64  1  0
 56 66  1  0
 57 63  1  0
 57 59  1  0
 58 64  1  0
 59 58  1  0
 60 59  2  0
 61 62  1  0
 61 55  2  0
 62 57  2  0
 63 56  1  0
 64 54  1  0
 66 68  2  0
 67 66  1  0
 69 67  1  0
 70 79  2  0
 70 75  1  0
 71 67  1  0
 71 75  1  0
 72 71  1  0
 73 74  1  0
 73 72  1  0
 74 70  1  0
 75 76  2  0
 76 77  1  0
 78 77  2  0
 79 78  1  0
 80 54  1  0
 80 81  1  0
 80 90  1  0
 81 84  1  0
 82 86  1  0
 82 81  1  0
 83 82  2  0
 86 85  1  0
 88 86  1  0
 88 89  1  0
 88 87  1  0
 90 93  1  1
 90 91  1  0
 92 90  1  0
M  ISO  4   9 100  12 100  52 101  53 101
M  END
>  <TORSDO>  (8) 
F 22

>  <SCORE>  (8) 
-12.422

>  <name>  (8) 
7

>  <ligand_id>  (8) 
7

>  <original_smiles>  (8) 
[H]N=C(C(=O)N1C([H])([H])C([H])([H])C([H])([H])C([H])(n2nc(-c3c([H])c([H])c(Oc4c([H])c([H])c(F)c([H])c4F)c([H])c3[H])c(C(=O)N([H])[H])c2N([H])[H])C1([H])[H])c1c([H])c([H])c(C([H])([H])C([H])([H])C(=O)C([H])([H])C([H])([H])Oc2c([H])c([H])c3c(c2[H])C([H])([H])N(C(=O)C([H])(N([H])C(=O)C([H])(N([H])C([H])([H])[H])C([H])([H])[H])C(C([H])([H])[H])(C([H])([H])[H])C([H])([H])[H])C([H])(C(=O)N([H])C2([H])c4c([H])c([H])c([H])c([H])c4C([H])([H])C([H])([H])C2([H])[H])C3([H])[H])c([H])c1C([H])([H])[H]

>  <smiles>  (8) 
[H]N=C(C(=O)N1C([H])([H])C([H])([H])C([H])([H])C([H])(n2nc(-c3c([H])c([H])c(Oc4c([H])c([H])c(F)c([H])c4F)c([H])c3[H])c(C(=O)N([H])[H])c2N([H])[H])C1([H])[H])c1c([H])c([H])c(C([H])([H])C([H])([H])C(=O)C([H])([H])C([H])([H])Oc2c([H])c([H])c3c(c2[H])C([H])([H])N(C(=O)C([H])(N([H])C(=O)C([H])(N([H])C([H])([H])[H])C([H])([H])[H])C(C([H])([H])[H])(C([H])([H])[H])C([H])([H])[H])C([H])(C(=O)N([H])C2([H])c4c([H])c([H])c([H])c([H])c4C([H])([H])C([H])([H])C2([H])[H])C3([H])[H])c([H])c1C([H])([H])[H]

$$$$
8:0:0
     RDKit          3D

 97105  0  0  1  0  0  0  0  0999 V2000
  -32.2940  -17.8240   20.3700 C   0  0  0  0  0  2  0  0  0  0  0  0
  -32.1560  -20.4190   20.8740 C   0  0  0  0  0  2  0  0  0  0  0  0
  -31.0760  -18.2620   20.9430 C   0  0  0  0  0  3  0  0  0  0  0  0
  -33.0990  -18.7870   19.7230 C   0  0  0  0  0  3  0  0  0  0  0  0
  -31.0250  -19.6970   21.3020 C   0  0  0  0  0  3  0  0  0  0  0  0
  -32.5550  -20.1200   19.5850 C   0  0  0  0  0  3  0  0  0  0  0  0
  -34.5710  -18.3090   19.8210 C   0  0  0  0  0  1  0  0  0  0  0  0
  -30.1800  -20.5100   22.3550 C   0  0  0  0  0  2  0  0  0  0  0  0
  -30.8950  -23.0480   21.6920 C   0  0  0  0  0  1  0  0  0  0  0  0
  -30.8010  -21.9170   22.7190 C   0  0  0  0  0  2  0  0  0  0  0  0
  -29.9250  -17.2360   20.7050 C   0  0  0  0  0  2  0  0  0  0  0  0
  -30.5980  -14.6800   20.4260 C   0  0  0  0  0  0  0  0  0  0  0  0
  -30.2860  -12.4440   19.3240 C   0  0  0  0  0  2  0  0  0  0  0  0
  -29.3590  -12.5930   18.1090 C   0  0  0  0  0  2  0  0  0  0  0  0
  -27.9040  -12.3460   18.5680 C   0  0  0  0  0  2  0  0  0  0  0  0
  -27.5450  -13.2370   19.7880 C   0  0  0  0  0  3  0  0  0  0  0  0
  -28.5770  -13.1500   20.9290 C   0  0  0  0  0  2  0  0  0  0  0  0
  -29.9030  -13.4780   20.3440 N   0  0  0  0  0  0  0  0  0  0  0  0
  -31.6870  -14.7750   19.8660 O   0  0  0  0  0  0  0  0  0  0  0  0
  -30.0020  -15.7600   21.0730 N   0  0  0  0  0  0  0  0  0  0  0  0
  -29.2790  -15.4700   21.7090 H   0  0  0  0  0  0  0  0  0  0  0  0
  -25.1730  -13.8360   20.5420 C   0  0  0  0  0  0  0  0  0  0  0  0
  -24.0910  -13.0380   20.9220 C   0  0  0  0  0  0  0  0  0  0  0  0
  -24.5670  -11.7100   20.8700 C   0  0  0  0  0  0  0  0  0  0  0  0
  -26.2000  -12.9450   20.2640 N   0  0  0  0  0  0  0  0  0  0  0  0
  -25.8460  -11.6660   20.5210 N   0  0  0  0  0  0  0  0  0  0  0  0
  -23.8410  -10.4420   21.0630 C   0  0  0  0  0  0  0  0  0  0  0  0
  -24.2880   -9.4610   21.9720 C   0  0  0  0  0  3  0  0  0  0  0  0
  -23.5600   -8.2600   22.1440 C   0  0  0  0  0  3  0  0  0  0  0  0
  -22.3710   -8.0420   21.4070 C   0  0  0  0  0  0  0  0  0  0  0  0
  -21.9480   -9.0120   20.4830 C   0  0  0  0  0  3  0  0  0  0  0  0
  -22.6770  -10.2030   20.3080 C   0  0  0  0  0  3  0  0  0  0  0  0
  -21.6110   -6.9000   21.4920 O   0  0  0  0  0  0  0  0  0  0  0  0
  -21.5790   -6.1510   22.6410 C   0  0  0  0  0  0  0  0  0  0  0  0
  -21.1560   -6.6960   23.8750 C   0  0  0  0  0  3  0  0  0  0  0  0
  -21.0560   -5.8700   25.0120 C   0  0  0  0  0  3  0  0  0  0  0  0
  -21.3800   -4.5020   24.9200 C   0  0  0  0  0  0  0  0  0  0  0  0
  -21.7940   -3.9570   23.6920 C   0  0  0  0  0  3  0  0  0  0  0  0
  -21.8920   -4.7780   22.5570 C   0  0  0  0  0  0  0  0  0  0  0  0
  -22.2700   -4.2480   21.3710 F   0  0  0  0  0  0  0  0  0  0  0  0
  -21.2820   -3.7050   26.0110 F   0  0  0  0  0  0  0  0  0  0  0  0
  -22.7140  -13.5380   21.2150 C   0  0  0  0  0  0  0  0  0  0  0  0
  -22.0050  -12.8330   22.1020 N   0  0  0  0  0  0  0  0  0  0  0  0
  -22.2790  -14.5630   20.7280 O   0  0  0  0  0  0  0  0  0  0  0  0
  -22.3920  -12.0090   22.5180 H   0  0  0  0  0  0  0  0  0  0  0  0
  -21.0740  -13.1260   22.3350 H   0  0  0  0  0  0  0  0  0  0  0  0
  -25.3130  -15.1990   20.3900 N   0  0  0  0  0  0  0  0  0  0  0  0
  -24.5070  -15.8050   20.5350 H   0  0  0  0  0  0  0  0  0  0  0  0
  -26.1410  -15.6940   20.0700 H   0  0  0  0  0  0  0  0  0  0  0  0
  -31.5210  -20.5180   18.6580 O   0  0  0  0  0  0  0  0  0  0  0  0
  -31.1360  -21.9630   18.5660 C   0  0  0  0  0  2  0  0  0  0  0  0
  -29.6340  -22.4000   18.9200 C   0  0  0  0  0  0  0  0  0  0  0  0
  -28.8590  -21.4900   19.2530 O   0  0  0  0  0  0  0  0  0  0  0  0
  -27.7530  -23.4620   17.7730 C   0  0  0  0  0  1  0  0  0  0  0  0
  -28.9920  -23.8860   18.6250 C   0  0  0  0  0  3  0  0  0  0  0  0
  -28.2880  -24.9120   19.6900 C   0  0  0  0  0  2  0  0  0  0  0  0
  -28.3850  -26.3710   20.0970 O   0  0  0  0  0  0  0  0  0  0  0  0
  -24.5460  -31.8510   23.2370 C   0  0  0  0  0  0  0  0  0  0  0  0
  -27.2310  -27.2620   20.1770 C   0  0  0  0  0  0  0  0  0  0  0  0
  -23.3530  -30.4460   21.6200 C   0  0  0  0  0  3  0  0  0  0  0  0
  -24.8110  -28.9330   20.1940 C   0  0  0  0  0  0  0  0  0  0  0  0
  -25.9320  -30.7760   21.4510 C   0  0  0  0  0  2  0  0  0  0  0  0
  -26.0080  -29.4160   20.7330 C   0  0  0  0  0  0  0  0  0  0  0  0
  -27.2030  -28.6210   20.7170 C   0  0  0  0  0  3  0  0  0  0  0  0
  -25.9570  -26.7820   19.7520 C   0  0  0  0  0  3  0  0  0  0  0  0
  -24.8190  -27.6150   19.6880 C   0  0  0  0  0  3  0  0  0  0  0  0
  -23.5550  -29.7800   20.2470 C   0  0  0  0  0  2  0  0  0  0  0  0
  -24.6340  -31.0340   22.1540 N   0  0  0  0  0  0  0  0  0  0  0  0
  -23.4470  -32.1360   23.7550 O   0  0  0  0  0  0  0  0  0  0  0  0
  -22.6500  -29.4490   22.5630 C   0  0  0  0  0  0  0  0  0  0  0  0
  -21.3080  -29.2600   22.4010 N   0  0  0  0  0  0  0  0  0  0  0  0
  -23.3410  -28.8190   23.3730 O   0  0  0  0  0  0  0  0  0  0  0  0
  -20.8120  -29.8140   21.7140 H   0  0  0  0  0  0  0  0  0  0  0  0
  -17.9630  -28.1010   22.9440 C   0  0  0  0  0  0  0  0  0  0  0  0
  -20.5050  -28.3320   23.2130 C   0  0  0  0  0  3  0  0  0  0  0  0
  -20.5920  -26.8930   22.6370 C   0  0  0  0  0  2  0  0  0  0  0  0
  -19.4970  -26.6030   21.6170 C   0  0  0  0  0  2  0  0  0  0  0  0
  -18.1220  -26.7590   22.2560 C   0  0  0  0  0  2  0  0  0  0  0  0
  -19.0760  -28.8610   23.3750 C   0  0  0  0  0  0  0  0  0  0  0  0
  -18.8660  -30.1260   23.9680 C   0  0  0  0  0  3  0  0  0  0  0  0
  -17.5600  -30.6310   24.1280 C   0  0  0  0  0  3  0  0  0  0  0  0
  -16.4580  -29.8690   23.7030 C   0  0  0  0  0  3  0  0  0  0  0  0
  -16.6600  -28.6030   23.1300 C   0  0  0  0  0  3  0  0  0  0  0  0
  -25.8190  -32.4840   23.8890 C   0  0  0  0  0  3  0  0  0  0  0  0
  -25.5100  -33.8930   24.1650 N   0  0  0  0  0  0  0  0  0  0  0  0
  -25.8850  -34.9350   23.4240 C   0  0  0  0  0  0  0  0  0  0  0  0
  -26.5770  -34.8300   22.3960 O   0  0  0  0  0  0  0  0  0  0  0  0
  -24.8750  -34.0650   24.9390 H   0  0  0  0  0  0  0  0  0  0  0  0
  -24.1600  -36.7270   23.0450 C   0  0  0  0  0  1  0  0  0  0  0  0
  -25.4040  -36.3380   23.8690 C   0  0  0  0  0  3  0  0  0  0  0  0
  -27.5370  -37.1950   24.7050 C   0  0  0  0  0  1  0  0  0  0  0  0
  -26.4400  -37.3800   23.7540 N   0  0  0  0  0  0  0  0  0  0  0  0
  -26.0520  -38.3100   23.8930 H   0  0  0  0  0  0  0  0  0  0  0  0
  -26.3130  -31.7430   25.1800 C   0  0  1  0  0  0  0  0  0  0  0  0
  -25.1990  -31.5310   26.2280 C   0  0  0  0  0  1  0  0  0  0  0  0
  -26.8920  -30.3570   24.8340 C   0  0  0  0  0  1  0  0  0  0  0  0
  -27.4690  -32.5460   25.8230 C   0  0  0  0  0  1  0  0  0  0  0  0
  1  3  1  0
  2  5  1  0
  3 11  1  0
  3  5  1  0
  4  7  1  0
  4  1  1  0
  5  8  1  0
  6 50  1  0
  6  4  1  0
  6  2  1  0
  8 10  1  0
  9 10  1  0
 11 20  1  0
 12 20  1  0
 13 18  1  0
 14 15  1  0
 14 13  1  0
 16 15  1  0
 16 25  1  0
 16 17  1  0
 18 12  1  0
 18 17  1  0
 19 12  2  0
 20 21  1  0
 22 23  2  0
 23 42  1  0
 24 23  1  0
 24 27  1  0
 25 26  1  0
 25 22  1  0
 26 24  2  0
 27 28  1  0
 28 29  2  0
 30 33  1  0
 30 29  1  0
 31 30  2  0
 32 31  1  0
 32 27  2  0
 33 34  1  0
 34 35  1  0
 35 36  2  0
 37 36  1  0
 37 41  1  0
 38 37  2  0
 39 34  2  0
 39 38  1  0
 40 39  1  0
 42 43  1  0
 43 46  1  0
 43 45  1  0
 44 42  2  0
 47 48  1  0
 47 22  1  0
 49 47  1  0
 51 50  1  0
 51 52  1  0
 52 53  2  0
 55 54  1  0
 55 52  1  0
 55 56  1  0
 56 57  1  0
 57 59  1  0
 58 69  2  0
 59 64  1  0
 60 68  1  0
 60 70  1  0
 61 67  1  0
 61 63  1  0
 62 68  1  0
 63 62  1  0
 64 63  2  0
 65 59  2  0
 66 65  1  0
 66 61  2  0
 67 60  1  0
 68 58  1  0
 70 72  2  0
 71 70  1  0
 73 71  1  0
 74 83  2  0
 74 79  1  0
 75 71  1  0
 75 79  1  0
 76 75  1  0
 77 78  1  0
 77 76  1  0
 78 74  1  0
 79 80  2  0
 80 81  1  0
 82 81  2  0
 83 82  1  0
 84 58  1  0
 84 85  1  0
 84 94  1  0
 85 88  1  0
 86 90  1  0
 86 85  1  0
 87 86  2  0
 90 89  1  0
 92 90  1  0
 92 93  1  0
 92 91  1  0
 94 97  1  1
 94 95  1  0
 96 94  1  0
M  ISO  4  12 100  20 100  56 101  57 101
M  END
>  <TORSDO>  (9) 
F 24

>  <SCORE>  (9) 
-12.606

>  <name>  (9) 
8

>  <ligand_id>  (9) 
8

>  <original_smiles>  (9) 
[H]c1c([H])c([H])c2c(c1[H])C([H])([H])C([H])([H])C([H])([H])C2([H])N([H])C(=O)C1([H])N(C(=O)C([H])(N([H])C(=O)C([H])(N([H])C([H])([H])[H])C([H])([H])[H])C(C([H])([H])[H])(C([H])([H])[H])C([H])([H])[H])C([H])([H])c2c([H])c(OC([H])([H])C([H])(C(=O)C([H])([H])Oc3c([H])c(C([H])([H])C([H])([H])C([H])([H])[H])c(C([H])([H])N([H])C(=O)N4C([H])([H])C([H])([H])C([H])([H])C([H])(n5nc(-c6c([H])c([H])c(Oc7c([H])c([H])c(F)c([H])c7F)c([H])c6[H])c(C(=O)N([H])[H])c5N([H])[H])C4([H])[H])c([H])c3C([H])([H])[H])C([H])([H])[H])c([H])c([H])c2C1([H])[H]

>  <smiles>  (9) 
[H]c1c([H])c([H])c2c(c1[H])C([H])([H])C([H])([H])C([H])([H])C2([H])N([H])C(=O)C1([H])N(C(=O)C([H])(N([H])C(=O)C([H])(N([H])C([H])([H])[H])C([H])([H])[H])C(C([H])([H])[H])(C([H])([H])[H])C([H])([H])[H])C([H])([H])c2c([H])c(OC([H])([H])C([H])(C(=O)C([H])([H])Oc3c([H])c(C([H])([H])C([H])([H])C([H])([H])[H])c(C([H])([H])N([H])C(=O)N4C([H])([H])C([H])([H])C([H])([H])C([H])(n5nc(-c6c([H])c([H])c(Oc7c([H])c([H])c(F)c([H])c7F)c([H])c6[H])c(C(=O)N([H])[H])c5N([H])[H])C4([H])[H])c([H])c3C([H])([H])[H])C([H])([H])[H])c([H])c([H])c2C1([H])[H]

$$$$
9:0:0
     RDKit          3D

 96104  0  0  1  0  0  0  0  0999 V2000
  -29.2010  -20.8960   20.4650 C   0  0  0  0  0  0  0  0  0  0  0  0
  -28.1150  -21.4180   20.8550 N   0  0  0  0  0  0  0  0  0  0  0  0
  -27.4740  -20.7220   21.2180 H   0  0  0  0  0  0  0  0  0  0  0  0
  -30.7440  -18.9150   20.0410 C   0  0  0  0  0  3  0  0  0  0  0  0
  -31.0240  -17.5310   20.0920 C   0  0  0  0  0  3  0  0  0  0  0  0
  -28.6020  -18.5320   21.1130 C   0  0  0  0  0  3  0  0  0  0  0  0
  -29.5270  -19.4400   20.5440 C   0  0  0  0  0  0  0  0  0  0  0  0
  -30.0780  -16.6350   20.6460 C   0  0  0  0  0  0  0  0  0  0  0  0
  -28.8760  -17.1520   21.1640 C   0  0  0  0  0  0  0  0  0  0  0  0
  -27.9650  -16.3040   21.7010 F   0  0  0  0  0  0  0  0  0  0  0  0
  -30.7230  -14.3910   19.7860 C   0  0  0  0  0  0  0  0  0  0  0  0
  -30.2320  -12.3550   18.4790 C   0  0  0  0  0  2  0  0  0  0  0  0
  -29.1620  -12.6870   17.4190 C   0  0  0  0  0  2  0  0  0  0  0  0
  -27.7430  -12.5490   18.0040 C   0  0  0  0  0  2  0  0  0  0  0  0
  -27.5820  -13.2820   19.3620 C   0  0  0  0  0  3  0  0  0  0  0  0
  -28.7440  -12.9180   20.3130 C   0  0  0  0  0  2  0  0  0  0  0  0
  -30.0160  -13.2380   19.6350 N   0  0  0  0  0  0  0  0  0  0  0  0
  -31.7270  -14.6570   19.1190 O   0  0  0  0  0  0  0  0  0  0  0  0
  -30.2280  -15.2230   20.7140 N   0  0  0  0  0  0  0  0  0  0  0  0
  -29.5420  -14.7880   21.3130 H   0  0  0  0  0  0  0  0  0  0  0  0
  -25.2800  -13.8930   20.3430 C   0  0  0  0  0  0  0  0  0  0  0  0
  -24.2450  -13.1180   20.7950 C   0  0  0  0  0  0  0  0  0  0  0  0
  -24.6770  -11.7640   20.6600 C   0  0  0  0  0  0  0  0  0  0  0  0
  -26.2800  -13.0090   19.9680 N   0  0  0  0  0  0  0  0  0  0  0  0
  -25.9250  -11.7200   20.2120 N   0  0  0  0  0  0  0  0  0  0  0  0
  -23.9560  -10.5030   20.8790 C   0  0  0  0  0  0  0  0  0  0  0  0
  -24.4320   -9.5270   21.7810 C   0  0  0  0  0  3  0  0  0  0  0  0
  -23.7120   -8.3300   21.9870 C   0  0  0  0  0  3  0  0  0  0  0  0
  -22.5010   -8.1020   21.2900 C   0  0  0  0  0  0  0  0  0  0  0  0
  -22.0430   -9.0670   20.3760 C   0  0  0  0  0  3  0  0  0  0  0  0
  -22.7640  -10.2550   20.1680 C   0  0  0  0  0  3  0  0  0  0  0  0
  -21.7480   -6.9580   21.4060 O   0  0  0  0  0  0  0  0  0  0  0  0
  -21.7070   -6.2400   22.5750 C   0  0  0  0  0  0  0  0  0  0  0  0
  -21.2960   -6.8250   23.7930 C   0  0  0  0  0  3  0  0  0  0  0  0
  -21.1990   -6.0340   24.9550 C   0  0  0  0  0  3  0  0  0  0  0  0
  -21.5030   -4.6600   24.9010 C   0  0  0  0  0  0  0  0  0  0  0  0
  -21.9070   -4.0760   23.6880 C   0  0  0  0  0  3  0  0  0  0  0  0
  -22.0050   -4.8640   22.5270 C   0  0  0  0  0  0  0  0  0  0  0  0
  -22.3740   -4.2910   21.3560 F   0  0  0  0  0  0  0  0  0  0  0  0
  -21.4020   -3.8990   26.0150 F   0  0  0  0  0  0  0  0  0  0  0  0
  -22.8950  -13.6010   21.2410 C   0  0  0  0  0  0  0  0  0  0  0  0
  -22.2710  -12.8980   22.1810 N   0  0  0  0  0  0  0  0  0  0  0  0
  -22.4040  -14.6340   20.7900 O   0  0  0  0  0  0  0  0  0  0  0  0
  -22.6840  -12.0620   22.5680 H   0  0  0  0  0  0  0  0  0  0  0  0
  -21.3710  -13.2050   22.5210 H   0  0  0  0  0  0  0  0  0  0  0  0
  -25.4460  -15.2670   20.2040 N   0  0  0  0  0  0  0  0  0  0  0  0
  -24.7170  -15.9280   20.4440 H   0  0  0  0  0  0  0  0  0  0  0  0
  -26.2880  -15.7110   19.8630 H   0  0  0  0  0  0  0  0  0  0  0  0
  -30.2340  -21.6400   19.9400 O   0  0  0  0  0  0  0  0  0  0  0  0
  -29.9090  -22.8010   19.1630 C   0  0  0  0  0  2  0  0  0  0  0  0
  -30.5180  -24.0770   19.7960 C   0  0  0  0  0  2  0  0  0  0  0  0
  -31.3740  -26.4410   19.5800 C   0  0  0  0  0  1  0  0  0  0  0  0
  -30.9580  -25.1280   17.5140 C   0  0  0  0  0  1  0  0  0  0  0  0
  -30.4440  -25.3830   18.9470 C   0  0  1  0  0  0  0  0  0  0  0  0
  -28.9970  -25.9460   18.8710 C   0  0  0  0  0  2  0  0  0  0  0  0
  -28.6700  -26.7350   20.0170 O   0  0  0  0  0  0  0  0  0  0  0  0
  -24.5940  -31.6530   23.1590 C   0  0  0  0  0  0  0  0  0  0  0  0
  -27.4580  -27.3930   20.0100 C   0  0  0  0  0  0  0  0  0  0  0  0
  -23.4700  -30.2520   21.4570 C   0  0  0  0  0  3  0  0  0  0  0  0
  -25.0060  -28.8020   20.0270 C   0  0  0  0  0  0  0  0  0  0  0  0
  -25.9860  -30.7000   21.3250 C   0  0  0  0  0  2  0  0  0  0  0  0
  -26.1300  -29.3480   20.6580 C   0  0  0  0  0  0  0  0  0  0  0  0
  -27.3540  -28.6440   20.6610 C   0  0  0  0  0  3  0  0  0  0  0  0
  -26.3090  -26.8530   19.3870 C   0  0  0  0  0  3  0  0  0  0  0  0
  -25.0870  -27.5490   19.3980 C   0  0  0  0  0  3  0  0  0  0  0  0
  -23.7320  -29.6150   20.0670 C   0  0  0  0  0  2  0  0  0  0  0  0
  -24.7000  -30.8830   22.0390 N   0  0  0  0  0  0  0  0  0  0  0  0
  -23.4930  -31.8750   23.6810 O   0  0  0  0  0  0  0  0  0  0  0  0
  -22.8370  -29.1850   22.3770 C   0  0  0  0  0  0  0  0  0  0  0  0
  -21.5240  -28.9560   22.2100 N   0  0  0  0  0  0  0  0  0  0  0  0
  -23.5220  -28.5660   23.1950 O   0  0  0  0  0  0  0  0  0  0  0  0
  -21.0300  -29.5100   21.5240 H   0  0  0  0  0  0  0  0  0  0  0  0
  -18.1830  -27.6390   22.5970 C   0  0  0  0  0  0  0  0  0  0  0  0
  -20.7240  -27.9720   22.9370 C   0  0  0  0  0  3  0  0  0  0  0  0
  -20.8870  -26.5610   22.3260 C   0  0  0  0  0  2  0  0  0  0  0  0
  -19.8200  -26.2300   21.2790 C   0  0  0  0  0  2  0  0  0  0  0  0
  -18.4200  -26.3130   21.8940 C   0  0  0  0  0  2  0  0  0  0  0  0
  -19.2660  -28.4240   23.0740 C   0  0  0  0  0  0  0  0  0  0  0  0
  -18.9920  -29.6650   23.6900 C   0  0  0  0  0  3  0  0  0  0  0  0
  -17.6680  -30.1200   23.8360 C   0  0  0  0  0  3  0  0  0  0  0  0
  -16.5990  -29.3310   23.3770 C   0  0  0  0  0  3  0  0  0  0  0  0
  -16.8580  -28.0920   22.7640 C   0  0  0  0  0  3  0  0  0  0  0  0
  -25.8440  -32.3110   23.8210 C   0  0  0  0  0  3  0  0  0  0  0  0
  -25.4910  -33.6970   24.1550 N   0  0  0  0  0  0  0  0  0  0  0  0
  -25.8210  -34.7640   23.4140 C   0  0  0  0  0  0  0  0  0  0  0  0
  -26.5270  -34.6860   22.4060 O   0  0  0  0  0  0  0  0  0  0  0  0
  -24.8650  -33.8280   24.9360 H   0  0  0  0  0  0  0  0  0  0  0  0
  -24.0590  -36.5130   23.0180 C   0  0  0  0  0  1  0  0  0  0  0  0
  -25.2820  -36.1340   23.8670 C   0  0  0  0  0  3  0  0  0  0  0  0
  -27.3660  -37.0650   24.7730 C   0  0  0  0  0  1  0  0  0  0  0  0
  -26.2900  -37.2150   23.7970 N   0  0  0  0  0  0  0  0  0  0  0  0
  -25.8550  -38.1220   23.9420 H   0  0  0  0  0  0  0  0  0  0  0  0
  -26.3480  -31.5380   25.1010 C   0  0  1  0  0  0  0  0  0  0  0  0
  -25.2310  -31.2490   26.1320 C   0  0  0  0  0  1  0  0  0  0  0  0
  -26.9880  -30.1860   24.7070 C   0  0  0  0  0  1  0  0  0  0  0  0
  -27.4510  -32.3600   25.8090 C   0  0  0  0  0  1  0  0  0  0  0  0
  1  7  1  0
  1  2  2  0
  2  3  1  0
  4  5  2  0
  4  7  1  0
  5  8  1  0
  6  9  1  0
  7  6  2  0
  8 19  1  0
  8  9  2  0
  9 10  1  0
 11 19  1  0
 12 17  1  0
 13 14  1  0
 13 12  1  0
 15 14  1  0
 15 24  1  0
 15 16  1  0
 17 11  1  0
 17 16  1  0
 18 11  2  0
 19 20  1  0
 21 22  2  0
 22 41  1  0
 23 22  1  0
 23 26  1  0
 24 25  1  0
 24 21  1  0
 25 23  2  0
 26 27  1  0
 27 28  2  0
 29 32  1  0
 29 28  1  0
 30 29  2  0
 31 30  1  0
 31 26  2  0
 32 33  1  0
 33 34  1  0
 34 35  2  0
 36 35  1  0
 36 40  1  0
 37 36  2  0
 38 33  2  0
 38 37  1  0
 39 38  1  0
 41 42  1  0
 42 45  1  0
 42 44  1  0
 43 41  2  0
 46 21  1  0
 46 47  1  0
 48 46  1  0
 49  1  1  0
 50 51  1  0
 50 49  1  0
 54 53  1  6
 54 52  1  0
 54 51  1  0
 55 54  1  0
 55 56  1  0
 57 68  2  0
 58 56  1  0
 58 63  1  0
 59 67  1  0
 59 69  1  0
 60 66  1  0
 60 62  1  0
 61 67  1  0
 62 63  2  0
 62 61  1  0
 64 65  1  0
 64 58  2  0
 65 60  2  0
 66 59  1  0
 67 57  1  0
 69 71  2  0
 70 69  1  0
 72 70  1  0
 73 82  2  0
 73 78  1  0
 74 70  1  0
 74 78  1  0
 75 74  1  0
 76 77  1  0
 76 75  1  0
 77 73  1  0
 78 79  2  0
 79 80  1  0
 81 80  2  0
 82 81  1  0
 83 57  1  0
 83 84  1  0
 83 93  1  0
 84 87  1  0
 85 89  1  0
 85 84  1  0
 86 85  2  0
 89 88  1  0
 91 89  1  0
 91 92  1  0
 91 90  1  0
 93 96  1  1
 93 94  1  0
 95 93  1  0
M  ISO  4  11 100  19 100  55 101  56 101
M  END
>  <TORSDO>  (10) 
F 22

>  <SCORE>  (10) 
-11.143

>  <name>  (10) 
9

>  <ligand_id>  (10) 
9

>  <original_smiles>  (10) 
[H]N=C(OC([H])([H])C([H])([H])C(C([H])([H])[H])(C([H])([H])[H])C([H])([H])Oc1c([H])c([H])c2c(c1[H])C([H])([H])N(C(=O)C([H])(N([H])C(=O)C([H])(N([H])C([H])([H])[H])C([H])([H])[H])C(C([H])([H])[H])(C([H])([H])[H])C([H])([H])[H])C([H])(C(=O)N([H])C1([H])c3c([H])c([H])c([H])c([H])c3C([H])([H])C([H])([H])C1([H])[H])C2([H])[H])c1c([H])c([H])c(N([H])C(=O)N2C([H])([H])C([H])([H])C([H])([H])C([H])(n3nc(-c4c([H])c([H])c(Oc5c([H])c([H])c(F)c([H])c5F)c([H])c4[H])c(C(=O)N([H])[H])c3N([H])[H])C2([H])[H])c(F)c1[H]

>  <smiles>  (10) 
[H]N=C(OC([H])([H])C([H])([H])C(C([H])([H])[H])(C([H])([H])[H])C([H])([H])Oc1c([H])c([H])c2c(c1[H])C([H])([H])N(C(=O)C([H])(N([H])C(=O)C([H])(N([H])C([H])([H])[H])C([H])([H])[H])C(C([H])([H])[H])(C([H])([H])[H])C([H])([H])[H])C([H])(C(=O)N([H])C1([H])c3c([H])c([H])c([H])c([H])c3C([H])([H])C([H])([H])C1([H])[H])C2([H])[H])c1c([H])c([H])c(N([H])C(=O)N2C([H])([H])C([H])([H])C([H])([H])C([H])(n3nc(-c4c([H])c([H])c(Oc5c([H])c([H])c(F)c([H])c5F)c([H])c4[H])c(C(=O)N([H])[H])c3N([H])[H])C2([H])[H])c(F)c1[H]

$$$$
10:0:0
     RDKit          3D

 95103  0  0  1  0  0  0  0  0999 V2000
  -28.9730  -21.5230   20.9390 C   0  0  0  0  0  2  0  0  0  0  0  0
  -28.9190  -19.2440   19.5410 C   0  0  0  0  0  3  0  0  0  0  0  0
  -29.1400  -17.8370   19.4770 C   0  0  0  0  0  3  0  0  0  0  0  0
  -30.0210  -19.2940   21.6730 C   0  0  0  0  0  3  0  0  0  0  0  0
  -30.2490  -17.8810   21.6360 C   0  0  0  0  0  0  0  0  0  0  0  0
  -29.3250  -20.0100   20.6630 C   0  0  0  0  0  0  0  0  0  0  0  0
  -29.7880  -17.1170   20.5170 C   0  0  0  0  0  0  0  0  0  0  0  0
  -30.4720  -14.6940   19.9540 C   0  0  0  0  0  0  0  0  0  0  0  0
  -30.1930  -12.5200   18.7840 C   0  0  0  0  0  2  0  0  0  0  0  0
  -29.1500  -12.7120   17.6610 C   0  0  0  0  0  2  0  0  0  0  0  0
  -27.7120  -12.5370   18.1940 C   0  0  0  0  0  2  0  0  0  0  0  0
  -27.4600  -13.3360   19.5010 C   0  0  0  0  0  3  0  0  0  0  0  0
  -28.5990  -13.0960   20.5180 C   0  0  0  0  0  2  0  0  0  0  0  0
  -29.8670  -13.4700   19.8640 N   0  0  0  0  0  0  0  0  0  0  0  0
  -31.5700  -14.9230   19.4350 O   0  0  0  0  0  0  0  0  0  0  0  0
  -29.7020  -15.6640   20.5230 N   0  0  0  0  0  0  0  0  0  0  0  0
  -28.8370  -15.2980   20.8880 H   0  0  0  0  0  0  0  0  0  0  0  0
  -25.1150  -13.9080   20.3940 C   0  0  0  0  0  0  0  0  0  0  0  0
  -24.0840  -13.1190   20.8280 C   0  0  0  0  0  0  0  0  0  0  0  0
  -24.5530  -11.7740   20.7440 C   0  0  0  0  0  0  0  0  0  0  0  0
  -26.1480  -13.0390   20.0730 N   0  0  0  0  0  0  0  0  0  0  0  0
  -25.8180  -11.7510   20.3410 N   0  0  0  0  0  0  0  0  0  0  0  0
  -23.8550  -10.5010   20.9680 C   0  0  0  0  0  0  0  0  0  0  0  0
  -24.3300   -9.5510   21.9000 C   0  0  0  0  0  3  0  0  0  0  0  0
  -23.6300   -8.3440   22.1100 C   0  0  0  0  0  3  0  0  0  0  0  0
  -22.4410   -8.0760   21.3900 C   0  0  0  0  0  0  0  0  0  0  0  0
  -21.9840   -9.0160   20.4490 C   0  0  0  0  0  3  0  0  0  0  0  0
  -22.6850  -10.2150   20.2360 C   0  0  0  0  0  3  0  0  0  0  0  0
  -21.7110   -6.9190   21.5110 O   0  0  0  0  0  0  0  0  0  0  0  0
  -21.6830   -6.2040   22.6810 C   0  0  0  0  0  0  0  0  0  0  0  0
  -21.2380   -6.7770   23.8930 C   0  0  0  0  0  3  0  0  0  0  0  0
  -21.1580   -5.9870   25.0580 C   0  0  0  0  0  3  0  0  0  0  0  0
  -21.5130   -4.6260   25.0110 C   0  0  0  0  0  0  0  0  0  0  0  0
  -21.9520   -4.0520   23.8040 C   0  0  0  0  0  3  0  0  0  0  0  0
  -22.0330   -4.8400   22.6420 C   0  0  0  0  0  0  0  0  0  0  0  0
  -22.4360   -4.2770   21.4780 F   0  0  0  0  0  0  0  0  0  0  0  0
  -21.4300   -3.8640   26.1270 F   0  0  0  0  0  0  0  0  0  0  0  0
  -22.7050  -13.5780   21.2090 C   0  0  0  0  0  0  0  0  0  0  0  0
  -22.0430  -12.8560   22.1060 N   0  0  0  0  0  0  0  0  0  0  0  0
  -22.2260  -14.6130   20.7470 O   0  0  0  0  0  0  0  0  0  0  0  0
  -22.4430  -12.0190   22.5020 H   0  0  0  0  0  0  0  0  0  0  0  0
  -21.1220  -13.1470   22.4040 H   0  0  0  0  0  0  0  0  0  0  0  0
  -25.2540  -15.2820   20.2280 N   0  0  0  0  0  0  0  0  0  0  0  0
  -24.4880  -15.9240   20.4010 H   0  0  0  0  0  0  0  0  0  0  0  0
  -26.0760  -15.7410   19.8550 H   0  0  0  0  0  0  0  0  0  0  0  0
  -30.9700  -17.2480   22.7890 C   0  0  0  0  0  0  0  0  0  0  0  0
  -30.9270  -17.9740   24.1290 C   0  0  0  0  0  1  0  0  0  0  0  0
  -31.5800  -16.1770   22.7280 O   0  0  0  0  0  0  0  0  0  0  0  0
  -29.6330  -22.5380   18.6730 C   0  0  0  0  0  1  0  0  0  0  0  0
  -27.1850  -22.3410   19.2920 C   0  0  0  0  0  1  0  0  0  0  0  0
  -28.6110  -22.6150   19.8270 C   0  0  1  0  0  0  0  0  0  0  0  0
  -28.6000  -24.0990   20.4080 C   0  0  0  0  0  0  0  0  0  0  0  0
  -28.7210  -24.2850   21.6230 O   0  0  0  0  0  0  0  0  0  0  0  0
  -28.4230  -25.3390   19.4530 C   0  0  0  0  0  2  0  0  0  0  0  0
  -28.3260  -26.6510   20.1210 O   0  0  0  0  0  0  0  0  0  0  0  0
  -24.5610  -31.9270   23.2250 C   0  0  0  0  0  0  0  0  0  0  0  0
  -27.1590  -27.4220   20.0940 C   0  0  0  0  0  0  0  0  0  0  0  0
  -23.3350  -30.5290   21.5960 C   0  0  0  0  0  3  0  0  0  0  0  0
  -24.7710  -28.9950   20.1450 C   0  0  0  0  0  0  0  0  0  0  0  0
  -25.8660  -30.8720   21.3700 C   0  0  0  0  0  2  0  0  0  0  0  0
  -25.9430  -29.4970   20.7190 C   0  0  0  0  0  0  0  0  0  0  0  0
  -27.1360  -28.7190   20.6900 C   0  0  0  0  0  3  0  0  0  0  0  0
  -25.9530  -26.9570   19.5180 C   0  0  0  0  0  3  0  0  0  0  0  0
  -24.7750  -27.7270   19.5450 C   0  0  0  0  0  3  0  0  0  0  0  0
  -23.5310  -29.8590   20.2120 C   0  0  0  0  0  2  0  0  0  0  0  0
  -24.6070  -31.1270   22.1210 N   0  0  0  0  0  0  0  0  0  0  0  0
  -23.4860  -32.1940   23.7810 O   0  0  0  0  0  0  0  0  0  0  0  0
  -22.6990  -29.5020   22.5620 C   0  0  0  0  0  0  0  0  0  0  0  0
  -21.3770  -29.2980   22.4400 N   0  0  0  0  0  0  0  0  0  0  0  0
  -23.3930  -28.8920   23.3800 O   0  0  0  0  0  0  0  0  0  0  0  0
  -20.8740  -29.8430   21.7520 H   0  0  0  0  0  0  0  0  0  0  0  0
  -18.0280  -28.0330   22.9420 C   0  0  0  0  0  0  0  0  0  0  0  0
  -20.5800  -28.3460   23.2150 C   0  0  0  0  0  3  0  0  0  0  0  0
  -20.7150  -26.9150   22.6470 C   0  0  0  0  0  2  0  0  0  0  0  0
  -19.6200  -26.5570   21.6370 C   0  0  0  0  0  2  0  0  0  0  0  0
  -18.2330  -26.6820   22.2760 C   0  0  0  0  0  2  0  0  0  0  0  0
  -19.1300  -28.8200   23.3690 C   0  0  0  0  0  0  0  0  0  0  0  0
  -18.8850  -30.0810   23.9550 C   0  0  0  0  0  3  0  0  0  0  0  0
  -17.5710  -30.5570   24.1170 C   0  0  0  0  0  3  0  0  0  0  0  0
  -16.4830  -29.7680   23.7010 C   0  0  0  0  0  3  0  0  0  0  0  0
  -16.7120  -28.5080   23.1210 C   0  0  0  0  0  3  0  0  0  0  0  0
  -25.8500  -32.5630   23.8280 C   0  0  0  0  0  3  0  0  0  0  0  0
  -25.5360  -33.9550   24.1790 N   0  0  0  0  0  0  0  0  0  0  0  0
  -25.8510  -35.0200   23.4290 C   0  0  0  0  0  0  0  0  0  0  0  0
  -26.5080  -34.9360   22.3890 O   0  0  0  0  0  0  0  0  0  0  0  0
  -24.9550  -34.0950   24.9930 H   0  0  0  0  0  0  0  0  0  0  0  0
  -24.1130  -36.8110   23.1080 C   0  0  0  0  0  1  0  0  0  0  0  0
  -25.3580  -36.3990   23.9100 C   0  0  0  0  0  3  0  0  0  0  0  0
  -27.4880  -37.2830   24.7530 C   0  0  0  0  0  1  0  0  0  0  0  0
  -26.3860  -37.4580   23.8110 N   0  0  0  0  0  0  0  0  0  0  0  0
  -25.9750  -38.3740   23.9720 H   0  0  0  0  0  0  0  0  0  0  0  0
  -26.4000  -31.7840   25.0860 C   0  0  1  0  0  0  0  0  0  0  0  0
  -25.3290  -31.5140   26.1670 C   0  0  0  0  0  1  0  0  0  0  0  0
  -27.0000  -30.4220   24.6660 C   0  0  0  0  0  1  0  0  0  0  0  0
  -27.5470  -32.5880   25.7420 C   0  0  0  0  0  1  0  0  0  0  0  0
  2  6  1  0
  3  2  2  0
  3  7  1  0
  5  4  1  0
  5 46  1  0
  6  1  1  0
  6  4  2  0
  7 16  1  0
  7  5  2  0
  8 16  1  0
  9 14  1  0
 10 11  1  0
 10  9  1  0
 12 11  1  0
 12 21  1  0
 12 13  1  0
 14  8  1  0
 14 13  1  0
 15  8  2  0
 16 17  1  0
 18 19  2  0
 19 38  1  0
 20 19  1  0
 20 23  1  0
 21 22  1  0
 21 18  1  0
 22 20  2  0
 23 24  1  0
 24 25  2  0
 26 29  1  0
 26 25  1  0
 27 26  2  0
 28 27  1  0
 28 23  2  0
 29 30  1  0
 30 31  1  0
 31 32  2  0
 33 32  1  0
 33 37  1  0
 34 33  2  0
 35 30  2  0
 35 34  1  0
 36 35  1  0
 38 39  1  0
 39 42  1  0
 39 41  1  0
 40 38  2  0
 43 18  1  0
 43 44  1  0
 45 43  1  0
 46 47  1  0
 48 46  2  0
 51 49  1  6
 50 51  1  0
 51 52  1  0
 51  1  1  0
 52 53  2  0
 54 55  1  0
 54 52  1  0
 56 67  2  0
 57 55  1  0
 57 62  1  0
 58 66  1  0
 58 68  1  0
 59 65  1  0
 59 61  1  0
 60 66  1  0
 61 60  1  0
 62 61  2  0
 63 64  1  0
 63 57  2  0
 64 59  2  0
 65 58  1  0
 66 56  1  0
 68 70  2  0
 69 68  1  0
 71 69  1  0
 72 81  2  0
 72 77  1  0
 73 69  1  0
 73 77  1  0
 74 73  1  0
 75 76  1  0
 75 74  1  0
 76 72  1  0
 77 78  2  0
 78 79  1  0
 80 79  2  0
 81 80  1  0
 82 56  1  0
 82 83  1  0
 82 92  1  0
 83 86  1  0
 84 88  1  0
 84 83  1  0
 85 84  2  0
 88 87  1  0
 90 88  1  0
 90 91  1  0
 90 89  1  0
 92 95  1  1
 92 93  1  0
 94 92  1  0
M  ISO  4   8 100  16 100  54 101  55 101
M  END
>  <TORSDO>  (11) 
F 21

>  <SCORE>  (11) 
-11.608

>  <name>  (11) 
10

>  <ligand_id>  (11) 
10

>  <original_smiles>  (11) 
[H]c1c([H])c([H])c2c(c1[H])C([H])([H])C([H])([H])C([H])([H])C2([H])N([H])C(=O)C1([H])N(C(=O)C([H])(N([H])C(=O)C([H])(N([H])C([H])([H])[H])C([H])([H])[H])C(C([H])([H])[H])(C([H])([H])[H])C([H])([H])[H])C([H])([H])c2c([H])c(OC([H])([H])C(=O)C(C([H])([H])[H])(C([H])([H])[H])C([H])([H])c3c([H])c([H])c(N([H])C(=O)N4C([H])([H])C([H])([H])C([H])([H])C([H])(n5nc(-c6c([H])c([H])c(Oc7c([H])c([H])c(F)c([H])c7F)c([H])c6[H])c(C(=O)N([H])[H])c5N([H])[H])C4([H])[H])c(C(=O)C([H])([H])[H])c3[H])c([H])c([H])c2C1([H])[H]

>  <smiles>  (11) 
[H]c1c([H])c([H])c2c(c1[H])C([H])([H])C([H])([H])C([H])([H])C2([H])N([H])C(=O)C1([H])N(C(=O)C([H])(N([H])C(=O)C([H])(N([H])C([H])([H])[H])C([H])([H])[H])C(C([H])([H])[H])(C([H])([H])[H])C([H])([H])[H])C([H])([H])c2c([H])c(OC([H])([H])C(=O)C(C([H])([H])[H])(C([H])([H])[H])C([H])([H])c3c([H])c([H])c(N([H])C(=O)N4C([H])([H])C([H])([H])C([H])([H])C([H])(n5nc(-c6c([H])c([H])c(Oc7c([H])c([H])c(F)c([H])c7F)c([H])c6[H])c(C(=O)N([H])[H])c5N([H])[H])C4([H])[H])c(C(=O)C([H])([H])[H])c3[H])c([H])c([H])c2C1([H])[H]

$$$$
11:0:0
     RDKit          3D

 95103  0  0  1  0  0  0  0  0999 V2000
  -29.2260  -19.5140   20.2320 C   0  0  0  0  0  3  0  0  0  0  0  0
  -31.2290  -18.1250   21.6140 C   0  0  0  0  0  3  0  0  0  0  0  0
  -29.1360  -18.1020   20.4090 C   0  0  0  0  0  0  0  0  0  0  0  0
  -30.3040  -20.2690   20.7470 C   0  0  0  0  0  0  0  0  0  0  0  0
  -30.1400  -17.3680   21.1120 C   0  0  0  0  0  0  0  0  0  0  0  0
  -31.3110  -19.5360   21.4370 C   0  0  0  0  0  0  0  0  0  0  0  0
  -32.3920  -20.1880   21.9290 F   0  0  0  0  0  0  0  0  0  0  0  0
  -30.8470  -14.8980   21.3290 C   0  0  0  0  0  0  0  0  0  0  0  0
  -30.8470  -12.5730   20.4610 C   0  0  0  0  0  2  0  0  0  0  0  0
  -30.0780  -12.5540   19.1220 C   0  0  0  0  0  2  0  0  0  0  0  0
  -28.5650  -12.3680   19.3570 C   0  0  0  0  0  2  0  0  0  0  0  0
  -28.0060  -13.3160   20.4510 C   0  0  0  0  0  3  0  0  0  0  0  0
  -28.9050  -13.3180   21.7090 C   0  0  0  0  0  2  0  0  0  0  0  0
  -30.2740  -13.6550   21.2840 N   0  0  0  0  0  0  0  0  0  0  0  0
  -32.0510  -15.0650   21.1250 O   0  0  0  0  0  0  0  0  0  0  0  0
  -29.9710  -15.9450   21.3990 N   0  0  0  0  0  0  0  0  0  0  0  0
  -29.0140  -15.6390   21.4660 H   0  0  0  0  0  0  0  0  0  0  0  0
  -25.5460  -13.8940   20.9440 C   0  0  0  0  0  0  0  0  0  0  0  0
  -24.4420  -13.1120   21.1430 C   0  0  0  0  0  0  0  0  0  0  0  0
  -24.9010  -11.7620   21.0720 C   0  0  0  0  0  0  0  0  0  0  0  0
  -26.6100  -13.0220   20.7660 N   0  0  0  0  0  0  0  0  0  0  0  0
  -26.2180  -11.7300   20.9040 N   0  0  0  0  0  0  0  0  0  0  0  0
  -24.1530  -10.5010   21.0960 C   0  0  0  0  0  0  0  0  0  0  0  0
  -24.4630   -9.4770   22.0170 C   0  0  0  0  0  3  0  0  0  0  0  0
  -23.7170   -8.2790   22.0330 C   0  0  0  0  0  3  0  0  0  0  0  0
  -22.6460   -8.0990   21.1260 C   0  0  0  0  0  0  0  0  0  0  0  0
  -22.3560   -9.1130   20.1960 C   0  0  0  0  0  3  0  0  0  0  0  0
  -23.1030  -10.3010   20.1770 C   0  0  0  0  0  3  0  0  0  0  0  0
  -21.8830   -6.9590   21.0520 O   0  0  0  0  0  0  0  0  0  0  0  0
  -21.6400   -6.1830   22.1570 C   0  0  0  0  0  0  0  0  0  0  0  0
  -20.9850   -6.6950   23.2980 C   0  0  0  0  0  3  0  0  0  0  0  0
  -20.6940   -5.8450   24.3830 C   0  0  0  0  0  3  0  0  0  0  0  0
  -21.0460   -4.4830   24.3260 C   0  0  0  0  0  0  0  0  0  0  0  0
  -21.6940   -3.9700   23.1890 C   0  0  0  0  0  3  0  0  0  0  0  0
  -21.9870   -4.8180   22.1050 C   0  0  0  0  0  0  0  0  0  0  0  0
  -22.5920   -4.3130   21.0030 F   0  0  0  0  0  0  0  0  0  0  0  0
  -20.7580   -3.6640   25.3640 F   0  0  0  0  0  0  0  0  0  0  0  0
  -23.0270  -13.5890   21.2910 C   0  0  0  0  0  0  0  0  0  0  0  0
  -22.2080  -12.8580   22.0390 N   0  0  0  0  0  0  0  0  0  0  0  0
  -22.6510  -14.6460   20.7840 O   0  0  0  0  0  0  0  0  0  0  0  0
  -22.5220  -12.0040   22.4760 H   0  0  0  0  0  0  0  0  0  0  0  0
  -21.2540  -13.1590   22.1780 H   0  0  0  0  0  0  0  0  0  0  0  0
  -25.7170  -15.2700   20.8780 N   0  0  0  0  0  0  0  0  0  0  0  0
  -24.9250  -15.9020   20.9230 H   0  0  0  0  0  0  0  0  0  0  0  0
  -26.5720  -15.7290   20.6030 H   0  0  0  0  0  0  0  0  0  0  0  0
  -27.9380  -17.3980   19.8010 C   0  0  0  0  0  2  0  0  0  0  0  0
  -27.1550  -15.5640   18.2010 C   0  0  0  0  0  1  0  0  0  0  0  0
  -28.3190  -16.4620   18.6440 C   0  0  0  0  0  2  0  0  0  0  0  0
  -30.4700  -21.7950   20.4370 C   0  0  0  0  0  3  0  0  0  0  0  0
  -29.3190  -22.8410   20.7550 C   0  0  0  0  0  3  0  0  0  0  0  0
  -29.7910  -24.4050   18.7810 C   0  0  0  0  0  1  0  0  0  0  0  0
  -30.7570  -24.9490   21.0400 C   0  0  0  0  0  1  0  0  0  0  0  0
  -29.5400  -24.3620   20.3010 C   0  0  2  0  0  0  0  0  0  0  0  0
  -28.2980  -25.3010   20.5950 C   0  0  0  0  0  2  0  0  0  0  0  0
  -28.4360  -26.7320   20.2650 O   0  0  0  0  0  0  0  0  0  0  0  0
  -24.6010  -32.0230   23.3020 C   0  0  0  0  0  0  0  0  0  0  0  0
  -27.2830  -27.5240   20.2470 C   0  0  0  0  0  0  0  0  0  0  0  0
  -23.4190  -30.6130   21.6560 C   0  0  0  0  0  3  0  0  0  0  0  0
  -24.8920  -29.0840   20.2370 C   0  0  0  0  0  0  0  0  0  0  0  0
  -25.9520  -30.9670   21.4820 C   0  0  0  0  0  2  0  0  0  0  0  0
  -26.0510  -29.5930   20.8350 C   0  0  0  0  0  0  0  0  0  0  0  0
  -27.2500  -28.8250   20.8300 C   0  0  0  0  0  3  0  0  0  0  0  0
  -26.1000  -27.0620   19.6240 C   0  0  0  0  0  3  0  0  0  0  0  0
  -24.9160  -27.8210   19.6250 C   0  0  0  0  0  3  0  0  0  0  0  0
  -23.6440  -29.9400   20.2770 C   0  0  0  0  0  2  0  0  0  0  0  0
  -24.6750  -31.2170   22.2030 N   0  0  0  0  0  0  0  0  0  0  0  0
  -23.5130  -32.2880   23.8320 O   0  0  0  0  0  0  0  0  0  0  0  0
  -22.7660  -29.5870   22.6110 C   0  0  0  0  0  0  0  0  0  0  0  0
  -21.4520  -29.3560   22.4430 N   0  0  0  0  0  0  0  0  0  0  0  0
  -23.4400  -29.0010   23.4630 O   0  0  0  0  0  0  0  0  0  0  0  0
  -20.9680  -29.8830   21.7290 H   0  0  0  0  0  0  0  0  0  0  0  0
  -18.1080  -28.0370   22.8370 C   0  0  0  0  0  0  0  0  0  0  0  0
  -20.6410  -28.4040   23.2020 C   0  0  0  0  0  3  0  0  0  0  0  0
  -20.8230  -26.9650   22.6650 C   0  0  0  0  0  2  0  0  0  0  0  0
  -19.7760  -26.5760   21.6160 C   0  0  0  0  0  2  0  0  0  0  0  0
  -18.3640  -26.6800   22.2010 C   0  0  0  0  0  2  0  0  0  0  0  0
  -19.1780  -28.8520   23.2930 C   0  0  0  0  0  0  0  0  0  0  0  0
  -18.8860  -30.1190   23.8440 C   0  0  0  0  0  3  0  0  0  0  0  0
  -17.5560  -30.5700   23.9450 C   0  0  0  0  0  3  0  0  0  0  0  0
  -16.5010  -29.7520   23.5060 C   0  0  0  0  0  3  0  0  0  0  0  0
  -16.7770  -28.4880   22.9590 C   0  0  0  0  0  3  0  0  0  0  0  0
  -25.8760  -32.6670   23.9300 C   0  0  0  0  0  3  0  0  0  0  0  0
  -25.5660  -34.0740   24.2150 N   0  0  0  0  0  0  0  0  0  0  0  0
  -25.8810  -35.1010   23.4130 C   0  0  0  0  0  0  0  0  0  0  0  0
  -26.5330  -34.9630   22.3750 O   0  0  0  0  0  0  0  0  0  0  0  0
  -24.9820  -34.2560   25.0180 H   0  0  0  0  0  0  0  0  0  0  0  0
  -24.1200  -36.8600   23.0500 C   0  0  0  0  0  1  0  0  0  0  0  0
  -25.3950  -36.5030   23.8290 C   0  0  0  0  0  3  0  0  0  0  0  0
  -27.5460  -37.4470   24.5450 C   0  0  0  0  0  1  0  0  0  0  0  0
  -26.4120  -37.5590   23.6320 N   0  0  0  0  0  0  0  0  0  0  0  0
  -26.0000  -38.4810   23.7480 H   0  0  0  0  0  0  0  0  0  0  0  0
  -26.3660  -31.9280   25.2350 C   0  0  1  0  0  0  0  0  0  0  0  0
  -25.2480  -31.7100   26.2830 C   0  0  0  0  0  1  0  0  0  0  0  0
  -26.9650  -30.5450   24.8910 C   0  0  0  0  0  1  0  0  0  0  0  0
  -27.4960  -32.7440   25.9050 C   0  0  0  0  0  1  0  0  0  0  0  0
  1  3  2  0
  1  4  1  0
  3  5  1  0
  4  6  2  0
  5 16  1  0
  5  2  2  0
  6  2  1  0
  6  7  1  0
  8 16  1  0
  9 14  1  0
 10 11  1  0
 10  9  1  0
 12 11  1  0
 12 21  1  0
 12 13  1  0
 14  8  1  0
 14 13  1  0
 15  8  2  0
 16 17  1  0
 18 19  2  0
 19 38  1  0
 20 23  1  0
 20 19  1  0
 21 22  1  0
 21 18  1  0
 22 20  2  0
 23 24  1  0
 24 25  2  0
 26 25  1  0
 27 26  2  0
 28 27  1  0
 28 23  2  0
 29 26  1  0
 29 30  1  0
 30 31  1  0
 31 32  2  0
 33 32  1  0
 33 37  1  0
 34 33  2  0
 35 30  2  0
 35 34  1  0
 36 35  1  0
 38 39  1  0
 39 42  1  0
 39 41  1  0
 40 38  2  0
 43 44  1  0
 43 18  1  0
 45 43  1  0
 46  3  1  0
 47 48  1  0
 48 46  1  0
 49  4  1  0
 49 50  2  0
 53 51  1  6
 53 54  1  0
 53 50  1  0
 53 52  1  0
 55 54  1  0
 56 67  2  0
 57 55  1  0
 57 62  1  0
 58 66  1  0
 58 68  1  0
 59 65  1  0
 59 61  1  0
 60 66  1  0
 61 60  1  0
 62 61  2  0
 63 64  1  0
 63 57  2  0
 64 59  2  0
 65 58  1  0
 66 56  1  0
 68 70  2  0
 69 68  1  0
 71 69  1  0
 72 81  2  0
 72 77  1  0
 73 69  1  0
 73 77  1  0
 74 73  1  0
 75 76  1  0
 75 74  1  0
 76 72  1  0
 77 78  2  0
 78 79  1  0
 80 79  2  0
 81 80  1  0
 82 56  1  0
 82 83  1  0
 82 92  1  0
 83 86  1  0
 84 88  1  0
 84 83  1  0
 85 84  2  0
 88 87  1  0
 90 91  1  0
 90 88  1  0
 90 89  1  0
 92 95  1  1
 92 93  1  0
 94 92  1  0
M  ISO  4   8 100  16 100  54 101  55 101
M  END
>  <TORSDO>  (12) 
F 22

>  <SCORE>  (12) 
-10.780

>  <name>  (12) 
11

>  <ligand_id>  (12) 
11

>  <original_smiles>  (12) 
[H]c1c([H])c([H])c2c(c1[H])C([H])([H])C([H])([H])C([H])([H])C2([H])N([H])C(=O)C1([H])N(C(=O)C([H])(N([H])C(=O)C([H])(N([H])C([H])([H])[H])C([H])([H])[H])C(C([H])([H])[H])(C([H])([H])[H])C([H])([H])[H])C([H])([H])c2c([H])c(OC([H])([H])C(C([H])([H])[H])(C([H])([H])[H])C([H])([H])C([H])([H])c3c([H])c(C([H])([H])C([H])([H])C([H])([H])[H])c(N([H])C(=O)N4C([H])([H])C([H])([H])C([H])([H])C([H])(n5nc(-c6c([H])c([H])c(Oc7c([H])c([H])c(F)c([H])c7F)c([H])c6[H])c(C(=O)N([H])[H])c5N([H])[H])C4([H])[H])c([H])c3F)c([H])c([H])c2C1([H])[H]

>  <smiles>  (12) 
[H]c1c([H])c([H])c2c(c1[H])C([H])([H])C([H])([H])C([H])([H])C2([H])N([H])C(=O)C1([H])N(C(=O)C([H])(N([H])C(=O)C([H])(N([H])C([H])([H])[H])C([H])([H])[H])C(C([H])([H])[H])(C([H])([H])[H])C([H])([H])[H])C([H])([H])c2c([H])c(OC([H])([H])C(C([H])([H])[H])(C([H])([H])[H])C([H])([H])C([H])([H])c3c([H])c(C([H])([H])C([H])([H])C([H])([H])[H])c(N([H])C(=O)N4C([H])([H])C([H])([H])C([H])([H])C([H])(n5nc(-c6c([H])c([H])c(Oc7c([H])c([H])c(F)c([H])c7F)c([H])c6[H])c(C(=O)N([H])[H])c5N([H])[H])C4([H])[H])c([H])c3F)c([H])c([H])c2C1([H])[H]

$$$$
12:0:0
     RDKit          3D

 92100  0  0  1  0  0  0  0  0999 V2000
  -28.9200  -19.6990   19.8590 C   0  0  0  0  0  3  0  0  0  0  0  0
  -29.5920  -18.4570   19.9600 C   0  0  0  0  0  3  0  0  0  0  0  0
  -29.8620  -20.3760   21.9850 C   0  0  0  0  0  3  0  0  0  0  0  0
  -29.0680  -20.6830   20.8630 C   0  0  0  0  0  0  0  0  0  0  0  0
  -30.4310  -18.1640   21.0590 C   0  0  0  0  0  0  0  0  0  0  0  0
  -30.5340  -19.1350   22.0960 C   0  0  0  0  0  0  0  0  0  0  0  0
  -31.3720  -18.8930   23.3380 C   0  0  0  0  0  1  0  0  0  0  0  0
  -28.3100  -22.0170   20.7910 C   0  0  0  0  0  2  0  0  0  0  0  0
  -28.9300  -23.1340   19.8950 C   0  0  0  0  0  2  0  0  0  0  0  0
  -27.0360  -23.6400   18.2990 C   0  0  0  0  0  1  0  0  0  0  0  0
  -27.9000  -24.2220   19.4470 C   0  0  0  0  0  3  0  0  0  0  0  0
  -28.5190  -25.5920   18.9890 C   0  0  0  0  0  2  0  0  0  0  0  0
  -28.3950  -26.7310   19.8690 O   0  0  0  0  0  0  0  0  0  0  0  0
  -24.6090  -31.8440   23.1190 C   0  0  0  0  0  0  0  0  0  0  0  0
  -27.2260  -27.4800   19.8740 C   0  0  0  0  0  0  0  0  0  0  0  0
  -23.3890  -30.4810   21.4590 C   0  0  0  0  0  3  0  0  0  0  0  0
  -24.8290  -29.0030   19.9660 C   0  0  0  0  0  0  0  0  0  0  0  0
  -25.9170  -30.8480   21.2450 C   0  0  0  0  0  2  0  0  0  0  0  0
  -25.9950  -29.4960   20.5640 C   0  0  0  0  0  0  0  0  0  0  0  0
  -27.1930  -28.7390   20.5250 C   0  0  0  0  0  3  0  0  0  0  0  0
  -26.0360  -27.0220   19.2710 C   0  0  0  0  0  3  0  0  0  0  0  0
  -24.8470  -27.7630   19.3170 C   0  0  0  0  0  3  0  0  0  0  0  0
  -23.5850  -29.8550   20.0540 C   0  0  0  0  0  2  0  0  0  0  0  0
  -24.6580  -31.0720   21.9980 N   0  0  0  0  0  0  0  0  0  0  0  0
  -23.5330  -32.0940   23.6790 O   0  0  0  0  0  0  0  0  0  0  0  0
  -22.7610  -29.4220   22.3940 C   0  0  0  0  0  0  0  0  0  0  0  0
  -21.4400  -29.2170   22.2630 N   0  0  0  0  0  0  0  0  0  0  0  0
  -23.4570  -28.7900   23.1940 O   0  0  0  0  0  0  0  0  0  0  0  0
  -20.9410  -29.7810   21.5900 H   0  0  0  0  0  0  0  0  0  0  0  0
  -18.0880  -27.9320   22.7070 C   0  0  0  0  0  0  0  0  0  0  0  0
  -20.6370  -28.2500   23.0110 C   0  0  0  0  0  3  0  0  0  0  0  0
  -20.7800  -26.8270   22.4220 C   0  0  0  0  0  2  0  0  0  0  0  0
  -19.6990  -26.4910   21.3900 C   0  0  0  0  0  2  0  0  0  0  0  0
  -18.3050  -26.5960   22.0180 C   0  0  0  0  0  2  0  0  0  0  0  0
  -19.1830  -28.7170   23.1580 C   0  0  0  0  0  0  0  0  0  0  0  0
  -18.9270  -29.9670   23.7600 C   0  0  0  0  0  3  0  0  0  0  0  0
  -17.6100  -30.4360   23.9150 C   0  0  0  0  0  3  0  0  0  0  0  0
  -16.5290  -29.6480   23.4820 C   0  0  0  0  0  3  0  0  0  0  0  0
  -16.7690  -28.3970   22.8840 C   0  0  0  0  0  3  0  0  0  0  0  0
  -25.9000  -32.4650   23.7370 C   0  0  0  0  0  3  0  0  0  0  0  0
  -25.5820  -33.8480   24.1150 N   0  0  0  0  0  0  0  0  0  0  0  0
  -25.8930  -34.9270   23.3850 C   0  0  0  0  0  0  0  0  0  0  0  0
  -26.5500  -34.8620   22.3420 O   0  0  0  0  0  0  0  0  0  0  0  0
  -24.9920  -33.9730   24.9250 H   0  0  0  0  0  0  0  0  0  0  0  0
  -24.1380  -36.7070   23.1110 C   0  0  0  0  0  1  0  0  0  0  0  0
  -25.3970  -36.2950   23.8900 C   0  0  0  0  0  3  0  0  0  0  0  0
  -27.5400  -37.1720   24.7060 C   0  0  0  0  0  1  0  0  0  0  0  0
  -26.4160  -37.3640   23.7940 N   0  0  0  0  0  0  0  0  0  0  0  0
  -26.0030  -38.2740   23.9860 H   0  0  0  0  0  0  0  0  0  0  0  0
  -26.4420  -31.6570   24.9790 C   0  0  1  0  0  0  0  0  0  0  0  0
  -25.3710  -31.3850   26.0610 C   0  0  0  0  0  1  0  0  0  0  0  0
  -27.0200  -30.2940   24.5340 C   0  0  0  0  0  1  0  0  0  0  0  0
  -27.6030  -32.4360   25.6430 C   0  0  0  0  0  1  0  0  0  0  0  0
  -31.2990  -16.8840   21.0500 C   0  0  0  0  0  2  0  0  0  0  0  0
  -31.2450  -14.5720   20.0820 C   0  0  0  0  0  0  0  0  0  0  0  0
  -30.8620  -12.3680   19.0290 C   0  0  0  0  0  2  0  0  0  0  0  0
  -29.9190  -12.5370   17.8210 C   0  0  0  0  0  2  0  0  0  0  0  0
  -28.4430  -12.4720   18.2670 C   0  0  0  0  0  2  0  0  0  0  0  0
  -28.1460  -13.3850   19.4880 C   0  0  0  0  0  3  0  0  0  0  0  0
  -29.2020  -13.1830   20.5960 C   0  0  0  0  0  2  0  0  0  0  0  0
  -30.5260  -13.4200   20.0000 N   0  0  0  0  0  0  0  0  0  0  0  0
  -32.3580  -14.6910   19.5610 O   0  0  0  0  0  0  0  0  0  0  0  0
  -30.6440  -15.6150   20.6940 N   0  0  0  0  0  0  0  0  0  0  0  0
  -29.7140  -15.4650   21.0600 H   0  0  0  0  0  0  0  0  0  0  0  0
  -25.8020  -14.1240   20.2490 C   0  0  0  0  0  0  0  0  0  0  0  0
  -24.7020  -13.4130   20.6460 C   0  0  0  0  0  0  0  0  0  0  0  0
  -25.0880  -12.0380   20.6170 C   0  0  0  0  0  0  0  0  0  0  0  0
  -26.7930  -13.1850   19.9980 N   0  0  0  0  0  0  0  0  0  0  0  0
  -26.3660  -11.9260   20.2750 N   0  0  0  0  0  0  0  0  0  0  0  0
  -24.2980  -10.8180   20.8320 C   0  0  0  0  0  0  0  0  0  0  0  0
  -24.6870   -9.8450   21.7780 C   0  0  0  0  0  3  0  0  0  0  0  0
  -23.9040   -8.6880   21.9780 C   0  0  0  0  0  3  0  0  0  0  0  0
  -22.7160   -8.4990   21.2340 C   0  0  0  0  0  0  0  0  0  0  0  0
  -22.3470   -9.4600   20.2770 C   0  0  0  0  0  3  0  0  0  0  0  0
  -23.1300  -10.6070   20.0720 C   0  0  0  0  0  3  0  0  0  0  0  0
  -21.9040   -7.3960   21.3430 O   0  0  0  0  0  0  0  0  0  0  0  0
  -21.8010   -6.6910   22.5170 C   0  0  0  0  0  0  0  0  0  0  0  0
  -21.3920   -7.3040   23.7210 C   0  0  0  0  0  3  0  0  0  0  0  0
  -21.2310   -6.5290   24.8870 C   0  0  0  0  0  3  0  0  0  0  0  0
  -21.4720   -5.1420   24.8490 C   0  0  0  0  0  0  0  0  0  0  0  0
  -21.8730   -4.5300   23.6500 C   0  0  0  0  0  3  0  0  0  0  0  0
  -22.0360   -5.3010   22.4860 C   0  0  0  0  0  0  0  0  0  0  0  0
  -22.4020   -4.7010   21.3270 F   0  0  0  0  0  0  0  0  0  0  0  0
  -21.3100   -4.3960   25.9680 F   0  0  0  0  0  0  0  0  0  0  0  0
  -23.3380  -13.9660   20.9470 C   0  0  0  0  0  0  0  0  0  0  0  0
  -22.5950  -13.3230   21.8410 N   0  0  0  0  0  0  0  0  0  0  0  0
  -22.9420  -15.0070   20.4240 O   0  0  0  0  0  0  0  0  0  0  0  0
  -22.9250  -12.4840   22.2920 H   0  0  0  0  0  0  0  0  0  0  0  0
  -21.6780  -13.6770   22.0770 H   0  0  0  0  0  0  0  0  0  0  0  0
  -26.0440  -15.4810   20.0580 N   0  0  0  0  0  0  0  0  0  0  0  0
  -25.3270  -16.1890   20.1790 H   0  0  0  0  0  0  0  0  0  0  0  0
  -26.9210  -15.8630   19.7280 H   0  0  0  0  0  0  0  0  0  0  0  0
  1  2  2  0
  1  4  1  0
  2  5  1  0
  3  6  1  0
  4  3  2  0
  5  6  2  0
  6  7  1  0
  8  4  1  0
  9  8  1  0
 11 10  1  0
 11  9  1  0
 12 11  1  0
 12 13  1  0
 13 15  1  0
 14 25  2  0
 15 20  1  0
 16 24  1  0
 16 26  1  0
 17 23  1  0
 17 19  1  0
 18 24  1  0
 19 18  1  0
 20 19  2  0
 21 22  1  0
 21 15  2  0
 22 17  2  0
 23 16  1  0
 24 14  1  0
 26 28  2  0
 27 26  1  0
 29 27  1  0
 30 39  2  0
 30 35  1  0
 31 27  1  0
 31 35  1  0
 32 31  1  0
 33 34  1  0
 33 32  1  0
 34 30  1  0
 35 36  2  0
 36 37  1  0
 38 37  2  0
 39 38  1  0
 40 14  1  0
 40 41  1  0
 40 50  1  0
 41 44  1  0
 42 46  1  0
 42 41  1  0
 43 42  2  0
 46 45  1  0
 48 46  1  0
 48 49  1  0
 48 47  1  0
 50 53  1  1
 50 51  1  0
 52 50  1  0
 54  5  1  0
 55 63  1  0
 56 61  1  0
 57 58  1  0
 57 56  1  0
 59 58  1  0
 59 68  1  0
 59 60  1  0
 61 55  1  0
 61 60  1  0
 62 55  2  0
 63 54  1  0
 63 64  1  0
 65 66  2  0
 66 85  1  0
 67 66  1  0
 67 70  1  0
 68 65  1  0
 68 69  1  0
 69 67  2  0
 70 71  1  0
 71 72  2  0
 73 76  1  0
 73 72  1  0
 74 73  2  0
 75 74  1  0
 75 70  2  0
 76 77  1  0
 77 78  1  0
 78 79  2  0
 80 79  1  0
 80 84  1  0
 81 80  2  0
 82 77  2  0
 82 81  1  0
 83 82  1  0
 85 86  1  0
 86 89  1  0
 86 88  1  0
 87 85  2  0
 90 91  1  0
 90 65  1  0
 92 90  1  0
M  ISO  4  12 101  13 101  55 100  63 100
M  END
>  <TORSDO>  (13) 
F 21

>  <SCORE>  (13) 
-12.639

>  <name>  (13) 
12

>  <ligand_id>  (13) 
12

>  <original_smiles>  (13) 
[H]c1c([H])c([H])c2c(c1[H])C([H])([H])C([H])([H])C([H])([H])C2([H])N([H])C(=O)C1([H])N(C(=O)C([H])(N([H])C(=O)C([H])(N([H])C([H])([H])[H])C([H])([H])[H])C(C([H])([H])[H])(C([H])([H])[H])C([H])([H])[H])C([H])([H])c2c([H])c(OC([H])([H])C([H])(C([H])([H])[H])C([H])([H])C([H])([H])c3c([H])c([H])c(C([H])([H])N([H])C(=O)N4C([H])([H])C([H])([H])C([H])([H])C([H])(n5nc(-c6c([H])c([H])c(Oc7c([H])c([H])c(F)c([H])c7F)c([H])c6[H])c(C(=O)N([H])[H])c5N([H])[H])C4([H])[H])c(C([H])([H])[H])c3[H])c([H])c([H])c2C1([H])[H]

>  <smiles>  (13) 
[H]c1c([H])c([H])c2c(c1[H])C([H])([H])C([H])([H])C([H])([H])C2([H])N([H])C(=O)C1([H])N(C(=O)C([H])(N([H])C(=O)C([H])(N([H])C([H])([H])[H])C([H])([H])[H])C(C([H])([H])[H])(C([H])([H])[H])C([H])([H])[H])C([H])([H])c2c([H])c(OC([H])([H])C([H])(C([H])([H])[H])C([H])([H])C([H])([H])c3c([H])c([H])c(C([H])([H])N([H])C(=O)N4C([H])([H])C([H])([H])C([H])([H])C([H])(n5nc(-c6c([H])c([H])c(Oc7c([H])c([H])c(F)c([H])c7F)c([H])c6[H])c(C(=O)N([H])[H])c5N([H])[H])C4([H])[H])c(C([H])([H])[H])c3[H])c([H])c([H])c2C1([H])[H]

$$$$
13:0:0
     RDKit          3D

 92100  0  0  1  0  0  0  0  0999 V2000
  -29.9230  -21.1540   19.9600 C   0  0  0  0  0  2  0  0  0  0  0  0
  -30.6240  -19.7620   22.0170 C   0  0  0  0  0  3  0  0  0  0  0  0
  -30.9250  -18.5580   22.6910 C   0  0  0  0  0  3  0  0  0  0  0  0
  -29.9810  -18.4550   20.0740 C   0  0  0  0  0  3  0  0  0  0  0  0
  -30.1300  -19.7600   20.6970 C   0  0  0  0  0  0  0  0  0  0  0  0
  -30.7560  -17.2980   22.0820 C   0  0  0  0  0  0  0  0  0  0  0  0
  -30.3000  -17.2040   20.7420 C   0  0  0  0  0  0  0  0  0  0  0  0
  -31.0270  -16.0530   22.9230 C   0  0  0  0  0  1  0  0  0  0  0  0
  -30.7770  -14.7500   20.0020 C   0  0  0  0  0  0  0  0  0  0  0  0
  -30.4730  -12.5150   18.9300 C   0  0  0  0  0  2  0  0  0  0  0  0
  -29.4700  -12.6210   17.7600 C   0  0  0  0  0  2  0  0  0  0  0  0
  -28.0220  -12.4730   18.2640 C   0  0  0  0  0  2  0  0  0  0  0  0
  -27.7260  -13.3680   19.4930 C   0  0  0  0  0  3  0  0  0  0  0  0
  -28.8300  -13.2350   20.5650 C   0  0  0  0  0  2  0  0  0  0  0  0
  -30.1080  -13.5530   19.9120 N   0  0  0  0  0  0  0  0  0  0  0  0
  -31.9590  -14.8430   19.6630 O   0  0  0  0  0  0  0  0  0  0  0  0
  -29.9960  -15.8730   20.1930 N   0  0  0  0  0  0  0  0  0  0  0  0
  -29.0120  -15.6570   20.1890 H   0  0  0  0  0  0  0  0  0  0  0  0
  -25.3840  -14.0200   20.3220 C   0  0  0  0  0  0  0  0  0  0  0  0
  -24.3130  -13.2740   20.7320 C   0  0  0  0  0  0  0  0  0  0  0  0
  -24.7400  -11.9120   20.6830 C   0  0  0  0  0  0  0  0  0  0  0  0
  -26.3930  -13.1170   20.0380 N   0  0  0  0  0  0  0  0  0  0  0  0
  -26.0150  -11.8440   20.3190 N   0  0  0  0  0  0  0  0  0  0  0  0
  -23.9950  -10.6670   20.9060 C   0  0  0  0  0  0  0  0  0  0  0  0
  -24.4410   -9.6950   21.8280 C   0  0  0  0  0  3  0  0  0  0  0  0
  -23.6970   -8.5130   22.0350 C   0  0  0  0  0  3  0  0  0  0  0  0
  -22.4940   -8.2950   21.3210 C   0  0  0  0  0  0  0  0  0  0  0  0
  -22.0670   -9.2570   20.3880 C   0  0  0  0  0  3  0  0  0  0  0  0
  -22.8120  -10.4300   20.1800 C   0  0  0  0  0  3  0  0  0  0  0  0
  -21.7240   -7.1640   21.4370 O   0  0  0  0  0  0  0  0  0  0  0  0
  -21.6890   -6.4330   22.5970 C   0  0  0  0  0  0  0  0  0  0  0  0
  -21.3210   -7.0110   23.8310 C   0  0  0  0  0  3  0  0  0  0  0  0
  -21.2250   -6.2070   24.9850 C   0  0  0  0  0  3  0  0  0  0  0  0
  -21.4960   -4.8280   24.9060 C   0  0  0  0  0  0  0  0  0  0  0  0
  -21.8610   -4.2500   23.6780 C   0  0  0  0  0  3  0  0  0  0  0  0
  -21.9530   -5.0510   22.5270 C   0  0  0  0  0  0  0  0  0  0  0  0
  -22.2860   -4.4870   21.3400 F   0  0  0  0  0  0  0  0  0  0  0  0
  -21.3990   -4.0530   26.0130 F   0  0  0  0  0  0  0  0  0  0  0  0
  -22.9390  -13.7860   21.0570 C   0  0  0  0  0  0  0  0  0  0  0  0
  -22.2290  -13.1190   21.9590 N   0  0  0  0  0  0  0  0  0  0  0  0
  -22.5050  -14.8160   20.5450 O   0  0  0  0  0  0  0  0  0  0  0  0
  -22.5970  -12.2920   22.4060 H   0  0  0  0  0  0  0  0  0  0  0  0
  -21.3090  -13.4500   22.2140 H   0  0  0  0  0  0  0  0  0  0  0  0
  -25.5700  -15.3870   20.1470 N   0  0  0  0  0  0  0  0  0  0  0  0
  -24.8180  -16.0460   20.3040 H   0  0  0  0  0  0  0  0  0  0  0  0
  -26.4070  -15.8190   19.7740 H   0  0  0  0  0  0  0  0  0  0  0  0
  -29.1170  -22.3910   20.6280 C   0  0  0  0  0  2  0  0  0  0  0  0
  -29.2120  -23.9240   18.5830 C   0  0  0  0  0  1  0  0  0  0  0  0
  -30.7740  -24.3730   20.4900 C   0  0  0  0  0  1  0  0  0  0  0  0
  -29.3480  -23.9200   20.1180 C   0  0  2  0  0  0  0  0  0  0  0  0
  -28.3350  -25.0350   20.7060 C   0  0  0  0  0  2  0  0  0  0  0  0
  -28.5320  -26.4930   20.4200 O   0  0  0  0  0  0  0  0  0  0  0  0
  -24.6430  -31.9080   23.2910 C   0  0  0  0  0  0  0  0  0  0  0  0
  -27.4060  -27.3390   20.3650 C   0  0  0  0  0  0  0  0  0  0  0  0
  -23.5100  -30.4770   21.6310 C   0  0  0  0  0  3  0  0  0  0  0  0
  -25.0250  -28.9310   20.2710 C   0  0  0  0  0  0  0  0  0  0  0  0
  -26.0520  -30.8290   21.5210 C   0  0  0  0  0  2  0  0  0  0  0  0
  -26.1720  -29.4430   20.8900 C   0  0  0  0  0  0  0  0  0  0  0  0
  -27.3690  -28.6600   20.9200 C   0  0  0  0  0  3  0  0  0  0  0  0
  -26.2350  -26.8880   19.7160 C   0  0  0  0  0  3  0  0  0  0  0  0
  -25.0600  -27.6630   19.6730 C   0  0  0  0  0  3  0  0  0  0  0  0
  -23.7770  -29.7910   20.2660 C   0  0  0  0  0  2  0  0  0  0  0  0
  -24.7510  -31.0880   22.2050 N   0  0  0  0  0  0  0  0  0  0  0  0
  -23.5400  -32.1750   23.7900 O   0  0  0  0  0  0  0  0  0  0  0  0
  -22.8300  -29.4600   22.5830 C   0  0  0  0  0  0  0  0  0  0  0  0
  -21.5120  -29.2580   22.4110 N   0  0  0  0  0  0  0  0  0  0  0  0
  -23.4890  -28.8590   23.4340 O   0  0  0  0  0  0  0  0  0  0  0  0
  -21.0370  -29.8010   21.7020 H   0  0  0  0  0  0  0  0  0  0  0  0
  -18.1490  -27.9680   22.7680 C   0  0  0  0  0  0  0  0  0  0  0  0
  -20.6810  -28.3150   23.1650 C   0  0  0  0  0  3  0  0  0  0  0  0
  -20.8580  -26.8720   22.6390 C   0  0  0  0  0  2  0  0  0  0  0  0
  -19.8230  -26.4860   21.5780 C   0  0  0  0  0  2  0  0  0  0  0  0
  -18.4040  -26.6050   22.1460 C   0  0  0  0  0  2  0  0  0  0  0  0
  -19.2200  -28.7770   23.2340 C   0  0  0  0  0  0  0  0  0  0  0  0
  -18.9320  -30.0470   23.7780 C   0  0  0  0  0  3  0  0  0  0  0  0
  -17.6060  -30.5120   23.8580 C   0  0  0  0  0  3  0  0  0  0  0  0
  -16.5500  -29.7010   23.4110 C   0  0  0  0  0  3  0  0  0  0  0  0
  -16.8210  -28.4300   22.8730 C   0  0  0  0  0  3  0  0  0  0  0  0
  -25.8940  -32.5670   23.9470 C   0  0  0  0  0  3  0  0  0  0  0  0
  -26.3700  -31.8290   25.2580 C   0  0  1  0  0  0  0  0  0  0  0  0
  -25.2370  -31.6100   26.2900 C   0  0  0  0  0  1  0  0  0  0  0  0
  -26.9750  -30.4470   24.9230 C   0  0  0  0  0  1  0  0  0  0  0  0
  -27.4890  -32.6490   25.9440 C   0  0  0  0  0  1  0  0  0  0  0  0
  -25.5590  -33.9680   24.2350 N   0  0  0  0  0  0  0  0  0  0  0  0
  -25.9160  -35.0110   23.4740 C   0  0  0  0  0  0  0  0  0  0  0  0
  -26.6280  -34.8950   22.4730 O   0  0  0  0  0  0  0  0  0  0  0  0
  -24.9180  -34.1340   24.9990 H   0  0  0  0  0  0  0  0  0  0  0  0
  -24.1850  -36.7820   23.0340 C   0  0  0  0  0  1  0  0  0  0  0  0
  -25.4030  -36.4030   23.8890 C   0  0  0  0  0  3  0  0  0  0  0  0
  -27.5080  -37.3170   24.7620 C   0  0  0  0  0  1  0  0  0  0  0  0
  -26.4290  -37.4630   23.7910 N   0  0  0  0  0  0  0  0  0  0  0  0
  -26.0100  -38.3800   23.9200 H   0  0  0  0  0  0  0  0  0  0  0  0
  1 47  1  0
  1  5  1  0
  2  3  1  0
  4  5  1  0
  4  7  2  0
  5  2  2  0
  6  3  2  0
  6  8  1  0
  7  6  1  0
  9 17  1  0
 10 15  1  0
 11 12  1  0
 11 10  1  0
 13 12  1  0
 13 22  1  0
 13 14  1  0
 15  9  1  0
 15 14  1  0
 16  9  2  0
 17  7  1  0
 18 17  1  0
 19 20  2  0
 20 39  1  0
 21 20  1  0
 21 24  1  0
 22 23  1  0
 22 19  1  0
 23 21  2  0
 24 25  1  0
 25 26  2  0
 27 30  1  0
 27 26  1  0
 28 27  2  0
 29 28  1  0
 29 24  2  0
 30 31  1  0
 31 32  1  0
 32 33  2  0
 34 33  1  0
 34 38  1  0
 35 34  2  0
 36 31  2  0
 36 35  1  0
 37 36  1  0
 39 40  1  0
 40 43  1  0
 40 42  1  0
 41 39  2  0
 44 45  1  0
 44 19  1  0
 46 44  1  0
 50 48  1  6
 50 49  1  0
 50 47  1  0
 50 51  1  0
 52 51  1  0
 53 64  2  0
 54 52  1  0
 54 59  1  0
 55 63  1  0
 55 65  1  0
 56 58  1  0
 57 63  1  0
 58 59  2  0
 58 57  1  0
 60 54  2  0
 61 60  1  0
 61 56  2  0
 62 56  1  0
 62 55  1  0
 63 53  1  0
 65 67  2  0
 66 65  1  0
 68 66  1  0
 69 78  2  0
 69 74  1  0
 70 66  1  0
 70 74  1  0
 71 70  1  0
 72 73  1  0
 72 71  1  0
 73 69  1  0
 74 75  2  0
 75 76  1  0
 77 76  2  0
 78 77  1  0
 79 53  1  0
 79 84  1  0
 79 80  1  0
 80 83  1  1
 80 81  1  0
 82 80  1  0
 84 87  1  0
 85 89  1  0
 85 84  1  0
 86 85  2  0
 89 88  1  0
 91 89  1  0
 91 92  1  0
 91 90  1  0
M  ISO  4   9 100  17 100  51 101  52 101
M  END
>  <TORSDO>  (14) 
F 20

>  <SCORE>  (14) 
-12.618

>  <name>  (14) 
13

>  <ligand_id>  (14) 
13

>  <original_smiles>  (14) 
[H]c1c([H])c([H])c2c(c1[H])C([H])([H])C([H])([H])C([H])([H])C2([H])N([H])C(=O)C1([H])N(C(=O)C([H])(N([H])C(=O)C([H])(N([H])C([H])([H])[H])C([H])([H])[H])C(C([H])([H])[H])(C([H])([H])[H])C([H])([H])[H])C([H])([H])c2c([H])c(OC([H])([H])C(C([H])([H])[H])(C([H])([H])[H])C([H])([H])C([H])([H])c3c([H])c([H])c(C([H])([H])[H])c(N([H])C(=O)N4C([H])([H])C([H])([H])C([H])([H])C([H])(n5nc(-c6c([H])c([H])c(Oc7c([H])c([H])c(F)c([H])c7F)c([H])c6[H])c(C(=O)N([H])[H])c5N([H])[H])C4([H])[H])c3[H])c([H])c([H])c2C1([H])[H]

>  <smiles>  (14) 
[H]c1c([H])c([H])c2c(c1[H])C([H])([H])C([H])([H])C([H])([H])C2([H])N([H])C(=O)C1([H])N(C(=O)C([H])(N([H])C(=O)C([H])(N([H])C([H])([H])[H])C([H])([H])[H])C(C([H])([H])[H])(C([H])([H])[H])C([H])([H])[H])C([H])([H])c2c([H])c(OC([H])([H])C(C([H])([H])[H])(C([H])([H])[H])C([H])([H])C([H])([H])c3c([H])c([H])c(C([H])([H])[H])c(N([H])C(=O)N4C([H])([H])C([H])([H])C([H])([H])C([H])(n5nc(-c6c([H])c([H])c(Oc7c([H])c([H])c(F)c([H])c7F)c([H])c6[H])c(C(=O)N([H])[H])c5N([H])[H])C4([H])[H])c3[H])c([H])c([H])c2C1([H])[H]

$$$$
14:0:0
     RDKit          3D

 95103  0  0  1  0  0  0  0  0999 V2000
  -29.1630  -20.6640   21.1140 C   0  0  0  0  0  0  0  0  0  0  0  0
  -28.4350  -20.5260   22.1400 N   0  0  0  0  0  0  0  0  0  0  0  0
  -28.3190  -19.5500   22.3820 H   0  0  0  0  0  0  0  0  0  0  0  0
  -30.5210  -19.7870   19.1780 C   0  0  0  0  0  3  0  0  0  0  0  0
  -29.6300  -18.1650   20.7630 C   0  0  0  0  0  3  0  0  0  0  0  0
  -30.9410  -17.4090   18.8590 C   0  0  0  0  0  3  0  0  0  0  0  0
  -29.7760  -19.5260   20.3500 C   0  0  0  0  0  0  0  0  0  0  0  0
  -31.1000  -18.7420   18.4350 C   0  0  0  0  0  0  0  0  0  0  0  0
  -30.2230  -17.0940   20.0400 C   0  0  0  0  0  0  0  0  0  0  0  0
  -31.8900  -19.0620   17.1810 C   0  0  0  0  0  1  0  0  0  0  0  0
  -30.7580  -14.6450   20.1050 C   0  0  0  0  0  0  0  0  0  0  0  0
  -30.4080  -12.4740   19.0110 C   0  0  0  0  0  2  0  0  0  0  0  0
  -29.4370  -12.6990   17.8340 C   0  0  0  0  0  2  0  0  0  0  0  0
  -27.9740  -12.5680   18.3080 C   0  0  0  0  0  2  0  0  0  0  0  0
  -27.6800  -13.3920   19.5920 C   0  0  0  0  0  3  0  0  0  0  0  0
  -28.7750  -13.1820   20.6640 C   0  0  0  0  0  2  0  0  0  0  0  0
  -30.0790  -13.4680   20.0450 N   0  0  0  0  0  0  0  0  0  0  0  0
  -31.9140  -14.7570   19.6890 O   0  0  0  0  0  0  0  0  0  0  0  0
  -30.0390  -15.7310   20.4800 N   0  0  0  0  0  0  0  0  0  0  0  0
  -29.1830  -15.5310   20.9730 H   0  0  0  0  0  0  0  0  0  0  0  0
  -25.3080  -13.9790   20.3990 C   0  0  0  0  0  0  0  0  0  0  0  0
  -24.2580  -13.1980   20.8020 C   0  0  0  0  0  0  0  0  0  0  0  0
  -24.7230  -11.8480   20.7430 C   0  0  0  0  0  0  0  0  0  0  0  0
  -26.3470  -13.1040   20.1190 N   0  0  0  0  0  0  0  0  0  0  0  0
  -26.0020  -11.8180   20.3850 N   0  0  0  0  0  0  0  0  0  0  0  0
  -24.0090  -10.5820   20.9500 C   0  0  0  0  0  0  0  0  0  0  0  0
  -24.4670   -9.6180   21.8750 C   0  0  0  0  0  3  0  0  0  0  0  0
  -23.7520   -8.4160   22.0680 C   0  0  0  0  0  3  0  0  0  0  0  0
  -22.5640   -8.1710   21.3380 C   0  0  0  0  0  0  0  0  0  0  0  0
  -22.1260   -9.1240   20.4020 C   0  0  0  0  0  3  0  0  0  0  0  0
  -22.8420  -10.3160   20.2070 C   0  0  0  0  0  3  0  0  0  0  0  0
  -21.8200   -7.0200   21.4410 O   0  0  0  0  0  0  0  0  0  0  0  0
  -21.7910   -6.2840   22.5970 C   0  0  0  0  0  0  0  0  0  0  0  0
  -21.3580   -6.8380   23.8230 C   0  0  0  0  0  3  0  0  0  0  0  0
  -21.2740   -6.0260   24.9720 C   0  0  0  0  0  3  0  0  0  0  0  0
  -21.6140   -4.6620   24.8980 C   0  0  0  0  0  0  0  0  0  0  0  0
  -22.0420   -4.1080   23.6780 C   0  0  0  0  0  3  0  0  0  0  0  0
  -22.1260   -4.9170   22.5310 C   0  0  0  0  0  0  0  0  0  0  0  0
  -22.5170   -4.3730   21.3530 F   0  0  0  0  0  0  0  0  0  0  0  0
  -21.5270   -3.8800   26.0000 F   0  0  0  0  0  0  0  0  0  0  0  0
  -22.8700  -13.6680   21.1290 C   0  0  0  0  0  0  0  0  0  0  0  0
  -22.1720  -12.9580   22.0090 N   0  0  0  0  0  0  0  0  0  0  0  0
  -22.4130  -14.7000   20.6400 O   0  0  0  0  0  0  0  0  0  0  0  0
  -22.5540  -12.1250   22.4310 H   0  0  0  0  0  0  0  0  0  0  0  0
  -21.2420  -13.2540   22.2680 H   0  0  0  0  0  0  0  0  0  0  0  0
  -25.4600  -15.3500   20.2280 N   0  0  0  0  0  0  0  0  0  0  0  0
  -24.6930  -15.9970   20.3760 H   0  0  0  0  0  0  0  0  0  0  0  0
  -26.2900  -15.7990   19.8610 H   0  0  0  0  0  0  0  0  0  0  0  0
  -29.4880  -21.9050   20.5830 O   0  0  0  0  0  0  0  0  0  0  0  0
  -28.7960  -23.0620   21.0920 C   0  0  0  0  0  2  0  0  0  0  0  0
  -29.0910  -24.2220   18.8600 C   0  0  0  0  0  1  0  0  0  0  0  0
  -30.6780  -24.7360   20.7560 C   0  0  0  0  0  1  0  0  0  0  0  0
  -29.2230  -24.3900   20.3860 C   0  0  2  0  0  0  0  0  0  0  0  0
  -28.2950  -25.5450   20.8650 C   0  0  0  0  0  2  0  0  0  0  0  0
  -28.4780  -26.8050   20.1790 O   0  0  0  0  0  0  0  0  0  0  0  0
  -24.6370  -31.9630   23.2380 C   0  0  0  0  0  0  0  0  0  0  0  0
  -27.3340  -27.5730   20.1370 C   0  0  0  0  0  0  0  0  0  0  0  0
  -23.4520  -30.5620   21.5810 C   0  0  0  0  0  3  0  0  0  0  0  0
  -24.9280  -29.0590   20.1420 C   0  0  0  0  0  0  0  0  0  0  0  0
  -25.9760  -30.9510   21.3960 C   0  0  0  0  0  2  0  0  0  0  0  0
  -26.0800  -29.5900   20.7390 C   0  0  0  0  0  0  0  0  0  0  0  0
  -27.2890  -28.8560   20.7310 C   0  0  0  0  0  3  0  0  0  0  0  0
  -26.1740  -27.0700   19.5110 C   0  0  0  0  0  3  0  0  0  0  0  0
  -24.9700  -27.7980   19.5230 C   0  0  0  0  0  3  0  0  0  0  0  0
  -23.6740  -29.9020   20.1940 C   0  0  0  0  0  2  0  0  0  0  0  0
  -24.7050  -31.1730   22.1290 N   0  0  0  0  0  0  0  0  0  0  0  0
  -23.5520  -32.2190   23.7780 O   0  0  0  0  0  0  0  0  0  0  0  0
  -22.8110  -29.5240   22.5290 C   0  0  0  0  0  0  0  0  0  0  0  0
  -21.4900  -29.3230   22.3910 N   0  0  0  0  0  0  0  0  0  0  0  0
  -23.4980  -28.9040   23.3440 O   0  0  0  0  0  0  0  0  0  0  0  0
  -20.9950  -29.8780   21.7060 H   0  0  0  0  0  0  0  0  0  0  0  0
  -18.1310  -28.0710   22.8490 C   0  0  0  0  0  0  0  0  0  0  0  0
  -20.6810  -28.3680   23.1500 C   0  0  0  0  0  3  0  0  0  0  0  0
  -20.8140  -26.9420   22.5670 C   0  0  0  0  0  2  0  0  0  0  0  0
  -19.7280  -26.6070   21.5400 C   0  0  0  0  0  2  0  0  0  0  0  0
  -18.3370  -26.7260   22.1710 C   0  0  0  0  0  2  0  0  0  0  0  0
  -19.2330  -28.8470   23.2950 C   0  0  0  0  0  0  0  0  0  0  0  0
  -18.9890  -30.1050   23.8890 C   0  0  0  0  0  3  0  0  0  0  0  0
  -17.6760  -30.5850   24.0430 C   0  0  0  0  0  3  0  0  0  0  0  0
  -16.5880  -29.8060   23.6150 C   0  0  0  0  0  3  0  0  0  0  0  0
  -16.8160  -28.5500   23.0230 C   0  0  0  0  0  3  0  0  0  0  0  0
  -25.9150  -32.6020   23.8660 C   0  0  0  0  0  3  0  0  0  0  0  0
  -25.5950  -33.9990   24.1910 N   0  0  0  0  0  0  0  0  0  0  0  0
  -25.9280  -35.0510   23.4310 C   0  0  0  0  0  0  0  0  0  0  0  0
  -26.6050  -34.9490   22.4060 O   0  0  0  0  0  0  0  0  0  0  0  0
  -24.9900  -34.1520   24.9850 H   0  0  0  0  0  0  0  0  0  0  0  0
  -24.1900  -36.8310   23.0570 C   0  0  0  0  0  1  0  0  0  0  0  0
  -25.4270  -36.4380   23.8800 C   0  0  0  0  0  3  0  0  0  0  0  0
  -27.5480  -37.3360   24.7300 C   0  0  0  0  0  1  0  0  0  0  0  0
  -26.4550  -37.4960   23.7750 N   0  0  0  0  0  0  0  0  0  0  0  0
  -26.0430  -38.4140   23.9170 H   0  0  0  0  0  0  0  0  0  0  0  0
  -26.4300  -31.8350   25.1460 C   0  0  1  0  0  0  0  0  0  0  0  0
  -25.3320  -31.5900   26.2060 C   0  0  0  0  0  1  0  0  0  0  0  0
  -27.0260  -30.4600   24.7580 C   0  0  0  0  0  1  0  0  0  0  0  0
  -27.5700  -32.6380   25.8150 C   0  0  0  0  0  1  0  0  0  0  0  0
  1  2  2  0
  2  3  1  0
  4  7  1  0
  6  9  2  0
  7  5  2  0
  7  1  1  0
  8  6  1  0
  8  4  2  0
  9 19  1  0
  9  5  1  0
 10  8  1  0
 11 19  1  0
 12 17  1  0
 13 14  1  0
 13 12  1  0
 15 14  1  0
 15 24  1  0
 15 16  1  0
 17 11  1  0
 17 16  1  0
 18 11  2  0
 19 20  1  0
 21 22  2  0
 22 41  1  0
 23 22  1  0
 23 26  1  0
 24 25  1  0
 24 21  1  0
 25 23  2  0
 26 27  1  0
 27 28  2  0
 29 32  1  0
 29 28  1  0
 30 29  2  0
 31 30  1  0
 31 26  2  0
 32 33  1  0
 33 34  1  0
 34 35  2  0
 36 35  1  0
 36 40  1  0
 37 36  2  0
 38 33  2  0
 38 37  1  0
 39 38  1  0
 41 42  1  0
 42 45  1  0
 42 44  1  0
 43 41  2  0
 46 47  1  0
 46 21  1  0
 48 46  1  0
 49 50  1  0
 49  1  1  0
 53 51  1  6
 53 52  1  0
 53 54  1  0
 53 50  1  0
 55 54  1  0
 56 67  2  0
 57 55  1  0
 57 62  1  0
 58 66  1  0
 58 68  1  0
 59 65  1  0
 59 61  1  0
 60 66  1  0
 61 60  1  0
 62 61  2  0
 63 64  1  0
 63 57  2  0
 64 59  2  0
 65 58  1  0
 66 56  1  0
 68 70  2  0
 69 68  1  0
 71 69  1  0
 72 81  2  0
 72 77  1  0
 73 69  1  0
 73 77  1  0
 74 73  1  0
 75 76  1  0
 75 74  1  0
 76 72  1  0
 77 78  2  0
 78 79  1  0
 80 79  2  0
 81 80  1  0
 82 56  1  0
 82 83  1  0
 82 92  1  0
 83 86  1  0
 84 88  1  0
 84 83  1  0
 85 84  2  0
 88 87  1  0
 90 88  1  0
 90 91  1  0
 90 89  1  0
 92 95  1  1
 92 93  1  0
 94 92  1  0
M  ISO  4  11 100  19 100  54 101  55 101
M  END
>  <TORSDO>  (15) 
F 21

>  <SCORE>  (15) 
-12.756

>  <name>  (15) 
14

>  <ligand_id>  (15) 
14

>  <original_smiles>  (15) 
[H]N=C(OC([H])([H])C(C([H])([H])[H])(C([H])([H])[H])C([H])([H])Oc1c([H])c([H])c2c(c1[H])C([H])([H])N(C(=O)C([H])(N([H])C(=O)C([H])(N([H])C([H])([H])[H])C([H])([H])[H])C(C([H])([H])[H])(C([H])([H])[H])C([H])([H])[H])C([H])(C(=O)N([H])C1([H])c3c([H])c([H])c([H])c([H])c3C([H])([H])C([H])([H])C1([H])[H])C2([H])[H])c1c([H])c(N([H])C(=O)N2C([H])([H])C([H])([H])C([H])([H])C([H])(n3nc(-c4c([H])c([H])c(Oc5c([H])c([H])c(F)c([H])c5F)c([H])c4[H])c(C(=O)N([H])[H])c3N([H])[H])C2([H])[H])c([H])c(C([H])([H])[H])c1[H]

>  <smiles>  (15) 
[H]N=C(OC([H])([H])C(C([H])([H])[H])(C([H])([H])[H])C([H])([H])Oc1c([H])c([H])c2c(c1[H])C([H])([H])N(C(=O)C([H])(N([H])C(=O)C([H])(N([H])C([H])([H])[H])C([H])([H])[H])C(C([H])([H])[H])(C([H])([H])[H])C([H])([H])[H])C([H])(C(=O)N([H])C1([H])c3c([H])c([H])c([H])c([H])c3C([H])([H])C([H])([H])C1([H])[H])C2([H])[H])c1c([H])c(N([H])C(=O)N2C([H])([H])C([H])([H])C([H])([H])C([H])(n3nc(-c4c([H])c([H])c(Oc5c([H])c([H])c(F)c([H])c5F)c([H])c4[H])c(C(=O)N([H])[H])c3N([H])[H])C2([H])[H])c([H])c(C([H])([H])[H])c1[H]

$$$$
15:0:0
     RDKit          3D

 97105  0  0  1  0  0  0  0  0999 V2000
  -30.3730  -21.3230   21.3000 C   0  0  0  0  0  0  0  0  0  0  0  0
  -31.3270  -21.8530   22.0600 N   0  0  0  0  0  4  0  0  0  0  0  0
  -29.4660  -22.1520   20.7380 N   0  0  0  0  0  0  0  0  0  0  0  0
  -32.0380  -21.2370   22.4260 H   0  0  0  0  0  0  0  0  0  0  0  0
  -31.4930  -22.8420   22.0890 H   0  0  0  0  0  0  0  0  0  0  0  0
  -28.8810  -21.7130   20.0340 H   0  0  0  0  0  0  0  0  0  0  0  0
  -30.0810  -19.2180   19.9230 C   0  0  0  0  0  3  0  0  0  0  0  0
  -30.0620  -17.8040   19.7880 C   0  0  0  0  0  3  0  0  0  0  0  0
  -30.4510  -17.5830   22.1680 C   0  0  0  0  0  3  0  0  0  0  0  0
  -30.3040  -19.8360   21.1790 C   0  0  0  0  0  0  0  0  0  0  0  0
  -30.4870  -18.9970   22.3220 C   0  0  0  0  0  0  0  0  0  0  0  0
  -30.2460  -16.9680   20.9150 C   0  0  0  0  0  0  0  0  0  0  0  0
  -30.8260  -14.6030   20.2110 C   0  0  0  0  0  0  0  0  0  0  0  0
  -30.5370  -12.4380   19.0470 C   0  0  0  0  0  2  0  0  0  0  0  0
  -29.5360  -12.6370   17.8890 C   0  0  0  0  0  2  0  0  0  0  0  0
  -28.0820  -12.4850   18.3770 C   0  0  0  0  0  2  0  0  0  0  0  0
  -27.7960  -13.3010   19.6660 C   0  0  0  0  0  3  0  0  0  0  0  0
  -28.8980  -13.0570   20.7230 C   0  0  0  0  0  2  0  0  0  0  0  0
  -30.1950  -13.3980   20.1100 N   0  0  0  0  0  0  0  0  0  0  0  0
  -31.9050  -14.8420   19.6580 O   0  0  0  0  0  0  0  0  0  0  0  0
  -30.1360  -15.5370   20.8980 N   0  0  0  0  0  0  0  0  0  0  0  0
  -29.3540  -15.1620   21.4120 H   0  0  0  0  0  0  0  0  0  0  0  0
  -25.4350  -13.9000   20.5040 C   0  0  0  0  0  0  0  0  0  0  0  0
  -24.3770  -13.1200   20.8890 C   0  0  0  0  0  0  0  0  0  0  0  0
  -24.8240  -11.7680   20.7830 C   0  0  0  0  0  0  0  0  0  0  0  0
  -26.4610  -13.0200   20.1920 N   0  0  0  0  0  0  0  0  0  0  0  0
  -26.0980  -11.7320   20.4150 N   0  0  0  0  0  0  0  0  0  0  0  0
  -24.0960  -10.5050   20.9540 C   0  0  0  0  0  0  0  0  0  0  0  0
  -24.5190   -9.5310   21.8840 C   0  0  0  0  0  3  0  0  0  0  0  0
  -23.7930   -8.3310   22.0440 C   0  0  0  0  0  3  0  0  0  0  0  0
  -22.6310   -8.0970   21.2710 C   0  0  0  0  0  0  0  0  0  0  0  0
  -22.2260   -9.0600   20.3310 C   0  0  0  0  0  3  0  0  0  0  0  0
  -22.9520  -10.2520   20.1690 C   0  0  0  0  0  3  0  0  0  0  0  0
  -21.8780   -6.9480   21.3380 O   0  0  0  0  0  0  0  0  0  0  0  0
  -21.7480   -6.2410   22.5050 C   0  0  0  0  0  0  0  0  0  0  0  0
  -21.2380   -6.8320   23.6820 C   0  0  0  0  0  3  0  0  0  0  0  0
  -21.0550   -6.0510   24.8400 C   0  0  0  0  0  3  0  0  0  0  0  0
  -21.3710   -4.6790   24.8230 C   0  0  0  0  0  0  0  0  0  0  0  0
  -21.8730   -4.0870   23.6500 C   0  0  0  0  0  3  0  0  0  0  0  0
  -22.0580   -4.8650   22.4950 C   0  0  0  0  0  0  0  0  0  0  0  0
  -22.5230   -4.2850   21.3620 F   0  0  0  0  0  0  0  0  0  0  0  0
  -21.1880   -3.9270   25.9330 F   0  0  0  0  0  0  0  0  0  0  0  0
  -22.9990  -13.5970   21.2440 C   0  0  0  0  0  0  0  0  0  0  0  0
  -22.3150  -12.8800   22.1290 N   0  0  0  0  0  0  0  0  0  0  0  0
  -22.5400  -14.6380   20.7780 O   0  0  0  0  0  0  0  0  0  0  0  0
  -22.7010  -12.0360   22.5230 H   0  0  0  0  0  0  0  0  0  0  0  0
  -21.3920  -13.1790   22.4120 H   0  0  0  0  0  0  0  0  0  0  0  0
  -25.6030  -15.2740   20.3740 N   0  0  0  0  0  0  0  0  0  0  0  0
  -24.8410  -15.9220   20.5420 H   0  0  0  0  0  0  0  0  0  0  0  0
  -26.4310  -15.7240   20.0070 H   0  0  0  0  0  0  0  0  0  0  0  0
  -30.9010  -18.6260   24.8740 C   0  0  0  0  0  1  0  0  0  0  0  0
  -30.6810  -19.6090   23.7160 C   0  0  0  0  0  2  0  0  0  0  0  0
  -28.9730  -23.4880   21.2200 C   0  0  0  0  0  3  0  0  0  0  0  0
  -29.8820  -24.7430   21.0210 C   0  0  0  0  0  3  0  0  0  0  0  0
  -28.3020  -26.1140   22.5690 C   0  0  0  0  0  1  0  0  0  0  0  0
  -29.2360  -26.1420   21.3380 C   0  0  0  0  0  3  0  0  0  0  0  0
  -28.6460  -26.7060   20.1460 O   0  0  0  0  0  0  0  0  0  0  0  0
  -24.6150  -31.8160   23.2230 C   0  0  0  0  0  0  0  0  0  0  0  0
  -27.4840  -27.4500   20.2160 C   0  0  0  0  0  0  0  0  0  0  0  0
  -23.4950  -30.3560   21.5730 C   0  0  0  0  0  3  0  0  0  0  0  0
  -25.0320  -28.8680   20.1890 C   0  0  0  0  0  0  0  0  0  0  0  0
  -26.0100  -30.8100   21.4160 C   0  0  0  0  0  2  0  0  0  0  0  0
  -26.1640  -29.4370   20.7930 C   0  0  0  0  0  0  0  0  0  0  0  0
  -27.3940  -28.7340   20.8100 C   0  0  0  0  0  3  0  0  0  0  0  0
  -26.3410  -26.9060   19.5970 C   0  0  0  0  0  3  0  0  0  0  0  0
  -25.1140  -27.5960   19.5980 C   0  0  0  0  0  3  0  0  0  0  0  0
  -23.7560  -29.6800   20.2030 C   0  0  0  0  0  2  0  0  0  0  0  0
  -24.7240  -31.0110   22.1280 N   0  0  0  0  0  0  0  0  0  0  0  0
  -23.5160  -32.0410   23.7480 O   0  0  0  0  0  0  0  0  0  0  0  0
  -22.8720  -29.3110   22.5280 C   0  0  0  0  0  0  0  0  0  0  0  0
  -21.5620  -29.0540   22.3690 N   0  0  0  0  0  0  0  0  0  0  0  0
  -23.5660  -28.7310   23.3670 O   0  0  0  0  0  0  0  0  0  0  0  0
  -21.0600  -29.5670   21.6570 H   0  0  0  0  0  0  0  0  0  0  0  0
  -18.2560  -27.6570   22.7680 C   0  0  0  0  0  0  0  0  0  0  0  0
  -20.7790  -28.0870   23.1360 C   0  0  0  0  0  3  0  0  0  0  0  0
  -21.0000  -26.6510   22.6060 C   0  0  0  0  0  2  0  0  0  0  0  0
  -19.9640  -26.2310   21.5590 C   0  0  0  0  0  2  0  0  0  0  0  0
  -18.5500  -26.3060   22.1410 C   0  0  0  0  0  2  0  0  0  0  0  0
  -19.3030  -28.5020   23.2210 C   0  0  0  0  0  0  0  0  0  0  0  0
  -18.9760  -29.7650   23.7610 C   0  0  0  0  0  3  0  0  0  0  0  0
  -17.6340  -30.1810   23.8590 C   0  0  0  0  0  3  0  0  0  0  0  0
  -16.6010  -29.3330   23.4220 C   0  0  0  0  0  3  0  0  0  0  0  0
  -16.9140  -28.0740   22.8800 C   0  0  0  0  0  3  0  0  0  0  0  0
  -25.8640  -32.5070   23.8530 C   0  0  0  0  0  3  0  0  0  0  0  0
  -25.4860  -33.8860   24.1890 N   0  0  0  0  0  0  0  0  0  0  0  0
  -25.7710  -34.9560   23.4360 C   0  0  0  0  0  0  0  0  0  0  0  0
  -26.4480  -34.8900   22.4070 O   0  0  0  0  0  0  0  0  0  0  0  0
  -24.8840  -34.0050   24.9910 H   0  0  0  0  0  0  0  0  0  0  0  0
  -23.9570  -36.6600   23.0920 C   0  0  0  0  0  1  0  0  0  0  0  0
  -25.2190  -36.3170   23.8990 C   0  0  0  0  0  3  0  0  0  0  0  0
  -27.3110  -37.3060   24.7210 C   0  0  0  0  0  1  0  0  0  0  0  0
  -26.1980  -37.4190   23.7830 N   0  0  0  0  0  0  0  0  0  0  0  0
  -25.7480  -38.3180   23.9350 H   0  0  0  0  0  0  0  0  0  0  0  0
  -26.4160  -31.7560   25.1270 C   0  0  1  0  0  0  0  0  0  0  0  0
  -25.3280  -31.4620   26.1870 C   0  0  0  0  0  1  0  0  0  0  0  0
  -27.0610  -30.4090   24.7250 C   0  0  0  0  0  1  0  0  0  0  0  0
  -27.5310  -32.5990   25.7930 C   0  0  0  0  0  1  0  0  0  0  0  0
  1  2  2  0
  2  5  1  0
  2  4  1  0
  3 53  1  0
  3  1  1  0
  6  3  1  0
  7 10  1  0
  8  7  2  0
  8 12  1  0
  9 11  1  0
 10  1  1  0
 10 11  2  0
 11 52  1  0
 12  9  2  0
 13 21  1  0
 14 19  1  0
 15 16  1  0
 15 14  1  0
 17 16  1  0
 17 26  1  0
 17 18  1  0
 19 13  1  0
 19 18  1  0
 20 13  2  0
 21 12  1  0
 21 22  1  0
 23 24  2  0
 24 43  1  0
 25 24  1  0
 25 28  1  0
 26 27  1  0
 26 23  1  0
 27 25  2  0
 28 29  1  0
 29 30  2  0
 31 34  1  0
 31 30  1  0
 32 31  2  0
 33 32  1  0
 33 28  2  0
 34 35  1  0
 35 36  1  0
 36 37  2  0
 38 37  1  0
 38 42  1  0
 39 38  2  0
 40 35  2  0
 40 39  1  0
 41 40  1  0
 43 44  1  0
 44 47  1  0
 44 46  1  0
 45 43  2  0
 48 23  1  0
 48 49  1  0
 50 48  1  0
 52 51  1  0
 54 53  2  0
 54 56  1  0
 56 55  1  0
 57 59  1  0
 57 56  1  0
 58 69  2  0
 59 64  1  0
 60 68  1  0
 60 70  1  0
 61 67  1  0
 61 63  1  0
 62 68  1  0
 63 64  2  0
 63 62  1  0
 65 66  1  0
 65 59  2  0
 66 61  2  0
 67 60  1  0
 68 58  1  0
 70 72  2  0
 71 70  1  0
 73 71  1  0
 74 83  2  0
 74 79  1  0
 75 71  1  0
 75 79  1  0
 76 75  1  0
 77 78  1  0
 77 76  1  0
 78 74  1  0
 79 80  2  0
 80 81  1  0
 82 81  2  0
 83 82  1  0
 84 58  1  0
 84 85  1  0
 84 94  1  0
 85 88  1  0
 86 90  1  0
 86 85  1  0
 87 86  2  0
 90 89  1  0
 92 90  1  0
 92 93  1  0
 92 91  1  0
 94 97  1  1
 94 95  1  0
 96 94  1  0
M  ISO  4  13 100  21 100  56 101  57 101
M  END
>  <TORSDO>  (16) 
F 21

>  <SCORE>  (16) 
-11.548

>  <name>  (16) 
15

>  <ligand_id>  (16) 
15

>  <original_smiles>  (16) 
[H]c1c([H])c([H])c2c(c1[H])C([H])([H])C([H])([H])C([H])([H])C2([H])N([H])C(=O)C1([H])N(C(=O)C([H])(N([H])C(=O)C([H])(N([H])C([H])([H])[H])C([H])([H])[H])C(C([H])([H])[H])(C([H])([H])[H])C([H])([H])[H])C([H])([H])c2c([H])c(OC([H])(C([H])([H])[H])C([H])([H])C([H])([H])[N+]([H])=C(c3c([H])c([H])c(N([H])C(=O)N4C([H])([H])C([H])([H])C([H])([H])C([H])(n5nc(-c6c([H])c([H])c(Oc7c([H])c([H])c(F)c([H])c7F)c([H])c6[H])c(C(=O)N([H])[H])c5N([H])[H])C4([H])[H])c([H])c3C([H])([H])C([H])([H])[H])N([H])[H])c([H])c([H])c2C1([H])[H]

>  <smiles>  (16) 
[H]c1c([H])c([H])c2c(c1[H])C([H])([H])C([H])([H])C([H])([H])C2([H])N([H])C(=O)C1([H])N(C(=O)C([H])(N([H])C(=O)C([H])(N([H])C([H])([H])[H])C([H])([H])[H])C(C([H])([H])[H])(C([H])([H])[H])C([H])([H])[H])C([H])([H])c2c([H])c(OC([H])(C([H])([H])[H])C([H])([H])C([H])([H])[N+]([H])=C(c3c([H])c([H])c(N([H])C(=O)N4C([H])([H])C([H])([H])C([H])([H])C([H])(n5nc(-c6c([H])c([H])c(Oc7c([H])c([H])c(F)c([H])c7F)c([H])c6[H])c(C(=O)N([H])[H])c5N([H])[H])C4([H])[H])c([H])c3C([H])([H])C([H])([H])[H])N([H])[H])c([H])c([H])c2C1([H])[H]

$$$$
16:0:0
     RDKit          3D

 89 97  0  0  1  0  0  0  0  0999 V2000
  -29.3230  -20.3460   20.7520 C   0  0  0  0  0  2  0  0  0  0  0  0
  -30.3290  -17.6200   19.8230 C   0  0  0  0  0  0  0  0  0  0  0  0
  -30.0040  -19.1230   19.9060 C   0  0  0  0  0  0  0  0  0  0  0  0
  -31.0310  -17.5380   18.6330 C   0  0  0  0  0  0  0  0  0  0  0  0
  -31.5630  -16.4440   17.7640 C   0  0  0  0  0  1  0  0  0  0  0  0
  -30.6660  -19.7110   18.9190 N   0  0  0  0  0  0  0  0  0  0  0  0
  -31.2620  -18.7560   18.1160 O   0  0  0  0  0  0  0  0  0  0  0  0
  -30.7660  -15.0580   20.4840 C   0  0  0  0  0  0  0  0  0  0  0  0
  -30.6340  -12.7120   19.5560 C   0  0  0  0  0  2  0  0  0  0  0  0
  -29.7410  -12.6640   18.2960 C   0  0  0  0  0  2  0  0  0  0  0  0
  -28.2660  -12.4650   18.6850 C   0  0  0  0  0  2  0  0  0  0  0  0
  -27.8270  -13.3890   19.8510 C   0  0  0  0  0  3  0  0  0  0  0  0
  -28.8490  -13.4140   21.0060 C   0  0  0  0  0  2  0  0  0  0  0  0
  -30.1370  -13.8160   20.4300 N   0  0  0  0  0  0  0  0  0  0  0  0
  -31.9850  -15.0650   20.2880 O   0  0  0  0  0  0  0  0  0  0  0  0
  -30.0510  -16.2940   20.5540 N   0  0  0  0  0  0  0  0  0  0  0  0
  -29.1300  -16.2200   20.9620 H   0  0  0  0  0  0  0  0  0  0  0  0
  -25.4160  -13.9450   20.5050 C   0  0  0  0  0  0  0  0  0  0  0  0
  -24.3510  -13.1600   20.8470 C   0  0  0  0  0  0  0  0  0  0  0  0
  -24.8330  -11.8150   20.8520 C   0  0  0  0  0  0  0  0  0  0  0  0
  -26.4780  -13.0780   20.3120 N   0  0  0  0  0  0  0  0  0  0  0  0
  -26.1360  -11.7920   20.5880 N   0  0  0  0  0  0  0  0  0  0  0  0
  -24.1160  -10.5450   21.0310 C   0  0  0  0  0  0  0  0  0  0  0  0
  -24.5220   -9.5960   21.9960 C   0  0  0  0  0  3  0  0  0  0  0  0
  -23.8030   -8.3940   22.1650 C   0  0  0  0  0  3  0  0  0  0  0  0
  -22.6630   -8.1310   21.3680 C   0  0  0  0  0  0  0  0  0  0  0  0
  -22.2770   -9.0680   20.3930 C   0  0  0  0  0  3  0  0  0  0  0  0
  -22.9980  -10.2620   20.2220 C   0  0  0  0  0  3  0  0  0  0  0  0
  -21.9180   -6.9790   21.4430 O   0  0  0  0  0  0  0  0  0  0  0  0
  -21.8220   -6.2590   22.6070 C   0  0  0  0  0  0  0  0  0  0  0  0
  -21.3120   -6.8270   23.7950 C   0  0  0  0  0  3  0  0  0  0  0  0
  -21.1650   -6.0320   24.9500 C   0  0  0  0  0  3  0  0  0  0  0  0
  -21.5180   -4.6700   24.9150 C   0  0  0  0  0  0  0  0  0  0  0  0
  -22.0210   -4.1010   23.7320 C   0  0  0  0  0  3  0  0  0  0  0  0
  -22.1690   -4.8940   22.5800 C   0  0  0  0  0  0  0  0  0  0  0  0
  -22.6330   -4.3350   21.4370 F   0  0  0  0  0  0  0  0  0  0  0  0
  -21.3710   -3.9040   26.0230 F   0  0  0  0  0  0  0  0  0  0  0  0
  -22.9400  -13.6220   21.0600 C   0  0  0  0  0  0  0  0  0  0  0  0
  -22.1890  -12.9290   21.9100 N   0  0  0  0  0  0  0  0  0  0  0  0
  -22.5080  -14.6340   20.5080 O   0  0  0  0  0  0  0  0  0  0  0  0
  -22.5500  -12.1120   22.3780 H   0  0  0  0  0  0  0  0  0  0  0  0
  -21.2400  -13.2230   22.0950 H   0  0  0  0  0  0  0  0  0  0  0  0
  -25.5670  -15.3150   20.3130 N   0  0  0  0  0  0  0  0  0  0  0  0
  -24.7850  -15.9560   20.3830 H   0  0  0  0  0  0  0  0  0  0  0  0
  -26.4140  -15.7600   19.9850 H   0  0  0  0  0  0  0  0  0  0  0  0
  -28.7900  -21.7940   20.0260 C   0  0  0  0  0  2  0  0  0  0  0  0
  -28.8800  -23.3780   20.6140 C   0  0  0  0  0  3  0  0  0  0  0  0
  -28.0690  -24.7140   19.9770 C   0  0  0  0  0  3  0  0  0  0  0  0
  -28.2770  -26.2300   20.2760 O   0  0  0  0  0  0  0  0  0  0  0  0
  -24.5870  -31.8770   23.2220 C   0  0  0  0  0  0  0  0  0  0  0  0
  -27.2170  -27.2060   20.1780 C   0  0  0  0  0  0  0  0  0  0  0  0
  -23.4070  -30.4800   21.5700 C   0  0  0  0  0  3  0  0  0  0  0  0
  -24.8760  -28.9300   20.1390 C   0  0  0  0  0  0  0  0  0  0  0  0
  -25.9580  -30.7680   21.4210 C   0  0  0  0  0  2  0  0  0  0  0  0
  -26.0460  -29.3820   20.7620 C   0  0  0  0  0  0  0  0  0  0  0  0
  -27.2160  -28.5330   20.7690 C   0  0  0  0  0  3  0  0  0  0  0  0
  -26.0270  -26.8660   19.4990 C   0  0  0  0  0  3  0  0  0  0  0  0
  -24.8790  -27.6860   19.4910 C   0  0  0  0  0  3  0  0  0  0  0  0
  -23.6390  -29.8140   20.1880 C   0  0  0  0  0  2  0  0  0  0  0  0
  -24.6700  -31.0630   22.1260 N   0  0  0  0  0  0  0  0  0  0  0  0
  -23.4960  -32.1490   23.7470 O   0  0  0  0  0  0  0  0  0  0  0  0
  -22.7330  -29.4610   22.5230 C   0  0  0  0  0  0  0  0  0  0  0  0
  -21.4050  -29.2880   22.3980 N   0  0  0  0  0  0  0  0  0  0  0  0
  -23.4080  -28.8290   23.3390 O   0  0  0  0  0  0  0  0  0  0  0  0
  -20.9170  -29.8480   21.7140 H   0  0  0  0  0  0  0  0  0  0  0  0
  -18.0240  -28.0940   22.9170 C   0  0  0  0  0  0  0  0  0  0  0  0
  -20.5880  -28.3430   23.1620 C   0  0  0  0  0  3  0  0  0  0  0  0
  -20.6780  -26.9190   22.5660 C   0  0  0  0  0  2  0  0  0  0  0  0
  -19.5650  -26.6150   21.5570 C   0  0  0  0  0  2  0  0  0  0  0  0
  -18.1900  -26.7550   22.2160 C   0  0  0  0  0  2  0  0  0  0  0  0
  -19.1500  -28.8460   23.3460 C   0  0  0  0  0  0  0  0  0  0  0  0
  -18.9400  -30.0990   23.9630 C   0  0  0  0  0  3  0  0  0  0  0  0
  -17.6380  -30.6000   24.1510 C   0  0  0  0  0  3  0  0  0  0  0  0
  -16.5270  -29.8450   23.7350 C   0  0  0  0  0  3  0  0  0  0  0  0
  -16.7220  -28.5940   23.1250 C   0  0  0  0  0  3  0  0  0  0  0  0
  -25.8570  -32.5210   23.8580 C   0  0  0  0  0  3  0  0  0  0  0  0
  -26.3500  -31.7690   25.1550 C   0  0  1  0  0  0  0  0  0  0  0  0
  -25.2400  -31.5460   26.2090 C   0  0  0  0  0  1  0  0  0  0  0  0
  -26.9410  -30.3850   24.7980 C   0  0  0  0  0  1  0  0  0  0  0  0
  -27.4920  -32.5700   25.8230 C   0  0  0  0  0  1  0  0  0  0  0  0
  -25.5390  -33.9230   24.1710 N   0  0  0  0  0  0  0  0  0  0  0  0
  -25.8880  -34.9730   23.4140 C   0  0  0  0  0  0  0  0  0  0  0  0
  -26.5770  -34.8630   22.3960 O   0  0  0  0  0  0  0  0  0  0  0  0
  -24.9320  -34.0830   24.9600 H   0  0  0  0  0  0  0  0  0  0  0  0
  -24.1830  -36.7790   23.0060 C   0  0  0  0  0  1  0  0  0  0  0  0
  -25.3970  -36.3660   23.8550 C   0  0  0  0  0  3  0  0  0  0  0  0
  -27.5060  -37.2440   24.7560 C   0  0  0  0  0  1  0  0  0  0  0  0
  -26.4390  -37.4130   23.7730 N   0  0  0  0  0  0  0  0  0  0  0  0
  -26.0340  -38.3360   23.9020 H   0  0  0  0  0  0  0  0  0  0  0  0
  2  3  1  0
  2 16  1  0
  3  1  1  0
  4  2  2  0
  5  4  1  0
  6  3  2  0
  7  4  1  0
  7  6  1  0
  8 16  1  0
  9 14  1  0
 10 11  1  0
 10  9  1  0
 12 11  1  0
 12 21  1  0
 12 13  1  0
 14  8  1  0
 14 13  1  0
 15  8  2  0
 16 17  1  0
 18 19  2  0
 19 20  1  0
 19 38  1  0
 20 23  1  0
 21 18  1  0
 21 22  1  0
 22 20  2  0
 23 24  1  0
 24 25  2  0
 26 29  1  0
 26 25  1  0
 27 26  2  0
 28 27  1  0
 28 23  2  0
 29 30  1  0
 30 31  1  0
 31 32  2  0
 33 32  1  0
 33 37  1  0
 34 33  2  0
 35 30  2  0
 35 34  1  0
 36 35  1  0
 38 39  1  0
 39 42  1  0
 39 41  1  0
 40 38  2  0
 43 44  1  0
 43 18  1  0
 45 43  1  0
 46 47  1  0
 46  1  1  0
 48 49  1  0
 48 47  2  0
 50 61  2  0
 51 49  1  0
 51 56  1  0
 52 60  1  0
 52 62  1  0
 53 59  1  0
 53 55  1  0
 54 60  1  0
 55 56  2  0
 55 54  1  0
 57 51  2  0
 58 57  1  0
 58 53  2  0
 59 52  1  0
 60 50  1  0
 62 64  2  0
 63 62  1  0
 65 63  1  0
 66 75  2  0
 66 71  1  0
 67 63  1  0
 67 71  1  0
 68 67  1  0
 69 70  1  0
 69 68  1  0
 70 66  1  0
 71 72  2  0
 72 73  1  0
 74 73  2  0
 75 74  1  0
 76 50  1  0
 76 81  1  0
 76 77  1  0
 77 80  1  1
 77 78  1  0
 79 77  1  0
 81 84  1  0
 82 86  1  0
 82 81  1  0
 83 82  2  0
 86 85  1  0
 88 86  1  0
 88 89  1  0
 88 87  1  0
M  ISO  4   8 100  16 100  48 101  49 101
M  END
>  <TORSDO>  (17) 
F 20

>  <SCORE>  (17) 
-14.374

>  <name>  (17) 
16

>  <ligand_id>  (17) 
16

>  <original_smiles>  (17) 
[H]c1c([H])c([H])c2c(c1[H])C([H])([H])C([H])([H])C([H])([H])C2([H])N([H])C(=O)C1([H])N(C(=O)C([H])(N([H])C(=O)C([H])(N([H])C([H])([H])[H])C([H])([H])[H])C(C([H])([H])[H])(C([H])([H])[H])C([H])([H])[H])C([H])([H])c2c([H])c(OC([H])([H])C([H])([H])C([H])([H])C([H])([H])c3noc(C([H])([H])[H])c3N([H])C(=O)N3C([H])([H])C([H])([H])C([H])([H])C([H])(n4nc(-c5c([H])c([H])c(Oc6c([H])c([H])c(F)c([H])c6F)c([H])c5[H])c(C(=O)N([H])[H])c4N([H])[H])C3([H])[H])c([H])c([H])c2C1([H])[H]

>  <smiles>  (17) 
[H]c1c([H])c([H])c2c(c1[H])C([H])([H])C([H])([H])C([H])([H])C2([H])N([H])C(=O)C1([H])N(C(=O)C([H])(N([H])C(=O)C([H])(N([H])C([H])([H])[H])C([H])([H])[H])C(C([H])([H])[H])(C([H])([H])[H])C([H])([H])[H])C([H])([H])c2c([H])c(OC([H])([H])C([H])([H])C([H])([H])C([H])([H])c3noc(C([H])([H])[H])c3N([H])C(=O)N3C([H])([H])C([H])([H])C([H])([H])C([H])(n4nc(-c5c([H])c([H])c(Oc6c([H])c([H])c(F)c([H])c6F)c([H])c5[H])c(C(=O)N([H])[H])c4N([H])[H])C3([H])[H])c([H])c([H])c2C1([H])[H]

$$$$
17:0:0
     RDKit          3D

 92100  0  0  1  0  0  0  0  0999 V2000
  -28.5990  -22.1990   20.3530 C   0  0  0  0  0  2  0  0  0  0  0  0
  -29.8570  -23.8220   18.7980 C   0  0  0  0  0  1  0  0  0  0  0  0
  -30.1810  -23.9900   21.2730 C   0  0  0  0  0  1  0  0  0  0  0  0
  -29.1510  -23.7250   20.1620 C   0  0  2  0  0  0  0  0  0  0  0  0
  -28.0160  -24.8940   20.2150 C   0  0  0  0  0  2  0  0  0  0  0  0
  -28.2930  -26.3810   20.2260 O   0  0  0  0  0  0  0  0  0  0  0  0
  -24.6070  -31.9070   23.2360 C   0  0  0  0  0  0  0  0  0  0  0  0
  -27.1950  -27.2810   20.1870 C   0  0  0  0  0  0  0  0  0  0  0  0
  -23.4020  -30.5060   21.6050 C   0  0  0  0  0  3  0  0  0  0  0  0
  -24.8440  -28.9490   20.1780 C   0  0  0  0  0  0  0  0  0  0  0  0
  -25.9480  -30.8030   21.4210 C   0  0  0  0  0  2  0  0  0  0  0  0
  -26.0230  -29.4190   20.7730 C   0  0  0  0  0  0  0  0  0  0  0  0
  -27.2010  -28.5990   20.7610 C   0  0  0  0  0  3  0  0  0  0  0  0
  -25.9850  -26.8850   19.5670 C   0  0  0  0  0  3  0  0  0  0  0  0
  -24.8330  -27.6910   19.5640 C   0  0  0  0  0  3  0  0  0  0  0  0
  -23.6140  -29.8330   20.2250 C   0  0  0  0  0  2  0  0  0  0  0  0
  -24.6720  -31.0900   22.1430 N   0  0  0  0  0  0  0  0  0  0  0  0
  -23.5240  -32.1900   23.7710 O   0  0  0  0  0  0  0  0  0  0  0  0
  -22.7360  -29.4930   22.5660 C   0  0  0  0  0  0  0  0  0  0  0  0
  -21.4090  -29.3160   22.4390 N   0  0  0  0  0  0  0  0  0  0  0  0
  -23.4120  -28.8680   23.3900 O   0  0  0  0  0  0  0  0  0  0  0  0
  -20.9220  -29.8730   21.7510 H   0  0  0  0  0  0  0  0  0  0  0  0
  -18.0340  -28.1020   22.9280 C   0  0  0  0  0  0  0  0  0  0  0  0
  -20.5890  -28.3800   23.2120 C   0  0  0  0  0  3  0  0  0  0  0  0
  -20.7030  -26.9420   22.6540 C   0  0  0  0  0  2  0  0  0  0  0  0
  -19.6110  -26.6020   21.6350 C   0  0  0  0  0  2  0  0  0  0  0  0
  -18.2240  -26.7450   22.2680 C   0  0  0  0  0  2  0  0  0  0  0  0
  -19.1450  -28.8750   23.3570 C   0  0  0  0  0  0  0  0  0  0  0  0
  -18.9150  -30.1430   23.9350 C   0  0  0  0  0  3  0  0  0  0  0  0
  -17.6060  -30.6380   24.0870 C   0  0  0  0  0  3  0  0  0  0  0  0
  -16.5090  -29.8620   23.6750 C   0  0  0  0  0  3  0  0  0  0  0  0
  -16.7240  -28.5960   23.1000 C   0  0  0  0  0  3  0  0  0  0  0  0
  -25.8910  -32.5400   23.8540 C   0  0  0  0  0  3  0  0  0  0  0  0
  -26.4090  -31.7720   25.1310 C   0  0  1  0  0  0  0  0  0  0  0  0
  -25.3180  -31.5400   26.2040 C   0  0  0  0  0  1  0  0  0  0  0  0
  -26.9910  -30.3930   24.7430 C   0  0  0  0  0  1  0  0  0  0  0  0
  -27.5630  -32.5680   25.7870 C   0  0  0  0  0  1  0  0  0  0  0  0
  -25.5820  -33.9390   24.1860 N   0  0  0  0  0  0  0  0  0  0  0  0
  -25.9120  -34.9930   23.4280 C   0  0  0  0  0  0  0  0  0  0  0  0
  -26.5790  -34.8910   22.3950 O   0  0  0  0  0  0  0  0  0  0  0  0
  -24.9900  -34.0930   24.9880 H   0  0  0  0  0  0  0  0  0  0  0  0
  -24.1800  -36.7860   23.0880 C   0  0  0  0  0  1  0  0  0  0  0  0
  -25.4260  -36.3810   23.8920 C   0  0  0  0  0  3  0  0  0  0  0  0
  -27.5680  -37.2640   24.7050 C   0  0  0  0  0  1  0  0  0  0  0  0
  -26.4580  -37.4360   23.7720 N   0  0  0  0  0  0  0  0  0  0  0  0
  -26.0540  -38.3550   23.9270 H   0  0  0  0  0  0  0  0  0  0  0  0
  -29.2120  -20.9980   19.6960 O   0  0  0  0  0  0  0  0  0  0  0  0
  -30.9200  -18.8740   22.2630 C   0  0  0  0  0  3  0  0  0  0  0  0
  -30.3770  -19.9890   21.5930 C   0  0  0  0  0  3  0  0  0  0  0  0
  -29.5170  -18.4710   19.9030 C   0  0  0  0  0  3  0  0  0  0  0  0
  -30.7610  -17.5510   21.7880 C   0  0  0  0  0  0  0  0  0  0  0  0
  -30.0580  -17.2960   20.5790 C   0  0  0  0  0  0  0  0  0  0  0  0
  -29.6610  -19.8390   20.3910 C   0  0  0  0  0  0  0  0  0  0  0  0
  -31.3280  -16.4260   22.6400 C   0  0  0  0  0  1  0  0  0  0  0  0
  -30.5590  -14.7690   19.9950 C   0  0  0  0  0  0  0  0  0  0  0  0
  -30.2830  -12.5190   18.9350 C   0  0  0  0  0  2  0  0  0  0  0  0
  -29.2660  -12.6080   17.7760 C   0  0  0  0  0  2  0  0  0  0  0  0
  -27.8220  -12.4500   18.2950 C   0  0  0  0  0  2  0  0  0  0  0  0
  -27.5320  -13.3230   19.5430 C   0  0  0  0  0  3  0  0  0  0  0  0
  -28.6570  -13.2000   20.5920 C   0  0  0  0  0  2  0  0  0  0  0  0
  -29.9160  -13.5550   19.9220 N   0  0  0  0  0  0  0  0  0  0  0  0
  -31.7400  -14.8660   19.6470 O   0  0  0  0  0  0  0  0  0  0  0  0
  -29.7670  -15.8920   20.1810 N   0  0  0  0  0  0  0  0  0  0  0  0
  -28.7830  -15.6730   20.1640 H   0  0  0  0  0  0  0  0  0  0  0  0
  -25.2000  -13.9330   20.4230 C   0  0  0  0  0  0  0  0  0  0  0  0
  -24.1460  -13.1670   20.8400 C   0  0  0  0  0  0  0  0  0  0  0  0
  -24.5890  -11.8100   20.7590 C   0  0  0  0  0  0  0  0  0  0  0  0
  -26.2160  -13.0460   20.1110 N   0  0  0  0  0  0  0  0  0  0  0  0
  -25.8600  -11.7620   20.3760 N   0  0  0  0  0  0  0  0  0  0  0  0
  -23.8580  -10.5540   20.9700 C   0  0  0  0  0  0  0  0  0  0  0  0
  -24.3220   -9.5730   21.8750 C   0  0  0  0  0  3  0  0  0  0  0  0
  -23.5910   -8.3810   22.0740 C   0  0  0  0  0  3  0  0  0  0  0  0
  -22.3830   -8.1640   21.3690 C   0  0  0  0  0  0  0  0  0  0  0  0
  -21.9400   -9.1330   20.4520 C   0  0  0  0  0  3  0  0  0  0  0  0
  -22.6710  -10.3160   20.2510 C   0  0  0  0  0  3  0  0  0  0  0  0
  -21.6220   -7.0260   21.4770 O   0  0  0  0  0  0  0  0  0  0  0  0
  -21.6050   -6.2790   22.6280 C   0  0  0  0  0  0  0  0  0  0  0  0
  -21.2450   -6.8380   23.8740 C   0  0  0  0  0  3  0  0  0  0  0  0
  -21.1740   -6.0200   25.0180 C   0  0  0  0  0  3  0  0  0  0  0  0
  -21.4520   -4.6430   24.9180 C   0  0  0  0  0  0  0  0  0  0  0  0
  -21.8070   -4.0840   23.6770 C   0  0  0  0  0  3  0  0  0  0  0  0
  -21.8780   -4.9000   22.5340 C   0  0  0  0  0  0  0  0  0  0  0  0
  -22.1990   -4.3530   21.3370 F   0  0  0  0  0  0  0  0  0  0  0  0
  -21.3770   -3.8540   26.0140 F   0  0  0  0  0  0  0  0  0  0  0  0
  -22.7730  -13.6560   21.1970 C   0  0  0  0  0  0  0  0  0  0  0  0
  -22.0880  -12.9530   22.0920 N   0  0  0  0  0  0  0  0  0  0  0  0
  -22.3180  -14.6950   20.7180 O   0  0  0  0  0  0  0  0  0  0  0  0
  -22.4700  -12.1120   22.4960 H   0  0  0  0  0  0  0  0  0  0  0  0
  -21.1690  -13.2610   22.3770 H   0  0  0  0  0  0  0  0  0  0  0  0
  -25.3710  -15.3040   20.2570 N   0  0  0  0  0  0  0  0  0  0  0  0
  -24.6240  -15.9670   20.4310 H   0  0  0  0  0  0  0  0  0  0  0  0
  -26.1900  -15.7370   19.8480 H   0  0  0  0  0  0  0  0  0  0  0  0
  4  2  1  6
  4  5  1  0
  4  1  1  0
  4  3  1  0
  5  6  1  0
  7 18  2  0
  8  6  1  0
  8 13  1  0
  9 17  1  0
  9 19  1  0
 10 16  1  0
 10 12  1  0
 11 17  1  0
 12 11  1  0
 13 12  2  0
 14  8  2  0
 15 14  1  0
 15 10  2  0
 16  9  1  0
 17  7  1  0
 19 21  2  0
 20 19  1  0
 22 20  1  0
 23 32  2  0
 23 28  1  0
 24 20  1  0
 24 28  1  0
 25 24  1  0
 26 27  1  0
 26 25  1  0
 27 23  1  0
 28 29  2  0
 29 30  1  0
 31 30  2  0
 32 31  1  0
 33  7  1  0
 33 38  1  0
 33 34  1  0
 34 37  1  1
 34 35  1  0
 36 34  1  0
 38 41  1  0
 39 43  1  0
 39 38  1  0
 40 39  2  0
 43 42  1  0
 45 43  1  0
 45 46  1  0
 45 44  1  0
 47  1  1  0
 47 53  1  0
 49 48  2  0
 50 53  2  0
 50 52  1  0
 51 48  1  0
 51 54  1  0
 52 51  2  0
 53 49  1  0
 55 63  1  0
 56 61  1  0
 57 58  1  0
 57 56  1  0
 59 58  1  0
 59 68  1  0
 59 60  1  0
 61 55  1  0
 61 60  1  0
 62 55  2  0
 63 52  1  0
 64 63  1  0
 65 66  2  0
 66 85  1  0
 67 66  1  0
 67 70  1  0
 68 69  1  0
 68 65  1  0
 69 67  2  0
 70 71  1  0
 71 72  2  0
 73 76  1  0
 73 72  1  0
 74 73  2  0
 75 74  1  0
 75 70  2  0
 76 77  1  0
 77 78  1  0
 78 79  2  0
 80 79  1  0
 80 84  1  0
 81 80  2  0
 82 77  2  0
 82 81  1  0
 83 82  1  0
 85 86  1  0
 86 89  1  0
 86 88  1  0
 87 85  2  0
 90 65  1  0
 90 91  1  0
 92 90  1  0
M  ISO  4   5 101   6 101  55 100  63 100
M  END
>  <TORSDO>  (18) 
F 20

>  <SCORE>  (18) 
-13.280

>  <name>  (18) 
17

>  <ligand_id>  (18) 
17

>  <original_smiles>  (18) 
[H]c1c([H])c([H])c2c(c1[H])C([H])([H])C([H])([H])C([H])([H])C2([H])N([H])C(=O)C1([H])N(C(=O)C([H])(N([H])C(=O)C([H])(N([H])C([H])([H])[H])C([H])([H])[H])C(C([H])([H])[H])(C([H])([H])[H])C([H])([H])[H])C([H])([H])c2c([H])c(OC([H])([H])C(C([H])([H])[H])(C([H])([H])[H])C([H])([H])Oc3c([H])c([H])c(C([H])([H])[H])c(N([H])C(=O)N4C([H])([H])C([H])([H])C([H])([H])C([H])(n5nc(-c6c([H])c([H])c(Oc7c([H])c([H])c(F)c([H])c7F)c([H])c6[H])c(C(=O)N([H])[H])c5N([H])[H])C4([H])[H])c3[H])c([H])c([H])c2C1([H])[H]

>  <smiles>  (18) 
[H]c1c([H])c([H])c2c(c1[H])C([H])([H])C([H])([H])C([H])([H])C2([H])N([H])C(=O)C1([H])N(C(=O)C([H])(N([H])C(=O)C([H])(N([H])C([H])([H])[H])C([H])([H])[H])C(C([H])([H])[H])(C([H])([H])[H])C([H])([H])[H])C([H])([H])c2c([H])c(OC([H])([H])C(C([H])([H])[H])(C([H])([H])[H])C([H])([H])Oc3c([H])c([H])c(C([H])([H])[H])c(N([H])C(=O)N4C([H])([H])C([H])([H])C([H])([H])C([H])(n5nc(-c6c([H])c([H])c(Oc7c([H])c([H])c(F)c([H])c7F)c([H])c6[H])c(C(=O)N([H])[H])c5N([H])[H])C4([H])[H])c3[H])c([H])c([H])c2C1([H])[H]

$$$$
18:0:0
     RDKit          3D

 93101  0  0  1  0  0  0  0  0999 V2000
  -29.6580  -17.4150   18.7210 C   0  0  0  0  0  3  0  0  0  0  0  0
  -29.2530  -18.5140   20.8420 C   0  0  0  0  0  3  0  0  0  0  0  0
  -29.1950  -18.5770   18.0620 C   0  0  0  0  0  0  0  0  0  0  0  0
  -28.7970  -19.7450   18.7820 C   0  0  0  0  0  0  0  0  0  0  0  0
  -29.6460  -17.3030   20.1270 C   0  0  0  0  0  0  0  0  0  0  0  0
  -28.9010  -19.7810   20.2030 C   0  0  0  0  0  0  0  0  0  0  0  0
  -29.0310  -18.4670   16.5520 C   0  0  0  0  0  1  0  0  0  0  0  0
  -30.6280  -14.8690   20.2800 C   0  0  0  0  0  0  0  0  0  0  0  0
  -30.4650  -12.6280   19.1990 C   0  0  0  0  0  2  0  0  0  0  0  0
  -29.4970  -12.7660   18.0030 C   0  0  0  0  0  2  0  0  0  0  0  0
  -28.0380  -12.5670   18.4570 C   0  0  0  0  0  2  0  0  0  0  0  0
  -27.7010  -13.3780   19.7400 C   0  0  0  0  0  3  0  0  0  0  0  0
  -28.7790  -13.2140   20.8280 C   0  0  0  0  0  2  0  0  0  0  0  0
  -30.0590  -13.6150   20.2300 N   0  0  0  0  0  0  0  0  0  0  0  0
  -31.7720  -15.0290   19.8340 O   0  0  0  0  0  0  0  0  0  0  0  0
  -29.8550  -15.9480   20.7180 N   0  0  0  0  0  0  0  0  0  0  0  0
  -29.1070  -15.6770   21.3420 H   0  0  0  0  0  0  0  0  0  0  0  0
  -25.3300  -13.9400   20.5340 C   0  0  0  0  0  0  0  0  0  0  0  0
  -24.2790  -13.1550   20.9150 C   0  0  0  0  0  0  0  0  0  0  0  0
  -24.7430  -11.8050   20.8390 C   0  0  0  0  0  0  0  0  0  0  0  0
  -26.3690  -13.0710   20.2480 N   0  0  0  0  0  0  0  0  0  0  0  0
  -26.0270  -11.7800   20.4960 N   0  0  0  0  0  0  0  0  0  0  0  0
  -24.0240  -10.5380   21.0230 C   0  0  0  0  0  0  0  0  0  0  0  0
  -24.4710   -9.5610   21.9400 C   0  0  0  0  0  3  0  0  0  0  0  0
  -23.7550   -8.3570   22.1070 C   0  0  0  0  0  3  0  0  0  0  0  0
  -22.5790   -8.1210   21.3580 C   0  0  0  0  0  0  0  0  0  0  0  0
  -22.1480   -9.0860   20.4300 C   0  0  0  0  0  3  0  0  0  0  0  0
  -22.8650  -10.2830   20.2610 C   0  0  0  0  0  3  0  0  0  0  0  0
  -21.8310   -6.9720   21.4410 O   0  0  0  0  0  0  0  0  0  0  0  0
  -21.7870   -6.2230   22.5890 C   0  0  0  0  0  0  0  0  0  0  0  0
  -21.3190   -6.7560   23.8100 C   0  0  0  0  0  3  0  0  0  0  0  0
  -21.2250   -5.9330   24.9480 C   0  0  0  0  0  3  0  0  0  0  0  0
  -21.5800   -4.5730   24.8670 C   0  0  0  0  0  0  0  0  0  0  0  0
  -22.0370   -4.0370   23.6500 C   0  0  0  0  0  3  0  0  0  0  0  0
  -22.1340   -4.8580   22.5130 C   0  0  0  0  0  0  0  0  0  0  0  0
  -22.5560   -4.3320   21.3380 F   0  0  0  0  0  0  0  0  0  0  0  0
  -21.4780   -3.7760   25.9570 F   0  0  0  0  0  0  0  0  0  0  0  0
  -22.8860  -13.6230   21.2310 C   0  0  0  0  0  0  0  0  0  0  0  0
  -22.1790  -12.9030   22.0950 N   0  0  0  0  0  0  0  0  0  0  0  0
  -22.4340  -14.6640   20.7560 O   0  0  0  0  0  0  0  0  0  0  0  0
  -22.5610  -12.0680   22.5150 H   0  0  0  0  0  0  0  0  0  0  0  0
  -21.2430  -13.1940   22.3470 H   0  0  0  0  0  0  0  0  0  0  0  0
  -25.4800  -15.3160   20.3800 N   0  0  0  0  0  0  0  0  0  0  0  0
  -24.6990  -15.9510   20.4910 H   0  0  0  0  0  0  0  0  0  0  0  0
  -26.3090  -15.7680   20.0170 H   0  0  0  0  0  0  0  0  0  0  0  0
  -26.5540  -20.6980   17.9950 C   0  0  0  0  0  1  0  0  0  0  0  0
  -28.0850  -20.8850   18.0460 C   0  0  0  0  0  2  0  0  0  0  0  0
  -28.4100  -20.9210   20.9220 O   0  0  0  0  0  0  0  0  0  0  0  0
  -29.0040  -22.3040   20.9060 C   0  0  0  0  0  2  0  0  0  0  0  0
  -26.6630  -23.3270   20.5260 C   0  0  0  0  0  1  0  0  0  0  0  0
  -28.1710  -23.6420   20.4460 C   0  0  0  0  0  3  0  0  0  0  0  0
  -28.4820  -25.0810   21.1580 C   0  0  0  0  0  2  0  0  0  0  0  0
  -28.5590  -26.4430   20.5100 O   0  0  0  0  0  0  0  0  0  0  0  0
  -24.6590  -31.9460   23.2800 C   0  0  0  0  0  0  0  0  0  0  0  0
  -27.4520  -27.3120   20.4740 C   0  0  0  0  0  0  0  0  0  0  0  0
  -23.5530  -30.4790   21.6320 C   0  0  0  0  0  3  0  0  0  0  0  0
  -25.0870  -28.9160   20.2990 C   0  0  0  0  0  0  0  0  0  0  0  0
  -26.0940  -30.8310   21.5420 C   0  0  0  0  0  2  0  0  0  0  0  0
  -26.2220  -29.4280   20.9450 C   0  0  0  0  0  0  0  0  0  0  0  0
  -27.4130  -28.6360   21.0250 C   0  0  0  0  0  3  0  0  0  0  0  0
  -26.3160  -26.8790   19.7730 C   0  0  0  0  0  3  0  0  0  0  0  0
  -25.1400  -27.6480   19.6960 C   0  0  0  0  0  3  0  0  0  0  0  0
  -23.8350  -29.7740   20.2780 C   0  0  0  0  0  2  0  0  0  0  0  0
  -24.7880  -31.1030   22.2100 N   0  0  0  0  0  0  0  0  0  0  0  0
  -23.5480  -32.2180   23.7570 O   0  0  0  0  0  0  0  0  0  0  0  0
  -22.8660  -29.4780   22.5940 C   0  0  0  0  0  0  0  0  0  0  0  0
  -21.5450  -29.2830   22.4320 N   0  0  0  0  0  0  0  0  0  0  0  0
  -23.5270  -28.8820   23.4490 O   0  0  0  0  0  0  0  0  0  0  0  0
  -21.0630  -29.8290   21.7310 H   0  0  0  0  0  0  0  0  0  0  0  0
  -18.1650  -28.0910   22.9060 C   0  0  0  0  0  0  0  0  0  0  0  0
  -20.7190  -28.3490   23.2040 C   0  0  0  0  0  3  0  0  0  0  0  0
  -20.8280  -26.9110   22.6450 C   0  0  0  0  0  2  0  0  0  0  0  0
  -19.7370  -26.5820   21.6200 C   0  0  0  0  0  2  0  0  0  0  0  0
  -18.3480  -26.7350   22.2450 C   0  0  0  0  0  2  0  0  0  0  0  0
  -19.2800  -28.8530   23.3430 C   0  0  0  0  0  0  0  0  0  0  0  0
  -19.0550  -30.1180   23.9260 C   0  0  0  0  0  3  0  0  0  0  0  0
  -17.7490  -30.6240   24.0720 C   0  0  0  0  0  3  0  0  0  0  0  0
  -16.6480  -29.8580   23.6510 C   0  0  0  0  0  3  0  0  0  0  0  0
  -16.8570  -28.5930   23.0720 C   0  0  0  0  0  3  0  0  0  0  0  0
  -25.8990  -32.6270   23.9330 C   0  0  0  0  0  3  0  0  0  0  0  0
  -25.5390  -34.0230   24.2220 N   0  0  0  0  0  0  0  0  0  0  0  0
  -25.8630  -35.0700   23.4530 C   0  0  0  0  0  0  0  0  0  0  0  0
  -26.5600  -34.9670   22.4410 O   0  0  0  0  0  0  0  0  0  0  0  0
  -24.9210  -34.1810   25.0060 H   0  0  0  0  0  0  0  0  0  0  0  0
  -24.1000  -36.8150   23.0210 C   0  0  0  0  0  1  0  0  0  0  0  0
  -25.3260  -36.4540   23.8720 C   0  0  0  0  0  3  0  0  0  0  0  0
  -27.4050  -37.4140   24.7520 C   0  0  0  0  0  1  0  0  0  0  0  0
  -26.3320  -37.5310   23.7720 N   0  0  0  0  0  0  0  0  0  0  0  0
  -25.8930  -38.4410   23.8890 H   0  0  0  0  0  0  0  0  0  0  0  0
  -26.3940  -31.8940   25.2420 C   0  0  1  0  0  0  0  0  0  0  0  0
  -25.2720  -31.6340   26.2730 C   0  0  0  0  0  1  0  0  0  0  0  0
  -27.0410  -30.5320   24.8970 C   0  0  0  0  0  1  0  0  0  0  0  0
  -27.4920  -32.7370   25.9290 C   0  0  0  0  0  1  0  0  0  0  0  0
  1  5  1  0
  3  1  2  0
  3  4  1  0
  4  6  2  0
  5 16  1  0
  5  2  2  0
  6  2  1  0
  6 48  1  0
  7  3  1  0
  8 16  1  0
  9 14  1  0
 10 11  1  0
 10  9  1  0
 12 11  1  0
 12 21  1  0
 12 13  1  0
 14  8  1  0
 14 13  1  0
 15  8  2  0
 16 17  1  0
 18 19  2  0
 19 38  1  0
 20 19  1  0
 20 23  1  0
 21 22  1  0
 21 18  1  0
 22 20  2  0
 23 24  1  0
 24 25  2  0
 26 29  1  0
 26 25  1  0
 27 26  2  0
 28 27  1  0
 28 23  2  0
 29 30  1  0
 30 31  1  0
 31 32  2  0
 33 32  1  0
 33 37  1  0
 34 33  2  0
 35 30  2  0
 35 34  1  0
 36 35  1  0
 38 39  1  0
 39 42  1  0
 39 41  1  0
 40 38  2  0
 43 44  1  0
 43 18  1  0
 45 43  1  0
 46 47  1  0
 47  4  1  0
 49 48  1  0
 51 50  1  0
 51 49  1  0
 51 52  1  0
 53 52  1  0
 54 65  2  0
 55 53  1  0
 55 60  1  0
 56 64  1  0
 56 66  1  0
 57 59  1  0
 58 64  1  0
 59 60  2  0
 59 58  1  0
 61 55  2  0
 62 61  1  0
 62 57  2  0
 63 57  1  0
 63 56  1  0
 64 54  1  0
 66 68  2  0
 67 66  1  0
 69 67  1  0
 70 79  2  0
 70 75  1  0
 71 67  1  0
 71 75  1  0
 72 71  1  0
 73 74  1  0
 73 72  1  0
 74 70  1  0
 75 76  2  0
 76 77  1  0
 78 77  2  0
 79 78  1  0
 80 54  1  0
 80 81  1  0
 80 90  1  0
 81 84  1  0
 82 86  1  0
 82 81  1  0
 83 82  2  0
 86 85  1  0
 88 86  1  0
 88 89  1  0
 88 87  1  0
 90 93  1  1
 90 91  1  0
 92 90  1  0
M  ISO  4   8 100  16 100  52 101  53 101
M  END
>  <TORSDO>  (19) 
F 21

>  <SCORE>  (19) 
-13.826

>  <name>  (19) 
18

>  <ligand_id>  (19) 
18

>  <original_smiles>  (19) 
[H]c1c([H])c([H])c2c(c1[H])C([H])([H])C([H])([H])C([H])([H])C2([H])N([H])C(=O)C1([H])N(C(=O)C([H])(N([H])C(=O)C([H])(N([H])C([H])([H])[H])C([H])([H])[H])C(C([H])([H])[H])(C([H])([H])[H])C([H])([H])[H])C([H])([H])c2c([H])c(OC([H])([H])C([H])(C([H])([H])[H])C([H])([H])Oc3c([H])c(N([H])C(=O)N4C([H])([H])C([H])([H])C([H])([H])C([H])(n5nc(-c6c([H])c([H])c(Oc7c([H])c([H])c(F)c([H])c7F)c([H])c6[H])c(C(=O)N([H])[H])c5N([H])[H])C4([H])[H])c([H])c(C([H])([H])[H])c3C([H])([H])C([H])([H])[H])c([H])c([H])c2C1([H])[H]

>  <smiles>  (19) 
[H]c1c([H])c([H])c2c(c1[H])C([H])([H])C([H])([H])C([H])([H])C2([H])N([H])C(=O)C1([H])N(C(=O)C([H])(N([H])C(=O)C([H])(N([H])C([H])([H])[H])C([H])([H])[H])C(C([H])([H])[H])(C([H])([H])[H])C([H])([H])[H])C([H])([H])c2c([H])c(OC([H])([H])C([H])(C([H])([H])[H])C([H])([H])Oc3c([H])c(N([H])C(=O)N4C([H])([H])C([H])([H])C([H])([H])C([H])(n5nc(-c6c([H])c([H])c(Oc7c([H])c([H])c(F)c([H])c7F)c([H])c6[H])c(C(=O)N([H])[H])c5N([H])[H])C4([H])[H])c([H])c(C([H])([H])[H])c3C([H])([H])C([H])([H])[H])c([H])c([H])c2C1([H])[H]

$$$$
19:0:0
     RDKit          3D

 93101  0  0  1  0  0  0  0  0999 V2000
  -29.5010  -20.8070   20.9810 C   0  0  0  0  0  2  0  0  0  0  0  0
  -29.7530  -22.3250   20.9400 C   0  0  0  0  0  0  0  0  0  0  0  0
  -30.7030  -22.8390   21.5430 O   0  0  0  0  0  0  0  0  0  0  0  0
  -28.7850  -23.1840   20.1160 C   0  0  0  0  0  2  0  0  0  0  0  0
  -29.0220  -24.7150   20.2130 C   0  0  0  0  0  2  0  0  0  0  0  0
  -27.8630  -25.5030   19.5820 C   0  0  0  0  0  2  0  0  0  0  0  0
  -28.0000  -26.9200   19.7560 O   0  0  0  0  0  0  0  0  0  0  0  0
  -24.5050  -32.0110   23.2860 C   0  0  0  0  0  0  0  0  0  0  0  0
  -26.8310  -27.6550   19.8430 C   0  0  0  0  0  0  0  0  0  0  0  0
  -23.1480  -30.6690   21.7140 C   0  0  0  0  0  3  0  0  0  0  0  0
  -24.4570  -29.1770   20.1140 C   0  0  0  0  0  0  0  0  0  0  0  0
  -25.6500  -31.0210   21.3050 C   0  0  0  0  0  2  0  0  0  0  0  0
  -25.6670  -29.6730   20.6150 C   0  0  0  0  0  0  0  0  0  0  0  0
  -26.8550  -28.9180   20.4780 C   0  0  0  0  0  3  0  0  0  0  0  0
  -25.6000  -27.1830   19.3270 C   0  0  0  0  0  3  0  0  0  0  0  0
  -24.4190  -27.9320   19.4670 C   0  0  0  0  0  3  0  0  0  0  0  0
  -23.2290  -30.0360   20.3000 C   0  0  0  0  0  2  0  0  0  0  0  0
  -24.4570  -31.2470   22.1580 N   0  0  0  0  0  0  0  0  0  0  0  0
  -23.4780  -32.2710   23.9270 O   0  0  0  0  0  0  0  0  0  0  0  0
  -22.5780  -29.6180   22.6940 C   0  0  0  0  0  0  0  0  0  0  0  0
  -21.2840  -29.2950   22.5380 N   0  0  0  0  0  0  0  0  0  0  0  0
  -23.2980  -29.0960   23.5490 O   0  0  0  0  0  0  0  0  0  0  0  0
  -20.7630  -29.7740   21.8150 H   0  0  0  0  0  0  0  0  0  0  0  0
  -18.0830  -27.6500   22.8650 C   0  0  0  0  0  0  0  0  0  0  0  0
  -20.5420  -28.3080   23.3180 C   0  0  0  0  0  3  0  0  0  0  0  0
  -20.9010  -26.8690   22.8820 C   0  0  0  0  0  2  0  0  0  0  0  0
  -19.9540  -26.3080   21.8160 C   0  0  0  0  0  2  0  0  0  0  0  0
  -18.5120  -26.2940   22.3310 C   0  0  0  0  0  2  0  0  0  0  0  0
  -19.0370  -28.6010   23.3150 C   0  0  0  0  0  0  0  0  0  0  0  0
  -18.5880  -29.8600   23.7700 C   0  0  0  0  0  3  0  0  0  0  0  0
  -17.2150  -30.1720   23.7820 C   0  0  0  0  0  3  0  0  0  0  0  0
  -16.2740  -29.2210   23.3510 C   0  0  0  0  0  3  0  0  0  0  0  0
  -16.7080  -27.9610   22.8990 C   0  0  0  0  0  3  0  0  0  0  0  0
  -25.8460  -32.6150   23.8090 C   0  0  0  0  0  3  0  0  0  0  0  0
  -25.5850  -34.0130   24.1760 N   0  0  0  0  0  0  0  0  0  0  0  0
  -25.8850  -35.0680   23.4080 C   0  0  0  0  0  0  0  0  0  0  0  0
  -26.4840  -34.9670   22.3340 O   0  0  0  0  0  0  0  0  0  0  0  0
  -25.0450  -34.1660   25.0160 H   0  0  0  0  0  0  0  0  0  0  0  0
  -24.1690  -36.8920   23.1930 C   0  0  0  0  0  1  0  0  0  0  0  0
  -25.4550  -36.4590   23.9130 C   0  0  0  0  0  3  0  0  0  0  0  0
  -27.6600  -37.2910   24.6010 C   0  0  0  0  0  1  0  0  0  0  0  0
  -26.4970  -37.4950   23.7420 N   0  0  0  0  0  0  0  0  0  0  0  0
  -26.1200  -38.4200   23.9330 H   0  0  0  0  0  0  0  0  0  0  0  0
  -26.4520  -31.8190   25.0280 C   0  0  1  0  0  0  0  0  0  0  0  0
  -25.4290  -31.5340   26.1530 C   0  0  0  0  0  1  0  0  0  0  0  0
  -27.0280  -30.4610   24.5600 C   0  0  0  0  0  1  0  0  0  0  0  0
  -27.6300  -32.6130   25.6390 C   0  0  0  0  0  1  0  0  0  0  0  0
  -30.5740  -20.1780   21.6810 O   0  0  0  0  0  0  0  0  0  0  0  0
  -32.5500  -16.8970   19.9690 C   0  0  0  0  0  3  0  0  0  0  0  0
  -32.5400  -19.1650   20.8480 C   0  0  0  0  0  3  0  0  0  0  0  0
  -30.4700  -17.8690   20.8100 C   0  0  0  0  0  3  0  0  0  0  0  0
  -33.2350  -18.0880   20.2690 C   0  0  0  0  0  0  0  0  0  0  0  0
  -31.1660  -16.7760   20.2330 C   0  0  0  0  0  0  0  0  0  0  0  0
  -31.1590  -19.0750   21.1080 C   0  0  0  0  0  0  0  0  0  0  0  0
  -34.7160  -18.2060   19.9750 C   0  0  0  0  0  1  0  0  0  0  0  0
  -31.0250  -14.4850   19.3360 C   0  0  0  0  0  0  0  0  0  0  0  0
  -30.6600  -12.1560   18.6020 C   0  0  0  0  0  2  0  0  0  0  0  0
  -29.6140  -12.0960   17.4730 C   0  0  0  0  0  2  0  0  0  0  0  0
  -28.1900  -12.0150   18.0560 C   0  0  0  0  0  2  0  0  0  0  0  0
  -27.9300  -13.0820   19.1530 C   0  0  0  0  0  3  0  0  0  0  0  0
  -29.0810  -13.1110   20.1830 C   0  0  0  0  0  2  0  0  0  0  0  0
  -30.3410  -13.3160   19.4500 N   0  0  0  0  0  0  0  0  0  0  0  0
  -32.0350  -14.5980   18.6340 O   0  0  0  0  0  0  0  0  0  0  0  0
  -30.4950  -15.5460   19.9690 N   0  0  0  0  0  0  0  0  0  0  0  0
  -29.5670  -15.4330   20.3490 H   0  0  0  0  0  0  0  0  0  0  0  0
  -25.6830  -13.8140   20.1730 C   0  0  0  0  0  0  0  0  0  0  0  0
  -24.6240  -13.0980   20.6610 C   0  0  0  0  0  0  0  0  0  0  0  0
  -24.9900  -11.7220   20.5430 C   0  0  0  0  0  0  0  0  0  0  0  0
  -26.6330  -12.8790   19.7930 N   0  0  0  0  0  0  0  0  0  0  0  0
  -26.2240  -11.6130   20.0700 N   0  0  0  0  0  0  0  0  0  0  0  0
  -24.2130  -10.5020   20.7980 C   0  0  0  0  0  0  0  0  0  0  0  0
  -24.6200   -9.5580   21.7670 C   0  0  0  0  0  3  0  0  0  0  0  0
  -23.8480   -8.4000   22.0080 C   0  0  0  0  0  3  0  0  0  0  0  0
  -22.6550   -8.1790   21.2790 C   0  0  0  0  0  0  0  0  0  0  0  0
  -22.2680   -9.1100   20.2990 C   0  0  0  0  0  3  0  0  0  0  0  0
  -23.0400  -10.2580   20.0570 C   0  0  0  0  0  3  0  0  0  0  0  0
  -21.8560   -7.0710   21.4270 O   0  0  0  0  0  0  0  0  0  0  0  0
  -21.6980   -6.4540   22.6420 C   0  0  0  0  0  0  0  0  0  0  0  0
  -21.1930   -7.1420   23.7670 C   0  0  0  0  0  3  0  0  0  0  0  0
  -20.9820   -6.4520   24.9770 C   0  0  0  0  0  3  0  0  0  0  0  0
  -21.2650   -5.0760   25.0630 C   0  0  0  0  0  0  0  0  0  0  0  0
  -21.7620   -4.3880   23.9420 C   0  0  0  0  0  3  0  0  0  0  0  0
  -21.9750   -5.0750   22.7330 C   0  0  0  0  0  0  0  0  0  0  0  0
  -22.4350   -4.4030   21.6500 F   0  0  0  0  0  0  0  0  0  0  0  0
  -21.0550   -4.4100   26.2220 F   0  0  0  0  0  0  0  0  0  0  0  0
  -23.3060  -13.6510   21.1230 C   0  0  0  0  0  0  0  0  0  0  0  0
  -22.6670  -12.9910   22.0810 N   0  0  0  0  0  0  0  0  0  0  0  0
  -22.8590  -14.7020   20.6660 O   0  0  0  0  0  0  0  0  0  0  0  0
  -23.0450  -12.1400   22.4710 H   0  0  0  0  0  0  0  0  0  0  0  0
  -21.7880  -13.3430   22.4340 H   0  0  0  0  0  0  0  0  0  0  0  0
  -25.9140  -15.1760   20.0030 N   0  0  0  0  0  0  0  0  0  0  0  0
  -25.2090  -15.8750   20.2120 H   0  0  0  0  0  0  0  0  0  0  0  0
  -26.7430  -15.5680   19.5730 H   0  0  0  0  0  0  0  0  0  0  0  0
  1 48  1  0
  2  1  1  0
  2  3  2  0
  4  5  1  0
  4  2  1  0
  6  7  1  0
  6  5  1  0
  7  9  1  0
  8 19  2  0
  9 14  1  0
 10 18  1  0
 10 20  1  0
 11 17  1  0
 11 13  1  0
 12 18  1  0
 13 12  1  0
 14 13  2  0
 15 16  1  0
 15  9  2  0
 16 11  2  0
 17 10  1  0
 18  8  1  0
 20 22  2  0
 21 20  1  0
 23 21  1  0
 24 33  2  0
 24 29  1  0
 25 21  1  0
 26 25  1  0
 27 28  1  0
 27 26  1  0
 28 24  1  0
 29 25  1  0
 29 30  2  0
 30 31  1  0
 32 31  2  0
 33 32  1  0
 34  8  1  0
 34 35  1  0
 34 44  1  0
 35 38  1  0
 36 40  1  0
 36 35  1  0
 37 36  2  0
 40 39  1  0
 42 40  1  0
 42 43  1  0
 42 41  1  0
 44 47  1  1
 44 45  1  0
 46 44  1  0
 49 53  2  0
 49 52  1  0
 50 54  1  0
 51 54  2  0
 52 50  2  0
 53 51  1  0
 54 48  1  0
 55 52  1  0
 56 62  1  0
 56 64  1  0
 57 62  1  0
 58 59  1  0
 58 57  1  0
 60 59  1  0
 60 69  1  0
 60 61  1  0
 62 61  1  0
 63 56  2  0
 64 53  1  0
 64 65  1  0
 66 67  2  0
 67 86  1  0
 68 67  1  0
 68 71  1  0
 69 70  1  0
 69 66  1  0
 70 68  2  0
 71 72  1  0
 72 73  2  0
 74 77  1  0
 74 73  1  0
 75 74  2  0
 76 75  1  0
 76 71  2  0
 77 78  1  0
 78 83  2  0
 78 79  1  0
 79 80  2  0
 80 81  1  0
 81 85  1  0
 82 81  2  0
 83 82  1  0
 84 83  1  0
 86 87  1  0
 87 90  1  0
 87 89  1  0
 88 86  2  0
 91 66  1  0
 91 92  1  0
 93 91  1  0
M  ISO  4   6 101   7 101  56 100  64 100
M  END
>  <TORSDO>  (20) 
F 22

>  <SCORE>  (20) 
-12.083

>  <name>  (20) 
19

>  <ligand_id>  (20) 
19

>  <original_smiles>  (20) 
[H]c1c([H])c([H])c2c(c1[H])C([H])([H])C([H])([H])C([H])([H])C2([H])N([H])C(=O)C1([H])N(C(=O)C([H])(N([H])C(=O)C([H])(N([H])C([H])([H])[H])C([H])([H])[H])C(C([H])([H])[H])(C([H])([H])[H])C([H])([H])[H])C([H])([H])c2c([H])c(OC([H])([H])C([H])([H])C([H])([H])C(=O)C([H])([H])Oc3c([H])c(N([H])C(=O)N4C([H])([H])C([H])([H])C([H])([H])C([H])(n5nc(-c6c([H])c([H])c(Oc7c([H])c([H])c(F)c([H])c7F)c([H])c6[H])c(C(=O)N([H])[H])c5N([H])[H])C4([H])[H])c([H])c(C([H])([H])[H])c3[H])c([H])c([H])c2C1([H])[H]

>  <smiles>  (20) 
[H]c1c([H])c([H])c2c(c1[H])C([H])([H])C([H])([H])C([H])([H])C2([H])N([H])C(=O)C1([H])N(C(=O)C([H])(N([H])C(=O)C([H])(N([H])C([H])([H])[H])C([H])([H])[H])C(C([H])([H])[H])(C([H])([H])[H])C([H])([H])[H])C([H])([H])c2c([H])c(OC([H])([H])C([H])([H])C([H])([H])C(=O)C([H])([H])Oc3c([H])c(N([H])C(=O)N4C([H])([H])C([H])([H])C([H])([H])C([H])(n5nc(-c6c([H])c([H])c(Oc7c([H])c([H])c(F)c([H])c7F)c([H])c6[H])c(C(=O)N([H])[H])c5N([H])[H])C4([H])[H])c([H])c(C([H])([H])[H])c3[H])c([H])c([H])c2C1([H])[H]

$$$$
20:0:0
     RDKit          3D

 95103  0  0  1  0  0  0  0  0999 V2000
  -29.2990  -21.0160   21.1520 C   0  0  0  0  0  2  0  0  0  0  0  0
  -29.7770  -22.3440   18.9460 C   0  0  0  0  0  1  0  0  0  0  0  0
  -28.8770  -22.1610   20.1880 C   0  0  0  0  0  3  0  0  0  0  0  0
  -28.6500  -23.5010   20.9280 C   0  0  0  0  0  2  0  0  0  0  0  0
  -28.0340  -24.5950   20.0460 C   0  0  0  0  0  0  0  0  0  0  0  0
  -27.2230  -24.3200   19.1540 O   0  0  0  0  0  0  0  0  0  0  0  0
  -28.4690  -26.0380   20.3190 C   0  0  0  0  0  2  0  0  0  0  0  0
  -28.0890  -26.8860   19.2370 O   0  0  0  0  0  0  0  0  0  0  0  0
  -24.6840  -31.6910   23.2090 C   0  0  0  0  0  0  0  0  0  0  0  0
  -26.9340  -27.5820   19.4670 C   0  0  0  0  0  0  0  0  0  0  0  0
  -23.2900  -30.4450   21.5880 C   0  0  0  0  0  3  0  0  0  0  0  0
  -24.5630  -29.0400   19.8850 C   0  0  0  0  0  0  0  0  0  0  0  0
  -25.7760  -30.8300   21.1450 C   0  0  0  0  0  2  0  0  0  0  0  0
  -25.7800  -29.5200   20.3870 C   0  0  0  0  0  0  0  0  0  0  0  0
  -26.9710  -28.7960   20.1800 C   0  0  0  0  0  3  0  0  0  0  0  0
  -25.7080  -27.1010   18.9660 C   0  0  0  0  0  3  0  0  0  0  0  0
  -24.5190  -27.8250   19.1770 C   0  0  0  0  0  3  0  0  0  0  0  0
  -23.3380  -29.8880   20.1400 C   0  0  0  0  0  2  0  0  0  0  0  0
  -24.6080  -30.9970   22.0390 N   0  0  0  0  0  0  0  0  0  0  0  0
  -23.6720  -31.9140   23.8880 O   0  0  0  0  0  0  0  0  0  0  0  0
  -22.7380  -29.3410   22.5190 C   0  0  0  0  0  0  0  0  0  0  0  0
  -21.4400  -29.0320   22.3720 N   0  0  0  0  0  0  0  0  0  0  0  0
  -23.4740  -28.7660   23.3240 O   0  0  0  0  0  0  0  0  0  0  0  0
  -20.9030  -29.5540   21.6930 H   0  0  0  0  0  0  0  0  0  0  0  0
  -18.2390  -27.3890   22.6780 C   0  0  0  0  0  0  0  0  0  0  0  0
  -20.7110  -28.0010   23.1100 C   0  0  0  0  0  3  0  0  0  0  0  0
  -21.0490  -26.5900   22.5750 C   0  0  0  0  0  2  0  0  0  0  0  0
  -20.0730  -26.1050   21.5000 C   0  0  0  0  0  2  0  0  0  0  0  0
  -18.6440  -26.0670   22.0490 C   0  0  0  0  0  2  0  0  0  0  0  0
  -19.2100  -28.3050   23.1620 C   0  0  0  0  0  0  0  0  0  0  0  0
  -18.7810  -29.5360   23.7040 C   0  0  0  0  0  3  0  0  0  0  0  0
  -17.4120  -29.8540   23.7710 C   0  0  0  0  0  3  0  0  0  0  0  0
  -16.4530  -28.9370   23.3060 C   0  0  0  0  0  3  0  0  0  0  0  0
  -16.8670  -27.7070   22.7640 C   0  0  0  0  0  3  0  0  0  0  0  0
  -26.0380  -32.2580   23.7380 C   0  0  0  0  0  3  0  0  0  0  0  0
  -25.7970  -33.6370   24.1830 N   0  0  0  0  0  0  0  0  0  0  0  0
  -26.0290  -34.7270   23.4390 C   0  0  0  0  0  0  0  0  0  0  0  0
  -26.5450  -34.6760   22.3190 O   0  0  0  0  0  0  0  0  0  0  0  0
  -25.3240  -33.7510   25.0680 H   0  0  0  0  0  0  0  0  0  0  0  0
  -24.2550  -36.5080   23.4740 C   0  0  0  0  0  1  0  0  0  0  0  0
  -25.6250  -36.0890   24.0320 C   0  0  0  0  0  3  0  0  0  0  0  0
  -27.8620  -36.9770   24.5170 C   0  0  0  0  0  1  0  0  0  0  0  0
  -26.6140  -37.1580   23.7780 N   0  0  0  0  0  0  0  0  0  0  0  0
  -26.2310  -38.0680   24.0220 H   0  0  0  0  0  0  0  0  0  0  0  0
  -26.6620  -31.3960   24.9030 C   0  0  1  0  0  0  0  0  0  0  0  0
  -25.6670  -31.0720   26.0410 C   0  0  0  0  0  1  0  0  0  0  0  0
  -27.2060  -30.0560   24.3550 C   0  0  0  0  0  1  0  0  0  0  0  0
  -27.8670  -32.1430   25.5230 C   0  0  0  0  0  1  0  0  0  0  0  0
  -30.7290  -20.4370   21.0240 C   0  0  0  0  0  2  0  0  0  0  0  0
  -30.9070  -18.5500   22.7030 C   0  0  0  0  0  3  0  0  0  0  0  0
  -30.7970  -16.2110   22.0450 C   0  0  0  0  0  3  0  0  0  0  0  0
  -30.7690  -18.9500   21.3570 C   0  0  0  0  0  0  0  0  0  0  0  0
  -30.6530  -17.9690   20.3360 C   0  0  0  0  0  0  0  0  0  0  0  0
  -30.6470  -16.5960   20.6940 C   0  0  0  0  0  0  0  0  0  0  0  0
  -30.9310  -17.1860   23.0460 C   0  0  0  0  0  0  0  0  0  0  0  0
  -30.5650  -18.3900   18.8660 C   0  0  0  0  0  1  0  0  0  0  0  0
  -31.0610  -16.8120   24.3410 F   0  0  0  0  0  0  0  0  0  0  0  0
  -31.1590  -14.5640   19.4560 C   0  0  0  0  0  0  0  0  0  0  0  0
  -30.7470  -12.3400   18.4930 C   0  0  0  0  0  2  0  0  0  0  0  0
  -29.6780  -12.4790   17.3880 C   0  0  0  0  0  2  0  0  0  0  0  0
  -28.2600  -12.3840   17.9840 C   0  0  0  0  0  2  0  0  0  0  0  0
  -28.0590  -13.3090   19.2140 C   0  0  0  0  0  3  0  0  0  0  0  0
  -29.2280  -13.1510   20.2120 C   0  0  0  0  0  2  0  0  0  0  0  0
  -30.4820  -13.3890   19.4810 N   0  0  0  0  0  0  0  0  0  0  0  0
  -32.2440  -14.7210   18.8930 O   0  0  0  0  0  0  0  0  0  0  0  0
  -30.3850  -15.6230   19.7070 N   0  0  0  0  0  0  0  0  0  0  0  0
  -30.0200  -16.0110   18.8520 H   0  0  0  0  0  0  0  0  0  0  0  0
  -25.8140  -14.0030   20.2670 C   0  0  0  0  0  0  0  0  0  0  0  0
  -24.7560  -13.2670   20.7300 C   0  0  0  0  0  0  0  0  0  0  0  0
  -25.1250  -11.8970   20.5630 C   0  0  0  0  0  0  0  0  0  0  0  0
  -26.7640  -13.0830   19.8520 N   0  0  0  0  0  0  0  0  0  0  0  0
  -26.3600  -11.8080   20.0860 N   0  0  0  0  0  0  0  0  0  0  0  0
  -24.3570  -10.6660   20.7790 C   0  0  0  0  0  0  0  0  0  0  0  0
  -24.7650   -9.6960   21.7210 C   0  0  0  0  0  3  0  0  0  0  0  0
  -23.9990   -8.5280   21.9220 C   0  0  0  0  0  3  0  0  0  0  0  0
  -22.8110   -8.3210   21.1820 C   0  0  0  0  0  0  0  0  0  0  0  0
  -22.4210   -9.2800   20.2300 C   0  0  0  0  0  3  0  0  0  0  0  0
  -23.1870  -10.4390   20.0270 C   0  0  0  0  0  3  0  0  0  0  0  0
  -22.0190   -7.2040   21.2920 O   0  0  0  0  0  0  0  0  0  0  0  0
  -21.7500   -6.6300   22.5080 C   0  0  0  0  0  0  0  0  0  0  0  0
  -21.1550   -7.3570   23.5620 C   0  0  0  0  0  3  0  0  0  0  0  0
  -20.8310   -6.7090   24.7700 C   0  0  0  0  0  3  0  0  0  0  0  0
  -21.0950   -5.3350   24.9250 C   0  0  0  0  0  0  0  0  0  0  0  0
  -21.6840   -4.6080   23.8770 C   0  0  0  0  0  3  0  0  0  0  0  0
  -22.0080   -5.2540   22.6700 C   0  0  0  0  0  0  0  0  0  0  0  0
  -22.5570   -4.5440   21.6550 F   0  0  0  0  0  0  0  0  0  0  0  0
  -20.7780   -4.7110   26.0840 F   0  0  0  0  0  0  0  0  0  0  0  0
  -23.4380  -13.8000   21.2150 C   0  0  0  0  0  0  0  0  0  0  0  0
  -22.8430  -13.1520   22.2100 N   0  0  0  0  0  0  0  0  0  0  0  0
  -22.9490  -14.8260   20.7440 O   0  0  0  0  0  0  0  0  0  0  0  0
  -23.2500  -12.3190   22.6120 H   0  0  0  0  0  0  0  0  0  0  0  0
  -21.9650  -13.4930   22.5760 H   0  0  0  0  0  0  0  0  0  0  0  0
  -26.0410  -15.3710   20.1480 N   0  0  0  0  0  0  0  0  0  0  0  0
  -26.8900  -15.7780   19.7740 H   0  0  0  0  0  0  0  0  0  0  0  0
  -25.3550  -16.0640   20.4220 H   0  0  0  0  0  0  0  0  0  0  0  0
  3  2  1  0
  3  4  1  0
  3  1  1  0
  5  7  1  0
  5  4  1  0
  6  5  2  0
  8 10  1  0
  8  7  1  0
  9 20  2  0
 10 15  1  0
 11 19  1  0
 11 21  1  0
 12 18  1  0
 12 14  1  0
 13 19  1  0
 14 13  1  0
 15 14  2  0
 16 17  1  0
 16 10  2  0
 17 12  2  0
 18 11  1  0
 19  9  1  0
 21 23  2  0
 22 21  1  0
 24 22  1  0
 25 34  2  0
 25 30  1  0
 26 22  1  0
 26 30  1  0
 27 26  1  0
 28 29  1  0
 28 27  1  0
 29 25  1  0
 30 31  2  0
 31 32  1  0
 33 32  2  0
 34 33  1  0
 35  9  1  0
 35 36  1  0
 35 45  1  0
 36 39  1  0
 37 41  1  0
 37 36  1  0
 38 37  2  0
 41 40  1  0
 43 44  1  0
 43 41  1  0
 43 42  1  0
 45 48  1  1
 45 46  1  0
 47 45  1  0
 49  1  1  0
 49 52  1  0
 50 55  1  0
 51 55  2  0
 52 50  2  0
 53 54  2  0
 53 52  1  0
 54 51  1  0
 55 57  1  0
 56 53  1  0
 58 64  1  0
 58 66  1  0
 59 64  1  0
 60 61  1  0
 60 59  1  0
 62 61  1  0
 62 71  1  0
 62 63  1  0
 64 63  1  0
 65 58  2  0
 66 54  1  0
 67 66  1  0
 68 69  2  0
 69 88  1  0
 70 69  1  0
 70 73  1  0
 71 72  1  0
 71 68  1  0
 72 70  2  0
 73 74  1  0
 74 75  2  0
 76 79  1  0
 76 75  1  0
 77 76  2  0
 78 77  1  0
 78 73  2  0
 79 80  1  0
 80 85  2  0
 80 81  1  0
 81 82  2  0
 82 83  1  0
 83 87  1  0
 84 83  2  0
 85 84  1  0
 86 85  1  0
 88 89  1  0
 89 92  1  0
 89 91  1  0
 90 88  2  0
 93 68  1  0
 93 95  1  0
 94 93  1  0
M  ISO  4   7 101   8 101  58 100  66 100
M  END
>  <TORSDO>  (21) 
F 22

>  <SCORE>  (21) 
-10.357

>  <name>  (21) 
20

>  <ligand_id>  (21) 
20

>  <original_smiles>  (21) 
[H]c1c([H])c([H])c2c(c1[H])C([H])([H])C([H])([H])C([H])([H])C2([H])N([H])C(=O)C1([H])N(C(=O)C([H])(N([H])C(=O)C([H])(N([H])C([H])([H])[H])C([H])([H])[H])C(C([H])([H])[H])(C([H])([H])[H])C([H])([H])[H])C([H])([H])c2c([H])c(OC([H])([H])C(=O)C([H])([H])C([H])(C([H])([H])[H])C([H])([H])C([H])([H])c3c([H])c(F)c([H])c(N([H])C(=O)N4C([H])([H])C([H])([H])C([H])([H])C([H])(n5nc(-c6c([H])c([H])c(Oc7c([H])c([H])c(F)c([H])c7F)c([H])c6[H])c(C(=O)N([H])[H])c5N([H])[H])C4([H])[H])c3C([H])([H])[H])c([H])c([H])c2C1([H])[H]

>  <smiles>  (21) 
[H]c1c([H])c([H])c2c(c1[H])C([H])([H])C([H])([H])C([H])([H])C2([H])N([H])C(=O)C1([H])N(C(=O)C([H])(N([H])C(=O)C([H])(N([H])C([H])([H])[H])C([H])([H])[H])C(C([H])([H])[H])(C([H])([H])[H])C([H])([H])[H])C([H])([H])c2c([H])c(OC([H])([H])C(=O)C([H])([H])C([H])(C([H])([H])[H])C([H])([H])C([H])([H])c3c([H])c(F)c([H])c(N([H])C(=O)N4C([H])([H])C([H])([H])C([H])([H])C([H])(n5nc(-c6c([H])c([H])c(Oc7c([H])c([H])c(F)c([H])c7F)c([H])c6[H])c(C(=O)N([H])[H])c5N([H])[H])C4([H])[H])c3C([H])([H])[H])c([H])c([H])c2C1([H])[H]

$$$$
21:0:0
     RDKit          3D

 94103  0  0  1  0  0  0  0  0999 V2000
  -30.9460  -17.5940   21.9170 C   0  0  0  0  0  3  0  0  0  0  0  0
  -30.4240  -19.9800   21.6550 C   0  0  0  0  0  3  0  0  0  0  0  0
  -29.8490  -18.3980   19.9050 C   0  0  0  0  0  3  0  0  0  0  0  0
  -30.9280  -18.9110   22.4320 C   0  0  0  0  0  0  0  0  0  0  0  0
  -30.4410  -17.2830   20.6360 C   0  0  0  0  0  0  0  0  0  0  0  0
  -29.8150  -19.7700   20.3960 C   0  0  0  0  0  0  0  0  0  0  0  0
  -31.1510  -14.7500   20.3540 C   0  0  0  0  0  0  0  0  0  0  0  0
  -30.9990  -12.3650   19.5920 C   0  0  0  0  0  2  0  0  0  0  0  0
  -30.0910  -12.2500   18.3440 C   0  0  0  0  0  2  0  0  0  0  0  0
  -28.6060  -12.1510   18.7470 C   0  0  0  0  0  2  0  0  0  0  0  0
  -28.2030  -13.2020   19.8130 C   0  0  0  0  0  3  0  0  0  0  0  0
  -29.2180  -13.2470   20.9750 C   0  0  0  0  0  2  0  0  0  0  0  0
  -30.5340  -13.5210   20.3860 N   0  0  0  0  0  0  0  0  0  0  0  0
  -32.3580  -14.8380   20.0950 O   0  0  0  0  0  0  0  0  0  0  0  0
  -30.3040  -15.8480   20.2950 N   0  0  0  0  0  0  0  0  0  0  0  0
  -29.3440  -15.5460   20.2680 H   0  0  0  0  0  0  0  0  0  0  0  0
  -25.8690  -13.9580   20.5610 C   0  0  0  0  0  0  0  0  0  0  0  0
  -24.7470  -13.2560   20.9030 C   0  0  0  0  0  0  0  0  0  0  0  0
  -25.1000  -11.8760   20.8220 C   0  0  0  0  0  0  0  0  0  0  0  0
  -26.8400  -13.0070   20.2900 N   0  0  0  0  0  0  0  0  0  0  0  0
  -26.3870  -11.7480   20.5160 N   0  0  0  0  0  0  0  0  0  0  0  0
  -24.2810  -10.6660   20.9680 C   0  0  0  0  0  0  0  0  0  0  0  0
  -24.6010   -9.6660   21.9120 C   0  0  0  0  0  3  0  0  0  0  0  0
  -23.7890   -8.5200   22.0400 C   0  0  0  0  0  3  0  0  0  0  0  0
  -22.6440   -8.3650   21.2230 C   0  0  0  0  0  0  0  0  0  0  0  0
  -22.3420   -9.3550   20.2710 C   0  0  0  0  0  3  0  0  0  0  0  0
  -23.1540  -10.4950   20.1420 C   0  0  0  0  0  3  0  0  0  0  0  0
  -21.8150   -7.2710   21.2590 O   0  0  0  0  0  0  0  0  0  0  0  0
  -21.6380   -6.5390   22.4060 C   0  0  0  0  0  0  0  0  0  0  0  0
  -21.0890   -7.1080   23.5750 C   0  0  0  0  0  3  0  0  0  0  0  0
  -20.8610   -6.3040   24.7100 C   0  0  0  0  0  3  0  0  0  0  0  0
  -21.1710   -4.9320   24.6750 C   0  0  0  0  0  0  0  0  0  0  0  0
  -21.7060   -4.3610   23.5080 C   0  0  0  0  0  3  0  0  0  0  0  0
  -21.9390   -5.1630   22.3750 C   0  0  0  0  0  0  0  0  0  0  0  0
  -22.4400   -4.6030   21.2480 F   0  0  0  0  0  0  0  0  0  0  0  0
  -20.9420   -4.1560   25.7600 F   0  0  0  0  0  0  0  0  0  0  0  0
  -23.3860  -13.8350   21.1790 C   0  0  0  0  0  0  0  0  0  0  0  0
  -22.6090  -13.1900   22.0400 N   0  0  0  0  0  0  0  0  0  0  0  0
  -23.0230  -14.8910   20.6650 O   0  0  0  0  0  0  0  0  0  0  0  0
  -22.9080  -12.3370   22.4880 H   0  0  0  0  0  0  0  0  0  0  0  0
  -21.6960  -13.5630   22.2630 H   0  0  0  0  0  0  0  0  0  0  0  0
  -26.1330  -15.3170   20.4210 N   0  0  0  0  0  0  0  0  0  0  0  0
  -25.3990  -16.0120   20.5290 H   0  0  0  0  0  0  0  0  0  0  0  0
  -26.9740  -15.6970   20.0080 H   0  0  0  0  0  0  0  0  0  0  0  0
  -30.3080  -19.4750   24.8770 C   0  0  0  0  0  2  0  0  0  0  0  0
  -31.4160  -20.4570   24.5770 C   0  0  0  0  0  2  0  0  0  0  0  0
  -31.3670  -19.1200   23.8560 C   0  0  0  0  0  3  0  0  0  0  0  0
  -29.2070  -20.8600   19.7020 O   0  0  0  0  0  0  0  0  0  0  0  0
  -28.7600  -22.1170   20.3890 C   0  0  0  0  0  2  0  0  0  0  0  0
  -28.1500  -23.3730   19.5460 C   0  0  0  0  0  3  0  0  0  0  0  0
  -26.6790  -21.6150   18.2390 C   0  0  0  0  0  1  0  0  0  0  0  0
  -26.7690  -22.9980   18.9170 C   0  0  0  0  0  2  0  0  0  0  0  0
  -28.0090  -24.8130   20.3120 C   0  0  0  0  0  2  0  0  0  0  0  0
  -28.1850  -26.1730   19.6780 O   0  0  0  0  0  0  0  0  0  0  0  0
  -24.5050  -31.5600   22.9000 C   0  0  0  0  0  0  0  0  0  0  0  0
  -27.1080  -27.0800   19.6970 C   0  0  0  0  0  0  0  0  0  0  0  0
  -23.3080  -30.2200   21.2110 C   0  0  0  0  0  3  0  0  0  0  0  0
  -24.7670  -28.7340   19.7180 C   0  0  0  0  0  0  0  0  0  0  0  0
  -25.8450  -30.5450   21.0400 C   0  0  0  0  0  2  0  0  0  0  0  0
  -25.9330  -29.1840   20.3510 C   0  0  0  0  0  0  0  0  0  0  0  0
  -27.1110  -28.3690   20.3290 C   0  0  0  0  0  3  0  0  0  0  0  0
  -25.9260  -26.7020   19.0350 C   0  0  0  0  0  3  0  0  0  0  0  0
  -24.7720  -27.5070   19.0400 C   0  0  0  0  0  3  0  0  0  0  0  0
  -23.5270  -29.6060   19.8030 C   0  0  0  0  0  2  0  0  0  0  0  0
  -24.5720  -30.7920   21.7750 N   0  0  0  0  0  0  0  0  0  0  0  0
  -23.4210  -31.8070   23.4520 O   0  0  0  0  0  0  0  0  0  0  0  0
  -22.6570  -29.1580   22.1320 C   0  0  0  0  0  0  0  0  0  0  0  0
  -21.3190  -29.0330   22.0620 N   0  0  0  0  0  0  0  0  0  0  0  0
  -23.3520  -28.4570   22.8720 O   0  0  0  0  0  0  0  0  0  0  0  0
  -20.8140  -29.6730   21.4650 H   0  0  0  0  0  0  0  0  0  0  0  0
  -17.9220  -27.9610   22.6980 C   0  0  0  0  0  0  0  0  0  0  0  0
  -20.5060  -28.0630   22.7970 C   0  0  0  0  0  3  0  0  0  0  0  0
  -20.4810  -26.6900   22.0840 C   0  0  0  0  0  2  0  0  0  0  0  0
  -19.2960  -26.5290   21.1270 C   0  0  0  0  0  2  0  0  0  0  0  0
  -17.9740  -26.6740   21.8880 C   0  0  0  0  0  2  0  0  0  0  0  0
  -19.1110  -28.6200   23.1080 C   0  0  0  0  0  0  0  0  0  0  0  0
  -19.0100  -29.8320   23.8260 C   0  0  0  0  0  3  0  0  0  0  0  0
  -17.7530  -30.3860   24.1330 C   0  0  0  0  0  3  0  0  0  0  0  0
  -16.5780  -29.7220   23.7380 C   0  0  0  0  0  3  0  0  0  0  0  0
  -16.6660  -28.5080   23.0280 C   0  0  0  0  0  3  0  0  0  0  0  0
  -25.7840  -32.1770   23.5470 C   0  0  0  0  0  3  0  0  0  0  0  0
  -25.4280  -33.5060   24.0620 N   0  0  0  0  0  0  0  0  0  0  0  0
  -25.6520  -34.6600   23.4130 C   0  0  0  0  0  0  0  0  0  0  0  0
  -26.2500  -34.7140   22.3380 O   0  0  0  0  0  0  0  0  0  0  0  0
  -24.8890  -33.5260   24.9130 H   0  0  0  0  0  0  0  0  0  0  0  0
  -23.8030  -36.3660   23.3990 C   0  0  0  0  0  1  0  0  0  0  0  0
  -25.1270  -35.9570   24.0640 C   0  0  0  0  0  3  0  0  0  0  0  0
  -27.2660  -36.8880   24.8360 C   0  0  0  0  0  1  0  0  0  0  0  0
  -26.0870  -37.0820   23.9940 N   0  0  0  0  0  0  0  0  0  0  0  0
  -25.6440  -37.9550   24.2670 H   0  0  0  0  0  0  0  0  0  0  0  0
  -26.3840  -31.2800   24.7010 C   0  0  1  0  0  0  0  0  0  0  0  0
  -25.3360  -30.8460   25.7530 C   0  0  0  0  0  1  0  0  0  0  0  0
  -27.0300  -30.0060   24.1100 C   0  0  0  0  0  1  0  0  0  0  0  0
  -27.5070  -32.0500   25.4320 C   0  0  0  0  0  1  0  0  0  0  0  0
  1  4  1  0
  2  4  2  0
  3  6  2  0
  3  5  1  0
  4 47  1  0
  5  1  2  0
  6  2  1  0
  7 13  1  0
  8 13  1  0
  9 10  1  0
  9  8  1  0
 11 10  1  0
 11 20  1  0
 11 12  1  0
 13 12  1  0
 14  7  2  0
 15  7  1  0
 15  5  1  0
 16 15  1  0
 17 18  2  0
 18 37  1  0
 19 18  1  0
 19 22  1  0
 20 21  1  0
 20 17  1  0
 21 19  2  0
 22 23  1  0
 23 24  2  0
 25 28  1  0
 25 24  1  0
 26 25  2  0
 27 26  1  0
 27 22  2  0
 28 29  1  0
 29 30  1  0
 30 31  2  0
 32 31  1  0
 32 36  1  0
 33 32  2  0
 34 29  2  0
 34 33  1  0
 35 34  1  0
 37 38  1  0
 38 41  1  0
 38 40  1  0
 39 37  2  0
 42 43  1  0
 42 17  1  0
 44 42  1  0
 46 45  1  0
 47 46  1  0
 47 45  1  0
 48 49  1  0
 48  6  1  0
 50 52  1  0
 50 53  1  0
 50 49  1  0
 51 52  1  0
 54 56  1  0
 54 53  1  0
 55 66  2  0
 56 61  1  0
 57 65  1  0
 57 67  1  0
 58 64  1  0
 58 60  1  0
 59 65  1  0
 60 59  1  0
 61 60  2  0
 62 63  1  0
 62 56  2  0
 63 58  2  0
 64 57  1  0
 65 55  1  0
 67 69  2  0
 68 67  1  0
 70 68  1  0
 71 80  2  0
 71 76  1  0
 72 68  1  0
 72 76  1  0
 73 72  1  0
 74 75  1  0
 74 73  1  0
 75 71  1  0
 76 77  2  0
 77 78  1  0
 79 78  2  0
 80 79  1  0
 81 55  1  0
 81 82  1  0
 81 91  1  0
 82 85  1  0
 83 82  1  0
 83 87  1  0
 84 83  2  0
 87 86  1  0
 89 87  1  0
 89 90  1  0
 89 88  1  0
 91 94  1  1
 91 92  1  0
 93 91  1  0
M  ISO  4   7 100  15 100  53 101  54 101
M  END
>  <TORSDO>  (22) 
F 22

>  <SCORE>  (22) 
-10.830

>  <name>  (22) 
21

>  <ligand_id>  (22) 
21

>  <original_smiles>  (22) 
[H]c1c([H])c([H])c2c(c1[H])C([H])([H])C([H])([H])C([H])([H])C2([H])N([H])C(=O)C1([H])N(C(=O)C([H])(N([H])C(=O)C([H])(N([H])C([H])([H])[H])C([H])([H])[H])C(C([H])([H])[H])(C([H])([H])[H])C([H])([H])[H])C([H])([H])c2c([H])c(OC([H])([H])C([H])(C([H])([H])Oc3c([H])c(N([H])C(=O)N4C([H])([H])C([H])([H])C([H])([H])C([H])(n5nc(-c6c([H])c([H])c(Oc7c([H])c([H])c(F)c([H])c7F)c([H])c6[H])c(C(=O)N([H])[H])c5N([H])[H])C4([H])[H])c([H])c(C4([H])C([H])([H])C4([H])[H])c3[H])C([H])([H])C([H])([H])[H])c([H])c([H])c2C1([H])[H]

>  <smiles>  (22) 
[H]c1c([H])c([H])c2c(c1[H])C([H])([H])C([H])([H])C([H])([H])C2([H])N([H])C(=O)C1([H])N(C(=O)C([H])(N([H])C(=O)C([H])(N([H])C([H])([H])[H])C([H])([H])[H])C(C([H])([H])[H])(C([H])([H])[H])C([H])([H])[H])C([H])([H])c2c([H])c(OC([H])([H])C([H])(C([H])([H])Oc3c([H])c(N([H])C(=O)N4C([H])([H])C([H])([H])C([H])([H])C([H])(n5nc(-c6c([H])c([H])c(Oc7c([H])c([H])c(F)c([H])c7F)c([H])c6[H])c(C(=O)N([H])[H])c5N([H])[H])C4([H])[H])c([H])c(C4([H])C([H])([H])C4([H])[H])c3[H])C([H])([H])C([H])([H])[H])c([H])c([H])c2C1([H])[H]

$$$$
22:0:0
     RDKit          3D

 92100  0  0  1  0  0  0  0  0999 V2000
  -29.5350  -21.1440   20.7330 C   0  0  0  0  0  3  0  0  0  0  0  0
  -29.0850  -19.5730   18.7170 C   0  0  0  0  0  3  0  0  0  0  0  0
  -29.3550  -17.1320   18.7840 C   0  0  0  0  0  3  0  0  0  0  0  0
  -29.7190  -18.4650   20.7880 C   0  0  0  0  0  3  0  0  0  0  0  0
  -29.0300  -18.3130   18.0800 C   0  0  0  0  0  0  0  0  0  0  0  0
  -29.4320  -19.6990   20.0800 C   0  0  0  0  0  0  0  0  0  0  0  0
  -29.7060  -17.1600   20.1530 C   0  0  0  0  0  0  0  0  0  0  0  0
  -28.5940  -18.2290   16.6250 C   0  0  0  0  0  1  0  0  0  0  0  0
  -30.6140  -14.7780   20.4220 C   0  0  0  0  0  0  0  0  0  0  0  0
  -30.4200  -12.5220   19.3900 C   0  0  0  0  0  2  0  0  0  0  0  0
  -29.5040  -12.6300   18.1500 C   0  0  0  0  0  2  0  0  0  0  0  0
  -28.0230  -12.4670   18.5470 C   0  0  0  0  0  2  0  0  0  0  0  0
  -27.6370  -13.3400   19.7730 C   0  0  0  0  0  3  0  0  0  0  0  0
  -28.6730  -13.2110   20.9120 C   0  0  0  0  0  2  0  0  0  0  0  0
  -29.9920  -13.5540   20.3620 N   0  0  0  0  0  0  0  0  0  0  0  0
  -31.7690  -14.9120   20.0060 O   0  0  0  0  0  0  0  0  0  0  0  0
  -29.8850  -15.8710   20.8420 N   0  0  0  0  0  0  0  0  0  0  0  0
  -29.1200  -15.6260   21.4550 H   0  0  0  0  0  0  0  0  0  0  0  0
  -25.2310  -13.9310   20.4470 C   0  0  0  0  0  0  0  0  0  0  0  0
  -24.1600  -13.1580   20.8030 C   0  0  0  0  0  0  0  0  0  0  0  0
  -24.6270  -11.8070   20.7880 C   0  0  0  0  0  0  0  0  0  0  0  0
  -26.2830  -13.0550   20.2360 N   0  0  0  0  0  0  0  0  0  0  0  0
  -25.9250  -11.7720   20.5040 N   0  0  0  0  0  0  0  0  0  0  0  0
  -23.9020  -10.5430   20.9760 C   0  0  0  0  0  0  0  0  0  0  0  0
  -24.3200   -9.5840   21.9240 C   0  0  0  0  0  3  0  0  0  0  0  0
  -23.5940   -8.3860   22.0980 C   0  0  0  0  0  3  0  0  0  0  0  0
  -22.4360   -8.1360   21.3230 C   0  0  0  0  0  0  0  0  0  0  0  0
  -22.0360   -9.0840   20.3660 C   0  0  0  0  0  3  0  0  0  0  0  0
  -22.7620  -10.2750   20.1900 C   0  0  0  0  0  3  0  0  0  0  0  0
  -21.6830   -6.9900   21.4070 O   0  0  0  0  0  0  0  0  0  0  0  0
  -21.6160   -6.2570   22.5640 C   0  0  0  0  0  0  0  0  0  0  0  0
  -21.1600   -6.8180   23.7770 C   0  0  0  0  0  3  0  0  0  0  0  0
  -21.0400   -6.0090   24.9260 C   0  0  0  0  0  3  0  0  0  0  0  0
  -21.3620   -4.6400   24.8620 C   0  0  0  0  0  0  0  0  0  0  0  0
  -21.8080   -4.0780   23.6530 C   0  0  0  0  0  3  0  0  0  0  0  0
  -21.9300   -4.8850   22.5060 C   0  0  0  0  0  0  0  0  0  0  0  0
  -22.3400   -4.3320   21.3390 F   0  0  0  0  0  0  0  0  0  0  0  0
  -21.2410   -3.8620   25.9630 F   0  0  0  0  0  0  0  0  0  0  0  0
  -22.7550  -13.6310   21.0460 C   0  0  0  0  0  0  0  0  0  0  0  0
  -22.0120  -12.9360   21.9020 N   0  0  0  0  0  0  0  0  0  0  0  0
  -22.3230  -14.6490   20.5090 O   0  0  0  0  0  0  0  0  0  0  0  0
  -22.3740  -12.1180   22.3670 H   0  0  0  0  0  0  0  0  0  0  0  0
  -21.0640  -13.2310   22.0950 H   0  0  0  0  0  0  0  0  0  0  0  0
  -25.3960  -15.3000   20.2610 N   0  0  0  0  0  0  0  0  0  0  0  0
  -24.6300  -15.9570   20.3600 H   0  0  0  0  0  0  0  0  0  0  0  0
  -26.2550  -15.7400   19.9580 H   0  0  0  0  0  0  0  0  0  0  0  0
  -28.7920  -22.4240   20.0820 C   0  0  0  0  0  3  0  0  0  0  0  0
  -30.4840  -24.3580   20.1710 C   0  0  0  0  0  1  0  0  0  0  0  0
  -28.9730  -23.9500   22.1420 C   0  0  0  0  0  1  0  0  0  0  0  0
  -29.0700  -23.9320   20.6040 C   0  0  2  0  0  0  0  0  0  0  0  0
  -28.0690  -25.0540   20.0390 C   0  0  0  0  0  2  0  0  0  0  0  0
  -28.2850  -26.5050   20.3280 O   0  0  0  0  0  0  0  0  0  0  0  0
  -24.6060  -31.9810   23.2860 C   0  0  0  0  0  0  0  0  0  0  0  0
  -27.1880  -27.3850   20.2470 C   0  0  0  0  0  0  0  0  0  0  0  0
  -23.3970  -30.5820   21.6500 C   0  0  0  0  0  3  0  0  0  0  0  0
  -24.8390  -29.0260   20.2250 C   0  0  0  0  0  0  0  0  0  0  0  0
  -25.9370  -30.8880   21.4670 C   0  0  0  0  0  2  0  0  0  0  0  0
  -26.0110  -29.5070   20.8240 C   0  0  0  0  0  0  0  0  0  0  0  0
  -27.1880  -28.6960   20.8270 C   0  0  0  0  0  3  0  0  0  0  0  0
  -25.9950  -26.9760   19.6060 C   0  0  0  0  0  3  0  0  0  0  0  0
  -24.8340  -27.7670   19.6090 C   0  0  0  0  0  3  0  0  0  0  0  0
  -23.6080  -29.9060   20.2700 C   0  0  0  0  0  2  0  0  0  0  0  0
  -24.6660  -31.1660   22.1910 N   0  0  0  0  0  0  0  0  0  0  0  0
  -23.5230  -32.2660   23.8170 O   0  0  0  0  0  0  0  0  0  0  0  0
  -22.7290  -29.5710   22.6120 C   0  0  0  0  0  0  0  0  0  0  0  0
  -21.4030  -29.3930   22.4780 N   0  0  0  0  0  0  0  0  0  0  0  0
  -23.4020  -28.9500   23.4390 O   0  0  0  0  0  0  0  0  0  0  0  0
  -20.9200  -29.9450   21.7850 H   0  0  0  0  0  0  0  0  0  0  0  0
  -18.0220  -28.2030   22.9640 C   0  0  0  0  0  0  0  0  0  0  0  0
  -20.5790  -28.4600   23.2490 C   0  0  0  0  0  3  0  0  0  0  0  0
  -20.6840  -27.0250   22.6820 C   0  0  0  0  0  2  0  0  0  0  0  0
  -19.5880  -26.6980   21.6630 C   0  0  0  0  0  2  0  0  0  0  0  0
  -18.2010  -26.8490   22.2960 C   0  0  0  0  0  2  0  0  0  0  0  0
  -19.1390  -28.9660   23.3960 C   0  0  0  0  0  0  0  0  0  0  0  0
  -18.9180  -30.2310   23.9810 C   0  0  0  0  0  3  0  0  0  0  0  0
  -17.6130  -30.7360   24.1360 C   0  0  0  0  0  3  0  0  0  0  0  0
  -16.5100  -29.9700   23.7190 C   0  0  0  0  0  3  0  0  0  0  0  0
  -16.7150  -28.7050   23.1390 C   0  0  0  0  0  3  0  0  0  0  0  0
  -25.8910  -32.6080   23.9070 C   0  0  0  0  0  3  0  0  0  0  0  0
  -26.4020  -31.8330   25.1830 C   0  0  1  0  0  0  0  0  0  0  0  0
  -25.3030  -31.5950   26.2450 C   0  0  0  0  0  1  0  0  0  0  0  0
  -26.9840  -30.4560   24.7900 C   0  0  0  0  0  1  0  0  0  0  0  0
  -27.5510  -32.6240   25.8520 C   0  0  0  0  0  1  0  0  0  0  0  0
  -25.5850  -34.0070   24.2400 N   0  0  0  0  0  0  0  0  0  0  0  0
  -25.9060  -35.0600   23.4740 C   0  0  0  0  0  0  0  0  0  0  0  0
  -26.5600  -34.9550   22.4330 O   0  0  0  0  0  0  0  0  0  0  0  0
  -25.0020  -34.1620   25.0500 H   0  0  0  0  0  0  0  0  0  0  0  0
  -24.1640  -36.8430   23.1510 C   0  0  0  0  0  1  0  0  0  0  0  0
  -25.4250  -36.4490   23.9360 C   0  0  0  0  0  3  0  0  0  0  0  0
  -27.5760  -37.3420   24.7140 C   0  0  0  0  0  1  0  0  0  0  0  0
  -26.4510  -37.5060   23.7960 N   0  0  0  0  0  0  0  0  0  0  0  0
  -26.0460  -38.4240   23.9520 H   0  0  0  0  0  0  0  0  0  0  0  0
  2  6  1  0
  3  7  2  0
  5  2  2  0
  5  3  1  0
  6  1  1  0
  6  4  2  0
  7  4  1  0
  7 17  1  0
  8  5  1  0
  9 17  1  0
 10 15  1  0
 11 12  1  0
 11 10  1  0
 13 12  1  0
 13 22  1  0
 13 14  1  0
 15  9  1  0
 15 14  1  0
 16  9  2  0
 17 18  1  0
 19 20  2  0
 20 39  1  0
 21 20  1  0
 21 24  1  0
 22 19  1  0
 22 23  1  0
 23 21  2  0
 24 25  1  0
 25 26  2  0
 27 30  1  0
 27 26  1  0
 28 27  2  0
 29 28  1  0
 29 24  2  0
 30 31  1  0
 31 32  1  0
 32 33  2  0
 34 33  1  0
 34 38  1  0
 35 34  2  0
 36 31  2  0
 36 35  1  0
 37 36  1  0
 39 40  1  0
 40 43  1  0
 40 42  1  0
 41 39  2  0
 44 45  1  0
 44 19  1  0
 46 44  1  0
 47 50  1  0
 47  1  2  0
 50 48  1  1
 50 49  1  0
 51 52  1  0
 51 50  1  0
 53 64  2  0
 54 52  1  0
 54 59  1  0
 55 63  1  0
 55 65  1  0
 56 62  1  0
 56 58  1  0
 57 63  1  0
 58 59  2  0
 58 57  1  0
 60 61  1  0
 60 54  2  0
 61 56  2  0
 62 55  1  0
 63 53  1  0
 65 67  2  0
 66 65  1  0
 68 66  1  0
 69 78  2  0
 69 74  1  0
 70 66  1  0
 70 74  1  0
 71 70  1  0
 72 73  1  0
 72 71  1  0
 73 69  1  0
 74 75  2  0
 75 76  1  0
 77 76  2  0
 78 77  1  0
 79 53  1  0
 79 84  1  0
 79 80  1  0
 80 83  1  1
 80 81  1  0
 82 80  1  0
 84 87  1  0
 85 89  1  0
 85 84  1  0
 86 85  2  0
 89 88  1  0
 91 89  1  0
 91 92  1  0
 91 90  1  0
M  ISO  4   9 100  17 100  51 101  52 101
M  END
>  <TORSDO>  (23) 
F 20

>  <SCORE>  (23) 
-13.712

>  <name>  (23) 
22

>  <ligand_id>  (23) 
22

>  <original_smiles>  (23) 
[H]c1c([H])c([H])c2c(c1[H])C([H])([H])C([H])([H])C([H])([H])C2([H])N([H])C(=O)C1([H])N(C(=O)C([H])(N([H])C(=O)C([H])(N([H])C([H])([H])[H])C([H])([H])[H])C(C([H])([H])[H])(C([H])([H])[H])C([H])([H])[H])C([H])([H])c2c([H])c(OC([H])([H])C(C([H])([H])[H])(C([H])([H])[H])C([H])([H])C([H])([H])c3c([H])c(N([H])C(=O)N4C([H])([H])C([H])([H])C([H])([H])C([H])(n5nc(-c6c([H])c([H])c(Oc7c([H])c([H])c(F)c([H])c7F)c([H])c6[H])c(C(=O)N([H])[H])c5N([H])[H])C4([H])[H])c([H])c(C([H])([H])[H])c3[H])c([H])c([H])c2C1([H])[H]

>  <smiles>  (23) 
[H]c1c([H])c([H])c2c(c1[H])C([H])([H])C([H])([H])C([H])([H])C2([H])N([H])C(=O)C1([H])N(C(=O)C([H])(N([H])C(=O)C([H])(N([H])C([H])([H])[H])C([H])([H])[H])C(C([H])([H])[H])(C([H])([H])[H])C([H])([H])[H])C([H])([H])c2c([H])c(OC([H])([H])C(C([H])([H])[H])(C([H])([H])[H])C([H])([H])C([H])([H])c3c([H])c(N([H])C(=O)N4C([H])([H])C([H])([H])C([H])([H])C([H])(n5nc(-c6c([H])c([H])c(Oc7c([H])c([H])c(F)c([H])c7F)c([H])c6[H])c(C(=O)N([H])[H])c5N([H])[H])C4([H])[H])c([H])c(C([H])([H])[H])c3[H])c([H])c([H])c2C1([H])[H]

$$$$
23:0:0
     RDKit          3D

 93101  0  0  1  0  0  0  0  0999 V2000
  -30.8080  -20.1730   22.0410 C   0  0  0  0  0  3  0  0  0  0  0  0
  -30.9660  -18.7410   21.9130 C   0  0  0  0  0  3  0  0  0  0  0  0
  -29.8720  -20.3020   19.8790 C   0  0  0  0  0  3  0  0  0  0  0  0
  -30.2260  -21.0390   21.0540 C   0  0  0  0  0  0  0  0  0  0  0  0
  -30.0090  -18.8560   19.7400 C   0  0  0  0  0  0  0  0  0  0  0  0
  -30.5500  -17.9960   20.7690 C   0  0  0  0  0  0  0  0  0  0  0  0
  -31.2720  -15.3630   20.5720 C   0  0  0  0  0  0  0  0  0  0  0  0
  -31.1000  -13.1010   19.4590 C   0  0  0  0  0  2  0  0  0  0  0  0
  -30.1870  -13.2230   18.2160 C   0  0  0  0  0  2  0  0  0  0  0  0
  -28.7030  -13.0640   18.5990 C   0  0  0  0  0  2  0  0  0  0  0  0
  -28.3190  -13.9030   19.8460 C   0  0  0  0  0  3  0  0  0  0  0  0
  -29.3480  -13.7400   20.9830 C   0  0  0  0  0  2  0  0  0  0  0  0
  -30.6580  -14.1250   20.4390 N   0  0  0  0  0  0  0  0  0  0  0  0
  -32.4800  -15.4570   20.3340 O   0  0  0  0  0  0  0  0  0  0  0  0
  -30.4340  -16.4830   20.7450 N   0  0  0  0  0  0  0  0  0  0  0  0
  -29.4730  -16.1810   20.7880 H   0  0  0  0  0  0  0  0  0  0  0  0
  -25.9400  -14.5380   20.5610 C   0  0  0  0  0  0  0  0  0  0  0  0
  -24.8400  -13.7860   20.8610 C   0  0  0  0  0  0  0  0  0  0  0  0
  -25.2590  -12.4230   20.7760 C   0  0  0  0  0  0  0  0  0  0  0  0
  -26.9580  -13.6370   20.2970 N   0  0  0  0  0  0  0  0  0  0  0  0
  -26.5540  -12.3550   20.4940 N   0  0  0  0  0  0  0  0  0  0  0  0
  -24.4850  -11.1800   20.8860 C   0  0  0  0  0  0  0  0  0  0  0  0
  -24.8030  -10.1920   21.8420 C   0  0  0  0  0  3  0  0  0  0  0  0
  -24.0280   -9.0160   21.9410 C   0  0  0  0  0  3  0  0  0  0  0  0
  -22.9210   -8.8220   21.0810 C   0  0  0  0  0  0  0  0  0  0  0  0
  -22.6250   -9.7980   20.1120 C   0  0  0  0  0  3  0  0  0  0  0  0
  -23.4020  -10.9640   20.0120 C   0  0  0  0  0  3  0  0  0  0  0  0
  -22.1270   -7.6990   21.0920 O   0  0  0  0  0  0  0  0  0  0  0  0
  -21.8780   -7.0020   22.2470 C   0  0  0  0  0  0  0  0  0  0  0  0
  -21.2200   -7.5940   23.3490 C   0  0  0  0  0  3  0  0  0  0  0  0
  -20.9200   -6.8220   24.4890 C   0  0  0  0  0  3  0  0  0  0  0  0
  -21.2690   -5.4590   24.5300 C   0  0  0  0  0  0  0  0  0  0  0  0
  -21.9200   -4.8670   23.4340 C   0  0  0  0  0  3  0  0  0  0  0  0
  -22.2220   -5.6360   22.2960 C   0  0  0  0  0  0  0  0  0  0  0  0
  -22.8310   -5.0540   21.2350 F   0  0  0  0  0  0  0  0  0  0  0  0
  -20.9720   -4.7150   25.6210 F   0  0  0  0  0  0  0  0  0  0  0  0
  -23.4530  -14.3000   21.1190 C   0  0  0  0  0  0  0  0  0  0  0  0
  -22.6810  -13.5980   21.9400 N   0  0  0  0  0  0  0  0  0  0  0  0
  -23.0660  -15.3600   20.6280 O   0  0  0  0  0  0  0  0  0  0  0  0
  -23.0030  -12.7380   22.3580 H   0  0  0  0  0  0  0  0  0  0  0  0
  -21.7510  -13.9300   22.1560 H   0  0  0  0  0  0  0  0  0  0  0  0
  -26.1510  -15.9070   20.4630 N   0  0  0  0  0  0  0  0  0  0  0  0
  -25.3780  -16.5600   20.5410 H   0  0  0  0  0  0  0  0  0  0  0  0
  -26.9950  -16.3350   20.1160 H   0  0  0  0  0  0  0  0  0  0  0  0
  -29.9790  -22.6270   21.4140 C   0  0  0  0  0  2  0  0  0  0  0  0
  -30.5480  -24.1400   19.3780 C   0  0  0  0  0  1  0  0  0  0  0  0
  -28.1580  -23.5850   19.8490 C   0  0  0  0  0  1  0  0  0  0  0  0
  -29.5090  -23.9360   20.4950 C   0  0  1  0  0  0  0  0  0  0  0  0
  -29.2730  -25.4020   21.2770 C   0  0  0  0  0  2  0  0  0  0  0  0
  -29.2450  -26.8250   20.7040 O   0  0  0  0  0  0  0  0  0  0  0  0
  -24.8660  -32.0520   23.4490 C   0  0  0  0  0  0  0  0  0  0  0  0
  -28.0710  -27.6350   20.6570 C   0  0  0  0  0  0  0  0  0  0  0  0
  -23.9170  -30.5600   21.7300 C   0  0  0  0  0  3  0  0  0  0  0  0
  -25.6010  -29.1190   20.4340 C   0  0  0  0  0  0  0  0  0  0  0  0
  -26.4370  -31.0620   21.7510 C   0  0  0  0  0  2  0  0  0  0  0  0
  -26.6800  -29.6840   21.1260 C   0  0  0  0  0  0  0  0  0  0  0  0
  -27.9180  -28.9560   21.2210 C   0  0  0  0  0  3  0  0  0  0  0  0
  -26.9650  -27.1490   19.9330 C   0  0  0  0  0  3  0  0  0  0  0  0
  -25.7520  -27.8630   19.8240 C   0  0  0  0  0  3  0  0  0  0  0  0
  -24.2990  -29.9030   20.3780 C   0  0  0  0  0  2  0  0  0  0  0  0
  -25.0870  -31.2480   22.3670 N   0  0  0  0  0  0  0  0  0  0  0  0
  -23.7240  -32.2360   23.8960 O   0  0  0  0  0  0  0  0  0  0  0  0
  -23.2630  -29.4940   22.6420 C   0  0  0  0  0  0  0  0  0  0  0  0
  -21.9680  -29.2070   22.4150 N   0  0  0  0  0  0  0  0  0  0  0  0
  -23.9230  -28.9250   23.5150 O   0  0  0  0  0  0  0  0  0  0  0  0
  -21.4870  -29.7200   21.6900 H   0  0  0  0  0  0  0  0  0  0  0  0
  -18.6610  -27.7790   22.7020 C   0  0  0  0  0  0  0  0  0  0  0  0
  -21.1760  -28.2020   23.1300 C   0  0  0  0  0  3  0  0  0  0  0  0
  -21.4070  -26.7920   22.5400 C   0  0  0  0  0  2  0  0  0  0  0  0
  -20.3980  -26.4240   21.4490 C   0  0  0  0  0  2  0  0  0  0  0  0
  -18.9660  -26.4720   21.9890 C   0  0  0  0  0  2  0  0  0  0  0  0
  -19.6990  -28.6010   23.2170 C   0  0  0  0  0  0  0  0  0  0  0  0
  -19.3590  -29.8280   23.8290 C   0  0  0  0  0  3  0  0  0  0  0  0
  -18.0150  -30.2340   23.9290 C   0  0  0  0  0  3  0  0  0  0  0  0
  -16.9920  -29.4070   23.4310 C   0  0  0  0  0  3  0  0  0  0  0  0
  -17.3160  -28.1830   22.8230 C   0  0  0  0  0  3  0  0  0  0  0  0
  -26.0360  -32.7900   24.1670 C   0  0  0  0  0  3  0  0  0  0  0  0
  -25.6150  -34.1820   24.3940 N   0  0  0  0  0  0  0  0  0  0  0  0
  -25.9480  -35.2160   23.6100 C   0  0  0  0  0  0  0  0  0  0  0  0
  -26.7050  -35.1060   22.6430 O   0  0  0  0  0  0  0  0  0  0  0  0
  -24.9480  -34.3340   25.1350 H   0  0  0  0  0  0  0  0  0  0  0  0
  -24.1410  -36.8710   23.0310 C   0  0  0  0  0  1  0  0  0  0  0  0
  -25.3430  -36.5920   23.9500 C   0  0  0  0  0  3  0  0  0  0  0  0
  -27.3510  -37.6640   24.8740 C   0  0  0  0  0  1  0  0  0  0  0  0
  -26.3130  -37.7030   23.8480 N   0  0  0  0  0  0  0  0  0  0  0  0
  -25.8400  -38.6010   23.9050 H   0  0  0  0  0  0  0  0  0  0  0  0
  -26.4510  -32.1140   25.5320 C   0  0  1  0  0  0  0  0  0  0  0  0
  -25.2520  -31.7960   26.4560 C   0  0  0  0  0  1  0  0  0  0  0  0
  -27.2150  -30.7920   25.2800 C   0  0  0  0  0  1  0  0  0  0  0  0
  -27.4190  -33.0400   26.3050 C   0  0  0  0  0  1  0  0  0  0  0  0
  -29.5480  -18.2420   18.4230 C   0  0  0  0  0  2  0  0  0  0  0  0
  -27.7450  -18.1640   16.6190 C   0  0  0  0  0  1  0  0  0  0  0  0
  -28.1840  -18.7740   17.9550 C   0  0  0  0  0  2  0  0  0  0  0  0
  2  1  1  0
  3  4  1  0
  4 45  1  0
  4  1  2  0
  5  3  2  0
  5  6  1  0
  6  2  2  0
  7 15  1  0
  8 13  1  0
  9 10  1  0
  9  8  1  0
 11 10  1  0
 11 20  1  0
 11 12  1  0
 13  7  1  0
 13 12  1  0
 14  7  2  0
 15  6  1  0
 15 16  1  0
 17 18  2  0
 18 37  1  0
 19 18  1  0
 19 22  1  0
 20 21  1  0
 20 17  1  0
 21 19  2  0
 22 23  1  0
 23 24  2  0
 25 28  1  0
 25 24  1  0
 26 25  2  0
 27 26  1  0
 27 22  2  0
 28 29  1  0
 29 34  2  0
 29 30  1  0
 30 31  2  0
 31 32  1  0
 32 36  1  0
 33 32  2  0
 34 33  1  0
 35 34  1  0
 37 38  1  0
 38 41  1  0
 38 40  1  0
 39 37  2  0
 42 43  1  0
 42 17  1  0
 44 42  1  0
 48 46  1  6
 47 48  1  0
 48 49  1  0
 48 45  1  0
 50 49  1  0
 51 62  2  0
 52 50  1  0
 52 57  1  0
 53 61  1  0
 53 63  1  0
 54 56  1  0
 55 61  1  0
 56 57  2  0
 56 55  1  0
 58 52  2  0
 59 58  1  0
 59 54  2  0
 60 54  1  0
 60 53  1  0
 61 51  1  0
 63 65  2  0
 64 63  1  0
 66 64  1  0
 67 76  2  0
 67 72  1  0
 68 64  1  0
 68 72  1  0
 69 68  1  0
 70 71  1  0
 70 69  1  0
 71 67  1  0
 72 73  2  0
 73 74  1  0
 75 74  2  0
 76 75  1  0
 77 51  1  0
 77 78  1  0
 77 87  1  0
 78 81  1  0
 79 83  1  0
 79 78  1  0
 80 79  2  0
 83 82  1  0
 85 86  1  0
 85 83  1  0
 85 84  1  0
 87 90  1  1
 87 88  1  0
 89 87  1  0
 91  5  1  0
 92 93  1  0
 93 91  1  0
M  ISO  4   7 100  15 100  49 101  50 101
M  END
>  <TORSDO>  (24) 
F 21

>  <SCORE>  (24) 
-11.382

>  <name>  (24) 
23

>  <ligand_id>  (24) 
23

>  <original_smiles>  (24) 
[H]c1c([H])c([H])c2c(c1[H])C([H])([H])C([H])([H])C([H])([H])C2([H])N([H])C(=O)C1([H])N(C(=O)C([H])(N([H])C(=O)C([H])(N([H])C([H])([H])[H])C([H])([H])[H])C(C([H])([H])[H])(C([H])([H])[H])C([H])([H])[H])C([H])([H])c2c([H])c(OC([H])([H])C(C([H])([H])[H])(C([H])([H])[H])C([H])([H])c3c([H])c([H])c(N([H])C(=O)N4C([H])([H])C([H])([H])C([H])([H])C([H])(n5nc(-c6c([H])c([H])c(Oc7c([H])c([H])c(F)c([H])c7F)c([H])c6[H])c(C(=O)N([H])[H])c5N([H])[H])C4([H])[H])c(C([H])([H])C([H])([H])C([H])([H])[H])c3[H])c([H])c([H])c2C1([H])[H]

>  <smiles>  (24) 
[H]c1c([H])c([H])c2c(c1[H])C([H])([H])C([H])([H])C([H])([H])C2([H])N([H])C(=O)C1([H])N(C(=O)C([H])(N([H])C(=O)C([H])(N([H])C([H])([H])[H])C([H])([H])[H])C(C([H])([H])[H])(C([H])([H])[H])C([H])([H])[H])C([H])([H])c2c([H])c(OC([H])([H])C(C([H])([H])[H])(C([H])([H])[H])C([H])([H])c3c([H])c([H])c(N([H])C(=O)N4C([H])([H])C([H])([H])C([H])([H])C([H])(n5nc(-c6c([H])c([H])c(Oc7c([H])c([H])c(F)c([H])c7F)c([H])c6[H])c(C(=O)N([H])[H])c5N([H])[H])C4([H])[H])c(C([H])([H])C([H])([H])C([H])([H])[H])c3[H])c([H])c([H])c2C1([H])[H]

$$$$
24:0:0
     RDKit          3D

 91 99  0  0  1  0  0  0  0  0999 V2000
  -28.3670  -20.9660   20.6810 C   0  0  0  0  0  2  0  0  0  0  0  0
  -30.1920  -20.0480   19.1680 C   0  0  0  0  0  3  0  0  0  0  0  0
  -30.9030  -19.0150   18.5440 C   0  0  0  0  0  3  0  0  0  0  0  0
  -29.2120  -18.3940   20.6570 C   0  0  0  0  0  3  0  0  0  0  0  0
  -29.2950  -19.7750   20.2070 C   0  0  0  0  0  0  0  0  0  0  0  0
  -30.7450  -17.6590   18.9180 C   0  0  0  0  0  0  0  0  0  0  0  0
  -29.9550  -17.2940   20.0540 C   0  0  0  0  0  0  0  0  0  0  0  0
  -31.3570  -16.6540   17.9590 C   0  0  0  0  0  1  0  0  0  0  0  0
  -30.6000  -14.7590   20.4100 C   0  0  0  0  0  0  0  0  0  0  0  0
  -30.4230  -12.4890   19.4110 C   0  0  0  0  0  2  0  0  0  0  0  0
  -29.5070  -12.5920   18.1720 C   0  0  0  0  0  2  0  0  0  0  0  0
  -28.0280  -12.4360   18.5730 C   0  0  0  0  0  2  0  0  0  0  0  0
  -27.6380  -13.3000   19.8030 C   0  0  0  0  0  3  0  0  0  0  0  0
  -28.6790  -13.1880   20.9350 C   0  0  0  0  0  2  0  0  0  0  0  0
  -29.9850  -13.5310   20.3650 N   0  0  0  0  0  0  0  0  0  0  0  0
  -31.8100  -14.8380   20.1870 O   0  0  0  0  0  0  0  0  0  0  0  0
  -29.7890  -15.8830   20.5050 N   0  0  0  0  0  0  0  0  0  0  0  0
  -28.8690  -15.6720   20.8610 H   0  0  0  0  0  0  0  0  0  0  0  0
  -25.2360  -13.8860   20.4750 C   0  0  0  0  0  0  0  0  0  0  0  0
  -24.1680  -13.1130   20.8330 C   0  0  0  0  0  0  0  0  0  0  0  0
  -24.6390  -11.7640   20.8310 C   0  0  0  0  0  0  0  0  0  0  0  0
  -26.2880  -13.0090   20.2720 N   0  0  0  0  0  0  0  0  0  0  0  0
  -25.9360  -11.7280   20.5500 N   0  0  0  0  0  0  0  0  0  0  0  0
  -23.9140  -10.4990   21.0240 C   0  0  0  0  0  0  0  0  0  0  0  0
  -24.3320   -9.5450   21.9770 C   0  0  0  0  0  3  0  0  0  0  0  0
  -23.6090   -8.3480   22.1560 C   0  0  0  0  0  3  0  0  0  0  0  0
  -22.4500   -8.0950   21.3840 C   0  0  0  0  0  0  0  0  0  0  0  0
  -22.0490   -9.0380   20.4210 C   0  0  0  0  0  3  0  0  0  0  0  0
  -22.7740  -10.2280   20.2400 C   0  0  0  0  0  3  0  0  0  0  0  0
  -21.7010   -6.9470   21.4710 O   0  0  0  0  0  0  0  0  0  0  0  0
  -21.6330   -6.2190   22.6320 C   0  0  0  0  0  0  0  0  0  0  0  0
  -21.1750   -6.7840   23.8420 C   0  0  0  0  0  3  0  0  0  0  0  0
  -21.0600   -5.9800   24.9940 C   0  0  0  0  0  3  0  0  0  0  0  0
  -21.3850   -4.6110   24.9350 C   0  0  0  0  0  0  0  0  0  0  0  0
  -21.8340   -4.0470   23.7270 C   0  0  0  0  0  3  0  0  0  0  0  0
  -21.9540   -4.8480   22.5790 C   0  0  0  0  0  0  0  0  0  0  0  0
  -22.3660   -4.2970   21.4130 F   0  0  0  0  0  0  0  0  0  0  0  0
  -21.2670   -3.8330   26.0360 F   0  0  0  0  0  0  0  0  0  0  0  0
  -22.7640  -13.5870   21.0700 C   0  0  0  0  0  0  0  0  0  0  0  0
  -22.0220  -12.8980   21.9300 N   0  0  0  0  0  0  0  0  0  0  0  0
  -22.3350  -14.6020   20.5250 O   0  0  0  0  0  0  0  0  0  0  0  0
  -22.3830  -12.0780   22.3940 H   0  0  0  0  0  0  0  0  0  0  0  0
  -21.0790  -13.2010   22.1280 H   0  0  0  0  0  0  0  0  0  0  0  0
  -25.3950  -15.2560   20.2830 N   0  0  0  0  0  0  0  0  0  0  0  0
  -24.6100  -15.8960   20.3360 H   0  0  0  0  0  0  0  0  0  0  0  0
  -26.2390  -15.6930   19.9350 H   0  0  0  0  0  0  0  0  0  0  0  0
  -28.9390  -22.4640   20.8630 C   0  0  0  0  0  2  0  0  0  0  0  0
  -28.8740  -23.8470   18.6940 C   0  0  0  0  0  1  0  0  0  0  0  0
  -28.2820  -23.7420   20.1120 C   0  0  0  0  0  3  0  0  0  0  0  0
  -28.3160  -25.1640   20.8850 C   0  0  0  0  0  2  0  0  0  0  0  0
  -28.3570  -26.4900   20.2080 O   0  0  0  0  0  0  0  0  0  0  0  0
  -24.5840  -31.8910   23.2520 C   0  0  0  0  0  0  0  0  0  0  0  0
  -27.2310  -27.3260   20.2300 C   0  0  0  0  0  0  0  0  0  0  0  0
  -23.3990  -30.4880   21.6010 C   0  0  0  0  0  3  0  0  0  0  0  0
  -24.8670  -28.9330   20.1900 C   0  0  0  0  0  0  0  0  0  0  0  0
  -25.9390  -30.8140   21.4360 C   0  0  0  0  0  2  0  0  0  0  0  0
  -26.0300  -29.4290   20.7960 C   0  0  0  0  0  0  0  0  0  0  0  0
  -27.2210  -28.6420   20.7920 C   0  0  0  0  0  3  0  0  0  0  0  0
  -26.0490  -26.8770   19.6120 C   0  0  0  0  0  3  0  0  0  0  0  0
  -24.8810  -27.6650   19.5850 C   0  0  0  0  0  3  0  0  0  0  0  0
  -23.6310  -29.8100   20.2230 C   0  0  0  0  0  2  0  0  0  0  0  0
  -24.6590  -31.0810   22.1550 N   0  0  0  0  0  0  0  0  0  0  0  0
  -23.4940  -32.1660   23.7770 O   0  0  0  0  0  0  0  0  0  0  0  0
  -22.7310  -29.4700   22.5560 C   0  0  0  0  0  0  0  0  0  0  0  0
  -21.4050  -29.2930   22.4200 N   0  0  0  0  0  0  0  0  0  0  0  0
  -23.4040  -28.8440   23.3780 O   0  0  0  0  0  0  0  0  0  0  0  0
  -20.9190  -29.8550   21.7350 H   0  0  0  0  0  0  0  0  0  0  0  0
  -18.0250  -28.0970   22.9030 C   0  0  0  0  0  0  0  0  0  0  0  0
  -20.5820  -28.3540   23.1830 C   0  0  0  0  0  3  0  0  0  0  0  0
  -20.6850  -26.9220   22.6060 C   0  0  0  0  0  2  0  0  0  0  0  0
  -19.5880  -26.6040   21.5850 C   0  0  0  0  0  2  0  0  0  0  0  0
  -18.2040  -26.7490   22.2220 C   0  0  0  0  0  2  0  0  0  0  0  0
  -19.1420  -28.8570   23.3400 C   0  0  0  0  0  0  0  0  0  0  0  0
  -18.9220  -30.1170   23.9360 C   0  0  0  0  0  3  0  0  0  0  0  0
  -17.6190  -30.6190   24.0980 C   0  0  0  0  0  3  0  0  0  0  0  0
  -16.5150  -29.8580   23.6760 C   0  0  0  0  0  3  0  0  0  0  0  0
  -16.7190  -28.5970   23.0860 C   0  0  0  0  0  3  0  0  0  0  0  0
  -25.8590  -32.5280   23.8870 C   0  0  0  0  0  3  0  0  0  0  0  0
  -26.3620  -31.7620   25.1730 C   0  0  1  0  0  0  0  0  0  0  0  0
  -25.2570  -31.5270   26.2300 C   0  0  0  0  0  1  0  0  0  0  0  0
  -26.9480  -30.3830   24.7930 C   0  0  0  0  0  1  0  0  0  0  0  0
  -27.5020  -32.5590   25.8480 C   0  0  0  0  0  1  0  0  0  0  0  0
  -25.5480  -33.9280   24.2090 N   0  0  0  0  0  0  0  0  0  0  0  0
  -25.8860  -34.9770   23.4470 C   0  0  0  0  0  0  0  0  0  0  0  0
  -26.5650  -34.8690   22.4220 O   0  0  0  0  0  0  0  0  0  0  0  0
  -24.9550  -34.0890   25.0090 H   0  0  0  0  0  0  0  0  0  0  0  0
  -24.1660  -36.7730   23.0590 C   0  0  0  0  0  1  0  0  0  0  0  0
  -25.3930  -36.3690   23.8910 C   0  0  0  0  0  3  0  0  0  0  0  0
  -27.5150  -37.2530   24.7570 C   0  0  0  0  0  1  0  0  0  0  0  0
  -26.4290  -37.4210   23.7950 N   0  0  0  0  0  0  0  0  0  0  0  0
  -26.0210  -38.3410   23.9350 H   0  0  0  0  0  0  0  0  0  0  0  0
  1 47  1  0
  2  5  1  0
  3  6  1  0
  3  2  2  0
  5  4  2  0
  5  1  1  0
  6  7  2  0
  7 17  1  0
  7  4  1  0
  8  6  1  0
  9 17  1  0
 10 15  1  0
 11 12  1  0
 11 10  1  0
 13 12  1  0
 13 22  1  0
 13 14  1  0
 15  9  1  0
 15 14  1  0
 16  9  2  0
 17 18  1  0
 19 20  2  0
 20 39  1  0
 21 20  1  0
 21 24  1  0
 22 19  1  0
 22 23  1  0
 23 21  2  0
 24 25  1  0
 25 26  2  0
 27 30  1  0
 27 26  1  0
 28 27  2  0
 29 28  1  0
 29 24  2  0
 30 31  1  0
 31 32  1  0
 32 33  2  0
 34 33  1  0
 34 38  1  0
 35 34  2  0
 36 31  2  0
 36 35  1  0
 37 36  1  0
 39 40  1  0
 40 43  1  0
 40 42  1  0
 41 39  2  0
 44 45  1  0
 44 19  1  0
 46 44  1  0
 49 48  1  0
 49 47  1  0
 49 50  1  0
 51 53  1  0
 51 50  1  0
 52 63  2  0
 53 58  1  0
 54 62  1  0
 54 64  1  0
 55 61  1  0
 55 57  1  0
 56 62  1  0
 57 56  1  0
 58 57  2  0
 59 53  2  0
 60 59  1  0
 60 55  2  0
 61 54  1  0
 62 52  1  0
 64 66  2  0
 65 64  1  0
 67 65  1  0
 68 77  2  0
 68 73  1  0
 69 65  1  0
 69 73  1  0
 70 69  1  0
 71 72  1  0
 71 70  1  0
 72 68  1  0
 73 74  2  0
 74 75  1  0
 76 75  2  0
 77 76  1  0
 78 52  1  0
 78 83  1  0
 78 79  1  0
 79 82  1  1
 79 80  1  0
 81 79  1  0
 83 86  1  0
 84 88  1  0
 84 83  1  0
 85 84  2  0
 88 87  1  0
 90 88  1  0
 90 91  1  0
 90 89  1  0
M  ISO  4   9 100  17 100  50 101  51 101
M  END
>  <TORSDO>  (25) 
F 20

>  <SCORE>  (25) 
-13.859

>  <name>  (25) 
24

>  <ligand_id>  (25) 
24

>  <original_smiles>  (25) 
[H]c1c([H])c([H])c2c(c1[H])C([H])([H])C([H])([H])C([H])([H])C2([H])N([H])C(=O)C1([H])N(C(=O)C([H])(N([H])C(=O)C([H])(N([H])C([H])([H])[H])C([H])([H])[H])C(C([H])([H])[H])(C([H])([H])[H])C([H])([H])[H])C([H])([H])c2c([H])c(OC([H])([H])C([H])(C([H])([H])[H])C([H])([H])C([H])([H])c3c([H])c([H])c(C([H])([H])[H])c(N([H])C(=O)N4C([H])([H])C([H])([H])C([H])([H])C([H])(n5nc(-c6c([H])c([H])c(Oc7c([H])c([H])c(F)c([H])c7F)c([H])c6[H])c(C(=O)N([H])[H])c5N([H])[H])C4([H])[H])c3[H])c([H])c([H])c2C1([H])[H]

>  <smiles>  (25) 
[H]c1c([H])c([H])c2c(c1[H])C([H])([H])C([H])([H])C([H])([H])C2([H])N([H])C(=O)C1([H])N(C(=O)C([H])(N([H])C(=O)C([H])(N([H])C([H])([H])[H])C([H])([H])[H])C(C([H])([H])[H])(C([H])([H])[H])C([H])([H])[H])C([H])([H])c2c([H])c(OC([H])([H])C([H])(C([H])([H])[H])C([H])([H])C([H])([H])c3c([H])c([H])c(C([H])([H])[H])c(N([H])C(=O)N4C([H])([H])C([H])([H])C([H])([H])C([H])(n5nc(-c6c([H])c([H])c(Oc7c([H])c([H])c(F)c([H])c7F)c([H])c6[H])c(C(=O)N([H])[H])c5N([H])[H])C4([H])[H])c3[H])c([H])c([H])c2C1([H])[H]

$$$$
25:0:0
     RDKit          3D

102111  0  0  1  0  0  0  0  0999 V2000
  -25.4150  -22.3050   19.6570 C   0  0  0  0  0  3  0  0  0  0  0  0
  -26.1550  -21.6620   18.6470 C   0  0  0  0  0  3  0  0  0  0  0  0
  -27.4720  -23.2420   20.5680 C   0  0  0  0  0  3  0  0  0  0  0  0
  -26.0720  -23.0950   20.6200 C   0  0  0  0  0  0  0  0  0  0  0  0
  -27.5530  -21.8340   18.5710 C   0  0  0  0  0  0  0  0  0  0  0  0
  -28.2130  -22.6520   19.5200 C   0  0  0  0  0  0  0  0  0  0  0  0
  -28.3290  -21.1410   17.4600 C   0  0  0  0  0  1  0  0  0  0  0  0
  -30.4270  -23.8000   19.8250 C   0  0  0  0  0  0  0  0  0  0  0  0
  -29.6060  -22.8500   19.3570 N   0  0  0  0  0  0  0  0  0  0  0  0
  -30.1540  -24.6410   20.6860 O   0  0  0  0  0  0  0  0  0  0  0  0
  -30.0490  -22.2700   18.6590 H   0  0  0  0  0  0  0  0  0  0  0  0
  -32.9740  -24.2600   19.5940 C   0  0  0  0  0  3  0  0  0  0  0  0
  -33.9190  -23.8410   18.6120 C   0  0  0  0  0  3  0  0  0  0  0  0
  -31.7690  -23.7310   19.2230 C   0  0  0  0  0  0  0  0  0  0  0  0
  -33.2170  -23.0930   17.7060 C   0  0  0  0  0  0  0  0  0  0  0  0
  -31.9150  -23.0180   18.0720 O   0  0  0  0  0  0  0  0  0  0  0  0
  -33.5590  -22.3310   16.4750 C   0  0  0  0  0  2  0  0  0  0  0  0
  -33.5450  -20.8170   16.7410 C   0  0  0  0  0  2  0  0  0  0  0  0
  -34.0850  -19.9670   15.5840 C   0  0  0  0  0  0  0  0  0  0  0  0
  -34.8100  -17.7590   14.7440 C   0  0  0  0  0  2  0  0  0  0  0  0
  -33.6210  -16.9320   14.2260 C   0  0  0  0  0  2  0  0  0  0  0  0
  -32.9490  -16.1580   15.3760 C   0  0  0  0  0  2  0  0  0  0  0  0
  -32.6390  -17.0590   16.5990 C   0  0  0  0  0  3  0  0  0  0  0  0
  -33.8800  -17.8920   16.9890 C   0  0  0  0  0  2  0  0  0  0  0  0
  -34.3200  -18.6490   15.8030 N   0  0  0  0  0  0  0  0  0  0  0  0
  -34.2940  -20.5060   14.4910 O   0  0  0  0  0  0  0  0  0  0  0  0
  -30.9810  -16.4380   18.4720 C   0  0  0  0  0  0  0  0  0  0  0  0
  -30.9550  -15.3960   19.3610 C   0  0  0  0  0  0  0  0  0  0  0  0
  -32.1290  -14.6270   19.1020 C   0  0  0  0  0  0  0  0  0  0  0  0
  -32.1400  -16.2740   17.7280 N   0  0  0  0  0  0  0  0  0  0  0  0
  -32.8570  -15.2010   18.1510 N   0  0  0  0  0  0  0  0  0  0  0  0
  -32.5760  -13.3450   19.6620 C   0  0  0  0  0  0  0  0  0  0  0  0
  -33.8680  -13.1880   20.2090 C   0  0  0  0  0  3  0  0  0  0  0  0
  -34.2690  -11.9510   20.7580 C   0  0  0  0  0  3  0  0  0  0  0  0
  -33.3720  -10.8550   20.7650 C   0  0  0  0  0  0  0  0  0  0  0  0
  -32.0960  -11.0100   20.1990 C   0  0  0  0  0  3  0  0  0  0  0  0
  -31.7010  -12.2410   19.6490 C   0  0  0  0  0  3  0  0  0  0  0  0
  -33.6820   -9.6090   21.2530 O   0  0  0  0  0  0  0  0  0  0  0  0
  -34.6410   -9.4320   22.2180 C   0  0  0  0  0  0  0  0  0  0  0  0
  -34.5770  -10.0960   23.4630 C   0  0  0  0  0  3  0  0  0  0  0  0
  -35.5450   -9.8320   24.4520 C   0  0  0  0  0  3  0  0  0  0  0  0
  -36.5700   -8.9010   24.2050 C   0  0  0  0  0  0  0  0  0  0  0  0
  -36.6320   -8.2340   22.9680 C   0  0  0  0  0  3  0  0  0  0  0  0
  -35.6690   -8.4970   21.9790 C   0  0  0  0  0  0  0  0  0  0  0  0
  -35.7210   -7.8370   20.7980 F   0  0  0  0  0  0  0  0  0  0  0  0
  -37.4950   -8.6400   25.1570 F   0  0  0  0  0  0  0  0  0  0  0  0
  -29.8570  -15.0770   20.3340 C   0  0  0  0  0  0  0  0  0  0  0  0
  -30.2000  -14.4840   21.4720 N   0  0  0  0  0  0  0  0  0  0  0  0
  -28.6900  -15.3980   20.1120 O   0  0  0  0  0  0  0  0  0  0  0  0
  -31.1600  -14.2370   21.6640 H   0  0  0  0  0  0  0  0  0  0  0  0
  -29.4930  -14.2720   22.1620 H   0  0  0  0  0  0  0  0  0  0  0  0
  -30.1110  -17.4950   18.2200 N   0  0  0  0  0  0  0  0  0  0  0  0
  -29.2310  -17.6030   18.7110 H   0  0  0  0  0  0  0  0  0  0  0  0
  -30.2430  -18.1750   17.4830 H   0  0  0  0  0  0  0  0  0  0  0  0
  -25.2810  -23.8070   21.7020 C   0  0  0  0  0  2  0  0  0  0  0  0
  -24.7800  -25.8740   23.0310 C   0  0  0  0  0  1  0  0  0  0  0  0
  -25.6940  -25.2820   21.9430 C   0  0  0  0  0  3  0  0  0  0  0  0
  -25.7320  -26.1250   20.6320 C   0  0  0  0  0  2  0  0  0  0  0  0
  -27.9490  -27.3530   20.5260 C   0  0  0  0  0  1  0  0  0  0  0  0
  -26.4320  -27.5070   20.7150 C   0  0  0  0  0  3  0  0  0  0  0  0
  -25.8520  -28.5380   19.7010 C   0  0  0  0  0  2  0  0  0  0  0  0
  -24.5550  -29.0580   20.0240 O   0  0  0  0  0  0  0  0  0  0  0  0
  -27.7630  -32.5180   25.3390 C   0  0  0  0  0  0  0  0  0  0  0  0
  -24.4440  -29.6300   21.2650 C   0  0  0  0  0  0  0  0  0  0  0  0
  -25.6230  -31.4050   25.8920 C   0  0  0  0  0  3  0  0  0  0  0  0
  -24.2480  -30.5980   23.9020 C   0  0  0  0  0  0  0  0  0  0  0  0
  -26.0830  -32.2560   23.5240 C   0  0  0  0  0  2  0  0  0  0  0  0
  -25.1880  -31.1490   23.0200 C   0  0  0  0  0  0  0  0  0  0  0  0
  -25.2970  -30.6650   21.7020 C   0  0  0  0  0  3  0  0  0  0  0  0
  -23.4690  -29.1160   22.1450 C   0  0  0  0  0  3  0  0  0  0  0  0
  -23.3860  -29.5760   23.4700 C   0  0  0  0  0  3  0  0  0  0  0  0
  -24.2080  -31.1670   25.3000 C   0  0  0  0  0  2  0  0  0  0  0  0
  -26.5510  -32.0600   24.9140 N   0  0  0  0  0  0  0  0  0  0  0  0
  -28.0940  -32.4410   26.5300 O   0  0  0  0  0  0  0  0  0  0  0  0
  -26.1610  -30.0680   26.4480 C   0  0  0  0  0  0  0  0  0  0  0  0
  -25.8220  -29.7620   27.7110 N   0  0  0  0  0  0  0  0  0  0  0  0
  -26.8480  -29.3220   25.7450 O   0  0  0  0  0  0  0  0  0  0  0  0
  -25.2490  -30.4210   28.2230 H   0  0  0  0  0  0  0  0  0  0  0  0
  -25.7120  -28.1570   30.9410 C   0  0  0  0  0  0  0  0  0  0  0  0
  -26.1960  -28.5460   28.4310 C   0  0  0  0  0  3  0  0  0  0  0  0
  -25.1820  -27.4090   28.1630 C   0  0  0  0  0  2  0  0  0  0  0  0
  -24.0590  -27.3490   29.2010 C   0  0  0  0  0  2  0  0  0  0  0  0
  -24.6310  -27.1440   30.6070 C   0  0  0  0  0  2  0  0  0  0  0  0
  -26.4360  -28.8270   29.9200 C   0  0  0  0  0  0  0  0  0  0  0  0
  -27.4020  -29.7900   30.2860 C   0  0  0  0  0  3  0  0  0  0  0  0
  -27.6560  -30.0770   31.6410 C   0  0  0  0  0  3  0  0  0  0  0  0
  -26.9510  -29.3950   32.6470 C   0  0  0  0  0  3  0  0  0  0  0  0
  -25.9820  -28.4380   32.2970 C   0  0  0  0  0  3  0  0  0  0  0  0
  -28.7750  -33.1810   24.3550 C   0  0  0  0  0  3  0  0  0  0  0  0
  -29.9200  -32.2040   23.8880 C   0  0  1  0  0  0  0  0  0  0  0  0
  -30.7220  -31.5880   25.0560 C   0  0  0  0  0  1  0  0  0  0  0  0
  -29.3390  -31.0390   23.0520 C   0  0  0  0  0  1  0  0  0  0  0  0
  -30.9070  -32.9570   22.9650 C   0  0  0  0  0  1  0  0  0  0  0  0
  -29.3350  -34.3610   25.0260 N   0  0  0  0  0  0  0  0  0  0  0  0
  -28.9220  -35.6200   24.8200 C   0  0  0  0  0  0  0  0  0  0  0  0
  -28.0700  -35.9160   23.9770 O   0  0  0  0  0  0  0  0  0  0  0  0
  -29.9950  -34.1880   25.7690 H   0  0  0  0  0  0  0  0  0  0  0  0
  -28.6010  -37.0920   26.8320 C   0  0  0  0  0  1  0  0  0  0  0  0
  -29.5570  -36.7240   25.6860 C   0  0  0  0  0  3  0  0  0  0  0  0
  -31.0170  -37.7360   23.9930 C   0  0  0  0  0  1  0  0  0  0  0  0
  -29.9110  -37.9410   24.9230 N   0  0  0  0  0  0  0  0  0  0  0  0
  -30.1590  -38.7000   25.5510 H   0  0  0  0  0  0  0  0  0  0  0  0
  1  4  1  0
  2  1  2  0
  3  4  2  0
  4 55  1  0
  5  2  1  0
  5  6  2  0
  6  3  1  0
  7  5  1  0
  8 10  2  0
  9  6  1  0
  9  8  1  0
 11  9  1  0
 13 12  1  0
 14 12  2  0
 14  8  1  0
 15 16  1  0
 15 13  2  0
 16 14  1  0
 17 18  1  0
 17 15  1  0
 19 25  1  0
 19 18  1  0
 20 25  1  0
 21 20  1  0
 21 22  1  0
 23 22  1  0
 23 24  1  0
 23 30  1  0
 25 24  1  0
 26 19  2  0
 27 28  2  0
 28 47  1  0
 29 28  1  0
 29 32  1  0
 30 31  1  0
 30 27  1  0
 31 29  2  0
 32 33  1  0
 33 34  2  0
 34 35  1  0
 35 38  1  0
 36 35  2  0
 37 32  2  0
 37 36  1  0
 38 39  1  0
 39 40  1  0
 40 41  2  0
 42 41  1  0
 42 46  1  0
 43 42  2  0
 44 39  2  0
 44 43  1  0
 45 44  1  0
 47 48  1  0
 48 50  1  0
 48 51  1  0
 49 47  2  0
 52 27  1  0
 52 53  1  0
 54 52  1  0
 55 57  1  0
 57 56  1  0
 58 60  1  0
 58 57  1  0
 60 59  1  0
 61 62  1  0
 61 60  1  0
 62 64  1  0
 63 74  2  0
 64 69  2  0
 64 70  1  0
 65 75  1  0
 66 72  1  0
 67 73  1  0
 68 67  1  0
 68 66  2  0
 69 68  1  0
 70 71  2  0
 71 66  1  0
 72 65  1  0
 73 63  1  0
 73 65  1  0
 75 76  1  0
 76 78  1  0
 77 75  2  0
 79 88  1  0
 80 76  1  0
 80 84  1  0
 81 80  1  0
 81 82  1  0
 82 83  1  0
 83 79  1  0
 84 85  1  0
 84 79  2  0
 85 86  2  0
 86 87  1  0
 88 87  2  0
 89 94  1  0
 89 63  1  0
 90 89  1  0
 90 91  1  1
 92 90  1  0
 93 90  1  0
 94 97  1  0
 95 94  1  0
 95 99  1  0
 96 95  2  0
 99 98  1  0
100101  1  0
101102  1  0
101 99  1  0
M  ISO  4  18 100  19 100  61 101  62 101
M  END
>  <TORSDO>  (26) 
F 25

>  <SCORE>  (26) 
-5.668

>  <name>  (26) 
25

>  <ligand_id>  (26) 
25

>  <original_smiles>  (26) 
[H]c1c(C(=O)N([H])c2c([H])c(C([H])([H])C([H])(C([H])([H])[H])C([H])([H])C([H])(C([H])([H])[H])C([H])([H])Oc3c([H])c([H])c4c(c3[H])C([H])([H])N(C(=O)C([H])(N([H])C(=O)C([H])(N([H])C([H])([H])[H])C([H])([H])[H])C(C([H])([H])[H])(C([H])([H])[H])C([H])([H])[H])C([H])(C(=O)N([H])C3([H])c5c([H])c([H])c([H])c([H])c5C([H])([H])C([H])([H])C3([H])[H])C4([H])[H])c([H])c([H])c2C([H])([H])[H])oc(C([H])([H])C([H])([H])C(=O)N2C([H])([H])C([H])([H])C([H])([H])C([H])(n3nc(-c4c([H])c([H])c(Oc5c([H])c([H])c(F)c([H])c5F)c([H])c4[H])c(C(=O)N([H])[H])c3N([H])[H])C2([H])[H])c1[H]

>  <smiles>  (26) 
[H]c1c(C(=O)N([H])c2c([H])c(C([H])([H])C([H])(C([H])([H])[H])C([H])([H])C([H])(C([H])([H])[H])C([H])([H])Oc3c([H])c([H])c4c(c3[H])C([H])([H])N(C(=O)C([H])(N([H])C(=O)C([H])(N([H])C([H])([H])[H])C([H])([H])[H])C(C([H])([H])[H])(C([H])([H])[H])C([H])([H])[H])C([H])(C(=O)N([H])C3([H])c5c([H])c([H])c([H])c([H])c5C([H])([H])C([H])([H])C3([H])[H])C4([H])[H])c([H])c([H])c2C([H])([H])[H])oc(C([H])([H])C([H])([H])C(=O)N2C([H])([H])C([H])([H])C([H])([H])C([H])(n3nc(-c4c([H])c([H])c(Oc5c([H])c([H])c(F)c([H])c5F)c([H])c4[H])c(C(=O)N([H])[H])c3N([H])[H])C2([H])[H])c1[H]

$$$$
26:0:0
     RDKit          3D

 93101  0  0  1  0  0  0  0  0999 V2000
  -30.1570  -21.4730   20.0700 O   0  0  0  0  0  0  0  0  0  0  0  0
  -31.1530  -17.8550   20.3460 C   0  0  0  0  0  3  0  0  0  0  0  0
  -31.1850  -19.2740   20.2230 C   0  0  0  0  0  3  0  0  0  0  0  0
  -28.7930  -19.3540   20.1600 C   0  0  0  0  0  3  0  0  0  0  0  0
  -28.7380  -17.9250   20.2960 C   0  0  0  0  0  0  0  0  0  0  0  0
  -29.9310  -17.1310   20.3960 C   0  0  0  0  0  0  0  0  0  0  0  0
  -30.0170  -20.0690   20.1250 C   0  0  0  0  0  0  0  0  0  0  0  0
  -30.5960  -14.6170   20.0500 C   0  0  0  0  0  0  0  0  0  0  0  0
  -30.2960  -12.3990   18.9600 C   0  0  0  0  0  2  0  0  0  0  0  0
  -29.2840  -12.5610   17.8030 C   0  0  0  0  0  2  0  0  0  0  0  0
  -27.8360  -12.4120   18.3110 C   0  0  0  0  0  2  0  0  0  0  0  0
  -27.5620  -13.2560   19.5840 C   0  0  0  0  0  3  0  0  0  0  0  0
  -28.6800  -13.0640   20.6340 C   0  0  0  0  0  2  0  0  0  0  0  0
  -29.9620  -13.4020   19.9910 N   0  0  0  0  0  0  0  0  0  0  0  0
  -31.7300  -14.7630   19.5820 O   0  0  0  0  0  0  0  0  0  0  0  0
  -29.8440  -15.6670   20.5200 N   0  0  0  0  0  0  0  0  0  0  0  0
  -28.9870  -15.3460   20.9450 H   0  0  0  0  0  0  0  0  0  0  0  0
  -25.2220  -13.8760   20.4440 C   0  0  0  0  0  0  0  0  0  0  0  0
  -24.1680  -13.1120   20.8650 C   0  0  0  0  0  0  0  0  0  0  0  0
  -24.6060  -11.7550   20.7810 C   0  0  0  0  0  0  0  0  0  0  0  0
  -26.2390  -12.9850   20.1370 N   0  0  0  0  0  0  0  0  0  0  0  0
  -25.8770  -11.7040   20.4000 N   0  0  0  0  0  0  0  0  0  0  0  0
  -23.8720  -10.5000   20.9870 C   0  0  0  0  0  0  0  0  0  0  0  0
  -24.3300   -9.5120   21.8880 C   0  0  0  0  0  3  0  0  0  0  0  0
  -23.5940   -8.3240   22.0810 C   0  0  0  0  0  3  0  0  0  0  0  0
  -22.3850   -8.1140   21.3750 C   0  0  0  0  0  0  0  0  0  0  0  0
  -21.9460   -9.0900   20.4640 C   0  0  0  0  0  3  0  0  0  0  0  0
  -22.6830  -10.2710   20.2670 C   0  0  0  0  0  3  0  0  0  0  0  0
  -21.6170   -6.9800   21.4830 O   0  0  0  0  0  0  0  0  0  0  0  0
  -21.5920   -6.2340   22.6340 C   0  0  0  0  0  0  0  0  0  0  0  0
  -21.2290   -6.7960   23.8770 C   0  0  0  0  0  3  0  0  0  0  0  0
  -21.1500   -5.9780   25.0220 C   0  0  0  0  0  3  0  0  0  0  0  0
  -21.4200   -4.6000   24.9250 C   0  0  0  0  0  0  0  0  0  0  0  0
  -21.7750   -4.0390   23.6860 C   0  0  0  0  0  3  0  0  0  0  0  0
  -21.8580   -4.8530   22.5430 C   0  0  0  0  0  0  0  0  0  0  0  0
  -22.1810   -4.3020   21.3480 F   0  0  0  0  0  0  0  0  0  0  0  0
  -21.3360   -3.8120   26.0220 F   0  0  0  0  0  0  0  0  0  0  0  0
  -22.7950  -13.6050   21.2260 C   0  0  0  0  0  0  0  0  0  0  0  0
  -22.1120  -12.9070   22.1280 N   0  0  0  0  0  0  0  0  0  0  0  0
  -22.3410  -14.6420   20.7450 O   0  0  0  0  0  0  0  0  0  0  0  0
  -22.4920  -12.0660   22.5360 H   0  0  0  0  0  0  0  0  0  0  0  0
  -21.1940  -13.2180   22.4140 H   0  0  0  0  0  0  0  0  0  0  0  0
  -25.3910  -15.2460   20.2750 N   0  0  0  0  0  0  0  0  0  0  0  0
  -24.6360  -15.9010   20.4470 H   0  0  0  0  0  0  0  0  0  0  0  0
  -26.2120  -15.6850   19.8830 H   0  0  0  0  0  0  0  0  0  0  0  0
  -26.3060  -17.7470   19.3960 C   0  0  0  0  0  1  0  0  0  0  0  0
  -27.3660  -17.2490   20.3950 C   0  0  0  0  0  2  0  0  0  0  0  0
  -29.0510  -22.4120   19.8680 C   0  0  0  0  0  2  0  0  0  0  0  0
  -29.3970  -23.9780   19.9920 C   0  0  0  0  0  3  0  0  0  0  0  0
  -31.9860  -24.0490   19.8010 C   0  0  0  0  0  1  0  0  0  0  0  0
  -30.6330  -24.3770   19.1520 C   0  0  0  0  0  2  0  0  0  0  0  0
  -28.2000  -24.9700   19.6380 C   0  0  0  0  0  2  0  0  0  0  0  0
  -28.3600  -26.4290   19.8440 O   0  0  0  0  0  0  0  0  0  0  0  0
  -24.5040  -31.6190   23.0350 C   0  0  0  0  0  0  0  0  0  0  0  0
  -27.2080  -27.2350   19.8250 C   0  0  0  0  0  0  0  0  0  0  0  0
  -23.3210  -30.2450   21.3580 C   0  0  0  0  0  3  0  0  0  0  0  0
  -24.7970  -28.7790   19.8770 C   0  0  0  0  0  0  0  0  0  0  0  0
  -25.8480  -30.6390   21.1650 C   0  0  0  0  0  2  0  0  0  0  0  0
  -25.9580  -29.2830   20.4760 C   0  0  0  0  0  0  0  0  0  0  0  0
  -27.1640  -28.5240   20.4390 C   0  0  0  0  0  3  0  0  0  0  0  0
  -26.0180  -26.7790   19.2080 C   0  0  0  0  0  3  0  0  0  0  0  0
  -24.8280  -27.5310   19.2360 C   0  0  0  0  0  3  0  0  0  0  0  0
  -23.5400  -29.6200   19.9560 C   0  0  0  0  0  2  0  0  0  0  0  0
  -24.5760  -30.8500   21.9080 N   0  0  0  0  0  0  0  0  0  0  0  0
  -23.4190  -31.8550   23.5850 O   0  0  0  0  0  0  0  0  0  0  0  0
  -22.6930  -29.1820   22.2920 C   0  0  0  0  0  0  0  0  0  0  0  0
  -21.3690  -28.9880   22.1780 N   0  0  0  0  0  0  0  0  0  0  0  0
  -23.3940  -28.5400   23.0780 O   0  0  0  0  0  0  0  0  0  0  0  0
  -20.8610  -29.5690   21.5260 H   0  0  0  0  0  0  0  0  0  0  0  0
  -18.0150  -27.7290   22.6910 C   0  0  0  0  0  0  0  0  0  0  0  0
  -20.5750  -28.0100   22.9250 C   0  0  0  0  0  3  0  0  0  0  0  0
  -20.6820  -26.6030   22.2930 C   0  0  0  0  0  2  0  0  0  0  0  0
  -19.5640  -26.3040   21.2870 C   0  0  0  0  0  2  0  0  0  0  0  0
  -18.1930  -26.4070   21.9610 C   0  0  0  0  0  2  0  0  0  0  0  0
  -19.1330  -28.4870   23.1290 C   0  0  0  0  0  0  0  0  0  0  0  0
  -18.9100  -29.7220   23.7740 C   0  0  0  0  0  3  0  0  0  0  0  0
  -17.6030  -30.2000   23.9840 C   0  0  0  0  0  3  0  0  0  0  0  0
  -16.5000  -29.4400   23.5610 C   0  0  0  0  0  3  0  0  0  0  0  0
  -16.7070  -28.2050   22.9200 C   0  0  0  0  0  3  0  0  0  0  0  0
  -25.7760  -32.2610   23.6680 C   0  0  0  0  0  3  0  0  0  0  0  0
  -25.4360  -33.6390   24.0430 N   0  0  0  0  0  0  0  0  0  0  0  0
  -25.7370  -34.7240   23.3170 C   0  0  0  0  0  0  0  0  0  0  0  0
  -26.4020  -34.6710   22.2780 O   0  0  0  0  0  0  0  0  0  0  0  0
  -24.8410  -33.7530   24.8510 H   0  0  0  0  0  0  0  0  0  0  0  0
  -23.9620  -36.4850   23.0410 C   0  0  0  0  0  1  0  0  0  0  0  0
  -25.2210  -36.0850   23.8250 C   0  0  0  0  0  3  0  0  0  0  0  0
  -27.3420  -36.9960   24.6600 C   0  0  0  0  0  1  0  0  0  0  0  0
  -26.2260  -37.1670   23.7350 N   0  0  0  0  0  0  0  0  0  0  0  0
  -25.7990  -38.0710   23.9170 H   0  0  0  0  0  0  0  0  0  0  0  0
  -26.3200  -31.4630   24.9170 C   0  0  1  0  0  0  0  0  0  0  0  0
  -25.2410  -31.1740   25.9860 C   0  0  0  0  0  1  0  0  0  0  0  0
  -26.9270  -30.1120   24.4760 C   0  0  0  0  0  1  0  0  0  0  0  0
  -27.4580  -32.2640   25.5930 C   0  0  0  0  0  1  0  0  0  0  0  0
  1  7  1  0
  2  6  1  0
  3  2  2  0
  4  5  1  0
  5 47  1  0
  5  6  2  0
  6 16  1  0
  7  4  2  0
  7  3  1  0
  8 16  1  0
  9 14  1  0
 10 11  1  0
 10  9  1  0
 12 11  1  0
 12 21  1  0
 12 13  1  0
 14  8  1  0
 14 13  1  0
 15  8  2  0
 16 17  1  0
 18 19  2  0
 19 38  1  0
 20 19  1  0
 20 23  1  0
 21 22  1  0
 21 18  1  0
 22 20  2  0
 23 24  1  0
 24 25  2  0
 26 29  1  0
 26 25  1  0
 27 26  2  0
 28 27  1  0
 28 23  2  0
 29 30  1  0
 30 31  1  0
 31 32  2  0
 33 32  1  0
 33 37  1  0
 34 33  2  0
 35 30  2  0
 35 34  1  0
 36 35  1  0
 38 39  1  0
 39 42  1  0
 39 41  1  0
 40 38  2  0
 43 18  1  0
 43 44  1  0
 45 43  1  0
 46 47  1  0
 48 49  1  0
 48  1  1  0
 49 51  1  0
 51 50  1  0
 52 53  1  0
 52 49  1  0
 54 65  2  0
 55 53  1  0
 55 60  1  0
 56 64  1  0
 56 66  1  0
 57 63  1  0
 57 59  1  0
 58 64  1  0
 59 58  1  0
 60 59  2  0
 61 62  1  0
 61 55  2  0
 62 57  2  0
 63 56  1  0
 64 54  1  0
 66 68  2  0
 67 66  1  0
 69 67  1  0
 70 79  2  0
 70 75  1  0
 71 67  1  0
 71 75  1  0
 72 71  1  0
 73 74  1  0
 73 72  1  0
 74 70  1  0
 75 76  2  0
 76 77  1  0
 78 77  2  0
 79 78  1  0
 80 54  1  0
 80 81  1  0
 80 90  1  0
 81 84  1  0
 82 86  1  0
 82 81  1  0
 83 82  2  0
 86 85  1  0
 88 86  1  0
 88 89  1  0
 88 87  1  0
 90 93  1  1
 90 91  1  0
 92 90  1  0
M  ISO  4   8 100  16 100  52 101  53 101
M  END
>  <TORSDO>  (27) 
F 22

>  <SCORE>  (27) 
-12.748

>  <name>  (27) 
26

>  <ligand_id>  (27) 
26

>  <original_smiles>  (27) 
[H]c1c([H])c([H])c2c(c1[H])C([H])([H])C([H])([H])C([H])([H])C2([H])N([H])C(=O)C1([H])N(C(=O)C([H])(N([H])C(=O)C([H])(N([H])C([H])([H])[H])C([H])([H])[H])C(C([H])([H])[H])(C([H])([H])[H])C([H])([H])[H])C([H])([H])c2c([H])c(OC([H])([H])C([H])(C([H])([H])Oc3c([H])c([H])c(N([H])C(=O)N4C([H])([H])C([H])([H])C([H])([H])C([H])(n5nc(-c6c([H])c([H])c(Oc7c([H])c([H])c(F)c([H])c7F)c([H])c6[H])c(C(=O)N([H])[H])c5N([H])[H])C4([H])[H])c(C([H])([H])C([H])([H])[H])c3[H])C([H])([H])C([H])([H])[H])c([H])c([H])c2C1([H])[H]

>  <smiles>  (27) 
[H]c1c([H])c([H])c2c(c1[H])C([H])([H])C([H])([H])C([H])([H])C2([H])N([H])C(=O)C1([H])N(C(=O)C([H])(N([H])C(=O)C([H])(N([H])C([H])([H])[H])C([H])([H])[H])C(C([H])([H])[H])(C([H])([H])[H])C([H])([H])[H])C([H])([H])c2c([H])c(OC([H])([H])C([H])(C([H])([H])Oc3c([H])c([H])c(N([H])C(=O)N4C([H])([H])C([H])([H])C([H])([H])C([H])(n5nc(-c6c([H])c([H])c(Oc7c([H])c([H])c(F)c([H])c7F)c([H])c6[H])c(C(=O)N([H])[H])c5N([H])[H])C4([H])[H])c(C([H])([H])C([H])([H])[H])c3[H])C([H])([H])C([H])([H])[H])c([H])c([H])c2C1([H])[H]

$$$$
27:0:0
     RDKit          3D

 96104  0  0  1  0  0  0  0  0999 V2000
  -30.1350  -18.3570   20.2130 C   0  0  0  0  0  3  0  0  0  0  0  0
  -27.9760  -19.4430   20.0680 C   0  0  0  0  0  3  0  0  0  0  0  0
  -29.5600  -17.0090   20.1380 C   0  0  0  0  0  0  0  0  0  0  0  0
  -27.3530  -18.1870   20.0360 C   0  0  0  0  0  0  0  0  0  0  0  0
  -28.1160  -16.9860   20.1480 C   0  0  0  0  0  0  0  0  0  0  0  0
  -29.3620  -19.5990   20.2420 C   0  0  0  0  0  0  0  0  0  0  0  0
  -30.3430  -15.6520   20.3820 C   0  0  0  0  0  0  0  0  0  0  0  0
  -30.8840  -15.5230   21.5220 N   0  0  0  0  0  0  0  0  0  0  0  0
  -30.6900  -16.3300   22.1010 H   0  0  0  0  0  0  0  0  0  0  0  0
  -30.6260  -14.4450   19.3620 C   0  0  0  0  0  0  0  0  0  0  0  0
  -30.3090  -12.1060   18.4910 C   0  0  0  0  0  2  0  0  0  0  0  0
  -29.2530  -12.0540   17.3630 C   0  0  0  0  0  2  0  0  0  0  0  0
  -27.8320  -11.9190   17.9440 C   0  0  0  0  0  2  0  0  0  0  0  0
  -27.5820  -12.9030   19.1160 C   0  0  0  0  0  3  0  0  0  0  0  0
  -28.7440  -12.8620   20.1320 C   0  0  0  0  0  2  0  0  0  0  0  0
  -29.9760  -13.2200   19.4210 N   0  0  0  0  0  0  0  0  0  0  0  0
  -31.6130  -14.5540   18.6240 O   0  0  0  0  0  0  0  0  0  0  0  0
  -25.3180  -13.5890   20.1020 C   0  0  0  0  0  0  0  0  0  0  0  0
  -24.2750  -12.8660   20.6140 C   0  0  0  0  0  0  0  0  0  0  0  0
  -24.6740  -11.4970   20.5340 C   0  0  0  0  0  0  0  0  0  0  0  0
  -26.2920  -12.6690   19.7570 N   0  0  0  0  0  0  0  0  0  0  0  0
  -25.9160  -11.4030   20.0720 N   0  0  0  0  0  0  0  0  0  0  0  0
  -23.9230  -10.2670   20.8130 C   0  0  0  0  0  0  0  0  0  0  0  0
  -24.4000   -9.3000   21.7250 C   0  0  0  0  0  3  0  0  0  0  0  0
  -23.6500   -8.1340   21.9880 C   0  0  0  0  0  3  0  0  0  0  0  0
  -22.4090   -7.9270   21.3400 C   0  0  0  0  0  0  0  0  0  0  0  0
  -21.9510   -8.8810   20.4150 C   0  0  0  0  0  3  0  0  0  0  0  0
  -22.7010  -10.0400   20.1500 C   0  0  0  0  0  3  0  0  0  0  0  0
  -21.6260   -6.8120   21.5140 O   0  0  0  0  0  0  0  0  0  0  0  0
  -21.6040   -6.1270   22.7030 C   0  0  0  0  0  0  0  0  0  0  0  0
  -21.2240   -6.7480   23.9130 C   0  0  0  0  0  3  0  0  0  0  0  0
  -21.1490   -5.9900   25.0990 C   0  0  0  0  0  3  0  0  0  0  0  0
  -21.4430   -4.6130   25.0750 C   0  0  0  0  0  0  0  0  0  0  0  0
  -21.8150   -3.9920   23.8700 C   0  0  0  0  0  3  0  0  0  0  0  0
  -21.8930   -4.7470   22.6870 C   0  0  0  0  0  0  0  0  0  0  0  0
  -22.2330   -4.1400   21.5230 F   0  0  0  0  0  0  0  0  0  0  0  0
  -21.3620   -3.8820   26.2120 F   0  0  0  0  0  0  0  0  0  0  0  0
  -22.9450  -13.4040   21.0540 C   0  0  0  0  0  0  0  0  0  0  0  0
  -22.3040  -12.7460   22.0130 N   0  0  0  0  0  0  0  0  0  0  0  0
  -22.4850  -14.4420   20.5780 O   0  0  0  0  0  0  0  0  0  0  0  0
  -22.6890  -11.9050   22.4180 H   0  0  0  0  0  0  0  0  0  0  0  0
  -21.4140  -13.0880   22.3470 H   0  0  0  0  0  0  0  0  0  0  0  0
  -25.5130  -14.9420   19.8690 N   0  0  0  0  0  0  0  0  0  0  0  0
  -24.7900  -15.6260   20.0560 H   0  0  0  0  0  0  0  0  0  0  0  0
  -26.3420  -15.3440   19.4530 H   0  0  0  0  0  0  0  0  0  0  0  0
  -26.8640  -15.5720   21.8730 C   0  0  0  0  0  1  0  0  0  0  0  0
  -27.3140  -15.7020   20.4060 C   0  0  0  0  0  2  0  0  0  0  0  0
  -25.8190  -18.2170   19.9580 C   0  0  0  0  0  2  0  0  0  0  0  0
  -23.7700  -18.3680   18.4250 C   0  0  0  0  0  1  0  0  0  0  0  0
  -25.2970  -18.2810   18.5170 C   0  0  0  0  0  2  0  0  0  0  0  0
  -29.8800  -20.9220   20.4500 O   0  0  0  0  0  0  0  0  0  0  0  0
  -28.9640  -22.1040   20.6590 C   0  0  0  0  0  2  0  0  0  0  0  0
  -30.5200  -23.7450   21.8760 C   0  0  0  0  0  1  0  0  0  0  0  0
  -29.4740  -23.6480   20.7590 C   0  0  0  0  0  3  0  0  0  0  0  0
  -28.3550  -24.8170   20.9540 C   0  0  0  0  0  2  0  0  0  0  0  0
  -28.6340  -26.2930   20.7710 O   0  0  0  0  0  0  0  0  0  0  0  0
  -24.6660  -31.8520   23.2840 C   0  0  0  0  0  0  0  0  0  0  0  0
  -27.5370  -27.1780   20.6170 C   0  0  0  0  0  0  0  0  0  0  0  0
  -23.6000  -30.3700   21.6240 C   0  0  0  0  0  3  0  0  0  0  0  0
  -25.1690  -28.7890   20.3590 C   0  0  0  0  0  0  0  0  0  0  0  0
  -26.1430  -30.7140   21.6020 C   0  0  0  0  0  2  0  0  0  0  0  0
  -26.2890  -29.3080   21.0210 C   0  0  0  0  0  0  0  0  0  0  0  0
  -27.4780  -28.5160   21.1370 C   0  0  0  0  0  3  0  0  0  0  0  0
  -26.4020  -26.7350   19.9020 C   0  0  0  0  0  3  0  0  0  0  0  0
  -25.2330  -27.5110   19.7830 C   0  0  0  0  0  3  0  0  0  0  0  0
  -23.9200  -29.6470   20.2900 C   0  0  0  0  0  2  0  0  0  0  0  0
  -24.8190  -31.0000   22.2270 N   0  0  0  0  0  0  0  0  0  0  0  0
  -23.5450  -32.1330   23.7310 O   0  0  0  0  0  0  0  0  0  0  0  0
  -22.8880  -29.3810   22.5780 C   0  0  0  0  0  0  0  0  0  0  0  0
  -21.5660  -29.2070   22.3970 N   0  0  0  0  0  0  0  0  0  0  0  0
  -23.5250  -28.7700   23.4400 O   0  0  0  0  0  0  0  0  0  0  0  0
  -21.1110  -29.7540   21.6800 H   0  0  0  0  0  0  0  0  0  0  0  0
  -18.1560  -28.0730   22.8210 C   0  0  0  0  0  0  0  0  0  0  0  0
  -20.7110  -28.2910   23.1540 C   0  0  0  0  0  3  0  0  0  0  0  0
  -20.8010  -26.8540   22.5940 C   0  0  0  0  0  2  0  0  0  0  0  0
  -19.7200  -26.5410   21.5530 C   0  0  0  0  0  2  0  0  0  0  0  0
  -18.3250  -26.7170   22.1590 C   0  0  0  0  0  2  0  0  0  0  0  0
  -19.2760  -28.8210   23.2730 C   0  0  0  0  0  0  0  0  0  0  0  0
  -19.0650  -30.0910   23.8500 C   0  0  0  0  0  3  0  0  0  0  0  0
  -17.7670  -30.6180   23.9760 C   0  0  0  0  0  3  0  0  0  0  0  0
  -16.6600  -29.8700   23.5400 C   0  0  0  0  0  3  0  0  0  0  0  0
  -16.8550  -28.6000   22.9690 C   0  0  0  0  0  3  0  0  0  0  0  0
  -25.8940  -32.5320   23.9650 C   0  0  0  0  0  3  0  0  0  0  0  0
  -25.5380  -33.9360   24.2190 N   0  0  0  0  0  0  0  0  0  0  0  0
  -25.8870  -34.9660   23.4360 C   0  0  0  0  0  0  0  0  0  0  0  0
  -26.6110  -34.8370   22.4440 O   0  0  0  0  0  0  0  0  0  0  0  0
  -24.8980  -34.1050   24.9810 H   0  0  0  0  0  0  0  0  0  0  0  0
  -24.1300  -36.7000   22.9420 C   0  0  0  0  0  1  0  0  0  0  0  0
  -25.3500  -36.3620   23.8130 C   0  0  0  0  0  3  0  0  0  0  0  0
  -27.4330  -37.3370   24.6760 C   0  0  0  0  0  1  0  0  0  0  0  0
  -26.3600  -37.4360   23.6900 N   0  0  0  0  0  0  0  0  0  0  0  0
  -25.9250  -38.3500   23.7860 H   0  0  0  0  0  0  0  0  0  0  0  0
  -26.3360  -31.8210   25.3040 C   0  0  1  0  0  0  0  0  0  0  0  0
  -25.1780  -31.5970   26.3060 C   0  0  0  0  0  1  0  0  0  0  0  0
  -26.9710  -30.4420   25.0070 C   0  0  0  0  0  1  0  0  0  0  0  0
  -27.4190  -32.6700   26.0110 C   0  0  0  0  0  1  0  0  0  0  0  0
  1  6  1  0
  2  6  2  0
  3  5  1  0
  3  1  2  0
  3  7  1  0
  4  2  1  0
  4  5  2  0
  5 47  1  0
  6 51  1  0
  7  8  2  0
  8  9  1  0
 10 16  1  0
 10  7  1  0
 11 16  1  0
 12 13  1  0
 12 11  1  0
 14 13  1  0
 14 21  1  0
 14 15  1  0
 16 15  1  0
 17 10  2  0
 18 19  2  0
 19 38  1  0
 20 19  1  0
 20 23  1  0
 21 22  1  0
 21 18  1  0
 22 20  2  0
 23 24  1  0
 24 25  2  0
 26 29  1  0
 26 25  1  0
 27 26  2  0
 28 27  1  0
 28 23  2  0
 29 30  1  0
 30 31  1  0
 31 32  2  0
 33 32  1  0
 33 37  1  0
 34 33  2  0
 35 30  2  0
 35 34  1  0
 36 35  1  0
 38 39  1  0
 39 42  1  0
 39 41  1  0
 40 38  2  0
 43 44  1  0
 43 18  1  0
 45 43  1  0
 47 46  1  0
 48  4  1  0
 49 50  1  0
 50 48  1  0
 51 52  1  0
 52 54  1  0
 54 55  1  0
 54 53  1  0
 56 55  1  0
 57 68  2  0
 58 56  1  0
 58 63  1  0
 59 67  1  0
 59 69  1  0
 60 62  1  0
 61 67  1  0
 62 63  2  0
 62 61  1  0
 64 58  2  0
 65 64  1  0
 65 60  2  0
 66 60  1  0
 66 59  1  0
 67 57  1  0
 69 71  2  0
 70 69  1  0
 72 70  1  0
 73 82  2  0
 73 78  1  0
 74 70  1  0
 74 78  1  0
 75 74  1  0
 76 77  1  0
 76 75  1  0
 77 73  1  0
 78 79  2  0
 79 80  1  0
 81 80  2  0
 82 81  1  0
 83 57  1  0
 83 84  1  0
 83 93  1  0
 84 87  1  0
 85 89  1  0
 85 84  1  0
 86 85  2  0
 89 88  1  0
 91 92  1  0
 91 89  1  0
 91 90  1  0
 93 96  1  1
 93 94  1  0
 95 93  1  0
M  ISO  4   7 100  10 100  55 101  56 101
M  END
>  <TORSDO>  (28) 
F 24

>  <SCORE>  (28) 
-6.305

>  <name>  (28) 
27

>  <ligand_id>  (28) 
27

>  <original_smiles>  (28) 
[H]N=C(C(=O)N1C([H])([H])C([H])([H])C([H])([H])C([H])(n2nc(-c3c([H])c([H])c(Oc4c([H])c([H])c(F)c([H])c4F)c([H])c3[H])c(C(=O)N([H])[H])c2N([H])[H])C1([H])[H])c1c([H])c(OC([H])([H])C([H])(C([H])([H])[H])C([H])([H])Oc2c([H])c([H])c3c(c2[H])C([H])([H])N(C(=O)C([H])(N([H])C(=O)C([H])(N([H])C([H])([H])[H])C([H])([H])[H])C(C([H])([H])[H])(C([H])([H])[H])C([H])([H])[H])C([H])(C(=O)N([H])C2([H])c4c([H])c([H])c([H])c([H])c4C([H])([H])C([H])([H])C2([H])[H])C3([H])[H])c([H])c(C([H])([H])C([H])([H])C([H])([H])[H])c1C([H])([H])C([H])([H])[H]

>  <smiles>  (28) 
[H]N=C(C(=O)N1C([H])([H])C([H])([H])C([H])([H])C([H])(n2nc(-c3c([H])c([H])c(Oc4c([H])c([H])c(F)c([H])c4F)c([H])c3[H])c(C(=O)N([H])[H])c2N([H])[H])C1([H])[H])c1c([H])c(OC([H])([H])C([H])(C([H])([H])[H])C([H])([H])Oc2c([H])c([H])c3c(c2[H])C([H])([H])N(C(=O)C([H])(N([H])C(=O)C([H])(N([H])C([H])([H])[H])C([H])([H])[H])C(C([H])([H])[H])(C([H])([H])[H])C([H])([H])[H])C([H])(C(=O)N([H])C2([H])c4c([H])c([H])c([H])c([H])c4C([H])([H])C([H])([H])C2([H])[H])C3([H])[H])c([H])c(C([H])([H])C([H])([H])C([H])([H])[H])c1C([H])([H])C([H])([H])[H]

$$$$
28:0:0
     RDKit          3D

 95103  0  0  1  0  0  0  0  0999 V2000
  -29.9490  -21.7800   21.3820 C   0  0  0  0  0  2  0  0  0  0  0  0
  -29.0530  -19.5700   20.4010 C   0  0  0  0  0  3  0  0  0  0  0  0
  -31.2120  -17.9960   21.1870 C   0  0  0  0  0  3  0  0  0  0  0  0
  -29.0180  -18.1530   20.2390 C   0  0  0  0  0  0  0  0  0  0  0  0
  -30.1430  -20.2640   20.9590 C   0  0  0  0  0  0  0  0  0  0  0  0
  -30.0880  -17.2940   20.6530 C   0  0  0  0  0  0  0  0  0  0  0  0
  -31.2380  -19.4300   21.3430 C   0  0  0  0  0  0  0  0  0  0  0  0
  -32.3190  -19.9980   21.9350 F   0  0  0  0  0  0  0  0  0  0  0  0
  -30.6900  -14.7550   20.0880 C   0  0  0  0  0  0  0  0  0  0  0  0
  -30.3990  -12.5390   18.9510 C   0  0  0  0  0  2  0  0  0  0  0  0
  -29.3830  -12.6820   17.7970 C   0  0  0  0  0  2  0  0  0  0  0  0
  -27.9360  -12.5070   18.3020 C   0  0  0  0  0  2  0  0  0  0  0  0
  -27.6490  -13.3280   19.5860 C   0  0  0  0  0  3  0  0  0  0  0  0
  -28.7780  -13.1630   20.6320 C   0  0  0  0  0  2  0  0  0  0  0  0
  -30.0480  -13.5380   19.9860 N   0  0  0  0  0  0  0  0  0  0  0  0
  -31.8320  -14.9000   19.6430 O   0  0  0  0  0  0  0  0  0  0  0  0
  -29.9290  -15.8170   20.5370 N   0  0  0  0  0  0  0  0  0  0  0  0
  -29.0070  -15.4980   20.7920 H   0  0  0  0  0  0  0  0  0  0  0  0
  -25.2950  -13.8920   20.4550 C   0  0  0  0  0  0  0  0  0  0  0  0
  -24.2540  -13.1190   20.8760 C   0  0  0  0  0  0  0  0  0  0  0  0
  -24.7050  -11.7710   20.7670 C   0  0  0  0  0  0  0  0  0  0  0  0
  -26.3290  -13.0260   20.1410 N   0  0  0  0  0  0  0  0  0  0  0  0
  -25.9780  -11.7360   20.3840 N   0  0  0  0  0  0  0  0  0  0  0  0
  -23.9780  -10.5120   20.9480 C   0  0  0  0  0  0  0  0  0  0  0  0
  -24.3980   -9.5490   21.8910 C   0  0  0  0  0  3  0  0  0  0  0  0
  -23.6670   -8.3540   22.0640 C   0  0  0  0  0  3  0  0  0  0  0  0
  -22.5040   -8.1160   21.2940 C   0  0  0  0  0  0  0  0  0  0  0  0
  -22.1050   -9.0680   20.3410 C   0  0  0  0  0  3  0  0  0  0  0  0
  -22.8360  -10.2530   20.1650 C   0  0  0  0  0  3  0  0  0  0  0  0
  -21.7490   -6.9710   21.3760 O   0  0  0  0  0  0  0  0  0  0  0  0
  -21.5960   -6.2910   22.5570 C   0  0  0  0  0  0  0  0  0  0  0  0
  -21.0210   -6.8980   23.6940 C   0  0  0  0  0  3  0  0  0  0  0  0
  -20.8150   -6.1430   24.8670 C   0  0  0  0  0  3  0  0  0  0  0  0
  -21.1780   -4.7830   24.9020 C   0  0  0  0  0  0  0  0  0  0  0  0
  -21.7490   -4.1770   23.7690 C   0  0  0  0  0  3  0  0  0  0  0  0
  -21.9540   -4.9280   22.5980 C   0  0  0  0  0  0  0  0  0  0  0  0
  -22.4840   -4.3340   21.5020 F   0  0  0  0  0  0  0  0  0  0  0  0
  -20.9740   -4.0570   26.0250 F   0  0  0  0  0  0  0  0  0  0  0  0
  -22.8810  -13.6030   21.2480 C   0  0  0  0  0  0  0  0  0  0  0  0
  -22.2080  -12.8980   22.1480 N   0  0  0  0  0  0  0  0  0  0  0  0
  -22.4200  -14.6410   20.7780 O   0  0  0  0  0  0  0  0  0  0  0  0
  -22.5960  -12.0560   22.5470 H   0  0  0  0  0  0  0  0  0  0  0  0
  -21.2880  -13.2000   22.4400 H   0  0  0  0  0  0  0  0  0  0  0  0
  -25.4260  -15.2560   20.2830 N   0  0  0  0  0  0  0  0  0  0  0  0
  -24.6390  -15.8780   20.4220 H   0  0  0  0  0  0  0  0  0  0  0  0
  -26.1960  -15.7020   19.8050 H   0  0  0  0  0  0  0  0  0  0  0  0
  -27.6120  -18.1560   18.1600 C   0  0  0  0  0  1  0  0  0  0  0  0
  -27.7490  -17.6290   19.6010 C   0  0  0  0  0  2  0  0  0  0  0  0
  -29.6020  -23.0320   20.4080 C   0  0  0  0  0  2  0  0  0  0  0  0
  -27.1290  -23.6790   20.4630 C   0  0  0  0  0  1  0  0  0  0  0  0
  -28.5230  -24.1550   20.9080 C   0  0  1  0  0  0  0  0  0  0  0  0
  -29.7550  -24.8350   23.1310 C   0  0  0  0  0  1  0  0  0  0  0  0
  -28.5200  -24.1910   22.4700 C   0  0  0  0  0  2  0  0  0  0  0  0
  -28.6350  -25.7200   20.4720 C   0  0  0  0  0  2  0  0  0  0  0  0
  -27.8430  -26.3660   19.4230 O   0  0  0  0  0  0  0  0  0  0  0  0
  -24.4420  -31.7500   23.0100 C   0  0  0  0  0  0  0  0  0  0  0  0
  -26.7840  -27.2590   19.6530 C   0  0  0  0  0  0  0  0  0  0  0  0
  -23.1210  -30.4640   21.3670 C   0  0  0  0  0  3  0  0  0  0  0  0
  -24.4640  -28.9330   19.8180 C   0  0  0  0  0  0  0  0  0  0  0  0
  -25.6590  -30.7150   21.0820 C   0  0  0  0  0  2  0  0  0  0  0  0
  -25.6730  -29.3560   20.3900 C   0  0  0  0  0  0  0  0  0  0  0  0
  -26.8370  -28.5280   20.3110 C   0  0  0  0  0  3  0  0  0  0  0  0
  -25.5570  -26.8940   19.0610 C   0  0  0  0  0  3  0  0  0  0  0  0
  -24.4060  -27.7010   19.1470 C   0  0  0  0  0  3  0  0  0  0  0  0
  -23.2570  -29.8400   19.9520 C   0  0  0  0  0  2  0  0  0  0  0  0
  -24.4290  -30.9910   21.8750 N   0  0  0  0  0  0  0  0  0  0  0  0
  -23.3950  -32.0340   23.6080 O   0  0  0  0  0  0  0  0  0  0  0  0
  -22.4700  -29.4250   22.3120 C   0  0  0  0  0  0  0  0  0  0  0  0
  -21.1360  -29.2850   22.2300 N   0  0  0  0  0  0  0  0  0  0  0  0
  -23.1620  -28.7520   23.0780 O   0  0  0  0  0  0  0  0  0  0  0  0
  -20.6360  -29.8780   21.5820 H   0  0  0  0  0  0  0  0  0  0  0  0
  -17.7500  -28.1550   22.8230 C   0  0  0  0  0  0  0  0  0  0  0  0
  -20.3230  -28.3380   22.9950 C   0  0  0  0  0  3  0  0  0  0  0  0
  -20.3640  -26.9300   22.3570 C   0  0  0  0  0  2  0  0  0  0  0  0
  -19.2120  -26.6790   21.3770 C   0  0  0  0  0  2  0  0  0  0  0  0
  -17.8630  -26.8330   22.0850 C   0  0  0  0  0  2  0  0  0  0  0  0
  -18.9050  -28.8690   23.2370 C   0  0  0  0  0  0  0  0  0  0  0  0
  -18.7460  -30.1090   23.8920 C   0  0  0  0  0  3  0  0  0  0  0  0
  -17.4630  -30.6350   24.1350 C   0  0  0  0  0  3  0  0  0  0  0  0
  -16.3220  -29.9160   23.7360 C   0  0  0  0  0  3  0  0  0  0  0  0
  -16.4670  -28.6780   23.0860 C   0  0  0  0  0  3  0  0  0  0  0  0
  -25.7720  -32.3140   23.5970 C   0  0  0  0  0  3  0  0  0  0  0  0
  -25.5200  -33.7010   24.0080 N   0  0  0  0  0  0  0  0  0  0  0  0
  -25.8850  -34.7810   23.3060 C   0  0  0  0  0  0  0  0  0  0  0  0
  -26.5370  -34.7110   22.2600 O   0  0  0  0  0  0  0  0  0  0  0  0
  -24.9410  -33.8310   24.8250 H   0  0  0  0  0  0  0  0  0  0  0  0
  -24.2380  -36.6680   23.0680 C   0  0  0  0  0  1  0  0  0  0  0  0
  -25.4620  -36.1600   23.8470 C   0  0  0  0  0  3  0  0  0  0  0  0
  -27.6320  -36.9050   24.7230 C   0  0  0  0  0  1  0  0  0  0  0  0
  -26.5400  -37.1710   23.7910 N   0  0  0  0  0  0  0  0  0  0  0  0
  -26.1730  -38.0980   23.9920 H   0  0  0  0  0  0  0  0  0  0  0  0
  -26.3220  -31.4660   24.8090 C   0  0  1  0  0  0  0  0  0  0  0  0
  -25.2730  -31.2110   25.9180 C   0  0  0  0  0  1  0  0  0  0  0  0
  -26.8420  -30.0920   24.3270 C   0  0  0  0  0  1  0  0  0  0  0  0
  -27.5260  -32.1950   25.4520 C   0  0  0  0  0  1  0  0  0  0  0  0
  2  5  1  0
  3  7  1  0
  4  2  2  0
  4  6  1  0
  5  7  2  0
  5  1  1  0
  6  3  2  0
  7  8  1  0
  9 17  1  0
 10 15  1  0
 11 12  1  0
 11 10  1  0
 13 12  1  0
 13 22  1  0
 13 14  1  0
 15  9  1  0
 15 14  1  0
 16  9  2  0
 17  6  1  0
 17 18  1  0
 19 20  2  0
 20 39  1  0
 21 20  1  0
 21 24  1  0
 22 23  1  0
 22 19  1  0
 23 21  2  0
 24 25  1  0
 25 26  2  0
 27 30  1  0
 27 26  1  0
 28 27  2  0
 29 28  1  0
 29 24  2  0
 30 31  1  0
 31 36  2  0
 31 32  1  0
 32 33  2  0
 33 34  1  0
 34 38  1  0
 35 34  2  0
 36 35  1  0
 37 36  1  0
 39 40  1  0
 40 43  1  0
 40 42  1  0
 41 39  2  0
 44 45  1  0
 44 19  1  0
 46 44  1  0
 47 48  1  0
 48  4  1  0
 49 51  1  0
 49  1  1  0
 51 50  1  6
 51 53  1  0
 53 52  1  0
 54 51  1  0
 55 57  1  0
 55 54  1  0
 56 67  2  0
 57 62  1  0
 58 66  1  0
 58 68  1  0
 59 65  1  0
 59 61  1  0
 60 66  1  0
 61 60  1  0
 62 61  2  0
 63 64  1  0
 63 57  2  0
 64 59  2  0
 65 58  1  0
 66 56  1  0
 68 70  2  0
 69 68  1  0
 71 69  1  0
 72 81  2  0
 72 77  1  0
 73 69  1  0
 73 77  1  0
 74 73  1  0
 75 76  1  0
 75 74  1  0
 76 72  1  0
 77 78  2  0
 78 79  1  0
 80 79  2  0
 81 80  1  0
 82 56  1  0
 82 83  1  0
 82 92  1  0
 83 86  1  0
 84 88  1  0
 84 83  1  0
 85 84  2  0
 88 87  1  0
 90 88  1  0
 90 91  1  0
 90 89  1  0
 92 95  1  1
 92 93  1  0
 94 92  1  0
M  ISO  4   9 100  17 100  54 101  55 101
M  END
>  <TORSDO>  (29) 
F 22

>  <SCORE>  (29) 
-12.860

>  <name>  (29) 
28

>  <ligand_id>  (29) 
28

>  <original_smiles>  (29) 
[H]c1c([H])c([H])c2c(c1[H])C([H])([H])C([H])([H])C([H])([H])C2([H])N([H])C(=O)C1([H])N(C(=O)C([H])(N([H])C(=O)C([H])(N([H])C([H])([H])[H])C([H])([H])[H])C(C([H])([H])[H])(C([H])([H])[H])C([H])([H])[H])C([H])([H])c2c([H])c(OC([H])([H])C(C([H])([H])[H])(C([H])([H])C([H])([H])[H])C([H])([H])C([H])([H])c3c([H])c(C([H])([H])C([H])([H])[H])c(N([H])C(=O)N4C([H])([H])C([H])([H])C([H])([H])C([H])(n5nc(-c6c([H])c([H])c(Oc7c([H])c([H])c(F)c([H])c7F)c([H])c6[H])c(C(=O)N([H])[H])c5N([H])[H])C4([H])[H])c([H])c3F)c([H])c([H])c2C1([H])[H]

>  <smiles>  (29) 
[H]c1c([H])c([H])c2c(c1[H])C([H])([H])C([H])([H])C([H])([H])C2([H])N([H])C(=O)C1([H])N(C(=O)C([H])(N([H])C(=O)C([H])(N([H])C([H])([H])[H])C([H])([H])[H])C(C([H])([H])[H])(C([H])([H])[H])C([H])([H])[H])C([H])([H])c2c([H])c(OC([H])([H])C(C([H])([H])[H])(C([H])([H])C([H])([H])[H])C([H])([H])C([H])([H])c3c([H])c(C([H])([H])C([H])([H])[H])c(N([H])C(=O)N4C([H])([H])C([H])([H])C([H])([H])C([H])(n5nc(-c6c([H])c([H])c(Oc7c([H])c([H])c(F)c([H])c7F)c([H])c6[H])c(C(=O)N([H])[H])c5N([H])[H])C4([H])[H])c([H])c3F)c([H])c([H])c2C1([H])[H]

$$$$
29:0:0
     RDKit          3D

 93100  0  0  1  0  0  0  0  0999 V2000
  -29.1550  -13.0490   18.9570 C   0  0  0  0  0  2  0  0  0  0  0  0
  -29.1110  -13.1410   20.4470 C   0  0  0  0  0  2  0  0  0  0  0  0
  -29.3590  -14.8610   17.6990 C   0  0  0  0  0  1  0  0  0  0  0  0
  -29.5000  -14.4020   21.0810 C   0  0  0  0  0  3  0  0  0  0  0  0
  -29.3900  -15.8720   20.3570 C   0  0  0  0  0  0  0  0  0  0  0  0
  -29.4780  -16.3270   18.7670 C   0  0  0  0  0  3  0  0  0  0  0  0
  -30.9320  -13.5640   21.3640 C   0  0  0  0  0  0  0  0  0  0  0  0
  -31.2910  -13.2440   22.5360 N   0  0  0  0  0  0  0  0  0  0  0  0
  -30.5970  -13.5340   23.2140 H   0  0  0  0  0  0  0  0  0  0  0  0
  -31.9670  -13.2230   19.8980 C   0  0  2  0  0  0  0  0  0  0  0  0
  -31.0740  -12.1040   17.3750 C   0  0  0  0  0  2  0  0  0  0  0  0
  -29.3420  -11.9080   16.6550 C   0  0  0  0  0  2  0  0  0  0  0  0
  -27.6330  -12.3490   17.4150 C   0  0  0  0  0  1  0  0  0  0  0  0
  -27.5080  -13.6340   18.9560 C   0  0  0  0  0  2  0  0  0  0  0  0
  -30.6880  -14.3200   19.1300 C   0  0  0  0  0  2  0  0  0  0  0  0
  -31.5610  -13.2020   18.5950 N   0  0  0  0  0  0  0  0  0  0  0  0
  -33.1650  -13.4140   19.7850 O   0  0  0  0  0  1  0  0  0  0  0  0
  -25.9900  -13.6880   20.7030 C   0  0  0  0  0  0  0  0  0  0  0  0
  -24.9940  -12.9240   21.1620 C   0  0  0  0  0  0  0  0  0  0  0  0
  -25.2080  -11.5770   20.7290 C   0  0  0  0  0  0  0  0  0  0  0  0
  -26.6830  -12.8950   19.9050 N   0  0  0  0  0  0  0  0  0  0  0  0
  -26.2970  -11.5550   19.9420 N   0  0  0  0  0  0  0  0  0  0  0  0
  -24.3390  -10.4010   20.9750 C   0  0  0  0  0  0  0  0  0  0  0  0
  -24.7490   -9.2830   21.7400 C   0  0  0  0  0  3  0  0  0  0  0  0
  -23.8370   -8.2430   22.0500 C   0  0  0  0  0  3  0  0  0  0  0  0
  -22.4950   -8.3120   21.6010 C   0  0  0  0  0  0  0  0  0  0  0  0
  -22.0990   -9.4100   20.8210 C   0  0  0  0  0  3  0  0  0  0  0  0
  -23.0080  -10.4370   20.5090 C   0  0  0  0  0  3  0  0  0  0  0  0
  -21.5440   -7.3420   21.8290 O   0  0  0  0  0  0  0  0  0  0  0  0
  -21.5850   -6.5260   22.9320 C   0  0  0  0  0  0  0  0  0  0  0  0
  -21.5320   -7.0440   24.2440 C   0  0  0  0  0  3  0  0  0  0  0  0
  -21.5040   -6.1680   25.3480 C   0  0  0  0  0  3  0  0  0  0  0  0
  -21.5220   -4.7750   25.1450 C   0  0  0  0  0  0  0  0  0  0  0  0
  -21.5650   -4.2560   23.8380 C   0  0  0  0  0  3  0  0  0  0  0  0
  -21.5920   -5.1300   22.7350 C   0  0  0  0  0  0  0  0  0  0  0  0
  -21.6110   -4.6230   21.4790 F   0  0  0  0  0  0  0  0  0  0  0  0
  -21.4930   -3.9330   26.2020 F   0  0  0  0  0  0  0  0  0  0  0  0
  -23.8460  -13.5370   21.8560 C   0  0  0  0  0  0  0  0  0  0  0  0
  -23.3150  -12.8540   22.8510 N   0  0  0  0  0  0  0  0  0  0  0  0
  -23.4810  -14.6750   21.5570 O   0  0  0  0  0  0  0  0  0  0  0  0
  -23.6590  -11.9380   23.0970 H   0  0  0  0  0  0  0  0  0  0  0  0
  -22.5520  -13.2490   23.3820 H   0  0  0  0  0  0  0  0  0  0  0  0
  -26.3010  -15.0430   20.7950 N   0  0  0  0  0  0  0  0  0  0  0  0
  -25.7180  -15.7010   21.3000 H   0  0  0  0  0  0  0  0  0  0  0  0
  -27.1260  -15.4610   20.3850 H   0  0  0  0  0  0  0  0  0  0  0  0
  -29.6840  -16.6700   22.8210 C   0  0  0  0  0  1  0  0  0  0  0  0
  -29.5860  -17.0370   21.3300 C   0  0  0  0  0  3  0  0  0  0  0  0
  -29.9250  -17.9410   18.8410 O   0  0  0  0  0  0  0  0  0  0  0  0
  -30.2390  -19.6060   18.1890 C   0  0  0  0  0  2  0  0  0  0  0  0
  -30.6960  -21.3420   18.9280 C   0  0  0  0  0  0  0  0  0  0  0  0
  -31.4350  -21.2070   19.9070 O   0  0  0  0  0  0  0  0  0  0  0  0
  -30.3540  -23.2240   18.6070 C   0  0  0  0  0  2  0  0  0  0  0  0
  -30.7270  -24.8630   19.3300 O   0  0  0  0  0  0  0  0  0  0  0  0
  -27.0610  -30.1620   23.9520 C   0  0  0  0  0  0  0  0  0  0  0  0
  -29.8880  -26.1670   19.6570 C   0  0  0  0  0  0  0  0  0  0  0  0
  -26.0840  -29.3620   21.8540 C   0  0  0  0  0  3  0  0  0  0  0  0
  -27.6850  -28.2390   20.1240 C   0  0  0  0  0  0  0  0  0  0  0  0
  -28.6660  -29.4520   22.0460 C   0  0  0  0  0  2  0  0  0  0  0  0
  -28.8090  -28.3020   20.9530 C   0  0  0  0  0  0  0  0  0  0  0  0
  -29.9020  -27.2940   20.7020 C   0  0  0  0  0  3  0  0  0  0  0  0
  -28.7530  -26.3750   18.8530 C   0  0  0  0  0  3  0  0  0  0  0  0
  -27.7060  -27.3130   19.0720 C   0  0  0  0  0  3  0  0  0  0  0  0
  -26.4760  -29.1540   20.3650 C   0  0  0  0  0  2  0  0  0  0  0  0
  -27.2920  -29.6780   22.6800 N   0  0  0  0  0  0  0  0  0  0  0  0
  -25.9100  -30.2980   24.4070 O   0  0  0  0  0  0  0  0  0  0  0  0
  -25.2990  -28.1290   22.3800 C   0  0  0  0  0  0  0  0  0  0  0  0
  -24.0010  -28.0080   22.0420 N   0  0  0  0  0  0  0  0  0  0  0  0
  -25.8760  -27.2890   23.0740 O   0  0  0  0  0  0  0  0  0  0  0  0
  -23.5830  -28.7400   21.4850 H   0  0  0  0  0  0  0  0  0  0  0  0
  -20.6570  -26.6290   21.6720 C   0  0  0  0  0  0  0  0  0  0  0  0
  -23.1330  -26.8730   22.3880 C   0  0  0  0  0  3  0  0  0  0  0  0
  -23.4060  -25.6640   21.4620 C   0  0  0  0  0  2  0  0  0  0  0  0
  -22.4820  -25.6180   20.2420 C   0  0  0  0  0  2  0  0  0  0  0  0
  -21.0180  -25.5380   20.6780 C   0  0  0  0  0  2  0  0  0  0  0  0
  -21.6510  -27.2670   22.4620 C   0  0  0  0  0  0  0  0  0  0  0  0
  -21.2610  -28.2940   23.3500 C   0  0  0  0  0  3  0  0  0  0  0  0
  -19.9110  -28.6840   23.4520 C   0  0  0  0  0  3  0  0  0  0  0  0
  -18.9330  -28.0410   22.6750 C   0  0  0  0  0  3  0  0  0  0  0  0
  -19.3050  -27.0140   21.7900 C   0  0  0  0  0  3  0  0  0  0  0  0
  -28.2240  -30.5820   24.8980 C   0  0  0  0  0  3  0  0  0  0  0  0
  -27.7770  -31.7420   25.6970 N   0  0  0  0  0  0  0  0  0  0  0  0
  -28.1790  -33.0080   25.5210 C   0  0  0  0  0  0  0  0  0  0  0  0
  -29.0210  -33.3240   24.6780 O   0  0  0  0  0  0  0  0  0  0  0  0
  -27.0410  -31.5650   26.3650 H   0  0  0  0  0  0  0  0  0  0  0  0
  -26.4910  -34.8790   25.6320 C   0  0  0  0  0  1  0  0  0  0  0  0
  -27.5550  -34.0980   26.4200 C   0  0  0  0  0  3  0  0  0  0  0  0
  -29.4350  -34.4420   27.9660 C   0  0  0  0  0  1  0  0  0  0  0  0
  -28.5460  -35.0460   26.9770 N   0  0  0  0  0  0  0  0  0  0  0  0
  -28.0810  -35.8390   27.4120 H   0  0  0  0  0  0  0  0  0  0  0  0
  -28.6770  -29.4200   25.8670 C   0  0  1  0  0  0  0  0  0  0  0  0
  -27.5160  -28.7860   26.6710 C   0  0  0  0  0  1  0  0  0  0  0  0
  -29.3740  -28.2830   25.0880 C   0  0  0  0  0  1  0  0  0  0  0  0
  -29.7190  -29.9560   26.8770 C   0  0  0  0  0  1  0  0  0  0  0  0
  1  2  1  0
  4  2  1  0
  4  7  1  0
  5  4  1  0
  5 47  2  0
  6  3  1  0
  6 48  1  0
  6  5  1  0
  7  8  2  0
  8  9  1  0
 10 17  1  1
 10  7  1  0
 11 16  1  0
 12 11  1  0
 12 13  1  0
 14  1  1  0
 14 21  1  0
 15 10  1  0
 16 15  1  0
 16 10  1  0
 18 43  1  0
 18 19  2  0
 19 38  1  0
 20 23  1  0
 20 19  1  0
 21 22  1  0
 21 18  1  0
 22 20  2  0
 23 24  1  0
 24 25  2  0
 26 29  1  0
 26 25  1  0
 27 26  2  0
 28 27  1  0
 28 23  2  0
 29 30  1  0
 30 31  1  0
 31 32  2  0
 33 32  1  0
 33 37  1  0
 34 33  2  0
 35 30  2  0
 35 34  1  0
 36 35  1  0
 38 39  1  0
 39 41  1  0
 39 42  1  0
 40 38  2  0
 43 44  1  0
 45 43  1  0
 47 46  1  0
 49 48  1  0
 49 50  1  0
 50 51  2  0
 52 50  1  0
 52 53  1  0
 53 55  1  0
 54 65  2  0
 55 60  1  0
 56 66  1  0
 56 64  1  0
 57 63  1  0
 57 59  1  0
 58 64  1  0
 59 58  1  0
 60 59  2  0
 61 62  1  0
 61 55  2  0
 62 57  2  0
 63 56  1  0
 64 54  1  0
 66 68  2  0
 67 66  1  0
 69 67  1  0
 70 79  2  0
 70 75  1  0
 71 67  1  0
 71 75  1  0
 72 71  1  0
 73 74  1  0
 73 72  1  0
 74 70  1  0
 75 76  2  0
 76 77  1  0
 78 77  2  0
 79 78  1  0
 80 54  1  0
 80 81  1  0
 80 90  1  0
 81 84  1  0
 82 81  1  0
 82 86  1  0
 83 82  2  0
 86 85  1  0
 86 88  1  0
 88 89  1  0
 88 87  1  0
 90 91  1  1
 90 93  1  0
 92 90  1  0
M  ISO  4   7 100  10 100  52 101  53 101
M  END
>  <TORSDO>  (30) 
F 22

>  <SCORE>  (30) 
-1.137

>  <name>  (30) 
29

>  <ligand_id>  (30) 
29

>  <original_smiles>  (30) 
[H]N=C(C(=O)N1C([H])([H])C([H])([H])C([H])([H])C([H])(n2nc(-c3c([H])c([H])c(Oc4c([H])c([H])c(F)c([H])c4F)c([H])c3[H])c(C(=O)N([H])[H])c2N([H])[H])C1([H])[H])c1c([H])c([H])c([H])c(OC([H])([H])C(=O)C([H])([H])Oc2c([H])c([H])c3c(c2[H])C([H])([H])N(C(=O)C([H])(N([H])C(=O)C([H])(N([H])C([H])([H])[H])C([H])([H])[H])C(C([H])([H])[H])(C([H])([H])[H])C([H])([H])[H])C([H])(C(=O)N([H])C2([H])c4c([H])c([H])c([H])c([H])c4C([H])([H])C([H])([H])C2([H])[H])C3([H])[H])c1C([H])([H])C([H])([H])[H]

>  <smiles>  (30) 
[H]N=C(C(=O)N1C([H])([H])C([H])([H])C([H])([H])C([H])(n2nc(-c3c([H])c([H])c(Oc4c([H])c([H])c(F)c([H])c4F)c([H])c3[H])c(C(=O)N([H])[H])c2N([H])[H])C1([H])[H])c1c([H])c([H])c([H])c(OC([H])([H])C(=O)C([H])([H])Oc2c([H])c([H])c3c(c2[H])C([H])([H])N(C(=O)C([H])(N([H])C(=O)C([H])(N([H])C([H])([H])[H])C([H])([H])[H])C(C([H])([H])[H])(C([H])([H])[H])C([H])([H])[H])C([H])(C(=O)N([H])C2([H])c4c([H])c([H])c([H])c([H])c4C([H])([H])C([H])([H])C2([H])[H])C3([H])[H])c1C([H])([H])C([H])([H])[H]

$$$$
30:0:0
     RDKit          3D

 94102  0  0  1  0  0  0  0  0999 V2000
  -30.7790  -22.0970   19.0010 C   0  0  0  0  0  1  0  0  0  0  0  0
  -30.4420  -21.9390   20.4960 C   0  0  0  0  0  3  0  0  0  0  0  0
  -30.3500  -23.3010   21.2250 C   0  0  0  0  0  0  0  0  0  0  0  0
  -30.6480  -23.3950   22.4220 O   0  0  0  0  0  0  0  0  0  0  0  0
  -29.8540  -24.5300   20.4370 C   0  0  0  0  0  2  0  0  0  0  0  0
  -29.5110  -25.7530   21.3140 C   0  0  0  0  0  2  0  0  0  0  0  0
  -29.4700  -26.9450   20.5240 O   0  0  0  0  0  0  0  0  0  0  0  0
  -25.0960  -31.6470   23.5920 C   0  0  0  0  0  0  0  0  0  0  0  0
  -28.2540  -27.5810   20.5040 C   0  0  0  0  0  0  0  0  0  0  0  0
  -24.1070  -30.2610   21.7960 C   0  0  0  0  0  3  0  0  0  0  0  0
  -25.7620  -28.8990   20.4120 C   0  0  0  0  0  0  0  0  0  0  0  0
  -26.6060  -30.8020   21.8000 C   0  0  0  0  0  2  0  0  0  0  0  0
  -26.8330  -29.4760   21.1050 C   0  0  0  0  0  0  0  0  0  0  0  0
  -28.0840  -28.8240   21.1490 C   0  0  0  0  0  3  0  0  0  0  0  0
  -27.1700  -27.0060   19.8100 C   0  0  0  0  0  3  0  0  0  0  0  0
  -25.9240  -27.6620   19.7600 C   0  0  0  0  0  3  0  0  0  0  0  0
  -24.4590  -29.6670   20.4050 C   0  0  0  0  0  2  0  0  0  0  0  0
  -25.2830  -30.9160   22.4560 N   0  0  0  0  0  0  0  0  0  0  0  0
  -23.9640  -31.8170   24.0660 O   0  0  0  0  0  0  0  0  0  0  0  0
  -23.4640  -29.1490   22.6560 C   0  0  0  0  0  0  0  0  0  0  0  0
  -22.1830  -28.8510   22.3860 N   0  0  0  0  0  0  0  0  0  0  0  0
  -24.1180  -28.5580   23.5190 O   0  0  0  0  0  0  0  0  0  0  0  0
  -21.7150  -29.3840   21.6660 H   0  0  0  0  0  0  0  0  0  0  0  0
  -18.9270  -27.2870   22.4350 C   0  0  0  0  0  0  0  0  0  0  0  0
  -21.3840  -27.8150   23.0390 C   0  0  0  0  0  3  0  0  0  0  0  0
  -21.7160  -26.4150   22.4730 C   0  0  0  0  0  2  0  0  0  0  0  0
  -20.7970  -25.9970   21.3210 C   0  0  0  0  0  2  0  0  0  0  0  0
  -19.3360  -25.9800   21.7770 C   0  0  0  0  0  2  0  0  0  0  0  0
  -19.8910  -28.1560   23.0120 C   0  0  0  0  0  0  0  0  0  0  0  0
  -19.4610  -29.3770   23.5760 C   0  0  0  0  0  3  0  0  0  0  0  0
  -18.0980  -29.7310   23.5740 C   0  0  0  0  0  3  0  0  0  0  0  0
  -17.1470  -28.8590   23.0170 C   0  0  0  0  0  3  0  0  0  0  0  0
  -17.5610  -27.6400   22.4530 C   0  0  0  0  0  3  0  0  0  0  0  0
  -26.2920  -32.3240   24.3350 C   0  0  0  0  0  3  0  0  0  0  0  0
  -25.8880  -33.6970   24.6610 N   0  0  0  0  0  0  0  0  0  0  0  0
  -26.2330  -34.7800   23.9500 C   0  0  0  0  0  0  0  0  0  0  0  0
  -26.9940  -34.7300   22.9810 O   0  0  0  0  0  0  0  0  0  0  0  0
  -25.2220  -33.8070   25.4110 H   0  0  0  0  0  0  0  0  0  0  0  0
  -24.4550  -36.4920   23.4720 C   0  0  0  0  0  1  0  0  0  0  0  0
  -25.6380  -36.1330   24.3850 C   0  0  0  0  0  3  0  0  0  0  0  0
  -27.6500  -37.0950   25.4120 C   0  0  0  0  0  1  0  0  0  0  0  0
  -26.6210  -37.2380   24.3840 N   0  0  0  0  0  0  0  0  0  0  0  0
  -26.1570  -38.1310   24.5230 H   0  0  0  0  0  0  0  0  0  0  0  0
  -26.7360  -31.5480   25.6360 C   0  0  1  0  0  0  0  0  0  0  0  0
  -25.5680  -31.2340   26.5990 C   0  0  0  0  0  1  0  0  0  0  0  0
  -27.4170  -30.2110   25.2650 C   0  0  0  0  0  1  0  0  0  0  0  0
  -27.7860  -32.3800   26.4080 C   0  0  0  0  0  1  0  0  0  0  0  0
  -31.4430  -21.1380   21.1430 O   0  0  0  0  0  0  0  0  0  0  0  0
  -31.6590  -17.6080   20.0350 C   0  0  0  0  0  3  0  0  0  0  0  0
  -31.7710  -19.0130   20.0430 C   0  0  0  0  0  3  0  0  0  0  0  0
  -30.5530  -17.6930   22.1960 C   0  0  0  0  0  3  0  0  0  0  0  0
  -30.6560  -19.1040   22.2050 C   0  0  0  0  0  0  0  0  0  0  0  0
  -31.0510  -16.9280   21.1180 C   0  0  0  0  0  0  0  0  0  0  0  0
  -31.2610  -19.7740   21.1160 C   0  0  0  0  0  0  0  0  0  0  0  0
  -31.5540  -14.5150   20.5720 C   0  0  0  0  0  0  0  0  0  0  0  0
  -31.2500  -12.3140   19.4980 C   0  0  0  0  0  2  0  0  0  0  0  0
  -30.3630  -12.4880   18.2480 C   0  0  0  0  0  2  0  0  0  0  0  0
  -28.8690  -12.4090   18.6200 C   0  0  0  0  0  2  0  0  0  0  0  0
  -28.5060  -13.3180   19.8230 C   0  0  0  0  0  3  0  0  0  0  0  0
  -29.5010  -13.1050   20.9850 C   0  0  0  0  0  2  0  0  0  0  0  0
  -30.8630  -13.3470   20.4710 N   0  0  0  0  0  0  0  0  0  0  0  0
  -32.6790  -14.6620   20.0870 O   0  0  0  0  0  0  0  0  0  0  0  0
  -30.8830  -15.5090   21.1870 N   0  0  0  0  0  0  0  0  0  0  0  0
  -30.0390  -15.1980   21.6430 H   0  0  0  0  0  0  0  0  0  0  0  0
  -26.1070  -14.0410   20.4250 C   0  0  0  0  0  0  0  0  0  0  0  0
  -24.9950  -13.3190   20.7680 C   0  0  0  0  0  0  0  0  0  0  0  0
  -25.4010  -11.9500   20.7790 C   0  0  0  0  0  0  0  0  0  0  0  0
  -27.1230  -13.1130   20.2520 N   0  0  0  0  0  0  0  0  0  0  0  0
  -26.6980  -11.8510   20.5190 N   0  0  0  0  0  0  0  0  0  0  0  0
  -24.6180  -10.7220   20.9650 C   0  0  0  0  0  0  0  0  0  0  0  0
  -24.9410   -9.7840   21.9700 C   0  0  0  0  0  3  0  0  0  0  0  0
  -24.1630   -8.6200   22.1410 C   0  0  0  0  0  3  0  0  0  0  0  0
  -23.0440   -8.3850   21.3050 C   0  0  0  0  0  0  0  0  0  0  0  0
  -22.7410   -9.3110   20.2920 C   0  0  0  0  0  3  0  0  0  0  0  0
  -23.5200  -10.4670   20.1190 C   0  0  0  0  0  3  0  0  0  0  0  0
  -22.2460   -7.2700   21.3810 O   0  0  0  0  0  0  0  0  0  0  0  0
  -22.0190   -6.6260   22.5710 C   0  0  0  0  0  0  0  0  0  0  0  0
  -21.4680   -7.2940   23.6870 C   0  0  0  0  0  3  0  0  0  0  0  0
  -21.1880   -6.5780   24.8680 C   0  0  0  0  0  3  0  0  0  0  0  0
  -21.4480   -5.1950   24.9320 C   0  0  0  0  0  0  0  0  0  0  0  0
  -21.9900   -4.5280   23.8200 C   0  0  0  0  0  3  0  0  0  0  0  0
  -22.2720   -5.2420   22.6420 C   0  0  0  0  0  0  0  0  0  0  0  0
  -22.7770   -4.5900   21.5670 F   0  0  0  0  0  0  0  0  0  0  0  0
  -21.1700   -4.5050   26.0630 F   0  0  0  0  0  0  0  0  0  0  0  0
  -23.6100  -13.8580   20.9830 C   0  0  0  0  0  0  0  0  0  0  0  0
  -22.8300  -13.2180   21.8480 N   0  0  0  0  0  0  0  0  0  0  0  0
  -23.2270  -14.8820   20.4170 O   0  0  0  0  0  0  0  0  0  0  0  0
  -23.1510  -12.3890   22.3260 H   0  0  0  0  0  0  0  0  0  0  0  0
  -21.8990  -13.5630   22.0340 H   0  0  0  0  0  0  0  0  0  0  0  0
  -26.3350  -15.3990   20.2300 N   0  0  0  0  0  0  0  0  0  0  0  0
  -25.5920  -16.0860   20.2950 H   0  0  0  0  0  0  0  0  0  0  0  0
  -27.2190  -15.7980   19.9370 H   0  0  0  0  0  0  0  0  0  0  0  0
  -31.2610  -20.2830   24.3680 C   0  0  0  0  0  1  0  0  0  0  0  0
  -30.1370  -19.8830   23.4040 C   0  0  0  0  0  2  0  0  0  0  0  0
  2  1  1  0
  2 48  1  0
  2  3  1  0
  3  4  2  0
  5  3  1  0
  5  6  1  0
  7  6  1  0
  8 19  2  0
  9  7  1  0
  9 14  1  0
 10 18  1  0
 10 20  1  0
 11 13  1  0
 12 18  1  0
 13 14  2  0
 13 12  1  0
 15  9  2  0
 16 15  1  0
 16 11  2  0
 17 11  1  0
 17 10  1  0
 18  8  1  0
 20 22  2  0
 21 20  1  0
 23 21  1  0
 24 33  2  0
 24 29  1  0
 25 21  1  0
 26 25  1  0
 27 28  1  0
 27 26  1  0
 28 24  1  0
 29 25  1  0
 29 30  2  0
 31 30  1  0
 32 31  2  0
 33 32  1  0
 34  8  1  0
 34 35  1  0
 34 44  1  0
 35 38  1  0
 36 40  1  0
 36 35  1  0
 37 36  2  0
 40 39  1  0
 42 40  1  0
 42 43  1  0
 42 41  1  0
 44 47  1  1
 44 45  1  0
 46 44  1  0
 49 50  2  0
 49 53  1  0
 50 54  1  0
 51 52  1  0
 52 94  1  0
 53 63  1  0
 53 51  2  0
 54 48  1  0
 54 52  2  0
 55 63  1  0
 56 61  1  0
 57 58  1  0
 57 56  1  0
 59 58  1  0
 59 68  1  0
 59 60  1  0
 61 55  1  0
 61 60  1  0
 62 55  2  0
 63 64  1  0
 65 66  2  0
 66 67  1  0
 66 85  1  0
 67 70  1  0
 68 65  1  0
 68 69  1  0
 69 67  2  0
 70 71  1  0
 71 72  2  0
 73 76  1  0
 73 72  1  0
 74 73  2  0
 75 74  1  0
 75 70  2  0
 76 77  1  0
 77 82  2  0
 77 78  1  0
 78 79  2  0
 79 80  1  0
 80 84  1  0
 81 80  2  0
 82 81  1  0
 83 82  1  0
 85 86  1  0
 86 89  1  0
 86 88  1  0
 87 85  2  0
 90 91  1  0
 90 65  1  0
 92 90  1  0
 94 93  1  0
M  ISO  4   6 101   7 101  55 100  63 100
M  END
>  <TORSDO>  (31) 
F 22

>  <SCORE>  (31) 
-10.318

>  <name>  (31) 
30

>  <ligand_id>  (31) 
30

>  <original_smiles>  (31) 
[H]c1c([H])c([H])c2c(c1[H])C([H])([H])C([H])([H])C([H])([H])C2([H])N([H])C(=O)C1([H])N(C(=O)C([H])(N([H])C(=O)C([H])(N([H])C([H])([H])[H])C([H])([H])[H])C(C([H])([H])[H])(C([H])([H])[H])C([H])([H])[H])C([H])([H])c2c([H])c(OC([H])([H])C([H])([H])C(=O)C([H])(Oc3c([H])c([H])c(N([H])C(=O)N4C([H])([H])C([H])([H])C([H])([H])C([H])(n5nc(-c6c([H])c([H])c(Oc7c([H])c([H])c(F)c([H])c7F)c([H])c6[H])c(C(=O)N([H])[H])c5N([H])[H])C4([H])[H])c([H])c3C([H])([H])C([H])([H])[H])C([H])([H])[H])c([H])c([H])c2C1([H])[H]

>  <smiles>  (31) 
[H]c1c([H])c([H])c2c(c1[H])C([H])([H])C([H])([H])C([H])([H])C2([H])N([H])C(=O)C1([H])N(C(=O)C([H])(N([H])C(=O)C([H])(N([H])C([H])([H])[H])C([H])([H])[H])C(C([H])([H])[H])(C([H])([H])[H])C([H])([H])[H])C([H])([H])c2c([H])c(OC([H])([H])C([H])([H])C(=O)C([H])(Oc3c([H])c([H])c(N([H])C(=O)N4C([H])([H])C([H])([H])C([H])([H])C([H])(n5nc(-c6c([H])c([H])c(Oc7c([H])c([H])c(F)c([H])c7F)c([H])c6[H])c(C(=O)N([H])[H])c5N([H])[H])C4([H])[H])c([H])c3C([H])([H])C([H])([H])[H])C([H])([H])[H])c([H])c([H])c2C1([H])[H]

$$$$
31:0:0
     RDKit          3D

 90 98  0  0  1  0  0  0  0  0999 V2000
  -29.4350  -21.1260   20.8980 C   0  0  0  0  0  2  0  0  0  0  0  0
  -31.4770  -18.7380   18.6340 C   0  0  0  0  0  3  0  0  0  0  0  0
  -30.9090  -19.8820   19.2190 C   0  0  0  0  0  3  0  0  0  0  0  0
  -31.1330  -17.4490   19.0750 C   0  0  0  0  0  3  0  0  0  0  0  0
  -29.6070  -18.4380   20.6870 C   0  0  0  0  0  3  0  0  0  0  0  0
  -29.9390  -19.7780   20.2360 C   0  0  0  0  0  0  0  0  0  0  0  0
  -30.2180  -17.2410   20.1360 C   0  0  0  0  0  0  0  0  0  0  0  0
  -30.6330  -14.6980   20.3520 C   0  0  0  0  0  0  0  0  0  0  0  0
  -30.3640  -12.4500   19.3390 C   0  0  0  0  0  2  0  0  0  0  0  0
  -29.4330  -12.5710   18.1130 C   0  0  0  0  0  2  0  0  0  0  0  0
  -27.9610  -12.4180   18.5420 C   0  0  0  0  0  2  0  0  0  0  0  0
  -27.6000  -13.2920   19.7750 C   0  0  0  0  0  3  0  0  0  0  0  0
  -28.6600  -13.1810   20.8930 C   0  0  0  0  0  2  0  0  0  0  0  0
  -29.9660  -13.5000   20.3010 N   0  0  0  0  0  0  0  0  0  0  0  0
  -31.8260  -14.7430   20.0400 O   0  0  0  0  0  0  0  0  0  0  0  0
  -29.9110  -15.8580   20.5710 N   0  0  0  0  0  0  0  0  0  0  0  0
  -28.9950  -15.7190   20.9680 H   0  0  0  0  0  0  0  0  0  0  0  0
  -25.2100  -13.8810   20.5000 C   0  0  0  0  0  0  0  0  0  0  0  0
  -24.1460  -13.1060   20.8740 C   0  0  0  0  0  0  0  0  0  0  0  0
  -24.6110  -11.7560   20.8480 C   0  0  0  0  0  0  0  0  0  0  0  0
  -26.2570  -13.0030   20.2660 N   0  0  0  0  0  0  0  0  0  0  0  0
  -25.9030  -11.7200   20.5390 N   0  0  0  0  0  0  0  0  0  0  0  0
  -23.8860  -10.4930   21.0430 C   0  0  0  0  0  0  0  0  0  0  0  0
  -24.3270   -9.5230   21.9690 C   0  0  0  0  0  3  0  0  0  0  0  0
  -23.6030   -8.3250   22.1520 C   0  0  0  0  0  3  0  0  0  0  0  0
  -22.4220   -8.0890   21.4090 C   0  0  0  0  0  0  0  0  0  0  0  0
  -22.0000   -9.0480   20.4710 C   0  0  0  0  0  3  0  0  0  0  0  0
  -22.7250  -10.2370   20.2860 C   0  0  0  0  0  3  0  0  0  0  0  0
  -21.6680   -6.9440   21.5020 O   0  0  0  0  0  0  0  0  0  0  0  0
  -21.6390   -6.1920   22.6490 C   0  0  0  0  0  0  0  0  0  0  0  0
  -21.2430   -6.7390   23.8880 C   0  0  0  0  0  3  0  0  0  0  0  0
  -21.1610   -5.9140   25.0280 C   0  0  0  0  0  3  0  0  0  0  0  0
  -21.4630   -4.5430   24.9280 C   0  0  0  0  0  0  0  0  0  0  0  0
  -21.8530   -3.9960   23.6940 C   0  0  0  0  0  3  0  0  0  0  0  0
  -21.9360   -4.8180   22.5560 C   0  0  0  0  0  0  0  0  0  0  0  0
  -22.2910   -4.2810   21.3640 F   0  0  0  0  0  0  0  0  0  0  0  0
  -21.3780   -3.7480   26.0200 F   0  0  0  0  0  0  0  0  0  0  0  0
  -22.7480  -13.5820   21.1420 C   0  0  0  0  0  0  0  0  0  0  0  0
  -22.0190  -12.8900   22.0100 N   0  0  0  0  0  0  0  0  0  0  0  0
  -22.3100  -14.6030   20.6150 O   0  0  0  0  0  0  0  0  0  0  0  0
  -22.3860  -12.0640   22.4590 H   0  0  0  0  0  0  0  0  0  0  0  0
  -21.0790  -13.1910   22.2280 H   0  0  0  0  0  0  0  0  0  0  0  0
  -25.3720  -15.2500   20.3160 N   0  0  0  0  0  0  0  0  0  0  0  0
  -24.6010  -15.9010   20.4190 H   0  0  0  0  0  0  0  0  0  0  0  0
  -26.2130  -15.6880   19.9620 H   0  0  0  0  0  0  0  0  0  0  0  0
  -28.7220  -22.1090   18.5530 C   0  0  0  0  0  1  0  0  0  0  0  0
  -28.7010  -22.3120   20.0780 C   0  0  0  0  0  3  0  0  0  0  0  0
  -29.0580  -23.8430   20.4480 C   0  0  0  0  0  3  0  0  0  0  0  0
  -28.0620  -24.9960   19.9530 C   0  0  0  0  0  3  0  0  0  0  0  0
  -28.2850  -26.4410   20.2430 O   0  0  0  0  0  0  0  0  0  0  0  0
  -24.6080  -31.9070   23.2350 C   0  0  0  0  0  0  0  0  0  0  0  0
  -27.1810  -27.3170   20.1740 C   0  0  0  0  0  0  0  0  0  0  0  0
  -23.3910  -30.5110   21.6040 C   0  0  0  0  0  3  0  0  0  0  0  0
  -24.8260  -28.9540   20.1710 C   0  0  0  0  0  0  0  0  0  0  0  0
  -25.9320  -30.8110   21.4120 C   0  0  0  0  0  2  0  0  0  0  0  0
  -26.0000  -29.4310   20.7670 C   0  0  0  0  0  0  0  0  0  0  0  0
  -27.1800  -28.6240   20.7620 C   0  0  0  0  0  3  0  0  0  0  0  0
  -25.9840  -26.9090   19.5380 C   0  0  0  0  0  3  0  0  0  0  0  0
  -24.8200  -27.7000   19.5490 C   0  0  0  0  0  3  0  0  0  0  0  0
  -23.5960  -29.8350   20.2230 C   0  0  0  0  0  2  0  0  0  0  0  0
  -24.6630  -31.0940   22.1390 N   0  0  0  0  0  0  0  0  0  0  0  0
  -23.5270  -32.1920   23.7730 O   0  0  0  0  0  0  0  0  0  0  0  0
  -22.7260  -29.4980   22.5680 C   0  0  0  0  0  0  0  0  0  0  0  0
  -21.4000  -29.3250   22.4460 N   0  0  0  0  0  0  0  0  0  0  0  0
  -23.4050  -28.8730   23.3870 O   0  0  0  0  0  0  0  0  0  0  0  0
  -20.9110  -29.8830   21.7600 H   0  0  0  0  0  0  0  0  0  0  0  0
  -18.0210  -28.1350   22.9570 C   0  0  0  0  0  0  0  0  0  0  0  0
  -20.5810  -28.3930   23.2220 C   0  0  0  0  0  3  0  0  0  0  0  0
  -20.6800  -26.9580   22.6580 C   0  0  0  0  0  2  0  0  0  0  0  0
  -19.5770  -26.6290   21.6460 C   0  0  0  0  0  2  0  0  0  0  0  0
  -18.1970  -26.7800   22.2890 C   0  0  0  0  0  2  0  0  0  0  0  0
  -19.1420  -28.8980   23.3810 C   0  0  0  0  0  0  0  0  0  0  0  0
  -18.9250  -30.1650   23.9670 C   0  0  0  0  0  3  0  0  0  0  0  0
  -17.6210  -30.6700   24.1280 C   0  0  0  0  0  3  0  0  0  0  0  0
  -16.5150  -29.9040   23.7200 C   0  0  0  0  0  3  0  0  0  0  0  0
  -16.7160  -28.6370   23.1420 C   0  0  0  0  0  3  0  0  0  0  0  0
  -25.8960  -32.5350   23.8500 C   0  0  0  0  0  3  0  0  0  0  0  0
  -26.4210  -31.7600   25.1210 C   0  0  1  0  0  0  0  0  0  0  0  0
  -25.3360  -31.5230   26.1970 C   0  0  0  0  0  1  0  0  0  0  0  0
  -26.9960  -30.3810   24.7220 C   0  0  0  0  0  1  0  0  0  0  0  0
  -27.5790  -32.5490   25.7760 C   0  0  0  0  0  1  0  0  0  0  0  0
  -25.5930  -33.9330   24.1880 N   0  0  0  0  0  0  0  0  0  0  0  0
  -25.9150  -34.9880   23.4270 C   0  0  0  0  0  0  0  0  0  0  0  0
  -26.5720  -34.8870   22.3870 O   0  0  0  0  0  0  0  0  0  0  0  0
  -25.0100  -34.0860   24.9980 H   0  0  0  0  0  0  0  0  0  0  0  0
  -24.1840  -36.7840   23.1030 C   0  0  0  0  0  1  0  0  0  0  0  0
  -25.4350  -36.3760   23.8960 C   0  0  0  0  0  3  0  0  0  0  0  0
  -27.5830  -37.2570   24.6980 C   0  0  0  0  0  1  0  0  0  0  0  0
  -26.4670  -37.4280   23.7720 N   0  0  0  0  0  0  0  0  0  0  0  0
  -26.0640  -38.3480   23.9280 H   0  0  0  0  0  0  0  0  0  0  0  0
  2  4  2  0
  2  3  1  0
  3  6  2  0
  4  7  1  0
  6  5  1  0
  6  1  1  0
  7 16  1  0
  7  5  2  0
  8 16  1  0
  9 14  1  0
 10 11  1  0
 10  9  1  0
 12 11  1  0
 12 21  1  0
 12 13  1  0
 14  8  1  0
 14 13  1  0
 15  8  2  0
 16 17  1  0
 18 19  2  0
 19 38  1  0
 20 19  1  0
 20 23  1  0
 21 18  1  0
 21 22  1  0
 22 20  2  0
 23 24  1  0
 24 25  2  0
 26 29  1  0
 26 25  1  0
 27 26  2  0
 28 27  1  0
 28 23  2  0
 29 30  1  0
 30 31  1  0
 31 32  2  0
 33 32  1  0
 33 37  1  0
 34 33  2  0
 35 30  2  0
 35 34  1  0
 36 35  1  0
 38 39  1  0
 39 42  1  0
 39 41  1  0
 40 38  2  0
 43 44  1  0
 43 18  1  0
 45 43  1  0
 47 46  1  0
 47 48  1  0
 47  1  1  0
 49 50  1  0
 49 48  2  0
 51 62  2  0
 52 50  1  0
 52 57  1  0
 53 61  1  0
 53 63  1  0
 54 60  1  0
 54 56  1  0
 55 61  1  0
 56 55  1  0
 57 56  2  0
 58 59  1  0
 58 52  2  0
 59 54  2  0
 60 53  1  0
 61 51  1  0
 63 65  2  0
 64 63  1  0
 66 64  1  0
 67 76  2  0
 67 72  1  0
 68 64  1  0
 68 72  1  0
 69 68  1  0
 70 71  1  0
 70 69  1  0
 71 67  1  0
 72 73  2  0
 73 74  1  0
 75 74  2  0
 76 75  1  0
 77 51  1  0
 77 82  1  0
 77 78  1  0
 78 81  1  1
 78 79  1  0
 80 78  1  0
 82 85  1  0
 83 87  1  0
 83 82  1  0
 84 83  2  0
 87 86  1  0
 89 87  1  0
 89 90  1  0
 89 88  1  0
M  ISO  4   8 100  16 100  49 101  50 101
M  END
>  <TORSDO>  (32) 
F 20

>  <SCORE>  (32) 
-13.870

>  <name>  (32) 
31

>  <ligand_id>  (32) 
31

>  <original_smiles>  (32) 
[H]c1c([H])c([H])c2c(c1[H])C([H])([H])C([H])([H])C([H])([H])C2([H])N([H])C(=O)C1([H])N(C(=O)C([H])(N([H])C(=O)C([H])(N([H])C([H])([H])[H])C([H])([H])[H])C(C([H])([H])[H])(C([H])([H])[H])C([H])([H])[H])C([H])([H])c2c([H])c(OC([H])([H])C([H])([H])C([H])(C([H])([H])[H])C([H])([H])c3c([H])c([H])c([H])c(N([H])C(=O)N4C([H])([H])C([H])([H])C([H])([H])C([H])(n5nc(-c6c([H])c([H])c(Oc7c([H])c([H])c(F)c([H])c7F)c([H])c6[H])c(C(=O)N([H])[H])c5N([H])[H])C4([H])[H])c3[H])c([H])c([H])c2C1([H])[H]

>  <smiles>  (32) 
[H]c1c([H])c([H])c2c(c1[H])C([H])([H])C([H])([H])C([H])([H])C2([H])N([H])C(=O)C1([H])N(C(=O)C([H])(N([H])C(=O)C([H])(N([H])C([H])([H])[H])C([H])([H])[H])C(C([H])([H])[H])(C([H])([H])[H])C([H])([H])[H])C([H])([H])c2c([H])c(OC([H])([H])C([H])([H])C([H])(C([H])([H])[H])C([H])([H])c3c([H])c([H])c([H])c(N([H])C(=O)N4C([H])([H])C([H])([H])C([H])([H])C([H])(n5nc(-c6c([H])c([H])c(Oc7c([H])c([H])c(F)c([H])c7F)c([H])c6[H])c(C(=O)N([H])[H])c5N([H])[H])C4([H])[H])c3[H])c([H])c([H])c2C1([H])[H]

$$$$
32:0:0
     RDKit          3D

 96104  0  0  1  0  0  0  0  0999 V2000
  -28.2240  -17.7810   19.1040 C   0  0  0  0  0  3  0  0  0  0  0  0
  -29.3870  -19.6070   20.2210 C   0  0  0  0  0  3  0  0  0  0  0  0
  -27.1830  -19.9920   19.2180 C   0  0  0  0  0  0  0  0  0  0  0  0
  -29.3400  -18.2550   19.8210 C   0  0  0  0  0  0  0  0  0  0  0  0
  -27.1480  -18.6380   18.8000 C   0  0  0  0  0  0  0  0  0  0  0  0
  -28.3180  -20.4780   19.9130 C   0  0  0  0  0  0  0  0  0  0  0  0
  -25.9690  -18.0840   18.0150 C   0  0  0  0  0  1  0  0  0  0  0  0
  -25.1030  -21.1590   19.7770 C   0  0  0  0  0  2  0  0  0  0  0  0
  -26.0820  -20.9150   18.8900 C   0  0  0  0  0  0  0  0  0  0  0  0
  -26.1260  -21.5800   17.5290 C   0  0  0  0  0  1  0  0  0  0  0  0
  -30.4990  -17.3100   20.1070 C   0  0  0  0  0  2  0  0  0  0  0  0
  -30.4360  -16.6150   22.5690 C   0  0  0  0  0  1  0  0  0  0  0  0
  -30.1650  -16.1780   21.1200 C   0  0  0  0  0  3  0  0  0  0  0  0
  -30.9600  -14.8940   20.7770 C   0  0  0  0  0  0  0  0  0  0  0  0
  -30.8100  -12.6040   19.8770 C   0  0  0  0  0  2  0  0  0  0  0  0
  -29.9630  -12.6460   18.5880 C   0  0  0  0  0  2  0  0  0  0  0  0
  -28.4600  -12.5220   18.9120 C   0  0  0  0  0  2  0  0  0  0  0  0
  -28.0080  -13.4910   20.0380 C   0  0  0  0  0  3  0  0  0  0  0  0
  -28.9760  -13.4190   21.2400 C   0  0  0  0  0  2  0  0  0  0  0  0
  -30.3330  -13.6880   20.7480 N   0  0  0  0  0  0  0  0  0  0  0  0
  -32.1260  -15.0330   20.3940 O   0  0  0  0  0  0  0  0  0  0  0  0
  -25.5880  -14.1410   20.6280 C   0  0  0  0  0  0  0  0  0  0  0  0
  -24.4840  -13.3860   20.9230 C   0  0  0  0  0  0  0  0  0  0  0  0
  -24.9200  -12.0260   20.8970 C   0  0  0  0  0  0  0  0  0  0  0  0
  -26.6260  -13.2400   20.4390 N   0  0  0  0  0  0  0  0  0  0  0  0
  -26.2240  -11.9630   20.6580 N   0  0  0  0  0  0  0  0  0  0  0  0
  -24.1590  -10.7770   21.0300 C   0  0  0  0  0  0  0  0  0  0  0  0
  -24.5530   -9.7660   21.9350 C   0  0  0  0  0  3  0  0  0  0  0  0
  -23.7950   -8.5820   22.0580 C   0  0  0  0  0  3  0  0  0  0  0  0
  -22.6300   -8.4000   21.2740 C   0  0  0  0  0  0  0  0  0  0  0  0
  -22.2580   -9.3990   20.3580 C   0  0  0  0  0  3  0  0  0  0  0  0
  -23.0160  -10.5750   20.2330 C   0  0  0  0  0  3  0  0  0  0  0  0
  -21.8480   -7.2710   21.3080 O   0  0  0  0  0  0  0  0  0  0  0  0
  -21.7980   -6.4620   22.4140 C   0  0  0  0  0  0  0  0  0  0  0  0
  -21.4170   -6.9550   23.6810 C   0  0  0  0  0  3  0  0  0  0  0  0
  -21.3120   -6.0760   24.7760 C   0  0  0  0  0  3  0  0  0  0  0  0
  -21.5770   -4.7030   24.6060 C   0  0  0  0  0  0  0  0  0  0  0  0
  -21.9500   -4.2090   23.3440 C   0  0  0  0  0  3  0  0  0  0  0  0
  -22.0580   -5.0860   22.2510 C   0  0  0  0  0  0  0  0  0  0  0  0
  -22.3980   -4.6010   21.0330 F   0  0  0  0  0  0  0  0  0  0  0  0
  -21.4670   -3.8570   25.6570 F   0  0  0  0  0  0  0  0  0  0  0  0
  -23.0850  -13.8900   21.1300 C   0  0  0  0  0  0  0  0  0  0  0  0
  -22.3030  -13.2030   21.9550 N   0  0  0  0  0  0  0  0  0  0  0  0
  -22.6920  -14.9250   20.5940 O   0  0  0  0  0  0  0  0  0  0  0  0
  -22.6330  -12.3640   22.4080 H   0  0  0  0  0  0  0  0  0  0  0  0
  -21.3610  -13.5190   22.1330 H   0  0  0  0  0  0  0  0  0  0  0  0
  -25.7870  -15.5100   20.4890 N   0  0  0  0  0  0  0  0  0  0  0  0
  -25.0270  -16.1730   20.5890 H   0  0  0  0  0  0  0  0  0  0  0  0
  -26.6710  -15.9520   20.2780 H   0  0  0  0  0  0  0  0  0  0  0  0
  -28.3550  -21.7960   20.2980 O   0  0  0  0  0  0  0  0  0  0  0  0
  -29.2580  -22.6120   19.5530 C   0  0  0  0  0  2  0  0  0  0  0  0
  -28.6310  -23.9910   19.2970 C   0  0  0  0  0  0  0  0  0  0  0  0
  -27.5260  -24.2960   19.7590 O   0  0  0  0  0  0  0  0  0  0  0  0
  -29.4460  -24.9720   18.4450 C   0  0  0  0  0  2  0  0  0  0  0  0
  -28.6790  -26.2200   17.9620 C   0  0  0  0  0  2  0  0  0  0  0  0
  -28.4440  -27.1290   19.0430 O   0  0  0  0  0  0  0  0  0  0  0  0
  -24.6600  -31.6730   22.9690 C   0  0  0  0  0  0  0  0  0  0  0  0
  -27.2210  -27.7580   19.1810 C   0  0  0  0  0  0  0  0  0  0  0  0
  -23.3810  -30.4330   21.2530 C   0  0  0  0  0  3  0  0  0  0  0  0
  -24.7750  -29.1360   19.5580 C   0  0  0  0  0  0  0  0  0  0  0  0
  -25.8730  -30.9150   20.9300 C   0  0  0  0  0  2  0  0  0  0  0  0
  -25.9540  -29.6360   20.1230 C   0  0  0  0  0  0  0  0  0  0  0  0
  -27.1740  -28.9510   19.9380 C   0  0  0  0  0  3  0  0  0  0  0  0
  -26.0140  -27.2520   18.6420 C   0  0  0  0  0  3  0  0  0  0  0  0
  -24.7990  -27.9390   18.8220 C   0  0  0  0  0  3  0  0  0  0  0  0
  -23.5110  -29.9290   19.7900 C   0  0  0  0  0  2  0  0  0  0  0  0
  -24.6600  -31.0150   21.7760 N   0  0  0  0  0  0  0  0  0  0  0  0
  -23.6130  -31.8380   23.6100 O   0  0  0  0  0  0  0  0  0  0  0  0
  -22.8330  -29.2800   22.1230 C   0  0  0  0  0  0  0  0  0  0  0  0
  -21.5100  -29.0560   22.0530 N   0  0  0  0  0  0  0  0  0  0  0  0
  -23.5900  -28.5940   22.8150 O   0  0  0  0  0  0  0  0  0  0  0  0
  -20.9580  -29.6660   21.4680 H   0  0  0  0  0  0  0  0  0  0  0  0
  -18.2240  -27.6500   22.5760 C   0  0  0  0  0  0  0  0  0  0  0  0
  -20.7790  -28.0010   22.7520 C   0  0  0  0  0  3  0  0  0  0  0  0
  -20.9130  -26.6480   22.0150 C   0  0  0  0  0  2  0  0  0  0  0  0
  -19.7740  -26.3830   21.0270 C   0  0  0  0  0  2  0  0  0  0  0  0
  -18.4230  -26.3910   21.7490 C   0  0  0  0  0  2  0  0  0  0  0  0
  -19.3300  -28.4140   23.0350 C   0  0  0  0  0  0  0  0  0  0  0  0
  -19.0890  -29.5950   23.7700 C   0  0  0  0  0  3  0  0  0  0  0  0
  -17.7750  -30.0120   24.0520 C   0  0  0  0  0  3  0  0  0  0  0  0
  -16.6840  -29.2430   23.6110 C   0  0  0  0  0  3  0  0  0  0  0  0
  -16.9100  -28.0630   22.8790 C   0  0  0  0  0  3  0  0  0  0  0  0
  -25.9680  -32.2750   23.5730 C   0  0  0  0  0  3  0  0  0  0  0  0
  -25.6500  -33.6210   24.0660 N   0  0  0  0  0  0  0  0  0  0  0  0
  -25.9130  -34.7550   23.4010 C   0  0  0  0  0  0  0  0  0  0  0  0
  -26.5240  -34.7760   22.3290 O   0  0  0  0  0  0  0  0  0  0  0  0
  -25.1060  -33.6760   24.9130 H   0  0  0  0  0  0  0  0  0  0  0  0
  -24.1210  -36.5160   23.3360 C   0  0  0  0  0  1  0  0  0  0  0  0
  -25.4210  -36.0740   24.0260 C   0  0  0  0  0  3  0  0  0  0  0  0
  -27.5820  -36.9350   24.8100 C   0  0  0  0  0  1  0  0  0  0  0  0
  -26.4180  -37.1650   23.9600 N   0  0  0  0  0  0  0  0  0  0  0  0
  -26.0000  -38.0520   24.2270 H   0  0  0  0  0  0  0  0  0  0  0  0
  -26.5850  -31.3910   24.7260 C   0  0  1  0  0  0  0  0  0  0  0  0
  -25.5720  -31.0160   25.8330 C   0  0  0  0  0  1  0  0  0  0  0  0
  -27.1660  -30.0760   24.1550 C   0  0  0  0  0  1  0  0  0  0  0  0
  -27.7630  -32.1420   25.3910 C   0  0  0  0  0  1  0  0  0  0  0  0
  1  4  1  0
  3  6  2  0
  4 11  1  0
  4  2  2  0
  5  1  2  0
  5  3  1  0
  6  2  1  0
  6 50  1  0
  7  5  1  0
  9  3  1  0
  9  8  2  0
 10  9  1  0
 11 13  1  0
 13 12  1  0
 14 13  1  0
 15 20  1  0
 16 17  1  0
 16 15  1  0
 18 17  1  0
 18 25  1  0
 18 19  1  0
 20 14  1  0
 20 19  1  0
 21 14  2  0
 22 23  2  0
 23 42  1  0
 24 23  1  0
 24 27  1  0
 25 22  1  0
 25 26  1  0
 26 24  2  0
 27 28  1  0
 28 29  2  0
 30 33  1  0
 30 29  1  0
 31 30  2  0
 32 31  1  0
 32 27  2  0
 33 34  1  0
 34 35  1  0
 35 36  2  0
 37 36  1  0
 37 41  1  0
 38 37  2  0
 39 34  2  0
 39 38  1  0
 40 39  1  0
 42 43  1  0
 43 46  1  0
 43 45  1  0
 44 42  2  0
 47 48  1  0
 47 22  1  0
 49 47  1  0
 51 50  1  0
 52 51  1  0
 52 53  2  0
 54 52  1  0
 55 54  1  0
 55 56  1  0
 56 58  1  0
 57 68  2  0
 58 63  1  0
 59 67  1  0
 59 69  1  0
 60 66  1  0
 60 62  1  0
 61 67  1  0
 62 61  1  0
 63 62  2  0
 64 65  1  0
 64 58  2  0
 65 60  2  0
 66 59  1  0
 67 57  1  0
 69 71  2  0
 70 69  1  0
 72 70  1  0
 73 82  2  0
 73 78  1  0
 74 70  1  0
 74 78  1  0
 75 74  1  0
 76 77  1  0
 76 75  1  0
 77 73  1  0
 78 79  2  0
 79 80  1  0
 81 80  2  0
 82 81  1  0
 83 57  1  0
 83 84  1  0
 83 93  1  0
 84 87  1  0
 85 89  1  0
 85 84  1  0
 86 85  2  0
 89 88  1  0
 91 89  1  0
 91 92  1  0
 91 90  1  0
 93 96  1  1
 93 94  1  0
 95 93  1  0
M  ISO  4  13 100  14 100  55 101  56 101
M  END
>  <TORSDO>  (33) 
F 24

>  <SCORE>  (33) 
-7.839

>  <name>  (33) 
32

>  <ligand_id>  (33) 
32

>  <original_smiles>  (33) 
[H]C([H])=C(c1c(OC([H])([H])C(=O)C([H])([H])C([H])([H])Oc2c([H])c([H])c3c(c2[H])C([H])([H])N(C(=O)C([H])(N([H])C(=O)C([H])(N([H])C([H])([H])[H])C([H])([H])[H])C(C([H])([H])[H])(C([H])([H])[H])C([H])([H])[H])C([H])(C(=O)N([H])C2([H])c4c([H])c([H])c([H])c([H])c4C([H])([H])C([H])([H])C2([H])[H])C3([H])[H])c([H])c(C([H])([H])C([H])(C(=O)N2C([H])([H])C([H])([H])C([H])([H])C([H])(n3nc(-c4c([H])c([H])c(Oc5c([H])c([H])c(F)c([H])c5F)c([H])c4[H])c(C(=O)N([H])[H])c3N([H])[H])C2([H])[H])C([H])([H])[H])c([H])c1C([H])([H])[H])C([H])([H])[H]

>  <smiles>  (33) 
[H]C([H])=C(c1c(OC([H])([H])C(=O)C([H])([H])C([H])([H])Oc2c([H])c([H])c3c(c2[H])C([H])([H])N(C(=O)C([H])(N([H])C(=O)C([H])(N([H])C([H])([H])[H])C([H])([H])[H])C(C([H])([H])[H])(C([H])([H])[H])C([H])([H])[H])C([H])(C(=O)N([H])C2([H])c4c([H])c([H])c([H])c([H])c4C([H])([H])C([H])([H])C2([H])[H])C3([H])[H])c([H])c(C([H])([H])C([H])(C(=O)N2C([H])([H])C([H])([H])C([H])([H])C([H])(n3nc(-c4c([H])c([H])c(Oc5c([H])c([H])c(F)c([H])c5F)c([H])c4[H])c(C(=O)N([H])[H])c3N([H])[H])C2([H])[H])C([H])([H])[H])c([H])c1C([H])([H])[H])C([H])([H])[H]

$$$$
33:0:0
     RDKit          3D

 94102  0  0  1  0  0  0  0  0999 V2000
  -27.9210  -21.3880   20.9660 C   0  0  0  0  0  0  0  0  0  0  0  0
  -26.8000  -21.4030   20.4500 O   0  0  0  0  0  0  0  0  0  0  0  0
  -29.9800  -20.1750   21.7410 C   0  0  0  0  0  3  0  0  0  0  0  0
  -30.8930  -19.1080   21.7050 C   0  0  0  0  0  3  0  0  0  0  0  0
  -29.6520  -18.1160   19.8680 C   0  0  0  0  0  3  0  0  0  0  0  0
  -28.8880  -20.2430   20.8390 C   0  0  0  0  0  0  0  0  0  0  0  0
  -30.7320  -18.0670   20.7740 C   0  0  0  0  0  0  0  0  0  0  0  0
  -28.7310  -19.1880   19.8890 C   0  0  0  0  0  0  0  0  0  0  0  0
  -27.6070  -19.1610   18.8600 C   0  0  0  0  0  1  0  0  0  0  0  0
  -31.7360  -16.9250   20.7490 C   0  0  0  0  0  2  0  0  0  0  0  0
  -31.6010  -14.6410   19.7580 C   0  0  0  0  0  0  0  0  0  0  0  0
  -31.2330  -12.3480   18.9250 C   0  0  0  0  0  2  0  0  0  0  0  0
  -30.2510  -12.3440   17.7400 C   0  0  0  0  0  2  0  0  0  0  0  0
  -28.7920  -12.2850   18.2370 C   0  0  0  0  0  2  0  0  0  0  0  0
  -28.4940  -13.3330   19.3400 C   0  0  0  0  0  3  0  0  0  0  0  0
  -29.5790  -13.2880   20.4370 C   0  0  0  0  0  2  0  0  0  0  0  0
  -30.8930  -13.4830   19.7940 N   0  0  0  0  0  0  0  0  0  0  0  0
  -32.6210  -14.7920   19.0770 O   0  0  0  0  0  0  0  0  0  0  0  0
  -31.1210  -15.6190   20.5320 N   0  0  0  0  0  0  0  0  0  0  0  0
  -30.2760  -15.4190   21.0460 H   0  0  0  0  0  0  0  0  0  0  0  0
  -26.2030  -14.1040   20.2310 C   0  0  0  0  0  0  0  0  0  0  0  0
  -25.1050  -13.4030   20.6520 C   0  0  0  0  0  0  0  0  0  0  0  0
  -25.4560  -12.0210   20.5570 C   0  0  0  0  0  0  0  0  0  0  0  0
  -27.1570  -13.1530   19.9040 N   0  0  0  0  0  0  0  0  0  0  0  0
  -26.7150  -11.8930   20.1560 N   0  0  0  0  0  0  0  0  0  0  0  0
  -24.6490  -10.8130   20.7670 C   0  0  0  0  0  0  0  0  0  0  0  0
  -24.9940   -9.8570   21.7490 C   0  0  0  0  0  3  0  0  0  0  0  0
  -24.1930   -8.7110   21.9440 C   0  0  0  0  0  3  0  0  0  0  0  0
  -23.0320   -8.5150   21.1590 C   0  0  0  0  0  0  0  0  0  0  0  0
  -22.7050   -9.4580   20.1690 C   0  0  0  0  0  3  0  0  0  0  0  0
  -23.5060  -10.5950   19.9720 C   0  0  0  0  0  3  0  0  0  0  0  0
  -22.2070   -7.4210   21.2650 O   0  0  0  0  0  0  0  0  0  0  0  0
  -21.9770   -6.8030   22.4680 C   0  0  0  0  0  0  0  0  0  0  0  0
  -21.4250   -7.4970   23.5670 C   0  0  0  0  0  3  0  0  0  0  0  0
  -21.1390   -6.8080   24.7630 C   0  0  0  0  0  3  0  0  0  0  0  0
  -21.3930   -5.4270   24.8600 C   0  0  0  0  0  0  0  0  0  0  0  0
  -21.9370   -4.7330   23.7640 C   0  0  0  0  0  3  0  0  0  0  0  0
  -22.2260   -5.4190   22.5720 C   0  0  0  0  0  0  0  0  0  0  0  0
  -22.7300   -4.7410   21.5130 F   0  0  0  0  0  0  0  0  0  0  0  0
  -21.1120   -4.7640   26.0060 F   0  0  0  0  0  0  0  0  0  0  0  0
  -23.7700  -13.9770   21.0300 C   0  0  0  0  0  0  0  0  0  0  0  0
  -23.0560  -13.3230   21.9410 N   0  0  0  0  0  0  0  0  0  0  0  0
  -23.3700  -15.0390   20.5540 O   0  0  0  0  0  0  0  0  0  0  0  0
  -23.3900  -12.4630   22.3480 H   0  0  0  0  0  0  0  0  0  0  0  0
  -22.1610  -13.6910   22.2350 H   0  0  0  0  0  0  0  0  0  0  0  0
  -26.4660  -15.4620   20.0760 N   0  0  0  0  0  0  0  0  0  0  0  0
  -25.7740  -16.1800   20.2590 H   0  0  0  0  0  0  0  0  0  0  0  0
  -27.3370  -15.8370   19.7190 H   0  0  0  0  0  0  0  0  0  0  0  0
  -28.3840  -22.5930   21.8040 C   0  0  0  0  0  2  0  0  0  0  0  0
  -27.6310  -23.9130   21.5240 C   0  0  0  0  0  2  0  0  0  0  0  0
  -28.2920  -24.7440   20.4230 C   0  0  0  0  0  0  0  0  0  0  0  0
  -28.4450  -24.2830   19.2890 O   0  0  0  0  0  0  0  0  0  0  0  0
  -28.7560  -26.1630   20.7800 C   0  0  0  0  0  2  0  0  0  0  0  0
  -28.5650  -27.0480   19.6750 O   0  0  0  0  0  0  0  0  0  0  0  0
  -24.5580  -31.8090   23.0990 C   0  0  0  0  0  0  0  0  0  0  0  0
  -27.3710  -27.7170   19.7360 C   0  0  0  0  0  0  0  0  0  0  0  0
  -23.3960  -30.4500   21.3870 C   0  0  0  0  0  3  0  0  0  0  0  0
  -24.9040  -29.0700   19.8600 C   0  0  0  0  0  0  0  0  0  0  0  0
  -25.8930  -30.9490   21.1830 C   0  0  0  0  0  2  0  0  0  0  0  0
  -26.0380  -29.6240   20.4680 C   0  0  0  0  0  0  0  0  0  0  0  0
  -27.2760  -28.9540   20.4070 C   0  0  0  0  0  3  0  0  0  0  0  0
  -26.2280  -27.1670   19.1230 C   0  0  0  0  0  3  0  0  0  0  0  0
  -24.9910  -27.8390   19.1830 C   0  0  0  0  0  3  0  0  0  0  0  0
  -23.6190  -29.8600   19.9670 C   0  0  0  0  0  2  0  0  0  0  0  0
  -24.6340  -31.0790   21.9500 N   0  0  0  0  0  0  0  0  0  0  0  0
  -23.4730  -31.9950   23.6670 O   0  0  0  0  0  0  0  0  0  0  0  0
  -22.8070  -29.3450   22.2920 C   0  0  0  0  0  0  0  0  0  0  0  0
  -21.4910  -29.1110   22.1680 N   0  0  0  0  0  0  0  0  0  0  0  0
  -23.5300  -28.7030   23.0570 O   0  0  0  0  0  0  0  0  0  0  0  0
  -20.9660  -29.6830   21.5210 H   0  0  0  0  0  0  0  0  0  0  0  0
  -18.1800  -27.7420   22.6250 C   0  0  0  0  0  0  0  0  0  0  0  0
  -20.7280  -28.0930   22.8900 C   0  0  0  0  0  3  0  0  0  0  0  0
  -20.8850  -26.7050   22.2280 C   0  0  0  0  0  2  0  0  0  0  0  0
  -19.7880  -26.3970   21.2060 C   0  0  0  0  0  2  0  0  0  0  0  0
  -18.4090  -26.4450   21.8680 C   0  0  0  0  0  2  0  0  0  0  0  0
  -19.2710  -28.5240   23.0910 C   0  0  0  0  0  0  0  0  0  0  0  0
  -19.0050  -29.7400   23.7570 C   0  0  0  0  0  3  0  0  0  0  0  0
  -17.6820  -30.1740   23.9630 C   0  0  0  0  0  3  0  0  0  0  0  0
  -16.6070  -29.3880   23.5120 C   0  0  0  0  0  3  0  0  0  0  0  0
  -16.8580  -28.1720   22.8510 C   0  0  0  0  0  3  0  0  0  0  0  0
  -25.8240  -32.4610   23.7400 C   0  0  0  0  0  3  0  0  0  0  0  0
  -25.4680  -33.8320   24.1280 N   0  0  0  0  0  0  0  0  0  0  0  0
  -25.7590  -34.9230   23.4090 C   0  0  0  0  0  0  0  0  0  0  0  0
  -26.4280  -34.8850   22.3730 O   0  0  0  0  0  0  0  0  0  0  0  0
  -24.8760  -33.9330   24.9380 H   0  0  0  0  0  0  0  0  0  0  0  0
  -23.9590  -36.6560   23.1320 C   0  0  0  0  0  1  0  0  0  0  0  0
  -25.2220  -36.2740   23.9210 C   0  0  0  0  0  3  0  0  0  0  0  0
  -27.3250  -37.2110   24.7710 C   0  0  0  0  0  1  0  0  0  0  0  0
  -26.2120  -37.3700   23.8400 N   0  0  0  0  0  0  0  0  0  0  0  0
  -25.7700  -38.2680   24.0220 H   0  0  0  0  0  0  0  0  0  0  0  0
  -26.3770  -31.6550   24.9780 C   0  0  1  0  0  0  0  0  0  0  0  0
  -25.3040  -31.3290   26.0410 C   0  0  0  0  0  1  0  0  0  0  0  0
  -27.0060  -30.3180   24.5190 C   0  0  0  0  0  1  0  0  0  0  0  0
  -27.5030  -32.4610   25.6680 C   0  0  0  0  0  1  0  0  0  0  0  0
  1 49  1  0
  2  1  2  0
  4  3  1  0
  5  8  2  0
  5  7  1  0
  6  1  1  0
  6  3  2  0
  7  4  2  0
  8  6  1  0
  9  8  1  0
 10  7  1  0
 11 17  1  0
 11 19  1  0
 12 17  1  0
 13 14  1  0
 13 12  1  0
 15 14  1  0
 15 24  1  0
 15 16  1  0
 17 16  1  0
 18 11  2  0
 19 10  1  0
 19 20  1  0
 21 22  2  0
 22 41  1  0
 23 22  1  0
 23 26  1  0
 24 25  1  0
 24 21  1  0
 25 23  2  0
 26 27  1  0
 27 28  2  0
 29 32  1  0
 29 28  1  0
 30 29  2  0
 31 30  1  0
 31 26  2  0
 32 33  1  0
 33 38  2  0
 33 34  1  0
 34 35  2  0
 35 36  1  0
 36 40  1  0
 37 36  2  0
 38 37  1  0
 39 38  1  0
 41 42  1  0
 42 45  1  0
 42 44  1  0
 43 41  2  0
 46 21  1  0
 46 47  1  0
 48 46  1  0
 50 49  1  0
 51 53  1  0
 51 50  1  0
 52 51  2  0
 54 56  1  0
 54 53  1  0
 55 66  2  0
 56 61  1  0
 57 65  1  0
 57 67  1  0
 58 64  1  0
 58 60  1  0
 59 65  1  0
 60 59  1  0
 61 60  2  0
 62 63  1  0
 62 56  2  0
 63 58  2  0
 64 57  1  0
 65 55  1  0
 67 69  2  0
 68 67  1  0
 70 68  1  0
 71 80  2  0
 71 76  1  0
 72 68  1  0
 72 76  1  0
 73 72  1  0
 74 75  1  0
 74 73  1  0
 75 71  1  0
 76 77  2  0
 77 78  1  0
 79 78  2  0
 80 79  1  0
 81 55  1  0
 81 82  1  0
 81 91  1  0
 82 85  1  0
 83 87  1  0
 83 82  1  0
 84 83  2  0
 87 86  1  0
 89 87  1  0
 89 90  1  0
 89 88  1  0
 91 94  1  1
 91 92  1  0
 93 91  1  0
M  ISO  4  11 100  19 100  53 101  54 101
M  END
>  <TORSDO>  (34) 
F 22

>  <SCORE>  (34) 
-11.588

>  <name>  (34) 
33

>  <ligand_id>  (34) 
33

>  <original_smiles>  (34) 
[H]c1c([H])c([H])c2c(c1[H])C([H])([H])C([H])([H])C([H])([H])C2([H])N([H])C(=O)C1([H])N(C(=O)C([H])(N([H])C(=O)C([H])(N([H])C([H])([H])[H])C([H])([H])[H])C(C([H])([H])[H])(C([H])([H])[H])C([H])([H])[H])C([H])([H])c2c([H])c(OC([H])([H])C(=O)C([H])([H])C([H])([H])C(=O)c3c([H])c([H])c(C([H])([H])N([H])C(=O)N4C([H])([H])C([H])([H])C([H])([H])C([H])(n5nc(-c6c([H])c([H])c(Oc7c([H])c([H])c(F)c([H])c7F)c([H])c6[H])c(C(=O)N([H])[H])c5N([H])[H])C4([H])[H])c([H])c3C([H])([H])[H])c([H])c([H])c2C1([H])[H]

>  <smiles>  (34) 
[H]c1c([H])c([H])c2c(c1[H])C([H])([H])C([H])([H])C([H])([H])C2([H])N([H])C(=O)C1([H])N(C(=O)C([H])(N([H])C(=O)C([H])(N([H])C([H])([H])[H])C([H])([H])[H])C(C([H])([H])[H])(C([H])([H])[H])C([H])([H])[H])C([H])([H])c2c([H])c(OC([H])([H])C(=O)C([H])([H])C([H])([H])C(=O)c3c([H])c([H])c(C([H])([H])N([H])C(=O)N4C([H])([H])C([H])([H])C([H])([H])C([H])(n5nc(-c6c([H])c([H])c(Oc7c([H])c([H])c(F)c([H])c7F)c([H])c6[H])c(C(=O)N([H])[H])c5N([H])[H])C4([H])[H])c([H])c3C([H])([H])[H])c([H])c([H])c2C1([H])[H]

$$$$
34:0:0
     RDKit          3D

 99107  0  0  1  0  0  0  0  0999 V2000
  -30.7970  -22.1300   20.1310 C   0  0  0  0  0  3  0  0  0  0  0  0
  -31.2740  -21.2520   21.0480 C   0  0  0  0  0  0  0  0  0  0  0  0
  -28.7140  -22.4070   18.7780 C   0  0  0  0  0  1  0  0  0  0  0  0
  -29.4590  -22.8710   20.0470 C   0  0  0  0  0  3  0  0  0  0  0  0
  -30.7000  -24.9770   19.1640 C   0  0  0  0  0  1  0  0  0  0  0  0
  -29.6120  -24.4310   20.1110 C   0  0  0  0  0  3  0  0  0  0  0  0
  -28.2740  -25.1730   19.8600 C   0  0  0  0  0  2  0  0  0  0  0  0
  -28.3690  -26.5840   20.0820 O   0  0  0  0  0  0  0  0  0  0  0  0
  -24.6130  -31.7330   23.2270 C   0  0  0  0  0  0  0  0  0  0  0  0
  -27.1910  -27.3090   20.0700 C   0  0  0  0  0  0  0  0  0  0  0  0
  -23.3860  -30.3860   21.5520 C   0  0  0  0  0  3  0  0  0  0  0  0
  -24.8160  -28.8540   20.1020 C   0  0  0  0  0  0  0  0  0  0  0  0
  -25.9180  -30.7080   21.3660 C   0  0  0  0  0  2  0  0  0  0  0  0
  -25.9810  -29.3490   20.7000 C   0  0  0  0  0  0  0  0  0  0  0  0
  -27.1710  -28.5860   20.6750 C   0  0  0  0  0  3  0  0  0  0  0  0
  -26.0010  -26.8270   19.4700 C   0  0  0  0  0  3  0  0  0  0  0  0
  -24.8220  -27.5940   19.4830 C   0  0  0  0  0  3  0  0  0  0  0  0
  -23.5870  -29.7310   20.1590 C   0  0  0  0  0  2  0  0  0  0  0  0
  -24.6570  -30.9550   22.1070 N   0  0  0  0  0  0  0  0  0  0  0  0
  -23.5360  -32.0120   23.7690 O   0  0  0  0  0  0  0  0  0  0  0  0
  -22.7150  -29.3570   22.4890 C   0  0  0  0  0  0  0  0  0  0  0  0
  -21.3870  -29.2090   22.3590 N   0  0  0  0  0  0  0  0  0  0  0  0
  -23.3860  -28.6980   23.2880 O   0  0  0  0  0  0  0  0  0  0  0  0
  -20.9110  -29.7910   21.6850 H   0  0  0  0  0  0  0  0  0  0  0  0
  -17.9810  -28.1050   22.8490 C   0  0  0  0  0  0  0  0  0  0  0  0
  -20.5470  -28.2730   23.1060 C   0  0  0  0  0  3  0  0  0  0  0  0
  -20.6000  -26.8600   22.4830 C   0  0  0  0  0  2  0  0  0  0  0  0
  -19.4810  -26.6030   21.4700 C   0  0  0  0  0  2  0  0  0  0  0  0
  -18.1090  -26.7720   22.1300 C   0  0  0  0  0  2  0  0  0  0  0  0
  -19.1260  -28.8170   23.2920 C   0  0  0  0  0  0  0  0  0  0  0  0
  -18.9530  -30.0690   23.9220 C   0  0  0  0  0  3  0  0  0  0  0  0
  -17.6670  -30.6060   24.1150 C   0  0  0  0  0  3  0  0  0  0  0  0
  -16.5350  -29.8890   23.6890 C   0  0  0  0  0  3  0  0  0  0  0  0
  -16.6930  -28.6400   23.0620 C   0  0  0  0  0  3  0  0  0  0  0  0
  -25.9090  -32.3260   23.8620 C   0  0  0  0  0  3  0  0  0  0  0  0
  -25.6330  -33.7280   24.2030 N   0  0  0  0  0  0  0  0  0  0  0  0
  -25.9920  -34.7770   23.4520 C   0  0  0  0  0  0  0  0  0  0  0  0
  -26.6610  -34.6660   22.4210 O   0  0  0  0  0  0  0  0  0  0  0  0
  -25.0430  -33.8910   25.0070 H   0  0  0  0  0  0  0  0  0  0  0  0
  -24.2970  -36.6030   23.1140 C   0  0  0  0  0  1  0  0  0  0  0  0
  -25.5340  -36.1730   23.9170 C   0  0  0  0  0  3  0  0  0  0  0  0
  -27.6890  -37.0110   24.7420 C   0  0  0  0  0  1  0  0  0  0  0  0
  -26.5860  -37.2060   23.8040 N   0  0  0  0  0  0  0  0  0  0  0  0
  -26.1990  -38.1330   23.9570 H   0  0  0  0  0  0  0  0  0  0  0  0
  -26.4010  -31.5280   25.1320 C   0  0  1  0  0  0  0  0  0  0  0  0
  -25.2970  -31.3020   26.1900 C   0  0  0  0  0  1  0  0  0  0  0  0
  -26.9540  -30.1430   24.7240 C   0  0  0  0  0  1  0  0  0  0  0  0
  -27.5650  -32.2880   25.8120 C   0  0  0  0  0  1  0  0  0  0  0  0
  -33.7830  -21.7190   21.1250 C   0  0  0  0  0  1  0  0  0  0  0  0
  -32.6790  -20.6870   20.8490 C   0  0  0  0  0  2  0  0  0  0  0  0
  -30.5240  -20.7690   22.3070 C   0  0  0  0  0  3  0  0  0  0  0  0
  -30.3610  -23.1010   23.3890 C   0  0  0  0  0  1  0  0  0  0  0  0
  -30.3210  -21.0760   24.8650 C   0  0  0  0  0  1  0  0  0  0  0  0
  -30.8640  -21.6530   23.5440 C   0  0  0  0  0  3  0  0  0  0  0  0
  -30.7310  -19.2490   22.6180 C   0  0  0  0  0  2  0  0  0  0  0  0
  -29.1130  -17.6310   19.5190 C   0  0  0  0  0  3  0  0  0  0  0  0
  -29.5280  -18.5950   20.4560 C   0  0  0  0  0  3  0  0  0  0  0  0
  -29.4520  -16.2800   19.7030 C   0  0  0  0  0  3  0  0  0  0  0  0
  -30.6560  -16.8590   21.7440 C   0  0  0  0  0  3  0  0  0  0  0  0
  -30.3200  -18.2240   21.5610 C   0  0  0  0  0  0  0  0  0  0  0  0
  -30.2150  -15.8820   20.8220 C   0  0  0  0  0  0  0  0  0  0  0  0
  -30.8670  -13.6280   20.1610 C   0  0  0  0  0  0  0  0  0  0  0  0
  -30.4730  -11.4430   19.0750 C   0  0  0  0  0  2  0  0  0  0  0  0
  -29.4910  -11.6020   17.8950 C   0  0  0  0  0  2  0  0  0  0  0  0
  -28.0270  -11.5230   18.3740 C   0  0  0  0  0  2  0  0  0  0  0  0
  -27.7510  -12.4360   19.5960 C   0  0  0  0  0  3  0  0  0  0  0  0
  -28.8330  -12.2300   20.6810 C   0  0  0  0  0  2  0  0  0  0  0  0
  -30.1620  -12.4680   20.0810 N   0  0  0  0  0  0  0  0  0  0  0  0
  -31.8760  -13.8600   19.4870 O   0  0  0  0  0  0  0  0  0  0  0  0
  -30.4080  -14.5000   21.0710 N   0  0  0  0  0  0  0  0  0  0  0  0
  -29.7110  -14.0850   21.6720 H   0  0  0  0  0  0  0  0  0  0  0  0
  -25.4050  -13.1650   20.3760 C   0  0  0  0  0  0  0  0  0  0  0  0
  -24.3210  -12.4490   20.8080 C   0  0  0  0  0  0  0  0  0  0  0  0
  -24.7260  -11.0790   20.7990 C   0  0  0  0  0  0  0  0  0  0  0  0
  -26.4040  -12.2350   20.1280 N   0  0  0  0  0  0  0  0  0  0  0  0
  -25.9990  -10.9760   20.4380 N   0  0  0  0  0  0  0  0  0  0  0  0
  -23.9580   -9.8550   21.0590 C   0  0  0  0  0  0  0  0  0  0  0  0
  -24.3730   -8.9170   22.0300 C   0  0  0  0  0  3  0  0  0  0  0  0
  -23.6120   -7.7540   22.2760 C   0  0  0  0  0  3  0  0  0  0  0  0
  -22.4210   -7.5190   21.5480 C   0  0  0  0  0  0  0  0  0  0  0  0
  -22.0220   -8.4480   20.5700 C   0  0  0  0  0  3  0  0  0  0  0  0
  -22.7830   -9.6010   20.3230 C   0  0  0  0  0  3  0  0  0  0  0  0
  -21.6320   -6.4050   21.6970 O   0  0  0  0  0  0  0  0  0  0  0  0
  -21.5680   -5.7210   22.8850 C   0  0  0  0  0  0  0  0  0  0  0  0
  -21.1570   -6.3500   24.0810 C   0  0  0  0  0  3  0  0  0  0  0  0
  -21.0360   -5.5950   25.2650 C   0  0  0  0  0  3  0  0  0  0  0  0
  -21.3160   -4.2150   25.2550 C   0  0  0  0  0  0  0  0  0  0  0  0
  -21.7200   -3.5900   24.0630 C   0  0  0  0  0  3  0  0  0  0  0  0
  -21.8450   -4.3410   22.8810 C   0  0  0  0  0  0  0  0  0  0  0  0
  -22.2140   -3.7270   21.7320 F   0  0  0  0  0  0  0  0  0  0  0  0
  -21.1940   -3.4890   26.3910 F   0  0  0  0  0  0  0  0  0  0  0  0
  -22.9550  -12.9920   21.1180 C   0  0  0  0  0  0  0  0  0  0  0  0
  -22.2340  -12.3580   22.0340 N   0  0  0  0  0  0  0  0  0  0  0  0
  -22.5380  -14.0170   20.5820 O   0  0  0  0  0  0  0  0  0  0  0  0
  -22.5820  -11.5340   22.5010 H   0  0  0  0  0  0  0  0  0  0  0  0
  -21.3180  -12.7110   22.2740 H   0  0  0  0  0  0  0  0  0  0  0  0
  -25.6160  -14.5250   20.1620 N   0  0  0  0  0  0  0  0  0  0  0  0
  -24.8940  -15.2190   20.3260 H   0  0  0  0  0  0  0  0  0  0  0  0
  -26.4890  -14.9310   19.8540 H   0  0  0  0  0  0  0  0  0  0  0  0
  1  2  2  0
  2 51  1  0
  4  3  1  0
  4  6  1  0
  4  1  1  0
  6  5  1  0
  7  8  1  0
  7  6  1  0
  9 20  2  0
 10  8  1  0
 10 15  1  0
 11 19  1  0
 11 21  1  0
 12 18  1  0
 12 14  1  0
 13 19  1  0
 14 13  1  0
 15 14  2  0
 16 17  1  0
 16 10  2  0
 17 12  2  0
 18 11  1  0
 19  9  1  0
 21 23  2  0
 22 21  1  0
 24 22  1  0
 25 34  2  0
 25 30  1  0
 26 22  1  0
 26 30  1  0
 27 26  1  0
 28 29  1  0
 28 27  1  0
 29 25  1  0
 30 31  2  0
 31 32  1  0
 33 32  2  0
 34 33  1  0
 35  9  1  0
 35 36  1  0
 35 45  1  0
 36 39  1  0
 37 41  1  0
 37 36  1  0
 38 37  2  0
 41 40  1  0
 43 41  1  0
 43 44  1  0
 43 42  1  0
 45 48  1  1
 45 46  1  0
 47 45  1  0
 50  2  1  0
 50 49  1  0
 51 55  1  0
 51 54  1  0
 52 54  1  0
 54 53  1  0
 56 58  2  0
 56 57  1  0
 57 60  2  0
 58 61  1  0
 60 59  1  0
 60 55  1  0
 61 70  1  0
 61 59  2  0
 62 70  1  0
 63 68  1  0
 64 65  1  0
 64 63  1  0
 66 65  1  0
 66 75  1  0
 66 67  1  0
 68 62  1  0
 68 67  1  0
 69 62  2  0
 70 71  1  0
 72 73  2  0
 73 92  1  0
 74 73  1  0
 74 77  1  0
 75 72  1  0
 75 76  1  0
 76 74  2  0
 77 78  1  0
 78 79  2  0
 80 83  1  0
 80 79  1  0
 81 80  2  0
 82 81  1  0
 82 77  2  0
 83 84  1  0
 84 85  1  0
 85 86  2  0
 87 86  1  0
 87 91  1  0
 88 87  2  0
 89 84  2  0
 89 88  1  0
 90 89  1  0
 92 93  1  0
 93 96  1  0
 93 95  1  0
 94 92  2  0
 97 98  1  0
 97 72  1  0
 99 97  1  0
M  ISO  4   7 101   8 101  62 100  70 100
M  END
>  <TORSDO>  (35) 
F 24

>  <SCORE>  (35) 
-11.548

>  <name>  (35) 
34

>  <ligand_id>  (35) 
34

>  <original_smiles>  (35) 
[H]C(=C(C([H])([H])C([H])([H])[H])C([H])(C([H])([H])c1c([H])c([H])c([H])c(N([H])C(=O)N2C([H])([H])C([H])([H])C([H])([H])C([H])(n3nc(-c4c([H])c([H])c(Oc5c([H])c([H])c(F)c([H])c5F)c([H])c4[H])c(C(=O)N([H])[H])c3N([H])[H])C2([H])[H])c1[H])C([H])(C([H])([H])[H])C([H])([H])[H])C([H])(C([H])([H])[H])C([H])(C([H])([H])[H])C([H])([H])Oc1c([H])c([H])c2c(c1[H])C([H])([H])N(C(=O)C([H])(N([H])C(=O)C([H])(N([H])C([H])([H])[H])C([H])([H])[H])C(C([H])([H])[H])(C([H])([H])[H])C([H])([H])[H])C([H])(C(=O)N([H])C1([H])c3c([H])c([H])c([H])c([H])c3C([H])([H])C([H])([H])C1([H])[H])C2([H])[H]

>  <smiles>  (35) 
[H]C(=C(C([H])([H])C([H])([H])[H])C([H])(C([H])([H])c1c([H])c([H])c([H])c(N([H])C(=O)N2C([H])([H])C([H])([H])C([H])([H])C([H])(n3nc(-c4c([H])c([H])c(Oc5c([H])c([H])c(F)c([H])c5F)c([H])c4[H])c(C(=O)N([H])[H])c3N([H])[H])C2([H])[H])c1[H])C([H])(C([H])([H])[H])C([H])([H])[H])C([H])(C([H])([H])[H])C([H])(C([H])([H])[H])C([H])([H])Oc1c([H])c([H])c2c(c1[H])C([H])([H])N(C(=O)C([H])(N([H])C(=O)C([H])(N([H])C([H])([H])[H])C([H])([H])[H])C(C([H])([H])[H])(C([H])([H])[H])C([H])([H])[H])C([H])(C(=O)N([H])C1([H])c3c([H])c([H])c([H])c([H])c3C([H])([H])C([H])([H])C1([H])[H])C2([H])[H]

$$$$
35:0:0
     RDKit          3D

 96104  0  0  1  0  0  0  0  0999 V2000
  -31.1040  -22.3010   19.5860 C   0  0  0  0  0  1  0  0  0  0  0  0
  -29.6840  -22.2840   20.2160 C   0  0  2  0  0  0  0  0  0  0  0  0
  -30.8640  -23.2900   22.3580 C   0  0  0  0  0  1  0  0  0  0  0  0
  -29.8680  -22.2810   21.7580 C   0  0  0  0  0  2  0  0  0  0  0  0
  -29.0230  -20.8310   19.8920 C   0  0  0  0  0  2  0  0  0  0  0  0
  -30.6470  -19.4900   18.4550 C   0  0  0  0  0  3  0  0  0  0  0  0
  -31.3040  -18.3350   18.0150 C   0  0  0  0  0  3  0  0  0  0  0  0
  -29.8610  -18.2570   20.3910 C   0  0  0  0  0  3  0  0  0  0  0  0
  -29.8830  -19.5050   19.6350 C   0  0  0  0  0  0  0  0  0  0  0  0
  -31.2130  -17.1060   18.7070 C   0  0  0  0  0  0  0  0  0  0  0  0
  -30.5450  -17.0360   19.9700 C   0  0  0  0  0  0  0  0  0  0  0  0
  -31.1630  -14.5540   20.5570 C   0  0  0  0  0  0  0  0  0  0  0  0
  -30.9030  -12.2420   19.6580 C   0  0  0  0  0  2  0  0  0  0  0  0
  -30.0350  -12.2740   18.3790 C   0  0  0  0  0  2  0  0  0  0  0  0
  -28.5280  -12.2820   18.7120 C   0  0  0  0  0  2  0  0  0  0  0  0
  -28.1500  -13.2260   19.8870 C   0  0  0  0  0  3  0  0  0  0  0  0
  -29.1380  -13.1030   21.0660 C   0  0  0  0  0  2  0  0  0  0  0  0
  -30.4820  -13.3590   20.5340 N   0  0  0  0  0  0  0  0  0  0  0  0
  -32.3700  -14.5790   20.2970 O   0  0  0  0  0  0  0  0  0  0  0  0
  -30.4290  -15.7290   20.6840 N   0  0  0  0  0  0  0  0  0  0  0  0
  -29.5420  -15.5910   21.1450 H   0  0  0  0  0  0  0  0  0  0  0  0
  -25.7640  -13.9750   20.4660 C   0  0  0  0  0  0  0  0  0  0  0  0
  -24.6370  -13.2710   20.7960 C   0  0  0  0  0  0  0  0  0  0  0  0
  -25.0230  -11.8970   20.8270 C   0  0  0  0  0  0  0  0  0  0  0  0
  -26.7660  -13.0310   20.3120 N   0  0  0  0  0  0  0  0  0  0  0  0
  -26.3230  -11.7770   20.5940 N   0  0  0  0  0  0  0  0  0  0  0  0
  -24.2140  -10.6830   21.0070 C   0  0  0  0  0  0  0  0  0  0  0  0
  -24.5950   -9.6700   21.9130 C   0  0  0  0  0  3  0  0  0  0  0  0
  -23.7910   -8.5220   22.0830 C   0  0  0  0  0  3  0  0  0  0  0  0
  -22.5930   -8.3790   21.3440 C   0  0  0  0  0  0  0  0  0  0  0  0
  -22.2300   -9.3790   20.4230 C   0  0  0  0  0  3  0  0  0  0  0  0
  -23.0340  -10.5190   20.2540 C   0  0  0  0  0  3  0  0  0  0  0  0
  -21.7620   -7.2870   21.4250 O   0  0  0  0  0  0  0  0  0  0  0  0
  -21.7130   -6.5000   22.5470 C   0  0  0  0  0  0  0  0  0  0  0  0
  -21.3840   -7.0300   23.8140 C   0  0  0  0  0  3  0  0  0  0  0  0
  -21.2790   -6.1740   24.9280 C   0  0  0  0  0  3  0  0  0  0  0  0
  -21.4910   -4.7910   24.7780 C   0  0  0  0  0  0  0  0  0  0  0  0
  -21.8130   -4.2600   23.5160 C   0  0  0  0  0  3  0  0  0  0  0  0
  -21.9210   -5.1130   22.4030 C   0  0  0  0  0  0  0  0  0  0  0  0
  -22.2100   -4.5950   21.1850 F   0  0  0  0  0  0  0  0  0  0  0  0
  -21.3830   -3.9670   25.8460 F   0  0  0  0  0  0  0  0  0  0  0  0
  -23.2560  -13.8330   20.9780 C   0  0  0  0  0  0  0  0  0  0  0  0
  -22.4580  -13.2240   21.8480 N   0  0  0  0  0  0  0  0  0  0  0  0
  -22.8940  -14.8460   20.3820 O   0  0  0  0  0  0  0  0  0  0  0  0
  -22.7640  -12.4050   22.3500 H   0  0  0  0  0  0  0  0  0  0  0  0
  -21.5300  -13.5870   22.0180 H   0  0  0  0  0  0  0  0  0  0  0  0
  -26.0130  -15.3280   20.2580 N   0  0  0  0  0  0  0  0  0  0  0  0
  -25.2730  -16.0210   20.2880 H   0  0  0  0  0  0  0  0  0  0  0  0
  -26.8950  -15.7090   19.9420 H   0  0  0  0  0  0  0  0  0  0  0  0
  -32.2390  -16.0170   16.5610 C   0  0  0  0  0  1  0  0  0  0  0  0
  -31.7260  -15.8520   18.0010 C   0  0  0  0  0  2  0  0  0  0  0  0
  -28.9800  -23.6710   19.6450 C   0  0  0  0  0  2  0  0  0  0  0  0
  -26.5600  -24.0210   20.4120 C   0  0  0  0  0  1  0  0  0  0  0  0
  -28.3370  -25.1630   21.7500 C   0  0  0  0  0  1  0  0  0  0  0  0
  -27.9340  -24.7170   20.3320 C   0  0  1  0  0  0  0  0  0  0  0  0
  -27.9140  -26.0680   19.6550 O   0  0  0  0  0  0  0  0  0  0  0  0
  -24.4970  -31.5380   23.0410 C   0  0  0  0  0  0  0  0  0  0  0  0
  -26.8370  -26.9730   19.7600 C   0  0  0  0  0  0  0  0  0  0  0  0
  -23.1960  -30.2470   21.3880 C   0  0  0  0  0  3  0  0  0  0  0  0
  -24.5450  -28.6950   19.8660 C   0  0  0  0  0  0  0  0  0  0  0  0
  -25.7410  -30.4680   21.1460 C   0  0  0  0  0  2  0  0  0  0  0  0
  -25.7490  -29.1070   20.4540 C   0  0  0  0  0  0  0  0  0  0  0  0
  -26.8980  -28.2570   20.3960 C   0  0  0  0  0  3  0  0  0  0  0  0
  -25.6250  -26.6390   19.1220 C   0  0  0  0  0  3  0  0  0  0  0  0
  -24.4870  -27.4660   19.1900 C   0  0  0  0  0  3  0  0  0  0  0  0
  -23.3460  -29.6150   19.9780 C   0  0  0  0  0  2  0  0  0  0  0  0
  -24.4980  -30.7680   21.9130 N   0  0  0  0  0  0  0  0  0  0  0  0
  -23.4400  -31.8370   23.6150 O   0  0  0  0  0  0  0  0  0  0  0  0
  -22.5200  -29.2210   22.3300 C   0  0  0  0  0  0  0  0  0  0  0  0
  -21.1830  -29.1100   22.2450 N   0  0  0  0  0  0  0  0  0  0  0  0
  -23.1970  -28.5330   23.0970 O   0  0  0  0  0  0  0  0  0  0  0  0
  -20.6980  -29.7150   21.5980 H   0  0  0  0  0  0  0  0  0  0  0  0
  -17.7720  -28.0550   22.8330 C   0  0  0  0  0  0  0  0  0  0  0  0
  -20.3500  -28.1790   23.0070 C   0  0  0  0  0  3  0  0  0  0  0  0
  -20.3560  -26.7730   22.3620 C   0  0  0  0  0  2  0  0  0  0  0  0
  -19.2010  -26.5540   21.3820 C   0  0  0  0  0  2  0  0  0  0  0  0
  -17.8540  -26.7330   22.0890 C   0  0  0  0  0  2  0  0  0  0  0  0
  -18.9440  -28.7430   23.2490 C   0  0  0  0  0  0  0  0  0  0  0  0
  -18.8120  -29.9860   23.9050 C   0  0  0  0  0  3  0  0  0  0  0  0
  -17.5400  -30.5380   24.1500 C   0  0  0  0  0  3  0  0  0  0  0  0
  -16.3830  -29.8470   23.7490 C   0  0  0  0  0  3  0  0  0  0  0  0
  -16.5010  -28.6070   23.0960 C   0  0  0  0  0  3  0  0  0  0  0  0
  -25.8200  -32.0970   23.6490 C   0  0  0  0  0  3  0  0  0  0  0  0
  -25.5720  -33.4910   24.0490 N   0  0  0  0  0  0  0  0  0  0  0  0
  -25.9270  -34.5650   23.3310 C   0  0  0  0  0  0  0  0  0  0  0  0
  -26.5680  -34.4840   22.2780 O   0  0  0  0  0  0  0  0  0  0  0  0
  -25.0010  -33.6320   24.8690 H   0  0  0  0  0  0  0  0  0  0  0  0
  -24.2480  -36.4270   23.1150 C   0  0  0  0  0  1  0  0  0  0  0  0
  -25.5030  -35.9480   23.8610 C   0  0  0  0  0  3  0  0  0  0  0  0
  -27.6930  -36.7290   24.6500 C   0  0  0  0  0  1  0  0  0  0  0  0
  -26.5660  -36.9710   23.7530 N   0  0  0  0  0  0  0  0  0  0  0  0
  -26.1980  -37.8980   23.9510 H   0  0  0  0  0  0  0  0  0  0  0  0
  -26.3460  -31.2530   24.8750 C   0  0  1  0  0  0  0  0  0  0  0  0
  -25.2820  -31.0200   25.9730 C   0  0  0  0  0  1  0  0  0  0  0  0
  -26.8530  -29.8680   24.4100 C   0  0  0  0  0  1  0  0  0  0  0  0
  -27.5550  -31.9710   25.5230 C   0  0  0  0  0  1  0  0  0  0  0  0
  2  1  1  6
  2  4  1  0
  4  3  1  0
  5  2  1  0
  6  9  1  0
  7  6  2  0
  7 10  1  0
  9  5  1  0
  9  8  2  0
 10 11  2  0
 11  8  1  0
 11 20  1  0
 12 20  1  0
 13 18  1  0
 14 15  1  0
 14 13  1  0
 16 15  1  0
 16 25  1  0
 16 17  1  0
 18 12  1  0
 18 17  1  0
 19 12  2  0
 20 21  1  0
 22 23  2  0
 23 24  1  0
 23 42  1  0
 24 27  1  0
 25 22  1  0
 25 26  1  0
 26 24  2  0
 27 28  1  0
 28 29  2  0
 30 33  1  0
 30 29  1  0
 31 30  2  0
 32 31  1  0
 32 27  2  0
 33 34  1  0
 34 35  1  0
 35 36  2  0
 37 36  1  0
 37 41  1  0
 38 37  2  0
 39 34  2  0
 39 38  1  0
 40 39  1  0
 42 43  1  0
 43 46  1  0
 43 45  1  0
 44 42  2  0
 47 48  1  0
 47 22  1  0
 49 47  1  0
 50 51  1  0
 51 10  1  0
 52  2  1  0
 52 55  1  0
 55 53  1  1
 55 54  1  0
 56 58  1  0
 56 55  1  0
 57 68  2  0
 58 63  1  0
 59 67  1  0
 59 69  1  0
 60 66  1  0
 60 62  1  0
 61 67  1  0
 62 61  1  0
 63 62  2  0
 64 65  1  0
 64 58  2  0
 65 60  2  0
 66 59  1  0
 67 57  1  0
 69 71  2  0
 70 69  1  0
 72 70  1  0
 73 82  2  0
 73 78  1  0
 74 70  1  0
 74 78  1  0
 75 74  1  0
 76 77  1  0
 76 75  1  0
 77 73  1  0
 78 79  2  0
 79 80  1  0
 81 80  2  0
 82 81  1  0
 83 57  1  0
 83 84  1  0
 83 93  1  0
 84 87  1  0
 85 89  1  0
 85 84  1  0
 86 85  2  0
 89 88  1  0
 91 89  1  0
 91 92  1  0
 91 90  1  0
 93 96  1  1
 93 94  1  0
 95 93  1  0
M  ISO  4  12 100  20 100  55 101  56 101
M  END
>  <TORSDO>  (36) 
F 22

>  <SCORE>  (36) 
-12.179

>  <name>  (36) 
35

>  <ligand_id>  (36) 
35

>  <original_smiles>  (36) 
[H]c1c([H])c([H])c2c(c1[H])C([H])([H])C([H])([H])C([H])([H])C2([H])N([H])C(=O)C1([H])N(C(=O)C([H])(N([H])C(=O)C([H])(N([H])C([H])([H])[H])C([H])([H])[H])C(C([H])([H])[H])(C([H])([H])[H])C([H])([H])[H])C([H])([H])c2c([H])c(OC(C([H])([H])[H])(C([H])([H])[H])C([H])([H])C(C([H])([H])[H])(C([H])([H])c3c([H])c([H])c(C([H])([H])C([H])([H])[H])c(N([H])C(=O)N4C([H])([H])C([H])([H])C([H])([H])C([H])(n5nc(-c6c([H])c([H])c(Oc7c([H])c([H])c(F)c([H])c7F)c([H])c6[H])c(C(=O)N([H])[H])c5N([H])[H])C4([H])[H])c3[H])C([H])([H])C([H])([H])[H])c([H])c([H])c2C1([H])[H]

>  <smiles>  (36) 
[H]c1c([H])c([H])c2c(c1[H])C([H])([H])C([H])([H])C([H])([H])C2([H])N([H])C(=O)C1([H])N(C(=O)C([H])(N([H])C(=O)C([H])(N([H])C([H])([H])[H])C([H])([H])[H])C(C([H])([H])[H])(C([H])([H])[H])C([H])([H])[H])C([H])([H])c2c([H])c(OC(C([H])([H])[H])(C([H])([H])[H])C([H])([H])C(C([H])([H])[H])(C([H])([H])c3c([H])c([H])c(C([H])([H])C([H])([H])[H])c(N([H])C(=O)N4C([H])([H])C([H])([H])C([H])([H])C([H])(n5nc(-c6c([H])c([H])c(Oc7c([H])c([H])c(F)c([H])c7F)c([H])c6[H])c(C(=O)N([H])[H])c5N([H])[H])C4([H])[H])c3[H])C([H])([H])C([H])([H])[H])c([H])c([H])c2C1([H])[H]

$$$$
36:0:0
     RDKit          3D

 94102  0  0  1  0  0  0  0  0999 V2000
  -31.5380  -21.8230   19.2660 C   0  0  0  0  0  3  0  0  0  0  0  0
  -31.7150  -23.1400   19.5250 C   0  0  0  0  0  0  0  0  0  0  0  0
  -32.8300  -23.8840   18.7980 C   0  0  0  0  0  1  0  0  0  0  0  0
  -28.5020  -19.9510   20.7120 C   0  0  0  0  0  3  0  0  0  0  0  0
  -29.2740  -21.0130   20.1940 C   0  0  0  0  0  3  0  0  0  0  0  0
  -29.0460  -18.6560   20.8350 C   0  0  0  0  0  3  0  0  0  0  0  0
  -31.1420  -19.4940   19.9360 C   0  0  0  0  0  3  0  0  0  0  0  0
  -30.6140  -20.7960   19.8020 C   0  0  0  0  0  0  0  0  0  0  0  0
  -30.3760  -18.4180   20.4360 C   0  0  0  0  0  0  0  0  0  0  0  0
  -31.0400  -17.0470   20.5250 C   0  0  0  0  0  2  0  0  0  0  0  0
  -30.1310  -15.7980   20.7310 C   0  0  0  0  0  2  0  0  0  0  0  0
  -30.7670  -14.5130   20.1470 C   0  0  0  0  0  0  0  0  0  0  0  0
  -30.4150  -12.3180   19.0920 C   0  0  0  0  0  2  0  0  0  0  0  0
  -29.4410  -12.4810   17.9070 C   0  0  0  0  0  2  0  0  0  0  0  0
  -27.9840  -12.3410   18.3870 C   0  0  0  0  0  2  0  0  0  0  0  0
  -27.6740  -13.2220   19.6270 C   0  0  0  0  0  3  0  0  0  0  0  0
  -28.7690  -13.0900   20.7100 C   0  0  0  0  0  2  0  0  0  0  0  0
  -30.0740  -13.3480   20.0860 N   0  0  0  0  0  0  0  0  0  0  0  0
  -31.8790  -14.6190   19.6210 O   0  0  0  0  0  0  0  0  0  0  0  0
  -25.3070  -13.8140   20.4420 C   0  0  0  0  0  0  0  0  0  0  0  0
  -24.2590  -13.0360   20.8540 C   0  0  0  0  0  0  0  0  0  0  0  0
  -24.7240  -11.6860   20.8010 C   0  0  0  0  0  0  0  0  0  0  0  0
  -26.3460  -12.9390   20.1640 N   0  0  0  0  0  0  0  0  0  0  0  0
  -26.0010  -11.6530   20.4380 N   0  0  0  0  0  0  0  0  0  0  0  0
  -24.0120  -10.4210   21.0200 C   0  0  0  0  0  0  0  0  0  0  0  0
  -24.4360   -9.4940   21.9980 C   0  0  0  0  0  3  0  0  0  0  0  0
  -23.7260   -8.2930   22.2040 C   0  0  0  0  0  3  0  0  0  0  0  0
  -22.5760   -8.0070   21.4290 C   0  0  0  0  0  0  0  0  0  0  0  0
  -22.1710   -8.9210   20.4400 C   0  0  0  0  0  3  0  0  0  0  0  0
  -22.8820  -10.1160   20.2340 C   0  0  0  0  0  3  0  0  0  0  0  0
  -21.8380   -6.8530   21.5390 O   0  0  0  0  0  0  0  0  0  0  0  0
  -21.7120   -6.1890   22.7340 C   0  0  0  0  0  0  0  0  0  0  0  0
  -21.1300   -6.8000   23.8660 C   0  0  0  0  0  3  0  0  0  0  0  0
  -20.9560   -6.0600   25.0520 C   0  0  0  0  0  3  0  0  0  0  0  0
  -21.3550   -4.7110   25.1070 C   0  0  0  0  0  0  0  0  0  0  0  0
  -21.9300   -4.1010   23.9790 C   0  0  0  0  0  3  0  0  0  0  0  0
  -22.1060   -4.8380   22.7950 C   0  0  0  0  0  0  0  0  0  0  0  0
  -22.6410   -4.2380   21.7040 F   0  0  0  0  0  0  0  0  0  0  0  0
  -21.1820   -3.9980   26.2450 F   0  0  0  0  0  0  0  0  0  0  0  0
  -22.8730  -13.5060   21.1860 C   0  0  0  0  0  0  0  0  0  0  0  0
  -22.1870  -12.8030   22.0800 N   0  0  0  0  0  0  0  0  0  0  0  0
  -22.4080  -14.5310   20.6890 O   0  0  0  0  0  0  0  0  0  0  0  0
  -22.5810  -11.9760   22.5050 H   0  0  0  0  0  0  0  0  0  0  0  0
  -21.2570  -13.0950   22.3450 H   0  0  0  0  0  0  0  0  0  0  0  0
  -25.4610  -15.1860   20.2600 N   0  0  0  0  0  0  0  0  0  0  0  0
  -24.7040  -15.8450   20.4040 H   0  0  0  0  0  0  0  0  0  0  0  0
  -26.3070  -15.6240   19.9150 H   0  0  0  0  0  0  0  0  0  0  0  0
  -30.9280  -23.9750   20.5420 C   0  0  0  0  0  2  0  0  0  0  0  0
  -30.7720  -25.4730   20.1670 C   0  0  0  0  0  2  0  0  0  0  0  0
  -30.2240  -26.0490   22.5910 C   0  0  0  0  0  1  0  0  0  0  0  0
  -30.2040  -27.8340   20.8570 C   0  0  0  0  0  1  0  0  0  0  0  0
  -29.8970  -26.3430   21.1110 C   0  0  1  0  0  0  0  0  0  0  0  0
  -28.3910  -26.0910   20.8560 C   0  0  0  0  0  2  0  0  0  0  0  0
  -27.9690  -26.6650   19.6170 O   0  0  0  0  0  0  0  0  0  0  0  0
  -24.3220  -31.7100   23.0610 C   0  0  0  0  0  0  0  0  0  0  0  0
  -26.8240  -27.4150   19.7070 C   0  0  0  0  0  0  0  0  0  0  0  0
  -23.0460  -30.3910   21.3990 C   0  0  0  0  0  3  0  0  0  0  0  0
  -24.4380  -28.9080   19.8600 C   0  0  0  0  0  0  0  0  0  0  0  0
  -25.5610  -30.7500   21.1280 C   0  0  0  0  0  2  0  0  0  0  0  0
  -25.6150  -29.4070   20.4340 C   0  0  0  0  0  0  0  0  0  0  0  0
  -26.8110  -28.6660   20.3600 C   0  0  0  0  0  3  0  0  0  0  0  0
  -25.6400  -26.9250   19.1210 C   0  0  0  0  0  3  0  0  0  0  0  0
  -24.4430  -27.6630   19.2020 C   0  0  0  0  0  3  0  0  0  0  0  0
  -23.2010  -29.7680   19.9850 C   0  0  0  0  0  2  0  0  0  0  0  0
  -24.3300  -30.9620   21.9230 N   0  0  0  0  0  0  0  0  0  0  0  0
  -23.2640  -31.9650   23.6520 O   0  0  0  0  0  0  0  0  0  0  0  0
  -22.4190  -29.3330   22.3360 C   0  0  0  0  0  0  0  0  0  0  0  0
  -21.0900  -29.1720   22.2500 N   0  0  0  0  0  0  0  0  0  0  0  0
  -23.1260  -28.6630   23.0960 O   0  0  0  0  0  0  0  0  0  0  0  0
  -20.5820  -29.7640   21.6080 H   0  0  0  0  0  0  0  0  0  0  0  0
  -17.7190  -28.0130   22.8330 C   0  0  0  0  0  0  0  0  0  0  0  0
  -20.2900  -28.2090   23.0070 C   0  0  0  0  0  3  0  0  0  0  0  0
  -20.3390  -26.8090   22.3530 C   0  0  0  0  0  2  0  0  0  0  0  0
  -19.1890  -26.5600   21.3710 C   0  0  0  0  0  2  0  0  0  0  0  0
  -17.8400  -26.6980   22.0810 C   0  0  0  0  0  2  0  0  0  0  0  0
  -18.8700  -28.7300   23.2540 C   0  0  0  0  0  0  0  0  0  0  0  0
  -18.7040  -29.9650   23.9170 C   0  0  0  0  0  3  0  0  0  0  0  0
  -17.4180  -30.4810   24.1640 C   0  0  0  0  0  3  0  0  0  0  0  0
  -16.2820  -29.7600   23.7600 C   0  0  0  0  0  3  0  0  0  0  0  0
  -16.4330  -28.5270   23.1010 C   0  0  0  0  0  3  0  0  0  0  0  0
  -25.6360  -32.3000   23.6610 C   0  0  0  0  0  3  0  0  0  0  0  0
  -25.3620  -33.6900   24.0470 N   0  0  0  0  0  0  0  0  0  0  0  0
  -25.7170  -34.7630   23.3260 C   0  0  0  0  0  0  0  0  0  0  0  0
  -26.3830  -34.6830   22.2910 O   0  0  0  0  0  0  0  0  0  0  0  0
  -24.7720  -33.8270   24.8540 H   0  0  0  0  0  0  0  0  0  0  0  0
  -24.0440  -36.6160   23.0240 C   0  0  0  0  0  1  0  0  0  0  0  0
  -25.2600  -36.1430   23.8370 C   0  0  0  0  0  3  0  0  0  0  0  0
  -27.3970  -36.9340   24.7480 C   0  0  0  0  0  1  0  0  0  0  0  0
  -26.3230  -37.1700   23.7870 N   0  0  0  0  0  0  0  0  0  0  0  0
  -25.9390  -38.0950   23.9640 H   0  0  0  0  0  0  0  0  0  0  0  0
  -26.1850  -31.4760   24.8910 C   0  0  1  0  0  0  0  0  0  0  0  0
  -25.1240  -31.2130   25.9840 C   0  0  0  0  0  1  0  0  0  0  0  0
  -26.7370  -30.1070   24.4260 C   0  0  0  0  0  1  0  0  0  0  0  0
  -27.3660  -32.2310   25.5430 C   0  0  0  0  0  1  0  0  0  0  0  0
  1  2  2  0
  1  8  1  0
  2 48  1  0
  3  2  1  0
  4  6  1  0
  5  4  2  0
  7  9  1  0
  8  7  2  0
  8  5  1  0
  9 10  1  0
  9  6  2  0
 10 11  1  0
 12 11  1  0
 13 18  1  0
 14 15  1  0
 14 13  1  0
 16 15  1  0
 16 23  1  0
 16 17  1  0
 18 12  1  0
 18 17  1  0
 19 12  2  0
 20 21  2  0
 21 40  1  0
 22 21  1  0
 22 25  1  0
 23 24  1  0
 23 20  1  0
 24 22  2  0
 25 26  1  0
 26 27  2  0
 28 31  1  0
 28 27  1  0
 29 28  2  0
 30 29  1  0
 30 25  2  0
 31 32  1  0
 32 37  2  0
 32 33  1  0
 33 34  2  0
 34 35  1  0
 35 39  1  0
 36 35  2  0
 37 36  1  0
 38 37  1  0
 40 41  1  0
 41 44  1  0
 41 43  1  0
 42 40  2  0
 45 46  1  0
 45 20  1  0
 47 45  1  0
 49 48  1  0
 49 52  1  0
 52 51  1  6
 52 50  1  0
 53 52  1  0
 54 56  1  0
 54 53  1  0
 55 66  2  0
 56 61  1  0
 57 65  1  0
 57 67  1  0
 58 64  1  0
 58 60  1  0
 59 65  1  0
 60 59  1  0
 61 60  2  0
 62 63  1  0
 62 56  2  0
 63 58  2  0
 64 57  1  0
 65 55  1  0
 67 69  2  0
 68 67  1  0
 70 68  1  0
 71 80  2  0
 71 76  1  0
 72 68  1  0
 72 76  1  0
 73 72  1  0
 74 75  1  0
 74 73  1  0
 75 71  1  0
 76 77  2  0
 77 78  1  0
 79 78  2  0
 80 79  1  0
 81 55  1  0
 81 82  1  0
 81 91  1  0
 82 85  1  0
 83 87  1  0
 83 82  1  0
 84 83  2  0
 87 86  1  0
 89 87  1  0
 89 90  1  0
 89 88  1  0
 91 94  1  1
 91 92  1  0
 93 91  1  0
M  ISO  4  11 100  12 100  53 101  54 101
M  END
>  <TORSDO>  (37) 
F 23

>  <SCORE>  (37) 
-12.290

>  <name>  (37) 
36

>  <ligand_id>  (37) 
36

>  <original_smiles>  (37) 
[H]C(=C(C([H])([H])[H])C([H])([H])C([H])([H])C(C([H])([H])[H])(C([H])([H])[H])C([H])([H])Oc1c([H])c([H])c2c(c1[H])C([H])([H])N(C(=O)C([H])(N([H])C(=O)C([H])(N([H])C([H])([H])[H])C([H])([H])[H])C(C([H])([H])[H])(C([H])([H])[H])C([H])([H])[H])C([H])(C(=O)N([H])C1([H])c3c([H])c([H])c([H])c([H])c3C([H])([H])C([H])([H])C1([H])[H])C2([H])[H])c1c([H])c([H])c([H])c(C([H])([H])C([H])([H])C(=O)N2C([H])([H])C([H])([H])C([H])([H])C([H])(n3nc(-c4c([H])c([H])c(Oc5c([H])c([H])c(F)c([H])c5F)c([H])c4[H])c(C(=O)N([H])[H])c3N([H])[H])C2([H])[H])c1[H]

>  <smiles>  (37) 
[H]C(=C(C([H])([H])[H])C([H])([H])C([H])([H])C(C([H])([H])[H])(C([H])([H])[H])C([H])([H])Oc1c([H])c([H])c2c(c1[H])C([H])([H])N(C(=O)C([H])(N([H])C(=O)C([H])(N([H])C([H])([H])[H])C([H])([H])[H])C(C([H])([H])[H])(C([H])([H])[H])C([H])([H])[H])C([H])(C(=O)N([H])C1([H])c3c([H])c([H])c([H])c([H])c3C([H])([H])C([H])([H])C1([H])[H])C2([H])[H])c1c([H])c([H])c([H])c(C([H])([H])C([H])([H])C(=O)N2C([H])([H])C([H])([H])C([H])([H])C([H])(n3nc(-c4c([H])c([H])c(Oc5c([H])c([H])c(F)c([H])c5F)c([H])c4[H])c(C(=O)N([H])[H])c3N([H])[H])C2([H])[H])c1[H]

$$$$
37:0:0
     RDKit          3D

 95103  0  0  1  0  0  0  0  0999 V2000
  -29.8320  -21.4750   19.1840 C   0  0  0  0  0  2  0  0  0  0  0  0
  -28.5830  -22.6490   17.2660 C   0  0  0  0  0  1  0  0  0  0  0  0
  -30.5890  -23.6760   18.2530 C   0  0  0  0  0  1  0  0  0  0  0  0
  -29.3340  -22.8440   18.5970 C   0  0  2  0  0  0  0  0  0  0  0  0
  -28.3770  -23.6560   19.5220 C   0  0  0  0  0  2  0  0  0  0  0  0
  -28.9830  -24.3860   20.7420 C   0  0  0  0  0  2  0  0  0  0  0  0
  -28.1170  -25.5710   21.2110 C   0  0  0  0  0  2  0  0  0  0  0  0
  -28.2070  -26.6850   20.3100 O   0  0  0  0  0  0  0  0  0  0  0  0
  -24.5030  -31.9670   23.2960 C   0  0  0  0  0  0  0  0  0  0  0  0
  -27.0720  -27.4570   20.2830 C   0  0  0  0  0  0  0  0  0  0  0  0
  -23.2710  -30.5570   21.6790 C   0  0  0  0  0  3  0  0  0  0  0  0
  -24.6980  -28.9820   20.2690 C   0  0  0  0  0  0  0  0  0  0  0  0
  -25.7970  -30.8870   21.4610 C   0  0  0  0  0  2  0  0  0  0  0  0
  -25.8640  -29.5060   20.8430 C   0  0  0  0  0  0  0  0  0  0  0  0
  -27.0590  -28.7510   20.8460 C   0  0  0  0  0  3  0  0  0  0  0  0
  -25.8970  -26.9450   19.6950 C   0  0  0  0  0  3  0  0  0  0  0  0
  -24.7100  -27.7010   19.6880 C   0  0  0  0  0  3  0  0  0  0  0  0
  -23.4640  -29.8550   20.3090 C   0  0  0  0  0  2  0  0  0  0  0  0
  -24.5420  -31.1520   22.2040 N   0  0  0  0  0  0  0  0  0  0  0  0
  -23.4270  -32.2600   23.8370 O   0  0  0  0  0  0  0  0  0  0  0  0
  -22.6120  -29.5580   22.6580 C   0  0  0  0  0  0  0  0  0  0  0  0
  -21.2910  -29.3610   22.5140 N   0  0  0  0  0  0  0  0  0  0  0  0
  -23.2870  -28.9610   23.5010 O   0  0  0  0  0  0  0  0  0  0  0  0
  -20.8090  -29.8960   21.8050 H   0  0  0  0  0  0  0  0  0  0  0  0
  -17.9250  -28.1230   22.9540 C   0  0  0  0  0  0  0  0  0  0  0  0
  -20.4670  -28.4400   23.2960 C   0  0  0  0  0  3  0  0  0  0  0  0
  -20.6140  -26.9890   22.7800 C   0  0  0  0  0  2  0  0  0  0  0  0
  -19.5510  -26.6070   21.7460 C   0  0  0  0  0  2  0  0  0  0  0  0
  -18.1470  -26.7510   22.3390 C   0  0  0  0  0  2  0  0  0  0  0  0
  -19.0160  -28.9230   23.3880 C   0  0  0  0  0  0  0  0  0  0  0  0
  -18.7580  -30.2050   23.9190 C   0  0  0  0  0  3  0  0  0  0  0  0
  -17.4400  -30.6900   24.0210 C   0  0  0  0  0  3  0  0  0  0  0  0
  -16.3630  -29.8880   23.6050 C   0  0  0  0  0  3  0  0  0  0  0  0
  -16.6060  -28.6070   23.0760 C   0  0  0  0  0  3  0  0  0  0  0  0
  -25.8000  -32.5890   23.9010 C   0  0  0  0  0  3  0  0  0  0  0  0
  -25.5100  -33.9940   24.2170 N   0  0  0  0  0  0  0  0  0  0  0  0
  -25.8600  -35.0350   23.4490 C   0  0  0  0  0  0  0  0  0  0  0  0
  -26.5340  -34.9120   22.4220 O   0  0  0  0  0  0  0  0  0  0  0  0
  -24.9120  -34.1640   25.0130 H   0  0  0  0  0  0  0  0  0  0  0  0
  -24.1620  -36.8480   23.0640 C   0  0  0  0  0  1  0  0  0  0  0  0
  -25.3890  -36.4330   23.8900 C   0  0  0  0  0  3  0  0  0  0  0  0
  -27.5300  -37.2910   24.7340 C   0  0  0  0  0  1  0  0  0  0  0  0
  -26.4380  -37.4690   23.7790 N   0  0  0  0  0  0  0  0  0  0  0  0
  -26.0450  -38.3960   23.9160 H   0  0  0  0  0  0  0  0  0  0  0  0
  -26.3190  -31.8240   25.1800 C   0  0  1  0  0  0  0  0  0  0  0  0
  -25.2330  -31.6010   26.2560 C   0  0  0  0  0  1  0  0  0  0  0  0
  -26.8910  -30.4400   24.7900 C   0  0  0  0  0  1  0  0  0  0  0  0
  -27.4790  -32.6150   25.8280 C   0  0  0  0  0  1  0  0  0  0  0  0
  -28.8660  -20.2570   19.3030 C   0  0  0  0  0  2  0  0  0  0  0  0
  -31.0820  -16.5330   18.7700 C   0  0  0  0  0  3  0  0  0  0  0  0
  -29.7360  -17.9910   20.1700 C   0  0  0  0  0  3  0  0  0  0  0  0
  -30.8830  -17.3770   17.6690 C   0  0  0  0  0  0  0  0  0  0  0  0
  -29.5760  -18.9010   19.0840 C   0  0  0  0  0  0  0  0  0  0  0  0
  -30.0960  -18.5420   17.8050 C   0  0  0  0  0  0  0  0  0  0  0  0
  -30.4730  -16.7850   20.0180 C   0  0  0  0  0  0  0  0  0  0  0  0
  -31.5170  -16.9870   16.3410 C   0  0  0  0  0  1  0  0  0  0  0  0
  -29.8350  -19.3740   16.5580 C   0  0  0  0  0  1  0  0  0  0  0  0
  -31.2880  -14.6760   20.9830 C   0  0  0  0  0  0  0  0  0  0  0  0
  -31.0350  -12.4550   19.9630 C   0  0  0  0  0  2  0  0  0  0  0  0
  -30.2370  -12.5960   18.6470 C   0  0  0  0  0  2  0  0  0  0  0  0
  -28.7190  -12.5820   18.9090 C   0  0  0  0  0  2  0  0  0  0  0  0
  -28.2830  -13.4950   20.0880 C   0  0  0  0  0  3  0  0  0  0  0  0
  -29.2020  -13.3020   21.3160 C   0  0  0  0  0  2  0  0  0  0  0  0
  -30.5900  -13.5130   20.8830 N   0  0  0  0  0  0  0  0  0  0  0  0
  -32.4970  -14.7560   20.7490 O   0  0  0  0  0  0  0  0  0  0  0  0
  -30.5400  -15.7990   21.0620 N   0  0  0  0  0  0  0  0  0  0  0  0
  -29.6850  -15.6950   21.5880 H   0  0  0  0  0  0  0  0  0  0  0  0
  -25.8540  -14.2180   20.5300 C   0  0  0  0  0  0  0  0  0  0  0  0
  -24.7180  -13.5000   20.7900 C   0  0  0  0  0  0  0  0  0  0  0  0
  -25.1200  -12.1290   20.8290 C   0  0  0  0  0  0  0  0  0  0  0  0
  -26.8760  -13.2890   20.4260 N   0  0  0  0  0  0  0  0  0  0  0  0
  -26.4320  -12.0290   20.6670 N   0  0  0  0  0  0  0  0  0  0  0  0
  -24.3220  -10.9020   20.9520 C   0  0  0  0  0  0  0  0  0  0  0  0
  -24.6430   -9.9050   21.9000 C   0  0  0  0  0  3  0  0  0  0  0  0
  -23.8500   -8.7420   22.0120 C   0  0  0  0  0  3  0  0  0  0  0  0
  -22.7230   -8.5680   21.1750 C   0  0  0  0  0  0  0  0  0  0  0  0
  -22.4230   -9.5520   20.2160 C   0  0  0  0  0  3  0  0  0  0  0  0
  -23.2150  -10.7070   20.1020 C   0  0  0  0  0  3  0  0  0  0  0  0
  -21.9100   -7.4620   21.1950 O   0  0  0  0  0  0  0  0  0  0  0  0
  -21.7540   -6.7030   22.3280 C   0  0  0  0  0  0  0  0  0  0  0  0
  -21.2940   -7.2610   23.5410 C   0  0  0  0  0  3  0  0  0  0  0  0
  -21.0850   -6.4320   24.6610 C   0  0  0  0  0  3  0  0  0  0  0  0
  -21.3230   -5.0480   24.5690 C   0  0  0  0  0  0  0  0  0  0  0  0
  -21.7750   -4.4900   23.3600 C   0  0  0  0  0  3  0  0  0  0  0  0
  -21.9880   -5.3150   22.2420 C   0  0  0  0  0  0  0  0  0  0  0  0
  -22.4040   -4.7690   21.0740 F   0  0  0  0  0  0  0  0  0  0  0  0
  -21.1140   -4.2510   25.6420 F   0  0  0  0  0  0  0  0  0  0  0  0
  -23.3220  -14.0400   20.9020 C   0  0  0  0  0  0  0  0  0  0  0  0
  -22.4780  -13.3990   21.7050 N   0  0  0  0  0  0  0  0  0  0  0  0
  -22.9850  -15.0680   20.3160 O   0  0  0  0  0  0  0  0  0  0  0  0
  -22.7620  -12.5690   22.2030 H   0  0  0  0  0  0  0  0  0  0  0  0
  -21.5370  -13.7440   21.8220 H   0  0  0  0  0  0  0  0  0  0  0  0
  -26.0990  -15.5770   20.3540 N   0  0  0  0  0  0  0  0  0  0  0  0
  -25.3560  -16.2680   20.3620 H   0  0  0  0  0  0  0  0  0  0  0  0
  -27.0000  -15.9690   20.1110 H   0  0  0  0  0  0  0  0  0  0  0  0
  1 49  1  0
  4  2  1  6
  3  4  1  0
  4  1  1  0
  4  5  1  0
  5  6  1  0
  6  7  1  0
  8  7  1  0
  9 20  2  0
 10  8  1  0
 10 15  1  0
 11 19  1  0
 11 21  1  0
 12 18  1  0
 12 14  1  0
 13 19  1  0
 14 15  2  0
 14 13  1  0
 16 10  2  0
 17 16  1  0
 17 12  2  0
 18 11  1  0
 19  9  1  0
 21 23  2  0
 22 21  1  0
 24 22  1  0
 25 34  2  0
 25 30  1  0
 26 22  1  0
 26 30  1  0
 27 26  1  0
 28 29  1  0
 28 27  1  0
 29 25  1  0
 30 31  2  0
 31 32  1  0
 33 32  2  0
 34 33  1  0
 35  9  1  0
 35 36  1  0
 35 45  1  0
 36 39  1  0
 37 41  1  0
 37 36  1  0
 38 37  2  0
 41 40  1  0
 43 41  1  0
 43 44  1  0
 43 42  1  0
 45 48  1  1
 45 46  1  0
 47 45  1  0
 50 55  1  0
 52 54  1  0
 52 50  2  0
 53 49  1  0
 53 51  1  0
 54 53  2  0
 55 51  2  0
 55 66  1  0
 56 52  1  0
 57 54  1  0
 58 66  1  0
 59 64  1  0
 60 61  1  0
 60 59  1  0
 62 61  1  0
 62 71  1  0
 62 63  1  0
 64 58  1  0
 64 63  1  0
 65 58  2  0
 66 67  1  0
 68 69  2  0
 69 70  1  0
 69 88  1  0
 70 73  1  0
 71 68  1  0
 71 72  1  0
 72 70  2  0
 73 74  1  0
 74 75  2  0
 76 79  1  0
 76 75  1  0
 77 76  2  0
 78 77  1  0
 78 73  2  0
 79 80  1  0
 80 81  1  0
 81 82  2  0
 83 82  1  0
 83 87  1  0
 84 83  2  0
 85 80  2  0
 85 84  1  0
 86 85  1  0
 88 89  1  0
 89 92  1  0
 89 91  1  0
 90 88  2  0
 93 94  1  0
 93 68  1  0
 95 93  1  0
M  ISO  4   7 101   8 101  58 100  66 100
M  END
>  <TORSDO>  (38) 
F 22

>  <SCORE>  (38) 
-12.239

>  <name>  (38) 
37

>  <ligand_id>  (38) 
37

>  <original_smiles>  (38) 
[H]c1c([H])c([H])c2c(c1[H])C([H])([H])C([H])([H])C([H])([H])C2([H])N([H])C(=O)C1([H])N(C(=O)C([H])(N([H])C(=O)C([H])(N([H])C([H])([H])[H])C([H])([H])[H])C(C([H])([H])[H])(C([H])([H])[H])C([H])([H])[H])C([H])([H])c2c([H])c(OC([H])([H])C([H])([H])C([H])([H])C(C([H])([H])[H])(C([H])([H])[H])C([H])([H])C([H])([H])c3c([H])c(N([H])C(=O)N4C([H])([H])C([H])([H])C([H])([H])C([H])(n5nc(-c6c([H])c([H])c(Oc7c([H])c([H])c(F)c([H])c7F)c([H])c6[H])c(C(=O)N([H])[H])c5N([H])[H])C4([H])[H])c([H])c(C([H])([H])[H])c3C([H])([H])[H])c([H])c([H])c2C1([H])[H]

>  <smiles>  (38) 
[H]c1c([H])c([H])c2c(c1[H])C([H])([H])C([H])([H])C([H])([H])C2([H])N([H])C(=O)C1([H])N(C(=O)C([H])(N([H])C(=O)C([H])(N([H])C([H])([H])[H])C([H])([H])[H])C(C([H])([H])[H])(C([H])([H])[H])C([H])([H])[H])C([H])([H])c2c([H])c(OC([H])([H])C([H])([H])C([H])([H])C(C([H])([H])[H])(C([H])([H])[H])C([H])([H])C([H])([H])c3c([H])c(N([H])C(=O)N4C([H])([H])C([H])([H])C([H])([H])C([H])(n5nc(-c6c([H])c([H])c(Oc7c([H])c([H])c(F)c([H])c7F)c([H])c6[H])c(C(=O)N([H])[H])c5N([H])[H])C4([H])[H])c([H])c(C([H])([H])[H])c3C([H])([H])[H])c([H])c([H])c2C1([H])[H]

$$$$
38:0:0
     RDKit          3D

 93101  0  0  1  0  0  0  0  0999 V2000
  -28.4540  -23.3020   20.6550 C   0  0  0  0  0  3  0  0  0  0  0  0
  -29.2900  -22.2280   20.8160 C   0  0  0  0  0  0  0  0  0  0  0  0
  -30.2330  -21.4900   23.1050 C   0  0  0  0  0  1  0  0  0  0  0  0
  -30.4760  -22.2370   21.7830 C   0  0  0  0  0  2  0  0  0  0  0  0
  -29.0020  -20.9380   19.9940 C   0  0  0  0  0  2  0  0  0  0  0  0
  -31.4300  -17.4100   19.0510 C   0  0  0  0  0  3  0  0  0  0  0  0
  -31.7650  -18.6930   18.5680 C   0  0  0  0  0  3  0  0  0  0  0  0
  -29.6320  -18.3960   20.3520 C   0  0  0  0  0  3  0  0  0  0  0  0
  -29.9500  -19.7070   19.8490 C   0  0  0  0  0  0  0  0  0  0  0  0
  -30.3520  -17.2130   19.9560 C   0  0  0  0  0  0  0  0  0  0  0  0
  -31.0360  -19.8290   18.9570 C   0  0  0  0  0  0  0  0  0  0  0  0
  -31.3410  -21.0260   18.4040 F   0  0  0  0  0  0  0  0  0  0  0  0
  -30.6430  -14.6850   20.3230 C   0  0  0  0  0  0  0  0  0  0  0  0
  -30.3440  -12.4170   19.3830 C   0  0  0  0  0  2  0  0  0  0  0  0
  -29.4340  -12.5180   18.1430 C   0  0  0  0  0  2  0  0  0  0  0  0
  -27.9570  -12.3860   18.5630 C   0  0  0  0  0  2  0  0  0  0  0  0
  -27.5820  -13.2860   19.7730 C   0  0  0  0  0  3  0  0  0  0  0  0
  -28.6360  -13.2240   20.8980 C   0  0  0  0  0  2  0  0  0  0  0  0
  -29.9490  -13.5030   20.2950 N   0  0  0  0  0  0  0  0  0  0  0  0
  -31.8570  -14.6970   20.1100 O   0  0  0  0  0  0  0  0  0  0  0  0
  -29.9330  -15.8600   20.3560 N   0  0  0  0  0  0  0  0  0  0  0  0
  -28.9440  -15.7540   20.5400 H   0  0  0  0  0  0  0  0  0  0  0  0
  -25.1930  -13.8800   20.5120 C   0  0  0  0  0  0  0  0  0  0  0  0
  -24.1230  -13.1090   20.8790 C   0  0  0  0  0  0  0  0  0  0  0  0
  -24.5880  -11.7600   20.8590 C   0  0  0  0  0  0  0  0  0  0  0  0
  -26.2370  -12.9990   20.2740 N   0  0  0  0  0  0  0  0  0  0  0  0
  -25.8780  -11.7180   20.5470 N   0  0  0  0  0  0  0  0  0  0  0  0
  -23.8580  -10.4990   21.0520 C   0  0  0  0  0  0  0  0  0  0  0  0
  -24.2960   -9.5310   21.9850 C   0  0  0  0  0  3  0  0  0  0  0  0
  -23.5680   -8.3350   22.1670 C   0  0  0  0  0  3  0  0  0  0  0  0
  -22.3900   -8.1000   21.4150 C   0  0  0  0  0  0  0  0  0  0  0  0
  -21.9730   -9.0530   20.4700 C   0  0  0  0  0  3  0  0  0  0  0  0
  -22.7010  -10.2420   20.2880 C   0  0  0  0  0  3  0  0  0  0  0  0
  -21.6310   -6.9600   21.5080 O   0  0  0  0  0  0  0  0  0  0  0  0
  -21.5890   -6.2150   22.6580 C   0  0  0  0  0  0  0  0  0  0  0  0
  -21.1790   -6.7680   23.8920 C   0  0  0  0  0  3  0  0  0  0  0  0
  -21.0900   -5.9490   25.0340 C   0  0  0  0  0  3  0  0  0  0  0  0
  -21.3950   -4.5780   24.9460 C   0  0  0  0  0  0  0  0  0  0  0  0
  -21.7930   -4.0240   23.7160 C   0  0  0  0  0  3  0  0  0  0  0  0
  -21.8880   -4.8400   22.5760 C   0  0  0  0  0  0  0  0  0  0  0  0
  -22.2550   -4.2980   21.3900 F   0  0  0  0  0  0  0  0  0  0  0  0
  -21.3000   -3.7880   26.0410 F   0  0  0  0  0  0  0  0  0  0  0  0
  -22.7270  -13.5880   21.1430 C   0  0  0  0  0  0  0  0  0  0  0  0
  -21.9950  -12.8990   22.0130 N   0  0  0  0  0  0  0  0  0  0  0  0
  -22.2890  -14.6080   20.6170 O   0  0  0  0  0  0  0  0  0  0  0  0
  -22.3640  -12.0780   22.4700 H   0  0  0  0  0  0  0  0  0  0  0  0
  -21.0530  -13.1960   22.2210 H   0  0  0  0  0  0  0  0  0  0  0  0
  -25.3560  -15.2510   20.3390 N   0  0  0  0  0  0  0  0  0  0  0  0
  -24.5890  -15.8980   20.4840 H   0  0  0  0  0  0  0  0  0  0  0  0
  -26.2170  -15.7100   20.0790 H   0  0  0  0  0  0  0  0  0  0  0  0
  -28.3150  -24.6110   21.4670 C   0  0  0  0  0  2  0  0  0  0  0  0
  -29.0420  -25.9170   21.0220 C   0  0  0  0  0  2  0  0  0  0  0  0
  -28.4460  -26.6920   19.9630 O   0  0  0  0  0  0  0  0  0  0  0  0
  -24.6040  -31.8840   23.2280 C   0  0  0  0  0  0  0  0  0  0  0  0
  -27.2820  -27.4210   20.1590 C   0  0  0  0  0  0  0  0  0  0  0  0
  -23.4060  -30.4820   21.5790 C   0  0  0  0  0  3  0  0  0  0  0  0
  -24.8770  -28.9360   20.1720 C   0  0  0  0  0  0  0  0  0  0  0  0
  -25.9380  -30.8350   21.3980 C   0  0  0  0  0  2  0  0  0  0  0  0
  -26.0320  -29.4560   20.7690 C   0  0  0  0  0  0  0  0  0  0  0  0
  -27.2410  -28.7070   20.7650 C   0  0  0  0  0  3  0  0  0  0  0  0
  -26.1070  -26.9230   19.5660 C   0  0  0  0  0  3  0  0  0  0  0  0
  -24.9080  -27.6620   19.5720 C   0  0  0  0  0  3  0  0  0  0  0  0
  -23.6310  -29.7970   20.2020 C   0  0  0  0  0  2  0  0  0  0  0  0
  -24.6670  -31.0830   22.1250 N   0  0  0  0  0  0  0  0  0  0  0  0
  -23.5230  -32.1510   23.7670 O   0  0  0  0  0  0  0  0  0  0  0  0
  -22.7470  -29.4660   22.5410 C   0  0  0  0  0  0  0  0  0  0  0  0
  -21.4220  -29.2830   22.4150 N   0  0  0  0  0  0  0  0  0  0  0  0
  -23.4300  -28.8410   23.3570 O   0  0  0  0  0  0  0  0  0  0  0  0
  -20.9270  -29.8370   21.7290 H   0  0  0  0  0  0  0  0  0  0  0  0
  -18.0540  -28.0720   22.9230 C   0  0  0  0  0  0  0  0  0  0  0  0
  -20.6100  -28.3440   23.1900 C   0  0  0  0  0  3  0  0  0  0  0  0
  -20.7190  -26.9100   22.6190 C   0  0  0  0  0  2  0  0  0  0  0  0
  -19.6210  -26.5820   21.6040 C   0  0  0  0  0  2  0  0  0  0  0  0
  -18.2360  -26.7250   22.2460 C   0  0  0  0  0  2  0  0  0  0  0  0
  -19.1680  -28.8410   23.3520 C   0  0  0  0  0  0  0  0  0  0  0  0
  -18.9450  -30.1030   23.9420 C   0  0  0  0  0  3  0  0  0  0  0  0
  -17.6380  -30.5990   24.1060 C   0  0  0  0  0  3  0  0  0  0  0  0
  -16.5380  -29.8300   23.6900 C   0  0  0  0  0  3  0  0  0  0  0  0
  -16.7470  -28.5690   23.1060 C   0  0  0  0  0  3  0  0  0  0  0  0
  -25.8880  -32.5220   23.8480 C   0  0  0  0  0  3  0  0  0  0  0  0
  -25.5740  -33.9170   24.1820 N   0  0  0  0  0  0  0  0  0  0  0  0
  -25.9070  -34.9730   23.4250 C   0  0  0  0  0  0  0  0  0  0  0  0
  -26.5750  -34.8740   22.3930 O   0  0  0  0  0  0  0  0  0  0  0  0
  -24.9820  -34.0700   24.9850 H   0  0  0  0  0  0  0  0  0  0  0  0
  -24.1770  -36.7650   23.0720 C   0  0  0  0  0  1  0  0  0  0  0  0
  -25.4160  -36.3590   23.8860 C   0  0  0  0  0  3  0  0  0  0  0  0
  -27.5500  -37.2420   24.7210 C   0  0  0  0  0  1  0  0  0  0  0  0
  -26.4480  -37.4140   23.7790 N   0  0  0  0  0  0  0  0  0  0  0  0
  -26.0400  -38.3330   23.9280 H   0  0  0  0  0  0  0  0  0  0  0  0
  -26.4130  -31.7490   25.1190 C   0  0  1  0  0  0  0  0  0  0  0  0
  -25.3310  -31.5070   26.1930 C   0  0  0  0  0  1  0  0  0  0  0  0
  -26.9980  -30.3750   24.7220 C   0  0  0  0  0  1  0  0  0  0  0  0
  -27.5650  -32.5430   25.7760 C   0  0  0  0  0  1  0  0  0  0  0  0
  1  2  2  0
  1 51  1  0
  2  4  1  0
  4  3  1  0
  5  2  1  0
  6 10  1  0
  7 11  1  0
  7  6  2  0
  9  5  1  0
  9  8  1  0
 10  8  2  0
 10 21  1  0
 11  9  2  0
 12 11  1  0
 13 21  1  0
 14 19  1  0
 15 16  1  0
 15 14  1  0
 17 16  1  0
 17 26  1  0
 17 18  1  0
 19 13  1  0
 19 18  1  0
 20 13  2  0
 21 22  1  0
 23 24  2  0
 24 43  1  0
 25 24  1  0
 25 28  1  0
 26 23  1  0
 26 27  1  0
 27 25  2  0
 28 29  1  0
 29 30  2  0
 31 34  1  0
 31 30  1  0
 32 31  2  0
 33 32  1  0
 33 28  2  0
 34 35  1  0
 35 36  1  0
 36 37  2  0
 38 37  1  0
 38 42  1  0
 39 38  2  0
 40 35  2  0
 40 39  1  0
 41 40  1  0
 43 44  1  0
 44 47  1  0
 44 46  1  0
 45 43  2  0
 48 49  1  0
 48 23  1  0
 50 48  1  0
 52 51  1  0
 53 55  1  0
 53 52  1  0
 54 65  2  0
 55 60  1  0
 56 64  1  0
 56 66  1  0
 57 63  1  0
 57 59  1  0
 58 64  1  0
 59 58  1  0
 60 59  2  0
 61 62  1  0
 61 55  2  0
 62 57  2  0
 63 56  1  0
 64 54  1  0
 66 68  2  0
 67 66  1  0
 69 67  1  0
 70 79  2  0
 70 75  1  0
 71 67  1  0
 71 75  1  0
 72 71  1  0
 73 74  1  0
 73 72  1  0
 74 70  1  0
 75 76  2  0
 76 77  1  0
 78 77  2  0
 79 78  1  0
 80 54  1  0
 80 81  1  0
 80 90  1  0
 81 84  1  0
 82 86  1  0
 82 81  1  0
 83 82  2  0
 86 85  1  0
 88 86  1  0
 88 89  1  0
 88 87  1  0
 90 93  1  1
 90 91  1  0
 92 90  1  0
M  ISO  4  13 100  21 100  52 101  53 101
M  END
>  <TORSDO>  (39) 
F 21

>  <SCORE>  (39) 
-13.734

>  <name>  (39) 
38

>  <ligand_id>  (39) 
38

>  <original_smiles>  (39) 
[H]C(=C(C([H])([H])c1c([H])c(N([H])C(=O)N2C([H])([H])C([H])([H])C([H])([H])C([H])(n3nc(-c4c([H])c([H])c(Oc5c([H])c([H])c(F)c([H])c5F)c([H])c4[H])c(C(=O)N([H])[H])c3N([H])[H])C2([H])[H])c([H])c([H])c1F)C([H])([H])C([H])([H])[H])C([H])([H])C([H])([H])Oc1c([H])c([H])c2c(c1[H])C([H])([H])N(C(=O)C([H])(N([H])C(=O)C([H])(N([H])C([H])([H])[H])C([H])([H])[H])C(C([H])([H])[H])(C([H])([H])[H])C([H])([H])[H])C([H])(C(=O)N([H])C1([H])c3c([H])c([H])c([H])c([H])c3C([H])([H])C([H])([H])C1([H])[H])C2([H])[H]

>  <smiles>  (39) 
[H]C(=C(C([H])([H])c1c([H])c(N([H])C(=O)N2C([H])([H])C([H])([H])C([H])([H])C([H])(n3nc(-c4c([H])c([H])c(Oc5c([H])c([H])c(F)c([H])c5F)c([H])c4[H])c(C(=O)N([H])[H])c3N([H])[H])C2([H])[H])c([H])c([H])c1F)C([H])([H])C([H])([H])[H])C([H])([H])C([H])([H])Oc1c([H])c([H])c2c(c1[H])C([H])([H])N(C(=O)C([H])(N([H])C(=O)C([H])(N([H])C([H])([H])[H])C([H])([H])[H])C(C([H])([H])[H])(C([H])([H])[H])C([H])([H])[H])C([H])(C(=O)N([H])C1([H])c3c([H])c([H])c([H])c([H])c3C([H])([H])C([H])([H])C1([H])[H])C2([H])[H]

$$$$
39:0:0
     RDKit          3D

 93101  0  0  1  0  0  0  0  0999 V2000
  -29.2180  -21.6900   20.1040 C   0  0  0  0  0  2  0  0  0  0  0  0
  -30.2140  -19.3170   20.4670 C   0  0  0  0  0  3  0  0  0  0  0  0
  -29.1310  -20.1480   20.0010 C   0  0  0  0  0  0  0  0  0  0  0  0
  -30.0530  -17.9590   20.2760 C   0  0  0  0  0  0  0  0  0  0  0  0
  -28.1330  -19.3530   19.4500 C   0  0  0  0  0  0  0  0  0  0  0  0
  -26.8220  -19.6920   18.8120 C   0  0  0  0  0  1  0  0  0  0  0  0
  -28.5230  -17.6490   19.5260 S   0  0  0  0  0  0  0  0  0  0  0  0
  -31.4080  -17.0450   22.1790 C   0  0  0  0  0  1  0  0  0  0  0  0
  -30.9610  -16.8310   20.7250 C   0  0  0  0  0  3  0  0  0  0  0  0
  -30.9600  -14.4090   20.0230 C   0  0  0  0  0  0  0  0  0  0  0  0
  -30.5740  -12.1660   19.0670 C   0  0  0  0  0  2  0  0  0  0  0  0
  -29.5930  -12.2660   17.8820 C   0  0  0  0  0  2  0  0  0  0  0  0
  -28.1370  -12.1710   18.3780 C   0  0  0  0  0  2  0  0  0  0  0  0
  -27.8490  -13.1270   19.5670 C   0  0  0  0  0  3  0  0  0  0  0  0
  -28.9430  -13.0160   20.6520 C   0  0  0  0  0  2  0  0  0  0  0  0
  -30.2480  -13.2490   20.0100 N   0  0  0  0  0  0  0  0  0  0  0  0
  -32.0500  -14.5190   19.4570 O   0  0  0  0  0  0  0  0  0  0  0  0
  -30.3750  -15.4750   20.6070 N   0  0  0  0  0  0  0  0  0  0  0  0
  -29.4680  -15.3260   21.0190 H   0  0  0  0  0  0  0  0  0  0  0  0
  -25.5340  -13.8320   20.4420 C   0  0  0  0  0  0  0  0  0  0  0  0
  -24.4470  -13.1040   20.8450 C   0  0  0  0  0  0  0  0  0  0  0  0
  -24.8280  -11.7310   20.7370 C   0  0  0  0  0  0  0  0  0  0  0  0
  -26.5130  -12.9060   20.1160 N   0  0  0  0  0  0  0  0  0  0  0  0
  -26.0940  -11.6350   20.3510 N   0  0  0  0  0  0  0  0  0  0  0  0
  -24.0430  -10.5040   20.9230 C   0  0  0  0  0  0  0  0  0  0  0  0
  -24.4510   -9.4960   21.8250 C   0  0  0  0  0  3  0  0  0  0  0  0
  -23.6700   -8.3330   22.0000 C   0  0  0  0  0  3  0  0  0  0  0  0
  -22.4660   -8.1700   21.2740 C   0  0  0  0  0  0  0  0  0  0  0  0
  -22.0770   -9.1670   20.3610 C   0  0  0  0  0  3  0  0  0  0  0  0
  -22.8580  -10.3210   20.1840 C   0  0  0  0  0  3  0  0  0  0  0  0
  -21.6570   -7.0630   21.3600 O   0  0  0  0  0  0  0  0  0  0  0  0
  -21.5740   -6.3190   22.5100 C   0  0  0  0  0  0  0  0  0  0  0  0
  -21.1780   -6.8900   23.7390 C   0  0  0  0  0  3  0  0  0  0  0  0
  -21.0390   -6.0760   24.8800 C   0  0  0  0  0  3  0  0  0  0  0  0
  -21.2880   -4.6940   24.7950 C   0  0  0  0  0  0  0  0  0  0  0  0
  -21.6780   -4.1220   23.5710 C   0  0  0  0  0  3  0  0  0  0  0  0
  -21.8180   -4.9330   22.4300 C   0  0  0  0  0  0  0  0  0  0  0  0
  -22.1730   -4.3750   21.2490 F   0  0  0  0  0  0  0  0  0  0  0  0
  -21.1470   -3.9090   25.8890 F   0  0  0  0  0  0  0  0  0  0  0  0
  -23.0970  -13.6460   21.2190 C   0  0  0  0  0  0  0  0  0  0  0  0
  -22.3900  -12.9650   22.1140 N   0  0  0  0  0  0  0  0  0  0  0  0
  -22.6820  -14.7060   20.7520 O   0  0  0  0  0  0  0  0  0  0  0  0
  -22.7390  -12.1060   22.5130 H   0  0  0  0  0  0  0  0  0  0  0  0
  -21.4870  -13.3110   22.4070 H   0  0  0  0  0  0  0  0  0  0  0  0
  -25.7660  -15.1970   20.3040 N   0  0  0  0  0  0  0  0  0  0  0  0
  -25.0470  -15.8890   20.4840 H   0  0  0  0  0  0  0  0  0  0  0  0
  -26.6210  -15.6000   19.9440 H   0  0  0  0  0  0  0  0  0  0  0  0
  -27.9280  -22.4810   20.5110 C   0  0  0  0  0  2  0  0  0  0  0  0
  -25.9930  -23.9750   20.1410 C   0  0  0  0  0  1  0  0  0  0  0  0
  -27.9260  -23.9690   18.4490 C   0  0  0  0  0  1  0  0  0  0  0  0
  -27.5430  -23.9150   19.9450 C   0  0  2  0  0  0  0  0  0  0  0  0
  -28.1880  -25.1600   20.6870 C   0  0  0  0  0  2  0  0  0  0  0  0
  -28.2580  -26.4710   20.0280 O   0  0  0  0  0  0  0  0  0  0  0  0
  -24.5590  -31.7540   23.1870 C   0  0  0  0  0  0  0  0  0  0  0  0
  -27.1450  -27.3000   20.0390 C   0  0  0  0  0  0  0  0  0  0  0  0
  -23.3520  -30.4080   21.5050 C   0  0  0  0  0  3  0  0  0  0  0  0
  -24.7980  -28.8980   20.0480 C   0  0  0  0  0  0  0  0  0  0  0  0
  -25.8910  -30.7190   21.3490 C   0  0  0  0  0  2  0  0  0  0  0  0
  -25.9600  -29.3610   20.6790 C   0  0  0  0  0  0  0  0  0  0  0  0
  -27.1370  -28.5650   20.6830 C   0  0  0  0  0  3  0  0  0  0  0  0
  -25.9910  -26.9200   19.3270 C   0  0  0  0  0  3  0  0  0  0  0  0
  -24.8100  -27.6750   19.3650 C   0  0  0  0  0  3  0  0  0  0  0  0
  -23.5670  -29.7720   20.1080 C   0  0  0  0  0  2  0  0  0  0  0  0
  -24.6190  -30.9740   22.0710 N   0  0  0  0  0  0  0  0  0  0  0  0
  -23.4760  -32.0280   23.7210 O   0  0  0  0  0  0  0  0  0  0  0  0
  -22.6800  -29.3680   22.4310 C   0  0  0  0  0  0  0  0  0  0  0  0
  -21.3510  -29.2140   22.2990 N   0  0  0  0  0  0  0  0  0  0  0  0
  -23.3490  -28.7060   23.2280 O   0  0  0  0  0  0  0  0  0  0  0  0
  -20.8720  -29.8000   21.6290 H   0  0  0  0  0  0  0  0  0  0  0  0
  -17.9510  -28.0960   22.7920 C   0  0  0  0  0  0  0  0  0  0  0  0
  -20.5170  -28.2700   23.0420 C   0  0  0  0  0  3  0  0  0  0  0  0
  -20.5720  -26.8610   22.4090 C   0  0  0  0  0  2  0  0  0  0  0  0
  -19.4500  -26.6090   21.3980 C   0  0  0  0  0  2  0  0  0  0  0  0
  -18.0800  -26.7690   22.0650 C   0  0  0  0  0  2  0  0  0  0  0  0
  -19.0950  -28.8090   23.2370 C   0  0  0  0  0  0  0  0  0  0  0  0
  -18.9200  -30.0540   23.8790 C   0  0  0  0  0  3  0  0  0  0  0  0
  -17.6330  -30.5870   24.0780 C   0  0  0  0  0  3  0  0  0  0  0  0
  -16.5020  -29.8710   23.6490 C   0  0  0  0  0  3  0  0  0  0  0  0
  -16.6620  -28.6260   23.0110 C   0  0  0  0  0  3  0  0  0  0  0  0
  -25.8470  -32.3550   23.8290 C   0  0  0  0  0  3  0  0  0  0  0  0
  -25.5610  -33.7560   24.1610 N   0  0  0  0  0  0  0  0  0  0  0  0
  -25.9140  -34.8050   23.4050 C   0  0  0  0  0  0  0  0  0  0  0  0
  -26.5880  -34.6920   22.3770 O   0  0  0  0  0  0  0  0  0  0  0  0
  -24.9650  -33.9190   24.9600 H   0  0  0  0  0  0  0  0  0  0  0  0
  -24.2160  -36.6240   23.0470 C   0  0  0  0  0  1  0  0  0  0  0  0
  -25.4470  -36.1990   23.8640 C   0  0  0  0  0  3  0  0  0  0  0  0
  -27.5890  -37.0510   24.7090 C   0  0  0  0  0  1  0  0  0  0  0  0
  -26.4970  -37.2360   23.7580 N   0  0  0  0  0  0  0  0  0  0  0  0
  -26.1050  -38.1630   23.9010 H   0  0  0  0  0  0  0  0  0  0  0  0
  -26.3300  -31.5650   25.1070 C   0  0  1  0  0  0  0  0  0  0  0  0
  -25.2140  -31.3330   26.1520 C   0  0  0  0  0  1  0  0  0  0  0  0
  -26.9020  -30.1830   24.7130 C   0  0  0  0  0  1  0  0  0  0  0  0
  -27.4800  -32.3370   25.7970 C   0  0  0  0  0  1  0  0  0  0  0  0
  1 48  1  0
  3  1  1  0
  3  2  1  0
  4  2  2  0
  4  9  1  0
  5  7  1  0
  5  3  2  0
  6  5  1  0
  7  4  1  0
  9  8  1  0
 10 18  1  0
 11 16  1  0
 12 13  1  0
 12 11  1  0
 14 13  1  0
 14 23  1  0
 14 15  1  0
 16 10  1  0
 16 15  1  0
 17 10  2  0
 18  9  1  0
 18 19  1  0
 20 21  2  0
 21 40  1  0
 22 21  1  0
 22 25  1  0
 23 24  1  0
 23 20  1  0
 24 22  2  0
 25 26  1  0
 26 27  2  0
 28 31  1  0
 28 27  1  0
 29 28  2  0
 30 29  1  0
 30 25  2  0
 31 32  1  0
 32 33  1  0
 33 34  2  0
 35 34  1  0
 35 39  1  0
 36 35  2  0
 37 32  2  0
 37 36  1  0
 38 37  1  0
 40 41  1  0
 41 44  1  0
 41 43  1  0
 42 40  2  0
 45 20  1  0
 45 46  1  0
 47 45  1  0
 51 50  1  6
 51 49  1  0
 51 48  1  0
 51 52  1  0
 53 55  1  0
 53 52  1  0
 54 65  2  0
 55 60  1  0
 56 64  1  0
 56 66  1  0
 57 63  1  0
 57 59  1  0
 58 64  1  0
 59 60  2  0
 59 58  1  0
 61 62  1  0
 61 55  2  0
 62 57  2  0
 63 56  1  0
 64 54  1  0
 66 68  2  0
 67 66  1  0
 69 67  1  0
 70 79  2  0
 70 75  1  0
 71 67  1  0
 71 75  1  0
 72 71  1  0
 73 74  1  0
 73 72  1  0
 74 70  1  0
 75 76  2  0
 76 77  1  0
 78 77  2  0
 79 78  1  0
 80 54  1  0
 80 81  1  0
 80 90  1  0
 81 84  1  0
 82 86  1  0
 82 81  1  0
 83 82  2  0
 86 85  1  0
 88 86  1  0
 88 89  1  0
 88 87  1  0
 90 93  1  1
 90 91  1  0
 92 90  1  0
M  ISO  4  10 100  18 100  52 101  53 101
M  END
>  <TORSDO>  (40) 
F 21

>  <SCORE>  (40) 
-13.067

>  <name>  (40) 
39

>  <ligand_id>  (40) 
39

>  <original_smiles>  (40) 
[H]c1c([H])c([H])c2c(c1[H])C([H])([H])C([H])([H])C([H])([H])C2([H])N([H])C(=O)C1([H])N(C(=O)C([H])(N([H])C(=O)C([H])(N([H])C([H])([H])[H])C([H])([H])[H])C(C([H])([H])[H])(C([H])([H])[H])C([H])([H])[H])C([H])([H])c2c([H])c(OC([H])([H])C(C([H])([H])[H])(C([H])([H])[H])C([H])([H])C([H])([H])c3c(C([H])([H])[H])sc(C([H])(N([H])C(=O)N4C([H])([H])C([H])([H])C([H])([H])C([H])(n5nc(-c6c([H])c([H])c(Oc7c([H])c([H])c(F)c([H])c7F)c([H])c6[H])c(C(=O)N([H])[H])c5N([H])[H])C4([H])[H])C([H])([H])[H])c3[H])c([H])c([H])c2C1([H])[H]

>  <smiles>  (40) 
[H]c1c([H])c([H])c2c(c1[H])C([H])([H])C([H])([H])C([H])([H])C2([H])N([H])C(=O)C1([H])N(C(=O)C([H])(N([H])C(=O)C([H])(N([H])C([H])([H])[H])C([H])([H])[H])C(C([H])([H])[H])(C([H])([H])[H])C([H])([H])[H])C([H])([H])c2c([H])c(OC([H])([H])C(C([H])([H])[H])(C([H])([H])[H])C([H])([H])C([H])([H])c3c(C([H])([H])[H])sc(C([H])(N([H])C(=O)N4C([H])([H])C([H])([H])C([H])([H])C([H])(n5nc(-c6c([H])c([H])c(Oc7c([H])c([H])c(F)c([H])c7F)c([H])c6[H])c(C(=O)N([H])[H])c5N([H])[H])C4([H])[H])C([H])([H])[H])c3[H])c([H])c([H])c2C1([H])[H]

$$$$
40:0:0
     RDKit          3D

 91100  0  0  1  0  0  0  0  0999 V2000
  -29.0930  -23.0840   20.8780 C   0  0  0  0  0  0  0  0  0  0  0  0
  -28.2950  -24.1460   20.5790 C   0  0  0  0  0  3  0  0  0  0  0  0
  -30.3500  -23.1570   21.7160 C   0  0  0  0  0  2  0  0  0  0  0  0
  -28.8820  -21.6120   20.4890 C   0  0  0  0  0  2  0  0  0  0  0  0
  -31.0490  -21.8070   21.5310 C   0  0  0  0  0  2  0  0  0  0  0  0
  -30.0380  -20.8850   21.0320 N   0  0  0  0  0  0  0  0  0  0  0  0
  -31.5080  -18.8860   21.1670 C   0  0  0  0  0  3  0  0  0  0  0  0
  -31.4840  -17.4590   21.1100 C   0  0  0  0  0  3  0  0  0  0  0  0
  -30.2880  -19.4890   20.9780 C   0  0  0  0  0  0  0  0  0  0  0  0
  -30.2410  -16.9170   20.8800 C   0  0  0  0  0  0  0  0  0  0  0  0
  -29.0710  -18.2400   20.7180 S   0  0  0  0  0  0  0  0  0  0  0  0
  -30.6400  -14.5420   20.3840 C   0  0  0  0  0  0  0  0  0  0  0  0
  -30.3570  -12.3690   19.2430 C   0  0  0  0  0  2  0  0  0  0  0  0
  -29.4030  -12.5620   18.0450 C   0  0  0  0  0  2  0  0  0  0  0  0
  -27.9330  -12.4190   18.4870 C   0  0  0  0  0  2  0  0  0  0  0  0
  -27.6040  -13.2500   19.7560 C   0  0  0  0  0  3  0  0  0  0  0  0
  -28.6700  -13.0390   20.8530 C   0  0  0  0  0  2  0  0  0  0  0  0
  -29.9810  -13.3560   20.2690 N   0  0  0  0  0  0  0  0  0  0  0  0
  -31.7910  -14.6930   19.9570 O   0  0  0  0  0  0  0  0  0  0  0  0
  -29.8890  -15.5920   20.8070 N   0  0  0  0  0  0  0  0  0  0  0  0
  -28.9250  -15.3690   21.0080 H   0  0  0  0  0  0  0  0  0  0  0  0
  -25.2110  -13.8490   20.4850 C   0  0  0  0  0  0  0  0  0  0  0  0
  -24.1500  -13.0730   20.8660 C   0  0  0  0  0  0  0  0  0  0  0  0
  -24.6160  -11.7230   20.8340 C   0  0  0  0  0  0  0  0  0  0  0  0
  -26.2580  -12.9710   20.2470 N   0  0  0  0  0  0  0  0  0  0  0  0
  -25.9040  -11.6880   20.5150 N   0  0  0  0  0  0  0  0  0  0  0  0
  -23.8970  -10.4590   21.0290 C   0  0  0  0  0  0  0  0  0  0  0  0
  -24.3430   -9.4910   21.9560 C   0  0  0  0  0  3  0  0  0  0  0  0
  -23.6240   -8.2900   22.1400 C   0  0  0  0  0  3  0  0  0  0  0  0
  -22.4440   -8.0490   21.3960 C   0  0  0  0  0  0  0  0  0  0  0  0
  -22.0170   -9.0050   20.4580 C   0  0  0  0  0  3  0  0  0  0  0  0
  -22.7360  -10.1980   20.2730 C   0  0  0  0  0  3  0  0  0  0  0  0
  -21.6950   -6.9010   21.4900 O   0  0  0  0  0  0  0  0  0  0  0  0
  -21.6640   -6.1540   22.6400 C   0  0  0  0  0  0  0  0  0  0  0  0
  -21.2520   -6.7020   23.8740 C   0  0  0  0  0  3  0  0  0  0  0  0
  -21.1680   -5.8810   25.0170 C   0  0  0  0  0  3  0  0  0  0  0  0
  -21.4870   -4.5130   24.9260 C   0  0  0  0  0  0  0  0  0  0  0  0
  -21.8920   -3.9640   23.6960 C   0  0  0  0  0  3  0  0  0  0  0  0
  -21.9770   -4.7830   22.5560 C   0  0  0  0  0  0  0  0  0  0  0  0
  -22.3480   -4.2440   21.3690 F   0  0  0  0  0  0  0  0  0  0  0  0
  -21.4000   -3.7210   26.0210 F   0  0  0  0  0  0  0  0  0  0  0  0
  -22.7520  -13.5450   21.1470 C   0  0  0  0  0  0  0  0  0  0  0  0
  -22.0350  -12.8470   22.0190 N   0  0  0  0  0  0  0  0  0  0  0  0
  -22.3070  -14.5680   20.6280 O   0  0  0  0  0  0  0  0  0  0  0  0
  -22.4090  -12.0200   22.4600 H   0  0  0  0  0  0  0  0  0  0  0  0
  -21.0970  -13.1440   22.2500 H   0  0  0  0  0  0  0  0  0  0  0  0
  -25.3710  -15.2180   20.2970 N   0  0  0  0  0  0  0  0  0  0  0  0
  -24.5990  -15.8690   20.3930 H   0  0  0  0  0  0  0  0  0  0  0  0
  -26.2030  -15.6480   19.9120 H   0  0  0  0  0  0  0  0  0  0  0  0
  -28.4450  -25.5840   21.1200 C   0  0  0  0  0  2  0  0  0  0  0  0
  -28.3900  -26.6450   20.1380 O   0  0  0  0  0  0  0  0  0  0  0  0
  -24.6060  -31.8860   23.2350 C   0  0  0  0  0  0  0  0  0  0  0  0
  -27.2460  -27.4200   20.1630 C   0  0  0  0  0  0  0  0  0  0  0  0
  -23.4010  -30.4820   21.5950 C   0  0  0  0  0  3  0  0  0  0  0  0
  -24.8570  -28.9420   20.1680 C   0  0  0  0  0  0  0  0  0  0  0  0
  -25.9280  -30.8370   21.3960 C   0  0  0  0  0  2  0  0  0  0  0  0
  -26.0170  -29.4630   20.7580 C   0  0  0  0  0  0  0  0  0  0  0  0
  -27.2170  -28.7090   20.7520 C   0  0  0  0  0  3  0  0  0  0  0  0
  -26.0740  -26.9210   19.5630 C   0  0  0  0  0  3  0  0  0  0  0  0
  -24.8810  -27.6710   19.5670 C   0  0  0  0  0  3  0  0  0  0  0  0
  -23.6120  -29.8010   20.2150 C   0  0  0  0  0  2  0  0  0  0  0  0
  -24.6630  -31.0830   22.1340 N   0  0  0  0  0  0  0  0  0  0  0  0
  -23.5240  -32.1580   23.7760 O   0  0  0  0  0  0  0  0  0  0  0  0
  -22.7520  -29.4610   22.5560 C   0  0  0  0  0  0  0  0  0  0  0  0
  -21.4260  -29.2790   22.4320 N   0  0  0  0  0  0  0  0  0  0  0  0
  -23.4360  -28.8340   23.3690 O   0  0  0  0  0  0  0  0  0  0  0  0
  -20.9350  -29.8380   21.7480 H   0  0  0  0  0  0  0  0  0  0  0  0
  -18.0510  -28.0850   22.9370 C   0  0  0  0  0  0  0  0  0  0  0  0
  -20.6100  -28.3400   23.2010 C   0  0  0  0  0  3  0  0  0  0  0  0
  -20.7100  -26.9100   22.6190 C   0  0  0  0  0  2  0  0  0  0  0  0
  -19.6050  -26.5930   21.6090 C   0  0  0  0  0  2  0  0  0  0  0  0
  -18.2240  -26.7380   22.2580 C   0  0  0  0  0  2  0  0  0  0  0  0
  -19.1720  -28.8440   23.3660 C   0  0  0  0  0  0  0  0  0  0  0  0
  -18.9580  -30.1060   23.9620 C   0  0  0  0  0  3  0  0  0  0  0  0
  -17.6550  -30.6100   24.1330 C   0  0  0  0  0  3  0  0  0  0  0  0
  -16.5480  -29.8470   23.7190 C   0  0  0  0  0  3  0  0  0  0  0  0
  -16.7480  -28.5870   23.1290 C   0  0  0  0  0  3  0  0  0  0  0  0
  -25.8910  -32.5190   23.8550 C   0  0  0  0  0  3  0  0  0  0  0  0
  -25.5810  -33.9150   24.1870 N   0  0  0  0  0  0  0  0  0  0  0  0
  -25.9100  -34.9690   23.4280 C   0  0  0  0  0  0  0  0  0  0  0  0
  -26.5780  -34.8680   22.3940 O   0  0  0  0  0  0  0  0  0  0  0  0
  -24.9860  -34.0670   24.9880 H   0  0  0  0  0  0  0  0  0  0  0  0
  -24.1780  -36.7570   23.0790 C   0  0  0  0  0  1  0  0  0  0  0  0
  -25.4210  -36.3560   23.8880 C   0  0  0  0  0  3  0  0  0  0  0  0
  -27.5580  -37.2420   24.7110 C   0  0  0  0  0  1  0  0  0  0  0  0
  -26.4510  -37.4110   23.7730 N   0  0  0  0  0  0  0  0  0  0  0  0
  -26.0450  -38.3290   23.9290 H   0  0  0  0  0  0  0  0  0  0  0  0
  -26.4130  -31.7460   25.1270 C   0  0  1  0  0  0  0  0  0  0  0  0
  -25.3240  -31.5060   26.1980 C   0  0  0  0  0  1  0  0  0  0  0  0
  -26.9950  -30.3690   24.7290 C   0  0  0  0  0  1  0  0  0  0  0  0
  -27.5660  -32.5380   25.7860 C   0  0  0  0  0  1  0  0  0  0  0  0
  1  3  1  0
  2  1  2  0
  2 50  1  0
  4  1  1  0
  4  6  1  0
  5  3  1  0
  6  5  1  0
  8  7  1  0
  9  6  1  0
  9  7  2  0
 10  8  2  0
 11 10  1  0
 11  9  1  0
 12 20  1  0
 13 18  1  0
 14 15  1  0
 14 13  1  0
 16 15  1  0
 16 25  1  0
 16 17  1  0
 18 12  1  0
 18 17  1  0
 19 12  2  0
 20 10  1  0
 20 21  1  0
 22 23  2  0
 23 42  1  0
 24 23  1  0
 24 27  1  0
 25 22  1  0
 25 26  1  0
 26 24  2  0
 27 28  1  0
 28 29  2  0
 30 33  1  0
 30 29  1  0
 31 30  2  0
 32 31  1  0
 32 27  2  0
 33 34  1  0
 34 35  1  0
 35 36  2  0
 37 36  1  0
 37 41  1  0
 38 37  2  0
 39 34  2  0
 39 38  1  0
 40 39  1  0
 42 43  1  0
 43 46  1  0
 43 45  1  0
 44 42  2  0
 47 48  1  0
 47 22  1  0
 49 47  1  0
 51 53  1  0
 51 50  1  0
 52 63  2  0
 53 58  1  0
 54 62  1  0
 54 64  1  0
 55 61  1  0
 55 57  1  0
 56 62  1  0
 57 56  1  0
 58 57  2  0
 59 60  1  0
 59 53  2  0
 60 55  2  0
 61 54  1  0
 62 52  1  0
 64 66  2  0
 65 64  1  0
 67 65  1  0
 68 77  2  0
 68 73  1  0
 69 65  1  0
 69 73  1  0
 70 69  1  0
 71 72  1  0
 71 70  1  0
 72 68  1  0
 73 74  2  0
 74 75  1  0
 76 75  2  0
 77 76  1  0
 78 52  1  0
 78 79  1  0
 78 88  1  0
 79 82  1  0
 80 84  1  0
 80 79  1  0
 81 80  2  0
 84 83  1  0
 86 84  1  0
 86 87  1  0
 86 85  1  0
 88 91  1  1
 88 89  1  0
 90 88  1  0
M  ISO  4  12 100  20 100  50 101  51 101
M  END
>  <TORSDO>  (41) 
F 18

>  <SCORE>  (41) 
-14.897

>  <name>  (41) 
40

>  <ligand_id>  (41) 
40

>  <original_smiles>  (41) 
[H]C(=C1C([H])([H])N(c2sc(N([H])C(=O)N3C([H])([H])C([H])([H])C([H])([H])C([H])(n4nc(-c5c([H])c([H])c(Oc6c([H])c([H])c(F)c([H])c6F)c([H])c5[H])c(C(=O)N([H])[H])c4N([H])[H])C3([H])[H])c([H])c2[H])C([H])([H])C1([H])[H])C([H])([H])Oc1c([H])c([H])c2c(c1[H])C([H])([H])N(C(=O)C([H])(N([H])C(=O)C([H])(N([H])C([H])([H])[H])C([H])([H])[H])C(C([H])([H])[H])(C([H])([H])[H])C([H])([H])[H])C([H])(C(=O)N([H])C1([H])c3c([H])c([H])c([H])c([H])c3C([H])([H])C([H])([H])C1([H])[H])C2([H])[H]

>  <smiles>  (41) 
[H]C(=C1C([H])([H])N(c2sc(N([H])C(=O)N3C([H])([H])C([H])([H])C([H])([H])C([H])(n4nc(-c5c([H])c([H])c(Oc6c([H])c([H])c(F)c([H])c6F)c([H])c5[H])c(C(=O)N([H])[H])c4N([H])[H])C3([H])[H])c([H])c2[H])C([H])([H])C1([H])[H])C([H])([H])Oc1c([H])c([H])c2c(c1[H])C([H])([H])N(C(=O)C([H])(N([H])C(=O)C([H])(N([H])C([H])([H])[H])C([H])([H])[H])C(C([H])([H])[H])(C([H])([H])[H])C([H])([H])[H])C([H])(C(=O)N([H])C1([H])c3c([H])c([H])c([H])c([H])c3C([H])([H])C([H])([H])C1([H])[H])C2([H])[H]

$$$$
41:0:0
     RDKit          3D

 93102  0  0  1  0  0  0  0  0999 V2000
  -28.9910  -22.3390   20.8620 C   0  0  0  0  0  2  0  0  0  0  0  0
  -28.2100  -22.8210   19.8850 C   0  0  0  0  0  3  0  0  0  0  0  0
  -27.3680  -21.7360   19.2600 C   0  0  0  0  0  2  0  0  0  0  0  0
  -27.8970  -20.4340   19.8950 C   0  0  0  0  0  2  0  0  0  0  0  0
  -28.7150  -20.8770   21.1290 C   0  0  0  0  0  3  0  0  0  0  0  0
  -31.3960  -19.2200   23.3240 C   0  0  0  0  0  3  0  0  0  0  0  0
  -30.3960  -20.0950   22.8570 C   0  0  0  0  0  3  0  0  0  0  0  0
  -31.8970  -18.2090   22.4830 C   0  0  0  0  0  3  0  0  0  0  0  0
  -30.4250  -18.9780   20.6940 C   0  0  0  0  0  3  0  0  0  0  0  0
  -29.8820  -19.9710   21.5480 C   0  0  0  0  0  0  0  0  0  0  0  0
  -31.4230  -18.0880   21.1610 C   0  0  0  0  0  0  0  0  0  0  0  0
  -32.0150  -17.0290   20.2390 C   0  0  0  0  0  2  0  0  0  0  0  0
  -32.0010  -14.5790   19.9150 C   0  0  0  0  0  0  0  0  0  0  0  0
  -31.5530  -12.2720   19.1720 C   0  0  0  0  0  2  0  0  0  0  0  0
  -30.6240  -12.2970   17.9420 C   0  0  0  0  0  2  0  0  0  0  0  0
  -29.1470  -12.3260   18.3830 C   0  0  0  0  0  2  0  0  0  0  0  0
  -28.8640  -13.4160   19.4510 C   0  0  0  0  0  3  0  0  0  0  0  0
  -29.9050  -13.3510   20.5920 C   0  0  0  0  0  2  0  0  0  0  0  0
  -31.2470  -13.4530   19.9930 N   0  0  0  0  0  0  0  0  0  0  0  0
  -33.0950  -14.6170   19.3430 O   0  0  0  0  0  0  0  0  0  0  0  0
  -31.4450  -15.6930   20.4150 N   0  0  0  0  0  0  0  0  0  0  0  0
  -30.5430  -15.6160   20.8590 H   0  0  0  0  0  0  0  0  0  0  0  0
  -26.5920  -14.3330   20.2400 C   0  0  0  0  0  0  0  0  0  0  0  0
  -25.4380  -13.7070   20.6310 C   0  0  0  0  0  0  0  0  0  0  0  0
  -25.7080  -12.3050   20.5630 C   0  0  0  0  0  0  0  0  0  0  0  0
  -27.4980  -13.3210   19.9630 N   0  0  0  0  0  0  0  0  0  0  0  0
  -26.9700  -12.0950   20.2140 N   0  0  0  0  0  0  0  0  0  0  0  0
  -24.8220  -11.1500   20.7560 C   0  0  0  0  0  0  0  0  0  0  0  0
  -25.1200  -10.1390   21.6960 C   0  0  0  0  0  3  0  0  0  0  0  0
  -24.2450   -9.0460   21.8760 C   0  0  0  0  0  3  0  0  0  0  0  0
  -23.0550   -8.9580   21.1140 C   0  0  0  0  0  0  0  0  0  0  0  0
  -22.7750   -9.9530   20.1610 C   0  0  0  0  0  3  0  0  0  0  0  0
  -23.6510  -11.0380   19.9810 C   0  0  0  0  0  3  0  0  0  0  0  0
  -22.1590   -7.9200   21.2020 O   0  0  0  0  0  0  0  0  0  0  0  0
  -21.9460   -7.2500   22.3800 C   0  0  0  0  0  0  0  0  0  0  0  0
  -21.5300   -7.9170   23.5530 C   0  0  0  0  0  3  0  0  0  0  0  0
  -21.2580   -7.1800   24.7220 C   0  0  0  0  0  3  0  0  0  0  0  0
  -21.3910   -5.7790   24.7200 C   0  0  0  0  0  0  0  0  0  0  0  0
  -21.8000   -5.1130   23.5520 C   0  0  0  0  0  3  0  0  0  0  0  0
  -22.0750   -5.8470   22.3850 C   0  0  0  0  0  0  0  0  0  0  0  0
  -22.4500   -5.1980   21.2550 F   0  0  0  0  0  0  0  0  0  0  0  0
  -21.1220   -5.0700   25.8410 F   0  0  0  0  0  0  0  0  0  0  0  0
  -24.1280  -14.3640   20.9560 C   0  0  0  0  0  0  0  0  0  0  0  0
  -23.3490  -13.7710   21.8540 N   0  0  0  0  0  0  0  0  0  0  0  0
  -23.8070  -15.4390   20.4480 O   0  0  0  0  0  0  0  0  0  0  0  0
  -23.6160  -12.9000   22.2880 H   0  0  0  0  0  0  0  0  0  0  0  0
  -22.4690  -14.1970   22.1110 H   0  0  0  0  0  0  0  0  0  0  0  0
  -26.9390  -15.6690   20.0770 N   0  0  0  0  0  0  0  0  0  0  0  0
  -26.2790  -16.4260   20.2190 H   0  0  0  0  0  0  0  0  0  0  0  0
  -27.8360  -15.9870   19.7310 H   0  0  0  0  0  0  0  0  0  0  0  0
  -28.0710  -24.2580   19.3850 C   0  0  0  0  0  2  0  0  0  0  0  0
  -27.8030  -25.2930   20.4950 C   0  0  0  0  0  2  0  0  0  0  0  0
  -27.9600  -26.6420   20.0260 O   0  0  0  0  0  0  0  0  0  0  0  0
  -24.4900  -31.9190   23.2890 C   0  0  0  0  0  0  0  0  0  0  0  0
  -26.8220  -27.4170   20.0630 C   0  0  0  0  0  0  0  0  0  0  0  0
  -23.1590  -30.5840   21.6870 C   0  0  0  0  0  3  0  0  0  0  0  0
  -24.4890  -29.0060   20.1860 C   0  0  0  0  0  0  0  0  0  0  0  0
  -25.6850  -30.8510   21.3790 C   0  0  0  0  0  2  0  0  0  0  0  0
  -25.6900  -29.4850   20.7230 C   0  0  0  0  0  0  0  0  0  0  0  0
  -26.8630  -28.7000   20.6520 C   0  0  0  0  0  3  0  0  0  0  0  0
  -25.6070  -26.9500   19.5190 C   0  0  0  0  0  3  0  0  0  0  0  0
  -24.4420  -27.7380   19.5780 C   0  0  0  0  0  3  0  0  0  0  0  0
  -23.2830  -29.9130   20.2920 C   0  0  0  0  0  2  0  0  0  0  0  0
  -24.4650  -31.1310   22.1770 N   0  0  0  0  0  0  0  0  0  0  0  0
  -23.4450  -32.2270   23.8790 O   0  0  0  0  0  0  0  0  0  0  0  0
  -22.5090  -29.5790   22.6650 C   0  0  0  0  0  0  0  0  0  0  0  0
  -21.1880  -29.3790   22.5310 N   0  0  0  0  0  0  0  0  0  0  0  0
  -23.1910  -28.9780   23.5000 O   0  0  0  0  0  0  0  0  0  0  0  0
  -20.6980  -29.9190   21.8300 H   0  0  0  0  0  0  0  0  0  0  0  0
  -17.8420  -28.0740   22.9430 C   0  0  0  0  0  0  0  0  0  0  0  0
  -20.3720  -28.4530   23.3160 C   0  0  0  0  0  3  0  0  0  0  0  0
  -20.5570  -26.9970   22.8280 C   0  0  0  0  0  2  0  0  0  0  0  0
  -19.5180  -26.5750   21.7840 C   0  0  0  0  0  2  0  0  0  0  0  0
  -18.1030  -26.6980   22.3560 C   0  0  0  0  0  2  0  0  0  0  0  0
  -18.9080  -28.9050   23.3800 C   0  0  0  0  0  0  0  0  0  0  0  0
  -18.6130  -30.1900   23.8860 C   0  0  0  0  0  3  0  0  0  0  0  0
  -17.2830  -30.6450   23.9620 C   0  0  0  0  0  3  0  0  0  0  0  0
  -16.2310  -29.8130   23.5420 C   0  0  0  0  0  3  0  0  0  0  0  0
  -16.5110  -28.5300   23.0380 C   0  0  0  0  0  3  0  0  0  0  0  0
  -25.8260  -32.4910   23.8590 C   0  0  0  0  0  3  0  0  0  0  0  0
  -26.3620  -31.6920   25.1090 C   0  0  1  0  0  0  0  0  0  0  0  0
  -25.3020  -31.4820   26.2150 C   0  0  0  0  0  1  0  0  0  0  0  0
  -26.8840  -30.3000   24.6830 C   0  0  0  0  0  1  0  0  0  0  0  0
  -27.5640  -32.4410   25.7330 C   0  0  0  0  0  1  0  0  0  0  0  0
  -25.5950  -33.9000   24.2020 N   0  0  0  0  0  0  0  0  0  0  0  0
  -25.9560  -34.9390   23.4360 C   0  0  0  0  0  0  0  0  0  0  0  0
  -26.5920  -34.8050   22.3870 O   0  0  0  0  0  0  0  0  0  0  0  0
  -25.0400  -34.0830   25.0250 H   0  0  0  0  0  0  0  0  0  0  0  0
  -24.2980  -36.8060   23.1360 C   0  0  0  0  0  1  0  0  0  0  0  0
  -25.5460  -36.3460   23.9080 C   0  0  0  0  0  3  0  0  0  0  0  0
  -27.7460  -37.1270   24.6640 C   0  0  0  0  0  1  0  0  0  0  0  0
  -26.6200  -37.3530   23.7630 N   0  0  0  0  0  0  0  0  0  0  0  0
  -26.2610  -38.2880   23.9330 H   0  0  0  0  0  0  0  0  0  0  0  0
  1  5  1  0
  2 51  1  0
  2  1  1  0
  3  2  1  0
  3  4  1  0
  4  5  1  0
  5 10  1  0
  7  6  1  0
  8  6  2  0
  9 11  2  0
  9 10  1  0
 10  7  2  0
 11  8  1  0
 12 21  1  0
 12 11  1  0
 13 19  1  0
 13 21  1  0
 14 19  1  0
 15 16  1  0
 15 14  1  0
 17 16  1  0
 17 26  1  0
 17 18  1  0
 19 18  1  0
 20 13  2  0
 21 22  1  0
 23 24  2  0
 24 43  1  0
 25 24  1  0
 25 28  1  0
 26 27  1  0
 26 23  1  0
 27 25  2  0
 28 29  1  0
 29 30  2  0
 31 34  1  0
 31 30  1  0
 32 31  2  0
 33 32  1  0
 33 28  2  0
 34 35  1  0
 35 40  2  0
 35 36  1  0
 36 37  2  0
 38 37  1  0
 38 42  1  0
 39 38  2  0
 40 39  1  0
 41 40  1  0
 43 44  1  0
 44 47  1  0
 44 46  1  0
 45 43  2  0
 48 49  1  0
 48 23  1  0
 50 48  1  0
 51 52  1  0
 53 55  1  0
 53 52  1  0
 54 65  2  0
 55 60  1  0
 56 64  1  0
 56 66  1  0
 57 63  1  0
 57 59  1  0
 58 64  1  0
 59 58  1  0
 60 59  2  0
 61 62  1  0
 61 55  2  0
 62 57  2  0
 63 56  1  0
 64 54  1  0
 66 68  2  0
 67 66  1  0
 69 67  1  0
 70 79  2  0
 70 75  1  0
 71 67  1  0
 71 75  1  0
 72 71  1  0
 73 74  1  0
 73 72  1  0
 74 70  1  0
 75 76  2  0
 76 77  1  0
 78 77  2  0
 79 78  1  0
 80 54  1  0
 80 85  1  0
 80 81  1  0
 81 84  1  1
 81 82  1  0
 83 81  1  0
 85 88  1  0
 86 90  1  0
 86 85  1  0
 87 86  2  0
 90 89  1  0
 92 90  1  0
 92 93  1  0
 92 91  1  0
M  ISO  4  13 100  21 100  52 101  53 101
M  END
>  <TORSDO>  (42) 
F 20

>  <SCORE>  (42) 
-11.465

>  <name>  (42) 
41

>  <ligand_id>  (42) 
41

>  <original_smiles>  (42) 
[H]C1=C(C([H])([H])C([H])([H])Oc2c([H])c([H])c3c(c2[H])C([H])([H])N(C(=O)C([H])(N([H])C(=O)C([H])(N([H])C([H])([H])[H])C([H])([H])[H])C(C([H])([H])[H])(C([H])([H])[H])C([H])([H])[H])C([H])(C(=O)N([H])C2([H])c4c([H])c([H])c([H])c([H])c4C([H])([H])C([H])([H])C2([H])[H])C3([H])[H])C([H])([H])C([H])([H])C1([H])c1c([H])c([H])c([H])c(C([H])([H])N([H])C(=O)N2C([H])([H])C([H])([H])C([H])([H])C([H])(n3nc(-c4c([H])c([H])c(Oc5c([H])c([H])c(F)c([H])c5F)c([H])c4[H])c(C(=O)N([H])[H])c3N([H])[H])C2([H])[H])c1[H]

>  <smiles>  (42) 
[H]C1=C(C([H])([H])C([H])([H])Oc2c([H])c([H])c3c(c2[H])C([H])([H])N(C(=O)C([H])(N([H])C(=O)C([H])(N([H])C([H])([H])[H])C([H])([H])[H])C(C([H])([H])[H])(C([H])([H])[H])C([H])([H])[H])C([H])(C(=O)N([H])C2([H])c4c([H])c([H])c([H])c([H])c4C([H])([H])C([H])([H])C2([H])[H])C3([H])[H])C([H])([H])C([H])([H])C1([H])c1c([H])c([H])c([H])c(C([H])([H])N([H])C(=O)N2C([H])([H])C([H])([H])C([H])([H])C([H])(n3nc(-c4c([H])c([H])c(Oc5c([H])c([H])c(F)c([H])c5F)c([H])c4[H])c(C(=O)N([H])[H])c3N([H])[H])C2([H])[H])c1[H]

$$$$
42:0:0
     RDKit          3D

 91 99  0  0  1  0  0  0  0  0999 V2000
  -28.7490  -22.5110   19.7970 C   0  0  0  0  0  2  0  0  0  0  0  0
  -27.9110  -23.8750   20.0870 C   0  0  0  0  0  3  0  0  0  0  0  0
  -25.5420  -22.8170   20.0690 C   0  0  0  0  0  1  0  0  0  0  0  0
  -26.6090  -23.5830   20.8700 C   0  0  0  0  0  2  0  0  0  0  0  0
  -28.6330  -25.1780   20.6860 C   0  0  0  0  0  2  0  0  0  0  0  0
  -28.5220  -26.5570   20.1220 O   0  0  0  0  0  0  0  0  0  0  0  0
  -24.6490  -31.8470   23.2280 C   0  0  0  0  0  0  0  0  0  0  0  0
  -27.3640  -27.3420   20.1850 C   0  0  0  0  0  0  0  0  0  0  0  0
  -23.4890  -30.4460   21.5550 C   0  0  0  0  0  3  0  0  0  0  0  0
  -24.9790  -28.9190   20.1480 C   0  0  0  0  0  0  0  0  0  0  0  0
  -26.0210  -30.8060   21.4070 C   0  0  0  0  0  2  0  0  0  0  0  0
  -26.1330  -29.4270   20.7600 C   0  0  0  0  0  0  0  0  0  0  0  0
  -27.3300  -28.6510   20.7620 C   0  0  0  0  0  3  0  0  0  0  0  0
  -26.1930  -26.8860   19.5530 C   0  0  0  0  0  3  0  0  0  0  0  0
  -25.0110  -27.6540   19.5360 C   0  0  0  0  0  3  0  0  0  0  0  0
  -23.7340  -29.7820   20.1740 C   0  0  0  0  0  2  0  0  0  0  0  0
  -24.7390  -31.0490   22.1220 N   0  0  0  0  0  0  0  0  0  0  0  0
  -23.5570  -32.1040   23.7530 O   0  0  0  0  0  0  0  0  0  0  0  0
  -22.8270  -29.4120   22.4980 C   0  0  0  0  0  0  0  0  0  0  0  0
  -21.5090  -29.2150   22.3470 N   0  0  0  0  0  0  0  0  0  0  0  0
  -23.5020  -28.7930   23.3250 O   0  0  0  0  0  0  0  0  0  0  0  0
  -21.0270  -29.7650   21.6500 H   0  0  0  0  0  0  0  0  0  0  0  0
  -18.1390  -27.9790   22.8020 C   0  0  0  0  0  0  0  0  0  0  0  0
  -20.6920  -28.2610   23.0990 C   0  0  0  0  0  3  0  0  0  0  0  0
  -20.8140  -26.8420   22.4990 C   0  0  0  0  0  2  0  0  0  0  0  0
  -19.7220  -26.5230   21.4700 C   0  0  0  0  0  2  0  0  0  0  0  0
  -18.3350  -26.6430   22.1070 C   0  0  0  0  0  2  0  0  0  0  0  0
  -19.2460  -28.7460   23.2550 C   0  0  0  0  0  0  0  0  0  0  0  0
  -19.0070  -29.9940   23.8660 C   0  0  0  0  0  3  0  0  0  0  0  0
  -17.6960  -30.4790   24.0290 C   0  0  0  0  0  3  0  0  0  0  0  0
  -16.6040  -29.7110   23.5920 C   0  0  0  0  0  3  0  0  0  0  0  0
  -16.8270  -28.4620   22.9850 C   0  0  0  0  0  3  0  0  0  0  0  0
  -25.9150  -32.4900   23.8750 C   0  0  0  0  0  3  0  0  0  0  0  0
  -25.5850  -33.8850   24.2030 N   0  0  0  0  0  0  0  0  0  0  0  0
  -25.9160  -34.9410   23.4500 C   0  0  0  0  0  0  0  0  0  0  0  0
  -26.5980  -34.8440   22.4260 O   0  0  0  0  0  0  0  0  0  0  0  0
  -24.9810  -34.0310   25.0000 H   0  0  0  0  0  0  0  0  0  0  0  0
  -24.1730  -36.7110   23.0720 C   0  0  0  0  0  1  0  0  0  0  0  0
  -25.4090  -36.3230   23.8990 C   0  0  0  0  0  3  0  0  0  0  0  0
  -27.5180  -37.2320   24.7640 C   0  0  0  0  0  1  0  0  0  0  0  0
  -26.4320  -37.3870   23.8010 N   0  0  0  0  0  0  0  0  0  0  0  0
  -26.0130  -38.3020   23.9440 H   0  0  0  0  0  0  0  0  0  0  0  0
  -26.4100  -31.7230   25.1610 C   0  0  1  0  0  0  0  0  0  0  0  0
  -25.2960  -31.4700   26.2050 C   0  0  0  0  0  1  0  0  0  0  0  0
  -27.0150  -30.3540   24.7760 C   0  0  0  0  0  1  0  0  0  0  0  0
  -27.5380  -32.5280   25.8490 C   0  0  0  0  0  1  0  0  0  0  0  0
  -29.0250  -21.5240   20.8560 O   0  0  0  0  0  0  0  0  0  0  0  0
  -29.2960  -17.9670   19.3840 C   0  0  0  0  0  3  0  0  0  0  0  0
  -30.2510  -18.0200   21.5820 C   0  0  0  0  0  3  0  0  0  0  0  0
  -29.0180  -19.3760   19.4670 C   0  0  0  0  0  3  0  0  0  0  0  0
  -29.9740  -19.4190   21.6600 C   0  0  0  0  0  3  0  0  0  0  0  0
  -29.9240  -17.2380   20.4390 C   0  0  0  0  0  0  0  0  0  0  0  0
  -29.3330  -20.1510   20.6230 C   0  0  0  0  0  0  0  0  0  0  0  0
  -30.7880  -14.7840   19.9910 C   0  0  0  0  0  0  0  0  0  0  0  0
  -30.6150  -12.5230   18.9400 C   0  0  0  0  0  2  0  0  0  0  0  0
  -29.5900  -12.6030   17.7860 C   0  0  0  0  0  2  0  0  0  0  0  0
  -28.1460  -12.4290   18.3010 C   0  0  0  0  0  2  0  0  0  0  0  0
  -27.8510  -13.2920   19.5530 C   0  0  0  0  0  3  0  0  0  0  0  0
  -28.9730  -13.1380   20.6030 C   0  0  0  0  0  2  0  0  0  0  0  0
  -30.2350  -13.5270   19.9560 N   0  0  0  0  0  0  0  0  0  0  0  0
  -31.8950  -15.0050   19.4880 O   0  0  0  0  0  0  0  0  0  0  0  0
  -29.9750  -15.7690   20.5150 N   0  0  0  0  0  0  0  0  0  0  0  0
  -29.1720  -15.3700   20.9790 H   0  0  0  0  0  0  0  0  0  0  0  0
  -25.5200  -13.8960   20.4500 C   0  0  0  0  0  0  0  0  0  0  0  0
  -24.4710  -13.1220   20.8660 C   0  0  0  0  0  0  0  0  0  0  0  0
  -24.9130  -11.7680   20.7610 C   0  0  0  0  0  0  0  0  0  0  0  0
  -26.5340  -13.0110   20.1140 N   0  0  0  0  0  0  0  0  0  0  0  0
  -26.1780  -11.7240   20.3600 N   0  0  0  0  0  0  0  0  0  0  0  0
  -24.1870  -10.5060   20.9610 C   0  0  0  0  0  0  0  0  0  0  0  0
  -24.5920   -9.5690   21.9360 C   0  0  0  0  0  3  0  0  0  0  0  0
  -23.8690   -8.3740   22.1250 C   0  0  0  0  0  3  0  0  0  0  0  0
  -22.7270   -8.1030   21.3340 C   0  0  0  0  0  0  0  0  0  0  0  0
  -22.3380   -9.0290   20.3510 C   0  0  0  0  0  3  0  0  0  0  0  0
  -23.0630  -10.2170   20.1620 C   0  0  0  0  0  3  0  0  0  0  0  0
  -21.9800   -6.9540   21.4270 O   0  0  0  0  0  0  0  0  0  0  0  0
  -21.7900   -6.3120   22.6240 C   0  0  0  0  0  0  0  0  0  0  0  0
  -21.1790   -6.9520   23.7230 C   0  0  0  0  0  3  0  0  0  0  0  0
  -20.9410   -6.2350   24.9120 C   0  0  0  0  0  3  0  0  0  0  0  0
  -21.3030   -4.8780   25.0020 C   0  0  0  0  0  0  0  0  0  0  0  0
  -21.9080   -4.2370   23.9060 C   0  0  0  0  0  3  0  0  0  0  0  0
  -22.1480   -4.9510   22.7190 C   0  0  0  0  0  0  0  0  0  0  0  0
  -22.7110   -4.3240   21.6590 F   0  0  0  0  0  0  0  0  0  0  0  0
  -21.0680   -4.1850   26.1410 F   0  0  0  0  0  0  0  0  0  0  0  0
  -23.1020  -13.6020   21.2500 C   0  0  0  0  0  0  0  0  0  0  0  0
  -22.4320  -12.8890   22.1470 N   0  0  0  0  0  0  0  0  0  0  0  0
  -22.6390  -14.6470   20.7930 O   0  0  0  0  0  0  0  0  0  0  0  0
  -22.8240  -12.0450   22.5390 H   0  0  0  0  0  0  0  0  0  0  0  0
  -21.5150  -13.1920   22.4480 H   0  0  0  0  0  0  0  0  0  0  0  0
  -25.6900  -15.2700   20.3100 N   0  0  0  0  0  0  0  0  0  0  0  0
  -24.9420  -15.9260   20.5030 H   0  0  0  0  0  0  0  0  0  0  0  0
  -26.5170  -15.7120   19.9300 H   0  0  0  0  0  0  0  0  0  0  0  0
  1 47  1  0
  2  1  1  0
  2  5  1  0
  2  4  1  0
  3  4  1  0
  6  8  1  0
  6  5  1  0
  7 18  2  0
  8 13  1  0
  9 17  1  0
  9 19  1  0
 10 16  1  0
 10 12  1  0
 11 17  1  0
 12 13  2  0
 12 11  1  0
 14  8  2  0
 15 14  1  0
 15 10  2  0
 16  9  1  0
 17  7  1  0
 19 21  2  0
 20 19  1  0
 22 20  1  0
 23 32  2  0
 23 28  1  0
 24 20  1  0
 24 28  1  0
 25 24  1  0
 26 27  1  0
 26 25  1  0
 27 23  1  0
 28 29  2  0
 29 30  1  0
 31 30  2  0
 32 31  1  0
 33  7  1  0
 33 34  1  0
 33 43  1  0
 34 37  1  0
 35 39  1  0
 35 34  1  0
 36 35  2  0
 39 38  1  0
 41 39  1  0
 41 42  1  0
 41 40  1  0
 43 46  1  1
 43 44  1  0
 45 43  1  0
 48 50  2  0
 48 52  1  0
 49 51  1  0
 50 53  1  0
 52 62  1  0
 52 49  2  0
 53 47  1  0
 53 51  2  0
 54 62  1  0
 55 60  1  0
 56 57  1  0
 56 55  1  0
 58 57  1  0
 58 67  1  0
 58 59  1  0
 60 54  1  0
 60 59  1  0
 61 54  2  0
 62 63  1  0
 64 65  2  0
 65 84  1  0
 66 65  1  0
 66 69  1  0
 67 68  1  0
 67 64  1  0
 68 66  2  0
 69 70  1  0
 70 71  2  0
 72 75  1  0
 72 71  1  0
 73 72  2  0
 74 73  1  0
 74 69  2  0
 75 76  1  0
 76 81  2  0
 76 77  1  0
 77 78  2  0
 78 79  1  0
 79 83  1  0
 80 79  2  0
 81 80  1  0
 82 81  1  0
 84 85  1  0
 85 88  1  0
 85 87  1  0
 86 84  2  0
 89 64  1  0
 89 90  1  0
 91 89  1  0
M  ISO  4   5 101   6 101  54 100  62 100
M  END
>  <TORSDO>  (43) 
F 21

>  <SCORE>  (43) 
-12.812

>  <name>  (43) 
42

>  <ligand_id>  (43) 
42

>  <original_smiles>  (43) 
[H]c1c([H])c([H])c2c(c1[H])C([H])([H])C([H])([H])C([H])([H])C2([H])N([H])C(=O)C1([H])N(C(=O)C([H])(N([H])C(=O)C([H])(N([H])C([H])([H])[H])C([H])([H])[H])C(C([H])([H])[H])(C([H])([H])[H])C([H])([H])[H])C([H])([H])c2c([H])c(OC([H])([H])C([H])(C([H])([H])Oc3c([H])c([H])c(N([H])C(=O)N4C([H])([H])C([H])([H])C([H])([H])C([H])(n5nc(-c6c([H])c([H])c(Oc7c([H])c([H])c(F)c([H])c7F)c([H])c6[H])c(C(=O)N([H])[H])c5N([H])[H])C4([H])[H])c([H])c3[H])C([H])([H])C([H])([H])[H])c([H])c([H])c2C1([H])[H]

>  <smiles>  (43) 
[H]c1c([H])c([H])c2c(c1[H])C([H])([H])C([H])([H])C([H])([H])C2([H])N([H])C(=O)C1([H])N(C(=O)C([H])(N([H])C(=O)C([H])(N([H])C([H])([H])[H])C([H])([H])[H])C(C([H])([H])[H])(C([H])([H])[H])C([H])([H])[H])C([H])([H])c2c([H])c(OC([H])([H])C([H])(C([H])([H])Oc3c([H])c([H])c(N([H])C(=O)N4C([H])([H])C([H])([H])C([H])([H])C([H])(n5nc(-c6c([H])c([H])c(Oc7c([H])c([H])c(F)c([H])c7F)c([H])c6[H])c(C(=O)N([H])[H])c5N([H])[H])C4([H])[H])c([H])c3[H])C([H])([H])C([H])([H])[H])c([H])c([H])c2C1([H])[H]

$$$$
43:0:0
     RDKit          3D

 96104  0  0  1  0  0  0  0  0999 V2000
  -27.4730  -21.2890   19.8060 C   0  0  0  0  0  3  0  0  0  0  0  0
  -25.8690  -21.7620   17.8090 C   0  0  0  0  0  1  0  0  0  0  0  0
  -26.3070  -20.7900   18.9180 C   0  0  0  0  0  2  0  0  0  0  0  0
  -26.9470  -22.3690   20.7990 C   0  0  0  0  0  2  0  0  0  0  0  0
  -27.9430  -23.4440   21.2490 C   0  0  0  0  0  0  0  0  0  0  0  0
  -28.6570  -23.2890   22.2440 O   0  0  0  0  0  0  0  0  0  0  0  0
  -27.9770  -24.7150   20.4000 C   0  0  0  0  0  2  0  0  0  0  0  0
  -28.6410  -25.9440   21.0390 C   0  0  0  0  0  2  0  0  0  0  0  0
  -28.6430  -27.0520   20.1310 O   0  0  0  0  0  0  0  0  0  0  0  0
  -24.7090  -31.9520   23.4020 C   0  0  0  0  0  0  0  0  0  0  0  0
  -27.4730  -27.7650   20.1260 C   0  0  0  0  0  0  0  0  0  0  0  0
  -23.5470  -30.6220   21.6690 C   0  0  0  0  0  3  0  0  0  0  0  0
  -25.0490  -29.2020   20.1760 C   0  0  0  0  0  0  0  0  0  0  0  0
  -26.0640  -31.0450   21.5260 C   0  0  0  0  0  2  0  0  0  0  0  0
  -26.1840  -29.7160   20.8180 C   0  0  0  0  0  0  0  0  0  0  0  0
  -27.3990  -29.0010   20.7990 C   0  0  0  0  0  3  0  0  0  0  0  0
  -26.3360  -27.2760   19.4480 C   0  0  0  0  0  3  0  0  0  0  0  0
  -25.1170  -27.9780   19.4900 C   0  0  0  0  0  3  0  0  0  0  0  0
  -23.7850  -30.0270   20.2550 C   0  0  0  0  0  2  0  0  0  0  0  0
  -24.7900  -31.2190   22.2580 N   0  0  0  0  0  0  0  0  0  0  0  0
  -23.6190  -32.1750   23.9460 O   0  0  0  0  0  0  0  0  0  0  0  0
  -22.9090  -29.5350   22.5620 C   0  0  0  0  0  0  0  0  0  0  0  0
  -21.5930  -29.3280   22.4030 N   0  0  0  0  0  0  0  0  0  0  0  0
  -23.5950  -28.8830   23.3540 O   0  0  0  0  0  0  0  0  0  0  0  0
  -21.0980  -29.9100   21.7410 H   0  0  0  0  0  0  0  0  0  0  0  0
  -18.2400  -28.0360   22.7650 C   0  0  0  0  0  0  0  0  0  0  0  0
  -20.7850  -28.3350   23.1090 C   0  0  0  0  0  3  0  0  0  0  0  0
  -20.9350  -26.9390   22.4620 C   0  0  0  0  0  2  0  0  0  0  0  0
  -19.8620  -26.6470   21.4080 C   0  0  0  0  0  2  0  0  0  0  0  0
  -18.4640  -26.7270   22.0280 C   0  0  0  0  0  2  0  0  0  0  0  0
  -19.3320  -28.8000   23.2580 C   0  0  0  0  0  0  0  0  0  0  0  0
  -19.0720  -30.0290   23.9010 C   0  0  0  0  0  3  0  0  0  0  0  0
  -17.7520  -30.4910   24.0660 C   0  0  0  0  0  3  0  0  0  0  0  0
  -16.6750  -29.7230   23.5900 C   0  0  0  0  0  3  0  0  0  0  0  0
  -16.9200  -28.4990   22.9430 C   0  0  0  0  0  3  0  0  0  0  0  0
  -25.9780  -32.5690   24.0720 C   0  0  0  0  0  3  0  0  0  0  0  0
  -25.6750  -33.9730   24.3830 N   0  0  0  0  0  0  0  0  0  0  0  0
  -26.0490  -35.0160   23.6300 C   0  0  0  0  0  0  0  0  0  0  0  0
  -26.7590  -34.8980   22.6260 O   0  0  0  0  0  0  0  0  0  0  0  0
  -25.0510  -34.1410   25.1600 H   0  0  0  0  0  0  0  0  0  0  0  0
  -24.3640  -36.8300   23.1830 C   0  0  0  0  0  1  0  0  0  0  0  0
  -25.5580  -36.4130   24.0560 C   0  0  0  0  0  3  0  0  0  0  0  0
  -27.6540  -37.2760   24.9990 C   0  0  0  0  0  1  0  0  0  0  0  0
  -26.6090  -37.4520   23.9940 N   0  0  0  0  0  0  0  0  0  0  0  0
  -26.2070  -38.3780   24.1130 H   0  0  0  0  0  0  0  0  0  0  0  0
  -26.4370  -31.7940   25.3680 C   0  0  1  0  0  0  0  0  0  0  0  0
  -25.3020  -31.5690   26.3910 C   0  0  0  0  0  1  0  0  0  0  0  0
  -27.0200  -30.4080   25.0000 C   0  0  0  0  0  1  0  0  0  0  0  0
  -27.5670  -32.5790   26.0760 C   0  0  0  0  0  1  0  0  0  0  0  0
  -28.7380  -21.6710   18.9790 C   0  0  0  0  0  2  0  0  0  0  0  0
  -30.6050  -21.0610   17.3580 C   0  0  0  0  0  1  0  0  0  0  0  0
  -29.3510  -20.5640   18.0920 C   0  0  0  0  0  3  0  0  0  0  0  0
  -29.0760  -18.0760   18.4110 C   0  0  0  0  0  3  0  0  0  0  0  0
  -30.4920  -19.2770   19.9890 C   0  0  0  0  0  3  0  0  0  0  0  0
  -29.3150  -16.8860   19.1110 C   0  0  0  0  0  3  0  0  0  0  0  0
  -30.7030  -18.0870   20.7180 C   0  0  0  0  0  3  0  0  0  0  0  0
  -29.6510  -19.2820   18.8510 C   0  0  0  0  0  0  0  0  0  0  0  0
  -30.1020  -16.8860   20.2840 C   0  0  0  0  0  0  0  0  0  0  0  0
  -30.9780  -14.6720   20.6520 C   0  0  0  0  0  0  0  0  0  0  0  0
  -30.7510  -12.4700   19.6000 C   0  0  0  0  0  2  0  0  0  0  0  0
  -29.8700  -12.6430   18.3460 C   0  0  0  0  0  2  0  0  0  0  0  0
  -28.3740  -12.5180   18.7040 C   0  0  0  0  0  2  0  0  0  0  0  0
  -27.9710  -13.3780   19.9330 C   0  0  0  0  0  3  0  0  0  0  0  0
  -28.9780  -13.1970   21.0930 C   0  0  0  0  0  2  0  0  0  0  0  0
  -30.3300  -13.4800   20.5790 N   0  0  0  0  0  0  0  0  0  0  0  0
  -32.1300  -14.8530   20.2420 O   0  0  0  0  0  0  0  0  0  0  0  0
  -30.2140  -15.6960   21.0480 N   0  0  0  0  0  0  0  0  0  0  0  0
  -29.3410  -15.3800   21.4410 H   0  0  0  0  0  0  0  0  0  0  0  0
  -25.5460  -14.0220   20.5130 C   0  0  0  0  0  0  0  0  0  0  0  0
  -24.4570  -13.2610   20.8410 C   0  0  0  0  0  0  0  0  0  0  0  0
  -24.9130  -11.9080   20.8540 C   0  0  0  0  0  0  0  0  0  0  0  0
  -26.5950  -13.1280   20.3480 N   0  0  0  0  0  0  0  0  0  0  0  0
  -26.2140  -11.8540   20.6080 N   0  0  0  0  0  0  0  0  0  0  0  0
  -24.1730  -10.6530   21.0300 C   0  0  0  0  0  0  0  0  0  0  0  0
  -24.5500   -9.7080   22.0100 C   0  0  0  0  0  3  0  0  0  0  0  0
  -23.8150   -8.5150   22.1740 C   0  0  0  0  0  3  0  0  0  0  0  0
  -22.6880   -8.2590   21.3570 C   0  0  0  0  0  0  0  0  0  0  0  0
  -22.3310   -9.1910   20.3660 C   0  0  0  0  0  3  0  0  0  0  0  0
  -23.0680  -10.3770   20.2000 C   0  0  0  0  0  3  0  0  0  0  0  0
  -21.9290   -7.1160   21.4260 O   0  0  0  0  0  0  0  0  0  0  0  0
  -21.8070   -6.4020   22.5900 C   0  0  0  0  0  0  0  0  0  0  0  0
  -21.2540   -6.9690   23.7580 C   0  0  0  0  0  3  0  0  0  0  0  0
  -21.0850   -6.1800   24.9130 C   0  0  0  0  0  3  0  0  0  0  0  0
  -21.4600   -4.8230   24.9000 C   0  0  0  0  0  0  0  0  0  0  0  0
  -22.0100   -4.2540   23.7370 C   0  0  0  0  0  3  0  0  0  0  0  0
  -22.1810   -5.0430   22.5850 C   0  0  0  0  0  0  0  0  0  0  0  0
  -22.6880   -4.4860   21.4580 F   0  0  0  0  0  0  0  0  0  0  0  0
  -21.2920   -4.0620   26.0050 F   0  0  0  0  0  0  0  0  0  0  0  0
  -23.0510  -13.7490   21.0460 C   0  0  0  0  0  0  0  0  0  0  0  0
  -22.2820  -13.0730   21.8920 N   0  0  0  0  0  0  0  0  0  0  0  0
  -22.6420  -14.7690   20.4930 O   0  0  0  0  0  0  0  0  0  0  0  0
  -22.6240  -12.2490   22.3650 H   0  0  0  0  0  0  0  0  0  0  0  0
  -21.3400  -13.3900   22.0750 H   0  0  0  0  0  0  0  0  0  0  0  0
  -25.7210  -15.3900   20.3230 N   0  0  0  0  0  0  0  0  0  0  0  0
  -24.9450  -16.0370   20.3990 H   0  0  0  0  0  0  0  0  0  0  0  0
  -26.5910  -15.8420   20.0700 H   0  0  0  0  0  0  0  0  0  0  0  0
  1  3  1  0
  1  4  1  0
  2  3  1  0
  4  5  1  0
  5  6  2  0
  7  8  1  0
  7  5  1  0
  9  8  1  0
 10 21  2  0
 11  9  1  0
 11 16  1  0
 12 20  1  0
 12 22  1  0
 13 19  1  0
 13 15  1  0
 14 20  1  0
 15 14  1  0
 16 15  2  0
 17 18  1  0
 17 11  2  0
 18 13  2  0
 19 12  1  0
 20 10  1  0
 22 24  2  0
 23 22  1  0
 25 23  1  0
 26 35  2  0
 26 31  1  0
 27 23  1  0
 27 31  1  0
 28 27  1  0
 29 30  1  0
 29 28  1  0
 30 26  1  0
 31 32  2  0
 32 33  1  0
 34 33  2  0
 35 34  1  0
 36 10  1  0
 36 37  1  0
 36 46  1  0
 37 40  1  0
 38 42  1  0
 38 37  1  0
 39 38  2  0
 42 41  1  0
 44 42  1  0
 44 45  1  0
 44 43  1  0
 46 49  1  1
 46 47  1  0
 48 46  1  0
 50  1  1  0
 52 51  1  0
 52 57  1  0
 52 50  1  0
 53 57  2  0
 53 55  1  0
 54 56  2  0
 55 58  2  0
 57 54  1  0
 58 56  1  0
 58 67  1  0
 59 67  1  0
 60 65  1  0
 61 62  1  0
 61 60  1  0
 63 62  1  0
 63 72  1  0
 63 64  1  0
 65 59  1  0
 65 64  1  0
 66 59  2  0
 67 68  1  0
 69 70  2  0
 70 71  1  0
 70 89  1  0
 71 74  1  0
 72 69  1  0
 72 73  1  0
 73 71  2  0
 74 75  1  0
 75 76  2  0
 77 80  1  0
 77 76  1  0
 78 77  2  0
 79 78  1  0
 79 74  2  0
 80 81  1  0
 81 82  1  0
 82 83  2  0
 84 83  1  0
 84 88  1  0
 85 84  2  0
 86 81  2  0
 86 85  1  0
 87 86  1  0
 89 90  1  0
 90 93  1  0
 90 92  1  0
 91 89  2  0
 94 95  1  0
 94 69  1  0
 96 94  1  0
M  ISO  4   8 101   9 101  59 100  67 100
M  END
>  <TORSDO>  (44) 
F 24

>  <SCORE>  (44) 
-12.109

>  <name>  (44) 
43

>  <ligand_id>  (44) 
43

>  <original_smiles>  (44) 
[H]c1c([H])c([H])c2c(c1[H])C([H])([H])C([H])([H])C([H])([H])C2([H])N([H])C(=O)C1([H])N(C(=O)C([H])(N([H])C(=O)C([H])(N([H])C([H])([H])[H])C([H])([H])[H])C(C([H])([H])[H])(C([H])([H])[H])C([H])([H])[H])C([H])([H])c2c([H])c(OC([H])([H])C([H])([H])C(=O)C([H])([H])C([H])(C([H])([H])C([H])([H])[H])C([H])([H])C([H])(c3c([H])c([H])c(N([H])C(=O)N4C([H])([H])C([H])([H])C([H])([H])C([H])(n5nc(-c6c([H])c([H])c(Oc7c([H])c([H])c(F)c([H])c7F)c([H])c6[H])c(C(=O)N([H])[H])c5N([H])[H])C4([H])[H])c([H])c3[H])C([H])([H])[H])c([H])c([H])c2C1([H])[H]

>  <smiles>  (44) 
[H]c1c([H])c([H])c2c(c1[H])C([H])([H])C([H])([H])C([H])([H])C2([H])N([H])C(=O)C1([H])N(C(=O)C([H])(N([H])C(=O)C([H])(N([H])C([H])([H])[H])C([H])([H])[H])C(C([H])([H])[H])(C([H])([H])[H])C([H])([H])[H])C([H])([H])c2c([H])c(OC([H])([H])C([H])([H])C(=O)C([H])([H])C([H])(C([H])([H])C([H])([H])[H])C([H])([H])C([H])(c3c([H])c([H])c(N([H])C(=O)N4C([H])([H])C([H])([H])C([H])([H])C([H])(n5nc(-c6c([H])c([H])c(Oc7c([H])c([H])c(F)c([H])c7F)c([H])c6[H])c(C(=O)N([H])[H])c5N([H])[H])C4([H])[H])c([H])c3[H])C([H])([H])[H])c([H])c([H])c2C1([H])[H]

$$$$
44:0:0
     RDKit          3D

 94102  0  0  1  0  0  0  0  0999 V2000
  -31.1540  -17.8730   19.7670 C   0  0  0  0  0  3  0  0  0  0  0  0
  -31.0420  -19.2540   19.4370 C   0  0  0  0  0  3  0  0  0  0  0  0
  -28.6580  -19.0310   19.3080 C   0  0  0  0  0  3  0  0  0  0  0  0
  -30.0260  -17.0120   19.8700 C   0  0  0  0  0  0  0  0  0  0  0  0
  -29.7890  -19.8660   19.1920 C   0  0  0  0  0  0  0  0  0  0  0  0
  -28.7550  -17.6450   19.6350 C   0  0  0  0  0  0  0  0  0  0  0  0
  -30.1660  -15.5420   20.3200 C   0  0  0  0  0  0  0  0  0  0  0  0
  -30.0050  -15.2500   21.5440 N   0  0  0  0  0  0  0  0  0  0  0  0
  -29.7730  -16.0810   22.0740 H   0  0  0  0  0  0  0  0  0  0  0  0
  -30.5580  -14.4200   19.3060 C   0  0  0  0  0  0  0  0  0  0  0  0
  -30.1310  -12.1790   18.3110 C   0  0  0  0  0  2  0  0  0  0  0  0
  -28.9910  -12.2680   17.2730 C   0  0  0  0  0  2  0  0  0  0  0  0
  -27.6180  -12.1000   17.9530 C   0  0  0  0  0  2  0  0  0  0  0  0
  -27.4700  -12.9950   19.2110 C   0  0  0  0  0  3  0  0  0  0  0  0
  -28.7030  -12.8650   20.1320 C   0  0  0  0  0  2  0  0  0  0  0  0
  -29.9020  -13.2110   19.3460 N   0  0  0  0  0  0  0  0  0  0  0  0
  -31.4910  -14.6150   18.5180 O   0  0  0  0  0  0  0  0  0  0  0  0
  -25.2970  -13.6040   20.4420 C   0  0  0  0  0  0  0  0  0  0  0  0
  -24.2890  -12.8350   20.9580 C   0  0  0  0  0  0  0  0  0  0  0  0
  -24.6650  -11.4780   20.7150 C   0  0  0  0  0  0  0  0  0  0  0  0
  -26.2280  -12.7170   19.9280 N   0  0  0  0  0  0  0  0  0  0  0  0
  -25.8630  -11.4270   20.1450 N   0  0  0  0  0  0  0  0  0  0  0  0
  -23.9270  -10.2290   20.9390 C   0  0  0  0  0  0  0  0  0  0  0  0
  -24.3860   -9.2530   21.8500 C   0  0  0  0  0  3  0  0  0  0  0  0
  -23.6490   -8.0680   22.0620 C   0  0  0  0  0  3  0  0  0  0  0  0
  -22.4390   -7.8490   21.3610 C   0  0  0  0  0  0  0  0  0  0  0  0
  -21.9990   -8.8130   20.4370 C   0  0  0  0  0  3  0  0  0  0  0  0
  -22.7350   -9.9910   20.2240 C   0  0  0  0  0  3  0  0  0  0  0  0
  -21.6710   -6.7170   21.4840 O   0  0  0  0  0  0  0  0  0  0  0  0
  -21.5170   -6.0770   22.6880 C   0  0  0  0  0  0  0  0  0  0  0  0
  -20.9510   -6.7240   23.8080 C   0  0  0  0  0  3  0  0  0  0  0  0
  -20.7480   -6.0090   25.0060 C   0  0  0  0  0  3  0  0  0  0  0  0
  -21.1020   -4.6480   25.0830 C   0  0  0  0  0  0  0  0  0  0  0  0
  -21.6600   -4.0010   23.9670 C   0  0  0  0  0  3  0  0  0  0  0  0
  -21.8650   -4.7140   22.7710 C   0  0  0  0  0  0  0  0  0  0  0  0
  -22.3840   -4.0810   21.6920 F   0  0  0  0  0  0  0  0  0  0  0  0
  -20.8990   -3.9590   26.2300 F   0  0  0  0  0  0  0  0  0  0  0  0
  -23.0030  -13.3300   21.5520 C   0  0  0  0  0  0  0  0  0  0  0  0
  -22.4380  -12.5870   22.4970 N   0  0  0  0  0  0  0  0  0  0  0  0
  -22.5150  -14.4080   21.2140 O   0  0  0  0  0  0  0  0  0  0  0  0
  -22.8490  -11.7130   22.7910 H   0  0  0  0  0  0  0  0  0  0  0  0
  -21.5830  -12.8970   22.9350 H   0  0  0  0  0  0  0  0  0  0  0  0
  -25.4860  -14.9780   20.3460 N   0  0  0  0  0  0  0  0  0  0  0  0
  -24.7770  -15.6380   20.6450 H   0  0  0  0  0  0  0  0  0  0  0  0
  -26.2530  -15.4180   19.8540 H   0  0  0  0  0  0  0  0  0  0  0  0
  -26.7090  -17.0800   21.0370 C   0  0  0  0  0  1  0  0  0  0  0  0
  -27.4300  -16.8900   19.6960 C   0  0  0  0  0  2  0  0  0  0  0  0
  -29.6750  -21.3140   18.6150 C   0  0  0  0  0  2  0  0  0  0  0  0
  -29.2850  -22.5590   19.5230 C   0  0  0  0  0  2  0  0  0  0  0  0
  -27.1880  -23.2930   18.3590 C   0  0  0  0  0  1  0  0  0  0  0  0
  -29.4120  -24.2230   17.5690 C   0  0  0  0  0  1  0  0  0  0  0  0
  -28.5810  -23.8070   18.7990 C   0  0  2  0  0  0  0  0  0  0  0  0
  -28.3910  -25.1030   19.7200 C   0  0  0  0  0  2  0  0  0  0  0  0
  -28.3870  -26.4650   19.1490 O   0  0  0  0  0  0  0  0  0  0  0  0
  -24.6580  -31.4650   22.7710 C   0  0  0  0  0  0  0  0  0  0  0  0
  -27.2470  -27.2570   19.2670 C   0  0  0  0  0  0  0  0  0  0  0  0
  -23.4290  -30.2030   21.0390 C   0  0  0  0  0  3  0  0  0  0  0  0
  -24.8620  -28.8060   19.4530 C   0  0  0  0  0  0  0  0  0  0  0  0
  -25.9570  -30.5730   20.8320 C   0  0  0  0  0  2  0  0  0  0  0  0
  -26.0340  -29.2580   20.0720 C   0  0  0  0  0  0  0  0  0  0  0  0
  -27.2310  -28.4910   19.9780 C   0  0  0  0  0  3  0  0  0  0  0  0
  -26.0680  -26.8740   18.6010 C   0  0  0  0  0  3  0  0  0  0  0  0
  -24.8780  -27.6160   18.7100 C   0  0  0  0  0  3  0  0  0  0  0  0
  -23.6170  -29.6550   19.6010 C   0  0  0  0  0  2  0  0  0  0  0  0
  -24.7000  -30.7600   21.6050 N   0  0  0  0  0  0  0  0  0  0  0  0
  -23.5850  -31.6810   23.3530 O   0  0  0  0  0  0  0  0  0  0  0  0
  -22.8020  -29.0960   21.9190 C   0  0  0  0  0  0  0  0  0  0  0  0
  -21.4640  -28.9780   21.8750 N   0  0  0  0  0  0  0  0  0  0  0  0
  -23.5140  -28.3510   22.5980 O   0  0  0  0  0  0  0  0  0  0  0  0
  -20.9490  -29.6310   21.3010 H   0  0  0  0  0  0  0  0  0  0  0  0
  -18.0820  -27.9090   22.5750 C   0  0  0  0  0  0  0  0  0  0  0  0
  -20.6660  -27.9820   22.5910 C   0  0  0  0  0  3  0  0  0  0  0  0
  -20.6060  -26.6510   21.8060 C   0  0  0  0  0  2  0  0  0  0  0  0
  -19.3850  -26.5460   20.8870 C   0  0  0  0  0  2  0  0  0  0  0  0
  -18.0900  -26.6680   21.6980 C   0  0  0  0  0  2  0  0  0  0  0  0
  -19.2900  -28.5350   22.9820 C   0  0  0  0  0  0  0  0  0  0  0  0
  -19.2240  -29.7040   23.7690 C   0  0  0  0  0  3  0  0  0  0  0  0
  -17.9810  -30.2470   24.1510 C   0  0  0  0  0  3  0  0  0  0  0  0
  -16.7900  -29.6130   23.7590 C   0  0  0  0  0  3  0  0  0  0  0  0
  -16.8410  -28.4450   22.9770 C   0  0  0  0  0  3  0  0  0  0  0  0
  -25.9500  -32.0520   23.4180 C   0  0  0  0  0  3  0  0  0  0  0  0
  -25.6210  -33.3900   23.9300 N   0  0  0  0  0  0  0  0  0  0  0  0
  -25.9090  -34.5380   23.3050 C   0  0  0  0  0  0  0  0  0  0  0  0
  -26.5530  -34.5840   22.2530 O   0  0  0  0  0  0  0  0  0  0  0  0
  -25.0430  -33.4250   24.7590 H   0  0  0  0  0  0  0  0  0  0  0  0
  -24.1320  -36.3160   23.2280 C   0  0  0  0  0  1  0  0  0  0  0  0
  -25.4050  -35.8450   23.9480 C   0  0  0  0  0  3  0  0  0  0  0  0
  -27.5370  -36.6760   24.8400 C   0  0  0  0  0  1  0  0  0  0  0  0
  -26.4120  -36.9290   23.9430 N   0  0  0  0  0  0  0  0  0  0  0  0
  -25.9880  -37.8140   24.2090 H   0  0  0  0  0  0  0  0  0  0  0  0
  -26.5390  -31.1450   24.5670 C   0  0  1  0  0  0  0  0  0  0  0  0
  -25.5010  -30.7540   25.6440 C   0  0  0  0  0  1  0  0  0  0  0  0
  -27.1280  -29.8380   23.9850 C   0  0  0  0  0  1  0  0  0  0  0  0
  -27.7070  -31.8790   25.2670 C   0  0  0  0  0  1  0  0  0  0  0  0
  1  4  1  0
  2  1  2  0
  3  6  1  0
  4  7  1  0
  5  3  2  0
  5  2  1  0
  6 47  1  0
  6  4  2  0
  7  8  2  0
  8  9  1  0
 10 16  1  0
 10  7  1  0
 11 16  1  0
 12 13  1  0
 12 11  1  0
 14 13  1  0
 14 21  1  0
 14 15  1  0
 16 15  1  0
 17 10  2  0
 18 19  2  0
 19 38  1  0
 20 23  1  0
 20 19  1  0
 21 22  1  0
 21 18  1  0
 22 20  2  0
 23 24  1  0
 24 25  2  0
 26 29  1  0
 26 25  1  0
 27 26  2  0
 28 27  1  0
 28 23  2  0
 29 30  1  0
 30 35  2  0
 30 31  1  0
 31 32  2  0
 32 33  1  0
 33 37  1  0
 34 33  2  0
 35 34  1  0
 36 35  1  0
 38 39  1  0
 39 41  1  0
 39 42  1  0
 40 38  2  0
 43 18  1  0
 43 44  1  0
 45 43  1  0
 47 46  1  0
 48  5  1  0
 48 49  1  0
 52 50  1  6
 51 52  1  0
 52 49  1  0
 52 53  1  0
 54 56  1  0
 54 53  1  0
 55 66  2  0
 56 61  1  0
 57 65  1  0
 57 67  1  0
 58 64  1  0
 58 60  1  0
 59 65  1  0
 60 59  1  0
 61 60  2  0
 62 63  1  0
 62 56  2  0
 63 58  2  0
 64 57  1  0
 65 55  1  0
 67 69  2  0
 68 67  1  0
 70 68  1  0
 71 80  2  0
 71 76  1  0
 72 68  1  0
 72 76  1  0
 73 72  1  0
 74 75  1  0
 74 73  1  0
 75 71  1  0
 76 77  2  0
 77 78  1  0
 79 78  2  0
 80 79  1  0
 81 55  1  0
 81 82  1  0
 81 91  1  0
 82 85  1  0
 83 82  1  0
 83 87  1  0
 84 83  2  0
 87 86  1  0
 89 87  1  0
 89 90  1  0
 89 88  1  0
 91 94  1  1
 91 92  1  0
 93 91  1  0
M  ISO  4   7 100  10 100  53 101  54 101
M  END
>  <TORSDO>  (45) 
F 22

>  <SCORE>  (45) 
-10.048

>  <name>  (45) 
44

>  <ligand_id>  (45) 
44

>  <original_smiles>  (45) 
[H]N=C(C(=O)N1C([H])([H])C([H])([H])C([H])([H])C([H])(n2nc(-c3c([H])c([H])c(Oc4c([H])c([H])c(F)c([H])c4F)c([H])c3[H])c(C(=O)N([H])[H])c2N([H])[H])C1([H])[H])c1c([H])c([H])c(C([H])([H])C([H])([H])C(C([H])([H])[H])(C([H])([H])[H])C([H])([H])Oc2c([H])c([H])c3c(c2[H])C([H])([H])N(C(=O)C([H])(N([H])C(=O)C([H])(N([H])C([H])([H])[H])C([H])([H])[H])C(C([H])([H])[H])(C([H])([H])[H])C([H])([H])[H])C([H])(C(=O)N([H])C2([H])c4c([H])c([H])c([H])c([H])c4C([H])([H])C([H])([H])C2([H])[H])C3([H])[H])c([H])c1C([H])([H])C([H])([H])[H]

>  <smiles>  (45) 
[H]N=C(C(=O)N1C([H])([H])C([H])([H])C([H])([H])C([H])(n2nc(-c3c([H])c([H])c(Oc4c([H])c([H])c(F)c([H])c4F)c([H])c3[H])c(C(=O)N([H])[H])c2N([H])[H])C1([H])[H])c1c([H])c([H])c(C([H])([H])C([H])([H])C(C([H])([H])[H])(C([H])([H])[H])C([H])([H])Oc2c([H])c([H])c3c(c2[H])C([H])([H])N(C(=O)C([H])(N([H])C(=O)C([H])(N([H])C([H])([H])[H])C([H])([H])[H])C(C([H])([H])[H])(C([H])([H])[H])C([H])([H])[H])C([H])(C(=O)N([H])C2([H])c4c([H])c([H])c([H])c([H])c4C([H])([H])C([H])([H])C2([H])[H])C3([H])[H])c([H])c1C([H])([H])C([H])([H])[H]

$$$$
45:0:0
     RDKit          3D

 91 99  0  0  1  0  0  0  0  0999 V2000
  -29.6630  -21.4960   21.1480 C   0  0  0  0  0  2  0  0  0  0  0  0
  -29.4800  -20.1510   21.8850 C   0  0  0  0  0  2  0  0  0  0  0  0
  -32.7150  -18.3080   20.9640 C   0  0  0  0  0  3  0  0  0  0  0  0
  -31.8170  -19.3220   21.3410 C   0  0  0  0  0  3  0  0  0  0  0  0
  -32.2400  -17.0140   20.6820 C   0  0  0  0  0  3  0  0  0  0  0  0
  -29.9610  -17.7480   21.1530 C   0  0  0  0  0  3  0  0  0  0  0  0
  -30.4340  -19.0520   21.4310 C   0  0  0  0  0  0  0  0  0  0  0  0
  -30.8580  -16.7240   20.7680 C   0  0  0  0  0  0  0  0  0  0  0  0
  -30.9200  -14.4200   19.8330 C   0  0  0  0  0  0  0  0  0  0  0  0
  -30.5300  -12.2000   18.8280 C   0  0  0  0  0  2  0  0  0  0  0  0
  -29.5170  -12.3100   17.6710 C   0  0  0  0  0  2  0  0  0  0  0  0
  -28.0730  -12.2050   18.2010 C   0  0  0  0  0  2  0  0  0  0  0  0
  -27.8090  -13.1430   19.4080 C   0  0  0  0  0  3  0  0  0  0  0  0
  -28.9260  -13.0040   20.4660 C   0  0  0  0  0  2  0  0  0  0  0  0
  -30.2170  -13.2560   19.8010 N   0  0  0  0  0  0  0  0  0  0  0  0
  -31.9630  -14.5850   19.1930 O   0  0  0  0  0  0  0  0  0  0  0  0
  -30.3500  -15.4140   20.5390 N   0  0  0  0  0  0  0  0  0  0  0  0
  -29.4250  -15.2180   20.8910 H   0  0  0  0  0  0  0  0  0  0  0  0
  -25.4850  -13.8230   20.2840 C   0  0  0  0  0  0  0  0  0  0  0  0
  -24.4270  -13.0820   20.7360 C   0  0  0  0  0  0  0  0  0  0  0  0
  -24.8480  -11.7170   20.6800 C   0  0  0  0  0  0  0  0  0  0  0  0
  -26.4860  -12.9110   19.9840 N   0  0  0  0  0  0  0  0  0  0  0  0
  -26.1090  -11.6400   20.2770 N   0  0  0  0  0  0  0  0  0  0  0  0
  -24.1030  -10.4760   20.9310 C   0  0  0  0  0  0  0  0  0  0  0  0
  -24.5000   -9.5690   21.9380 C   0  0  0  0  0  3  0  0  0  0  0  0
  -23.7580   -8.3910   22.1730 C   0  0  0  0  0  3  0  0  0  0  0  0
  -22.6060   -8.1120   21.4000 C   0  0  0  0  0  0  0  0  0  0  0  0
  -22.2290   -9.0070   20.3820 C   0  0  0  0  0  3  0  0  0  0  0  0
  -22.9720  -10.1760   20.1470 C   0  0  0  0  0  3  0  0  0  0  0  0
  -21.8390   -6.9820   21.5400 O   0  0  0  0  0  0  0  0  0  0  0  0
  -21.6670   -6.3750   22.7580 C   0  0  0  0  0  0  0  0  0  0  0  0
  -21.0970   -7.0560   23.8560 C   0  0  0  0  0  3  0  0  0  0  0  0
  -20.8750   -6.3730   25.0680 C   0  0  0  0  0  3  0  0  0  0  0  0
  -21.2100   -5.0120   25.1840 C   0  0  0  0  0  0  0  0  0  0  0  0
  -21.7720   -4.3300   24.0900 C   0  0  0  0  0  3  0  0  0  0  0  0
  -21.9970   -5.0090   22.8790 C   0  0  0  0  0  0  0  0  0  0  0  0
  -22.5190   -4.3430   21.8210 F   0  0  0  0  0  0  0  0  0  0  0  0
  -20.9890   -4.3540   26.3460 F   0  0  0  0  0  0  0  0  0  0  0  0
  -23.0670  -13.5980   21.1090 C   0  0  0  0  0  0  0  0  0  0  0  0
  -22.3910  -12.9290   22.0370 N   0  0  0  0  0  0  0  0  0  0  0  0
  -22.6160  -14.6290   20.6140 O   0  0  0  0  0  0  0  0  0  0  0  0
  -22.7710  -12.0940   22.4580 H   0  0  0  0  0  0  0  0  0  0  0  0
  -21.4820  -13.2570   22.3300 H   0  0  0  0  0  0  0  0  0  0  0  0
  -25.6750  -15.1870   20.0850 N   0  0  0  0  0  0  0  0  0  0  0  0
  -24.9350  -15.8630   20.2400 H   0  0  0  0  0  0  0  0  0  0  0  0
  -26.5090  -15.5970   19.6840 H   0  0  0  0  0  0  0  0  0  0  0  0
  -28.8820  -22.6430   21.8160 C   0  0  0  0  0  2  0  0  0  0  0  0
  -29.1500  -24.0250   21.1860 C   0  0  0  0  0  2  0  0  0  0  0  0
  -28.5890  -25.1820   22.0350 C   0  0  0  0  0  2  0  0  0  0  0  0
  -29.0060  -26.5780   21.5350 C   0  0  0  0  0  2  0  0  0  0  0  0
  -28.3800  -26.8690   20.2850 O   0  0  0  0  0  0  0  0  0  0  0  0
  -24.4960  -31.9880   23.4000 C   0  0  0  0  0  0  0  0  0  0  0  0
  -27.2220  -27.6090   20.3340 C   0  0  0  0  0  0  0  0  0  0  0  0
  -23.3180  -30.5900   21.7290 C   0  0  0  0  0  3  0  0  0  0  0  0
  -24.8030  -29.0690   20.3190 C   0  0  0  0  0  0  0  0  0  0  0  0
  -25.8380  -30.9750   21.5640 C   0  0  0  0  0  2  0  0  0  0  0  0
  -25.9440  -29.6070   20.9280 C   0  0  0  0  0  0  0  0  0  0  0  0
  -27.1550  -28.8860   20.9370 C   0  0  0  0  0  3  0  0  0  0  0  0
  -26.0720  -27.0820   19.7120 C   0  0  0  0  0  3  0  0  0  0  0  0
  -24.8600  -27.8010   19.7100 C   0  0  0  0  0  3  0  0  0  0  0  0
  -23.5500  -29.9140   20.3500 C   0  0  0  0  0  2  0  0  0  0  0  0
  -24.5670  -31.1980   22.2910 N   0  0  0  0  0  0  0  0  0  0  0  0
  -23.4070  -32.2500   23.9280 O   0  0  0  0  0  0  0  0  0  0  0  0
  -22.6630  -29.5590   22.6750 C   0  0  0  0  0  0  0  0  0  0  0  0
  -21.3470  -29.3460   22.5050 N   0  0  0  0  0  0  0  0  0  0  0  0
  -23.3340  -28.9510   23.5130 O   0  0  0  0  0  0  0  0  0  0  0  0
  -20.8680  -29.8890   21.8000 H   0  0  0  0  0  0  0  0  0  0  0  0
  -17.9860  -28.0830   22.8940 C   0  0  0  0  0  0  0  0  0  0  0  0
  -20.5270  -28.3950   23.2520 C   0  0  0  0  0  3  0  0  0  0  0  0
  -20.6800  -26.9640   22.6860 C   0  0  0  0  0  2  0  0  0  0  0  0
  -19.6200  -26.6150   21.6360 C   0  0  0  0  0  2  0  0  0  0  0  0
  -18.2130  -26.7340   22.2320 C   0  0  0  0  0  2  0  0  0  0  0  0
  -19.0740  -28.8700   23.3580 C   0  0  0  0  0  0  0  0  0  0  0  0
  -18.8100  -30.1320   23.9340 C   0  0  0  0  0  3  0  0  0  0  0  0
  -17.4910  -30.6090   24.0500 C   0  0  0  0  0  3  0  0  0  0  0  0
  -16.4170  -29.8190   23.6030 C   0  0  0  0  0  3  0  0  0  0  0  0
  -16.6650  -28.5580   23.0310 C   0  0  0  0  0  3  0  0  0  0  0  0
  -25.7730  -32.6170   24.0410 C   0  0  0  0  0  3  0  0  0  0  0  0
  -25.4660  -34.0220   24.3440 N   0  0  0  0  0  0  0  0  0  0  0  0
  -25.8350  -35.0610   23.5830 C   0  0  0  0  0  0  0  0  0  0  0  0
  -26.5400  -34.9390   22.5780 O   0  0  0  0  0  0  0  0  0  0  0  0
  -24.8470  -34.1920   25.1230 H   0  0  0  0  0  0  0  0  0  0  0  0
  -24.1390  -36.8630   23.1410 C   0  0  0  0  0  1  0  0  0  0  0  0
  -25.3440  -36.4580   24.0060 C   0  0  0  0  0  3  0  0  0  0  0  0
  -27.4500  -37.3350   24.9110 C   0  0  0  0  0  1  0  0  0  0  0  0
  -26.3890  -37.5010   23.9210 N   0  0  0  0  0  0  0  0  0  0  0  0
  -25.9850  -38.4260   24.0410 H   0  0  0  0  0  0  0  0  0  0  0  0
  -26.2590  -31.8590   25.3360 C   0  0  1  0  0  0  0  0  0  0  0  0
  -25.1340  -31.6040   26.3670 C   0  0  0  0  0  1  0  0  0  0  0  0
  -26.8780  -30.4900   24.9630 C   0  0  0  0  0  1  0  0  0  0  0  0
  -27.3720  -32.6740   26.0350 C   0  0  0  0  0  1  0  0  0  0  0  0
  1 47  1  0
  1  2  1  0
  3  4  1  0
  4  7  2  0
  5  8  1  0
  5  3  2  0
  6  7  1  0
  7  2  1  0
  8  6  2  0
  9 17  1  0
 10 15  1  0
 11 12  1  0
 11 10  1  0
 13 12  1  0
 13 22  1  0
 13 14  1  0
 15  9  1  0
 15 14  1  0
 16  9  2  0
 17  8  1  0
 17 18  1  0
 19 20  2  0
 20 39  1  0
 21 20  1  0
 21 24  1  0
 22 23  1  0
 22 19  1  0
 23 21  2  0
 24 25  1  0
 25 26  2  0
 27 30  1  0
 27 26  1  0
 28 27  2  0
 29 28  1  0
 29 24  2  0
 30 31  1  0
 31 36  2  0
 31 32  1  0
 32 33  2  0
 33 34  1  0
 34 38  1  0
 35 34  2  0
 36 35  1  0
 37 36  1  0
 39 40  1  0
 40 43  1  0
 40 42  1  0
 41 39  2  0
 44 45  1  0
 44 19  1  0
 46 44  1  0
 48 47  1  0
 48 49  1  0
 50 49  1  0
 51 53  1  0
 51 50  1  0
 52 63  2  0
 53 58  1  0
 54 62  1  0
 54 64  1  0
 55 61  1  0
 55 57  1  0
 56 62  1  0
 57 58  2  0
 57 56  1  0
 59 53  2  0
 60 59  1  0
 60 55  2  0
 61 54  1  0
 62 52  1  0
 64 66  2  0
 65 64  1  0
 67 65  1  0
 68 77  2  0
 68 73  1  0
 69 65  1  0
 69 73  1  0
 70 69  1  0
 71 72  1  0
 71 70  1  0
 72 68  1  0
 73 74  2  0
 74 75  1  0
 76 75  2  0
 77 76  1  0
 78 52  1  0
 78 79  1  0
 78 88  1  0
 79 82  1  0
 80 84  1  0
 80 79  1  0
 81 80  2  0
 84 83  1  0
 86 84  1  0
 86 87  1  0
 86 85  1  0
 88 91  1  1
 88 89  1  0
 90 88  1  0
M  ISO  4   9 100  17 100  50 101  51 101
M  END
>  <TORSDO>  (46) 
F 22

>  <SCORE>  (46) 
-11.900

>  <name>  (46) 
45

>  <ligand_id>  (46) 
45

>  <original_smiles>  (46) 
[H]c1c([H])c([H])c2c(c1[H])C([H])([H])C([H])([H])C([H])([H])C2([H])N([H])C(=O)C1([H])N(C(=O)C([H])(N([H])C(=O)C([H])(N([H])C([H])([H])[H])C([H])([H])[H])C(C([H])([H])[H])(C([H])([H])[H])C([H])([H])[H])C([H])([H])c2c([H])c(OC([H])([H])C([H])([H])C([H])([H])C([H])([H])C([H])([H])C([H])([H])c3c([H])c([H])c([H])c(N([H])C(=O)N4C([H])([H])C([H])([H])C([H])([H])C([H])(n5nc(-c6c([H])c([H])c(Oc7c([H])c([H])c(F)c([H])c7F)c([H])c6[H])c(C(=O)N([H])[H])c5N([H])[H])C4([H])[H])c3[H])c([H])c([H])c2C1([H])[H]

>  <smiles>  (46) 
[H]c1c([H])c([H])c2c(c1[H])C([H])([H])C([H])([H])C([H])([H])C2([H])N([H])C(=O)C1([H])N(C(=O)C([H])(N([H])C(=O)C([H])(N([H])C([H])([H])[H])C([H])([H])[H])C(C([H])([H])[H])(C([H])([H])[H])C([H])([H])[H])C([H])([H])c2c([H])c(OC([H])([H])C([H])([H])C([H])([H])C([H])([H])C([H])([H])C([H])([H])c3c([H])c([H])c([H])c(N([H])C(=O)N4C([H])([H])C([H])([H])C([H])([H])C([H])(n5nc(-c6c([H])c([H])c(Oc7c([H])c([H])c(F)c([H])c7F)c([H])c6[H])c(C(=O)N([H])[H])c5N([H])[H])C4([H])[H])c3[H])c([H])c([H])c2C1([H])[H]

$$$$
46:0:0
     RDKit          3D

 93101  0  0  1  0  0  0  0  0999 V2000
  -30.0990  -21.1690   20.0580 C   0  0  0  0  0  2  0  0  0  0  0  0
  -30.9520  -18.4680   22.7730 C   0  0  0  0  0  3  0  0  0  0  0  0
  -30.1770  -18.4760   20.1060 C   0  0  0  0  0  3  0  0  0  0  0  0
  -30.6970  -19.7050   22.1450 C   0  0  0  0  0  0  0  0  0  0  0  0
  -30.8350  -17.2340   22.1000 C   0  0  0  0  0  0  0  0  0  0  0  0
  -30.2760  -19.7590   20.7880 C   0  0  0  0  0  0  0  0  0  0  0  0
  -30.4710  -17.1950   20.7300 C   0  0  0  0  0  0  0  0  0  0  0  0
  -30.9120  -20.9510   22.9890 C   0  0  0  0  0  1  0  0  0  0  0  0
  -31.0480  -15.9630   22.9120 C   0  0  0  0  0  1  0  0  0  0  0  0
  -30.9910  -14.7560   19.9360 C   0  0  0  0  0  0  0  0  0  0  0  0
  -30.6780  -12.5240   18.8440 C   0  0  0  0  0  2  0  0  0  0  0  0
  -29.6750  -12.6330   17.6750 C   0  0  0  0  0  2  0  0  0  0  0  0
  -28.2250  -12.4880   18.1820 C   0  0  0  0  0  2  0  0  0  0  0  0
  -27.9340  -13.3840   19.4140 C   0  0  0  0  0  3  0  0  0  0  0  0
  -29.0410  -13.2410   20.4810 C   0  0  0  0  0  2  0  0  0  0  0  0
  -30.3190  -13.5620   19.8320 N   0  0  0  0  0  0  0  0  0  0  0  0
  -32.1750  -14.8440   19.5980 O   0  0  0  0  0  0  0  0  0  0  0  0
  -30.2090  -15.8790   20.1190 N   0  0  0  0  0  0  0  0  0  0  0  0
  -29.2280  -15.6510   20.0920 H   0  0  0  0  0  0  0  0  0  0  0  0
  -25.5970  -14.0500   20.2400 C   0  0  0  0  0  0  0  0  0  0  0  0
  -24.5260  -13.3060   20.6560 C   0  0  0  0  0  0  0  0  0  0  0  0
  -24.9510  -11.9440   20.6120 C   0  0  0  0  0  0  0  0  0  0  0  0
  -26.6060  -13.1410   19.9650 N   0  0  0  0  0  0  0  0  0  0  0  0
  -26.2270  -11.8700   20.2520 N   0  0  0  0  0  0  0  0  0  0  0  0
  -24.2010  -10.7010   20.8320 C   0  0  0  0  0  0  0  0  0  0  0  0
  -24.6210   -9.7460   21.7850 C   0  0  0  0  0  3  0  0  0  0  0  0
  -23.8740   -8.5670   21.9930 C   0  0  0  0  0  3  0  0  0  0  0  0
  -22.6940   -8.3340   21.2480 C   0  0  0  0  0  0  0  0  0  0  0  0
  -22.2930   -9.2770   20.2860 C   0  0  0  0  0  3  0  0  0  0  0  0
  -23.0400  -10.4490   20.0770 C   0  0  0  0  0  3  0  0  0  0  0  0
  -21.9170   -7.2070   21.3640 O   0  0  0  0  0  0  0  0  0  0  0  0
  -21.8220   -6.5180   22.5460 C   0  0  0  0  0  0  0  0  0  0  0  0
  -21.3800   -7.1370   23.7360 C   0  0  0  0  0  3  0  0  0  0  0  0
  -21.2320   -6.3770   24.9130 C   0  0  0  0  0  3  0  0  0  0  0  0
  -21.5130   -4.9980   24.9000 C   0  0  0  0  0  0  0  0  0  0  0  0
  -21.9440   -4.3770   23.7150 C   0  0  0  0  0  3  0  0  0  0  0  0
  -22.0970   -5.1360   22.5410 C   0  0  0  0  0  0  0  0  0  0  0  0
  -22.4950   -4.5290   21.3970 F   0  0  0  0  0  0  0  0  0  0  0  0
  -21.3620   -4.2640   26.0280 F   0  0  0  0  0  0  0  0  0  0  0  0
  -23.1530  -13.8210   20.9800 C   0  0  0  0  0  0  0  0  0  0  0  0
  -22.4460  -13.1550   21.8860 N   0  0  0  0  0  0  0  0  0  0  0  0
  -22.7190  -14.8490   20.4630 O   0  0  0  0  0  0  0  0  0  0  0  0
  -22.8100  -12.3240   22.3270 H   0  0  0  0  0  0  0  0  0  0  0  0
  -21.5280  -13.4870   22.1470 H   0  0  0  0  0  0  0  0  0  0  0  0
  -25.7900  -15.4150   20.0470 N   0  0  0  0  0  0  0  0  0  0  0  0
  -25.0420  -16.0880   20.1750 H   0  0  0  0  0  0  0  0  0  0  0  0
  -26.6260  -15.8300   19.6610 H   0  0  0  0  0  0  0  0  0  0  0  0
  -29.1340  -22.3550   20.5960 C   0  0  0  0  0  2  0  0  0  0  0  0
  -30.1990  -24.1050   19.0270 C   0  0  0  0  0  1  0  0  0  0  0  0
  -30.5370  -24.3200   21.5010 C   0  0  0  0  0  1  0  0  0  0  0  0
  -29.5310  -23.9210   20.4040 C   0  0  2  0  0  0  0  0  0  0  0  0
  -28.3030  -24.9610   20.4710 C   0  0  0  0  0  2  0  0  0  0  0  0
  -28.5220  -26.4430   20.4270 O   0  0  0  0  0  0  0  0  0  0  0  0
  -24.6480  -31.9110   23.2100 C   0  0  0  0  0  0  0  0  0  0  0  0
  -27.3970  -27.2910   20.3410 C   0  0  0  0  0  0  0  0  0  0  0  0
  -23.5070  -30.4480   21.5850 C   0  0  0  0  0  3  0  0  0  0  0  0
  -25.0120  -28.8860   20.2340 C   0  0  0  0  0  0  0  0  0  0  0  0
  -26.0470  -30.8010   21.4470 C   0  0  0  0  0  2  0  0  0  0  0  0
  -26.1630  -29.4050   20.8400 C   0  0  0  0  0  0  0  0  0  0  0  0
  -27.3590  -28.6200   20.8790 C   0  0  0  0  0  3  0  0  0  0  0  0
  -26.2170  -26.8380   19.7040 C   0  0  0  0  0  3  0  0  0  0  0  0
  -25.0430  -27.6100   19.6570 C   0  0  0  0  0  3  0  0  0  0  0  0
  -23.7620  -29.7420   20.2290 C   0  0  0  0  0  2  0  0  0  0  0  0
  -24.7520  -31.0720   22.1370 N   0  0  0  0  0  0  0  0  0  0  0  0
  -23.5480  -32.1860   23.7120 O   0  0  0  0  0  0  0  0  0  0  0  0
  -22.8390  -29.4460   22.5560 C   0  0  0  0  0  0  0  0  0  0  0  0
  -21.5220  -29.2330   22.3950 N   0  0  0  0  0  0  0  0  0  0  0  0
  -23.5050  -28.8610   23.4130 O   0  0  0  0  0  0  0  0  0  0  0  0
  -21.0450  -29.7540   21.6730 H   0  0  0  0  0  0  0  0  0  0  0  0
  -18.1670  -27.9480   22.8110 C   0  0  0  0  0  0  0  0  0  0  0  0
  -20.7020  -28.3030   23.1730 C   0  0  0  0  0  3  0  0  0  0  0  0
  -20.8740  -26.8520   22.6680 C   0  0  0  0  0  2  0  0  0  0  0  0
  -19.8270  -26.4500   21.6240 C   0  0  0  0  0  2  0  0  0  0  0  0
  -18.4160  -26.5760   22.2040 C   0  0  0  0  0  2  0  0  0  0  0  0
  -19.2410  -28.7650   23.2520 C   0  0  0  0  0  0  0  0  0  0  0  0
  -18.9570  -30.0450   23.7770 C   0  0  0  0  0  3  0  0  0  0  0  0
  -17.6300  -30.5080   23.8690 C   0  0  0  0  0  3  0  0  0  0  0  0
  -16.5690  -29.6880   23.4460 C   0  0  0  0  0  3  0  0  0  0  0  0
  -16.8380  -28.4120   22.9190 C   0  0  0  0  0  3  0  0  0  0  0  0
  -25.9050  -32.5840   23.8430 C   0  0  0  0  0  3  0  0  0  0  0  0
  -26.4270  -31.8410   25.1330 C   0  0  1  0  0  0  0  0  0  0  0  0
  -25.3280  -31.5710   26.1870 C   0  0  0  0  0  1  0  0  0  0  0  0
  -27.0650  -30.4840   24.7570 C   0  0  0  0  0  1  0  0  0  0  0  0
  -27.5350  -32.6820   25.8090 C   0  0  0  0  0  1  0  0  0  0  0  0
  -25.5530  -33.9740   24.1590 N   0  0  0  0  0  0  0  0  0  0  0  0
  -25.8830  -35.0350   23.4090 C   0  0  0  0  0  0  0  0  0  0  0  0
  -26.5840  -34.9450   22.3970 O   0  0  0  0  0  0  0  0  0  0  0  0
  -24.9320  -34.1150   24.9430 H   0  0  0  0  0  0  0  0  0  0  0  0
  -24.1230  -36.7870   23.0050 C   0  0  0  0  0  1  0  0  0  0  0  0
  -25.3500  -36.4110   23.8520 C   0  0  0  0  0  3  0  0  0  0  0  0
  -27.4430  -37.3440   24.7340 C   0  0  0  0  0  1  0  0  0  0  0  0
  -26.3600  -37.4870   23.7650 N   0  0  0  0  0  0  0  0  0  0  0  0
  -25.9290  -38.3960   23.9090 H   0  0  0  0  0  0  0  0  0  0  0  0
  1 48  1  0
  1  6  1  0
  3  7  2  0
  3  6  1  0
  4  2  1  0
  4  8  1  0
  5  2  2  0
  5  9  1  0
  6  4  2  0
  7  5  1  0
 10 18  1  0
 11 16  1  0
 12 13  1  0
 12 11  1  0
 14 13  1  0
 14 23  1  0
 14 15  1  0
 16 10  1  0
 16 15  1  0
 17 10  2  0
 18  7  1  0
 19 18  1  0
 20 21  2  0
 21 40  1  0
 22 21  1  0
 22 25  1  0
 23 20  1  0
 23 24  1  0
 24 22  2  0
 25 26  1  0
 26 27  2  0
 28 31  1  0
 28 27  1  0
 29 28  2  0
 30 29  1  0
 30 25  2  0
 31 32  1  0
 32 33  1  0
 33 34  2  0
 35 34  1  0
 35 39  1  0
 36 35  2  0
 37 32  2  0
 37 36  1  0
 38 37  1  0
 40 41  1  0
 41 44  1  0
 41 43  1  0
 42 40  2  0
 45 46  1  0
 45 20  1  0
 47 45  1  0
 51 49  1  6
 51 52  1  0
 51 48  1  0
 51 50  1  0
 53 52  1  0
 54 65  2  0
 55 53  1  0
 55 60  1  0
 56 64  1  0
 56 66  1  0
 57 59  1  0
 58 64  1  0
 59 60  2  0
 59 58  1  0
 61 55  2  0
 62 61  1  0
 62 57  2  0
 63 57  1  0
 63 56  1  0
 64 54  1  0
 66 68  2  0
 67 66  1  0
 69 67  1  0
 70 79  2  0
 70 75  1  0
 71 67  1  0
 71 75  1  0
 72 71  1  0
 73 74  1  0
 73 72  1  0
 74 70  1  0
 75 76  2  0
 76 77  1  0
 78 77  2  0
 79 78  1  0
 80 54  1  0
 80 85  1  0
 80 81  1  0
 81 84  1  1
 81 82  1  0
 83 81  1  0
 85 88  1  0
 86 90  1  0
 86 85  1  0
 87 86  2  0
 90 89  1  0
 92 90  1  0
 92 93  1  0
 92 91  1  0
M  ISO  4  10 100  18 100  52 101  53 101
M  END
>  <TORSDO>  (47) 
F 20

>  <SCORE>  (47) 
-12.511

>  <name>  (47) 
46

>  <ligand_id>  (47) 
46

>  <original_smiles>  (47) 
[H]c1c([H])c([H])c2c(c1[H])C([H])([H])C([H])([H])C([H])([H])C2([H])N([H])C(=O)C1([H])N(C(=O)C([H])(N([H])C(=O)C([H])(N([H])C([H])([H])[H])C([H])([H])[H])C(C([H])([H])[H])(C([H])([H])[H])C([H])([H])[H])C([H])([H])c2c([H])c(OC([H])([H])C(C([H])([H])[H])(C([H])([H])[H])C([H])([H])C([H])([H])c3c([H])c(N([H])C(=O)N4C([H])([H])C([H])([H])C([H])([H])C([H])(n5nc(-c6c([H])c([H])c(Oc7c([H])c([H])c(F)c([H])c7F)c([H])c6[H])c(C(=O)N([H])[H])c5N([H])[H])C4([H])[H])c(C([H])([H])[H])c([H])c3C([H])([H])[H])c([H])c([H])c2C1([H])[H]

>  <smiles>  (47) 
[H]c1c([H])c([H])c2c(c1[H])C([H])([H])C([H])([H])C([H])([H])C2([H])N([H])C(=O)C1([H])N(C(=O)C([H])(N([H])C(=O)C([H])(N([H])C([H])([H])[H])C([H])([H])[H])C(C([H])([H])[H])(C([H])([H])[H])C([H])([H])[H])C([H])([H])c2c([H])c(OC([H])([H])C(C([H])([H])[H])(C([H])([H])[H])C([H])([H])C([H])([H])c3c([H])c(N([H])C(=O)N4C([H])([H])C([H])([H])C([H])([H])C([H])(n5nc(-c6c([H])c([H])c(Oc7c([H])c([H])c(F)c([H])c7F)c([H])c6[H])c(C(=O)N([H])[H])c5N([H])[H])C4([H])[H])c(C([H])([H])[H])c([H])c3C([H])([H])[H])c([H])c([H])c2C1([H])[H]

$$$$
47:0:0
     RDKit          3D

 90 98  0  0  1  0  0  0  0  0999 V2000
  -28.5330  -22.0140   20.3620 C   0  0  0  0  0  3  0  0  0  0  0  0
  -27.4670  -23.4610   18.5380 C   0  0  0  0  0  1  0  0  0  0  0  0
  -29.8610  -23.8930   19.1650 C   0  0  0  0  0  1  0  0  0  0  0  0
  -28.4690  -23.5420   19.7060 C   0  0  2  0  0  0  0  0  0  0  0  0
  -28.0290  -24.8390   20.6210 C   0  0  0  0  0  2  0  0  0  0  0  0
  -28.2540  -26.3020   20.2390 O   0  0  0  0  0  0  0  0  0  0  0  0
  -24.6150  -31.8970   23.2460 C   0  0  0  0  0  0  0  0  0  0  0  0
  -27.1810  -27.2290   20.2330 C   0  0  0  0  0  0  0  0  0  0  0  0
  -23.4130  -30.4920   21.6130 C   0  0  0  0  0  3  0  0  0  0  0  0
  -24.8540  -28.9220   20.1940 C   0  0  0  0  0  0  0  0  0  0  0  0
  -25.9590  -30.7800   21.4360 C   0  0  0  0  0  2  0  0  0  0  0  0
  -26.0330  -29.3910   20.7920 C   0  0  0  0  0  0  0  0  0  0  0  0
  -27.2050  -28.5620   20.7870 C   0  0  0  0  0  3  0  0  0  0  0  0
  -25.9790  -26.8310   19.6170 C   0  0  0  0  0  3  0  0  0  0  0  0
  -24.8360  -27.6540   19.5920 C   0  0  0  0  0  3  0  0  0  0  0  0
  -23.6290  -29.8150   20.2350 C   0  0  0  0  0  2  0  0  0  0  0  0
  -24.6820  -31.0790   22.1530 N   0  0  0  0  0  0  0  0  0  0  0  0
  -23.5290  -32.1790   23.7730 O   0  0  0  0  0  0  0  0  0  0  0  0
  -22.7410  -29.4840   22.5800 C   0  0  0  0  0  0  0  0  0  0  0  0
  -21.4130  -29.3130   22.4550 N   0  0  0  0  0  0  0  0  0  0  0  0
  -23.4150  -28.8610   23.4030 O   0  0  0  0  0  0  0  0  0  0  0  0
  -20.9250  -29.8740   21.7710 H   0  0  0  0  0  0  0  0  0  0  0  0
  -18.0330  -28.1120   22.9560 C   0  0  0  0  0  0  0  0  0  0  0  0
  -20.5910  -28.3790   23.2290 C   0  0  0  0  0  3  0  0  0  0  0  0
  -20.6940  -26.9430   22.6640 C   0  0  0  0  0  2  0  0  0  0  0  0
  -19.5960  -26.6110   21.6480 C   0  0  0  0  0  2  0  0  0  0  0  0
  -18.2140  -26.7570   22.2890 C   0  0  0  0  0  2  0  0  0  0  0  0
  -19.1490  -28.8790   23.3820 C   0  0  0  0  0  0  0  0  0  0  0  0
  -18.9250  -30.1450   23.9670 C   0  0  0  0  0  3  0  0  0  0  0  0
  -17.6190  -30.6430   24.1270 C   0  0  0  0  0  3  0  0  0  0  0  0
  -16.5170  -29.8740   23.7140 C   0  0  0  0  0  3  0  0  0  0  0  0
  -16.7260  -28.6100   23.1360 C   0  0  0  0  0  3  0  0  0  0  0  0
  -25.8940  -32.5330   23.8720 C   0  0  0  0  0  3  0  0  0  0  0  0
  -26.4040  -31.7680   25.1550 C   0  0  1  0  0  0  0  0  0  0  0  0
  -25.3080  -31.5410   26.2230 C   0  0  0  0  0  1  0  0  0  0  0  0
  -26.9860  -30.3860   24.7750 C   0  0  0  0  0  1  0  0  0  0  0  0
  -27.5570  -32.5640   25.8130 C   0  0  0  0  0  1  0  0  0  0  0  0
  -25.5800  -33.9330   24.2010 N   0  0  0  0  0  0  0  0  0  0  0  0
  -25.9100  -34.9870   23.4410 C   0  0  0  0  0  0  0  0  0  0  0  0
  -26.5760  -34.8830   22.4080 O   0  0  0  0  0  0  0  0  0  0  0  0
  -24.9910  -34.0890   25.0040 H   0  0  0  0  0  0  0  0  0  0  0  0
  -24.1750  -36.7780   23.1000 C   0  0  0  0  0  1  0  0  0  0  0  0
  -25.4240  -36.3760   23.9010 C   0  0  0  0  0  3  0  0  0  0  0  0
  -27.5660  -37.2680   24.7090 C   0  0  0  0  0  1  0  0  0  0  0  0
  -26.4540  -37.4310   23.7740 N   0  0  0  0  0  0  0  0  0  0  0  0
  -26.0490  -38.3520   23.9160 H   0  0  0  0  0  0  0  0  0  0  0  0
  -29.1100  -20.7430   19.4970 C   0  0  0  0  0  3  0  0  0  0  0  0
  -28.9990  -16.7540   19.1980 C   0  0  0  0  0  3  0  0  0  0  0  0
  -28.6610  -18.1480   19.0510 C   0  0  0  0  0  3  0  0  0  0  0  0
  -29.9540  -18.6780   20.9700 C   0  0  0  0  0  3  0  0  0  0  0  0
  -29.8600  -16.2510   20.2240 C   0  0  0  0  0  0  0  0  0  0  0  0
  -29.1660  -19.1830   19.9030 C   0  0  0  0  0  0  0  0  0  0  0  0
  -30.2930  -17.2850   21.1280 C   0  0  0  0  0  0  0  0  0  0  0  0
  -31.2360  -16.9400   22.2650 C   0  0  0  0  0  1  0  0  0  0  0  0
  -30.5350  -14.8190   20.1600 C   0  0  0  0  0  0  0  0  0  0  0  0
  -30.2990  -12.5150   19.2310 C   0  0  0  0  0  2  0  0  0  0  0  0
  -29.3580  -12.5540   18.0100 C   0  0  0  0  0  2  0  0  0  0  0  0
  -27.8970  -12.3650   18.4580 C   0  0  0  0  0  2  0  0  0  0  0  0
  -27.5210  -13.2800   19.6520 C   0  0  0  0  0  3  0  0  0  0  0  0
  -28.5900  -13.2820   20.7610 C   0  0  0  0  0  2  0  0  0  0  0  0
  -29.8720  -13.6080   20.1370 N   0  0  0  0  0  0  0  0  0  0  0  0
  -31.7430  -14.8160   19.9130 O   0  0  0  0  0  0  0  0  0  0  0  0
  -25.1490  -13.8620   20.4140 C   0  0  0  0  0  0  0  0  0  0  0  0
  -24.0930  -13.0840   20.8000 C   0  0  0  0  0  0  0  0  0  0  0  0
  -24.5650  -11.7350   20.7800 C   0  0  0  0  0  0  0  0  0  0  0  0
  -26.1940  -12.9840   20.1740 N   0  0  0  0  0  0  0  0  0  0  0  0
  -25.8540  -11.7020   20.4630 N   0  0  0  0  0  0  0  0  0  0  0  0
  -23.8480  -10.4700   20.9870 C   0  0  0  0  0  0  0  0  0  0  0  0
  -24.2980   -9.5090   21.9190 C   0  0  0  0  0  3  0  0  0  0  0  0
  -23.5810   -8.3100   22.1160 C   0  0  0  0  0  3  0  0  0  0  0  0
  -22.3990   -8.0620   21.3770 C   0  0  0  0  0  0  0  0  0  0  0  0
  -21.9680   -9.0100   20.4340 C   0  0  0  0  0  3  0  0  0  0  0  0
  -22.6850  -10.2010   20.2360 C   0  0  0  0  0  3  0  0  0  0  0  0
  -21.6530   -6.9120   21.4810 O   0  0  0  0  0  0  0  0  0  0  0  0
  -21.6340   -6.1680   22.6320 C   0  0  0  0  0  0  0  0  0  0  0  0
  -21.2480   -6.7220   23.8720 C   0  0  0  0  0  3  0  0  0  0  0  0
  -21.1780   -5.9060   25.0180 C   0  0  0  0  0  3  0  0  0  0  0  0
  -21.4840   -4.5350   24.9250 C   0  0  0  0  0  0  0  0  0  0  0  0
  -21.8630   -3.9790   23.6900 C   0  0  0  0  0  3  0  0  0  0  0  0
  -21.9350   -4.7940   22.5470 C   0  0  0  0  0  0  0  0  0  0  0  0
  -22.2810   -4.2490   21.3550 F   0  0  0  0  0  0  0  0  0  0  0  0
  -21.4080   -3.7480   26.0240 F   0  0  0  0  0  0  0  0  0  0  0  0
  -22.6950  -13.5550   21.0750 C   0  0  0  0  0  0  0  0  0  0  0  0
  -21.9800  -12.8630   21.9550 N   0  0  0  0  0  0  0  0  0  0  0  0
  -22.2470  -14.5690   20.5450 O   0  0  0  0  0  0  0  0  0  0  0  0
  -22.3570  -12.0340   22.3930 H   0  0  0  0  0  0  0  0  0  0  0  0
  -21.0440  -13.1580   22.1930 H   0  0  0  0  0  0  0  0  0  0  0  0
  -25.3070  -15.2310   20.2220 N   0  0  0  0  0  0  0  0  0  0  0  0
  -24.5430  -15.8870   20.3420 H   0  0  0  0  0  0  0  0  0  0  0  0
  -26.1710  -15.6770   19.9340 H   0  0  0  0  0  0  0  0  0  0  0  0
  4  2  1  6
  3  4  1  0
  4  1  1  0
  4  5  1  0
  6  5  1  0
  7 18  2  0
  8  6  1  0
  8 13  1  0
  9 17  1  0
  9 19  1  0
 10 16  1  0
 10 12  1  0
 11 17  1  0
 12 11  1  0
 13 12  2  0
 14  8  2  0
 15 14  1  0
 15 10  2  0
 16  9  1  0
 17  7  1  0
 19 21  2  0
 20 19  1  0
 22 20  1  0
 23 32  2  0
 23 28  1  0
 24 20  1  0
 24 28  1  0
 25 24  1  0
 26 27  1  0
 26 25  1  0
 27 23  1  0
 28 29  2  0
 29 30  1  0
 31 30  2  0
 32 31  1  0
 33  7  1  0
 33 38  1  0
 33 34  1  0
 34 37  1  1
 34 35  1  0
 36 34  1  0
 38 41  1  0
 39 43  1  0
 39 38  1  0
 40 39  2  0
 43 42  1  0
 45 43  1  0
 45 46  1  0
 45 44  1  0
 47 52  1  0
 47  1  2  0
 48 51  1  0
 49 48  2  0
 49 52  1  0
 50 53  1  0
 51 53  2  0
 52 50  2  0
 53 54  1  0
 55 51  1  0
 56 61  1  0
 57 58  1  0
 57 56  1  0
 59 58  1  0
 59 66  1  0
 59 60  1  0
 61 55  1  0
 61 60  1  0
 62 55  2  0
 63 64  2  0
 64 83  1  0
 65 64  1  0
 65 68  1  0
 66 63  1  0
 66 67  1  0
 67 65  2  0
 68 69  1  0
 69 70  2  0
 71 74  1  0
 71 70  1  0
 72 71  2  0
 73 72  1  0
 73 68  2  0
 74 75  1  0
 75 76  1  0
 76 77  2  0
 78 77  1  0
 78 82  1  0
 79 78  2  0
 80 75  2  0
 80 79  1  0
 81 80  1  0
 83 84  1  0
 84 87  1  0
 84 86  1  0
 85 83  2  0
 88 89  1  0
 88 63  1  0
 90 88  1  0
M  ISO  4   5 101   6 101  51 100  55 100
M  END
>  <TORSDO>  (48) 
F 20

>  <SCORE>  (48) 
-13.728

>  <name>  (48) 
47

>  <ligand_id>  (48) 
47

>  <original_smiles>  (48) 
[H]c1c([H])c([H])c2c(c1[H])C([H])([H])C([H])([H])C([H])([H])C2([H])N([H])C(=O)C1([H])N(C(=O)C([H])(N([H])C(=O)C([H])(N([H])C([H])([H])[H])C([H])([H])[H])C(C([H])([H])[H])(C([H])([H])[H])C([H])([H])[H])C([H])([H])c2c([H])c(OC([H])([H])C(C([H])([H])[H])(C([H])([H])[H])C([H])([H])C([H])([H])c3c([H])c([H])c(C(=O)N4C([H])([H])C([H])([H])C([H])([H])C([H])(n5nc(-c6c([H])c([H])c(Oc7c([H])c([H])c(F)c([H])c7F)c([H])c6[H])c(C(=O)N([H])[H])c5N([H])[H])C4([H])[H])c(C([H])([H])[H])c3[H])c([H])c([H])c2C1([H])[H]

>  <smiles>  (48) 
[H]c1c([H])c([H])c2c(c1[H])C([H])([H])C([H])([H])C([H])([H])C2([H])N([H])C(=O)C1([H])N(C(=O)C([H])(N([H])C(=O)C([H])(N([H])C([H])([H])[H])C([H])([H])[H])C(C([H])([H])[H])(C([H])([H])[H])C([H])([H])[H])C([H])([H])c2c([H])c(OC([H])([H])C(C([H])([H])[H])(C([H])([H])[H])C([H])([H])C([H])([H])c3c([H])c([H])c(C(=O)N4C([H])([H])C([H])([H])C([H])([H])C([H])(n5nc(-c6c([H])c([H])c(Oc7c([H])c([H])c(F)c([H])c7F)c([H])c6[H])c(C(=O)N([H])[H])c5N([H])[H])C4([H])[H])c(C([H])([H])[H])c3[H])c([H])c([H])c2C1([H])[H]

$$$$
48:0:0
     RDKit          3D

 91 99  0  0  1  0  0  0  0  0999 V2000
  -28.7330  -22.5190   20.1430 C   0  0  0  0  0  3  0  0  0  0  0  0
  -28.6880  -24.2850   18.2580 C   0  0  0  0  0  1  0  0  0  0  0  0
  -30.4420  -24.4360   20.0590 C   0  0  0  0  0  1  0  0  0  0  0  0
  -28.9810  -24.0590   19.7550 C   0  0  2  0  0  0  0  0  0  0  0  0
  -28.0870  -25.0930   20.5430 C   0  0  0  0  0  2  0  0  0  0  0  0
  -28.3120  -26.5140   20.2090 O   0  0  0  0  0  0  0  0  0  0  0  0
  -24.6260  -31.8800   23.2500 C   0  0  0  0  0  0  0  0  0  0  0  0
  -27.2040  -27.3520   20.1710 C   0  0  0  0  0  0  0  0  0  0  0  0
  -23.4150  -30.4850   21.6100 C   0  0  0  0  0  3  0  0  0  0  0  0
  -24.8540  -28.9490   20.1660 C   0  0  0  0  0  0  0  0  0  0  0  0
  -25.9550  -30.8060   21.4230 C   0  0  0  0  0  2  0  0  0  0  0  0
  -26.0240  -29.4370   20.7640 C   0  0  0  0  0  0  0  0  0  0  0  0
  -27.2080  -28.6500   20.7530 C   0  0  0  0  0  3  0  0  0  0  0  0
  -26.0220  -26.9110   19.5390 C   0  0  0  0  0  3  0  0  0  0  0  0
  -24.8540  -27.6930   19.5440 C   0  0  0  0  0  3  0  0  0  0  0  0
  -23.6200  -29.8210   20.2230 C   0  0  0  0  0  2  0  0  0  0  0  0
  -24.6820  -31.0760   22.1470 N   0  0  0  0  0  0  0  0  0  0  0  0
  -23.5430  -32.1570   23.7880 O   0  0  0  0  0  0  0  0  0  0  0  0
  -22.7630  -29.4600   22.5670 C   0  0  0  0  0  0  0  0  0  0  0  0
  -21.4370  -29.2770   22.4400 N   0  0  0  0  0  0  0  0  0  0  0  0
  -23.4470  -28.8340   23.3810 O   0  0  0  0  0  0  0  0  0  0  0  0
  -20.9490  -29.8340   21.7540 H   0  0  0  0  0  0  0  0  0  0  0  0
  -18.0610  -28.0750   22.9440 C   0  0  0  0  0  0  0  0  0  0  0  0
  -20.6190  -28.3370   23.2110 C   0  0  0  0  0  3  0  0  0  0  0  0
  -20.7240  -26.9090   22.6330 C   0  0  0  0  0  2  0  0  0  0  0  0
  -19.6200  -26.5850   21.6220 C   0  0  0  0  0  2  0  0  0  0  0  0
  -18.2380  -26.7280   22.2680 C   0  0  0  0  0  2  0  0  0  0  0  0
  -19.1790  -28.8390   23.3710 C   0  0  0  0  0  0  0  0  0  0  0  0
  -18.9580  -30.1020   23.9610 C   0  0  0  0  0  3  0  0  0  0  0  0
  -17.6510  -30.6010   24.1280 C   0  0  0  0  0  3  0  0  0  0  0  0
  -16.5480  -29.8340   23.7160 C   0  0  0  0  0  3  0  0  0  0  0  0
  -16.7560  -28.5740   23.1300 C   0  0  0  0  0  3  0  0  0  0  0  0
  -25.9120  -32.5070   23.8680 C   0  0  0  0  0  3  0  0  0  0  0  0
  -26.4300  -31.7400   25.1470 C   0  0  1  0  0  0  0  0  0  0  0  0
  -25.3360  -31.4940   26.2130 C   0  0  0  0  0  1  0  0  0  0  0  0
  -27.0200  -30.3660   24.7590 C   0  0  0  0  0  1  0  0  0  0  0  0
  -27.5770  -32.5390   25.8080 C   0  0  0  0  0  1  0  0  0  0  0  0
  -25.6050  -33.9090   24.1940 N   0  0  0  0  0  0  0  0  0  0  0  0
  -25.9380  -34.9580   23.4320 C   0  0  0  0  0  0  0  0  0  0  0  0
  -26.6080  -34.8530   22.4010 O   0  0  0  0  0  0  0  0  0  0  0  0
  -25.0110  -34.0670   24.9940 H   0  0  0  0  0  0  0  0  0  0  0  0
  -24.2090  -36.7500   23.0780 C   0  0  0  0  0  1  0  0  0  0  0  0
  -25.4510  -36.3480   23.8890 C   0  0  0  0  0  3  0  0  0  0  0  0
  -27.5870  -37.2260   24.7210 C   0  0  0  0  0  1  0  0  0  0  0  0
  -26.4830  -37.4020   23.7790 N   0  0  0  0  0  0  0  0  0  0  0  0
  -26.0780  -38.3210   23.9320 H   0  0  0  0  0  0  0  0  0  0  0  0
  -29.6660  -21.4350   19.4520 C   0  0  0  0  0  3  0  0  0  0  0  0
  -30.8640  -19.1580   19.6460 C   0  0  0  0  0  3  0  0  0  0  0  0
  -28.5770  -19.2190   20.3950 C   0  0  0  0  0  3  0  0  0  0  0  0
  -30.9220  -17.7580   19.8840 C   0  0  0  0  0  3  0  0  0  0  0  0
  -28.6390  -17.8140   20.6420 C   0  0  0  0  0  3  0  0  0  0  0  0
  -29.6890  -19.9260   19.8760 C   0  0  0  0  0  0  0  0  0  0  0  0
  -29.8040  -17.0440   20.3780 C   0  0  0  0  0  0  0  0  0  0  0  0
  -30.5790  -14.5870   20.1950 C   0  0  0  0  0  0  0  0  0  0  0  0
  -30.3220  -12.4080   19.0520 C   0  0  0  0  0  2  0  0  0  0  0  0
  -29.3400  -12.6340   17.8800 C   0  0  0  0  0  2  0  0  0  0  0  0
  -27.8740  -12.4930   18.3390 C   0  0  0  0  0  2  0  0  0  0  0  0
  -27.5780  -13.2740   19.6450 C   0  0  0  0  0  3  0  0  0  0  0  0
  -28.6680  -13.0200   20.7110 C   0  0  0  0  0  2  0  0  0  0  0  0
  -29.9640  -13.3690   20.1110 N   0  0  0  0  0  0  0  0  0  0  0  0
  -31.7300  -14.7590   19.7870 O   0  0  0  0  0  0  0  0  0  0  0  0
  -29.7670  -15.6060   20.6000 N   0  0  0  0  0  0  0  0  0  0  0  0
  -28.8800  -15.2590   20.9320 H   0  0  0  0  0  0  0  0  0  0  0  0
  -25.1970  -13.8730   20.4030 C   0  0  0  0  0  0  0  0  0  0  0  0
  -24.1430  -13.0950   20.7980 C   0  0  0  0  0  0  0  0  0  0  0  0
  -24.6100  -11.7460   20.7670 C   0  0  0  0  0  0  0  0  0  0  0  0
  -26.2410  -12.9940   20.1560 N   0  0  0  0  0  0  0  0  0  0  0  0
  -25.8930  -11.7110   20.4290 N   0  0  0  0  0  0  0  0  0  0  0  0
  -23.8940  -10.4820   20.9780 C   0  0  0  0  0  0  0  0  0  0  0  0
  -24.3450   -9.5170   21.9040 C   0  0  0  0  0  3  0  0  0  0  0  0
  -23.6240   -8.3190   22.1000 C   0  0  0  0  0  3  0  0  0  0  0  0
  -22.4360   -8.0790   21.3690 C   0  0  0  0  0  0  0  0  0  0  0  0
  -22.0070   -9.0310   20.4260 C   0  0  0  0  0  3  0  0  0  0  0  0
  -22.7300  -10.2190   20.2290 C   0  0  0  0  0  3  0  0  0  0  0  0
  -21.6840   -6.9340   21.4740 O   0  0  0  0  0  0  0  0  0  0  0  0
  -21.6630   -6.1930   22.6280 C   0  0  0  0  0  0  0  0  0  0  0  0
  -21.2640   -6.7480   23.8640 C   0  0  0  0  0  3  0  0  0  0  0  0
  -21.1920   -5.9320   25.0110 C   0  0  0  0  0  3  0  0  0  0  0  0
  -21.5060   -4.5620   24.9230 C   0  0  0  0  0  0  0  0  0  0  0  0
  -21.8960   -4.0080   23.6910 C   0  0  0  0  0  3  0  0  0  0  0  0
  -21.9730   -4.8210   22.5470 C   0  0  0  0  0  0  0  0  0  0  0  0
  -22.3280   -4.2750   21.3580 F   0  0  0  0  0  0  0  0  0  0  0  0
  -21.4310   -3.7760   26.0230 F   0  0  0  0  0  0  0  0  0  0  0  0
  -22.7480  -13.5670   21.0960 C   0  0  0  0  0  0  0  0  0  0  0  0
  -22.0420  -12.8710   21.9780 N   0  0  0  0  0  0  0  0  0  0  0  0
  -22.2980  -14.5890   20.5820 O   0  0  0  0  0  0  0  0  0  0  0  0
  -22.4210  -12.0410   22.4090 H   0  0  0  0  0  0  0  0  0  0  0  0
  -21.1080  -13.1710   22.2240 H   0  0  0  0  0  0  0  0  0  0  0  0
  -25.3510  -15.2440   20.2160 N   0  0  0  0  0  0  0  0  0  0  0  0
  -24.5750  -15.8860   20.3260 H   0  0  0  0  0  0  0  0  0  0  0  0
  -26.1780  -15.6860   19.8370 H   0  0  0  0  0  0  0  0  0  0  0  0
  4  2  1  6
  4  3  1  0
  4  1  1  0
  4  5  1  0
  6  5  1  0
  7 18  2  0
  8  6  1  0
  8 13  1  0
  9 17  1  0
  9 19  1  0
 10 16  1  0
 10 12  1  0
 11 17  1  0
 12 11  1  0
 13 12  2  0
 14 15  1  0
 14  8  2  0
 15 10  2  0
 16  9  1  0
 17  7  1  0
 19 21  2  0
 20 19  1  0
 22 20  1  0
 23 32  2  0
 23 28  1  0
 24 20  1  0
 24 28  1  0
 25 24  1  0
 26 27  1  0
 26 25  1  0
 27 23  1  0
 28 29  2  0
 29 30  1  0
 31 30  2  0
 32 31  1  0
 33  7  1  0
 33 38  1  0
 33 34  1  0
 34 37  1  1
 34 35  1  0
 36 34  1  0
 38 41  1  0
 39 43  1  0
 39 38  1  0
 40 39  2  0
 43 42  1  0
 45 43  1  0
 45 46  1  0
 45 44  1  0
 47 52  1  0
 47  1  2  0
 48 52  2  0
 48 50  1  0
 49 51  2  0
 50 53  2  0
 52 49  1  0
 53 62  1  0
 53 51  1  0
 54 62  1  0
 55 60  1  0
 56 57  1  0
 56 55  1  0
 58 57  1  0
 58 67  1  0
 58 59  1  0
 60 54  1  0
 60 59  1  0
 61 54  2  0
 62 63  1  0
 64 65  2  0
 65 84  1  0
 66 65  1  0
 66 69  1  0
 67 64  1  0
 67 68  1  0
 68 66  2  0
 69 70  1  0
 70 71  2  0
 72 75  1  0
 72 71  1  0
 73 72  2  0
 74 73  1  0
 74 69  2  0
 75 76  1  0
 76 77  1  0
 77 78  2  0
 79 78  1  0
 79 83  1  0
 80 79  2  0
 81 76  2  0
 81 80  1  0
 82 81  1  0
 84 85  1  0
 85 88  1  0
 85 87  1  0
 86 84  2  0
 89 90  1  0
 89 64  1  0
 91 89  1  0
M  ISO  4   5 101   6 101  54 100  62 100
M  END
>  <TORSDO>  (49) 
F 20

>  <SCORE>  (49) 
-13.826

>  <name>  (49) 
48

>  <ligand_id>  (49) 
48

>  <original_smiles>  (49) 
[H]c1c([H])c([H])c2c(c1[H])C([H])([H])C([H])([H])C([H])([H])C2([H])N([H])C(=O)C1([H])N(C(=O)C([H])(N([H])C(=O)C([H])(N([H])C([H])([H])[H])C([H])([H])[H])C(C([H])([H])[H])(C([H])([H])[H])C([H])([H])[H])C([H])([H])c2c([H])c(OC([H])([H])C(C([H])([H])[H])(C([H])([H])[H])C([H])([H])C([H])([H])c3c([H])c([H])c(N([H])C(=O)N4C([H])([H])C([H])([H])C([H])([H])C([H])(n5nc(-c6c([H])c([H])c(Oc7c([H])c([H])c(F)c([H])c7F)c([H])c6[H])c(C(=O)N([H])[H])c5N([H])[H])C4([H])[H])c([H])c3[H])c([H])c([H])c2C1([H])[H]

>  <smiles>  (49) 
[H]c1c([H])c([H])c2c(c1[H])C([H])([H])C([H])([H])C([H])([H])C2([H])N([H])C(=O)C1([H])N(C(=O)C([H])(N([H])C(=O)C([H])(N([H])C([H])([H])[H])C([H])([H])[H])C(C([H])([H])[H])(C([H])([H])[H])C([H])([H])[H])C([H])([H])c2c([H])c(OC([H])([H])C(C([H])([H])[H])(C([H])([H])[H])C([H])([H])C([H])([H])c3c([H])c([H])c(N([H])C(=O)N4C([H])([H])C([H])([H])C([H])([H])C([H])(n5nc(-c6c([H])c([H])c(Oc7c([H])c([H])c(F)c([H])c7F)c([H])c6[H])c(C(=O)N([H])[H])c5N([H])[H])C4([H])[H])c([H])c3[H])c([H])c([H])c2C1([H])[H]

$$$$
49:0:0
     RDKit          3D

 91 99  0  0  1  0  0  0  0  0999 V2000
  -28.9850  -20.8480   20.3610 C   0  0  0  0  0  2  0  0  0  0  0  0
  -31.0410  -19.1660   19.8130 C   0  0  0  0  0  3  0  0  0  0  0  0
  -29.7660  -19.4470   20.2530 C   0  0  0  0  0  0  0  0  0  0  0  0
  -29.2750  -18.1080   20.5980 C   0  0  0  0  0  0  0  0  0  0  0  0
  -30.2800  -17.1670   20.3580 C   0  0  0  0  0  0  0  0  0  0  0  0
  -31.3710  -17.8230   19.8800 O   0  0  0  0  0  0  0  0  0  0  0  0
  -30.9220  -14.7190   19.9720 C   0  0  0  0  0  0  0  0  0  0  0  0
  -30.6240  -12.5480   18.7710 C   0  0  0  0  0  2  0  0  0  0  0  0
  -29.5960  -12.7620   17.6370 C   0  0  0  0  0  2  0  0  0  0  0  0
  -28.1580  -12.5710   18.1580 C   0  0  0  0  0  2  0  0  0  0  0  0
  -27.9000  -13.3340   19.4830 C   0  0  0  0  0  3  0  0  0  0  0  0
  -29.0350  -13.1020   20.5050 C   0  0  0  0  0  2  0  0  0  0  0  0
  -30.2960  -13.4970   19.8600 N   0  0  0  0  0  0  0  0  0  0  0  0
  -32.0580  -14.8710   19.5130 O   0  0  0  0  0  0  0  0  0  0  0  0
  -30.1810  -15.7720   20.4880 N   0  0  0  0  0  0  0  0  0  0  0  0
  -29.3420  -15.4620   20.9500 H   0  0  0  0  0  0  0  0  0  0  0  0
  -25.5470  -13.8830   20.3470 C   0  0  0  0  0  0  0  0  0  0  0  0
  -24.5130  -13.0940   20.7690 C   0  0  0  0  0  0  0  0  0  0  0  0
  -24.9890  -11.7500   20.6910 C   0  0  0  0  0  0  0  0  0  0  0  0
  -26.5880  -13.0220   20.0420 N   0  0  0  0  0  0  0  0  0  0  0  0
  -26.2620  -11.7320   20.3090 N   0  0  0  0  0  0  0  0  0  0  0  0
  -24.2900  -10.4760   20.9020 C   0  0  0  0  0  0  0  0  0  0  0  0
  -24.7360   -9.5380   21.8580 C   0  0  0  0  0  3  0  0  0  0  0  0
  -24.0320   -8.3300   22.0550 C   0  0  0  0  0  3  0  0  0  0  0  0
  -22.8710   -8.0520   21.2970 C   0  0  0  0  0  0  0  0  0  0  0  0
  -22.4450   -8.9800   20.3310 C   0  0  0  0  0  3  0  0  0  0  0  0
  -23.1480  -10.1800   20.1310 C   0  0  0  0  0  3  0  0  0  0  0  0
  -22.1400   -6.8940   21.4030 O   0  0  0  0  0  0  0  0  0  0  0  0
  -22.0340   -6.2160   22.5910 C   0  0  0  0  0  0  0  0  0  0  0  0
  -21.5170   -6.8270   23.7530 C   0  0  0  0  0  3  0  0  0  0  0  0
  -21.3600   -6.0750   24.9340 C   0  0  0  0  0  3  0  0  0  0  0  0
  -21.7120   -4.7110   24.9520 C   0  0  0  0  0  0  0  0  0  0  0  0
  -22.2220   -4.1000   23.7940 C   0  0  0  0  0  3  0  0  0  0  0  0
  -22.3800   -4.8500   22.6160 C   0  0  0  0  0  0  0  0  0  0  0  0
  -22.8530   -4.2510   21.4960 F   0  0  0  0  0  0  0  0  0  0  0  0
  -21.5540   -3.9860   26.0840 F   0  0  0  0  0  0  0  0  0  0  0  0
  -23.1290  -13.5520   21.1260 C   0  0  0  0  0  0  0  0  0  0  0  0
  -22.4740  -12.8580   22.0500 N   0  0  0  0  0  0  0  0  0  0  0  0
  -22.6390  -14.5620   20.6220 O   0  0  0  0  0  0  0  0  0  0  0  0
  -22.8840  -12.0400   22.4770 H   0  0  0  0  0  0  0  0  0  0  0  0
  -21.5490  -13.1490   22.3350 H   0  0  0  0  0  0  0  0  0  0  0  0
  -25.6790  -15.2540   20.1730 N   0  0  0  0  0  0  0  0  0  0  0  0
  -24.9040  -15.8900   20.3280 H   0  0  0  0  0  0  0  0  0  0  0  0
  -26.4890  -15.7060   19.7700 H   0  0  0  0  0  0  0  0  0  0  0  0
  -26.8210  -17.7730   20.0400 C   0  0  0  0  0  1  0  0  0  0  0  0
  -27.8950  -17.7990   21.1340 C   0  0  0  0  0  2  0  0  0  0  0  0
  -30.9750  -22.4820   20.0360 C   0  0  0  0  0  1  0  0  0  0  0  0
  -29.4750  -22.2740   19.7590 C   0  0  0  0  0  3  0  0  0  0  0  0
  -28.6740  -23.6190   20.2190 C   0  0  0  0  0  2  0  0  0  0  0  0
  -28.8260  -25.0170   19.4110 C   0  0  0  0  0  2  0  0  0  0  0  0
  -28.7310  -26.3650   20.0640 O   0  0  0  0  0  0  0  0  0  0  0  0
  -25.0270  -31.6210   23.3740 C   0  0  0  0  0  0  0  0  0  0  0  0
  -27.6140  -27.2270   20.0200 C   0  0  0  0  0  0  0  0  0  0  0  0
  -23.8360  -30.3930   21.5930 C   0  0  0  0  0  3  0  0  0  0  0  0
  -25.2870  -28.9170   20.0820 C   0  0  0  0  0  0  0  0  0  0  0  0
  -26.3880  -30.6470   21.5050 C   0  0  0  0  0  2  0  0  0  0  0  0
  -26.4500  -29.3220   20.7470 C   0  0  0  0  0  0  0  0  0  0  0  0
  -27.6100  -28.4880   20.7070 C   0  0  0  0  0  3  0  0  0  0  0  0
  -26.4250  -26.8790   19.3430 C   0  0  0  0  0  3  0  0  0  0  0  0
  -25.2790  -27.7040   19.3730 C   0  0  0  0  0  3  0  0  0  0  0  0
  -24.0720  -29.8210   20.1690 C   0  0  0  0  0  2  0  0  0  0  0  0
  -25.1020  -30.9010   22.2150 N   0  0  0  0  0  0  0  0  0  0  0  0
  -23.9360  -31.8840   23.9000 O   0  0  0  0  0  0  0  0  0  0  0  0
  -23.1210  -29.3230   22.4520 C   0  0  0  0  0  0  0  0  0  0  0  0
  -21.7910  -29.2020   22.2880 N   0  0  0  0  0  0  0  0  0  0  0  0
  -23.7610  -28.6060   23.2270 O   0  0  0  0  0  0  0  0  0  0  0  0
  -21.3360  -29.8330   21.6450 H   0  0  0  0  0  0  0  0  0  0  0  0
  -18.3640  -28.0980   22.6390 C   0  0  0  0  0  0  0  0  0  0  0  0
  -20.9270  -28.2290   22.9580 C   0  0  0  0  0  3  0  0  0  0  0  0
  -20.9810  -26.8540   22.2520 C   0  0  0  0  0  2  0  0  0  0  0  0
  -19.8820  -26.6730   21.2010 C   0  0  0  0  0  2  0  0  0  0  0  0
  -18.4980  -26.8110   21.8410 C   0  0  0  0  0  2  0  0  0  0  0  0
  -19.5060  -28.7720   23.1500 C   0  0  0  0  0  0  0  0  0  0  0  0
  -19.3280  -29.9810   23.8560 C   0  0  0  0  0  3  0  0  0  0  0  0
  -18.0410  -30.5160   24.0550 C   0  0  0  0  0  3  0  0  0  0  0  0
  -16.9140  -29.8360   23.5610 C   0  0  0  0  0  3  0  0  0  0  0  0
  -17.0760  -28.6290   22.8590 C   0  0  0  0  0  3  0  0  0  0  0  0
  -26.3070  -32.1680   24.0800 C   0  0  0  0  0  3  0  0  0  0  0  0
  -26.0020  -33.5210   24.5680 N   0  0  0  0  0  0  0  0  0  0  0  0
  -26.3450  -34.6530   23.9390 C   0  0  0  0  0  0  0  0  0  0  0  0
  -27.0190  -34.6650   22.9050 O   0  0  0  0  0  0  0  0  0  0  0  0
  -25.4050  -33.5860   25.3790 H   0  0  0  0  0  0  0  0  0  0  0  0
  -24.6250  -36.4850   23.7940 C   0  0  0  0  0  1  0  0  0  0  0  0
  -25.8640  -35.9830   24.5540 C   0  0  0  0  0  3  0  0  0  0  0  0
  -27.9990  -36.7580   25.4880 C   0  0  0  0  0  1  0  0  0  0  0  0
  -26.9020  -37.0360   24.5650 N   0  0  0  0  0  0  0  0  0  0  0  0
  -26.4990  -37.9360   24.8140 H   0  0  0  0  0  0  0  0  0  0  0  0
  -26.8000  -31.2500   25.2680 C   0  0  1  0  0  0  0  0  0  0  0  0
  -25.6910  -30.8940   26.2840 C   0  0  0  0  0  1  0  0  0  0  0  0
  -27.3860  -29.9260   24.7270 C   0  0  0  0  0  1  0  0  0  0  0  0
  -27.9440  -31.9570   26.0340 C   0  0  0  0  0  1  0  0  0  0  0  0
  2  6  1  0
  2  3  2  0
  3  1  1  0
  3  4  1  0
  4 46  1  0
  5 15  1  0
  5  4  2  0
  6  5  1  0
  7 15  1  0
  8 13  1  0
  9 10  1  0
  9  8  1  0
 11 10  1  0
 11 20  1  0
 11 12  1  0
 13  7  1  0
 13 12  1  0
 14  7  2  0
 15 16  1  0
 17 18  2  0
 18 37  1  0
 19 18  1  0
 19 22  1  0
 20 21  1  0
 20 17  1  0
 21 19  2  0
 22 23  1  0
 23 24  2  0
 25 28  1  0
 25 24  1  0
 26 25  2  0
 27 26  1  0
 27 22  2  0
 28 29  1  0
 29 34  2  0
 29 30  1  0
 30 31  2  0
 31 32  1  0
 32 36  1  0
 33 32  2  0
 34 33  1  0
 35 34  1  0
 37 38  1  0
 38 41  1  0
 38 40  1  0
 39 37  2  0
 42 43  1  0
 42 17  1  0
 44 42  1  0
 45 46  1  0
 48 47  1  0
 48 49  1  0
 48  1  1  0
 50 51  1  0
 50 49  1  0
 52 63  2  0
 53 51  1  0
 53 58  1  0
 54 62  1  0
 54 64  1  0
 55 61  1  0
 55 57  1  0
 56 62  1  0
 57 56  1  0
 58 57  2  0
 59 60  1  0
 59 53  2  0
 60 55  2  0
 61 54  1  0
 62 52  1  0
 64 66  2  0
 65 64  1  0
 67 65  1  0
 68 77  2  0
 68 73  1  0
 69 65  1  0
 69 73  1  0
 70 69  1  0
 71 72  1  0
 71 70  1  0
 72 68  1  0
 73 74  2  0
 74 75  1  0
 76 75  2  0
 77 76  1  0
 78 52  1  0
 78 79  1  0
 78 88  1  0
 79 82  1  0
 80 84  1  0
 80 79  1  0
 81 80  2  0
 84 83  1  0
 84 86  1  0
 86 87  1  0
 86 85  1  0
 88 91  1  1
 88 89  1  0
 90 88  1  0
M  ISO  4   7 100  15 100  50 101  51 101
M  END
>  <TORSDO>  (50) 
F 21

>  <SCORE>  (50) 
-11.280

>  <name>  (50) 
49

>  <ligand_id>  (50) 
49

>  <original_smiles>  (50) 
[H]c1oc(N([H])C(=O)N2C([H])([H])C([H])([H])C([H])([H])C([H])(n3nc(-c4c([H])c([H])c(Oc5c([H])c([H])c(F)c([H])c5F)c([H])c4[H])c(C(=O)N([H])[H])c3N([H])[H])C2([H])[H])c(C([H])([H])C([H])([H])[H])c1C([H])([H])C([H])(C([H])([H])[H])C([H])([H])C([H])([H])Oc1c([H])c([H])c2c(c1[H])C([H])([H])N(C(=O)C([H])(N([H])C(=O)C([H])(N([H])C([H])([H])[H])C([H])([H])[H])C(C([H])([H])[H])(C([H])([H])[H])C([H])([H])[H])C([H])(C(=O)N([H])C1([H])c3c([H])c([H])c([H])c([H])c3C([H])([H])C([H])([H])C1([H])[H])C2([H])[H]

>  <smiles>  (50) 
[H]c1oc(N([H])C(=O)N2C([H])([H])C([H])([H])C([H])([H])C([H])(n3nc(-c4c([H])c([H])c(Oc5c([H])c([H])c(F)c([H])c5F)c([H])c4[H])c(C(=O)N([H])[H])c3N([H])[H])C2([H])[H])c(C([H])([H])C([H])([H])[H])c1C([H])([H])C([H])(C([H])([H])[H])C([H])([H])C([H])([H])Oc1c([H])c([H])c2c(c1[H])C([H])([H])N(C(=O)C([H])(N([H])C(=O)C([H])(N([H])C([H])([H])[H])C([H])([H])[H])C(C([H])([H])[H])(C([H])([H])[H])C([H])([H])[H])C([H])(C(=O)N([H])C1([H])c3c([H])c([H])c([H])c([H])c3C([H])([H])C([H])([H])C1([H])[H])C2([H])[H]

$$$$
50:0:0
     RDKit          3D

 92100  0  0  1  0  0  0  0  0999 V2000
  -31.4940  -18.1830   21.2820 C   0  0  0  0  0  3  0  0  0  0  0  0
  -32.1490  -19.3910   21.5890 C   0  0  0  0  0  3  0  0  0  0  0  0
  -29.6640  -19.4640   20.3210 C   0  0  0  0  0  3  0  0  0  0  0  0
  -30.2460  -18.1950   20.6380 C   0  0  0  0  0  0  0  0  0  0  0  0
  -31.5810  -20.6420   21.2530 C   0  0  0  0  0  0  0  0  0  0  0  0
  -30.3070  -20.7040   20.6290 C   0  0  0  0  0  0  0  0  0  0  0  0
  -32.4160  -21.8880   21.4990 C   0  0  0  0  0  1  0  0  0  0  0  0
  -29.5780  -16.8720   20.1900 C   0  0  0  0  0  2  0  0  0  0  0  0
  -30.6010  -14.5680   20.4510 C   0  0  0  0  0  0  0  0  0  0  0  0
  -30.3650  -12.3720   19.3470 C   0  0  0  0  0  2  0  0  0  0  0  0
  -29.4170  -12.5510   18.1370 C   0  0  0  0  0  2  0  0  0  0  0  0
  -27.9430  -12.3930   18.5670 C   0  0  0  0  0  2  0  0  0  0  0  0
  -27.5960  -13.2320   19.8270 C   0  0  0  0  0  3  0  0  0  0  0  0
  -28.6570  -13.0250   20.9370 C   0  0  0  0  0  2  0  0  0  0  0  0
  -29.9790  -13.3530   20.3780 N   0  0  0  0  0  0  0  0  0  0  0  0
  -31.7120  -14.7690   19.9530 O   0  0  0  0  0  0  0  0  0  0  0  0
  -29.8360  -15.5900   20.9080 N   0  0  0  0  0  0  0  0  0  0  0  0
  -29.0500  -15.2750   21.4550 H   0  0  0  0  0  0  0  0  0  0  0  0
  -25.1920  -13.8250   20.5360 C   0  0  0  0  0  0  0  0  0  0  0  0
  -24.1280  -13.0460   20.9090 C   0  0  0  0  0  0  0  0  0  0  0  0
  -24.5970  -11.6980   20.8780 C   0  0  0  0  0  0  0  0  0  0  0  0
  -26.2420  -12.9490   20.3020 N   0  0  0  0  0  0  0  0  0  0  0  0
  -25.8870  -11.6650   20.5650 N   0  0  0  0  0  0  0  0  0  0  0  0
  -23.8790  -10.4300   21.0680 C   0  0  0  0  0  0  0  0  0  0  0  0
  -24.3260   -9.4590   21.9900 C   0  0  0  0  0  3  0  0  0  0  0  0
  -23.6070   -8.2580   22.1710 C   0  0  0  0  0  3  0  0  0  0  0  0
  -22.4270   -8.0180   21.4270 C   0  0  0  0  0  0  0  0  0  0  0  0
  -21.9970   -8.9780   20.4940 C   0  0  0  0  0  3  0  0  0  0  0  0
  -22.7190  -10.1690   20.3130 C   0  0  0  0  0  3  0  0  0  0  0  0
  -21.6820   -6.8660   21.5140 O   0  0  0  0  0  0  0  0  0  0  0  0
  -21.6530   -6.1120   22.6600 C   0  0  0  0  0  0  0  0  0  0  0  0
  -21.2450   -6.6520   23.8980 C   0  0  0  0  0  3  0  0  0  0  0  0
  -21.1670   -5.8240   25.0360 C   0  0  0  0  0  3  0  0  0  0  0  0
  -21.4890   -4.4570   24.9370 C   0  0  0  0  0  0  0  0  0  0  0  0
  -21.8930   -3.9170   23.7020 C   0  0  0  0  0  3  0  0  0  0  0  0
  -21.9720   -4.7430   22.5680 C   0  0  0  0  0  0  0  0  0  0  0  0
  -22.3420   -4.2140   21.3760 F   0  0  0  0  0  0  0  0  0  0  0  0
  -21.4070   -3.6600   26.0270 F   0  0  0  0  0  0  0  0  0  0  0  0
  -22.7260  -13.5170   21.1840 C   0  0  0  0  0  0  0  0  0  0  0  0
  -22.0000  -12.8170   22.0450 N   0  0  0  0  0  0  0  0  0  0  0  0
  -22.2820  -14.5410   20.6660 O   0  0  0  0  0  0  0  0  0  0  0  0
  -22.3720  -11.9900   22.4930 H   0  0  0  0  0  0  0  0  0  0  0  0
  -21.0640  -13.1210   22.2740 H   0  0  0  0  0  0  0  0  0  0  0  0
  -25.3490  -15.1940   20.3560 N   0  0  0  0  0  0  0  0  0  0  0  0
  -24.5850  -15.8500   20.4740 H   0  0  0  0  0  0  0  0  0  0  0  0
  -26.1900  -15.6330   20.0050 H   0  0  0  0  0  0  0  0  0  0  0  0
  -29.7580  -21.9060   20.1720 O   0  0  0  0  0  0  0  0  0  0  0  0
  -29.3580  -22.9300   21.1180 C   0  0  0  0  0  2  0  0  0  0  0  0
  -30.5630  -25.1790   21.5110 C   0  0  0  0  0  1  0  0  0  0  0  0
  -29.5530  -24.4210   20.6250 C   0  0  0  0  0  3  0  0  0  0  0  0
  -28.2190  -25.2380   20.5570 C   0  0  0  0  0  2  0  0  0  0  0  0
  -28.3760  -26.6450   20.2290 O   0  0  0  0  0  0  0  0  0  0  0  0
  -24.5560  -31.9000   23.2340 C   0  0  0  0  0  0  0  0  0  0  0  0
  -27.2170  -27.4070   20.2070 C   0  0  0  0  0  0  0  0  0  0  0  0
  -23.3610  -30.4920   21.5890 C   0  0  0  0  0  3  0  0  0  0  0  0
  -24.8240  -28.9420   20.1840 C   0  0  0  0  0  0  0  0  0  0  0  0
  -25.8930  -30.8390   21.4080 C   0  0  0  0  0  2  0  0  0  0  0  0
  -25.9820  -29.4610   20.7780 C   0  0  0  0  0  0  0  0  0  0  0  0
  -27.1820  -28.7070   20.7810 C   0  0  0  0  0  3  0  0  0  0  0  0
  -26.0410  -26.9190   19.5960 C   0  0  0  0  0  3  0  0  0  0  0  0
  -24.8530  -27.6720   19.5850 C   0  0  0  0  0  3  0  0  0  0  0  0
  -23.5800  -29.8020   20.2160 C   0  0  0  0  0  2  0  0  0  0  0  0
  -24.6210  -31.0930   22.1350 N   0  0  0  0  0  0  0  0  0  0  0  0
  -23.4710  -32.1790   23.7620 O   0  0  0  0  0  0  0  0  0  0  0  0
  -22.6940  -29.4810   22.5490 C   0  0  0  0  0  0  0  0  0  0  0  0
  -21.3680  -29.3130   22.4190 N   0  0  0  0  0  0  0  0  0  0  0  0
  -23.3670  -28.8500   23.3680 O   0  0  0  0  0  0  0  0  0  0  0  0
  -20.8840  -29.8770   21.7350 H   0  0  0  0  0  0  0  0  0  0  0  0
  -17.9780  -28.1580   22.9170 C   0  0  0  0  0  0  0  0  0  0  0  0
  -20.5390  -28.3820   23.1850 C   0  0  0  0  0  3  0  0  0  0  0  0
  -20.6200  -26.9500   22.6030 C   0  0  0  0  0  2  0  0  0  0  0  0
  -19.5130  -26.6490   21.5880 C   0  0  0  0  0  2  0  0  0  0  0  0
  -18.1340  -26.8100   22.2350 C   0  0  0  0  0  2  0  0  0  0  0  0
  -19.1080  -28.9040   23.3480 C   0  0  0  0  0  0  0  0  0  0  0  0
  -18.9080  -30.1690   23.9450 C   0  0  0  0  0  3  0  0  0  0  0  0
  -17.6100  -30.6900   24.1090 C   0  0  0  0  0  3  0  0  0  0  0  0
  -16.4950  -29.9420   23.6930 C   0  0  0  0  0  3  0  0  0  0  0  0
  -16.6800  -28.6760   23.1060 C   0  0  0  0  0  3  0  0  0  0  0  0
  -25.8390  -32.5270   23.8630 C   0  0  0  0  0  3  0  0  0  0  0  0
  -25.5340  -33.9290   24.1820 N   0  0  0  0  0  0  0  0  0  0  0  0
  -25.8910  -34.9760   23.4250 C   0  0  0  0  0  0  0  0  0  0  0  0
  -26.5780  -34.8620   22.4070 O   0  0  0  0  0  0  0  0  0  0  0  0
  -24.9200  -34.0910   24.9680 H   0  0  0  0  0  0  0  0  0  0  0  0
  -24.1890  -36.7850   23.0220 C   0  0  0  0  0  1  0  0  0  0  0  0
  -25.4060  -36.3710   23.8650 C   0  0  0  0  0  3  0  0  0  0  0  0
  -27.5310  -37.2360   24.7400 C   0  0  0  0  0  1  0  0  0  0  0  0
  -26.4510  -37.4120   23.7730 N   0  0  0  0  0  0  0  0  0  0  0  0
  -26.0520  -38.3370   23.9100 H   0  0  0  0  0  0  0  0  0  0  0  0
  -26.3430  -31.7580   25.1470 C   0  0  1  0  0  0  0  0  0  0  0  0
  -25.2410  -31.5330   26.2100 C   0  0  0  0  0  1  0  0  0  0  0  0
  -26.9170  -30.3740   24.7610 C   0  0  0  0  0  1  0  0  0  0  0  0
  -27.4920  -32.5490   25.8120 C   0  0  0  0  0  1  0  0  0  0  0  0
  1  2  1  0
  3  6  2  0
  3  4  1  0
  4  1  2  0
  5  7  1  0
  5  2  2  0
  6  5  1  0
  8  4  1  0
  8 17  1  0
  9 17  1  0
 10 15  1  0
 11 12  1  0
 11 10  1  0
 13 12  1  0
 13 22  1  0
 13 14  1  0
 15  9  1  0
 15 14  1  0
 16  9  2  0
 17 18  1  0
 19 20  2  0
 20 39  1  0
 21 20  1  0
 21 24  1  0
 22 19  1  0
 22 23  1  0
 23 21  2  0
 24 25  1  0
 25 26  2  0
 27 30  1  0
 27 26  1  0
 28 27  2  0
 29 28  1  0
 29 24  2  0
 30 31  1  0
 31 32  1  0
 32 33  2  0
 34 33  1  0
 34 38  1  0
 35 34  2  0
 36 31  2  0
 36 35  1  0
 37 36  1  0
 39 40  1  0
 40 43  1  0
 40 42  1  0
 41 39  2  0
 44 45  1  0
 44 19  1  0
 46 44  1  0
 47  6  1  0
 47 48  1  0
 50 48  1  0
 50 49  1  0
 51 50  1  0
 52 51  1  0
 53 64  2  0
 54 52  1  0
 54 59  1  0
 55 63  1  0
 55 65  1  0
 56 62  1  0
 56 58  1  0
 57 63  1  0
 58 59  2  0
 58 57  1  0
 60 54  2  0
 61 60  1  0
 61 56  2  0
 62 55  1  0
 63 53  1  0
 65 67  2  0
 66 65  1  0
 68 66  1  0
 69 78  2  0
 69 74  1  0
 70 66  1  0
 70 74  1  0
 71 70  1  0
 72 73  1  0
 72 71  1  0
 73 69  1  0
 74 75  2  0
 75 76  1  0
 77 76  2  0
 78 77  1  0
 79 53  1  0
 79 80  1  0
 79 89  1  0
 80 83  1  0
 81 85  1  0
 81 80  1  0
 82 81  2  0
 85 84  1  0
 87 85  1  0
 87 88  1  0
 87 86  1  0
 89 92  1  1
 89 90  1  0
 91 89  1  0
M  ISO  4   9 100  17 100  51 101  52 101
M  END
>  <TORSDO>  (51) 
F 21

>  <SCORE>  (51) 
-13.559

>  <name>  (51) 
50

>  <ligand_id>  (51) 
50

>  <original_smiles>  (51) 
[H]c1c([H])c([H])c2c(c1[H])C([H])([H])C([H])([H])C([H])([H])C2([H])N([H])C(=O)C1([H])N(C(=O)C([H])(N([H])C(=O)C([H])(N([H])C([H])([H])[H])C([H])([H])[H])C(C([H])([H])[H])(C([H])([H])[H])C([H])([H])[H])C([H])([H])c2c([H])c(OC([H])([H])C([H])(C([H])([H])[H])C([H])([H])Oc3c([H])c(C([H])([H])N([H])C(=O)N4C([H])([H])C([H])([H])C([H])([H])C([H])(n5nc(-c6c([H])c([H])c(Oc7c([H])c([H])c(F)c([H])c7F)c([H])c6[H])c(C(=O)N([H])[H])c5N([H])[H])C4([H])[H])c([H])c([H])c3C([H])([H])[H])c([H])c([H])c2C1([H])[H]

>  <smiles>  (51) 
[H]c1c([H])c([H])c2c(c1[H])C([H])([H])C([H])([H])C([H])([H])C2([H])N([H])C(=O)C1([H])N(C(=O)C([H])(N([H])C(=O)C([H])(N([H])C([H])([H])[H])C([H])([H])[H])C(C([H])([H])[H])(C([H])([H])[H])C([H])([H])[H])C([H])([H])c2c([H])c(OC([H])([H])C([H])(C([H])([H])[H])C([H])([H])Oc3c([H])c(C([H])([H])N([H])C(=O)N4C([H])([H])C([H])([H])C([H])([H])C([H])(n5nc(-c6c([H])c([H])c(Oc7c([H])c([H])c(F)c([H])c7F)c([H])c6[H])c(C(=O)N([H])[H])c5N([H])[H])C4([H])[H])c([H])c([H])c3C([H])([H])[H])c([H])c([H])c2C1([H])[H]

$$$$
51:0:0
     RDKit          3D

 91 99  0  0  1  0  0  0  0  0999 V2000
  -29.3920  -21.8360   19.7160 C   0  0  0  0  0  2  0  0  0  0  0  0
  -30.0450  -20.3250   21.7400 C   0  0  0  0  0  3  0  0  0  0  0  0
  -30.4900  -19.1450   22.3800 C   0  0  0  0  0  3  0  0  0  0  0  0
  -29.7110  -18.9780   19.7520 C   0  0  0  0  0  3  0  0  0  0  0  0
  -29.6430  -20.3350   20.3940 C   0  0  0  0  0  0  0  0  0  0  0  0
  -30.5650  -17.8780   21.7440 C   0  0  0  0  0  0  0  0  0  0  0  0
  -30.1800  -17.7000   20.3860 C   0  0  0  0  0  0  0  0  0  0  0  0
  -31.0180  -16.6980   22.5910 C   0  0  0  0  0  1  0  0  0  0  0  0
  -30.8770  -15.0400   19.9200 C   0  0  0  0  0  0  0  0  0  0  0  0
  -30.6740  -12.6870   18.9570 C   0  0  0  0  0  2  0  0  0  0  0  0
  -29.6810  -12.6390   17.7720 C   0  0  0  0  0  2  0  0  0  0  0  0
  -28.2330  -12.4690   18.2740 C   0  0  0  0  0  2  0  0  0  0  0  0
  -27.9000  -13.4140   19.4570 C   0  0  0  0  0  3  0  0  0  0  0  0
  -29.0050  -13.4030   20.5320 C   0  0  0  0  0  2  0  0  0  0  0  0
  -30.2460  -13.7970   19.8520 N   0  0  0  0  0  0  0  0  0  0  0  0
  -32.0960  -15.0530   19.7120 O   0  0  0  0  0  0  0  0  0  0  0  0
  -30.0970  -16.2450   19.8620 N   0  0  0  0  0  0  0  0  0  0  0  0
  -29.1560  -16.0130   19.5870 H   0  0  0  0  0  0  0  0  0  0  0  0
  -25.5800  -14.0770   20.3070 C   0  0  0  0  0  0  0  0  0  0  0  0
  -24.5040  -13.3400   20.7140 C   0  0  0  0  0  0  0  0  0  0  0  0
  -24.9170  -11.9720   20.6560 C   0  0  0  0  0  0  0  0  0  0  0  0
  -26.5780  -13.1610   20.0160 N   0  0  0  0  0  0  0  0  0  0  0  0
  -26.1910  -11.8900   20.2940 N   0  0  0  0  0  0  0  0  0  0  0  0
  -24.1500  -10.7370   20.8640 C   0  0  0  0  0  0  0  0  0  0  0  0
  -24.5560   -9.7670   21.8060 C   0  0  0  0  0  3  0  0  0  0  0  0
  -23.7900   -8.5970   22.0030 C   0  0  0  0  0  3  0  0  0  0  0  0
  -22.6060   -8.3900   21.2560 C   0  0  0  0  0  0  0  0  0  0  0  0
  -22.2200   -9.3480   20.3020 C   0  0  0  0  0  3  0  0  0  0  0  0
  -22.9860  -10.5090   20.1040 C   0  0  0  0  0  3  0  0  0  0  0  0
  -21.8130   -7.2720   21.3610 O   0  0  0  0  0  0  0  0  0  0  0  0
  -21.7050   -6.5750   22.5380 C   0  0  0  0  0  0  0  0  0  0  0  0
  -21.2750   -7.1910   23.7330 C   0  0  0  0  0  3  0  0  0  0  0  0
  -21.1120   -6.4220   24.9020 C   0  0  0  0  0  3  0  0  0  0  0  0
  -21.3690   -5.0380   24.8770 C   0  0  0  0  0  0  0  0  0  0  0  0
  -21.7920   -4.4220   23.6860 C   0  0  0  0  0  3  0  0  0  0  0  0
  -21.9570   -5.1890   22.5200 C   0  0  0  0  0  0  0  0  0  0  0  0
  -22.3440   -4.5850   21.3700 F   0  0  0  0  0  0  0  0  0  0  0  0
  -21.2050   -4.2980   25.9980 F   0  0  0  0  0  0  0  0  0  0  0  0
  -23.1370  -13.8670   21.0380 C   0  0  0  0  0  0  0  0  0  0  0  0
  -22.4220  -13.2010   21.9380 N   0  0  0  0  0  0  0  0  0  0  0  0
  -22.7150  -14.9050   20.5290 O   0  0  0  0  0  0  0  0  0  0  0  0
  -22.7770  -12.3620   22.3690 H   0  0  0  0  0  0  0  0  0  0  0  0
  -21.5070  -13.5390   22.2010 H   0  0  0  0  0  0  0  0  0  0  0  0
  -25.7860  -15.4430   20.1320 N   0  0  0  0  0  0  0  0  0  0  0  0
  -25.0450  -16.1190   20.2830 H   0  0  0  0  0  0  0  0  0  0  0  0
  -26.6270  -15.8600   19.7570 H   0  0  0  0  0  0  0  0  0  0  0  0
  -28.2820  -23.1120   20.0190 C   0  0  0  0  0  2  0  0  0  0  0  0
  -27.4820  -24.6420   21.9620 C   0  0  0  0  0  1  0  0  0  0  0  0
  -29.8820  -24.6750   21.3070 C   0  0  0  0  0  1  0  0  0  0  0  0
  -28.4470  -24.6430   20.7610 C   0  0  1  0  0  0  0  0  0  0  0  0
  -28.3650  -26.1040   20.1670 O   0  0  0  0  0  0  0  0  0  0  0  0
  -24.6200  -31.7940   23.1370 C   0  0  0  0  0  0  0  0  0  0  0  0
  -27.2670  -27.0470   20.1970 C   0  0  0  0  0  0  0  0  0  0  0  0
  -23.4550  -30.3770   21.4920 C   0  0  0  0  0  3  0  0  0  0  0  0
  -24.9320  -28.7860   20.1130 C   0  0  0  0  0  0  0  0  0  0  0  0
  -26.0100  -30.6500   21.3630 C   0  0  0  0  0  2  0  0  0  0  0  0
  -26.1010  -29.2470   20.7300 C   0  0  0  0  0  0  0  0  0  0  0  0
  -27.2730  -28.3970   20.7450 C   0  0  0  0  0  3  0  0  0  0  0  0
  -26.0700  -26.6840   19.5500 C   0  0  0  0  0  3  0  0  0  0  0  0
  -24.9290  -27.5170   19.5070 C   0  0  0  0  0  3  0  0  0  0  0  0
  -23.7010  -29.6840   20.1260 C   0  0  0  0  0  2  0  0  0  0  0  0
  -24.7150  -30.9640   22.0530 N   0  0  0  0  0  0  0  0  0  0  0  0
  -23.5250  -32.0770   23.6470 O   0  0  0  0  0  0  0  0  0  0  0  0
  -22.7650  -29.3770   22.4530 C   0  0  0  0  0  0  0  0  0  0  0  0
  -21.4390  -29.2020   22.3110 N   0  0  0  0  0  0  0  0  0  0  0  0
  -23.4270  -28.7590   23.2920 O   0  0  0  0  0  0  0  0  0  0  0  0
  -20.9620  -29.7520   21.6110 H   0  0  0  0  0  0  0  0  0  0  0  0
  -18.0600  -27.9720   22.7570 C   0  0  0  0  0  0  0  0  0  0  0  0
  -20.6100  -28.2670   23.0770 C   0  0  0  0  0  3  0  0  0  0  0  0
  -20.7390  -26.8280   22.5260 C   0  0  0  0  0  2  0  0  0  0  0  0
  -19.6630  -26.4790   21.4930 C   0  0  0  0  0  2  0  0  0  0  0  0
  -18.2670  -26.6160   22.1040 C   0  0  0  0  0  2  0  0  0  0  0  0
  -19.1610  -28.7540   23.2000 C   0  0  0  0  0  0  0  0  0  0  0  0
  -18.9140  -30.0210   23.7720 C   0  0  0  0  0  3  0  0  0  0  0  0
  -17.5990  -30.5070   23.9050 C   0  0  0  0  0  3  0  0  0  0  0  0
  -16.5130  -29.7240   23.4770 C   0  0  0  0  0  3  0  0  0  0  0  0
  -16.7440  -28.4580   22.9100 C   0  0  0  0  0  3  0  0  0  0  0  0
  -25.8840  -32.4430   23.7800 C   0  0  0  0  0  3  0  0  0  0  0  0
  -26.3950  -31.6710   25.0590 C   0  0  1  0  0  0  0  0  0  0  0  0
  -25.2930  -31.4160   26.1150 C   0  0  0  0  0  1  0  0  0  0  0  0
  -26.9990  -30.3020   24.6700 C   0  0  0  0  0  1  0  0  0  0  0  0
  -27.5290  -32.4760   25.7380 C   0  0  0  0  0  1  0  0  0  0  0  0
  -25.5490  -33.8340   24.1250 N   0  0  0  0  0  0  0  0  0  0  0  0
  -25.8770  -34.9050   23.3890 C   0  0  0  0  0  0  0  0  0  0  0  0
  -26.5590  -34.8260   22.3640 O   0  0  0  0  0  0  0  0  0  0  0  0
  -24.9410  -33.9680   24.9200 H   0  0  0  0  0  0  0  0  0  0  0  0
  -24.1280  -36.6840   23.0520 C   0  0  0  0  0  1  0  0  0  0  0  0
  -25.3690  -36.2810   23.8650 C   0  0  0  0  0  3  0  0  0  0  0  0
  -27.4880  -37.1810   24.7190 C   0  0  0  0  0  1  0  0  0  0  0  0
  -26.3890  -37.3490   23.7730 N   0  0  0  0  0  0  0  0  0  0  0  0
  -25.9700  -38.2610   23.9330 H   0  0  0  0  0  0  0  0  0  0  0  0
  1 47  1  0
  1  5  1  0
  2  3  1  0
  4  7  2  0
  4  5  1  0
  5  2  2  0
  6  3  2  0
  6  8  1  0
  7  6  1  0
 10 15  1  0
 11 12  1  0
 11 10  1  0
 13 12  1  0
 13 22  1  0
 13 14  1  0
 15  9  1  0
 15 14  1  0
 16  9  2  0
 17  9  1  0
 17  7  1  0
 18 17  1  0
 19 20  2  0
 20 39  1  0
 21 20  1  0
 21 24  1  0
 22 23  1  0
 22 19  1  0
 23 21  2  0
 24 25  1  0
 25 26  2  0
 27 30  1  0
 27 26  1  0
 28 27  2  0
 29 28  1  0
 29 24  2  0
 30 31  1  0
 31 32  1  0
 32 33  2  0
 34 33  1  0
 34 38  1  0
 35 34  2  0
 36 31  2  0
 36 35  1  0
 37 36  1  0
 39 40  1  0
 40 43  1  0
 40 42  1  0
 41 39  2  0
 44 45  1  0
 44 19  1  0
 46 44  1  0
 47 50  1  0
 50 49  1  1
 50 48  1  0
 51 53  1  0
 51 50  1  0
 52 63  2  0
 53 58  1  0
 54 62  1  0
 54 64  1  0
 55 61  1  0
 55 57  1  0
 56 62  1  0
 57 58  2  0
 57 56  1  0
 59 53  2  0
 60 59  1  0
 60 55  2  0
 61 54  1  0
 62 52  1  0
 64 66  2  0
 65 64  1  0
 67 65  1  0
 68 77  2  0
 68 73  1  0
 69 65  1  0
 69 73  1  0
 70 69  1  0
 71 72  1  0
 71 70  1  0
 72 68  1  0
 73 74  2  0
 74 75  1  0
 76 75  2  0
 77 76  1  0
 78 52  1  0
 78 83  1  0
 78 79  1  0
 79 82  1  1
 79 80  1  0
 81 79  1  0
 83 86  1  0
 84 88  1  0
 84 83  1  0
 85 84  2  0
 88 87  1  0
 90 88  1  0
 90 91  1  0
 90 89  1  0
M  ISO  4   9 100  17 100  50 101  51 101
M  END
>  <TORSDO>  (52) 
F 19

>  <SCORE>  (52) 
-14.415

>  <name>  (52) 
51

>  <ligand_id>  (52) 
51

>  <original_smiles>  (52) 
[H]c1c([H])c([H])c2c(c1[H])C([H])([H])C([H])([H])C([H])([H])C2([H])N([H])C(=O)C1([H])N(C(=O)C([H])(N([H])C(=O)C([H])(N([H])C([H])([H])[H])C([H])([H])[H])C(C([H])([H])[H])(C([H])([H])[H])C([H])([H])[H])C([H])([H])c2c([H])c(OC(C([H])([H])[H])(C([H])([H])[H])C([H])([H])C([H])([H])c3c([H])c([H])c(C([H])([H])[H])c(N([H])C(=O)N4C([H])([H])C([H])([H])C([H])([H])C([H])(n5nc(-c6c([H])c([H])c(Oc7c([H])c([H])c(F)c([H])c7F)c([H])c6[H])c(C(=O)N([H])[H])c5N([H])[H])C4([H])[H])c3[H])c([H])c([H])c2C1([H])[H]

>  <smiles>  (52) 
[H]c1c([H])c([H])c2c(c1[H])C([H])([H])C([H])([H])C([H])([H])C2([H])N([H])C(=O)C1([H])N(C(=O)C([H])(N([H])C(=O)C([H])(N([H])C([H])([H])[H])C([H])([H])[H])C(C([H])([H])[H])(C([H])([H])[H])C([H])([H])[H])C([H])([H])c2c([H])c(OC(C([H])([H])[H])(C([H])([H])[H])C([H])([H])C([H])([H])c3c([H])c([H])c(C([H])([H])[H])c(N([H])C(=O)N4C([H])([H])C([H])([H])C([H])([H])C([H])(n5nc(-c6c([H])c([H])c(Oc7c([H])c([H])c(F)c([H])c7F)c([H])c6[H])c(C(=O)N([H])[H])c5N([H])[H])C4([H])[H])c3[H])c([H])c([H])c2C1([H])[H]

$$$$
52:0:0
     RDKit          3D

 93101  0  0  1  0  0  0  0  0999 V2000
  -30.7910  -21.3840   21.0120 C   0  0  0  0  0  2  0  0  0  0  0  0
  -30.6460  -19.1870   19.7480 C   0  0  0  0  0  3  0  0  0  0  0  0
  -30.6010  -17.7790   19.6760 C   0  0  0  0  0  3  0  0  0  0  0  0
  -30.5580  -17.6710   22.1000 C   0  0  0  0  0  3  0  0  0  0  0  0
  -30.6600  -19.8570   20.9930 C   0  0  0  0  0  0  0  0  0  0  0  0
  -30.6030  -19.0820   22.1810 C   0  0  0  0  0  0  0  0  0  0  0  0
  -30.5710  -17.0000   20.8570 C   0  0  0  0  0  0  0  0  0  0  0  0
  -31.1320  -14.6530   20.1210 C   0  0  0  0  0  0  0  0  0  0  0  0
  -30.7890  -12.5170   18.9310 C   0  0  0  0  0  2  0  0  0  0  0  0
  -29.7820  -12.7410   17.7840 C   0  0  0  0  0  2  0  0  0  0  0  0
  -28.3310  -12.6000   18.2850 C   0  0  0  0  0  2  0  0  0  0  0  0
  -28.0640  -13.4180   19.5780 C   0  0  0  0  0  3  0  0  0  0  0  0
  -29.1690  -13.1510   20.6240 C   0  0  0  0  0  2  0  0  0  0  0  0
  -30.4710  -13.4690   20.0060 N   0  0  0  0  0  0  0  0  0  0  0  0
  -32.1990  -14.8790   19.5390 O   0  0  0  0  0  0  0  0  0  0  0  0
  -30.5010  -15.5720   20.8790 N   0  0  0  0  0  0  0  0  0  0  0  0
  -29.7460  -15.1880   21.4260 H   0  0  0  0  0  0  0  0  0  0  0  0
  -25.7160  -14.0350   20.4400 C   0  0  0  0  0  0  0  0  0  0  0  0
  -24.6580  -13.2640   20.8400 C   0  0  0  0  0  0  0  0  0  0  0  0
  -25.0930  -11.9080   20.7300 C   0  0  0  0  0  0  0  0  0  0  0  0
  -26.7320  -13.1470   20.1170 N   0  0  0  0  0  0  0  0  0  0  0  0
  -26.3630  -11.8610   20.3470 N   0  0  0  0  0  0  0  0  0  0  0  0
  -24.3600  -10.6490   20.9140 C   0  0  0  0  0  0  0  0  0  0  0  0
  -24.7400   -9.7090   21.8970 C   0  0  0  0  0  3  0  0  0  0  0  0
  -24.0090   -8.5130   22.0650 C   0  0  0  0  0  3  0  0  0  0  0  0
  -22.8820   -8.2500   21.2490 C   0  0  0  0  0  0  0  0  0  0  0  0
  -22.5210   -9.1790   20.2580 C   0  0  0  0  0  3  0  0  0  0  0  0
  -23.2530  -10.3650   20.0870 C   0  0  0  0  0  3  0  0  0  0  0  0
  -22.1270   -7.1040   21.3240 O   0  0  0  0  0  0  0  0  0  0  0  0
  -21.8770   -6.4840   22.5220 C   0  0  0  0  0  0  0  0  0  0  0  0
  -21.2380   -7.1540   23.5890 C   0  0  0  0  0  3  0  0  0  0  0  0
  -20.9380   -6.4580   24.7780 C   0  0  0  0  0  3  0  0  0  0  0  0
  -21.2660   -5.0940   24.8980 C   0  0  0  0  0  0  0  0  0  0  0  0
  -21.8970   -4.4240   23.8340 C   0  0  0  0  0  3  0  0  0  0  0  0
  -22.1980   -5.1180   22.6480 C   0  0  0  0  0  0  0  0  0  0  0  0
  -22.7880   -4.4630   21.6190 F   0  0  0  0  0  0  0  0  0  0  0  0
  -20.9710   -4.4220   26.0350 F   0  0  0  0  0  0  0  0  0  0  0  0
  -23.2860  -13.7490   21.2130 C   0  0  0  0  0  0  0  0  0  0  0  0
  -22.6090  -13.0440   22.1110 N   0  0  0  0  0  0  0  0  0  0  0  0
  -22.8260  -14.7880   20.7410 O   0  0  0  0  0  0  0  0  0  0  0  0
  -22.9940  -12.2030   22.5150 H   0  0  0  0  0  0  0  0  0  0  0  0
  -21.6910  -13.3490   22.4010 H   0  0  0  0  0  0  0  0  0  0  0  0
  -25.8940  -15.4080   20.3080 N   0  0  0  0  0  0  0  0  0  0  0  0
  -25.1480  -16.0710   20.4900 H   0  0  0  0  0  0  0  0  0  0  0  0
  -26.7390  -15.8470   19.9640 H   0  0  0  0  0  0  0  0  0  0  0  0
  -32.0310  -20.0090   24.0630 C   0  0  0  0  0  1  0  0  0  0  0  0
  -30.6100  -19.7240   23.5630 C   0  0  0  0  0  2  0  0  0  0  0  0
  -29.5380  -22.1470   20.5170 C   0  0  0  0  0  2  0  0  0  0  0  0
  -29.6840  -23.6800   20.5470 C   0  0  0  0  0  0  0  0  0  0  0  0
  -30.6660  -24.2240   21.0640 O   0  0  0  0  0  0  0  0  0  0  0  0
  -28.5520  -24.5070   19.9170 C   0  0  0  0  0  2  0  0  0  0  0  0
  -28.9820  -25.8680   19.3080 C   0  0  0  0  0  2  0  0  0  0  0  0
  -28.7790  -27.0030   20.1610 O   0  0  0  0  0  0  0  0  0  0  0  0
  -24.7440  -31.9450   23.3160 C   0  0  0  0  0  0  0  0  0  0  0  0
  -27.5560  -27.6490   20.1630 C   0  0  0  0  0  0  0  0  0  0  0  0
  -23.5910  -30.5270   21.6490 C   0  0  0  0  0  3  0  0  0  0  0  0
  -25.1000  -29.0630   20.2060 C   0  0  0  0  0  0  0  0  0  0  0  0
  -26.1030  -30.9750   21.4650 C   0  0  0  0  0  2  0  0  0  0  0  0
  -26.2360  -29.6170   20.8070 C   0  0  0  0  0  0  0  0  0  0  0  0
  -27.4610  -28.9130   20.7910 C   0  0  0  0  0  3  0  0  0  0  0  0
  -26.3930  -27.1020   19.5700 C   0  0  0  0  0  3  0  0  0  0  0  0
  -25.1730  -27.8020   19.5900 C   0  0  0  0  0  3  0  0  0  0  0  0
  -23.8270  -29.8760   20.2600 C   0  0  0  0  0  2  0  0  0  0  0  0
  -24.8300  -31.1640   22.2020 N   0  0  0  0  0  0  0  0  0  0  0  0
  -23.6540  -32.1700   23.8580 O   0  0  0  0  0  0  0  0  0  0  0  0
  -22.9760  -29.4670   22.5920 C   0  0  0  0  0  0  0  0  0  0  0  0
  -21.6730  -29.1930   22.4150 N   0  0  0  0  0  0  0  0  0  0  0  0
  -23.6700  -28.8950   23.4370 O   0  0  0  0  0  0  0  0  0  0  0  0
  -21.1730  -29.7100   21.7060 H   0  0  0  0  0  0  0  0  0  0  0  0
  -18.3860  -27.7360   22.7550 C   0  0  0  0  0  0  0  0  0  0  0  0
  -20.8950  -28.2070   23.1630 C   0  0  0  0  0  3  0  0  0  0  0  0
  -21.1450  -26.7780   22.6270 C   0  0  0  0  0  2  0  0  0  0  0  0
  -20.1340  -26.3490   21.5600 C   0  0  0  0  0  2  0  0  0  0  0  0
  -18.7090  -26.3940   22.1210 C   0  0  0  0  0  2  0  0  0  0  0  0
  -19.4130  -28.5940   23.2300 C   0  0  0  0  0  0  0  0  0  0  0  0
  -19.0610  -29.8470   23.7770 C   0  0  0  0  0  3  0  0  0  0  0  0
  -17.7130  -30.2440   23.8570 C   0  0  0  0  0  3  0  0  0  0  0  0
  -16.6990  -29.3840   23.4000 C   0  0  0  0  0  3  0  0  0  0  0  0
  -17.0360  -28.1320   22.8550 C   0  0  0  0  0  3  0  0  0  0  0  0
  -26.0070  -32.6110   23.9470 C   0  0  0  0  0  3  0  0  0  0  0  0
  -25.6620  -34.0050   24.2590 N   0  0  0  0  0  0  0  0  0  0  0  0
  -25.9760  -35.0550   23.4890 C   0  0  0  0  0  0  0  0  0  0  0  0
  -26.6580  -34.9560   22.4650 O   0  0  0  0  0  0  0  0  0  0  0  0
  -25.0570  -34.1550   25.0520 H   0  0  0  0  0  0  0  0  0  0  0  0
  -24.2010  -36.7920   23.1030 C   0  0  0  0  0  1  0  0  0  0  0  0
  -25.4490  -36.4360   23.9230 C   0  0  0  0  0  3  0  0  0  0  0  0
  -27.5580  -37.3900   24.7440 C   0  0  0  0  0  1  0  0  0  0  0  0
  -26.4520  -37.5160   23.7970 N   0  0  0  0  0  0  0  0  0  0  0  0
  -26.0220  -38.4260   23.9340 H   0  0  0  0  0  0  0  0  0  0  0  0
  -26.5250  -31.8640   25.2370 C   0  0  1  0  0  0  0  0  0  0  0  0
  -25.4200  -31.5930   26.2840 C   0  0  0  0  0  1  0  0  0  0  0  0
  -27.1650  -30.5070   24.8610 C   0  0  0  0  0  1  0  0  0  0  0  0
  -27.6340  -32.7020   25.9180 C   0  0  0  0  0  1  0  0  0  0  0  0
  2  5  1  0
  3  2  2  0
  3  7  1  0
  4  6  1  0
  5  1  1  0
  5  6  2  0
  6 47  1  0
  7 16  1  0
  7  4  2  0
  8 16  1  0
  9 14  1  0
 10 11  1  0
 10  9  1  0
 12 11  1  0
 12 21  1  0
 12 13  1  0
 14  8  1  0
 14 13  1  0
 15  8  2  0
 16 17  1  0
 18 19  2  0
 19 38  1  0
 20 19  1  0
 20 23  1  0
 21 22  1  0
 21 18  1  0
 22 20  2  0
 23 24  1  0
 24 25  2  0
 26 29  1  0
 26 25  1  0
 27 26  2  0
 28 27  1  0
 28 23  2  0
 29 30  1  0
 30 35  2  0
 30 31  1  0
 31 32  2  0
 32 33  1  0
 33 37  1  0
 34 33  2  0
 35 34  1  0
 36 35  1  0
 38 39  1  0
 39 42  1  0
 39 41  1  0
 40 38  2  0
 43 18  1  0
 43 44  1  0
 45 43  1  0
 47 46  1  0
 48 49  1  0
 48  1  1  0
 49 50  2  0
 51 49  1  0
 52 51  1  0
 52 53  1  0
 53 55  1  0
 54 65  2  0
 55 60  1  0
 56 64  1  0
 56 66  1  0
 57 63  1  0
 57 59  1  0
 58 64  1  0
 59 58  1  0
 60 59  2  0
 61 62  1  0
 61 55  2  0
 62 57  2  0
 63 56  1  0
 64 54  1  0
 66 68  2  0
 67 66  1  0
 69 67  1  0
 70 79  2  0
 70 75  1  0
 71 67  1  0
 71 75  1  0
 72 71  1  0
 73 74  1  0
 73 72  1  0
 74 70  1  0
 75 76  2  0
 76 77  1  0
 78 77  2  0
 79 78  1  0
 80 54  1  0
 80 81  1  0
 80 90  1  0
 81 84  1  0
 82 86  1  0
 82 81  1  0
 83 82  2  0
 86 85  1  0
 88 86  1  0
 88 89  1  0
 88 87  1  0
 90 93  1  1
 90 91  1  0
 92 90  1  0
M  ISO  4   8 100  16 100  52 101  53 101
M  END
>  <TORSDO>  (53) 
F 22

>  <SCORE>  (53) 
-11.606

>  <name>  (53) 
52

>  <ligand_id>  (53) 
52

>  <original_smiles>  (53) 
[H]c1c([H])c([H])c2c(c1[H])C([H])([H])C([H])([H])C([H])([H])C2([H])N([H])C(=O)C1([H])N(C(=O)C([H])(N([H])C(=O)C([H])(N([H])C([H])([H])[H])C([H])([H])[H])C(C([H])([H])[H])(C([H])([H])[H])C([H])([H])[H])C([H])([H])c2c([H])c(OC([H])([H])C([H])([H])C(=O)C([H])([H])C([H])([H])c3c([H])c([H])c(N([H])C(=O)N4C([H])([H])C([H])([H])C([H])([H])C([H])(n5nc(-c6c([H])c([H])c(Oc7c([H])c([H])c(F)c([H])c7F)c([H])c6[H])c(C(=O)N([H])[H])c5N([H])[H])C4([H])[H])c([H])c3C([H])([H])C([H])([H])[H])c([H])c([H])c2C1([H])[H]

>  <smiles>  (53) 
[H]c1c([H])c([H])c2c(c1[H])C([H])([H])C([H])([H])C([H])([H])C2([H])N([H])C(=O)C1([H])N(C(=O)C([H])(N([H])C(=O)C([H])(N([H])C([H])([H])[H])C([H])([H])[H])C(C([H])([H])[H])(C([H])([H])[H])C([H])([H])[H])C([H])([H])c2c([H])c(OC([H])([H])C([H])([H])C(=O)C([H])([H])C([H])([H])c3c([H])c([H])c(N([H])C(=O)N4C([H])([H])C([H])([H])C([H])([H])C([H])(n5nc(-c6c([H])c([H])c(Oc7c([H])c([H])c(F)c([H])c7F)c([H])c6[H])c(C(=O)N([H])[H])c5N([H])[H])C4([H])[H])c([H])c3C([H])([H])C([H])([H])[H])c([H])c([H])c2C1([H])[H]

$$$$
53:0:0
     RDKit          3D

 97105  0  0  1  0  0  0  0  0999 V2000
  -29.2880  -19.3470   20.7950 C   0  0  0  0  0  3  0  0  0  0  0  0
  -31.4840  -17.7930   20.0150 C   0  0  0  0  0  3  0  0  0  0  0  0
  -29.2080  -17.9250   20.8030 C   0  0  0  0  0  0  0  0  0  0  0  0
  -30.4670  -20.0300   20.4150 C   0  0  0  0  0  0  0  0  0  0  0  0
  -30.3080  -17.1060   20.4110 C   0  0  0  0  0  0  0  0  0  0  0  0
  -31.5750  -19.2210   20.0320 C   0  0  0  0  0  0  0  0  0  0  0  0
  -27.9130  -17.2880   21.2710 C   0  0  0  0  0  1  0  0  0  0  0  0
  -30.8470  -14.6320   19.8290 C   0  0  0  0  0  0  0  0  0  0  0  0
  -30.4660  -12.4910   18.6260 C   0  0  0  0  0  2  0  0  0  0  0  0
  -29.4180  -12.7290   17.5160 C   0  0  0  0  0  2  0  0  0  0  0  0
  -27.9860  -12.5720   18.0670 C   0  0  0  0  0  2  0  0  0  0  0  0
  -27.7660  -13.3490   19.3910 C   0  0  0  0  0  3  0  0  0  0  0  0
  -28.9170  -13.0880   20.3900 C   0  0  0  0  0  2  0  0  0  0  0  0
  -30.1820  -13.4380   19.7220 N   0  0  0  0  0  0  0  0  0  0  0  0
  -31.9510  -14.7980   19.3020 O   0  0  0  0  0  0  0  0  0  0  0  0
  -30.1550  -15.6480   20.4260 N   0  0  0  0  0  0  0  0  0  0  0  0
  -29.3120  -15.3260   20.8740 H   0  0  0  0  0  0  0  0  0  0  0  0
  -25.4420  -13.9330   20.3240 C   0  0  0  0  0  0  0  0  0  0  0  0
  -24.4060  -13.1540   20.7630 C   0  0  0  0  0  0  0  0  0  0  0  0
  -24.8510  -11.8030   20.6370 C   0  0  0  0  0  0  0  0  0  0  0  0
  -26.4580  -13.0580   19.9750 N   0  0  0  0  0  0  0  0  0  0  0  0
  -26.1090  -11.7680   20.2170 N   0  0  0  0  0  0  0  0  0  0  0  0
  -24.1280  -10.5390   20.8340 C   0  0  0  0  0  0  0  0  0  0  0  0
  -24.5500   -9.5870   21.7870 C   0  0  0  0  0  3  0  0  0  0  0  0
  -23.8270   -8.3900   21.9710 C   0  0  0  0  0  3  0  0  0  0  0  0
  -22.6680   -8.1350   21.2020 C   0  0  0  0  0  0  0  0  0  0  0  0
  -22.2640   -9.0750   20.2380 C   0  0  0  0  0  3  0  0  0  0  0  0
  -22.9870  -10.2650   20.0530 C   0  0  0  0  0  3  0  0  0  0  0  0
  -21.9170   -6.9880   21.2950 O   0  0  0  0  0  0  0  0  0  0  0  0
  -21.7370   -6.3410   22.4900 C   0  0  0  0  0  0  0  0  0  0  0  0
  -21.1290   -6.9750   23.5950 C   0  0  0  0  0  3  0  0  0  0  0  0
  -20.9010   -6.2520   24.7840 C   0  0  0  0  0  3  0  0  0  0  0  0
  -21.2690   -4.8960   24.8650 C   0  0  0  0  0  0  0  0  0  0  0  0
  -21.8700   -4.2620   23.7630 C   0  0  0  0  0  3  0  0  0  0  0  0
  -22.1000   -4.9820   22.5780 C   0  0  0  0  0  0  0  0  0  0  0  0
  -22.6590   -4.3610   21.5110 F   0  0  0  0  0  0  0  0  0  0  0  0
  -21.0430   -4.1980   26.0020 F   0  0  0  0  0  0  0  0  0  0  0  0
  -23.0440  -13.6310   21.1750 C   0  0  0  0  0  0  0  0  0  0  0  0
  -22.3950  -12.9150   22.0860 N   0  0  0  0  0  0  0  0  0  0  0  0
  -22.5670  -14.6730   20.7260 O   0  0  0  0  0  0  0  0  0  0  0  0
  -22.7940  -12.0710   22.4690 H   0  0  0  0  0  0  0  0  0  0  0  0
  -21.4840  -13.2150   22.4060 H   0  0  0  0  0  0  0  0  0  0  0  0
  -25.5930  -15.3060   20.1670 N   0  0  0  0  0  0  0  0  0  0  0  0
  -24.8170  -15.9420   20.3110 H   0  0  0  0  0  0  0  0  0  0  0  0
  -26.3620  -15.7300   19.6640 H   0  0  0  0  0  0  0  0  0  0  0  0
  -30.6160  -21.5810   20.6030 C   0  0  0  0  0  3  0  0  0  0  0  0
  -29.5220  -22.6030   20.0760 C   0  0  0  0  0  3  0  0  0  0  0  0
  -31.0370  -24.6300   19.6400 C   0  0  0  0  0  1  0  0  0  0  0  0
  -29.9350  -24.3680   21.8860 C   0  0  0  0  0  1  0  0  0  0  0  0
  -29.7600  -24.1640   20.3680 C   0  0  2  0  0  0  0  0  0  0  0  0
  -28.5690  -25.1020   19.8930 C   0  0  0  0  0  2  0  0  0  0  0  0
  -28.6830  -26.5450   20.1750 O   0  0  0  0  0  0  0  0  0  0  0  0
  -24.7250  -31.6640   23.3090 C   0  0  0  0  0  0  0  0  0  0  0  0
  -27.5220  -27.3280   20.1300 C   0  0  0  0  0  0  0  0  0  0  0  0
  -23.5890  -30.3070   21.5870 C   0  0  0  0  0  3  0  0  0  0  0  0
  -25.1050  -28.8530   20.1330 C   0  0  0  0  0  0  0  0  0  0  0  0
  -26.1180  -30.7060   21.4650 C   0  0  0  0  0  2  0  0  0  0  0  0
  -26.2460  -29.3570   20.7710 C   0  0  0  0  0  0  0  0  0  0  0  0
  -27.4550  -28.6060   20.7570 C   0  0  0  0  0  3  0  0  0  0  0  0
  -26.3540  -26.8660   19.4770 C   0  0  0  0  0  3  0  0  0  0  0  0
  -25.1600  -27.6120   19.4790 C   0  0  0  0  0  3  0  0  0  0  0  0
  -23.8460  -29.6910   20.1870 C   0  0  0  0  0  2  0  0  0  0  0  0
  -24.8280  -30.9070   22.1780 N   0  0  0  0  0  0  0  0  0  0  0  0
  -23.6260  -31.8930   23.8330 O   0  0  0  0  0  0  0  0  0  0  0  0
  -22.9340  -29.2370   22.4930 C   0  0  0  0  0  0  0  0  0  0  0  0
  -21.6220  -29.0100   22.3100 N   0  0  0  0  0  0  0  0  0  0  0  0
  -23.6070  -28.6150   23.3200 O   0  0  0  0  0  0  0  0  0  0  0  0
  -21.1360  -29.5700   21.6230 H   0  0  0  0  0  0  0  0  0  0  0  0
  -18.2780  -27.6770   22.6450 C   0  0  0  0  0  0  0  0  0  0  0  0
  -20.8130  -28.0170   23.0200 C   0  0  0  0  0  3  0  0  0  0  0  0
  -20.9880  -26.6090   22.4050 C   0  0  0  0  0  2  0  0  0  0  0  0
  -19.9360  -26.2800   21.3410 C   0  0  0  0  0  2  0  0  0  0  0  0
  -18.5280  -26.3580   21.9360 C   0  0  0  0  0  2  0  0  0  0  0  0
  -19.3510  -28.4630   23.1410 C   0  0  0  0  0  0  0  0  0  0  0  0
  -19.0640  -29.7000   23.7590 C   0  0  0  0  0  3  0  0  0  0  0  0
  -17.7370  -30.1490   23.8890 C   0  0  0  0  0  3  0  0  0  0  0  0
  -16.6770  -29.3580   23.4100 C   0  0  0  0  0  3  0  0  0  0  0  0
  -16.9490  -28.1250   22.7920 C   0  0  0  0  0  3  0  0  0  0  0  0
  -25.9810  -32.3000   23.9830 C   0  0  0  0  0  3  0  0  0  0  0  0
  -25.6590  -33.7020   24.2840 N   0  0  0  0  0  0  0  0  0  0  0  0
  -26.0020  -34.7430   23.5150 C   0  0  0  0  0  0  0  0  0  0  0  0
  -26.6890  -34.6250   22.4970 O   0  0  0  0  0  0  0  0  0  0  0  0
  -25.0470  -33.8670   25.0700 H   0  0  0  0  0  0  0  0  0  0  0  0
  -24.2580  -36.5100   23.1240 C   0  0  0  0  0  1  0  0  0  0  0  0
  -25.5040  -36.1370   23.9430 C   0  0  0  0  0  3  0  0  0  0  0  0
  -27.6250  -37.0680   24.7550 C   0  0  0  0  0  1  0  0  0  0  0  0
  -26.5250  -37.1960   23.8010 N   0  0  0  0  0  0  0  0  0  0  0  0
  -26.1110  -38.1160   23.9190 H   0  0  0  0  0  0  0  0  0  0  0  0
  -26.4320  -31.5400   25.2890 C   0  0  1  0  0  0  0  0  0  0  0  0
  -25.2880  -31.3060   26.3030 C   0  0  0  0  0  1  0  0  0  0  0  0
  -27.0370  -30.1620   24.9330 C   0  0  0  0  0  1  0  0  0  0  0  0
  -27.5450  -32.3420   26.0020 C   0  0  0  0  0  1  0  0  0  0  0  0
  -32.7450  -19.8600   19.6980 O   0  0  0  0  0  0  0  0  0  0  0  0
  -33.9460  -19.3050   20.2220 C   0  0  0  0  0  2  0  0  0  0  0  0
  -36.2290  -19.9900   21.1090 C   0  0  0  0  0  1  0  0  0  0  0  0
  -35.4200  -20.8970   18.8900 C   0  0  0  0  0  1  0  0  0  0  0  0
  -35.0030  -20.4220   20.2920 C   0  0  0  0  0  3  0  0  0  0  0  0
  1  3  1  0
  2  6  2  0
  2  5  1  0
  3  7  1  0
  4 46  1  0
  4  1  2  0
  5 16  1  0
  5  3  2  0
  6  4  1  0
  8 16  1  0
  9 14  1  0
 10 11  1  0
 10  9  1  0
 12 11  1  0
 12 21  1  0
 12 13  1  0
 14  8  1  0
 14 13  1  0
 15  8  2  0
 16 17  1  0
 18 19  2  0
 19 38  1  0
 20 19  1  0
 20 23  1  0
 21 22  1  0
 21 18  1  0
 22 20  2  0
 23 24  1  0
 24 25  2  0
 26 29  1  0
 26 25  1  0
 27 26  2  0
 28 27  1  0
 28 23  2  0
 29 30  1  0
 30 35  2  0
 30 31  1  0
 31 32  2  0
 32 33  1  0
 33 37  1  0
 34 33  2  0
 35 34  1  0
 36 35  1  0
 38 39  1  0
 39 42  1  0
 39 41  1  0
 40 38  2  0
 43 44  1  0
 43 18  1  0
 45 43  1  0
 47 50  1  0
 47 46  2  0
 50 48  1  6
 50 49  1  0
 51 52  1  0
 51 50  1  0
 53 64  2  0
 54 52  1  0
 54 59  1  0
 55 63  1  0
 55 65  1  0
 56 62  1  0
 56 58  1  0
 57 63  1  0
 58 57  1  0
 59 58  2  0
 60 61  1  0
 60 54  2  0
 61 56  2  0
 62 55  1  0
 63 53  1  0
 65 67  2  0
 66 65  1  0
 68 66  1  0
 69 78  2  0
 69 74  1  0
 70 66  1  0
 70 74  1  0
 71 70  1  0
 72 73  1  0
 72 71  1  0
 73 69  1  0
 74 75  2  0
 75 76  1  0
 77 76  2  0
 78 77  1  0
 79 53  1  0
 79 80  1  0
 79 89  1  0
 80 83  1  0
 81 85  1  0
 81 80  1  0
 82 81  2  0
 85 84  1  0
 87 88  1  0
 87 85  1  0
 87 86  1  0
 89 92  1  1
 89 90  1  0
 91 89  1  0
 93  6  1  0
 93 94  1  0
 94 97  1  0
 96 97  1  0
 97 95  1  0
M  ISO  4   8 100  16 100  51 101  52 101
M  END
>  <TORSDO>  (54) 
F 23

>  <SCORE>  (54) 
-11.120

>  <name>  (54) 
53

>  <ligand_id>  (54) 
53

>  <original_smiles>  (54) 
[H]c1c([H])c([H])c2c(c1[H])C([H])([H])C([H])([H])C([H])([H])C2([H])N([H])C(=O)C1([H])N(C(=O)C([H])(N([H])C(=O)C([H])(N([H])C([H])([H])[H])C([H])([H])[H])C(C([H])([H])[H])(C([H])([H])[H])C([H])([H])[H])C([H])([H])c2c([H])c(OC([H])([H])C(C([H])([H])[H])(C([H])([H])[H])C([H])([H])C([H])([H])c3c([H])c(C([H])([H])[H])c(N([H])C(=O)N4C([H])([H])C([H])([H])C([H])([H])C([H])(n5nc(-c6c([H])c([H])c(Oc7c([H])c([H])c(F)c([H])c7F)c([H])c6[H])c(C(=O)N([H])[H])c5N([H])[H])C4([H])[H])c([H])c3OC([H])([H])C([H])(C([H])([H])[H])C([H])([H])[H])c([H])c([H])c2C1([H])[H]

>  <smiles>  (54) 
[H]c1c([H])c([H])c2c(c1[H])C([H])([H])C([H])([H])C([H])([H])C2([H])N([H])C(=O)C1([H])N(C(=O)C([H])(N([H])C(=O)C([H])(N([H])C([H])([H])[H])C([H])([H])[H])C(C([H])([H])[H])(C([H])([H])[H])C([H])([H])[H])C([H])([H])c2c([H])c(OC([H])([H])C(C([H])([H])[H])(C([H])([H])[H])C([H])([H])C([H])([H])c3c([H])c(C([H])([H])[H])c(N([H])C(=O)N4C([H])([H])C([H])([H])C([H])([H])C([H])(n5nc(-c6c([H])c([H])c(Oc7c([H])c([H])c(F)c([H])c7F)c([H])c6[H])c(C(=O)N([H])[H])c5N([H])[H])C4([H])[H])c([H])c3OC([H])([H])C([H])(C([H])([H])[H])C([H])([H])[H])c([H])c([H])c2C1([H])[H]

$$$$
54:0:0
     RDKit          3D

 91 99  0  0  1  0  0  0  0  0999 V2000
  -28.9250  -22.3980   20.0330 C   0  0  0  0  0  3  0  0  0  0  0  0
  -30.5340  -24.3390   20.4920 C   0  0  0  0  0  1  0  0  0  0  0  0
  -28.6840  -23.8630   22.1280 C   0  0  0  0  0  1  0  0  0  0  0  0
  -29.0670  -23.8930   20.6360 C   0  0  2  0  0  0  0  0  0  0  0  0
  -28.1520  -25.0060   19.9260 C   0  0  0  0  0  2  0  0  0  0  0  0
  -28.3170  -26.4560   20.2430 O   0  0  0  0  0  0  0  0  0  0  0  0
  -24.5960  -31.8730   23.2450 C   0  0  0  0  0  0  0  0  0  0  0  0
  -27.2060  -27.3200   20.1640 C   0  0  0  0  0  0  0  0  0  0  0  0
  -23.3980  -30.4880   21.5930 C   0  0  0  0  0  3  0  0  0  0  0  0
  -24.8480  -28.9500   20.1560 C   0  0  0  0  0  0  0  0  0  0  0  0
  -25.9410  -30.7950   21.4260 C   0  0  0  0  0  2  0  0  0  0  0  0
  -26.0160  -29.4240   20.7670 C   0  0  0  0  0  0  0  0  0  0  0  0
  -27.1960  -28.6200   20.7640 C   0  0  0  0  0  3  0  0  0  0  0  0
  -26.0200  -26.9170   19.5080 C   0  0  0  0  0  3  0  0  0  0  0  0
  -24.8560  -27.7030   19.5140 C   0  0  0  0  0  3  0  0  0  0  0  0
  -23.6150  -29.8250   20.2080 C   0  0  0  0  0  2  0  0  0  0  0  0
  -24.6630  -31.0710   22.1430 N   0  0  0  0  0  0  0  0  0  0  0  0
  -23.5110  -32.1510   23.7750 O   0  0  0  0  0  0  0  0  0  0  0  0
  -22.7310  -29.4630   22.5440 C   0  0  0  0  0  0  0  0  0  0  0  0
  -21.4070  -29.2820   22.4060 N   0  0  0  0  0  0  0  0  0  0  0  0
  -23.4050  -28.8370   23.3660 O   0  0  0  0  0  0  0  0  0  0  0  0
  -20.9240  -29.8410   21.7170 H   0  0  0  0  0  0  0  0  0  0  0  0
  -18.0280  -28.0680   22.8660 C   0  0  0  0  0  0  0  0  0  0  0  0
  -20.5820  -28.3410   23.1670 C   0  0  0  0  0  3  0  0  0  0  0  0
  -20.6980  -26.9100   22.5930 C   0  0  0  0  0  2  0  0  0  0  0  0
  -19.6100  -26.5810   21.5660 C   0  0  0  0  0  2  0  0  0  0  0  0
  -18.2190  -26.7190   22.1920 C   0  0  0  0  0  2  0  0  0  0  0  0
  -19.1380  -28.8350   23.3090 C   0  0  0  0  0  0  0  0  0  0  0  0
  -18.9050  -30.0970   23.9000 C   0  0  0  0  0  3  0  0  0  0  0  0
  -17.5950  -30.5900   24.0510 C   0  0  0  0  0  3  0  0  0  0  0  0
  -16.5000  -29.8210   23.6230 C   0  0  0  0  0  3  0  0  0  0  0  0
  -16.7170  -28.5600   23.0380 C   0  0  0  0  0  3  0  0  0  0  0  0
  -25.8780  -32.4980   23.8770 C   0  0  0  0  0  3  0  0  0  0  0  0
  -26.3820  -31.7250   25.1580 C   0  0  1  0  0  0  0  0  0  0  0  0
  -25.2790  -31.4980   26.2190 C   0  0  0  0  0  1  0  0  0  0  0  0
  -26.9590  -30.3430   24.7740 C   0  0  0  0  0  1  0  0  0  0  0  0
  -27.5340  -32.5140   25.8250 C   0  0  0  0  0  1  0  0  0  0  0  0
  -25.5710  -33.8970   24.2070 N   0  0  0  0  0  0  0  0  0  0  0  0
  -25.9080  -34.9500   23.4510 C   0  0  0  0  0  0  0  0  0  0  0  0
  -26.5790  -34.8460   22.4200 O   0  0  0  0  0  0  0  0  0  0  0  0
  -24.9720  -34.0520   25.0050 H   0  0  0  0  0  0  0  0  0  0  0  0
  -24.1840  -36.7480   23.1030 C   0  0  0  0  0  1  0  0  0  0  0  0
  -25.4260  -36.3400   23.9110 C   0  0  0  0  0  3  0  0  0  0  0  0
  -27.5650  -37.2180   24.7370 C   0  0  0  0  0  1  0  0  0  0  0  0
  -26.4610  -37.3900   23.7950 N   0  0  0  0  0  0  0  0  0  0  0  0
  -26.0580  -38.3110   23.9450 H   0  0  0  0  0  0  0  0  0  0  0  0
  -29.5360  -21.1160   20.8060 C   0  0  0  0  0  3  0  0  0  0  0  0
  -30.2540  -18.4820   18.0310 C   0  0  0  0  0  3  0  0  0  0  0  0
  -30.0020  -19.6930   18.7030 C   0  0  0  0  0  3  0  0  0  0  0  0
  -30.2480  -17.2500   18.7120 C   0  0  0  0  0  3  0  0  0  0  0  0
  -29.6910  -18.4320   20.7630 C   0  0  0  0  0  3  0  0  0  0  0  0
  -29.7140  -19.7160   20.0840 C   0  0  0  0  0  0  0  0  0  0  0  0
  -29.9740  -17.1750   20.0970 C   0  0  0  0  0  0  0  0  0  0  0  0
  -30.6250  -14.7070   20.3880 C   0  0  0  0  0  0  0  0  0  0  0  0
  -30.3850  -12.4500   19.3800 C   0  0  0  0  0  2  0  0  0  0  0  0
  -29.4680  -12.5640   18.1430 C   0  0  0  0  0  2  0  0  0  0  0  0
  -27.9900  -12.4100   18.5530 C   0  0  0  0  0  2  0  0  0  0  0  0
  -27.6150  -13.2920   19.7750 C   0  0  0  0  0  3  0  0  0  0  0  0
  -28.6590  -13.1810   20.9110 C   0  0  0  0  0  2  0  0  0  0  0  0
  -29.9760  -13.4970   20.3410 N   0  0  0  0  0  0  0  0  0  0  0  0
  -31.7950  -14.8000   20.0020 O   0  0  0  0  0  0  0  0  0  0  0  0
  -29.9090  -15.8390   20.7230 N   0  0  0  0  0  0  0  0  0  0  0  0
  -29.0820  -15.6690   21.2760 H   0  0  0  0  0  0  0  0  0  0  0  0
  -25.2170  -13.8940   20.4680 C   0  0  0  0  0  0  0  0  0  0  0  0
  -24.1440  -13.1260   20.8330 C   0  0  0  0  0  0  0  0  0  0  0  0
  -24.6050  -11.7730   20.8200 C   0  0  0  0  0  0  0  0  0  0  0  0
  -26.2620  -13.0120   20.2490 N   0  0  0  0  0  0  0  0  0  0  0  0
  -25.8990  -11.7310   20.5240 N   0  0  0  0  0  0  0  0  0  0  0  0
  -23.8730  -10.5140   21.0160 C   0  0  0  0  0  0  0  0  0  0  0  0
  -24.2980   -9.5510   21.9590 C   0  0  0  0  0  3  0  0  0  0  0  0
  -23.5660   -8.3580   22.1420 C   0  0  0  0  0  3  0  0  0  0  0  0
  -22.3950   -8.1190   21.3840 C   0  0  0  0  0  0  0  0  0  0  0  0
  -21.9890   -9.0700   20.4320 C   0  0  0  0  0  3  0  0  0  0  0  0
  -22.7210  -10.2550   20.2470 C   0  0  0  0  0  3  0  0  0  0  0  0
  -21.6390   -6.9750   21.4750 O   0  0  0  0  0  0  0  0  0  0  0  0
  -21.5870   -6.2360   22.6280 C   0  0  0  0  0  0  0  0  0  0  0  0
  -21.1680   -6.7970   23.8550 C   0  0  0  0  0  3  0  0  0  0  0  0
  -21.0610   -5.9860   25.0020 C   0  0  0  0  0  3  0  0  0  0  0  0
  -21.3650   -4.6130   24.9240 C   0  0  0  0  0  0  0  0  0  0  0  0
  -21.7780   -4.0510   23.7030 C   0  0  0  0  0  3  0  0  0  0  0  0
  -21.8860   -4.8600   22.5580 C   0  0  0  0  0  0  0  0  0  0  0  0
  -22.2640   -4.3090   21.3790 F   0  0  0  0  0  0  0  0  0  0  0  0
  -21.2550   -3.8310   26.0240 F   0  0  0  0  0  0  0  0  0  0  0  0
  -22.7460  -13.6100   21.0850 C   0  0  0  0  0  0  0  0  0  0  0  0
  -22.0070  -12.9270   21.9520 N   0  0  0  0  0  0  0  0  0  0  0  0
  -22.3160  -14.6300   20.5460 O   0  0  0  0  0  0  0  0  0  0  0  0
  -22.3670  -12.1040   22.4140 H   0  0  0  0  0  0  0  0  0  0  0  0
  -21.0660  -13.2330   22.1580 H   0  0  0  0  0  0  0  0  0  0  0  0
  -25.3850  -15.2630   20.2800 N   0  0  0  0  0  0  0  0  0  0  0  0
  -24.6150  -15.9160   20.3680 H   0  0  0  0  0  0  0  0  0  0  0  0
  -26.2380  -15.6980   19.9520 H   0  0  0  0  0  0  0  0  0  0  0  0
  1  4  1  0
  1 47  2  0
  4  2  1  1
  4  3  1  0
  5  6  1  0
  5  4  1  0
  7 18  2  0
  8  6  1  0
  8 13  1  0
  9 17  1  0
  9 19  1  0
 10 16  1  0
 10 12  1  0
 11 17  1  0
 12 11  1  0
 13 12  2  0
 14 15  1  0
 14  8  2  0
 15 10  2  0
 16  9  1  0
 17  7  1  0
 19 21  2  0
 20 19  1  0
 22 20  1  0
 23 32  2  0
 23 28  1  0
 24 20  1  0
 24 28  1  0
 25 24  1  0
 26 27  1  0
 26 25  1  0
 27 23  1  0
 28 29  2  0
 29 30  1  0
 31 30  2  0
 32 31  1  0
 33  7  1  0
 33 38  1  0
 33 34  1  0
 34 37  1  1
 34 35  1  0
 36 34  1  0
 38 41  1  0
 39 43  1  0
 39 38  1  0
 40 39  2  0
 43 42  1  0
 45 43  1  0
 45 46  1  0
 45 44  1  0
 48 49  2  0
 48 50  1  0
 49 52  1  0
 50 53  2  0
 52 51  2  0
 52 47  1  0
 53 62  1  0
 53 51  1  0
 54 62  1  0
 55 60  1  0
 56 57  1  0
 56 55  1  0
 58 57  1  0
 58 67  1  0
 58 59  1  0
 60 54  1  0
 60 59  1  0
 61 54  2  0
 62 63  1  0
 64 65  2  0
 65 84  1  0
 66 65  1  0
 66 69  1  0
 67 64  1  0
 67 68  1  0
 68 66  2  0
 69 70  1  0
 70 71  2  0
 72 75  1  0
 72 71  1  0
 73 72  2  0
 74 73  1  0
 74 69  2  0
 75 76  1  0
 76 77  1  0
 77 78  2  0
 79 78  1  0
 79 83  1  0
 80 79  2  0
 81 76  2  0
 81 80  1  0
 82 81  1  0
 84 85  1  0
 85 88  1  0
 85 87  1  0
 86 84  2  0
 89 90  1  0
 89 64  1  0
 91 89  1  0
M  ISO  4   5 101   6 101  54 100  62 100
M  END
>  <TORSDO>  (55) 
F 20

>  <SCORE>  (55) 
-13.840

>  <name>  (55) 
54

>  <ligand_id>  (55) 
54

>  <original_smiles>  (55) 
[H]c1c([H])c([H])c2c(c1[H])C([H])([H])C([H])([H])C([H])([H])C2([H])N([H])C(=O)C1([H])N(C(=O)C([H])(N([H])C(=O)C([H])(N([H])C([H])([H])[H])C([H])([H])[H])C(C([H])([H])[H])(C([H])([H])[H])C([H])([H])[H])C([H])([H])c2c([H])c(OC([H])([H])C(C([H])([H])[H])(C([H])([H])[H])C([H])([H])C([H])([H])c3c([H])c([H])c([H])c(N([H])C(=O)N4C([H])([H])C([H])([H])C([H])([H])C([H])(n5nc(-c6c([H])c([H])c(Oc7c([H])c([H])c(F)c([H])c7F)c([H])c6[H])c(C(=O)N([H])[H])c5N([H])[H])C4([H])[H])c3[H])c([H])c([H])c2C1([H])[H]

>  <smiles>  (55) 
[H]c1c([H])c([H])c2c(c1[H])C([H])([H])C([H])([H])C([H])([H])C2([H])N([H])C(=O)C1([H])N(C(=O)C([H])(N([H])C(=O)C([H])(N([H])C([H])([H])[H])C([H])([H])[H])C(C([H])([H])[H])(C([H])([H])[H])C([H])([H])[H])C([H])([H])c2c([H])c(OC([H])([H])C(C([H])([H])[H])(C([H])([H])[H])C([H])([H])C([H])([H])c3c([H])c([H])c([H])c(N([H])C(=O)N4C([H])([H])C([H])([H])C([H])([H])C([H])(n5nc(-c6c([H])c([H])c(Oc7c([H])c([H])c(F)c([H])c7F)c([H])c6[H])c(C(=O)N([H])[H])c5N([H])[H])C4([H])[H])c3[H])c([H])c([H])c2C1([H])[H]

$$$$
55:0:0
     RDKit          3D

 93101  0  0  1  0  0  0  0  0999 V2000
  -29.7440  -21.1080   18.7530 O   0  0  0  0  0  0  0  0  0  0  0  0
  -30.2400  -17.7330   17.5260 C   0  0  0  0  0  3  0  0  0  0  0  0
  -30.1870  -16.9440   18.6820 C   0  0  0  0  0  3  0  0  0  0  0  0
  -30.1400  -19.1240   17.6320 C   0  0  0  0  0  3  0  0  0  0  0  0
  -30.0980  -17.5300   19.9670 C   0  0  0  0  0  0  0  0  0  0  0  0
  -30.0370  -18.9600   20.0770 C   0  0  0  0  0  0  0  0  0  0  0  0
  -30.0140  -19.7580   18.8820 C   0  0  0  0  0  0  0  0  0  0  0  0
  -31.2770  -19.5440   22.2470 C   0  0  0  0  0  1  0  0  0  0  0  0
  -29.9450  -19.5760   21.4800 C   0  0  0  0  0  2  0  0  0  0  0  0
  -30.0700  -16.6760   21.1940 C   0  0  0  0  0  3  0  0  0  0  0  0
  -30.4580  -15.4090   21.4640 C   0  0  0  0  0  3  0  0  0  0  0  0
  -31.0810  -14.4830   20.5330 C   0  0  0  0  0  0  0  0  0  0  0  0
  -30.7080  -12.4300   19.2160 C   0  0  0  0  0  2  0  0  0  0  0  0
  -29.7740  -12.7350   18.0290 C   0  0  0  0  0  2  0  0  0  0  0  0
  -28.2920  -12.6120   18.4400 C   0  0  0  0  0  2  0  0  0  0  0  0
  -27.9770  -13.3870   19.7460 C   0  0  0  0  0  3  0  0  0  0  0  0
  -29.0150  -13.0540   20.8420 C   0  0  0  0  0  2  0  0  0  0  0  0
  -30.3620  -13.3490   20.3070 N   0  0  0  0  0  0  0  0  0  0  0  0
  -32.1540  -14.7170   19.9670 O   0  0  0  0  0  0  0  0  0  0  0  0
  -25.5690  -14.0210   20.4110 C   0  0  0  0  0  0  0  0  0  0  0  0
  -24.4910  -13.2600   20.7700 C   0  0  0  0  0  0  0  0  0  0  0  0
  -24.9430  -11.9050   20.7590 C   0  0  0  0  0  0  0  0  0  0  0  0
  -26.6130  -13.1310   20.2020 N   0  0  0  0  0  0  0  0  0  0  0  0
  -26.2360  -11.8530   20.4640 N   0  0  0  0  0  0  0  0  0  0  0  0
  -24.2060  -10.6500   20.9500 C   0  0  0  0  0  0  0  0  0  0  0  0
  -24.6140   -9.6890   21.9020 C   0  0  0  0  0  3  0  0  0  0  0  0
  -23.8760   -8.4980   22.0770 C   0  0  0  0  0  3  0  0  0  0  0  0
  -22.7160   -8.2600   21.3020 C   0  0  0  0  0  0  0  0  0  0  0  0
  -22.3300   -9.2090   20.3380 C   0  0  0  0  0  3  0  0  0  0  0  0
  -23.0680  -10.3910   20.1610 C   0  0  0  0  0  3  0  0  0  0  0  0
  -21.9520   -7.1210   21.3830 O   0  0  0  0  0  0  0  0  0  0  0  0
  -21.8590   -6.3990   22.5460 C   0  0  0  0  0  0  0  0  0  0  0  0
  -21.4020   -6.9820   23.7490 C   0  0  0  0  0  3  0  0  0  0  0  0
  -21.2560   -6.1880   24.9060 C   0  0  0  0  0  3  0  0  0  0  0  0
  -21.5590   -4.8140   24.8580 C   0  0  0  0  0  0  0  0  0  0  0  0
  -22.0120   -4.2320   23.6620 C   0  0  0  0  0  3  0  0  0  0  0  0
  -22.1580   -5.0220   22.5080 C   0  0  0  0  0  0  0  0  0  0  0  0
  -22.5730   -4.4520   21.3520 F   0  0  0  0  0  0  0  0  0  0  0  0
  -21.4110   -4.0490   25.9670 F   0  0  0  0  0  0  0  0  0  0  0  0
  -23.0950  -13.7500   21.0240 C   0  0  0  0  0  0  0  0  0  0  0  0
  -22.3550  -13.0700   21.8930 N   0  0  0  0  0  0  0  0  0  0  0  0
  -22.6690  -14.7740   20.4880 O   0  0  0  0  0  0  0  0  0  0  0  0
  -22.7080  -12.2380   22.3420 H   0  0  0  0  0  0  0  0  0  0  0  0
  -21.4200  -13.3830   22.1120 H   0  0  0  0  0  0  0  0  0  0  0  0
  -25.7470  -15.3890   20.2300 N   0  0  0  0  0  0  0  0  0  0  0  0
  -24.9880  -16.0520   20.3410 H   0  0  0  0  0  0  0  0  0  0  0  0
  -26.6130  -15.8230   19.9350 H   0  0  0  0  0  0  0  0  0  0  0  0
  -30.3020  -22.1180   19.5890 C   0  0  0  0  0  2  0  0  0  0  0  0
  -27.9940  -22.4520   20.4910 C   0  0  0  0  0  2  0  0  0  0  0  0
  -29.1830  -22.9960   20.1590 C   0  0  0  0  0  0  0  0  0  0  0  0
  -29.4640  -24.4960   20.3210 C   0  0  0  0  0  2  0  0  0  0  0  0
  -28.3140  -25.3690   19.7710 C   0  0  0  0  0  2  0  0  0  0  0  0
  -28.3980  -26.7550   20.1250 O   0  0  0  0  0  0  0  0  0  0  0  0
  -24.5330  -31.8920   23.1910 C   0  0  0  0  0  0  0  0  0  0  0  0
  -27.2130  -27.4730   20.1000 C   0  0  0  0  0  0  0  0  0  0  0  0
  -23.3430  -30.4930   21.5370 C   0  0  0  0  0  3  0  0  0  0  0  0
  -24.8080  -28.9710   20.1190 C   0  0  0  0  0  0  0  0  0  0  0  0
  -25.8690  -30.8560   21.3650 C   0  0  0  0  0  2  0  0  0  0  0  0
  -25.9610  -29.4900   20.7190 C   0  0  0  0  0  0  0  0  0  0  0  0
  -27.1630  -28.7460   20.7140 C   0  0  0  0  0  3  0  0  0  0  0  0
  -26.0350  -26.9820   19.4790 C   0  0  0  0  0  3  0  0  0  0  0  0
  -24.8370  -27.7140   19.5020 C   0  0  0  0  0  3  0  0  0  0  0  0
  -23.5630  -29.8230   20.1580 C   0  0  0  0  0  2  0  0  0  0  0  0
  -24.5990  -31.0930   22.0900 N   0  0  0  0  0  0  0  0  0  0  0  0
  -23.4450  -32.1630   23.7210 O   0  0  0  0  0  0  0  0  0  0  0  0
  -22.6870  -29.4650   22.4890 C   0  0  0  0  0  0  0  0  0  0  0  0
  -21.3620  -29.2830   22.3520 N   0  0  0  0  0  0  0  0  0  0  0  0
  -23.3630  -28.8340   23.3050 O   0  0  0  0  0  0  0  0  0  0  0  0
  -20.8780  -29.8450   21.6670 H   0  0  0  0  0  0  0  0  0  0  0  0
  -17.9840  -28.0910   22.8220 C   0  0  0  0  0  0  0  0  0  0  0  0
  -20.5390  -28.3420   23.1140 C   0  0  0  0  0  3  0  0  0  0  0  0
  -20.6430  -26.9150   22.5290 C   0  0  0  0  0  2  0  0  0  0  0  0
  -19.5460  -26.5990   21.5070 C   0  0  0  0  0  2  0  0  0  0  0  0
  -18.1610  -26.7440   22.1430 C   0  0  0  0  0  2  0  0  0  0  0  0
  -19.1010  -28.8480   23.2630 C   0  0  0  0  0  0  0  0  0  0  0  0
  -18.8820  -30.1100   23.8590 C   0  0  0  0  0  3  0  0  0  0  0  0
  -17.5770  -30.6160   24.0140 C   0  0  0  0  0  3  0  0  0  0  0  0
  -16.4740  -29.8560   23.5900 C   0  0  0  0  0  3  0  0  0  0  0  0
  -16.6780  -28.5950   23.0010 C   0  0  0  0  0  3  0  0  0  0  0  0
  -25.8140  -32.5220   23.8220 C   0  0  0  0  0  3  0  0  0  0  0  0
  -25.5000  -33.9160   24.1570 N   0  0  0  0  0  0  0  0  0  0  0  0
  -25.8360  -34.9720   23.4040 C   0  0  0  0  0  0  0  0  0  0  0  0
  -26.5130  -34.8750   22.3770 O   0  0  0  0  0  0  0  0  0  0  0  0
  -24.8970  -34.0680   24.9530 H   0  0  0  0  0  0  0  0  0  0  0  0
  -24.1100  -36.7650   23.0350 C   0  0  0  0  0  1  0  0  0  0  0  0
  -25.3390  -36.3560   23.8630 C   0  0  0  0  0  3  0  0  0  0  0  0
  -27.4610  -37.2380   24.7270 C   0  0  0  0  0  1  0  0  0  0  0  0
  -26.3720  -37.4110   23.7710 N   0  0  0  0  0  0  0  0  0  0  0  0
  -25.9620  -38.3300   23.9170 H   0  0  0  0  0  0  0  0  0  0  0  0
  -26.3290  -31.7400   25.0930 C   0  0  1  0  0  0  0  0  0  0  0  0
  -25.2340  -31.4920   26.1550 C   0  0  0  0  0  1  0  0  0  0  0  0
  -26.9170  -30.3680   24.6890 C   0  0  0  0  0  1  0  0  0  0  0  0
  -27.4740  -32.5340   25.7650 C   0  0  0  0  0  1  0  0  0  0  0  0
  1  7  1  0
  1 48  1  0
  2  4  2  0
  2  3  1  0
  3  5  2  0
  4  7  1  0
  5  6  1  0
  5 10  1  0
  6  9  1  0
  7  6  2  0
  9  8  1  0
 10 11  2  0
 12 11  1  0
 13 18  1  0
 14 15  1  0
 14 13  1  0
 16 15  1  0
 16 23  1  0
 16 17  1  0
 18 12  1  0
 18 17  1  0
 19 12  2  0
 20 21  2  0
 21 40  1  0
 22 21  1  0
 22 25  1  0
 23 20  1  0
 23 24  1  0
 24 22  2  0
 25 26  1  0
 26 27  2  0
 28 31  1  0
 28 27  1  0
 29 28  2  0
 30 29  1  0
 30 25  2  0
 31 32  1  0
 32 33  1  0
 33 34  2  0
 35 34  1  0
 35 39  1  0
 36 35  2  0
 37 32  2  0
 37 36  1  0
 38 37  1  0
 40 41  1  0
 41 44  1  0
 41 43  1  0
 42 40  2  0
 45 46  1  0
 45 20  1  0
 47 45  1  0
 48 50  1  0
 50 51  1  0
 50 49  2  0
 52 53  1  0
 52 51  1  0
 54 65  2  0
 55 53  1  0
 55 60  1  0
 56 64  1  0
 56 66  1  0
 57 63  1  0
 57 59  1  0
 58 64  1  0
 59 58  1  0
 60 59  2  0
 61 62  1  0
 61 55  2  0
 62 57  2  0
 63 56  1  0
 64 54  1  0
 66 68  2  0
 67 66  1  0
 69 67  1  0
 70 79  2  0
 70 75  1  0
 71 67  1  0
 71 75  1  0
 72 71  1  0
 73 74  1  0
 73 72  1  0
 74 70  1  0
 75 76  2  0
 76 77  1  0
 78 77  2  0
 79 78  1  0
 80 54  1  0
 80 81  1  0
 80 90  1  0
 81 84  1  0
 82 86  1  0
 82 81  1  0
 83 82  2  0
 86 85  1  0
 88 86  1  0
 88 89  1  0
 88 87  1  0
 90 93  1  1
 90 91  1  0
 92 90  1  0
M  ISO  4  11 100  12 100  52 101  53 101
M  END
>  <TORSDO>  (56) 
F 23

>  <SCORE>  (56) 
-12.628

>  <name>  (56) 
55

>  <ligand_id>  (56) 
55

>  <original_smiles>  (56) 
[H]C([H])=C(C([H])([H])Oc1c([H])c([H])c([H])c(C([H])=C([H])C(=O)N2C([H])([H])C([H])([H])C([H])([H])C([H])(n3nc(-c4c([H])c([H])c(Oc5c([H])c([H])c(F)c([H])c5F)c([H])c4[H])c(C(=O)N([H])[H])c3N([H])[H])C2([H])[H])c1C([H])([H])C([H])([H])[H])C([H])([H])C([H])([H])Oc1c([H])c([H])c2c(c1[H])C([H])([H])N(C(=O)C([H])(N([H])C(=O)C([H])(N([H])C([H])([H])[H])C([H])([H])[H])C(C([H])([H])[H])(C([H])([H])[H])C([H])([H])[H])C([H])(C(=O)N([H])C1([H])c3c([H])c([H])c([H])c([H])c3C([H])([H])C([H])([H])C1([H])[H])C2([H])[H]

>  <smiles>  (56) 
[H]C([H])=C(C([H])([H])Oc1c([H])c([H])c([H])c(C([H])=C([H])C(=O)N2C([H])([H])C([H])([H])C([H])([H])C([H])(n3nc(-c4c([H])c([H])c(Oc5c([H])c([H])c(F)c([H])c5F)c([H])c4[H])c(C(=O)N([H])[H])c3N([H])[H])C2([H])[H])c1C([H])([H])C([H])([H])[H])C([H])([H])C([H])([H])Oc1c([H])c([H])c2c(c1[H])C([H])([H])N(C(=O)C([H])(N([H])C(=O)C([H])(N([H])C([H])([H])[H])C([H])([H])[H])C(C([H])([H])[H])(C([H])([H])[H])C([H])([H])[H])C([H])(C(=O)N([H])C1([H])c3c([H])c([H])c([H])c([H])c3C([H])([H])C([H])([H])C1([H])[H])C2([H])[H]

$$$$
56:0:0
     RDKit          3D

 91 99  0  0  1  0  0  0  0  0999 V2000
  -30.2830  -21.5590   20.4550 C   0  0  0  0  0  3  0  0  0  0  0  0
  -31.2940  -19.1970   20.1940 C   0  0  0  0  0  3  0  0  0  0  0  0
  -31.2420  -17.7770   20.2420 C   0  0  0  0  0  3  0  0  0  0  0  0
  -28.9130  -19.3150   20.4970 C   0  0  0  0  0  3  0  0  0  0  0  0
  -30.1390  -20.0050   20.3330 C   0  0  0  0  0  0  0  0  0  0  0  0
  -28.8450  -17.8880   20.5360 C   0  0  0  0  0  0  0  0  0  0  0  0
  -30.0210  -17.0800   20.4270 C   0  0  0  0  0  0  0  0  0  0  0  0
  -27.4670  -17.2630   20.7310 C   0  0  0  0  0  1  0  0  0  0  0  0
  -30.6650  -14.6090   19.9470 C   0  0  0  0  0  0  0  0  0  0  0  0
  -30.3690  -12.4260   18.7980 C   0  0  0  0  0  2  0  0  0  0  0  0
  -29.3660  -12.6260   17.6400 C   0  0  0  0  0  2  0  0  0  0  0  0
  -27.9090  -12.4860   18.1350 C   0  0  0  0  0  2  0  0  0  0  0  0
  -27.6340  -13.3020   19.4270 C   0  0  0  0  0  3  0  0  0  0  0  0
  -28.7420  -13.0570   20.4770 C   0  0  0  0  0  2  0  0  0  0  0  0
  -30.0310  -13.3990   19.8550 N   0  0  0  0  0  0  0  0  0  0  0  0
  -31.7870  -14.7810   19.4590 O   0  0  0  0  0  0  0  0  0  0  0  0
  -29.9210  -15.6220   20.4890 N   0  0  0  0  0  0  0  0  0  0  0  0
  -29.0710  -15.2860   20.9150 H   0  0  0  0  0  0  0  0  0  0  0  0
  -25.2790  -13.9210   20.2550 C   0  0  0  0  0  0  0  0  0  0  0  0
  -24.2230  -13.1580   20.6780 C   0  0  0  0  0  0  0  0  0  0  0  0
  -24.6690  -11.8030   20.6140 C   0  0  0  0  0  0  0  0  0  0  0  0
  -26.3020  -13.0330   19.9670 N   0  0  0  0  0  0  0  0  0  0  0  0
  -25.9430  -11.7530   20.2400 N   0  0  0  0  0  0  0  0  0  0  0  0
  -23.9390  -10.5470   20.8280 C   0  0  0  0  0  0  0  0  0  0  0  0
  -24.3570   -9.6080   21.7960 C   0  0  0  0  0  3  0  0  0  0  0  0
  -23.6310   -8.4140   21.9950 C   0  0  0  0  0  3  0  0  0  0  0  0
  -22.4720   -8.1520   21.2270 C   0  0  0  0  0  0  0  0  0  0  0  0
  -22.0720   -9.0810   20.2490 C   0  0  0  0  0  3  0  0  0  0  0  0
  -22.7990  -10.2660   20.0480 C   0  0  0  0  0  3  0  0  0  0  0  0
  -21.7190   -7.0080   21.3340 O   0  0  0  0  0  0  0  0  0  0  0  0
  -21.5750   -6.3490   22.5290 C   0  0  0  0  0  0  0  0  0  0  0  0
  -21.0450   -6.9850   23.6730 C   0  0  0  0  0  3  0  0  0  0  0  0
  -20.8500   -6.2520   24.8610 C   0  0  0  0  0  3  0  0  0  0  0  0
  -21.1740   -4.8820   24.9040 C   0  0  0  0  0  0  0  0  0  0  0  0
  -21.6960   -4.2450   23.7640 C   0  0  0  0  0  3  0  0  0  0  0  0
  -21.8920   -4.9760   22.5800 C   0  0  0  0  0  0  0  0  0  0  0  0
  -22.3750   -4.3520   21.4780 F   0  0  0  0  0  0  0  0  0  0  0  0
  -20.9810   -4.1760   26.0430 F   0  0  0  0  0  0  0  0  0  0  0  0
  -22.8440  -13.6500   21.0210 C   0  0  0  0  0  0  0  0  0  0  0  0
  -22.1550  -12.9690   21.9310 N   0  0  0  0  0  0  0  0  0  0  0  0
  -22.3870  -14.6740   20.5160 O   0  0  0  0  0  0  0  0  0  0  0  0
  -22.5350  -12.1450   22.3700 H   0  0  0  0  0  0  0  0  0  0  0  0
  -21.2320  -13.2840   22.1950 H   0  0  0  0  0  0  0  0  0  0  0  0
  -25.4460  -15.2900   20.0680 N   0  0  0  0  0  0  0  0  0  0  0  0
  -24.6800  -15.9440   20.1910 H   0  0  0  0  0  0  0  0  0  0  0  0
  -26.2570  -15.7030   19.6240 H   0  0  0  0  0  0  0  0  0  0  0  0
  -29.1090  -22.5450   20.0650 C   0  0  0  0  0  3  0  0  0  0  0  0
  -29.8380  -24.4450   21.6610 C   0  0  0  0  0  1  0  0  0  0  0  0
  -29.4020  -24.1060   20.2220 C   0  0  0  0  0  3  0  0  0  0  0  0
  -28.2180  -25.0590   19.7850 C   0  0  0  0  0  2  0  0  0  0  0  0
  -28.3960  -26.5120   19.9330 O   0  0  0  0  0  0  0  0  0  0  0  0
  -24.4970  -31.6480   23.1150 C   0  0  0  0  0  0  0  0  0  0  0  0
  -27.2400  -27.3010   19.9070 C   0  0  0  0  0  0  0  0  0  0  0  0
  -23.3260  -30.2660   21.4360 C   0  0  0  0  0  3  0  0  0  0  0  0
  -24.8170  -28.8090   19.9590 C   0  0  0  0  0  0  0  0  0  0  0  0
  -25.8500  -30.6770   21.2490 C   0  0  0  0  0  2  0  0  0  0  0  0
  -25.9700  -29.3250   20.5600 C   0  0  0  0  0  0  0  0  0  0  0  0
  -27.1870  -28.5840   20.5260 C   0  0  0  0  0  3  0  0  0  0  0  0
  -26.0630  -26.8320   19.2800 C   0  0  0  0  0  3  0  0  0  0  0  0
  -24.8620  -27.5660   19.3110 C   0  0  0  0  0  3  0  0  0  0  0  0
  -23.5510  -29.6370   20.0360 C   0  0  0  0  0  2  0  0  0  0  0  0
  -24.5760  -30.8790   21.9900 N   0  0  0  0  0  0  0  0  0  0  0  0
  -23.4100  -31.8770   23.6640 O   0  0  0  0  0  0  0  0  0  0  0  0
  -22.7000  -29.2000   22.3660 C   0  0  0  0  0  0  0  0  0  0  0  0
  -21.3820  -28.9820   22.2330 N   0  0  0  0  0  0  0  0  0  0  0  0
  -23.3990  -28.5730   23.1670 O   0  0  0  0  0  0  0  0  0  0  0  0
  -20.8730  -29.5480   21.5690 H   0  0  0  0  0  0  0  0  0  0  0  0
  -18.0420  -27.6770   22.7000 C   0  0  0  0  0  0  0  0  0  0  0  0
  -20.5930  -27.9950   22.9730 C   0  0  0  0  0  3  0  0  0  0  0  0
  -20.7320  -26.5870   22.3500 C   0  0  0  0  0  2  0  0  0  0  0  0
  -19.6350  -26.2660   21.3290 C   0  0  0  0  0  2  0  0  0  0  0  0
  -18.2520  -26.3550   21.9820 C   0  0  0  0  0  2  0  0  0  0  0  0
  -19.1400  -28.4540   23.1510 C   0  0  0  0  0  0  0  0  0  0  0  0
  -18.8890  -29.6920   23.7820 C   0  0  0  0  0  3  0  0  0  0  0  0
  -17.5720  -30.1520   23.9690 C   0  0  0  0  0  3  0  0  0  0  0  0
  -16.4870  -29.3690   23.5360 C   0  0  0  0  0  3  0  0  0  0  0  0
  -16.7230  -28.1350   22.9060 C   0  0  0  0  0  3  0  0  0  0  0  0
  -25.7660  -32.2960   23.7530 C   0  0  0  0  0  3  0  0  0  0  0  0
  -26.2730  -31.5330   25.0370 C   0  0  1  0  0  0  0  0  0  0  0  0
  -25.1680  -31.2840   26.0920 C   0  0  0  0  0  1  0  0  0  0  0  0
  -26.8790  -30.1610   24.6570 C   0  0  0  0  0  1  0  0  0  0  0  0
  -27.4060  -32.3410   25.7120 C   0  0  0  0  0  1  0  0  0  0  0  0
  -25.4370  -33.6900   24.0720 N   0  0  0  0  0  0  0  0  0  0  0  0
  -25.7440  -34.7410   23.2990 C   0  0  0  0  0  0  0  0  0  0  0  0
  -26.4010  -34.6390   22.2600 O   0  0  0  0  0  0  0  0  0  0  0  0
  -24.8520  -33.8440   24.8800 H   0  0  0  0  0  0  0  0  0  0  0  0
  -23.9690  -36.4910   22.9630 C   0  0  0  0  0  1  0  0  0  0  0  0
  -25.2390  -36.1250   23.7480 C   0  0  0  0  0  3  0  0  0  0  0  0
  -27.3720  -37.0730   24.5120 C   0  0  0  0  0  1  0  0  0  0  0  0
  -26.2440  -37.1970   23.5920 N   0  0  0  0  0  0  0  0  0  0  0  0
  -25.8210  -38.1100   23.7320 H   0  0  0  0  0  0  0  0  0  0  0  0
  2  3  2  0
  2  5  1  0
  3  7  1  0
  4  6  1  0
  5  1  1  0
  5  4  2  0
  6  8  1  0
  7 17  1  0
  7  6  2  0
  9 17  1  0
 10 15  1  0
 11 12  1  0
 11 10  1  0
 13 12  1  0
 13 22  1  0
 13 14  1  0
 15  9  1  0
 15 14  1  0
 16  9  2  0
 17 18  1  0
 19 20  2  0
 20 39  1  0
 21 20  1  0
 21 24  1  0
 22 23  1  0
 22 19  1  0
 23 21  2  0
 24 25  1  0
 25 26  2  0
 27 30  1  0
 27 26  1  0
 28 27  2  0
 29 28  1  0
 29 24  2  0
 30 31  1  0
 31 36  2  0
 31 32  1  0
 32 33  2  0
 33 34  1  0
 34 38  1  0
 35 34  2  0
 36 35  1  0
 37 36  1  0
 39 40  1  0
 40 43  1  0
 40 42  1  0
 41 39  2  0
 44 45  1  0
 44 19  1  0
 46 44  1  0
 47 49  1  0
 47  1  2  0
 49 48  1  0
 50 51  1  0
 50 49  1  0
 52 63  2  0
 53 51  1  0
 53 58  1  0
 54 62  1  0
 54 64  1  0
 55 61  1  0
 55 57  1  0
 56 62  1  0
 57 56  1  0
 58 57  2  0
 59 60  1  0
 59 53  2  0
 60 55  2  0
 61 54  1  0
 62 52  1  0
 64 66  2  0
 65 64  1  0
 67 65  1  0
 68 77  2  0
 68 73  1  0
 69 65  1  0
 69 73  1  0
 70 69  1  0
 71 72  1  0
 71 70  1  0
 72 68  1  0
 73 74  2  0
 74 75  1  0
 76 75  2  0
 77 76  1  0
 78 52  1  0
 78 83  1  0
 78 79  1  0
 79 82  1  1
 79 80  1  0
 81 79  1  0
 83 86  1  0
 84 88  1  0
 84 83  1  0
 85 84  2  0
 88 87  1  0
 90 91  1  0
 90 88  1  0
 90 89  1  0
M  ISO  4   9 100  17 100  50 101  51 101
M  END
>  <TORSDO>  (57) 
F 20

>  <SCORE>  (57) 
-12.855

>  <name>  (57) 
56

>  <ligand_id>  (57) 
56

>  <original_smiles>  (57) 
[H]c1c([H])c([H])c2c(c1[H])C([H])([H])C([H])([H])C([H])([H])C2([H])N([H])C(=O)C1([H])N(C(=O)C([H])(N([H])C(=O)C([H])(N([H])C([H])([H])[H])C([H])([H])[H])C(C([H])([H])[H])(C([H])([H])[H])C([H])([H])[H])C([H])([H])c2c([H])c(OC([H])([H])C([H])(C([H])([H])[H])C([H])([H])C([H])([H])c3c([H])c([H])c(N([H])C(=O)N4C([H])([H])C([H])([H])C([H])([H])C([H])(n5nc(-c6c([H])c([H])c(Oc7c([H])c([H])c(F)c([H])c7F)c([H])c6[H])c(C(=O)N([H])[H])c5N([H])[H])C4([H])[H])c(C([H])([H])[H])c3[H])c([H])c([H])c2C1([H])[H]

>  <smiles>  (57) 
[H]c1c([H])c([H])c2c(c1[H])C([H])([H])C([H])([H])C([H])([H])C2([H])N([H])C(=O)C1([H])N(C(=O)C([H])(N([H])C(=O)C([H])(N([H])C([H])([H])[H])C([H])([H])[H])C(C([H])([H])[H])(C([H])([H])[H])C([H])([H])[H])C([H])([H])c2c([H])c(OC([H])([H])C([H])(C([H])([H])[H])C([H])([H])C([H])([H])c3c([H])c([H])c(N([H])C(=O)N4C([H])([H])C([H])([H])C([H])([H])C([H])(n5nc(-c6c([H])c([H])c(Oc7c([H])c([H])c(F)c([H])c7F)c([H])c6[H])c(C(=O)N([H])[H])c5N([H])[H])C4([H])[H])c(C([H])([H])[H])c3[H])c([H])c([H])c2C1([H])[H]

$$$$
57:0:0
     RDKit          3D

 93101  0  0  1  0  0  0  0  0999 V2000
  -28.9000  -23.6270   22.8690 C   0  0  0  0  0  1  0  0  0  0  0  0
  -29.2540  -23.8080   21.3720 C   0  0  1  0  0  0  0  0  0  0  0  0
  -30.7560  -25.9120   21.9280 C   0  0  0  0  0  1  0  0  0  0  0  0
  -30.6460  -24.5140   21.2960 C   0  0  0  0  0  2  0  0  0  0  0  0
  -29.3290  -22.3790   20.7060 C   0  0  0  0  0  2  0  0  0  0  0  0
  -30.5630  -21.5050   21.0850 C   0  0  0  0  0  2  0  0  0  0  0  0
  -29.3450  -19.2610   21.3450 C   0  0  0  0  0  3  0  0  0  0  0  0
  -31.5500  -19.2680   20.3330 C   0  0  0  0  0  3  0  0  0  0  0  0
  -29.3330  -17.8470   21.2910 C   0  0  0  0  0  3  0  0  0  0  0  0
  -31.5410  -17.8560   20.2830 C   0  0  0  0  0  3  0  0  0  0  0  0
  -30.4610  -19.9880   20.8790 C   0  0  0  0  0  0  0  0  0  0  0  0
  -30.4320  -17.1200   20.7730 C   0  0  0  0  0  0  0  0  0  0  0  0
  -30.9890  -14.7490   20.0630 C   0  0  0  0  0  0  0  0  0  0  0  0
  -30.6930  -12.5680   18.9380 C   0  0  0  0  0  2  0  0  0  0  0  0
  -29.7110  -12.7170   17.7580 C   0  0  0  0  0  2  0  0  0  0  0  0
  -28.2500  -12.5730   18.2270 C   0  0  0  0  0  2  0  0  0  0  0  0
  -27.9350  -13.4410   19.4740 C   0  0  0  0  0  3  0  0  0  0  0  0
  -29.0170  -13.2490   20.5600 C   0  0  0  0  0  2  0  0  0  0  0  0
  -30.3300  -13.5610   19.9630 N   0  0  0  0  0  0  0  0  0  0  0  0
  -32.0620  -14.9590   19.4890 O   0  0  0  0  0  0  0  0  0  0  0  0
  -30.3470  -15.6870   20.7930 N   0  0  0  0  0  0  0  0  0  0  0  0
  -29.5490  -15.3180   21.2880 H   0  0  0  0  0  0  0  0  0  0  0  0
  -25.5640  -14.0540   20.2770 C   0  0  0  0  0  0  0  0  0  0  0  0
  -24.5070  -13.2810   20.6810 C   0  0  0  0  0  0  0  0  0  0  0  0
  -24.9610  -11.9280   20.6190 C   0  0  0  0  0  0  0  0  0  0  0  0
  -26.5960  -13.1690   19.9960 N   0  0  0  0  0  0  0  0  0  0  0  0
  -26.2380  -11.8860   20.2600 N   0  0  0  0  0  0  0  0  0  0  0  0
  -24.2380  -10.6680   20.8260 C   0  0  0  0  0  0  0  0  0  0  0  0
  -24.6410   -9.7390   21.8110 C   0  0  0  0  0  3  0  0  0  0  0  0
  -23.9200   -8.5410   22.0030 C   0  0  0  0  0  3  0  0  0  0  0  0
  -22.7800   -8.2650   21.2120 C   0  0  0  0  0  0  0  0  0  0  0  0
  -22.3970   -9.1820   20.2160 C   0  0  0  0  0  3  0  0  0  0  0  0
  -23.1200  -10.3710   20.0240 C   0  0  0  0  0  3  0  0  0  0  0  0
  -22.0310   -7.1170   21.3110 O   0  0  0  0  0  0  0  0  0  0  0  0
  -21.8540   -6.4760   22.5100 C   0  0  0  0  0  0  0  0  0  0  0  0
  -21.2770   -7.1220   23.6250 C   0  0  0  0  0  3  0  0  0  0  0  0
  -21.0490   -6.4040   24.8160 C   0  0  0  0  0  3  0  0  0  0  0  0
  -21.3880   -5.0400   24.8910 C   0  0  0  0  0  0  0  0  0  0  0  0
  -21.9570   -4.3930   23.7800 C   0  0  0  0  0  3  0  0  0  0  0  0
  -22.1860   -5.1090   22.5930 C   0  0  0  0  0  0  0  0  0  0  0  0
  -22.7150   -4.4750   21.5190 F   0  0  0  0  0  0  0  0  0  0  0  0
  -21.1620   -4.3470   26.0330 F   0  0  0  0  0  0  0  0  0  0  0  0
  -23.1230  -13.7620   21.0130 C   0  0  0  0  0  0  0  0  0  0  0  0
  -22.4300  -13.0670   21.9090 N   0  0  0  0  0  0  0  0  0  0  0  0
  -22.6640  -14.7870   20.5110 O   0  0  0  0  0  0  0  0  0  0  0  0
  -22.8120  -12.2390   22.3420 H   0  0  0  0  0  0  0  0  0  0  0  0
  -21.5000  -13.3660   22.1640 H   0  0  0  0  0  0  0  0  0  0  0  0
  -25.7250  -15.4260   20.1090 N   0  0  0  0  0  0  0  0  0  0  0  0
  -24.9590  -16.0760   20.2510 H   0  0  0  0  0  0  0  0  0  0  0  0
  -26.5670  -15.8750   19.7740 H   0  0  0  0  0  0  0  0  0  0  0  0
  -28.0770  -24.6320   20.7270 C   0  0  0  0  0  2  0  0  0  0  0  0
  -28.3440  -25.5290   19.4860 C   0  0  0  0  0  2  0  0  0  0  0  0
  -28.3230  -26.9280   19.8230 O   0  0  0  0  0  0  0  0  0  0  0  0
  -24.6130  -31.9500   23.2600 C   0  0  0  0  0  0  0  0  0  0  0  0
  -27.1200  -27.6060   19.9210 C   0  0  0  0  0  0  0  0  0  0  0  0
  -23.3390  -30.5930   21.6400 C   0  0  0  0  0  3  0  0  0  0  0  0
  -24.7220  -29.1020   20.1110 C   0  0  0  0  0  0  0  0  0  0  0  0
  -25.8500  -30.9690   21.3240 C   0  0  0  0  0  2  0  0  0  0  0  0
  -25.9090  -29.6140   20.6490 C   0  0  0  0  0  0  0  0  0  0  0  0
  -27.1100  -28.8760   20.5470 C   0  0  0  0  0  3  0  0  0  0  0  0
  -25.9040  -27.0990   19.4070 C   0  0  0  0  0  3  0  0  0  0  0  0
  -24.7150  -27.8420   19.4940 C   0  0  0  0  0  3  0  0  0  0  0  0
  -23.4810  -29.9560   20.2340 C   0  0  0  0  0  2  0  0  0  0  0  0
  -24.6250  -31.1840   22.1340 N   0  0  0  0  0  0  0  0  0  0  0  0
  -23.5550  -32.1990   23.8540 O   0  0  0  0  0  0  0  0  0  0  0  0
  -22.7370  -29.5390   22.5970 C   0  0  0  0  0  0  0  0  0  0  0  0
  -21.4220  -29.3000   22.4680 N   0  0  0  0  0  0  0  0  0  0  0  0
  -23.4490  -28.9420   23.4100 O   0  0  0  0  0  0  0  0  0  0  0  0
  -20.9080  -29.8380   21.7840 H   0  0  0  0  0  0  0  0  0  0  0  0
  -18.1150  -27.9010   22.8840 C   0  0  0  0  0  0  0  0  0  0  0  0
  -20.6420  -28.3250   23.2320 C   0  0  0  0  0  3  0  0  0  0  0  0
  -20.8540  -26.8950   22.6840 C   0  0  0  0  0  2  0  0  0  0  0  0
  -19.8050  -26.4830   21.6460 C   0  0  0  0  0  2  0  0  0  0  0  0
  -18.3970  -26.5530   22.2440 C   0  0  0  0  0  2  0  0  0  0  0  0
  -19.1700  -28.7390   23.3330 C   0  0  0  0  0  0  0  0  0  0  0  0
  -18.8530  -29.9970   23.8900 C   0  0  0  0  0  3  0  0  0  0  0  0
  -17.5160  -30.4180   24.0070 C   0  0  0  0  0  3  0  0  0  0  0  0
  -16.4740  -29.5770   23.5770 C   0  0  0  0  0  3  0  0  0  0  0  0
  -16.7750  -28.3210   23.0210 C   0  0  0  0  0  3  0  0  0  0  0  0
  -25.9220  -32.5680   23.8430 C   0  0  0  0  0  3  0  0  0  0  0  0
  -25.6360  -33.9710   24.1710 N   0  0  0  0  0  0  0  0  0  0  0  0
  -25.9650  -35.0150   23.3980 C   0  0  0  0  0  0  0  0  0  0  0  0
  -26.6110  -34.8970   22.3530 O   0  0  0  0  0  0  0  0  0  0  0  0
  -25.0480  -34.1350   24.9730 H   0  0  0  0  0  0  0  0  0  0  0  0
  -24.2390  -36.8210   23.0880 C   0  0  0  0  0  1  0  0  0  0  0  0
  -25.5050  -36.4130   23.8570 C   0  0  0  0  0  3  0  0  0  0  0  0
  -27.6760  -37.2870   24.6040 C   0  0  0  0  0  1  0  0  0  0  0  0
  -26.5430  -37.4550   23.6970 N   0  0  0  0  0  0  0  0  0  0  0  0
  -26.1530  -38.3810   23.8470 H   0  0  0  0  0  0  0  0  0  0  0  0
  -26.4580  -31.7980   25.1120 C   0  0  1  0  0  0  0  0  0  0  0  0
  -25.3840  -31.5730   26.2030 C   0  0  0  0  0  1  0  0  0  0  0  0
  -27.0180  -30.4170   24.7020 C   0  0  0  0  0  1  0  0  0  0  0  0
  -27.6220  -32.5880   25.7530 C   0  0  0  0  0  1  0  0  0  0  0  0
  2  1  1  1
  4  2  1  0
  4  3  1  0
  5  6  1  0
  5  2  1  0
  8 11  1  0
  9  7  1  0
 10  8  2  0
 10 12  1  0
 11  6  1  0
 11  7  2  0
 12 21  1  0
 12  9  2  0
 13 21  1  0
 14 19  1  0
 15 16  1  0
 15 14  1  0
 17 16  1  0
 17 26  1  0
 17 18  1  0
 19 13  1  0
 19 18  1  0
 20 13  2  0
 21 22  1  0
 23 24  2  0
 24 43  1  0
 25 24  1  0
 25 28  1  0
 26 27  1  0
 26 23  1  0
 27 25  2  0
 28 29  1  0
 29 30  2  0
 31 34  1  0
 31 30  1  0
 32 31  2  0
 33 32  1  0
 33 28  2  0
 34 35  1  0
 35 40  2  0
 35 36  1  0
 36 37  2  0
 37 38  1  0
 38 42  1  0
 39 38  2  0
 40 39  1  0
 41 40  1  0
 43 44  1  0
 44 47  1  0
 44 46  1  0
 45 43  2  0
 48 49  1  0
 48 23  1  0
 50 48  1  0
 51  2  1  0
 52 53  1  0
 52 51  1  0
 53 55  1  0
 54 65  2  0
 55 60  1  0
 56 64  1  0
 56 66  1  0
 57 63  1  0
 57 59  1  0
 58 64  1  0
 59 58  1  0
 60 59  2  0
 61 62  1  0
 61 55  2  0
 62 57  2  0
 63 56  1  0
 64 54  1  0
 66 68  2  0
 67 66  1  0
 69 67  1  0
 70 79  2  0
 70 75  1  0
 71 67  1  0
 71 75  1  0
 72 71  1  0
 73 74  1  0
 73 72  1  0
 74 70  1  0
 75 76  2  0
 76 77  1  0
 78 77  2  0
 79 78  1  0
 80 54  1  0
 80 81  1  0
 80 90  1  0
 81 84  1  0
 82 86  1  0
 82 81  1  0
 83 82  2  0
 86 85  1  0
 88 89  1  0
 88 86  1  0
 88 87  1  0
 90 93  1  1
 90 91  1  0
 92 90  1  0
M  ISO  4  13 100  21 100  52 101  53 101
M  END
>  <TORSDO>  (58) 
F 22

>  <SCORE>  (58) 
-11.964

>  <name>  (58) 
57

>  <ligand_id>  (58) 
57

>  <original_smiles>  (58) 
[H]c1c([H])c([H])c2c(c1[H])C([H])([H])C([H])([H])C([H])([H])C2([H])N([H])C(=O)C1([H])N(C(=O)C([H])(N([H])C(=O)C([H])(N([H])C([H])([H])[H])C([H])([H])[H])C(C([H])([H])[H])(C([H])([H])[H])C([H])([H])[H])C([H])([H])c2c([H])c(OC([H])([H])C([H])([H])C(C([H])([H])[H])(C([H])([H])C([H])([H])[H])C([H])([H])C([H])([H])c3c([H])c([H])c(N([H])C(=O)N4C([H])([H])C([H])([H])C([H])([H])C([H])(n5nc(-c6c([H])c([H])c(Oc7c([H])c([H])c(F)c([H])c7F)c([H])c6[H])c(C(=O)N([H])[H])c5N([H])[H])C4([H])[H])c([H])c3[H])c([H])c([H])c2C1([H])[H]

>  <smiles>  (58) 
[H]c1c([H])c([H])c2c(c1[H])C([H])([H])C([H])([H])C([H])([H])C2([H])N([H])C(=O)C1([H])N(C(=O)C([H])(N([H])C(=O)C([H])(N([H])C([H])([H])[H])C([H])([H])[H])C(C([H])([H])[H])(C([H])([H])[H])C([H])([H])[H])C([H])([H])c2c([H])c(OC([H])([H])C([H])([H])C(C([H])([H])[H])(C([H])([H])C([H])([H])[H])C([H])([H])C([H])([H])c3c([H])c([H])c(N([H])C(=O)N4C([H])([H])C([H])([H])C([H])([H])C([H])(n5nc(-c6c([H])c([H])c(Oc7c([H])c([H])c(F)c([H])c7F)c([H])c6[H])c(C(=O)N([H])[H])c5N([H])[H])C4([H])[H])c([H])c3[H])c([H])c([H])c2C1([H])[H]

$$$$
58:0:0
     RDKit          3D

 98106  0  0  1  0  0  0  0  0999 V2000
  -28.5970  -20.8220   20.8750 C   0  0  0  0  0  3  0  0  0  0  0  0
  -29.5330  -19.9870   20.6810 N   0  0  0  0  0  0  0  0  0  0  0  0
  -28.6240  -15.9800   19.7900 C   0  0  0  0  0  3  0  0  0  0  0  0
  -27.8480  -18.2300   20.3210 C   0  0  0  0  0  3  0  0  0  0  0  0
  -30.2350  -17.7550   20.1700 C   0  0  0  0  0  3  0  0  0  0  0  0
  -27.5660  -16.8850   20.0250 C   0  0  0  0  0  0  0  0  0  0  0  0
  -29.9780  -16.4050   19.8310 C   0  0  0  0  0  0  0  0  0  0  0  0
  -29.1880  -18.6690   20.3910 C   0  0  0  0  0  0  0  0  0  0  0  0
  -26.1200  -16.4360   19.9590 C   0  0  0  0  0  1  0  0  0  0  0  0
  -32.4170  -15.9840   20.1500 C   0  0  0  0  0  1  0  0  0  0  0  0
  -31.3560  -15.2060   18.0130 C   0  0  0  0  0  1  0  0  0  0  0  0
  -31.1250  -15.4130   19.5340 C   0  0  2  0  0  0  0  0  0  0  0  0
  -31.4700  -13.0030   20.4640 C   0  0  0  0  0  0  0  0  0  0  0  0
  -31.3060  -10.8490   21.6720 C   0  0  0  0  0  2  0  0  0  0  0  0
  -30.6940   -9.7340   20.8060 C   0  0  0  0  0  2  0  0  0  0  0  0
  -29.1580   -9.7650   20.8760 C   0  0  0  0  0  2  0  0  0  0  0  0
  -28.5860  -11.1790   20.6040 C   0  0  0  0  0  3  0  0  0  0  0  0
  -29.3010  -12.2230   21.4860 C   0  0  0  0  0  2  0  0  0  0  0  0
  -30.7530  -12.1380   21.2270 N   0  0  0  0  0  0  0  0  0  0  0  0
  -32.6230  -12.7690   20.0860 O   0  0  0  0  0  0  0  0  0  0  0  0
  -30.8140  -14.1510   20.2230 N   0  0  0  0  0  0  0  0  0  0  0  0
  -29.8830  -14.1340   20.6050 H   0  0  0  0  0  0  0  0  0  0  0  0
  -26.2590  -12.2870   20.6620 C   0  0  0  0  0  0  0  0  0  0  0  0
  -25.0060  -11.7750   20.8820 C   0  0  0  0  0  0  0  0  0  0  0  0
  -25.1950  -10.3850   21.1460 C   0  0  0  0  0  0  0  0  0  0  0  0
  -27.1360  -11.2210   20.7930 N   0  0  0  0  0  0  0  0  0  0  0  0
  -26.4860  -10.0800   21.1390 N   0  0  0  0  0  0  0  0  0  0  0  0
  -24.2140   -9.3080   21.3480 C   0  0  0  0  0  0  0  0  0  0  0  0
  -24.1000   -8.6310   22.5830 C   0  0  0  0  0  3  0  0  0  0  0  0
  -23.1370   -7.6140   22.7550 C   0  0  0  0  0  3  0  0  0  0  0  0
  -22.2770   -7.2600   21.6910 C   0  0  0  0  0  0  0  0  0  0  0  0
  -22.4080   -7.9230   20.4590 C   0  0  0  0  0  3  0  0  0  0  0  0
  -23.3680   -8.9340   20.2860 C   0  0  0  0  0  3  0  0  0  0  0  0
  -21.3330   -6.2620   21.7590 O   0  0  0  0  0  0  0  0  0  0  0  0
  -20.6040   -6.0380   22.8980 C   0  0  0  0  0  0  0  0  0  0  0  0
  -19.8230   -7.0510   23.4940 C   0  0  0  0  0  3  0  0  0  0  0  0
  -19.0350   -6.7600   24.6270 C   0  0  0  0  0  3  0  0  0  0  0  0
  -19.0210   -5.4560   25.1580 C   0  0  0  0  0  0  0  0  0  0  0  0
  -19.7960   -4.4460   24.5630 C   0  0  0  0  0  3  0  0  0  0  0  0
  -20.5840   -4.7360   23.4360 C   0  0  0  0  0  0  0  0  0  0  0  0
  -21.3150   -3.7530   22.8530 F   0  0  0  0  0  0  0  0  0  0  0  0
  -18.2600   -5.1720   26.2420 F   0  0  0  0  0  0  0  0  0  0  0  0
  -23.7050  -12.5170   20.7740 C   0  0  0  0  0  0  0  0  0  0  0  0
  -22.7140  -12.1370   21.5760 N   0  0  0  0  0  0  0  0  0  0  0  0
  -23.5780  -13.4730   20.0100 O   0  0  0  0  0  0  0  0  0  0  0  0
  -22.8270  -11.3650   22.2180 H   0  0  0  0  0  0  0  0  0  0  0  0
  -21.8310  -12.6280   21.5470 H   0  0  0  0  0  0  0  0  0  0  0  0
  -26.7230  -13.5600   20.3560 N   0  0  0  0  0  0  0  0  0  0  0  0
  -26.0980  -14.3550   20.2960 H   0  0  0  0  0  0  0  0  0  0  0  0
  -27.6990  -13.8210   20.3470 H   0  0  0  0  0  0  0  0  0  0  0  0
  -28.8570  -22.2820   21.1420 C   0  0  0  0  0  2  0  0  0  0  0  0
  -27.2330  -24.0810   20.2450 C   0  0  0  0  0  1  0  0  0  0  0  0
  -28.4530  -23.1840   19.9500 C   0  0  0  0  0  3  0  0  0  0  0  0
  -29.6300  -23.9660   19.3290 C   0  0  0  0  0  2  0  0  0  0  0  0
  -29.9790  -25.3760   21.5390 C   0  0  0  0  0  1  0  0  0  0  0  0
  -30.5870  -24.7760   20.2480 C   0  0  0  0  0  3  0  0  0  0  0  0
  -31.3420  -25.8300   19.4010 C   0  0  0  0  0  2  0  0  0  0  0  0
  -30.5150  -26.3570   18.3610 O   0  0  0  0  0  0  0  0  0  0  0  0
  -26.8340  -29.2990   23.6760 C   0  0  0  0  0  0  0  0  0  0  0  0
  -29.3430  -26.9310   18.7740 C   0  0  0  0  0  0  0  0  0  0  0  0
  -25.5240  -28.6770   21.6680 C   0  0  0  0  0  3  0  0  0  0  0  0
  -26.8910  -28.0430   19.6090 C   0  0  0  0  0  0  0  0  0  0  0  0
  -27.9990  -29.2810   21.4820 C   0  0  0  0  0  2  0  0  0  0  0  0
  -28.0740  -28.3480   20.2980 C   0  0  0  0  0  0  0  0  0  0  0  0
  -29.3000  -27.7950   19.8880 C   0  0  0  0  0  3  0  0  0  0  0  0
  -28.1550  -26.6400   18.0740 C   0  0  0  0  0  3  0  0  0  0  0  0
  -26.9230  -27.1840   18.4950 C   0  0  0  0  0  3  0  0  0  0  0  0
  -25.6220  -28.6860   20.1180 C   0  0  0  0  0  2  0  0  0  0  0  0
  -26.8080  -29.0720   22.3330 N   0  0  0  0  0  0  0  0  0  0  0  0
  -25.8000  -29.2310   24.3560 O   0  0  0  0  0  0  0  0  0  0  0  0
  -25.0050  -27.2940   22.1180 C   0  0  0  0  0  0  0  0  0  0  0  0
  -23.7400  -26.9960   21.7800 N   0  0  0  0  0  0  0  0  0  0  0  0
  -25.7370  -26.5070   22.7240 O   0  0  0  0  0  0  0  0  0  0  0  0
  -23.2080  -27.7020   21.2910 H   0  0  0  0  0  0  0  0  0  0  0  0
  -20.6670  -25.1790   21.2240 C   0  0  0  0  0  0  0  0  0  0  0  0
  -23.0480  -25.7390   22.0610 C   0  0  0  0  0  3  0  0  0  0  0  0
  -23.5350  -24.6130   21.1200 C   0  0  0  0  0  2  0  0  0  0  0  0
  -22.6810  -24.4690   19.8570 C   0  0  0  0  0  2  0  0  0  0  0  0
  -21.2240  -24.1710   20.2300 C   0  0  0  0  0  2  0  0  0  0  0  0
  -21.5280  -25.9280   22.0710 C   0  0  0  0  0  0  0  0  0  0  0  0
  -20.9650  -26.8800   22.9500 C   0  0  0  0  0  3  0  0  0  0  0  0
  -19.5730  -27.0880   22.9940 C   0  0  0  0  0  3  0  0  0  0  0  0
  -18.7260  -26.3290   22.1660 C   0  0  0  0  0  3  0  0  0  0  0  0
  -19.2710  -25.3760   21.2880 C   0  0  0  0  0  3  0  0  0  0  0  0
  -28.1530  -29.6820   24.4170 C   0  0  0  0  0  3  0  0  0  0  0  0
  -27.8510  -30.8220   25.2930 N   0  0  0  0  0  0  0  0  0  0  0  0
  -28.1620  -32.0960   25.0170 C   0  0  0  0  0  0  0  0  0  0  0  0
  -28.8090  -32.4260   24.0170 O   0  0  0  0  0  0  0  0  0  0  0  0
  -27.2780  -30.6310   26.1020 H   0  0  0  0  0  0  0  0  0  0  0  0
  -26.4400  -33.8760   25.4370 C   0  0  0  0  0  1  0  0  0  0  0  0
  -27.6830  -33.1720   26.0050 C   0  0  0  0  0  3  0  0  0  0  0  0
  -29.8200  -33.6340   27.1210 C   0  0  0  0  0  1  0  0  0  0  0  0
  -28.7190  -34.1760   26.3300 N   0  0  0  0  0  0  0  0  0  0  0  0
  -28.3170  -34.9550   26.8430 H   0  0  0  0  0  0  0  0  0  0  0  0
  -28.7690  -28.4880   25.2450 C   0  0  1  0  0  0  0  0  0  0  0  0
  -27.7410  -27.7590   26.1420 C   0  0  0  0  0  1  0  0  0  0  0  0
  -29.3990  -27.4390   24.2990 C   0  0  0  0  0  1  0  0  0  0  0  0
  -29.9090  -29.0110   26.1500 C   0  0  0  0  0  1  0  0  0  0  0  0
  1 51  1  0
  2  1  2  0
  3  7  2  0
  3  6  1  0
  4  8  1  0
  5  8  2  0
  6  4  2  0
  7  5  1  0
  8  2  1  0
  9  6  1  0
 12 11  1  6
 12  7  1  0
 12 10  1  0
 12 21  1  0
 13 19  1  0
 15 16  1  0
 15 14  1  0
 17 26  1  0
 17 16  1  0
 17 18  1  0
 19 18  1  0
 19 14  1  0
 20 13  2  0
 21 13  1  0
 21 22  1  0
 23 26  1  0
 23 24  2  0
 24 25  1  0
 25 28  1  0
 26 27  1  0
 27 25  2  0
 28 29  1  0
 29 30  2  0
 31 34  1  0
 31 30  1  0
 32 31  2  0
 33 32  1  0
 33 28  2  0
 34 35  1  0
 35 40  2  0
 35 36  1  0
 36 37  2  0
 37 38  1  0
 38 42  1  0
 39 38  2  0
 40 39  1  0
 41 40  1  0
 43 24  1  0
 43 44  1  0
 44 46  1  0
 45 43  2  0
 47 44  1  0
 48 23  1  0
 49 48  1  0
 50 48  1  0
 53 52  1  0
 53 51  1  0
 54 53  1  0
 54 56  1  0
 56 55  1  0
 57 56  1  0
 58 60  1  0
 58 57  1  0
 59 70  2  0
 60 65  1  0
 61 71  1  0
 61 69  1  0
 62 68  1  0
 62 64  1  0
 63 69  1  0
 64 63  1  0
 65 64  2  0
 66 67  1  0
 66 60  2  0
 67 62  2  0
 68 61  1  0
 69 59  1  0
 71 73  2  0
 72 71  1  0
 74 72  1  0
 75 84  2  0
 75 80  1  0
 76 72  1  0
 76 80  1  0
 77 76  1  0
 78 79  1  0
 78 77  1  0
 79 75  1  0
 80 81  2  0
 81 82  1  0
 83 82  2  0
 84 83  1  0
 85 59  1  0
 85 95  1  0
 85 86  1  0
 86 89  1  0
 87 86  1  0
 87 91  1  0
 88 87  2  0
 91 90  1  0
 91 93  1  0
 93 94  1  0
 93 92  1  0
 95 96  1  1
 95 98  1  0
 97 95  1  0
M  ISO  4  13 100  21 100  57 101  58 101
M  END
>  <TORSDO>  (59) 
F 23

>  <SCORE>  (59) 
-8.511

>  <name>  (59) 
58

>  <ligand_id>  (59) 
58

>  <original_smiles>  (59) 
[H]C(=Nc1c([H])c(C([H])([H])[H])c([H])c(C(N([H])C(=O)N2C([H])([H])C([H])([H])C([H])([H])C([H])(n3nc(-c4c([H])c([H])c(Oc5c([H])c([H])c(F)c([H])c5F)c([H])c4[H])c(C(=O)N([H])[H])c3N([H])[H])C2([H])[H])(C([H])([H])[H])C([H])([H])[H])c1[H])C([H])([H])C([H])(C([H])([H])[H])C([H])([H])C([H])(C([H])([H])[H])C([H])([H])Oc1c([H])c([H])c2c(c1[H])C([H])([H])N(C(=O)C([H])(N([H])C(=O)C([H])(N([H])C([H])([H])[H])C([H])([H])[H])C(C([H])([H])[H])(C([H])([H])[H])C([H])([H])[H])C([H])(C(=O)N([H])C1([H])c3c([H])c([H])c([H])c([H])c3C([H])([H])C([H])([H])C1([H])[H])C2([H])[H]

>  <smiles>  (59) 
[H]C(=Nc1c([H])c(C([H])([H])[H])c([H])c(C(N([H])C(=O)N2C([H])([H])C([H])([H])C([H])([H])C([H])(n3nc(-c4c([H])c([H])c(Oc5c([H])c([H])c(F)c([H])c5F)c([H])c4[H])c(C(=O)N([H])[H])c3N([H])[H])C2([H])[H])(C([H])([H])[H])C([H])([H])[H])c1[H])C([H])([H])C([H])(C([H])([H])[H])C([H])([H])C([H])(C([H])([H])[H])C([H])([H])Oc1c([H])c([H])c2c(c1[H])C([H])([H])N(C(=O)C([H])(N([H])C(=O)C([H])(N([H])C([H])([H])[H])C([H])([H])[H])C(C([H])([H])[H])(C([H])([H])[H])C([H])([H])[H])C([H])(C(=O)N([H])C1([H])c3c([H])c([H])c([H])c([H])c3C([H])([H])C([H])([H])C1([H])[H])C2([H])[H]

$$$$
59:0:0
     RDKit          3D

 94102  0  0  1  0  0  0  0  0999 V2000
  -29.6480  -21.7700   19.9750 C   0  0  0  0  0  2  0  0  0  0  0  0
  -31.2890  -23.7310   19.8650 C   0  0  0  0  0  1  0  0  0  0  0  0
  -30.2430  -22.8690   17.7820 C   0  0  0  0  0  1  0  0  0  0  0  0
  -29.9800  -23.1530   19.2810 C   0  0  1  0  0  0  0  0  0  0  0  0
  -28.8390  -24.2730   19.2790 C   0  0  0  0  0  2  0  0  0  0  0  0
  -29.1120  -24.9540   21.8220 C   0  0  0  0  0  1  0  0  0  0  0  0
  -28.3310  -25.1130   20.5140 C   0  0  0  0  0  3  0  0  0  0  0  0
  -28.3790  -26.5420   20.2240 O   0  0  0  0  0  0  0  0  0  0  0  0
  -24.6620  -31.8810   23.2300 C   0  0  0  0  0  0  0  0  0  0  0  0
  -27.2140  -27.2950   20.2450 C   0  0  0  0  0  0  0  0  0  0  0  0
  -23.4270  -30.4710   21.6160 C   0  0  0  0  0  3  0  0  0  0  0  0
  -24.8490  -28.8710   20.2240 C   0  0  0  0  0  0  0  0  0  0  0  0
  -25.9630  -30.7700   21.4090 C   0  0  0  0  0  2  0  0  0  0  0  0
  -26.0220  -29.3810   20.7970 C   0  0  0  0  0  0  0  0  0  0  0  0
  -27.2070  -28.6030   20.7930 C   0  0  0  0  0  3  0  0  0  0  0  0
  -26.0240  -26.8080   19.6650 C   0  0  0  0  0  3  0  0  0  0  0  0
  -24.8470  -27.5850   19.6530 C   0  0  0  0  0  3  0  0  0  0  0  0
  -23.6250  -29.7600   20.2500 C   0  0  0  0  0  2  0  0  0  0  0  0
  -24.7030  -31.0570   22.1440 N   0  0  0  0  0  0  0  0  0  0  0  0
  -23.5860  -32.1860   23.7640 O   0  0  0  0  0  0  0  0  0  0  0  0
  -22.7550  -29.4850   22.5980 C   0  0  0  0  0  0  0  0  0  0  0  0
  -21.4310  -29.3080   22.4590 N   0  0  0  0  0  0  0  0  0  0  0  0
  -23.4230  -28.8780   23.4390 O   0  0  0  0  0  0  0  0  0  0  0  0
  -20.9530  -29.8510   21.7540 H   0  0  0  0  0  0  0  0  0  0  0  0
  -18.0480  -28.1180   22.9170 C   0  0  0  0  0  0  0  0  0  0  0  0
  -20.5980  -28.3960   23.2430 C   0  0  0  0  0  3  0  0  0  0  0  0
  -20.7190  -26.9460   22.7230 C   0  0  0  0  0  2  0  0  0  0  0  0
  -19.6440  -26.5810   21.6940 C   0  0  0  0  0  2  0  0  0  0  0  0
  -18.2460  -26.7440   22.2980 C   0  0  0  0  0  2  0  0  0  0  0  0
  -19.1530  -28.9000   23.3450 C   0  0  0  0  0  0  0  0  0  0  0  0
  -18.9160  -30.1840   23.8830 C   0  0  0  0  0  3  0  0  0  0  0  0
  -17.6060  -30.6860   23.9980 C   0  0  0  0  0  3  0  0  0  0  0  0
  -16.5160  -29.9020   23.5860 C   0  0  0  0  0  3  0  0  0  0  0  0
  -16.7370  -28.6200   23.0500 C   0  0  0  0  0  3  0  0  0  0  0  0
  -25.9590  -32.4990   23.8380 C   0  0  0  0  0  3  0  0  0  0  0  0
  -25.6520  -33.8820   24.2300 N   0  0  0  0  0  0  0  0  0  0  0  0
  -25.9440  -34.9630   23.4950 C   0  0  0  0  0  0  0  0  0  0  0  0
  -26.5680  -34.9020   22.4330 O   0  0  0  0  0  0  0  0  0  0  0  0
  -25.0910  -34.0030   25.0610 H   0  0  0  0  0  0  0  0  0  0  0  0
  -24.1760  -36.7400   23.2850 C   0  0  0  0  0  1  0  0  0  0  0  0
  -25.4620  -36.3290   24.0200 C   0  0  0  0  0  3  0  0  0  0  0  0
  -27.6220  -37.2200   24.7720 C   0  0  0  0  0  1  0  0  0  0  0  0
  -26.4730  -37.3990   23.8890 N   0  0  0  0  0  0  0  0  0  0  0  0
  -26.0630  -38.3080   24.0840 H   0  0  0  0  0  0  0  0  0  0  0  0
  -26.5200  -31.6840   25.0680 C   0  0  1  0  0  0  0  0  0  0  0  0
  -25.4600  -31.3920   26.1560 C   0  0  0  0  0  1  0  0  0  0  0  0
  -27.1040  -30.3300   24.6010 C   0  0  0  0  0  1  0  0  0  0  0  0
  -27.6790  -32.4660   25.7310 C   0  0  0  0  0  1  0  0  0  0  0  0
  -30.5640  -20.5320   19.5710 C   0  0  0  0  0  2  0  0  0  0  0  0
  -30.7660  -19.5370   21.9070 C   0  0  0  0  0  3  0  0  0  0  0  0
  -30.8260  -17.1410   22.3400 C   0  0  0  0  0  3  0  0  0  0  0  0
  -30.6610  -17.9530   20.0460 C   0  0  0  0  0  3  0  0  0  0  0  0
  -30.8430  -18.4650   22.8130 C   0  0  0  0  0  0  0  0  0  0  0  0
  -30.6470  -19.3100   20.5200 C   0  0  0  0  0  0  0  0  0  0  0  0
  -30.7490  -16.8560   20.9590 C   0  0  0  0  0  0  0  0  0  0  0  0
  -30.9060  -18.7420   24.3010 C   0  0  0  0  0  1  0  0  0  0  0  0
  -31.2730  -14.5040   20.0090 C   0  0  0  0  0  0  0  0  0  0  0  0
  -30.8920  -12.3270   18.8650 C   0  0  0  0  0  2  0  0  0  0  0  0
  -29.9070  -12.5500   17.6940 C   0  0  0  0  0  2  0  0  0  0  0  0
  -28.4410  -12.4990   18.1730 C   0  0  0  0  0  2  0  0  0  0  0  0
  -28.1970  -13.3630   19.4380 C   0  0  0  0  0  3  0  0  0  0  0  0
  -29.2680  -13.0530   20.5070 C   0  0  0  0  0  2  0  0  0  0  0  0
  -30.5900  -13.3230   19.9050 N   0  0  0  0  0  0  0  0  0  0  0  0
  -32.3790  -14.6860   19.4890 O   0  0  0  0  0  0  0  0  0  0  0  0
  -30.5630  -15.4630   20.6510 N   0  0  0  0  0  0  0  0  0  0  0  0
  -29.7420  -15.0660   21.0810 H   0  0  0  0  0  0  0  0  0  0  0  0
  -25.8720  -14.1520   20.2160 C   0  0  0  0  0  0  0  0  0  0  0  0
  -24.7620  -13.4610   20.6230 C   0  0  0  0  0  0  0  0  0  0  0  0
  -25.1220  -12.0790   20.5850 C   0  0  0  0  0  0  0  0  0  0  0  0
  -26.8410  -13.1930   19.9570 N   0  0  0  0  0  0  0  0  0  0  0  0
  -26.3940  -11.9440   20.2350 N   0  0  0  0  0  0  0  0  0  0  0  0
  -24.3120  -10.8740   20.8060 C   0  0  0  0  0  0  0  0  0  0  0  0
  -24.6960   -9.8890   21.7420 C   0  0  0  0  0  3  0  0  0  0  0  0
  -23.8910   -8.7470   21.9490 C   0  0  0  0  0  3  0  0  0  0  0  0
  -22.6900   -8.5850   21.2180 C   0  0  0  0  0  0  0  0  0  0  0  0
  -22.3250   -9.5570   20.2720 C   0  0  0  0  0  3  0  0  0  0  0  0
  -23.1290  -10.6900   20.0630 C   0  0  0  0  0  3  0  0  0  0  0  0
  -21.8600   -7.4960   21.3350 O   0  0  0  0  0  0  0  0  0  0  0  0
  -21.7420   -6.8040   22.5130 C   0  0  0  0  0  0  0  0  0  0  0  0
  -21.3570   -7.4360   23.7140 C   0  0  0  0  0  3  0  0  0  0  0  0
  -21.1800   -6.6740   24.8870 C   0  0  0  0  0  3  0  0  0  0  0  0
  -21.3800   -5.2800   24.8580 C   0  0  0  0  0  0  0  0  0  0  0  0
  -21.7590   -4.6480   23.6610 C   0  0  0  0  0  3  0  0  0  0  0  0
  -21.9360   -5.4070   22.4910 C   0  0  0  0  0  0  0  0  0  0  0  0
  -22.2810   -4.7900   21.3360 F   0  0  0  0  0  0  0  0  0  0  0  0
  -21.2030   -4.5470   25.9820 F   0  0  0  0  0  0  0  0  0  0  0  0
  -23.4130  -14.0410   20.9390 C   0  0  0  0  0  0  0  0  0  0  0  0
  -22.6810  -13.4230   21.8600 N   0  0  0  0  0  0  0  0  0  0  0  0
  -23.0190  -15.0750   20.4030 O   0  0  0  0  0  0  0  0  0  0  0  0
  -23.0130  -12.5850   22.3150 H   0  0  0  0  0  0  0  0  0  0  0  0
  -21.7770  -13.7940   22.1160 H   0  0  0  0  0  0  0  0  0  0  0  0
  -26.1320  -15.5050   20.0270 N   0  0  0  0  0  0  0  0  0  0  0  0
  -25.4240  -16.2180   20.1670 H   0  0  0  0  0  0  0  0  0  0  0  0
  -27.0060  -15.8800   19.6770 H   0  0  0  0  0  0  0  0  0  0  0  0
  4  3  1  6
  4  2  1  0
  4  1  1  0
  5  4  1  0
  5  7  1  0
  7  6  1  0
  8 10  1  0
  8  7  1  0
  9 20  2  0
 10 15  1  0
 11 19  1  0
 11 21  1  0
 12 18  1  0
 12 14  1  0
 13 19  1  0
 14 13  1  0
 15 14  2  0
 16 10  2  0
 17 16  1  0
 17 12  2  0
 18 11  1  0
 19  9  1  0
 21 23  2  0
 22 21  1  0
 24 22  1  0
 25 34  2  0
 25 30  1  0
 26 22  1  0
 26 30  1  0
 27 26  1  0
 28 29  1  0
 28 27  1  0
 29 25  1  0
 30 31  2  0
 31 32  1  0
 33 32  2  0
 34 33  1  0
 35  9  1  0
 35 36  1  0
 35 45  1  0
 36 39  1  0
 37 41  1  0
 37 36  1  0
 38 37  2  0
 41 40  1  0
 43 41  1  0
 43 44  1  0
 43 42  1  0
 45 48  1  1
 45 46  1  0
 47 45  1  0
 49  1  1  0
 49 54  1  0
 50 53  1  0
 51 53  2  0
 52 54  1  0
 52 55  2  0
 53 56  1  0
 54 50  2  0
 55 51  1  0
 57 65  1  0
 58 63  1  0
 59 60  1  0
 59 58  1  0
 61 60  1  0
 61 70  1  0
 61 62  1  0
 63 57  1  0
 63 62  1  0
 64 57  2  0
 65 55  1  0
 65 66  1  0
 67 68  2  0
 68 87  1  0
 69 68  1  0
 69 72  1  0
 70 67  1  0
 70 71  1  0
 71 69  2  0
 72 73  1  0
 73 74  2  0
 75 78  1  0
 75 74  1  0
 76 75  2  0
 77 76  1  0
 77 72  2  0
 78 79  1  0
 79 80  1  0
 80 81  2  0
 82 81  1  0
 82 86  1  0
 83 82  2  0
 84 79  2  0
 84 83  1  0
 85 84  1  0
 87 88  1  0
 88 91  1  0
 88 90  1  0
 89 87  2  0
 92 93  1  0
 92 67  1  0
 94 92  1  0
M  ISO  4   7 101   8 101  57 100  65 100
M  END
>  <TORSDO>  (60) 
F 21

>  <SCORE>  (60) 
-12.175

>  <name>  (60) 
59

>  <ligand_id>  (60) 
59

>  <original_smiles>  (60) 
[H]c1c([H])c([H])c2c(c1[H])C([H])([H])C([H])([H])C([H])([H])C2([H])N([H])C(=O)C1([H])N(C(=O)C([H])(N([H])C(=O)C([H])(N([H])C([H])([H])[H])C([H])([H])[H])C(C([H])([H])[H])(C([H])([H])[H])C([H])([H])[H])C([H])([H])c2c([H])c(OC([H])(C([H])([H])[H])C([H])([H])C(C([H])([H])[H])(C([H])([H])[H])C([H])([H])C([H])([H])c3c([H])c(N([H])C(=O)N4C([H])([H])C([H])([H])C([H])([H])C([H])(n5nc(-c6c([H])c([H])c(Oc7c([H])c([H])c(F)c([H])c7F)c([H])c6[H])c(C(=O)N([H])[H])c5N([H])[H])C4([H])[H])c([H])c(C([H])([H])[H])c3[H])c([H])c([H])c2C1([H])[H]

>  <smiles>  (60) 
[H]c1c([H])c([H])c2c(c1[H])C([H])([H])C([H])([H])C([H])([H])C2([H])N([H])C(=O)C1([H])N(C(=O)C([H])(N([H])C(=O)C([H])(N([H])C([H])([H])[H])C([H])([H])[H])C(C([H])([H])[H])(C([H])([H])[H])C([H])([H])[H])C([H])([H])c2c([H])c(OC([H])(C([H])([H])[H])C([H])([H])C(C([H])([H])[H])(C([H])([H])[H])C([H])([H])C([H])([H])c3c([H])c(N([H])C(=O)N4C([H])([H])C([H])([H])C([H])([H])C([H])(n5nc(-c6c([H])c([H])c(Oc7c([H])c([H])c(F)c([H])c7F)c([H])c6[H])c(C(=O)N([H])[H])c5N([H])[H])C4([H])[H])c([H])c(C([H])([H])[H])c3[H])c([H])c([H])c2C1([H])[H]

$$$$
60:0:0
     RDKit          3D

 93101  0  0  1  0  0  0  0  0999 V2000
  -29.6980  -20.4770   19.8130 C   0  0  0  0  0  0  0  0  0  0  0  0
  -29.6460  -20.4230   18.5510 N   0  0  0  0  0  0  0  0  0  0  0  0
  -29.3800  -21.3240   18.1720 H   0  0  0  0  0  0  0  0  0  0  0  0
  -29.9490  -17.9510   20.1850 C   0  0  0  0  0  3  0  0  0  0  0  0
  -30.5280  -19.4810   21.9880 C   0  0  0  0  0  3  0  0  0  0  0  0
  -30.7780  -17.0770   22.3090 C   0  0  0  0  0  3  0  0  0  0  0  0
  -30.0630  -19.2930   20.6620 C   0  0  0  0  0  0  0  0  0  0  0  0
  -30.3100  -16.8430   21.0010 C   0  0  0  0  0  0  0  0  0  0  0  0
  -30.8810  -18.3920   22.7980 C   0  0  0  0  0  0  0  0  0  0  0  0
  -31.2990  -18.6180   24.0630 F   0  0  0  0  0  0  0  0  0  0  0  0
  -30.8340  -14.4890   20.2690 C   0  0  0  0  0  0  0  0  0  0  0  0
  -30.5430  -12.2820   19.1800 C   0  0  0  0  0  2  0  0  0  0  0  0
  -29.5880  -12.4870   17.9820 C   0  0  0  0  0  2  0  0  0  0  0  0
  -28.1170  -12.3640   18.4300 C   0  0  0  0  0  2  0  0  0  0  0  0
  -27.8030  -13.2420   19.6700 C   0  0  0  0  0  3  0  0  0  0  0  0
  -28.8650  -13.0190   20.7720 C   0  0  0  0  0  2  0  0  0  0  0  0
  -30.1890  -13.2910   20.1880 N   0  0  0  0  0  0  0  0  0  0  0  0
  -31.9820  -14.6700   19.8560 O   0  0  0  0  0  0  0  0  0  0  0  0
  -30.0130  -15.5030   20.6280 N   0  0  0  0  0  0  0  0  0  0  0  0
  -29.0800  -15.1980   20.8490 H   0  0  0  0  0  0  0  0  0  0  0  0
  -25.4360  -13.9230   20.4230 C   0  0  0  0  0  0  0  0  0  0  0  0
  -24.3530  -13.1810   20.8100 C   0  0  0  0  0  0  0  0  0  0  0  0
  -24.7750  -11.8170   20.7710 C   0  0  0  0  0  0  0  0  0  0  0  0
  -26.4510  -13.0120   20.1710 N   0  0  0  0  0  0  0  0  0  0  0  0
  -26.0580  -11.7410   20.4380 N   0  0  0  0  0  0  0  0  0  0  0  0
  -24.0180  -10.5760   20.9740 C   0  0  0  0  0  0  0  0  0  0  0  0
  -24.4410   -9.6000   21.9020 C   0  0  0  0  0  3  0  0  0  0  0  0
  -23.6890   -8.4220   22.0910 C   0  0  0  0  0  3  0  0  0  0  0  0
  -22.5010   -8.2140   21.3520 C   0  0  0  0  0  0  0  0  0  0  0  0
  -22.0990   -9.1760   20.4100 C   0  0  0  0  0  3  0  0  0  0  0  0
  -22.8500  -10.3460   20.2180 C   0  0  0  0  0  3  0  0  0  0  0  0
  -21.7200   -7.0870   21.4490 O   0  0  0  0  0  0  0  0  0  0  0  0
  -21.6630   -6.3500   22.6050 C   0  0  0  0  0  0  0  0  0  0  0  0
  -21.2690   -6.9220   23.8340 C   0  0  0  0  0  3  0  0  0  0  0  0
  -21.1600   -6.1140   24.9840 C   0  0  0  0  0  3  0  0  0  0  0  0
  -21.4330   -4.7350   24.9040 C   0  0  0  0  0  0  0  0  0  0  0  0
  -21.8150   -4.1620   23.6790 C   0  0  0  0  0  3  0  0  0  0  0  0
  -21.9280   -4.9680   22.5320 C   0  0  0  0  0  0  0  0  0  0  0  0
  -22.2800   -4.4080   21.3500 F   0  0  0  0  0  0  0  0  0  0  0  0
  -21.3190   -3.9550   26.0070 F   0  0  0  0  0  0  0  0  0  0  0  0
  -22.9730  -13.6900   21.1120 C   0  0  0  0  0  0  0  0  0  0  0  0
  -22.2540  -13.0020   21.9920 N   0  0  0  0  0  0  0  0  0  0  0  0
  -22.5480  -14.7260   20.6000 O   0  0  0  0  0  0  0  0  0  0  0  0
  -22.6290  -12.1640   22.4090 H   0  0  0  0  0  0  0  0  0  0  0  0
  -21.3270  -13.3080   22.2530 H   0  0  0  0  0  0  0  0  0  0  0  0
  -25.6370  -15.2910   20.2520 N   0  0  0  0  0  0  0  0  0  0  0  0
  -24.8870  -15.9610   20.3880 H   0  0  0  0  0  0  0  0  0  0  0  0
  -26.4760  -15.7080   19.8730 H   0  0  0  0  0  0  0  0  0  0  0  0
  -29.3520  -21.7970   20.5280 C   0  0  0  0  0  2  0  0  0  0  0  0
  -29.2040  -23.0600   19.6420 C   0  0  0  0  0  2  0  0  0  0  0  0
  -28.7360  -24.3140   20.4260 C   0  0  0  0  0  2  0  0  0  0  0  0
  -28.7580  -25.6050   19.5770 C   0  0  0  0  0  2  0  0  0  0  0  0
  -28.4890  -26.7740   20.3560 O   0  0  0  0  0  0  0  0  0  0  0  0
  -24.5920  -31.8940   23.3260 C   0  0  0  0  0  0  0  0  0  0  0  0
  -27.2700  -27.4240   20.3180 C   0  0  0  0  0  0  0  0  0  0  0  0
  -23.3970  -30.4750   21.6870 C   0  0  0  0  0  3  0  0  0  0  0  0
  -24.8600  -28.9150   20.2970 C   0  0  0  0  0  0  0  0  0  0  0  0
  -25.9170  -30.8370   21.5000 C   0  0  0  0  0  2  0  0  0  0  0  0
  -26.0080  -29.4530   20.8860 C   0  0  0  0  0  0  0  0  0  0  0  0
  -27.2090  -28.7140   20.8960 C   0  0  0  0  0  3  0  0  0  0  0  0
  -26.0960  -26.8870   19.7370 C   0  0  0  0  0  3  0  0  0  0  0  0
  -24.8960  -27.6280   19.7260 C   0  0  0  0  0  3  0  0  0  0  0  0
  -23.6130  -29.7720   20.3200 C   0  0  0  0  0  2  0  0  0  0  0  0
  -24.6540  -31.0840   22.2310 N   0  0  0  0  0  0  0  0  0  0  0  0
  -23.5090  -32.1750   23.8530 O   0  0  0  0  0  0  0  0  0  0  0  0
  -22.7350  -29.4740   22.6610 C   0  0  0  0  0  0  0  0  0  0  0  0
  -21.4140  -29.2800   22.5120 N   0  0  0  0  0  0  0  0  0  0  0  0
  -23.4080  -28.8650   23.4980 O   0  0  0  0  0  0  0  0  0  0  0  0
  -20.9310  -29.8120   21.8010 H   0  0  0  0  0  0  0  0  0  0  0  0
  -18.0540  -28.0340   22.9340 C   0  0  0  0  0  0  0  0  0  0  0  0
  -20.5940  -28.3470   23.2850 C   0  0  0  0  0  3  0  0  0  0  0  0
  -20.7420  -26.9050   22.7450 C   0  0  0  0  0  2  0  0  0  0  0  0
  -19.6800  -26.5320   21.7080 C   0  0  0  0  0  2  0  0  0  0  0  0
  -18.2750  -26.6720   22.2960 C   0  0  0  0  0  2  0  0  0  0  0  0
  -19.1440  -28.8290   23.3780 C   0  0  0  0  0  0  0  0  0  0  0  0
  -18.8830  -30.1050   23.9210 C   0  0  0  0  0  3  0  0  0  0  0  0
  -17.5640  -30.5860   24.0310 C   0  0  0  0  0  3  0  0  0  0  0  0
  -16.4900  -29.7900   23.6030 C   0  0  0  0  0  3  0  0  0  0  0  0
  -16.7350  -28.5150   23.0600 C   0  0  0  0  0  3  0  0  0  0  0  0
  -25.8740  -32.5300   23.9520 C   0  0  0  0  0  3  0  0  0  0  0  0
  -25.5700  -33.9360   24.2520 N   0  0  0  0  0  0  0  0  0  0  0  0
  -25.9150  -34.9720   23.4770 C   0  0  0  0  0  0  0  0  0  0  0  0
  -26.5890  -34.8460   22.4500 O   0  0  0  0  0  0  0  0  0  0  0  0
  -24.9660  -34.1070   25.0430 H   0  0  0  0  0  0  0  0  0  0  0  0
  -24.1880  -36.7620   23.0910 C   0  0  0  0  0  1  0  0  0  0  0  0
  -25.4310  -36.3710   23.9050 C   0  0  0  0  0  3  0  0  0  0  0  0
  -27.5680  -37.2690   24.7110 C   0  0  0  0  0  1  0  0  0  0  0  0
  -26.4650  -37.4170   23.7670 N   0  0  0  0  0  0  0  0  0  0  0  0
  -26.0620  -38.3400   23.8940 H   0  0  0  0  0  0  0  0  0  0  0  0
  -26.3810  -31.7760   25.2450 C   0  0  1  0  0  0  0  0  0  0  0  0
  -25.2810  -31.5560   26.3100 C   0  0  0  0  0  1  0  0  0  0  0  0
  -26.9570  -30.3910   24.8680 C   0  0  0  0  0  1  0  0  0  0  0  0
  -27.5290  -32.5750   25.9040 C   0  0  0  0  0  1  0  0  0  0  0  0
  1 49  1  0
  1  7  1  0
  2  1  2  0
  3  2  1  0
  4  7  2  0
  4  8  1  0
  5  9  2  0
  6  9  1  0
  7  5  1  0
  8  6  2  0
  9 10  1  0
 11 19  1  0
 12 17  1  0
 13 14  1  0
 13 12  1  0
 15 14  1  0
 15 24  1  0
 15 16  1  0
 17 11  1  0
 17 16  1  0
 18 11  2  0
 19 20  1  0
 19  8  1  0
 21 22  2  0
 22 41  1  0
 23 22  1  0
 23 26  1  0
 24 21  1  0
 24 25  1  0
 25 23  2  0
 26 27  1  0
 27 28  2  0
 29 32  1  0
 29 28  1  0
 30 29  2  0
 31 30  1  0
 31 26  2  0
 32 33  1  0
 33 34  1  0
 34 35  2  0
 36 35  1  0
 36 40  1  0
 37 36  2  0
 38 33  2  0
 38 37  1  0
 39 38  1  0
 41 42  1  0
 42 45  1  0
 42 44  1  0
 43 41  2  0
 46 47  1  0
 46 21  1  0
 48 46  1  0
 50 51  1  0
 50 49  1  0
 52 53  1  0
 52 51  1  0
 54 65  2  0
 55 53  1  0
 55 60  1  0
 56 64  1  0
 56 66  1  0
 57 63  1  0
 57 59  1  0
 58 64  1  0
 59 60  2  0
 59 58  1  0
 61 55  2  0
 62 61  1  0
 62 57  2  0
 63 56  1  0
 64 54  1  0
 66 68  2  0
 67 66  1  0
 69 67  1  0
 70 79  2  0
 70 75  1  0
 71 67  1  0
 71 75  1  0
 72 71  1  0
 73 74  1  0
 73 72  1  0
 74 70  1  0
 75 76  2  0
 76 77  1  0
 78 77  2  0
 79 78  1  0
 80 54  1  0
 80 81  1  0
 80 90  1  0
 81 84  1  0
 82 86  1  0
 82 81  1  0
 83 82  2  0
 86 85  1  0
 88 89  1  0
 88 86  1  0
 88 87  1  0
 90 93  1  1
 90 91  1  0
 92 90  1  0
M  ISO  4  11 100  19 100  52 101  53 101
M  END
>  <TORSDO>  (61) 
F 21

>  <SCORE>  (61) 
-13.149

>  <name>  (61) 
60

>  <ligand_id>  (61) 
60

>  <original_smiles>  (61) 
[H]N=C(c1c([H])c(F)c([H])c(N([H])C(=O)N2C([H])([H])C([H])([H])C([H])([H])C([H])(n3nc(-c4c([H])c([H])c(Oc5c([H])c([H])c(F)c([H])c5F)c([H])c4[H])c(C(=O)N([H])[H])c3N([H])[H])C2([H])[H])c1[H])C([H])([H])C([H])([H])C([H])([H])C([H])([H])Oc1c([H])c([H])c2c(c1[H])C([H])([H])N(C(=O)C([H])(N([H])C(=O)C([H])(N([H])C([H])([H])[H])C([H])([H])[H])C(C([H])([H])[H])(C([H])([H])[H])C([H])([H])[H])C([H])(C(=O)N([H])C1([H])c3c([H])c([H])c([H])c([H])c3C([H])([H])C([H])([H])C1([H])[H])C2([H])[H]

>  <smiles>  (61) 
[H]N=C(c1c([H])c(F)c([H])c(N([H])C(=O)N2C([H])([H])C([H])([H])C([H])([H])C([H])(n3nc(-c4c([H])c([H])c(Oc5c([H])c([H])c(F)c([H])c5F)c([H])c4[H])c(C(=O)N([H])[H])c3N([H])[H])C2([H])[H])c1[H])C([H])([H])C([H])([H])C([H])([H])C([H])([H])Oc1c([H])c([H])c2c(c1[H])C([H])([H])N(C(=O)C([H])(N([H])C(=O)C([H])(N([H])C([H])([H])[H])C([H])([H])[H])C(C([H])([H])[H])(C([H])([H])[H])C([H])([H])[H])C([H])(C(=O)N([H])C1([H])c3c([H])c([H])c([H])c([H])c3C([H])([H])C([H])([H])C1([H])[H])C2([H])[H]

$$$$
61:0:0
     RDKit          3D

 93101  0  0  1  0  0  0  0  0999 V2000
  -29.5160  -21.3700   19.3390 C   0  0  0  0  0  3  0  0  0  0  0  0
  -29.4220  -22.7050   20.1880 C   0  0  0  0  0  3  0  0  0  0  0  0
  -29.3900  -24.4230   18.2810 C   0  0  0  0  0  1  0  0  0  0  0  0
  -27.2400  -23.4590   19.1790 C   0  0  0  0  0  1  0  0  0  0  0  0
  -28.6560  -23.9550   19.5540 C   0  0  1  0  0  0  0  0  0  0  0  0
  -28.5350  -25.2000   20.5480 C   0  0  0  0  0  2  0  0  0  0  0  0
  -28.5880  -26.5820   20.0470 O   0  0  0  0  0  0  0  0  0  0  0  0
  -24.6380  -31.7580   23.1400 C   0  0  0  0  0  0  0  0  0  0  0  0
  -27.4260  -27.3490   20.0690 C   0  0  0  0  0  0  0  0  0  0  0  0
  -23.4960  -30.3500   21.4620 C   0  0  0  0  0  3  0  0  0  0  0  0
  -25.0110  -28.8590   20.0460 C   0  0  0  0  0  0  0  0  0  0  0  0
  -26.0230  -30.7480   21.3200 C   0  0  0  0  0  2  0  0  0  0  0  0
  -26.1510  -29.3800   20.6720 C   0  0  0  0  0  0  0  0  0  0  0  0
  -27.3620  -28.6330   20.6810 C   0  0  0  0  0  3  0  0  0  0  0  0
  -26.2740  -26.8810   19.4090 C   0  0  0  0  0  3  0  0  0  0  0  0
  -25.0720  -27.6110   19.4060 C   0  0  0  0  0  3  0  0  0  0  0  0
  -23.7500  -29.6940   20.0790 C   0  0  0  0  0  2  0  0  0  0  0  0
  -24.7360  -30.9680   22.0320 N   0  0  0  0  0  0  0  0  0  0  0  0
  -23.5390  -31.9990   23.6620 O   0  0  0  0  0  0  0  0  0  0  0  0
  -22.8480  -29.3020   22.3990 C   0  0  0  0  0  0  0  0  0  0  0  0
  -21.5280  -29.0990   22.2530 N   0  0  0  0  0  0  0  0  0  0  0  0
  -23.5310  -28.6770   23.2130 O   0  0  0  0  0  0  0  0  0  0  0  0
  -21.0350  -29.6570   21.5690 H   0  0  0  0  0  0  0  0  0  0  0  0
  -18.1650  -27.8470   22.7070 C   0  0  0  0  0  0  0  0  0  0  0  0
  -20.7190  -28.1340   22.9980 C   0  0  0  0  0  3  0  0  0  0  0  0
  -20.8440  -26.7170   22.3910 C   0  0  0  0  0  2  0  0  0  0  0  0
  -19.7510  -26.4030   21.3650 C   0  0  0  0  0  2  0  0  0  0  0  0
  -18.3640  -26.5160   22.0040 C   0  0  0  0  0  2  0  0  0  0  0  0
  -19.2710  -28.6150   23.1600 C   0  0  0  0  0  0  0  0  0  0  0  0
  -19.0320  -29.8610   23.7780 C   0  0  0  0  0  3  0  0  0  0  0  0
  -17.7200  -30.3420   23.9470 C   0  0  0  0  0  3  0  0  0  0  0  0
  -16.6280  -29.5720   23.5090 C   0  0  0  0  0  3  0  0  0  0  0  0
  -16.8520  -28.3270   22.8950 C   0  0  0  0  0  3  0  0  0  0  0  0
  -25.8950  -32.4140   23.7910 C   0  0  0  0  0  3  0  0  0  0  0  0
  -25.5440  -33.7980   24.1400 N   0  0  0  0  0  0  0  0  0  0  0  0
  -25.8520  -34.8710   23.3980 C   0  0  0  0  0  0  0  0  0  0  0  0
  -26.5310  -34.8010   22.3710 O   0  0  0  0  0  0  0  0  0  0  0  0
  -24.9450  -33.9250   24.9430 H   0  0  0  0  0  0  0  0  0  0  0  0
  -24.0730  -36.6130   23.0610 C   0  0  0  0  0  1  0  0  0  0  0  0
  -25.3230  -36.2380   23.8720 C   0  0  0  0  0  3  0  0  0  0  0  0
  -27.4290  -37.1720   24.7190 C   0  0  0  0  0  1  0  0  0  0  0  0
  -26.3250  -37.3220   23.7740 N   0  0  0  0  0  0  0  0  0  0  0  0
  -25.8940  -38.2290   23.9310 H   0  0  0  0  0  0  0  0  0  0  0  0
  -26.4140  -31.6330   25.0590 C   0  0  1  0  0  0  0  0  0  0  0  0
  -25.3120  -31.3420   26.1040 C   0  0  0  0  0  1  0  0  0  0  0  0
  -27.0400  -30.2810   24.6480 C   0  0  0  0  0  1  0  0  0  0  0  0
  -27.5350  -32.4430   25.7510 C   0  0  0  0  0  1  0  0  0  0  0  0
  -30.2160  -20.2190   19.9020 O   0  0  0  0  0  0  0  0  0  0  0  0
  -28.1110  -16.5710   20.3320 C   0  0  0  0  0  3  0  0  0  0  0  0
  -28.1360  -18.9740   19.9350 C   0  0  0  0  0  3  0  0  0  0  0  0
  -30.2350  -17.7660   20.3050 C   0  0  0  0  0  3  0  0  0  0  0  0
  -27.4230  -17.7720   20.0870 C   0  0  0  0  0  0  0  0  0  0  0  0
  -29.5170  -16.5340   20.4500 C   0  0  0  0  0  0  0  0  0  0  0  0
  -29.5450  -19.0010   20.0280 C   0  0  0  0  0  0  0  0  0  0  0  0
  -25.9100  -17.7690   20.0000 C   0  0  0  0  0  1  0  0  0  0  0  0
  -30.6420  -14.2570   20.0420 C   0  0  0  0  0  0  0  0  0  0  0  0
  -30.5080  -11.8770   19.3260 C   0  0  0  0  0  2  0  0  0  0  0  0
  -29.5480  -11.7540   18.1210 C   0  0  0  0  0  2  0  0  0  0  0  0
  -28.0840  -11.6200   18.5810 C   0  0  0  0  0  2  0  0  0  0  0  0
  -27.6990  -12.6880   19.6380 C   0  0  0  0  0  3  0  0  0  0  0  0
  -28.7570  -12.7350   20.7640 C   0  0  0  0  0  2  0  0  0  0  0  0
  -30.0730  -13.0170   20.1530 N   0  0  0  0  0  0  0  0  0  0  0  0
  -31.6720  -14.4630   19.3920 O   0  0  0  0  0  0  0  0  0  0  0  0
  -30.0260  -15.2170   20.7670 N   0  0  0  0  0  0  0  0  0  0  0  0
  -29.4730  -14.7720   21.4830 H   0  0  0  0  0  0  0  0  0  0  0  0
  -25.3490  -13.3810   20.4300 C   0  0  0  0  0  0  0  0  0  0  0  0
  -24.2690  -12.6480   20.8440 C   0  0  0  0  0  0  0  0  0  0  0  0
  -24.6830  -11.2810   20.8050 C   0  0  0  0  0  0  0  0  0  0  0  0
  -26.3550  -12.4640   20.1660 N   0  0  0  0  0  0  0  0  0  0  0  0
  -25.9590  -11.1960   20.4490 N   0  0  0  0  0  0  0  0  0  0  0  0
  -23.9230  -10.0450   21.0320 C   0  0  0  0  0  0  0  0  0  0  0  0
  -24.3320   -9.0910   21.9900 C   0  0  0  0  0  3  0  0  0  0  0  0
  -23.5750   -7.9190   22.2020 C   0  0  0  0  0  3  0  0  0  0  0  0
  -22.3930   -7.6930   21.4580 C   0  0  0  0  0  0  0  0  0  0  0  0
  -22.0020   -8.6350   20.4900 C   0  0  0  0  0  3  0  0  0  0  0  0
  -22.7600   -9.7980   20.2750 C   0  0  0  0  0  3  0  0  0  0  0  0
  -21.6070   -6.5720   21.5780 O   0  0  0  0  0  0  0  0  0  0  0  0
  -21.5060   -5.8880   22.7640 C   0  0  0  0  0  0  0  0  0  0  0  0
  -21.0630   -6.5140   23.9490 C   0  0  0  0  0  3  0  0  0  0  0  0
  -20.9070   -5.7580   25.1280 C   0  0  0  0  0  3  0  0  0  0  0  0
  -21.1820   -4.3780   25.1220 C   0  0  0  0  0  0  0  0  0  0  0  0
  -21.6170   -3.7520   23.9400 C   0  0  0  0  0  3  0  0  0  0  0  0
  -21.7750   -4.5050   22.7640 C   0  0  0  0  0  0  0  0  0  0  0  0
  -22.1740   -3.8930   21.6220 F   0  0  0  0  0  0  0  0  0  0  0  0
  -21.0250   -3.6480   26.2510 F   0  0  0  0  0  0  0  0  0  0  0  0
  -22.8990  -13.1730   21.1660 C   0  0  0  0  0  0  0  0  0  0  0  0
  -22.1830  -12.5090   22.0660 N   0  0  0  0  0  0  0  0  0  0  0  0
  -22.4750  -14.2080   20.6540 O   0  0  0  0  0  0  0  0  0  0  0  0
  -22.5380  -11.6710   22.5020 H   0  0  0  0  0  0  0  0  0  0  0  0
  -21.2650  -12.8440   22.3210 H   0  0  0  0  0  0  0  0  0  0  0  0
  -25.5560  -14.7440   20.2390 N   0  0  0  0  0  0  0  0  0  0  0  0
  -24.8230  -15.4300   20.3790 H   0  0  0  0  0  0  0  0  0  0  0  0
  -26.4220  -15.1510   19.9090 H   0  0  0  0  0  0  0  0  0  0  0  0
  1 48  1  0
  1  2  2  0
  5  3  1  6
  4  5  1  0
  5  2  1  0
  5  6  1  0
  7  9  1  0
  7  6  1  0
  8 19  2  0
  9 14  1  0
 10 18  1  0
 10 20  1  0
 11 17  1  0
 11 13  1  0
 12 18  1  0
 13 14  2  0
 13 12  1  0
 15  9  2  0
 16 15  1  0
 16 11  2  0
 17 10  1  0
 18  8  1  0
 20 22  2  0
 21 20  1  0
 23 21  1  0
 24 33  2  0
 24 29  1  0
 25 21  1  0
 25 29  1  0
 26 25  1  0
 27 28  1  0
 27 26  1  0
 28 24  1  0
 29 30  2  0
 30 31  1  0
 32 31  2  0
 33 32  1  0
 34  8  1  0
 34 35  1  0
 34 44  1  0
 35 38  1  0
 36 40  1  0
 36 35  1  0
 37 36  2  0
 40 39  1  0
 42 40  1  0
 42 43  1  0
 42 41  1  0
 44 47  1  1
 44 45  1  0
 46 44  1  0
 48 54  1  0
 49 53  1  0
 50 54  2  0
 50 52  1  0
 51 53  2  0
 52 49  2  0
 53 64  1  0
 54 51  1  0
 55 52  1  0
 56 62  1  0
 56 64  1  0
 57 62  1  0
 58 59  1  0
 58 57  1  0
 60 59  1  0
 60 69  1  0
 60 61  1  0
 62 61  1  0
 63 56  2  0
 64 65  1  0
 66 67  2  0
 67 86  1  0
 68 67  1  0
 68 71  1  0
 69 66  1  0
 69 70  1  0
 70 68  2  0
 71 72  1  0
 72 73  2  0
 74 77  1  0
 74 73  1  0
 75 74  2  0
 76 75  1  0
 76 71  2  0
 77 78  1  0
 78 83  2  0
 78 79  1  0
 79 80  2  0
 81 80  1  0
 81 85  1  0
 82 81  2  0
 83 82  1  0
 84 83  1  0
 86 87  1  0
 87 90  1  0
 87 89  1  0
 88 86  2  0
 91 92  1  0
 91 66  1  0
 93 91  1  0
M  ISO  4   6 101   7 101  56 100  64 100
M  END
>  <TORSDO>  (62) 
F 21

>  <SCORE>  (62) 
-12.979

>  <name>  (62) 
61

>  <ligand_id>  (62) 
61

>  <original_smiles>  (62) 
[H]c1c([H])c([H])c2c(c1[H])C([H])([H])C([H])([H])C([H])([H])C2([H])N([H])C(=O)C1([H])N(C(=O)C([H])(N([H])C(=O)C([H])(N([H])C([H])([H])[H])C([H])([H])[H])C(C([H])([H])[H])(C([H])([H])[H])C([H])([H])[H])C([H])([H])c2c([H])c(OC([H])([H])C(C([H])([H])[H])(C([H])([H])[H])C([H])([H])C([H])([H])Oc3c([H])c(N([H])C(=O)N4C([H])([H])C([H])([H])C([H])([H])C([H])(n5nc(-c6c([H])c([H])c(Oc7c([H])c([H])c(F)c([H])c7F)c([H])c6[H])c(C(=O)N([H])[H])c5N([H])[H])C4([H])[H])c([H])c(C([H])([H])[H])c3[H])c([H])c([H])c2C1([H])[H]

>  <smiles>  (62) 
[H]c1c([H])c([H])c2c(c1[H])C([H])([H])C([H])([H])C([H])([H])C2([H])N([H])C(=O)C1([H])N(C(=O)C([H])(N([H])C(=O)C([H])(N([H])C([H])([H])[H])C([H])([H])[H])C(C([H])([H])[H])(C([H])([H])[H])C([H])([H])[H])C([H])([H])c2c([H])c(OC([H])([H])C(C([H])([H])[H])(C([H])([H])[H])C([H])([H])C([H])([H])Oc3c([H])c(N([H])C(=O)N4C([H])([H])C([H])([H])C([H])([H])C([H])(n5nc(-c6c([H])c([H])c(Oc7c([H])c([H])c(F)c([H])c7F)c([H])c6[H])c(C(=O)N([H])[H])c5N([H])[H])C4([H])[H])c([H])c(C([H])([H])[H])c3[H])c([H])c([H])c2C1([H])[H]

$$$$
62:0:0
     RDKit          3D

 89 97  0  0  1  0  0  0  0  0999 V2000
  -29.2950  -21.0210   20.6670 O   0  0  0  0  0  0  0  0  0  0  0  0
  -29.9360  -18.4520   17.9800 C   0  0  0  0  0  3  0  0  0  0  0  0
  -30.0500  -17.2450   18.6970 C   0  0  0  0  0  3  0  0  0  0  0  0
  -29.6640  -19.6750   18.6240 C   0  0  0  0  0  3  0  0  0  0  0  0
  -29.6110  -18.4860   20.7420 C   0  0  0  0  0  3  0  0  0  0  0  0
  -29.8800  -17.2050   20.0990 C   0  0  0  0  0  0  0  0  0  0  0  0
  -29.5100  -19.7580   20.0290 C   0  0  0  0  0  0  0  0  0  0  0  0
  -30.6010  -14.7370   20.4170 C   0  0  0  0  0  0  0  0  0  0  0  0
  -30.3770  -12.4630   19.4240 C   0  0  0  0  0  2  0  0  0  0  0  0
  -29.4550  -12.5730   18.1880 C   0  0  0  0  0  2  0  0  0  0  0  0
  -27.9790  -12.4180   18.5990 C   0  0  0  0  0  2  0  0  0  0  0  0
  -27.6070  -13.2920   19.8260 C   0  0  0  0  0  3  0  0  0  0  0  0
  -28.6550  -13.1820   20.9580 C   0  0  0  0  0  2  0  0  0  0  0  0
  -29.9670  -13.5140   20.3850 N   0  0  0  0  0  0  0  0  0  0  0  0
  -31.7670  -14.8330   20.0240 O   0  0  0  0  0  0  0  0  0  0  0  0
  -29.8780  -15.8700   20.7530 N   0  0  0  0  0  0  0  0  0  0  0  0
  -29.0650  -15.6850   21.3230 H   0  0  0  0  0  0  0  0  0  0  0  0
  -25.2110  -13.8880   20.5220 C   0  0  0  0  0  0  0  0  0  0  0  0
  -24.1410  -13.1180   20.8890 C   0  0  0  0  0  0  0  0  0  0  0  0
  -24.6030  -11.7650   20.8710 C   0  0  0  0  0  0  0  0  0  0  0  0
  -26.2560  -13.0060   20.3030 N   0  0  0  0  0  0  0  0  0  0  0  0
  -25.8960  -11.7250   20.5750 N   0  0  0  0  0  0  0  0  0  0  0  0
  -23.8720  -10.5060   21.0630 C   0  0  0  0  0  0  0  0  0  0  0  0
  -24.3070   -9.5330   21.9900 C   0  0  0  0  0  3  0  0  0  0  0  0
  -23.5760   -8.3390   22.1720 C   0  0  0  0  0  3  0  0  0  0  0  0
  -22.3950   -8.1100   21.4260 C   0  0  0  0  0  0  0  0  0  0  0  0
  -21.9790   -9.0710   20.4880 C   0  0  0  0  0  3  0  0  0  0  0  0
  -22.7110  -10.2550   20.3040 C   0  0  0  0  0  3  0  0  0  0  0  0
  -21.6360   -6.9680   21.5170 O   0  0  0  0  0  0  0  0  0  0  0  0
  -21.6070   -6.2110   22.6600 C   0  0  0  0  0  0  0  0  0  0  0  0
  -21.2230   -6.7560   23.9050 C   0  0  0  0  0  3  0  0  0  0  0  0
  -21.1400   -5.9270   25.0420 C   0  0  0  0  0  3  0  0  0  0  0  0
  -21.4290   -4.5530   24.9340 C   0  0  0  0  0  0  0  0  0  0  0  0
  -21.8060   -4.0080   23.6940 C   0  0  0  0  0  3  0  0  0  0  0  0
  -21.8920   -4.8340   22.5600 C   0  0  0  0  0  0  0  0  0  0  0  0
  -22.2340   -4.2990   21.3640 F   0  0  0  0  0  0  0  0  0  0  0  0
  -21.3430   -3.7540   26.0230 F   0  0  0  0  0  0  0  0  0  0  0  0
  -22.7420  -13.5990   21.1430 C   0  0  0  0  0  0  0  0  0  0  0  0
  -22.0050  -12.9120   22.0090 N   0  0  0  0  0  0  0  0  0  0  0  0
  -22.3110  -14.6210   20.6110 O   0  0  0  0  0  0  0  0  0  0  0  0
  -22.3650  -12.0850   22.4620 H   0  0  0  0  0  0  0  0  0  0  0  0
  -21.0670  -13.2170   22.2210 H   0  0  0  0  0  0  0  0  0  0  0  0
  -25.3780  -15.2570   20.3340 N   0  0  0  0  0  0  0  0  0  0  0  0
  -24.6100  -15.9130   20.4280 H   0  0  0  0  0  0  0  0  0  0  0  0
  -26.2290  -15.6900   19.9960 H   0  0  0  0  0  0  0  0  0  0  0  0
  -28.9080  -22.2590   19.9150 C   0  0  0  0  0  3  0  0  0  0  0  0
  -28.9510  -23.7300   20.5960 C   0  0  0  0  0  3  0  0  0  0  0  0
  -28.1250  -24.9400   19.9070 C   0  0  0  0  0  2  0  0  0  0  0  0
  -28.2870  -26.3920   20.2760 O   0  0  0  0  0  0  0  0  0  0  0  0
  -24.6020  -31.8830   23.2620 C   0  0  0  0  0  0  0  0  0  0  0  0
  -27.1880  -27.2840   20.1920 C   0  0  0  0  0  0  0  0  0  0  0  0
  -23.3890  -30.4870   21.6280 C   0  0  0  0  0  3  0  0  0  0  0  0
  -24.8330  -28.9380   20.1890 C   0  0  0  0  0  0  0  0  0  0  0  0
  -25.9320  -30.7900   21.4390 C   0  0  0  0  0  2  0  0  0  0  0  0
  -26.0060  -29.4090   20.7890 C   0  0  0  0  0  0  0  0  0  0  0  0
  -27.1820  -28.5920   20.7870 C   0  0  0  0  0  3  0  0  0  0  0  0
  -25.9950  -26.8960   19.5370 C   0  0  0  0  0  3  0  0  0  0  0  0
  -24.8330  -27.6880   19.5520 C   0  0  0  0  0  3  0  0  0  0  0  0
  -23.5980  -29.8170   20.2450 C   0  0  0  0  0  2  0  0  0  0  0  0
  -24.6600  -31.0720   22.1650 N   0  0  0  0  0  0  0  0  0  0  0  0
  -23.5200  -32.1630   23.8010 O   0  0  0  0  0  0  0  0  0  0  0  0
  -22.7280  -29.4710   22.5900 C   0  0  0  0  0  0  0  0  0  0  0  0
  -21.4020  -29.2910   22.4650 N   0  0  0  0  0  0  0  0  0  0  0  0
  -23.4080  -28.8490   23.4100 O   0  0  0  0  0  0  0  0  0  0  0  0
  -20.9100  -29.8450   21.7780 H   0  0  0  0  0  0  0  0  0  0  0  0
  -18.0310  -28.0740   22.9630 C   0  0  0  0  0  0  0  0  0  0  0  0
  -20.5860  -28.3530   23.2400 C   0  0  0  0  0  3  0  0  0  0  0  0
  -20.7000  -26.9170   22.6750 C   0  0  0  0  0  2  0  0  0  0  0  0
  -19.6040  -26.5800   21.6590 C   0  0  0  0  0  2  0  0  0  0  0  0
  -18.2190  -26.7210   22.2970 C   0  0  0  0  0  2  0  0  0  0  0  0
  -19.1430  -28.8470   23.3920 C   0  0  0  0  0  0  0  0  0  0  0  0
  -18.9130  -30.1120   23.9750 C   0  0  0  0  0  3  0  0  0  0  0  0
  -17.6040  -30.6050   24.1340 C   0  0  0  0  0  3  0  0  0  0  0  0
  -16.5070  -29.8300   23.7210 C   0  0  0  0  0  3  0  0  0  0  0  0
  -16.7200  -28.5660   23.1410 C   0  0  0  0  0  3  0  0  0  0  0  0
  -25.8860  -32.5160   23.8780 C   0  0  0  0  0  3  0  0  0  0  0  0
  -26.4050  -31.7460   25.1540 C   0  0  1  0  0  0  0  0  0  0  0  0
  -25.3140  -31.5150   26.2270 C   0  0  0  0  0  1  0  0  0  0  0  0
  -26.9810  -30.3650   24.7650 C   0  0  0  0  0  1  0  0  0  0  0  0
  -27.5610  -32.5370   25.8080 C   0  0  0  0  0  1  0  0  0  0  0  0
  -25.5810  -33.9160   24.2080 N   0  0  0  0  0  0  0  0  0  0  0  0
  -25.9070  -34.9680   23.4450 C   0  0  0  0  0  0  0  0  0  0  0  0
  -26.5670  -34.8610   22.4080 O   0  0  0  0  0  0  0  0  0  0  0  0
  -24.9960  -34.0710   25.0160 H   0  0  0  0  0  0  0  0  0  0  0  0
  -24.1760  -36.7610   23.1060 C   0  0  0  0  0  1  0  0  0  0  0  0
  -25.4260  -36.3570   23.9050 C   0  0  0  0  0  3  0  0  0  0  0  0
  -27.5730  -37.2410   24.7060 C   0  0  0  0  0  1  0  0  0  0  0  0
  -26.4580  -37.4100   23.7790 N   0  0  0  0  0  0  0  0  0  0  0  0
  -26.0550  -38.3300   23.9340 H   0  0  0  0  0  0  0  0  0  0  0  0
  2  4  2  0
  2  3  1  0
  3  6  2  0
  4  7  1  0
  6  5  1  0
  6 16  1  0
  7  1  1  0
  7  5  2  0
  8 16  1  0
  9 14  1  0
 10 11  1  0
 10  9  1  0
 12 11  1  0
 12 21  1  0
 12 13  1  0
 14  8  1  0
 14 13  1  0
 15  8  2  0
 16 17  1  0
 18 19  2  0
 19 38  1  0
 20 19  1  0
 20 23  1  0
 21 18  1  0
 21 22  1  0
 22 20  2  0
 23 24  1  0
 24 25  2  0
 26 29  1  0
 26 25  1  0
 27 26  2  0
 28 27  1  0
 28 23  2  0
 29 30  1  0
 30 31  1  0
 31 32  2  0
 33 32  1  0
 33 37  1  0
 34 33  2  0
 35 30  2  0
 35 34  1  0
 36 35  1  0
 38 39  1  0
 39 42  1  0
 39 41  1  0
 40 38  2  0
 43 44  1  0
 43 18  1  0
 45 43  1  0
 46 47  2  0
 46  1  1  0
 48 49  1  0
 48 47  1  0
 50 61  2  0
 51 49  1  0
 51 56  1  0
 52 60  1  0
 52 62  1  0
 53 59  1  0
 53 55  1  0
 54 60  1  0
 55 54  1  0
 56 55  2  0
 57 58  1  0
 57 51  2  0
 58 53  2  0
 59 52  1  0
 60 50  1  0
 62 64  2  0
 63 62  1  0
 65 63  1  0
 66 75  2  0
 66 71  1  0
 67 63  1  0
 67 71  1  0
 68 67  1  0
 69 70  1  0
 69 68  1  0
 70 66  1  0
 71 72  2  0
 72 73  1  0
 74 73  2  0
 75 74  1  0
 76 50  1  0
 76 81  1  0
 76 77  1  0
 77 80  1  1
 77 78  1  0
 79 77  1  0
 81 84  1  0
 82 86  1  0
 82 81  1  0
 83 82  2  0
 86 85  1  0
 88 86  1  0
 88 89  1  0
 88 87  1  0
M  ISO  4   8 100  16 100  48 101  49 101
M  END
>  <TORSDO>  (63) 
F 20

>  <SCORE>  (63) 
-13.721

>  <name>  (63) 
62

>  <ligand_id>  (63) 
62

>  <original_smiles>  (63) 
[H]c1c([H])c(OC([H])([H])C([H])([H])C([H])([H])Oc2c([H])c([H])c3c(c2[H])C([H])([H])N(C(=O)C([H])(N([H])C(=O)C([H])(N([H])C([H])([H])[H])C([H])([H])[H])C(C([H])([H])[H])(C([H])([H])[H])C([H])([H])[H])C([H])(C(=O)N([H])C2([H])c4c([H])c([H])c([H])c([H])c4C([H])([H])C([H])([H])C2([H])[H])C3([H])[H])c([H])c(N([H])C(=O)N2C([H])([H])C([H])([H])C([H])([H])C([H])(n3nc(-c4c([H])c([H])c(Oc5c([H])c([H])c(F)c([H])c5F)c([H])c4[H])c(C(=O)N([H])[H])c3N([H])[H])C2([H])[H])c1[H]

>  <smiles>  (63) 
[H]c1c([H])c(OC([H])([H])C([H])([H])C([H])([H])Oc2c([H])c([H])c3c(c2[H])C([H])([H])N(C(=O)C([H])(N([H])C(=O)C([H])(N([H])C([H])([H])[H])C([H])([H])[H])C(C([H])([H])[H])(C([H])([H])[H])C([H])([H])[H])C([H])(C(=O)N([H])C2([H])c4c([H])c([H])c([H])c([H])c4C([H])([H])C([H])([H])C2([H])[H])C3([H])[H])c([H])c(N([H])C(=O)N2C([H])([H])C([H])([H])C([H])([H])C([H])(n3nc(-c4c([H])c([H])c(Oc5c([H])c([H])c(F)c([H])c5F)c([H])c4[H])c(C(=O)N([H])[H])c3N([H])[H])C2([H])[H])c1[H]

$$$$
63:0:0
     RDKit          3D

 99108  0  0  1  0  0  0  0  0999 V2000
  -32.2710  -21.2860   22.9110 C   0  0  0  0  0  3  0  0  0  0  0  0
  -31.6210  -22.5040   23.2430 C   0  0  0  0  0  3  0  0  0  0  0  0
  -31.5440  -20.7080   21.9080 C   0  0  0  0  0  0  0  0  0  0  0  0
  -30.5310  -22.5880   22.4230 C   0  0  0  0  0  0  0  0  0  0  0  0
  -30.5080  -21.5290   21.5650 O   0  0  0  0  0  0  0  0  0  0  0  0
  -31.7650  -19.4090   21.1680 C   0  0  0  0  0  2  0  0  0  0  0  0
  -29.1840  -19.6220   18.3030 C   0  0  0  0  0  3  0  0  0  0  0  0
  -29.8170  -19.8200   19.5400 C   0  0  0  0  0  3  0  0  0  0  0  0
  -29.7030  -18.6860   17.3950 C   0  0  0  0  0  3  0  0  0  0  0  0
  -30.9670  -19.0790   19.8950 C   0  0  0  0  0  0  0  0  0  0  0  0
  -31.3810  -18.0040   19.0500 C   0  0  0  0  0  0  0  0  0  0  0  0
  -30.8040  -17.8800   17.7530 C   0  0  0  0  0  0  0  0  0  0  0  0
  -31.4900  -17.4410   15.4510 C   0  0  0  0  0  1  0  0  0  0  0  0
  -31.3340  -16.9720   16.8250 N   0  0  0  0  0  0  0  0  0  0  0  0
  -32.1170  -16.4210   17.1650 H   0  0  0  0  0  0  0  0  0  0  0  0
  -32.4420  -16.9930   19.5250 C   0  0  0  0  0  2  0  0  0  0  0  0
  -32.4840  -14.5390   19.7980 C   0  0  0  0  0  0  0  0  0  0  0  0
  -31.8630  -12.3280   18.9510 C   0  0  0  0  0  2  0  0  0  0  0  0
  -30.9360  -12.5420   17.7360 C   0  0  0  0  0  2  0  0  0  0  0  0
  -29.4670  -12.6730   18.1840 C   0  0  0  0  0  2  0  0  0  0  0  0
  -29.2800  -13.6830   19.3460 C   0  0  0  0  0  3  0  0  0  0  0  0
  -30.3180  -13.4440   20.4650 C   0  0  0  0  0  2  0  0  0  0  0  0
  -31.6580  -13.4660   19.8560 N   0  0  0  0  0  0  0  0  0  0  0  0
  -33.6400  -14.4880   19.3670 O   0  0  0  0  0  0  0  0  0  0  0  0
  -31.8870  -15.7190   19.9940 N   0  0  0  0  0  0  0  0  0  0  0  0
  -30.9260  -15.7130   20.3020 H   0  0  0  0  0  0  0  0  0  0  0  0
  -27.0760  -14.7360   20.1640 C   0  0  0  0  0  0  0  0  0  0  0  0
  -25.8830  -14.1800   20.5360 C   0  0  0  0  0  0  0  0  0  0  0  0
  -26.0570  -12.7660   20.4270 C   0  0  0  0  0  0  0  0  0  0  0  0
  -27.9130  -13.6720   19.8570 N   0  0  0  0  0  0  0  0  0  0  0  0
  -27.3010  -12.4800   20.0700 N   0  0  0  0  0  0  0  0  0  0  0  0
  -25.0930  -11.6710   20.5820 C   0  0  0  0  0  0  0  0  0  0  0  0
  -25.3750  -10.5540   21.4000 C   0  0  0  0  0  3  0  0  0  0  0  0
  -24.4270   -9.5190   21.5490 C   0  0  0  0  0  3  0  0  0  0  0  0
  -23.1830   -9.5950   20.8810 C   0  0  0  0  0  0  0  0  0  0  0  0
  -22.9160  -10.6980   20.0500 C   0  0  0  0  0  3  0  0  0  0  0  0
  -23.8630  -11.7250   19.8980 C   0  0  0  0  0  3  0  0  0  0  0  0
  -22.2120   -8.6260   20.9460 O   0  0  0  0  0  0  0  0  0  0  0  0
  -22.1150   -7.7760   22.0180 C   0  0  0  0  0  0  0  0  0  0  0  0
  -21.9540   -8.2550   23.3360 C   0  0  0  0  0  3  0  0  0  0  0  0
  -21.7860   -7.3460   24.4000 C   0  0  0  0  0  3  0  0  0  0  0  0
  -21.7690   -5.9610   24.1490 C   0  0  0  0  0  0  0  0  0  0  0  0
  -21.9240   -5.4830   22.8350 C   0  0  0  0  0  3  0  0  0  0  0  0
  -22.0930   -6.3880   21.7730 C   0  0  0  0  0  0  0  0  0  0  0  0
  -22.2190   -5.9210   20.5070 F   0  0  0  0  0  0  0  0  0  0  0  0
  -21.6010   -5.0890   25.1690 F   0  0  0  0  0  0  0  0  0  0  0  0
  -24.6200  -14.9160   20.8810 C   0  0  0  0  0  0  0  0  0  0  0  0
  -23.8010  -14.3530   21.7620 N   0  0  0  0  0  0  0  0  0  0  0  0
  -24.3740  -16.0230   20.4010 O   0  0  0  0  0  0  0  0  0  0  0  0
  -24.0110  -13.4550   22.1710 H   0  0  0  0  0  0  0  0  0  0  0  0
  -22.9540  -14.8300   22.0320 H   0  0  0  0  0  0  0  0  0  0  0  0
  -27.5090  -16.0530   20.0410 N   0  0  0  0  0  0  0  0  0  0  0  0
  -26.8840  -16.8330   20.1970 H   0  0  0  0  0  0  0  0  0  0  0  0
  -28.3940  -16.3400   19.6210 H   0  0  0  0  0  0  0  0  0  0  0  0
  -29.3730  -23.5300   22.3680 C   0  0  0  0  0  2  0  0  0  0  0  0
  -29.3280  -24.5020   21.1660 C   0  0  0  0  0  2  0  0  0  0  0  0
  -27.9820  -26.2450   22.4840 C   0  0  0  0  0  1  0  0  0  0  0  0
  -28.0770  -25.4130   21.1760 C   0  0  0  0  0  3  0  0  0  0  0  0
  -28.0640  -26.2400   19.9910 O   0  0  0  0  0  0  0  0  0  0  0  0
  -24.4840  -31.4730   23.0660 C   0  0  0  0  0  0  0  0  0  0  0  0
  -26.9480  -27.0390   19.9040 C   0  0  0  0  0  0  0  0  0  0  0  0
  -23.2110  -30.1520   21.4020 C   0  0  0  0  0  3  0  0  0  0  0  0
  -24.5990  -28.6010   19.9230 C   0  0  0  0  0  0  0  0  0  0  0  0
  -25.7370  -30.4520   21.1700 C   0  0  0  0  0  2  0  0  0  0  0  0
  -25.7760  -29.0980   20.4980 C   0  0  0  0  0  0  0  0  0  0  0  0
  -26.9580  -28.3360   20.4550 C   0  0  0  0  0  3  0  0  0  0  0  0
  -25.7670  -26.5500   19.3100 C   0  0  0  0  0  3  0  0  0  0  0  0
  -24.5920  -27.3310   19.3130 C   0  0  0  0  0  3  0  0  0  0  0  0
  -23.3810  -29.4910   20.0050 C   0  0  0  0  0  2  0  0  0  0  0  0
  -24.4980  -30.7020   21.9410 N   0  0  0  0  0  0  0  0  0  0  0  0
  -23.4190  -31.7700   23.6250 O   0  0  0  0  0  0  0  0  0  0  0  0
  -22.5320  -29.1350   22.3470 C   0  0  0  0  0  0  0  0  0  0  0  0
  -21.1970  -29.0320   22.2530 N   0  0  0  0  0  0  0  0  0  0  0  0
  -23.2020  -28.4430   23.1200 O   0  0  0  0  0  0  0  0  0  0  0  0
  -20.7200  -29.6460   21.6060 H   0  0  0  0  0  0  0  0  0  0  0  0
  -17.7720  -28.0420   22.8290 C   0  0  0  0  0  0  0  0  0  0  0  0
  -20.3500  -28.1160   23.0140 C   0  0  0  0  0  3  0  0  0  0  0  0
  -20.3340  -26.7090   22.3730 C   0  0  0  0  0  2  0  0  0  0  0  0
  -19.1780  -26.5080   21.3890 C   0  0  0  0  0  2  0  0  0  0  0  0
  -17.8330  -26.7160   22.0900 C   0  0  0  0  0  2  0  0  0  0  0  0
  -18.9550  -28.7070   23.2490 C   0  0  0  0  0  0  0  0  0  0  0  0
  -18.8450  -29.9560   23.8980 C   0  0  0  0  0  3  0  0  0  0  0  0
  -17.5850  -30.5360   24.1350 C   0  0  0  0  0  3  0  0  0  0  0  0
  -16.4170  -29.8650   23.7320 C   0  0  0  0  0  3  0  0  0  0  0  0
  -16.5120  -28.6220   23.0830 C   0  0  0  0  0  3  0  0  0  0  0  0
  -25.7990  -32.0400   23.6880 C   0  0  0  0  0  3  0  0  0  0  0  0
  -25.5470  -33.4390   24.0620 N   0  0  0  0  0  0  0  0  0  0  0  0
  -25.9290  -34.4990   23.3360 C   0  0  0  0  0  0  0  0  0  0  0  0
  -26.6000  -34.3990   22.3060 O   0  0  0  0  0  0  0  0  0  0  0  0
  -24.9560  -33.5940   24.8660 H   0  0  0  0  0  0  0  0  0  0  0  0
  -24.2810  -36.3710   23.0190 C   0  0  0  0  0  1  0  0  0  0  0  0
  -25.4940  -35.8920   23.8310 C   0  0  0  0  0  3  0  0  0  0  0  0
  -27.6540  -36.6610   24.7110 C   0  0  0  0  0  1  0  0  0  0  0  0
  -26.5720  -36.9030   23.7600 N   0  0  0  0  0  0  0  0  0  0  0  0
  -26.2040  -37.8350   23.9310 H   0  0  0  0  0  0  0  0  0  0  0  0
  -26.3060  -31.2130   24.9340 C   0  0  1  0  0  0  0  0  0  0  0  0
  -25.2170  -30.9750   26.0070 C   0  0  0  0  0  1  0  0  0  0  0  0
  -26.8440  -29.8350   24.4820 C   0  0  0  0  0  1  0  0  0  0  0  0
  -27.4880  -31.9470   25.6080 C   0  0  0  0  0  1  0  0  0  0  0  0
  1  2  1  0
  3  1  2  0
  4  2  2  0
  5  3  1  0
  5  4  1  0
  6  3  1  0
  7  8  1  0
  8 10  2  0
  9 12  1  0
  9  7  2  0
 10  6  1  0
 11 16  1  0
 11 10  1  0
 12 11  2  0
 13 14  1  0
 14 15  1  0
 14 12  1  0
 16 25  1  0
 17 23  1  0
 17 25  1  0
 18 23  1  0
 19 20  1  0
 19 18  1  0
 21 20  1  0
 21 30  1  0
 21 22  1  0
 23 22  1  0
 24 17  2  0
 25 26  1  0
 27 28  2  0
 28 47  1  0
 29 28  1  0
 29 32  1  0
 30 31  1  0
 30 27  1  0
 31 29  2  0
 32 33  1  0
 33 34  2  0
 35 38  1  0
 35 34  1  0
 36 35  2  0
 37 36  1  0
 37 32  2  0
 38 39  1  0
 39 40  1  0
 40 41  2  0
 42 41  1  0
 42 46  1  0
 43 42  2  0
 44 39  2  0
 44 43  1  0
 45 44  1  0
 47 48  1  0
 48 51  1  0
 48 50  1  0
 49 47  2  0
 52 27  1  0
 52 53  1  0
 54 52  1  0
 55  4  1  0
 56 58  1  0
 56 55  1  0
 58 57  1  0
 59 58  1  0
 60 71  2  0
 61 59  1  0
 61 66  1  0
 62 70  1  0
 62 72  1  0
 63 69  1  0
 63 65  1  0
 64 70  1  0
 65 64  1  0
 66 65  2  0
 67 68  1  0
 67 61  2  0
 68 63  2  0
 69 62  1  0
 70 60  1  0
 72 74  2  0
 73 72  1  0
 75 73  1  0
 76 85  2  0
 76 81  1  0
 77 73  1  0
 77 81  1  0
 78 77  1  0
 79 80  1  0
 79 78  1  0
 80 76  1  0
 81 82  2  0
 82 83  1  0
 84 83  2  0
 85 84  1  0
 86 60  1  0
 86 87  1  0
 86 96  1  0
 87 90  1  0
 88 92  1  0
 88 87  1  0
 89 88  2  0
 92 91  1  0
 94 92  1  0
 94 95  1  0
 94 93  1  0
 96 99  1  1
 96 97  1  0
 98 96  1  0
M  ISO  4  17 100  25 100  58 101  59 101
M  END
>  <TORSDO>  (64) 
F 23

>  <SCORE>  (64) 
-9.892

>  <name>  (64) 
63

>  <ligand_id>  (64) 
63

>  <original_smiles>  (64) 
[H]c1c(C([H])([H])c2c([H])c([H])c([H])c(N([H])C([H])([H])[H])c2C([H])([H])N([H])C(=O)N2C([H])([H])C([H])([H])C([H])([H])C([H])(n3nc(-c4c([H])c([H])c(Oc5c([H])c([H])c(F)c([H])c5F)c([H])c4[H])c(C(=O)N([H])[H])c3N([H])[H])C2([H])[H])oc(C([H])([H])C([H])([H])C([H])(Oc2c([H])c([H])c3c(c2[H])C([H])([H])N(C(=O)C([H])(N([H])C(=O)C([H])(N([H])C([H])([H])[H])C([H])([H])[H])C(C([H])([H])[H])(C([H])([H])[H])C([H])([H])[H])C([H])(C(=O)N([H])C2([H])c4c([H])c([H])c([H])c([H])c4C([H])([H])C([H])([H])C2([H])[H])C3([H])[H])C([H])([H])[H])c1[H]

>  <smiles>  (64) 
[H]c1c(C([H])([H])c2c([H])c([H])c([H])c(N([H])C([H])([H])[H])c2C([H])([H])N([H])C(=O)N2C([H])([H])C([H])([H])C([H])([H])C([H])(n3nc(-c4c([H])c([H])c(Oc5c([H])c([H])c(F)c([H])c5F)c([H])c4[H])c(C(=O)N([H])[H])c3N([H])[H])C2([H])[H])oc(C([H])([H])C([H])([H])C([H])(Oc2c([H])c([H])c3c(c2[H])C([H])([H])N(C(=O)C([H])(N([H])C(=O)C([H])(N([H])C([H])([H])[H])C([H])([H])[H])C(C([H])([H])[H])(C([H])([H])[H])C([H])([H])[H])C([H])(C(=O)N([H])C2([H])c4c([H])c([H])c([H])c([H])c4C([H])([H])C([H])([H])C2([H])[H])C3([H])[H])C([H])([H])[H])c1[H]

$$$$
64:0:0
     RDKit          3D

102111  0  0  1  0  0  0  0  0999 V2000
  -31.0200  -23.1760   19.9750 C   0  0  0  0  0  3  0  0  0  0  0  0
  -32.2700  -19.8970   21.1750 C   0  0  0  0  0  2  0  0  0  0  0  0
  -31.6500  -19.5900   19.8190 C   0  0  0  0  0  2  0  0  0  0  0  0
  -31.7730  -21.3080   21.4560 C   0  0  0  0  0  2  0  0  0  0  0  0
  -31.7320  -20.9300   19.0640 C   0  0  0  0  0  3  0  0  0  0  0  0
  -31.5290  -21.9280   20.1300 N   0  0  0  0  0  0  0  0  0  0  0  0
  -30.7970  -23.6730   18.7630 N   0  0  0  0  0  0  0  0  0  0  0  0
  -30.4460  -24.6180   18.6910 H   0  0  0  0  0  0  0  0  0  0  0  0
  -31.0310  -23.1800   17.9200 H   0  0  0  0  0  0  0  0  0  0  0  0
  -29.9310  -23.3500   22.2260 C   0  0  0  0  0  3  0  0  0  0  0  0
  -29.2400  -24.1580   23.1470 C   0  0  0  0  0  3  0  0  0  0  0  0
  -30.7670  -25.3480   21.1010 C   0  0  0  0  0  3  0  0  0  0  0  0
  -30.6060  -23.9500   21.1420 C   0  0  0  0  0  0  0  0  0  0  0  0
  -30.0960  -26.1610   22.0350 C   0  0  0  0  0  0  0  0  0  0  0  0
  -29.2610  -25.5630   23.0050 C   0  0  0  0  0  0  0  0  0  0  0  0
  -30.1870  -27.6710   21.9290 C   0  0  0  0  0  1  0  0  0  0  0  0
  -28.4330  -26.3640   23.7420 O   0  0  0  0  0  0  0  0  0  0  0  0
  -27.4420  -27.0190   22.9460 C   0  0  0  0  0  2  0  0  0  0  0  0
  -26.3680  -26.0100   22.5260 C   0  0  0  0  0  0  0  0  0  0  0  0
  -26.6750  -25.0550   21.8030 O   0  0  0  0  0  0  0  0  0  0  0  0
  -24.8460  -26.1730   24.5370 C   0  0  0  0  0  1  0  0  0  0  0  0
  -24.0170  -25.0520   22.4860 C   0  0  0  0  0  1  0  0  0  0  0  0
  -24.9020  -26.2350   22.9810 C   0  0  2  0  0  0  0  0  0  0  0  0
  -24.3390  -27.6050   22.4410 C   0  0  0  0  0  0  0  0  0  0  0  0
  -25.3650  -29.2710   20.9660 C   0  0  0  0  0  2  0  0  0  0  0  0
  -24.4800  -30.1720   20.1000 C   0  0  0  0  0  2  0  0  0  0  0  0
  -24.1520  -29.4760   18.7710 C   0  0  0  0  0  2  0  0  0  0  0  0
  -23.5770  -28.0520   18.9890 C   0  0  0  0  0  3  0  0  0  0  0  0
  -24.4620  -27.2260   19.9500 C   0  0  0  0  0  2  0  0  0  0  0  0
  -24.6880  -27.9860   21.1880 N   0  0  0  0  0  0  0  0  0  0  0  0
  -23.9200  -28.4310   23.2590 O   0  0  0  0  0  0  0  0  0  0  0  0
  -22.5620  -26.2720   17.4250 C   0  0  0  0  0  0  0  0  0  0  0  0
  -22.6760  -26.0680   16.0770 C   0  0  0  0  0  0  0  0  0  0  0  0
  -23.5700  -27.0740   15.5990 C   0  0  0  0  0  0  0  0  0  0  0  0
  -23.3690  -27.3610   17.7150 N   0  0  0  0  0  0  0  0  0  0  0  0
  -24.0180  -27.8090   16.6090 N   0  0  0  0  0  0  0  0  0  0  0  0
  -23.9770  -27.4200   14.2290 C   0  0  0  0  0  0  0  0  0  0  0  0
  -25.3250  -27.3290   13.8140 C   0  0  0  0  0  3  0  0  0  0  0  0
  -25.6890  -27.6440   12.4880 C   0  0  0  0  0  3  0  0  0  0  0  0
  -24.7050  -28.0550   11.5590 C   0  0  0  0  0  0  0  0  0  0  0  0
  -23.3680  -28.1630   11.9810 C   0  0  0  0  0  3  0  0  0  0  0  0
  -23.0070  -27.8540   13.3030 C   0  0  0  0  0  3  0  0  0  0  0  0
  -24.9710  -28.4100   10.2590 O   0  0  0  0  0  0  0  0  0  0  0  0
  -25.7380  -27.6220    9.4400 C   0  0  0  0  0  0  0  0  0  0  0  0
  -25.2240  -26.4570    8.8320 C   0  0  0  0  0  3  0  0  0  0  0  0
  -26.0250  -25.7150    7.9430 C   0  0  0  0  0  3  0  0  0  0  0  0
  -27.3360  -26.1380    7.6540 C   0  0  0  0  0  0  0  0  0  0  0  0
  -27.8490  -27.3000    8.2560 C   0  0  0  0  0  3  0  0  0  0  0  0
  -27.0510  -28.0420    9.1440 C   0  0  0  0  0  0  0  0  0  0  0  0
  -27.5410  -29.1730    9.7040 F   0  0  0  0  0  0  0  0  0  0  0  0
  -28.1040  -25.4310    6.7930 F   0  0  0  0  0  0  0  0  0  0  0  0
  -21.9240  -25.0580   15.2590 C   0  0  0  0  0  0  0  0  0  0  0  0
  -22.6320  -24.2260   14.5040 N   0  0  0  0  0  0  0  0  0  0  0  0
  -20.6980  -24.9710   15.3210 O   0  0  0  0  0  0  0  0  0  0  0  0
  -23.6410  -24.2780   14.4680 H   0  0  0  0  0  0  0  0  0  0  0  0
  -22.1620  -23.5170   13.9590 H   0  0  0  0  0  0  0  0  0  0  0  0
  -21.8280  -25.6420   18.4250 N   0  0  0  0  0  0  0  0  0  0  0  0
  -21.1810  -24.8840   18.2300 H   0  0  0  0  0  0  0  0  0  0  0  0
  -21.8040  -25.9450   19.3900 H   0  0  0  0  0  0  0  0  0  0  0  0
  -33.0630  -21.1690   18.3300 C   0  0  0  0  0  2  0  0  0  0  0  0
  -33.7150  -19.8790   17.8220 C   0  0  0  0  0  2  0  0  0  0  0  0
  -33.8730  -19.9790   16.4200 O   0  0  0  0  0  0  0  0  0  0  0  0
  -32.7730  -18.4220    9.6190 C   0  0  0  0  0  0  0  0  0  0  0  0
  -33.0800  -19.2590   15.5560 C   0  0  0  0  0  0  0  0  0  0  0  0
  -31.0950  -17.5070   11.1880 C   0  0  0  0  0  3  0  0  0  0  0  0
  -31.6750  -17.7020   13.6610 C   0  0  0  0  0  0  0  0  0  0  0  0
  -33.4840  -17.9930   11.9600 C   0  0  0  0  0  2  0  0  0  0  0  0
  -32.9180  -18.2570   13.3350 C   0  0  0  0  0  0  0  0  0  0  0  0
  -33.6150  -19.0390   14.2730 C   0  0  0  0  0  3  0  0  0  0  0  0
  -31.8110  -18.7040   15.8710 C   0  0  0  0  0  3  0  0  0  0  0  0
  -31.1120  -17.9300   14.9260 C   0  0  0  0  0  3  0  0  0  0  0  0
  -30.9970  -16.8690   12.5980 C   0  0  0  0  0  2  0  0  0  0  0  0
  -32.4680  -18.0170   10.8840 N   0  0  0  0  0  0  0  0  0  0  0  0
  -31.9420  -18.3400    8.7050 O   0  0  0  0  0  0  0  0  0  0  0  0
  -30.0000  -18.5910   11.0630 C   0  0  0  0  0  0  0  0  0  0  0  0
  -29.2570  -18.5550    9.9470 N   0  0  0  0  0  0  0  0  0  0  0  0
  -29.8160  -19.4110   11.9670 O   0  0  0  0  0  0  0  0  0  0  0  0
  -29.4790  -17.8560    9.2510 H   0  0  0  0  0  0  0  0  0  0  0  0
  -27.7670  -20.5000    7.2910 C   0  0  0  0  0  0  0  0  0  0  0  0
  -28.1490  -19.4540    9.6240 C   0  0  0  0  0  3  0  0  0  0  0  0
  -26.8450  -18.6640    9.3710 C   0  0  0  0  0  2  0  0  0  0  0  0
  -26.6200  -18.3250    7.8940 C   0  0  0  0  0  2  0  0  0  0  0  0
  -26.5640  -19.6020    7.0520 C   0  0  0  0  0  2  0  0  0  0  0  0
  -28.5210  -20.4160    8.4920 C   0  0  0  0  0  0  0  0  0  0  0  0
  -29.6510  -21.2460    8.6490 C   0  0  0  0  0  3  0  0  0  0  0  0
  -30.0350  -22.1440    7.6350 C   0  0  0  0  0  3  0  0  0  0  0  0
  -29.2750  -22.2370    6.4570 C   0  0  0  0  0  3  0  0  0  0  0  0
  -28.1420  -21.4200    6.2900 C   0  0  0  0  0  3  0  0  0  0  0  0
  -34.1840  -18.9840    9.2560 C   0  0  0  0  0  3  0  0  0  0  0  0
  -34.6360  -18.2950    8.0420 N   0  0  0  0  0  0  0  0  0  0  0  0
  -35.2900  -17.1270    8.0320 C   0  0  0  0  0  0  0  0  0  0  0  0
  -35.6460  -16.5470    9.0640 O   0  0  0  0  0  0  0  0  0  0  0  0
  -34.3420  -18.6880    7.1600 H   0  0  0  0  0  0  0  0  0  0  0  0
  -34.5180  -15.4680    6.3090 C   0  0  0  0  0  1  0  0  0  0  0  0
  -35.6010  -16.4980    6.6620 C   0  0  0  0  0  3  0  0  0  0  0  0
  -38.0210  -16.8280    6.4020 C   0  0  0  0  0  1  0  0  0  0  0  0
  -36.9360  -15.8680    6.5930 N   0  0  0  0  0  0  0  0  0  0  0  0
  -36.9770  -15.1920    5.8350 H   0  0  0  0  0  0  0  0  0  0  0  0
  -34.1980  -20.5490    9.0500 C   0  0  1  0  0  0  0  0  0  0  0  0
  -33.6810  -21.0000    7.6640 C   0  0  0  0  0  1  0  0  0  0  0  0
  -33.3330  -21.2510   10.1240 C   0  0  0  0  0  1  0  0  0  0  0  0
  -35.6390  -21.0880    9.2240 C   0  0  0  0  0  1  0  0  0  0  0  0
  1  7  1  0
  1  6  1  0
  1 13  1  0
  2  4  1  0
  3  2  1  0
  5 60  1  0
  5  3  1  0
  5  6  1  0
  6  4  1  0
  8  7  1  0
  9  7  1  0
 10 11  1  0
 12 13  1  0
 12 14  2  0
 13 10  2  0
 14 15  1  0
 15 11  2  0
 15 17  1  0
 16 14  1  0
 18 17  1  0
 19 18  1  0
 19 23  1  0
 20 19  2  0
 23 22  1  6
 23 21  1  0
 24 23  1  0
 24 31  2  0
 25 30  1  0
 26 25  1  0
 27 28  1  0
 27 26  1  0
 28 35  1  0
 28 29  1  0
 29 30  1  0
 30 24  1  0
 32 35  1  0
 32 57  1  0
 33 32  2  0
 34 33  1  0
 34 36  2  0
 36 35  1  0
 37 34  1  0
 38 37  1  0
 39 38  2  0
 40 41  2  0
 40 39  1  0
 41 42  1  0
 42 37  2  0
 43 40  1  0
 44 43  1  0
 45 44  2  0
 46 45  1  0
 47 46  2  0
 47 48  1  0
 48 49  2  0
 49 44  1  0
 49 50  1  0
 51 47  1  0
 52 54  2  0
 52 33  1  0
 53 52  1  0
 55 53  1  0
 56 53  1  0
 57 59  1  0
 58 57  1  0
 61 60  1  0
 62 61  1  0
 63 73  1  0
 64 70  1  0
 64 62  1  0
 65 75  1  0
 65 72  1  0
 66 71  1  0
 67 68  1  0
 68 66  2  0
 68 69  1  0
 69 64  2  0
 71 70  2  0
 72 66  1  0
 73 65  1  0
 73 67  1  0
 74 63  2  0
 75 77  2  0
 76 75  1  0
 78 76  1  0
 79 84  1  0
 80 76  1  0
 81 80  1  0
 82 81  1  0
 83 79  1  0
 83 82  1  0
 84 85  2  0
 84 80  1  0
 86 85  1  0
 87 86  2  0
 88 87  1  0
 88 79  2  0
 89 63  1  0
 90 89  1  0
 91 90  1  0
 91 92  2  0
 93 90  1  0
 95 94  1  0
 95 91  1  0
 96 97  1  0
 97 95  1  0
 98 97  1  0
 99102  1  1
 99 89  1  0
 99101  1  0
100 99  1  0
M  ISO  4  23 100  24 100  61 101  62 101
M  END
>  <TORSDO>  (65) 
F 23

>  <SCORE>  (65) 
-5.420

>  <name>  (65) 
64

>  <ligand_id>  (65) 
64

>  <original_smiles>  (65) 
[H]c1c([H])c([H])c2c(c1[H])C([H])([H])C([H])([H])C([H])([H])C2([H])N([H])C(=O)C1([H])N(C(=O)C([H])(N([H])C(=O)C([H])(N([H])C([H])([H])[H])C([H])([H])[H])C(C([H])([H])[H])(C([H])([H])[H])C([H])([H])[H])C([H])([H])c2c([H])c(OC([H])([H])C([H])([H])C3([H])N(C(c4c([H])c([H])c(OC([H])([H])C(=O)C(C(=O)N5C([H])([H])C([H])([H])C([H])([H])C([H])(n6nc(-c7c([H])c([H])c(Oc8c([H])c([H])c(F)c([H])c8F)c([H])c7[H])c(C(=O)N([H])[H])c6N([H])[H])C5([H])[H])(C([H])([H])[H])C([H])([H])[H])c(C([H])([H])[H])c4[H])=[N+]([H])[H])C([H])([H])C([H])([H])C3([H])[H])c([H])c([H])c2C1([H])[H]

>  <smiles>  (65) 
[H]c1c([H])c([H])c2c(c1[H])C([H])([H])C([H])([H])C([H])([H])C2([H])N([H])C(=O)C1([H])N(C(=O)C([H])(N([H])C(=O)C([H])(N([H])C([H])([H])[H])C([H])([H])[H])C(C([H])([H])[H])(C([H])([H])[H])C([H])([H])[H])C([H])([H])c2c([H])c(OC([H])([H])C([H])([H])C3([H])N(C(c4c([H])c([H])c(OC([H])([H])C(=O)C(C(=O)N5C([H])([H])C([H])([H])C([H])([H])C([H])(n6nc(-c7c([H])c([H])c(Oc8c([H])c([H])c(F)c([H])c8F)c([H])c7[H])c(C(=O)N([H])[H])c6N([H])[H])C5([H])[H])(C([H])([H])[H])C([H])([H])[H])c(C([H])([H])[H])c4[H])=[N+]([H])[H])C([H])([H])C([H])([H])C3([H])[H])c([H])c([H])c2C1([H])[H]

$$$$
65:0:0
     RDKit          3D

 92100  0  0  1  0  0  0  0  0999 V2000
  -29.6950  -21.9940   20.9800 C   0  0  0  0  0  2  0  0  0  0  0  0
  -27.6320  -23.0490   22.0740 C   0  0  0  0  0  1  0  0  0  0  0  0
  -28.5610  -23.0590   20.8410 C   0  0  0  0  0  3  0  0  0  0  0  0
  -29.0530  -24.5030   20.5510 C   0  0  0  0  0  0  0  0  0  0  0  0
  -30.1590  -24.8960   20.9330 O   0  0  0  0  0  0  0  0  0  0  0  0
  -28.0830  -25.4260   19.7850 C   0  0  0  0  0  2  0  0  0  0  0  0
  -28.3240  -26.8400   19.9910 O   0  0  0  0  0  0  0  0  0  0  0  0
  -24.5780  -31.9710   23.2230 C   0  0  0  0  0  0  0  0  0  0  0  0
  -27.1840  -27.6290   19.9600 C   0  0  0  0  0  0  0  0  0  0  0  0
  -23.3600  -30.6300   21.5440 C   0  0  0  0  0  3  0  0  0  0  0  0
  -24.8000  -29.1630   20.0420 C   0  0  0  0  0  0  0  0  0  0  0  0
  -25.8860  -30.9990   21.3350 C   0  0  0  0  0  2  0  0  0  0  0  0
  -25.9670  -29.6520   20.6440 C   0  0  0  0  0  0  0  0  0  0  0  0
  -27.1630  -28.8930   20.6000 C   0  0  0  0  0  3  0  0  0  0  0  0
  -26.0000  -27.1830   19.3220 C   0  0  0  0  0  3  0  0  0  0  0  0
  -24.8150  -27.9300   19.3750 C   0  0  0  0  0  3  0  0  0  0  0  0
  -23.5580  -30.0170   20.1360 C   0  0  0  0  0  2  0  0  0  0  0  0
  -24.6280  -31.2130   22.0930 N   0  0  0  0  0  0  0  0  0  0  0  0
  -23.5010  -32.2190   23.7840 O   0  0  0  0  0  0  0  0  0  0  0  0
  -22.7260  -29.5630   22.4690 C   0  0  0  0  0  0  0  0  0  0  0  0
  -21.4060  -29.3590   22.3320 N   0  0  0  0  0  0  0  0  0  0  0  0
  -23.4180  -28.9250   23.2690 O   0  0  0  0  0  0  0  0  0  0  0  0
  -20.9070  -29.9280   21.6610 H   0  0  0  0  0  0  0  0  0  0  0  0
  -18.0520  -28.0840   22.7660 C   0  0  0  0  0  0  0  0  0  0  0  0
  -20.6010  -28.3850   23.0700 C   0  0  0  0  0  3  0  0  0  0  0  0
  -20.7350  -26.9710   22.4610 C   0  0  0  0  0  2  0  0  0  0  0  0
  -19.6520  -26.6550   21.4240 C   0  0  0  0  0  2  0  0  0  0  0  0
  -18.2590  -26.7560   22.0540 C   0  0  0  0  0  2  0  0  0  0  0  0
  -19.1500  -28.8550   23.2270 C   0  0  0  0  0  0  0  0  0  0  0  0
  -18.9020  -30.0990   23.8480 C   0  0  0  0  0  3  0  0  0  0  0  0
  -17.5850  -30.5710   24.0120 C   0  0  0  0  0  3  0  0  0  0  0  0
  -16.5010  -29.7940   23.5680 C   0  0  0  0  0  3  0  0  0  0  0  0
  -16.7340  -28.5520   22.9520 C   0  0  0  0  0  3  0  0  0  0  0  0
  -25.8670  -32.5850   23.8530 C   0  0  0  0  0  3  0  0  0  0  0  0
  -25.5730  -33.9860   24.1870 N   0  0  0  0  0  0  0  0  0  0  0  0
  -25.9260  -35.0370   23.4350 C   0  0  0  0  0  0  0  0  0  0  0  0
  -26.6090  -34.9280   22.4130 O   0  0  0  0  0  0  0  0  0  0  0  0
  -24.9760  -34.1440   24.9850 H   0  0  0  0  0  0  0  0  0  0  0  0
  -24.2410  -36.8600   23.0400 C   0  0  0  0  0  1  0  0  0  0  0  0
  -25.4470  -36.4290   23.8900 C   0  0  0  0  0  3  0  0  0  0  0  0
  -27.5670  -37.2710   24.8000 C   0  0  0  0  0  1  0  0  0  0  0  0
  -26.4990  -37.4660   23.8220 N   0  0  0  0  0  0  0  0  0  0  0  0
  -26.1020  -38.3910   23.9620 H   0  0  0  0  0  0  0  0  0  0  0  0
  -26.3680  -31.8010   25.1270 C   0  0  1  0  0  0  0  0  0  0  0  0
  -25.2660  -31.5670   26.1860 C   0  0  0  0  0  1  0  0  0  0  0  0
  -26.9420  -30.4200   24.7270 C   0  0  0  0  0  1  0  0  0  0  0  0
  -27.5220  -32.5810   25.8010 C   0  0  0  0  0  1  0  0  0  0  0  0
  -29.1980  -20.5150   20.9340 C   0  0  0  0  0  2  0  0  0  0  0  0
  -32.6070  -18.6840   20.9000 C   0  0  0  0  0  3  0  0  0  0  0  0
  -31.6480  -19.7140   20.9500 C   0  0  0  0  0  3  0  0  0  0  0  0
  -32.2070  -17.3410   20.7470 C   0  0  0  0  0  3  0  0  0  0  0  0
  -29.8770  -18.0520   20.7250 C   0  0  0  0  0  3  0  0  0  0  0  0
  -30.2690  -19.4120   20.8550 C   0  0  0  0  0  0  0  0  0  0  0  0
  -30.8360  -17.0060   20.6480 C   0  0  0  0  0  0  0  0  0  0  0  0
  -30.9920  -14.6230   19.8830 C   0  0  0  0  0  0  0  0  0  0  0  0
  -30.6480  -12.3790   18.8930 C   0  0  0  0  0  2  0  0  0  0  0  0
  -29.6460  -12.4560   17.7260 C   0  0  0  0  0  2  0  0  0  0  0  0
  -28.2040  -12.3010   18.2470 C   0  0  0  0  0  2  0  0  0  0  0  0
  -27.9030  -13.2520   19.4350 C   0  0  0  0  0  3  0  0  0  0  0  0
  -29.0140  -13.1680   20.5080 C   0  0  0  0  0  2  0  0  0  0  0  0
  -30.3090  -13.4430   19.8550 N   0  0  0  0  0  0  0  0  0  0  0  0
  -32.0510  -14.7820   19.2680 O   0  0  0  0  0  0  0  0  0  0  0  0
  -30.3940  -15.6440   20.5380 N   0  0  0  0  0  0  0  0  0  0  0  0
  -29.4740  -15.4380   20.8960 H   0  0  0  0  0  0  0  0  0  0  0  0
  -25.5750  -13.9050   20.3220 C   0  0  0  0  0  0  0  0  0  0  0  0
  -24.5130  -13.1510   20.7460 C   0  0  0  0  0  0  0  0  0  0  0  0
  -24.9340  -11.7890   20.6560 C   0  0  0  0  0  0  0  0  0  0  0  0
  -26.5790  -13.0030   20.0000 N   0  0  0  0  0  0  0  0  0  0  0  0
  -26.1980  -11.7230   20.2560 N   0  0  0  0  0  0  0  0  0  0  0  0
  -24.1890  -10.5430   20.8710 C   0  0  0  0  0  0  0  0  0  0  0  0
  -24.5800   -9.6050   21.8510 C   0  0  0  0  0  3  0  0  0  0  0  0
  -23.8360   -8.4230   22.0510 C   0  0  0  0  0  3  0  0  0  0  0  0
  -22.6830   -8.1690   21.2710 C   0  0  0  0  0  0  0  0  0  0  0  0
  -22.3100   -9.0960   20.2800 C   0  0  0  0  0  3  0  0  0  0  0  0
  -23.0560  -10.2690   20.0780 C   0  0  0  0  0  3  0  0  0  0  0  0
  -21.9150   -7.0340   21.3770 O   0  0  0  0  0  0  0  0  0  0  0  0
  -21.7600   -6.3790   22.5720 C   0  0  0  0  0  0  0  0  0  0  0  0
  -21.1850   -7.0080   23.6980 C   0  0  0  0  0  3  0  0  0  0  0  0
  -20.9770   -6.2770   24.8860 C   0  0  0  0  0  3  0  0  0  0  0  0
  -21.3350   -4.9180   24.9490 C   0  0  0  0  0  0  0  0  0  0  0  0
  -21.9030   -4.2870   23.8280 C   0  0  0  0  0  3  0  0  0  0  0  0
  -22.1130   -5.0150   22.6430 C   0  0  0  0  0  0  0  0  0  0  0  0
  -22.6400   -4.3960   21.5590 F   0  0  0  0  0  0  0  0  0  0  0  0
  -21.1300   -4.2130   26.0870 F   0  0  0  0  0  0  0  0  0  0  0  0
  -23.1520  -13.6580   21.1260 C   0  0  0  0  0  0  0  0  0  0  0  0
  -22.4640  -12.9570   22.0210 N   0  0  0  0  0  0  0  0  0  0  0  0
  -22.7080  -14.7090   20.6640 O   0  0  0  0  0  0  0  0  0  0  0  0
  -22.8320  -12.1050   22.4170 H   0  0  0  0  0  0  0  0  0  0  0  0
  -21.5530  -13.2810   22.3150 H   0  0  0  0  0  0  0  0  0  0  0  0
  -25.7660  -15.2760   20.1650 N   0  0  0  0  0  0  0  0  0  0  0  0
  -25.0280  -15.9510   20.3300 H   0  0  0  0  0  0  0  0  0  0  0  0
  -26.6190  -15.7030   19.8280 H   0  0  0  0  0  0  0  0  0  0  0  0
  3  1  1  0
  3  2  1  0
  4  3  1  0
  4  5  2  0
  6  7  1  0
  6  4  1  0
  8 19  2  0
  9  7  1  0
  9 14  1  0
 10 18  1  0
 10 20  1  0
 11 17  1  0
 11 13  1  0
 12 18  1  0
 13 12  1  0
 14 13  2  0
 15 16  1  0
 15  9  2  0
 16 11  2  0
 17 10  1  0
 18  8  1  0
 20 22  2  0
 21 20  1  0
 23 21  1  0
 24 33  2  0
 24 29  1  0
 25 21  1  0
 25 29  1  0
 26 25  1  0
 27 28  1  0
 27 26  1  0
 28 24  1  0
 29 30  2  0
 30 31  1  0
 32 31  2  0
 33 32  1  0
 34  8  1  0
 34 35  1  0
 34 44  1  0
 35 38  1  0
 36 40  1  0
 36 35  1  0
 37 36  2  0
 40 39  1  0
 42 40  1  0
 42 43  1  0
 42 41  1  0
 44 47  1  1
 44 45  1  0
 46 44  1  0
 48  1  1  0
 49 50  1  0
 51 49  2  0
 52 53  1  0
 53 48  1  0
 53 50  2  0
 54 52  2  0
 54 51  1  0
 55 63  1  0
 56 61  1  0
 57 58  1  0
 57 56  1  0
 59 58  1  0
 59 68  1  0
 59 60  1  0
 61 55  1  0
 61 60  1  0
 62 55  2  0
 63 54  1  0
 63 64  1  0
 65 66  2  0
 66 85  1  0
 67 66  1  0
 67 70  1  0
 68 69  1  0
 68 65  1  0
 69 67  2  0
 70 71  1  0
 71 72  2  0
 73 76  1  0
 73 72  1  0
 74 73  2  0
 75 74  1  0
 75 70  2  0
 76 77  1  0
 77 82  2  0
 77 78  1  0
 78 79  2  0
 79 80  1  0
 80 84  1  0
 81 80  2  0
 82 81  1  0
 83 82  1  0
 85 86  1  0
 86 89  1  0
 86 88  1  0
 87 85  2  0
 90 65  1  0
 90 91  1  0
 92 90  1  0
M  ISO  4   6 101   7 101  55 100  63 100
M  END
>  <TORSDO>  (66) 
F 21

>  <SCORE>  (66) 
-13.098

>  <name>  (66) 
65

>  <ligand_id>  (66) 
65

>  <original_smiles>  (66) 
[H]c1c([H])c([H])c2c(c1[H])C([H])([H])C([H])([H])C([H])([H])C2([H])N([H])C(=O)C1([H])N(C(=O)C([H])(N([H])C(=O)C([H])(N([H])C([H])([H])[H])C([H])([H])[H])C(C([H])([H])[H])(C([H])([H])[H])C([H])([H])[H])C([H])([H])c2c([H])c(OC([H])([H])C(=O)C([H])(C([H])([H])[H])C([H])([H])C([H])([H])c3c([H])c([H])c([H])c(N([H])C(=O)N4C([H])([H])C([H])([H])C([H])([H])C([H])(n5nc(-c6c([H])c([H])c(Oc7c([H])c([H])c(F)c([H])c7F)c([H])c6[H])c(C(=O)N([H])[H])c5N([H])[H])C4([H])[H])c3[H])c([H])c([H])c2C1([H])[H]

>  <smiles>  (66) 
[H]c1c([H])c([H])c2c(c1[H])C([H])([H])C([H])([H])C([H])([H])C2([H])N([H])C(=O)C1([H])N(C(=O)C([H])(N([H])C(=O)C([H])(N([H])C([H])([H])[H])C([H])([H])[H])C(C([H])([H])[H])(C([H])([H])[H])C([H])([H])[H])C([H])([H])c2c([H])c(OC([H])([H])C(=O)C([H])(C([H])([H])[H])C([H])([H])C([H])([H])c3c([H])c([H])c([H])c(N([H])C(=O)N4C([H])([H])C([H])([H])C([H])([H])C([H])(n5nc(-c6c([H])c([H])c(Oc7c([H])c([H])c(F)c([H])c7F)c([H])c6[H])c(C(=O)N([H])[H])c5N([H])[H])C4([H])[H])c3[H])c([H])c([H])c2C1([H])[H]

$$$$
66:0:0
     RDKit          3D

 93101  0  0  1  0  0  0  0  0999 V2000
  -30.5170  -21.6580   20.3940 C   0  0  0  0  0  3  0  0  0  0  0  0
  -31.5740  -19.2980   20.3750 C   0  0  0  0  0  3  0  0  0  0  0  0
  -31.5270  -17.8800   20.4750 C   0  0  0  0  0  3  0  0  0  0  0  0
  -29.1250  -17.9820   20.3310 C   0  0  0  0  0  3  0  0  0  0  0  0
  -30.4040  -20.0980   20.2760 C   0  0  0  0  0  0  0  0  0  0  0  0
  -30.2930  -17.1850   20.4700 C   0  0  0  0  0  0  0  0  0  0  0  0
  -29.1600  -19.4140   20.2490 C   0  0  0  0  0  0  0  0  0  0  0  0
  -30.8810  -14.6860   20.1190 C   0  0  0  0  0  0  0  0  0  0  0  0
  -30.5560  -12.4870   19.0180 C   0  0  0  0  0  2  0  0  0  0  0  0
  -29.5910  -12.6840   17.8270 C   0  0  0  0  0  2  0  0  0  0  0  0
  -28.1200  -12.5840   18.2850 C   0  0  0  0  0  2  0  0  0  0  0  0
  -27.8270  -13.4350   19.5480 C   0  0  0  0  0  3  0  0  0  0  0  0
  -28.9000  -13.2000   20.6360 C   0  0  0  0  0  2  0  0  0  0  0  0
  -30.2140  -13.4930   20.0410 N   0  0  0  0  0  0  0  0  0  0  0  0
  -32.0260  -14.8160   19.6790 O   0  0  0  0  0  0  0  0  0  0  0  0
  -30.1400  -15.7370   20.5770 N   0  0  0  0  0  0  0  0  0  0  0  0
  -29.2640  -15.4370   20.9760 H   0  0  0  0  0  0  0  0  0  0  0  0
  -25.4750  -14.1190   20.3310 C   0  0  0  0  0  0  0  0  0  0  0  0
  -24.3840  -13.3830   20.7100 C   0  0  0  0  0  0  0  0  0  0  0  0
  -24.7890  -12.0140   20.6360 C   0  0  0  0  0  0  0  0  0  0  0  0
  -26.4760  -13.2010   20.0550 N   0  0  0  0  0  0  0  0  0  0  0  0
  -26.0680  -11.9290   20.2960 N   0  0  0  0  0  0  0  0  0  0  0  0
  -24.0140  -10.7780   20.8130 C   0  0  0  0  0  0  0  0  0  0  0  0
  -24.4190   -9.7760   21.7230 C   0  0  0  0  0  3  0  0  0  0  0  0
  -23.6480   -8.6060   21.8890 C   0  0  0  0  0  3  0  0  0  0  0  0
  -22.4570   -8.4290   21.1450 C   0  0  0  0  0  0  0  0  0  0  0  0
  -22.0720   -9.4180   20.2230 C   0  0  0  0  0  3  0  0  0  0  0  0
  -22.8430  -10.5810   20.0560 C   0  0  0  0  0  3  0  0  0  0  0  0
  -21.6590   -7.3140   21.2200 O   0  0  0  0  0  0  0  0  0  0  0  0
  -21.5730   -6.5680   22.3680 C   0  0  0  0  0  0  0  0  0  0  0  0
  -21.1580   -7.1310   23.5940 C   0  0  0  0  0  3  0  0  0  0  0  0
  -21.0170   -6.3130   24.7330 C   0  0  0  0  0  3  0  0  0  0  0  0
  -21.2810   -4.9330   24.6460 C   0  0  0  0  0  0  0  0  0  0  0  0
  -21.6890   -4.3690   23.4250 C   0  0  0  0  0  3  0  0  0  0  0  0
  -21.8310   -5.1850   22.2880 C   0  0  0  0  0  0  0  0  0  0  0  0
  -22.2040   -4.6320   21.1090 F   0  0  0  0  0  0  0  0  0  0  0  0
  -21.1380   -4.1450   25.7380 F   0  0  0  0  0  0  0  0  0  0  0  0
  -23.0160  -13.9110   21.0260 C   0  0  0  0  0  0  0  0  0  0  0  0
  -22.2890  -13.2370   21.9120 N   0  0  0  0  0  0  0  0  0  0  0  0
  -22.6000  -14.9540   20.5240 O   0  0  0  0  0  0  0  0  0  0  0  0
  -22.6370  -12.3920   22.3410 H   0  0  0  0  0  0  0  0  0  0  0  0
  -21.3700  -13.5720   22.1660 H   0  0  0  0  0  0  0  0  0  0  0  0
  -25.6910  -15.4850   20.1780 N   0  0  0  0  0  0  0  0  0  0  0  0
  -24.9420  -16.1590   20.2870 H   0  0  0  0  0  0  0  0  0  0  0  0
  -26.5310  -15.8890   19.7830 H   0  0  0  0  0  0  0  0  0  0  0  0
  -26.7920  -19.5810   19.8350 C   0  0  0  0  0  1  0  0  0  0  0  0
  -28.0260  -20.1960   20.1840 O   0  0  0  0  0  0  0  0  0  0  0  0
  -29.4920  -22.6450   19.6890 C   0  0  0  0  0  3  0  0  0  0  0  0
  -30.9340  -24.6790   19.0770 C   0  0  0  0  0  1  0  0  0  0  0  0
  -29.9610  -24.5110   21.3870 C   0  0  0  0  0  1  0  0  0  0  0  0
  -29.7110  -24.2200   19.8930 C   0  0  2  0  0  0  0  0  0  0  0  0
  -28.4740  -25.1000   19.4350 C   0  0  0  0  0  2  0  0  0  0  0  0
  -28.5630  -26.5580   19.6200 O   0  0  0  0  0  0  0  0  0  0  0  0
  -24.5430  -31.5090   22.9450 C   0  0  0  0  0  0  0  0  0  0  0  0
  -27.3750  -27.2980   19.6290 C   0  0  0  0  0  0  0  0  0  0  0  0
  -23.3930  -30.1200   21.2570 C   0  0  0  0  0  3  0  0  0  0  0  0
  -24.9080  -28.7330   19.7390 C   0  0  0  0  0  0  0  0  0  0  0  0
  -25.9010  -30.6120   21.0460 C   0  0  0  0  0  2  0  0  0  0  0  0
  -26.0530  -29.2750   20.3350 C   0  0  0  0  0  0  0  0  0  0  0  0
  -27.2880  -28.5690   20.2710 C   0  0  0  0  0  3  0  0  0  0  0  0
  -26.2010  -26.8000   19.0190 C   0  0  0  0  0  3  0  0  0  0  0  0
  -24.9810  -27.5000   19.0740 C   0  0  0  0  0  3  0  0  0  0  0  0
  -23.6200  -29.5220   19.8440 C   0  0  0  0  0  2  0  0  0  0  0  0
  -24.6310  -30.7620   21.8070 N   0  0  0  0  0  0  0  0  0  0  0  0
  -23.4550  -31.6950   23.5090 O   0  0  0  0  0  0  0  0  0  0  0  0
  -22.8110  -29.0220   22.1770 C   0  0  0  0  0  0  0  0  0  0  0  0
  -21.4960  -28.7720   22.0610 N   0  0  0  0  0  0  0  0  0  0  0  0
  -23.5400  -28.3980   22.9520 O   0  0  0  0  0  0  0  0  0  0  0  0
  -20.9640  -29.3320   21.4100 H   0  0  0  0  0  0  0  0  0  0  0  0
  -18.2020  -27.3650   22.5510 C   0  0  0  0  0  0  0  0  0  0  0  0
  -20.7460  -27.7550   22.7990 C   0  0  0  0  0  3  0  0  0  0  0  0
  -20.9180  -26.3600   22.1550 C   0  0  0  0  0  2  0  0  0  0  0  0
  -19.8190  -26.0220   21.1420 C   0  0  0  0  0  2  0  0  0  0  0  0
  -18.4420  -26.0600   21.8100 C   0  0  0  0  0  2  0  0  0  0  0  0
  -19.2830  -28.1670   23.0010 C   0  0  0  0  0  0  0  0  0  0  0  0
  -19.0030  -29.3880   23.6540 C   0  0  0  0  0  3  0  0  0  0  0  0
  -17.6750  -29.8060   23.8610 C   0  0  0  0  0  3  0  0  0  0  0  0
  -16.6090  -28.9990   23.4260 C   0  0  0  0  0  3  0  0  0  0  0  0
  -16.8730  -27.7800   22.7770 C   0  0  0  0  0  3  0  0  0  0  0  0
  -25.7980  -32.1860   23.5780 C   0  0  0  0  0  3  0  0  0  0  0  0
  -25.4150  -33.5480   23.9720 N   0  0  0  0  0  0  0  0  0  0  0  0
  -25.7060  -34.6530   23.2740 C   0  0  0  0  0  0  0  0  0  0  0  0
  -26.3940  -34.6350   22.2480 O   0  0  0  0  0  0  0  0  0  0  0  0
  -24.7980  -33.6310   24.7670 H   0  0  0  0  0  0  0  0  0  0  0  0
  -23.8940  -36.3730   22.9890 C   0  0  0  0  0  1  0  0  0  0  0  0
  -25.1450  -35.9900   23.7950 C   0  0  0  0  0  3  0  0  0  0  0  0
  -27.2210  -36.9380   24.7000 C   0  0  0  0  0  1  0  0  0  0  0  0
  -26.1250  -37.0970   23.7480 N   0  0  0  0  0  0  0  0  0  0  0  0
  -25.6710  -37.9870   23.9340 H   0  0  0  0  0  0  0  0  0  0  0  0
  -26.3750  -31.3900   24.8130 C   0  0  1  0  0  0  0  0  0  0  0  0
  -25.3140  -31.0540   25.8860 C   0  0  0  0  0  1  0  0  0  0  0  0
  -27.0190  -30.0610   24.3530 C   0  0  0  0  0  1  0  0  0  0  0  0
  -27.4940  -32.2150   25.4890 C   0  0  0  0  0  1  0  0  0  0  0  0
  2  3  1  0
  4  6  1  0
  5  2  2  0
  5  1  1  0
  6  3  2  0
  6 16  1  0
  7  5  1  0
  7  4  2  0
  8 16  1  0
  9 14  1  0
 10 11  1  0
 10  9  1  0
 12 11  1  0
 12 21  1  0
 12 13  1  0
 14  8  1  0
 14 13  1  0
 15  8  2  0
 16 17  1  0
 18 19  2  0
 19 38  1  0
 20 19  1  0
 20 23  1  0
 21 22  1  0
 21 18  1  0
 22 20  2  0
 23 24  1  0
 24 25  2  0
 26 29  1  0
 26 25  1  0
 27 26  2  0
 28 27  1  0
 28 23  2  0
 29 30  1  0
 30 31  1  0
 31 32  2  0
 33 32  1  0
 33 37  1  0
 34 33  2  0
 35 30  2  0
 35 34  1  0
 36 35  1  0
 38 39  1  0
 39 42  1  0
 39 41  1  0
 40 38  2  0
 43 44  1  0
 43 18  1  0
 45 43  1  0
 46 47  1  0
 47  7  1  0
 48 51  1  0
 48  1  2  0
 51 49  1  6
 51 50  1  0
 52 53  1  0
 52 51  1  0
 53 55  1  0
 54 65  2  0
 55 60  1  0
 56 64  1  0
 56 66  1  0
 57 63  1  0
 57 59  1  0
 58 64  1  0
 59 58  1  0
 60 59  2  0
 61 62  1  0
 61 55  2  0
 62 57  2  0
 63 56  1  0
 64 54  1  0
 66 68  2  0
 67 66  1  0
 69 67  1  0
 70 79  2  0
 70 75  1  0
 71 67  1  0
 71 75  1  0
 72 71  1  0
 73 74  1  0
 73 72  1  0
 74 70  1  0
 75 76  2  0
 76 77  1  0
 78 77  2  0
 79 78  1  0
 80 54  1  0
 80 81  1  0
 80 90  1  0
 81 84  1  0
 82 86  1  0
 82 81  1  0
 83 82  2  0
 86 85  1  0
 88 86  1  0
 88 89  1  0
 88 87  1  0
 90 93  1  1
 90 91  1  0
 92 90  1  0
M  ISO  4   8 100  16 100  52 101  53 101
M  END
>  <TORSDO>  (67) 
F 21

>  <SCORE>  (67) 
-12.133

>  <name>  (67) 
66

>  <ligand_id>  (67) 
66

>  <original_smiles>  (67) 
[H]c1c([H])c([H])c2c(c1[H])C([H])([H])C([H])([H])C([H])([H])C2([H])N([H])C(=O)C1([H])N(C(=O)C([H])(N([H])C(=O)C([H])(N([H])C([H])([H])[H])C([H])([H])[H])C(C([H])([H])[H])(C([H])([H])[H])C([H])([H])[H])C([H])([H])c2c([H])c(OC([H])([H])C(C([H])([H])[H])(C([H])([H])[H])C([H])([H])C([H])([H])c3c([H])c([H])c(N([H])C(=O)N4C([H])([H])C([H])([H])C([H])([H])C([H])(n5nc(-c6c([H])c([H])c(Oc7c([H])c([H])c(F)c([H])c7F)c([H])c6[H])c(C(=O)N([H])[H])c5N([H])[H])C4([H])[H])c([H])c3OC([H])([H])[H])c([H])c([H])c2C1([H])[H]

>  <smiles>  (67) 
[H]c1c([H])c([H])c2c(c1[H])C([H])([H])C([H])([H])C([H])([H])C2([H])N([H])C(=O)C1([H])N(C(=O)C([H])(N([H])C(=O)C([H])(N([H])C([H])([H])[H])C([H])([H])[H])C(C([H])([H])[H])(C([H])([H])[H])C([H])([H])[H])C([H])([H])c2c([H])c(OC([H])([H])C(C([H])([H])[H])(C([H])([H])[H])C([H])([H])C([H])([H])c3c([H])c([H])c(N([H])C(=O)N4C([H])([H])C([H])([H])C([H])([H])C([H])(n5nc(-c6c([H])c([H])c(Oc7c([H])c([H])c(F)c([H])c7F)c([H])c6[H])c(C(=O)N([H])[H])c5N([H])[H])C4([H])[H])c([H])c3OC([H])([H])[H])c([H])c([H])c2C1([H])[H]

$$$$
67:0:0
     RDKit          3D

 97106  0  0  1  0  0  0  0  0999 V2000
  -29.3390  -20.7630   20.9260 C   0  0  0  0  0  3  0  0  0  0  0  0
  -28.7340  -22.4040   17.7530 C   0  0  0  0  0  2  0  0  0  0  0  0
  -27.6250  -22.8860   18.7030 C   0  0  0  0  0  2  0  0  0  0  0  0
  -29.7420  -21.6490   18.6380 C   0  0  0  0  0  2  0  0  0  0  0  0
  -28.3110  -22.9580   20.0720 C   0  0  0  0  0  3  0  0  0  0  0  0
  -29.2040  -21.7650   20.0070 N   0  0  0  0  0  0  0  0  0  0  0  0
  -28.6390  -20.8180   22.0550 N   0  0  0  0  0  0  0  0  0  0  0  0
  -28.7910  -20.1050   22.7530 H   0  0  0  0  0  0  0  0  0  0  0  0
  -28.0270  -21.5830   22.2760 H   0  0  0  0  0  0  0  0  0  0  0  0
  -31.6230  -19.8860   20.5660 C   0  0  0  0  0  3  0  0  0  0  0  0
  -29.8110  -18.2570   20.8040 C   0  0  0  0  0  3  0  0  0  0  0  0
  -32.1070  -17.4980   20.5380 C   0  0  0  0  0  3  0  0  0  0  0  0
  -30.2530  -19.6130   20.7440 C   0  0  0  0  0  0  0  0  0  0  0  0
  -32.5490  -18.8330   20.4770 C   0  0  0  0  0  0  0  0  0  0  0  0
  -30.7290  -17.1750   20.6630 C   0  0  0  0  0  0  0  0  0  0  0  0
  -34.0280  -19.1320   20.3180 C   0  0  0  0  0  1  0  0  0  0  0  0
  -30.8730  -14.7230   20.1040 C   0  0  0  0  0  0  0  0  0  0  0  0
  -30.5040  -12.5330   19.0270 C   0  0  0  0  0  2  0  0  0  0  0  0
  -29.5200  -12.6990   17.8540 C   0  0  0  0  0  2  0  0  0  0  0  0
  -28.0710  -12.5420   18.3500 C   0  0  0  0  0  2  0  0  0  0  0  0
  -27.7720  -13.4010   19.6090 C   0  0  0  0  0  3  0  0  0  0  0  0
  -28.8800  -13.2580   20.6770 C   0  0  0  0  0  2  0  0  0  0  0  0
  -30.1710  -13.5540   20.0380 N   0  0  0  0  0  0  0  0  0  0  0  0
  -31.9660  -14.8300   19.5490 O   0  0  0  0  0  0  0  0  0  0  0  0
  -30.2620  -15.8010   20.6650 N   0  0  0  0  0  0  0  0  0  0  0  0
  -29.3290  -15.6370   21.0080 H   0  0  0  0  0  0  0  0  0  0  0  0
  -25.4150  -13.9740   20.4610 C   0  0  0  0  0  0  0  0  0  0  0  0
  -24.3690  -13.1870   20.8630 C   0  0  0  0  0  0  0  0  0  0  0  0
  -24.8300  -11.8390   20.7700 C   0  0  0  0  0  0  0  0  0  0  0  0
  -26.4480  -13.1040   20.1520 N   0  0  0  0  0  0  0  0  0  0  0  0
  -26.1030  -11.8130   20.3940 N   0  0  0  0  0  0  0  0  0  0  0  0
  -24.1140  -10.5700   20.9610 C   0  0  0  0  0  0  0  0  0  0  0  0
  -24.5540   -9.6100   21.9000 C   0  0  0  0  0  3  0  0  0  0  0  0
  -23.8400   -8.4060   22.0810 C   0  0  0  0  0  3  0  0  0  0  0  0
  -22.6720   -8.1530   21.3220 C   0  0  0  0  0  0  0  0  0  0  0  0
  -22.2520   -9.1010   20.3740 C   0  0  0  0  0  3  0  0  0  0  0  0
  -22.9670  -10.2980   20.1900 C   0  0  0  0  0  3  0  0  0  0  0  0
  -21.9290   -7.0000   21.4110 O   0  0  0  0  0  0  0  0  0  0  0  0
  -21.8340   -6.2930   22.5830 C   0  0  0  0  0  0  0  0  0  0  0  0
  -21.2960   -6.8670   23.7570 C   0  0  0  0  0  3  0  0  0  0  0  0
  -21.1520   -6.0840   24.9200 C   0  0  0  0  0  3  0  0  0  0  0  0
  -21.5340   -4.7290   24.9110 C   0  0  0  0  0  0  0  0  0  0  0  0
  -22.0650   -4.1560   23.7420 C   0  0  0  0  0  3  0  0  0  0  0  0
  -22.2120   -4.9350   22.5810 C   0  0  0  0  0  0  0  0  0  0  0  0
  -22.7040   -4.3720   21.4510 F   0  0  0  0  0  0  0  0  0  0  0  0
  -21.3880   -3.9750   26.0250 F   0  0  0  0  0  0  0  0  0  0  0  0
  -22.9870  -13.6530   21.2210 C   0  0  0  0  0  0  0  0  0  0  0  0
  -22.3010  -12.9230   22.0950 N   0  0  0  0  0  0  0  0  0  0  0  0
  -22.5270  -14.6990   20.7640 O   0  0  0  0  0  0  0  0  0  0  0  0
  -22.6870  -12.0760   22.4850 H   0  0  0  0  0  0  0  0  0  0  0  0
  -21.3770  -13.2150   22.3760 H   0  0  0  0  0  0  0  0  0  0  0  0
  -25.5690  -15.3500   20.3130 N   0  0  0  0  0  0  0  0  0  0  0  0
  -24.8060  -15.9990   20.4700 H   0  0  0  0  0  0  0  0  0  0  0  0
  -26.3940  -15.7940   19.9310 H   0  0  0  0  0  0  0  0  0  0  0  0
  -29.0410  -24.3390   20.2290 C   0  0  0  0  0  2  0  0  0  0  0  0
  -28.0850  -25.4900   20.6670 C   0  0  0  0  0  2  0  0  0  0  0  0
  -28.3050  -26.8000   20.0740 O   0  0  0  0  0  0  0  0  0  0  0  0
  -24.5760  -31.9870   23.2700 C   0  0  0  0  0  0  0  0  0  0  0  0
  -27.1730  -27.5990   20.0610 C   0  0  0  0  0  0  0  0  0  0  0  0
  -23.3460  -30.6070   21.6290 C   0  0  0  0  0  3  0  0  0  0  0  0
  -24.7800  -29.1160   20.1370 C   0  0  0  0  0  0  0  0  0  0  0  0
  -25.8680  -30.9850   21.3860 C   0  0  0  0  0  2  0  0  0  0  0  0
  -25.9500  -29.6270   20.7150 C   0  0  0  0  0  0  0  0  0  0  0  0
  -27.1520  -28.8780   20.6720 C   0  0  0  0  0  3  0  0  0  0  0  0
  -25.9920  -27.1280   19.4460 C   0  0  0  0  0  3  0  0  0  0  0  0
  -24.7970  -27.8680   19.4960 C   0  0  0  0  0  3  0  0  0  0  0  0
  -23.5310  -29.9620   20.2310 C   0  0  0  0  0  2  0  0  0  0  0  0
  -24.6160  -31.2080   22.1530 N   0  0  0  0  0  0  0  0  0  0  0  0
  -23.5040  -32.2400   23.8380 O   0  0  0  0  0  0  0  0  0  0  0  0
  -22.7240  -29.5620   22.5830 C   0  0  0  0  0  0  0  0  0  0  0  0
  -21.4050  -29.3380   22.4520 N   0  0  0  0  0  0  0  0  0  0  0  0
  -23.4250  -28.9540   23.3980 O   0  0  0  0  0  0  0  0  0  0  0  0
  -20.9010  -29.8810   21.7650 H   0  0  0  0  0  0  0  0  0  0  0  0
  -18.0730  -28.0160   22.9120 C   0  0  0  0  0  0  0  0  0  0  0  0
  -20.6150  -28.3730   23.2160 C   0  0  0  0  0  3  0  0  0  0  0  0
  -20.7790  -26.9440   22.6470 C   0  0  0  0  0  2  0  0  0  0  0  0
  -19.7040  -26.5760   21.6190 C   0  0  0  0  0  2  0  0  0  0  0  0
  -18.3090  -26.6720   22.2440 C   0  0  0  0  0  2  0  0  0  0  0  0
  -19.1560  -28.8210   23.3540 C   0  0  0  0  0  0  0  0  0  0  0  0
  -18.8820  -30.0780   23.9360 C   0  0  0  0  0  3  0  0  0  0  0  0
  -17.5570  -30.5300   24.0830 C   0  0  0  0  0  3  0  0  0  0  0  0
  -16.4880  -29.7210   23.6590 C   0  0  0  0  0  3  0  0  0  0  0  0
  -16.7460  -28.4660   23.0780 C   0  0  0  0  0  3  0  0  0  0  0  0
  -25.8690  -32.6180   23.8730 C   0  0  0  0  0  3  0  0  0  0  0  0
  -26.4010  -31.8480   25.1440 C   0  0  1  0  0  0  0  0  0  0  0  0
  -25.3190  -31.6070   26.2230 C   0  0  0  0  0  1  0  0  0  0  0  0
  -26.9830  -30.4720   24.7450 C   0  0  0  0  0  1  0  0  0  0  0  0
  -27.5560  -32.6460   25.7950 C   0  0  0  0  0  1  0  0  0  0  0  0
  -25.5670  -34.0180   24.2030 N   0  0  0  0  0  0  0  0  0  0  0  0
  -25.9090  -35.0680   23.4430 C   0  0  0  0  0  0  0  0  0  0  0  0
  -26.5830  -34.9600   22.4150 O   0  0  0  0  0  0  0  0  0  0  0  0
  -24.9720  -34.1750   25.0020 H   0  0  0  0  0  0  0  0  0  0  0  0
  -24.2100  -36.8820   23.0580 C   0  0  0  0  0  1  0  0  0  0  0  0
  -25.4260  -36.4590   23.8980 C   0  0  0  0  0  3  0  0  0  0  0  0
  -27.5480  -37.3150   24.7880 C   0  0  0  0  0  1  0  0  0  0  0  0
  -26.4730  -37.5010   23.8160 N   0  0  0  0  0  0  0  0  0  0  0  0
  -26.0730  -38.4240   23.9570 H   0  0  0  0  0  0  0  0  0  0  0  0
  1  7  1  0
  2  4  1  0
  2  3  1  0
  3  5  1  0
  4  6  1  0
  5 55  1  0
  6  5  1  0
  6  1  1  0
  7  9  1  0
  7  8  1  0
 10 13  1  0
 12 15  2  0
 13 11  2  0
 13  1  1  0
 14 12  1  0
 14 10  2  0
 15 25  1  0
 15 11  1  0
 16 14  1  0
 17 25  1  0
 18 23  1  0
 19 20  1  0
 19 18  1  0
 21 20  1  0
 21 30  1  0
 21 22  1  0
 23 17  1  0
 23 22  1  0
 24 17  2  0
 25 26  1  0
 27 28  2  0
 28 47  1  0
 29 28  1  0
 29 32  1  0
 30 31  1  0
 30 27  1  0
 31 29  2  0
 32 33  1  0
 33 34  2  0
 35 38  1  0
 35 34  1  0
 36 35  2  0
 37 36  1  0
 37 32  2  0
 38 39  1  0
 39 40  1  0
 40 41  2  0
 42 41  1  0
 42 46  1  0
 43 42  2  0
 44 39  2  0
 44 43  1  0
 45 44  1  0
 47 48  1  0
 48 51  1  0
 48 50  1  0
 49 47  2  0
 52 27  1  0
 52 53  1  0
 54 52  1  0
 55 56  1  0
 57 56  1  0
 58 69  2  0
 59 57  1  0
 59 64  1  0
 60 68  1  0
 60 70  1  0
 61 67  1  0
 61 63  1  0
 62 68  1  0
 63 62  1  0
 64 63  2  0
 65 66  1  0
 65 59  2  0
 66 61  2  0
 67 60  1  0
 68 58  1  0
 70 72  2  0
 71 70  1  0
 73 71  1  0
 74 83  2  0
 74 79  1  0
 75 71  1  0
 75 79  1  0
 76 75  1  0
 77 78  1  0
 77 76  1  0
 78 74  1  0
 79 80  2  0
 80 81  1  0
 82 81  2  0
 83 82  1  0
 84 58  1  0
 84 89  1  0
 84 85  1  0
 85 88  1  1
 85 86  1  0
 87 85  1  0
 89 92  1  0
 90 94  1  0
 90 89  1  0
 91 90  2  0
 94 93  1  0
 96 94  1  0
 96 97  1  0
 96 95  1  0
M  ISO  4  17 100  25 100  56 101  57 101
M  END
>  <TORSDO>  (68) 
F 19

>  <SCORE>  (68) 
-14.141

>  <name>  (68) 
67

>  <ligand_id>  (68) 
67

>  <original_smiles>  (68) 
[H]c1c([H])c([H])c2c(c1[H])C([H])([H])C([H])([H])C([H])([H])C2([H])N([H])C(=O)C1([H])N(C(=O)C([H])(N([H])C(=O)C([H])(N([H])C([H])([H])[H])C([H])([H])[H])C(C([H])([H])[H])(C([H])([H])[H])C([H])([H])[H])C([H])([H])c2c([H])c(OC([H])([H])C([H])([H])C3([H])N(C(c4c([H])c(N([H])C(=O)N5C([H])([H])C([H])([H])C([H])([H])C([H])(n6nc(-c7c([H])c([H])c(Oc8c([H])c([H])c(F)c([H])c8F)c([H])c7[H])c(C(=O)N([H])[H])c6N([H])[H])C5([H])[H])c([H])c(C([H])([H])[H])c4[H])=[N+]([H])[H])C([H])([H])C([H])([H])C3([H])[H])c([H])c([H])c2C1([H])[H]

>  <smiles>  (68) 
[H]c1c([H])c([H])c2c(c1[H])C([H])([H])C([H])([H])C([H])([H])C2([H])N([H])C(=O)C1([H])N(C(=O)C([H])(N([H])C(=O)C([H])(N([H])C([H])([H])[H])C([H])([H])[H])C(C([H])([H])[H])(C([H])([H])[H])C([H])([H])[H])C([H])([H])c2c([H])c(OC([H])([H])C([H])([H])C3([H])N(C(c4c([H])c(N([H])C(=O)N5C([H])([H])C([H])([H])C([H])([H])C([H])(n6nc(-c7c([H])c([H])c(Oc8c([H])c([H])c(F)c([H])c8F)c([H])c7[H])c(C(=O)N([H])[H])c6N([H])[H])C5([H])[H])c([H])c(C([H])([H])[H])c4[H])=[N+]([H])[H])C([H])([H])C([H])([H])C3([H])[H])c([H])c([H])c2C1([H])[H]

$$$$
68:0:0
     RDKit          3D

 95103  0  0  1  0  0  0  0  0999 V2000
  -29.5340  -21.8430   19.6190 C   0  0  0  0  0  2  0  0  0  0  0  0
  -31.1940  -23.7550   19.2520 C   0  0  0  0  0  1  0  0  0  0  0  0
  -29.8930  -22.8640   17.3360 C   0  0  0  0  0  1  0  0  0  0  0  0
  -29.8130  -23.1960   18.8470 C   0  0  1  0  0  0  0  0  0  0  0  0
  -28.7020  -24.3390   18.9410 C   0  0  0  0  0  2  0  0  0  0  0  0
  -29.2910  -25.1130   21.4020 C   0  0  0  0  0  1  0  0  0  0  0  0
  -28.3460  -25.2170   20.2010 C   0  0  0  0  0  3  0  0  0  0  0  0
  -28.3410  -26.6330   19.8550 O   0  0  0  0  0  0  0  0  0  0  0  0
  -24.6620  -31.9050   23.0100 C   0  0  0  0  0  0  0  0  0  0  0  0
  -27.1630  -27.3600   19.9240 C   0  0  0  0  0  0  0  0  0  0  0  0
  -23.3830  -30.4700   21.4530 C   0  0  0  0  0  3  0  0  0  0  0  0
  -24.7710  -28.8920   20.0040 C   0  0  0  0  0  0  0  0  0  0  0  0
  -25.9010  -30.8150   21.1330 C   0  0  0  0  0  2  0  0  0  0  0  0
  -25.9570  -29.4250   20.5220 C   0  0  0  0  0  0  0  0  0  0  0  0
  -27.1570  -28.6710   20.4670 C   0  0  0  0  0  3  0  0  0  0  0  0
  -25.9580  -26.8460   19.4020 C   0  0  0  0  0  3  0  0  0  0  0  0
  -24.7670  -27.6020   19.4390 C   0  0  0  0  0  3  0  0  0  0  0  0
  -23.5320  -29.7590   20.0820 C   0  0  0  0  0  2  0  0  0  0  0  0
  -24.6700  -31.0800   21.9240 N   0  0  0  0  0  0  0  0  0  0  0  0
  -23.6050  -32.1940   23.5900 O   0  0  0  0  0  0  0  0  0  0  0  0
  -22.7720  -29.4740   22.4660 C   0  0  0  0  0  0  0  0  0  0  0  0
  -21.4490  -29.2650   22.3780 N   0  0  0  0  0  0  0  0  0  0  0  0
  -23.4860  -28.8890   23.2840 O   0  0  0  0  0  0  0  0  0  0  0  0
  -20.9320  -29.7930   21.6880 H   0  0  0  0  0  0  0  0  0  0  0  0
  -18.1110  -28.0180   22.9870 C   0  0  0  0  0  0  0  0  0  0  0  0
  -20.6680  -28.3390   23.1970 C   0  0  0  0  0  3  0  0  0  0  0  0
  -20.7880  -26.8900   22.6710 C   0  0  0  0  0  2  0  0  0  0  0  0
  -19.6730  -26.5070   21.6910 C   0  0  0  0  0  2  0  0  0  0  0  0
  -18.3020  -26.6480   22.3590 C   0  0  0  0  0  2  0  0  0  0  0  0
  -19.2210  -28.8170   23.3660 C   0  0  0  0  0  0  0  0  0  0  0  0
  -18.9880  -30.0960   23.9150 C   0  0  0  0  0  3  0  0  0  0  0  0
  -17.6770  -30.5770   24.0920 C   0  0  0  0  0  3  0  0  0  0  0  0
  -16.5810  -29.7750   23.7280 C   0  0  0  0  0  3  0  0  0  0  0  0
  -16.7990  -28.4980   23.1820 C   0  0  0  0  0  3  0  0  0  0  0  0
  -25.9740  -32.5470   23.5580 C   0  0  0  0  0  3  0  0  0  0  0  0
  -25.6410  -33.8920   24.0480 N   0  0  0  0  0  0  0  0  0  0  0  0
  -25.8490  -35.0240   23.3640 C   0  0  0  0  0  0  0  0  0  0  0  0
  -26.4140  -35.0490   22.2670 O   0  0  0  0  0  0  0  0  0  0  0  0
  -25.1260  -33.9440   24.9140 H   0  0  0  0  0  0  0  0  0  0  0  0
  -24.0320  -36.7630   23.3270 C   0  0  0  0  0  1  0  0  0  0  0  0
  -25.3490  -36.3370   23.9960 C   0  0  0  0  0  3  0  0  0  0  0  0
  -27.5020  -37.2380   24.7580 C   0  0  0  0  0  1  0  0  0  0  0  0
  -26.3290  -37.4400   23.9110 N   0  0  0  0  0  0  0  0  0  0  0  0
  -25.9010  -38.3250   24.1700 H   0  0  0  0  0  0  0  0  0  0  0  0
  -26.6560  -31.6940   24.6970 C   0  0  1  0  0  0  0  0  0  0  0  0
  -25.6810  -31.2580   25.8160 C   0  0  0  0  0  1  0  0  0  0  0  0
  -27.3010  -30.4170   24.1070 C   0  0  0  0  0  1  0  0  0  0  0  0
  -27.7970  -32.5090   25.3510 C   0  0  0  0  0  1  0  0  0  0  0  0
  -30.3230  -20.5580   19.1130 C   0  0  0  0  0  2  0  0  0  0  0  0
  -30.7270  -19.6310   21.4540 C   0  0  0  0  0  3  0  0  0  0  0  0
  -30.5760  -18.0070   19.6410 C   0  0  0  0  0  3  0  0  0  0  0  0
  -30.5310  -19.3690   20.0840 C   0  0  0  0  0  0  0  0  0  0  0  0
  -30.9020  -18.5890   22.3820 C   0  0  0  0  0  0  0  0  0  0  0  0
  -30.9300  -17.2410   21.9460 C   0  0  0  0  0  0  0  0  0  0  0  0
  -30.7750  -16.9340   20.5660 C   0  0  0  0  0  0  0  0  0  0  0  0
  -31.0120  -18.9590   23.8530 C   0  0  0  0  0  1  0  0  0  0  0  0
  -31.0830  -16.1160   22.9670 C   0  0  0  0  0  1  0  0  0  0  0  0
  -31.3450  -14.5620   19.6950 C   0  0  0  0  0  0  0  0  0  0  0  0
  -30.9720  -12.3270   18.6660 C   0  0  0  0  0  2  0  0  0  0  0  0
  -29.9190  -12.4790   17.5440 C   0  0  0  0  0  2  0  0  0  0  0  0
  -28.4810  -12.4160   18.1030 C   0  0  0  0  0  2  0  0  0  0  0  0
  -28.2850  -13.3270   19.3430 C   0  0  0  0  0  3  0  0  0  0  0  0
  -29.4200  -13.0830   20.3640 C   0  0  0  0  0  2  0  0  0  0  0  0
  -30.6980  -13.3590   19.6790 N   0  0  0  0  0  0  0  0  0  0  0  0
  -32.4360  -14.7450   19.1410 O   0  0  0  0  0  0  0  0  0  0  0  0
  -30.5870  -15.5450   20.2400 N   0  0  0  0  0  0  0  0  0  0  0  0
  -29.7560  -15.1520   20.6550 H   0  0  0  0  0  0  0  0  0  0  0  0
  -26.0460  -14.1140   20.3430 C   0  0  0  0  0  0  0  0  0  0  0  0
  -24.9450  -13.4230   20.7730 C   0  0  0  0  0  0  0  0  0  0  0  0
  -25.2580  -12.0390   20.6020 C   0  0  0  0  0  0  0  0  0  0  0  0
  -26.9640  -13.1530   19.9430 N   0  0  0  0  0  0  0  0  0  0  0  0
  -26.4980  -11.8980   20.1530 N   0  0  0  0  0  0  0  0  0  0  0  0
  -24.4270  -10.8420   20.7840 C   0  0  0  0  0  0  0  0  0  0  0  0
  -24.8320   -9.7850   21.6280 C   0  0  0  0  0  3  0  0  0  0  0  0
  -24.0080   -8.6510   21.8010 C   0  0  0  0  0  3  0  0  0  0  0  0
  -22.7650   -8.5700   21.1290 C   0  0  0  0  0  0  0  0  0  0  0  0
  -22.3780   -9.6140   20.2710 C   0  0  0  0  0  3  0  0  0  0  0  0
  -23.2010  -10.7390   20.0970 C   0  0  0  0  0  3  0  0  0  0  0  0
  -21.9120   -7.4970   21.2150 O   0  0  0  0  0  0  0  0  0  0  0  0
  -21.7600   -6.7910   22.3820 C   0  0  0  0  0  0  0  0  0  0  0  0
  -21.3430   -7.4120   23.5790 C   0  0  0  0  0  3  0  0  0  0  0  0
  -21.1320   -6.6370   24.7380 C   0  0  0  0  0  3  0  0  0  0  0  0
  -21.3270   -5.2430   24.6990 C   0  0  0  0  0  0  0  0  0  0  0  0
  -21.7370   -4.6230   23.5060 C   0  0  0  0  0  3  0  0  0  0  0  0
  -21.9490   -5.3940   22.3500 C   0  0  0  0  0  0  0  0  0  0  0  0
  -22.3240   -4.7880   21.1970 F   0  0  0  0  0  0  0  0  0  0  0  0
  -21.1170   -4.4980   25.8090 F   0  0  0  0  0  0  0  0  0  0  0  0
  -23.6400  -14.0100   21.2260 C   0  0  0  0  0  0  0  0  0  0  0  0
  -22.9920  -13.3840   22.2030 N   0  0  0  0  0  0  0  0  0  0  0  0
  -23.2080  -15.0580   20.7470 O   0  0  0  0  0  0  0  0  0  0  0  0
  -23.3550  -12.5350   22.6090 H   0  0  0  0  0  0  0  0  0  0  0  0
  -22.1220  -13.7600   22.5500 H   0  0  0  0  0  0  0  0  0  0  0  0
  -26.3360  -15.4720   20.2430 N   0  0  0  0  0  0  0  0  0  0  0  0
  -25.6610  -16.1870   20.4860 H   0  0  0  0  0  0  0  0  0  0  0  0
  -27.1890  -15.8520   19.8540 H   0  0  0  0  0  0  0  0  0  0  0  0
  4  3  1  6
  4  5  1  0
  4  2  1  0
  4  1  1  0
  5  7  1  0
  7  6  1  0
  8 10  1  0
  8  7  1  0
  9 20  2  0
 10 15  1  0
 11 19  1  0
 11 21  1  0
 12 18  1  0
 12 14  1  0
 13 19  1  0
 14 13  1  0
 15 14  2  0
 16 17  1  0
 16 10  2  0
 17 12  2  0
 18 11  1  0
 19  9  1  0
 21 23  2  0
 22 21  1  0
 24 22  1  0
 25 34  2  0
 25 30  1  0
 26 22  1  0
 26 30  1  0
 27 26  1  0
 28 29  1  0
 28 27  1  0
 29 25  1  0
 30 31  2  0
 31 32  1  0
 33 32  2  0
 34 33  1  0
 35  9  1  0
 35 36  1  0
 35 45  1  0
 36 39  1  0
 37 41  1  0
 37 36  1  0
 38 37  2  0
 41 40  1  0
 43 41  1  0
 43 44  1  0
 43 42  1  0
 45 48  1  1
 45 46  1  0
 47 45  1  0
 49  1  1  0
 49 52  1  0
 50 53  1  0
 51 52  1  0
 51 55  2  0
 52 50  2  0
 53 56  1  0
 54 53  2  0
 54 57  1  0
 55 54  1  0
 58 66  1  0
 59 64  1  0
 60 61  1  0
 60 59  1  0
 62 61  1  0
 62 71  1  0
 62 63  1  0
 64 58  1  0
 64 63  1  0
 65 58  2  0
 66 55  1  0
 66 67  1  0
 68 69  2  0
 69 88  1  0
 70 69  1  0
 70 73  1  0
 71 72  1  0
 71 68  1  0
 72 70  2  0
 73 74  1  0
 74 75  2  0
 76 79  1  0
 76 75  1  0
 77 76  2  0
 78 77  1  0
 78 73  2  0
 79 80  1  0
 80 81  1  0
 81 82  2  0
 83 82  1  0
 83 87  1  0
 84 83  2  0
 85 80  2  0
 85 84  1  0
 86 85  1  0
 88 89  1  0
 89 92  1  0
 89 91  1  0
 90 88  2  0
 93 68  1  0
 93 94  1  0
 95 93  1  0
M  ISO  4   7 101   8 101  58 100  66 100
M  END
>  <TORSDO>  (69) 
F 21

>  <SCORE>  (69) 
-11.309

>  <name>  (69) 
68

>  <ligand_id>  (69) 
68

>  <original_smiles>  (69) 
[H]c1c([H])c([H])c2c(c1[H])C([H])([H])C([H])([H])C([H])([H])C2([H])N([H])C(=O)C1([H])N(C(=O)C([H])(N([H])C(=O)C([H])(N([H])C([H])([H])[H])C([H])([H])[H])C(C([H])([H])[H])(C([H])([H])[H])C([H])([H])[H])C([H])([H])c2c([H])c(OC([H])(C([H])([H])[H])C([H])([H])C(C([H])([H])[H])(C([H])([H])[H])C([H])([H])C([H])([H])c3c([H])c(N([H])C(=O)N4C([H])([H])C([H])([H])C([H])([H])C([H])(n5nc(-c6c([H])c([H])c(Oc7c([H])c([H])c(F)c([H])c7F)c([H])c6[H])c(C(=O)N([H])[H])c5N([H])[H])C4([H])[H])c(C([H])([H])[H])c(C([H])([H])[H])c3[H])c([H])c([H])c2C1([H])[H]

>  <smiles>  (69) 
[H]c1c([H])c([H])c2c(c1[H])C([H])([H])C([H])([H])C([H])([H])C2([H])N([H])C(=O)C1([H])N(C(=O)C([H])(N([H])C(=O)C([H])(N([H])C([H])([H])[H])C([H])([H])[H])C(C([H])([H])[H])(C([H])([H])[H])C([H])([H])[H])C([H])([H])c2c([H])c(OC([H])(C([H])([H])[H])C([H])([H])C(C([H])([H])[H])(C([H])([H])[H])C([H])([H])C([H])([H])c3c([H])c(N([H])C(=O)N4C([H])([H])C([H])([H])C([H])([H])C([H])(n5nc(-c6c([H])c([H])c(Oc7c([H])c([H])c(F)c([H])c7F)c([H])c6[H])c(C(=O)N([H])[H])c5N([H])[H])C4([H])[H])c(C([H])([H])[H])c(C([H])([H])[H])c3[H])c([H])c([H])c2C1([H])[H]

$$$$
69:0:0
     RDKit          3D

 97107  0  0  1  0  0  0  0  0999 V2000
  -28.4200  -19.2020   20.7020 C   0  0  0  0  0  3  0  0  0  0  0  0
  -28.4580  -17.7850   20.5680 C   0  0  0  0  0  3  0  0  0  0  0  0
  -30.8460  -17.8530   20.3590 C   0  0  0  0  0  3  0  0  0  0  0  0
  -29.5990  -19.9960   20.7270 C   0  0  0  0  0  0  0  0  0  0  0  0
  -30.8110  -19.2740   20.5080 C   0  0  0  0  0  0  0  0  0  0  0  0
  -29.6740  -17.0660   20.4260 C   0  0  0  0  0  0  0  0  0  0  0  0
  -32.1340  -19.9750   20.6060 C   0  0  0  0  0  2  0  0  0  0  0  0
  -32.4180  -20.2560   22.0770 C   0  0  0  0  0  2  0  0  0  0  0  0
  -31.8970  -21.6290   22.4830 C   0  0  0  0  0  2  0  0  0  0  0  0
  -30.1290  -23.3560   22.9120 C   0  0  0  0  0  2  0  0  0  0  0  0
  -29.1790  -24.2150   22.0560 C   0  0  0  0  0  2  0  0  0  0  0  0
  -29.4650  -22.6650   20.0380 C   0  0  0  0  0  2  0  0  0  0  0  0
  -29.5280  -21.5260   21.1510 C   0  0  0  0  0  3  0  0  0  0  0  0
  -30.3650  -21.8960   22.4320 C   0  0  0  0  0  3  0  0  0  0  0  0
  -29.4240  -24.2040   20.5220 C   0  0  2  0  0  0  0  0  0  0  0  0
  -30.4870  -14.6160   20.0320 C   0  0  0  0  0  0  0  0  0  0  0  0
  -30.2580  -12.4050   18.9160 C   0  0  0  0  0  2  0  0  0  0  0  0
  -29.2310  -12.5560   17.7720 C   0  0  0  0  0  2  0  0  0  0  0  0
  -27.7860  -12.3910   18.2880 C   0  0  0  0  0  2  0  0  0  0  0  0
  -27.5110  -13.2200   19.5690 C   0  0  0  0  0  3  0  0  0  0  0  0
  -28.6320  -13.0120   20.6100 C   0  0  0  0  0  2  0  0  0  0  0  0
  -29.9040  -13.3780   19.9660 N   0  0  0  0  0  0  0  0  0  0  0  0
  -31.6210  -14.8220   19.5880 O   0  0  0  0  0  0  0  0  0  0  0  0
  -29.6360  -15.6080   20.4410 N   0  0  0  0  0  0  0  0  0  0  0  0
  -28.7470  -15.2290   20.7250 H   0  0  0  0  0  0  0  0  0  0  0  0
  -25.1690  -13.8200   20.4450 C   0  0  0  0  0  0  0  0  0  0  0  0
  -24.1240  -13.0450   20.8670 C   0  0  0  0  0  0  0  0  0  0  0  0
  -24.5750  -11.6930   20.7730 C   0  0  0  0  0  0  0  0  0  0  0  0
  -26.1910  -12.9390   20.1260 N   0  0  0  0  0  0  0  0  0  0  0  0
  -25.8410  -11.6540   20.3810 N   0  0  0  0  0  0  0  0  0  0  0  0
  -23.8550  -10.4280   20.9740 C   0  0  0  0  0  0  0  0  0  0  0  0
  -24.3170   -9.4530   21.8850 C   0  0  0  0  0  3  0  0  0  0  0  0
  -23.5970   -8.2530   22.0720 C   0  0  0  0  0  3  0  0  0  0  0  0
  -22.4010   -8.0220   21.3510 C   0  0  0  0  0  0  0  0  0  0  0  0
  -21.9590   -8.9880   20.4300 C   0  0  0  0  0  3  0  0  0  0  0  0
  -22.6800  -10.1790   20.2390 C   0  0  0  0  0  3  0  0  0  0  0  0
  -21.6490   -6.8780   21.4510 O   0  0  0  0  0  0  0  0  0  0  0  0
  -21.6000   -6.1480   22.6120 C   0  0  0  0  0  0  0  0  0  0  0  0
  -21.1290   -6.7030   23.8230 C   0  0  0  0  0  3  0  0  0  0  0  0
  -21.0330   -5.8980   24.9760 C   0  0  0  0  0  3  0  0  0  0  0  0
  -21.3960   -4.5390   24.9180 C   0  0  0  0  0  0  0  0  0  0  0  0
  -21.8620   -3.9850   23.7130 C   0  0  0  0  0  3  0  0  0  0  0  0
  -21.9600   -4.7860   22.5630 C   0  0  0  0  0  0  0  0  0  0  0  0
  -22.3870   -4.2420   21.3980 F   0  0  0  0  0  0  0  0  0  0  0  0
  -21.2970   -3.7630   26.0230 F   0  0  0  0  0  0  0  0  0  0  0  0
  -22.7490  -13.5210   21.2380 C   0  0  0  0  0  0  0  0  0  0  0  0
  -22.0750  -12.8050   22.1300 N   0  0  0  0  0  0  0  0  0  0  0  0
  -22.2840  -14.5600   20.7710 O   0  0  0  0  0  0  0  0  0  0  0  0
  -22.4620  -11.9610   22.5240 H   0  0  0  0  0  0  0  0  0  0  0  0
  -21.1570  -13.1070   22.4270 H   0  0  0  0  0  0  0  0  0  0  0  0
  -25.3290  -15.1930   20.2780 N   0  0  0  0  0  0  0  0  0  0  0  0
  -24.5500  -15.8320   20.4030 H   0  0  0  0  0  0  0  0  0  0  0  0
  -26.0980  -15.6020   19.7630 H   0  0  0  0  0  0  0  0  0  0  0  0
  -32.1110  -24.3530   20.2270 C   0  0  0  0  0  1  0  0  0  0  0  0
  -30.7150  -24.9790   20.0780 C   0  0  0  0  0  2  0  0  0  0  0  0
  -28.2410  -25.0820   19.8880 C   0  0  0  0  0  2  0  0  0  0  0  0
  -28.3140  -26.5370   20.1320 O   0  0  0  0  0  0  0  0  0  0  0  0
  -24.5770  -31.8390   23.1970 C   0  0  0  0  0  0  0  0  0  0  0  0
  -27.1620  -27.3350   20.0770 C   0  0  0  0  0  0  0  0  0  0  0  0
  -23.3530  -30.4660   21.5480 C   0  0  0  0  0  3  0  0  0  0  0  0
  -24.7890  -28.9300   20.0880 C   0  0  0  0  0  0  0  0  0  0  0  0
  -25.8840  -30.7930   21.3360 C   0  0  0  0  0  2  0  0  0  0  0  0
  -25.9600  -29.4190   20.6820 C   0  0  0  0  0  0  0  0  0  0  0  0
  -27.1460  -28.6310   20.6670 C   0  0  0  0  0  3  0  0  0  0  0  0
  -25.9710  -26.8880   19.4570 C   0  0  0  0  0  3  0  0  0  0  0  0
  -24.7950  -27.6690   19.4650 C   0  0  0  0  0  3  0  0  0  0  0  0
  -23.5580  -29.8100   20.1540 C   0  0  0  0  0  2  0  0  0  0  0  0
  -24.6250  -31.0480   22.0870 N   0  0  0  0  0  0  0  0  0  0  0  0
  -23.4990  -32.1110   23.7480 O   0  0  0  0  0  0  0  0  0  0  0  0
  -22.7000  -29.4360   22.5010 C   0  0  0  0  0  0  0  0  0  0  0  0
  -21.3710  -29.2730   22.3920 N   0  0  0  0  0  0  0  0  0  0  0  0
  -23.3840  -28.7890   23.2980 O   0  0  0  0  0  0  0  0  0  0  0  0
  -20.8810  -29.8530   21.7250 H   0  0  0  0  0  0  0  0  0  0  0  0
  -17.9880  -28.1020   22.9030 C   0  0  0  0  0  0  0  0  0  0  0  0
  -20.5510  -28.3280   23.1510 C   0  0  0  0  0  3  0  0  0  0  0  0
  -20.6330  -26.9070   22.5490 C   0  0  0  0  0  2  0  0  0  0  0  0
  -19.5160  -26.6110   21.5440 C   0  0  0  0  0  2  0  0  0  0  0  0
  -18.1430  -26.7610   22.2050 C   0  0  0  0  0  2  0  0  0  0  0  0
  -19.1190  -28.8450   23.3330 C   0  0  0  0  0  0  0  0  0  0  0  0
  -18.9220  -30.1000   23.9480 C   0  0  0  0  0  3  0  0  0  0  0  0
  -17.6240  -30.6120   24.1420 C   0  0  0  0  0  3  0  0  0  0  0  0
  -16.5080  -29.8660   23.7260 C   0  0  0  0  0  3  0  0  0  0  0  0
  -16.6890  -28.6150   23.1120 C   0  0  0  0  0  3  0  0  0  0  0  0
  -25.8680  -32.4550   23.8180 C   0  0  0  0  0  3  0  0  0  0  0  0
  -25.5700  -33.8520   24.1660 N   0  0  0  0  0  0  0  0  0  0  0  0
  -25.8900  -34.9090   23.4090 C   0  0  0  0  0  0  0  0  0  0  0  0
  -26.5440  -34.8130   22.3650 O   0  0  0  0  0  0  0  0  0  0  0  0
  -24.9910  -34.0020   24.9790 H   0  0  0  0  0  0  0  0  0  0  0  0
  -24.1670  -36.7170   23.0990 C   0  0  0  0  0  1  0  0  0  0  0  0
  -25.4190  -36.2960   23.8860 C   0  0  0  0  0  3  0  0  0  0  0  0
  -27.5610  -37.1740   24.7010 C   0  0  0  0  0  1  0  0  0  0  0  0
  -26.4540  -37.3460   23.7640 N   0  0  0  0  0  0  0  0  0  0  0  0
  -26.0510  -38.2660   23.9180 H   0  0  0  0  0  0  0  0  0  0  0  0
  -26.3890  -31.6680   25.0830 C   0  0  1  0  0  0  0  0  0  0  0  0
  -25.2990  -31.4260   26.1540 C   0  0  0  0  0  1  0  0  0  0  0  0
  -26.9640  -30.2940   24.6660 C   0  0  0  0  0  1  0  0  0  0  0  0
  -27.5440  -32.4510   25.7510 C   0  0  0  0  0  1  0  0  0  0  0  0
  1  4  1  0
  2  1  2  0
  3  6  2  0
  3  5  1  0
  4 13  1  0
  5  7  1  0
  5  4  2  0
  6 24  1  0
  6  2  1  0
  7  8  1  0
  8  9  1  0
 11 10  1  0
 12 15  1  0
 13 12  1  0
 13 14  1  0
 14  9  1  0
 14 10  1  0
 15 56  1  6
 15 11  1  0
 16 24  1  0
 17 22  1  0
 18 19  1  0
 18 17  1  0
 20 19  1  0
 20 29  1  0
 20 21  1  0
 22 16  1  0
 22 21  1  0
 23 16  2  0
 24 25  1  0
 26 27  2  0
 27 46  1  0
 28 27  1  0
 28 31  1  0
 29 30  1  0
 29 26  1  0
 30 28  2  0
 31 32  1  0
 32 33  2  0
 34 37  1  0
 34 33  1  0
 35 34  2  0
 36 35  1  0
 36 31  2  0
 37 38  1  0
 38 39  1  0
 39 40  2  0
 41 40  1  0
 41 45  1  0
 42 41  2  0
 43 38  2  0
 43 42  1  0
 44 43  1  0
 46 47  1  0
 47 50  1  0
 47 49  1  0
 48 46  2  0
 51 52  1  0
 51 26  1  0
 53 51  1  0
 55 54  1  0
 55 15  1  0
 56 57  1  0
 58 69  2  0
 59 57  1  0
 59 64  1  0
 60 68  1  0
 60 70  1  0
 61 67  1  0
 61 63  1  0
 62 68  1  0
 63 62  1  0
 64 63  2  0
 65 66  1  0
 65 59  2  0
 66 61  2  0
 67 60  1  0
 68 58  1  0
 70 72  2  0
 71 70  1  0
 73 71  1  0
 74 83  2  0
 74 79  1  0
 75 71  1  0
 75 79  1  0
 76 75  1  0
 77 78  1  0
 77 76  1  0
 78 74  1  0
 79 80  2  0
 80 81  1  0
 82 81  2  0
 83 82  1  0
 84 58  1  0
 84 85  1  0
 84 94  1  0
 85 88  1  0
 86 90  1  0
 86 85  1  0
 87 86  2  0
 90 89  1  0
 92 90  1  0
 92 93  1  0
 92 91  1  0
 94 97  1  1
 94 95  1  0
 96 94  1  0
M  ISO  4  16 100  24 100  56 101  57 101
M  END
>  <TORSDO>  (70) 
F 18

>  <SCORE>  (70) 
-14.788

>  <name>  (70) 
69

>  <ligand_id>  (70) 
69

>  <original_smiles>  (70) 
[H]c1c([H])c([H])c2c(c1[H])C([H])([H])C([H])([H])C([H])([H])C2([H])N([H])C(=O)C1([H])N(C(=O)C([H])(N([H])C(=O)C([H])(N([H])C([H])([H])[H])C([H])([H])[H])C(C([H])([H])[H])(C([H])([H])[H])C([H])([H])[H])C([H])([H])c2c([H])c(OC([H])([H])C3(C([H])([H])C([H])([H])[H])C([H])([H])C([H])([H])C4([H])C([H])([H])C([H])([H])C([H])([H])c5c([H])c(N([H])C(=O)N6C([H])([H])C([H])([H])C([H])([H])C([H])(n7nc(-c8c([H])c([H])c(Oc9c([H])c([H])c(F)c([H])c9F)c([H])c8[H])c(C(=O)N([H])[H])c7N([H])[H])C6([H])[H])c([H])c([H])c5C4([H])C3([H])[H])c([H])c([H])c2C1([H])[H]

>  <smiles>  (70) 
[H]c1c([H])c([H])c2c(c1[H])C([H])([H])C([H])([H])C([H])([H])C2([H])N([H])C(=O)C1([H])N(C(=O)C([H])(N([H])C(=O)C([H])(N([H])C([H])([H])[H])C([H])([H])[H])C(C([H])([H])[H])(C([H])([H])[H])C([H])([H])[H])C([H])([H])c2c([H])c(OC([H])([H])C3(C([H])([H])C([H])([H])[H])C([H])([H])C([H])([H])C4([H])C([H])([H])C([H])([H])C([H])([H])c5c([H])c(N([H])C(=O)N6C([H])([H])C([H])([H])C([H])([H])C([H])(n7nc(-c8c([H])c([H])c(Oc9c([H])c([H])c(F)c([H])c9F)c([H])c8[H])c(C(=O)N([H])[H])c7N([H])[H])C6([H])[H])c([H])c([H])c5C4([H])C3([H])[H])c([H])c([H])c2C1([H])[H]

$$$$
70:0:0
     RDKit          3D

 93101  0  0  1  0  0  0  0  0999 V2000
  -29.4610  -20.6990   21.6770 C   0  0  0  0  0  3  0  0  0  0  0  0
  -29.7400  -21.9970   21.3680 C   0  0  0  0  0  3  0  0  0  0  0  0
  -31.6700  -19.7610   21.0150 C   0  0  0  0  0  3  0  0  0  0  0  0
  -29.8230  -18.1830   21.1400 C   0  0  0  0  0  3  0  0  0  0  0  0
  -32.0600  -17.3990   20.5750 C   0  0  0  0  0  3  0  0  0  0  0  0
  -30.3030  -19.5260   21.2710 C   0  0  0  0  0  0  0  0  0  0  0  0
  -32.5410  -18.7170   20.6630 C   0  0  0  0  0  0  0  0  0  0  0  0
  -30.6890  -17.0940   20.7870 C   0  0  0  0  0  0  0  0  0  0  0  0
  -34.0010  -19.0310   20.3930 C   0  0  0  0  0  1  0  0  0  0  0  0
  -30.7460  -14.6660   20.0440 C   0  0  0  0  0  0  0  0  0  0  0  0
  -30.3490  -12.4700   18.9680 C   0  0  0  0  0  2  0  0  0  0  0  0
  -29.3590  -12.6330   17.8010 C   0  0  0  0  0  2  0  0  0  0  0  0
  -27.9110  -12.4900   18.3060 C   0  0  0  0  0  2  0  0  0  0  0  0
  -27.6240  -13.3400   19.5720 C   0  0  0  0  0  3  0  0  0  0  0  0
  -28.7470  -13.2000   20.6290 C   0  0  0  0  0  2  0  0  0  0  0  0
  -30.0300  -13.4990   19.9780 N   0  0  0  0  0  0  0  0  0  0  0  0
  -31.8150  -14.7720   19.4460 O   0  0  0  0  0  0  0  0  0  0  0  0
  -30.1830  -15.7310   20.6800 N   0  0  0  0  0  0  0  0  0  0  0  0
  -29.2650  -15.5620   21.0570 H   0  0  0  0  0  0  0  0  0  0  0  0
  -25.2690  -13.9040   20.4370 C   0  0  0  0  0  0  0  0  0  0  0  0
  -24.2270  -13.1170   20.8460 C   0  0  0  0  0  0  0  0  0  0  0  0
  -24.6920  -11.7680   20.7480 C   0  0  0  0  0  0  0  0  0  0  0  0
  -26.3050  -13.0370   20.1240 N   0  0  0  0  0  0  0  0  0  0  0  0
  -25.9630  -11.7460   20.3650 N   0  0  0  0  0  0  0  0  0  0  0  0
  -23.9790  -10.4980   20.9470 C   0  0  0  0  0  0  0  0  0  0  0  0
  -24.4400   -9.5250   21.8630 C   0  0  0  0  0  3  0  0  0  0  0  0
  -23.7230   -8.3220   22.0480 C   0  0  0  0  0  3  0  0  0  0  0  0
  -22.5350   -8.0830   21.3180 C   0  0  0  0  0  0  0  0  0  0  0  0
  -22.0950   -9.0440   20.3920 C   0  0  0  0  0  3  0  0  0  0  0  0
  -22.8110  -10.2390   20.2030 C   0  0  0  0  0  3  0  0  0  0  0  0
  -21.7870   -6.9350   21.4160 O   0  0  0  0  0  0  0  0  0  0  0  0
  -21.7350   -6.2070   22.5760 C   0  0  0  0  0  0  0  0  0  0  0  0
  -21.2730   -6.7700   23.7870 C   0  0  0  0  0  3  0  0  0  0  0  0
  -21.1660   -5.9680   24.9410 C   0  0  0  0  0  3  0  0  0  0  0  0
  -21.5110   -4.6040   24.8850 C   0  0  0  0  0  0  0  0  0  0  0  0
  -21.9660   -4.0420   23.6800 C   0  0  0  0  0  3  0  0  0  0  0  0
  -22.0750   -4.8390   22.5280 C   0  0  0  0  0  0  0  0  0  0  0  0
  -22.4900   -4.2850   21.3640 F   0  0  0  0  0  0  0  0  0  0  0  0
  -21.4040   -3.8330   25.9910 F   0  0  0  0  0  0  0  0  0  0  0  0
  -22.8510  -13.5790   21.2230 C   0  0  0  0  0  0  0  0  0  0  0  0
  -22.1830  -12.8530   22.1120 N   0  0  0  0  0  0  0  0  0  0  0  0
  -22.3820  -14.6230   20.7710 O   0  0  0  0  0  0  0  0  0  0  0  0
  -22.5840  -12.0110   22.5000 H   0  0  0  0  0  0  0  0  0  0  0  0
  -21.2600  -13.1400   22.4080 H   0  0  0  0  0  0  0  0  0  0  0  0
  -25.4160  -15.2800   20.2850 N   0  0  0  0  0  0  0  0  0  0  0  0
  -24.6600  -15.9320   20.4620 H   0  0  0  0  0  0  0  0  0  0  0  0
  -26.2400  -15.7310   19.9090 H   0  0  0  0  0  0  0  0  0  0  0  0
  -29.0790  -23.2990   21.8850 C   0  0  0  0  0  2  0  0  0  0  0  0
  -29.3270  -24.3210   19.5470 C   0  0  0  0  0  1  0  0  0  0  0  0
  -27.0540  -23.7210   20.4770 C   0  0  0  0  0  1  0  0  0  0  0  0
  -28.4520  -24.2790   20.8180 C   0  0  1  0  0  0  0  0  0  0  0  0
  -28.3190  -25.7580   21.3600 C   0  0  0  0  0  2  0  0  0  0  0  0
  -28.3100  -26.7910   20.3390 O   0  0  0  0  0  0  0  0  0  0  0  0
  -24.5590  -32.0370   23.3420 C   0  0  0  0  0  0  0  0  0  0  0  0
  -27.1790  -27.5760   20.2980 C   0  0  0  0  0  0  0  0  0  0  0  0
  -23.3470  -30.6280   21.7180 C   0  0  0  0  0  3  0  0  0  0  0  0
  -24.7890  -29.0870   20.2820 C   0  0  0  0  0  0  0  0  0  0  0  0
  -25.8660  -30.9970   21.4890 C   0  0  0  0  0  2  0  0  0  0  0  0
  -25.9510  -29.6190   20.8630 C   0  0  0  0  0  0  0  0  0  0  0  0
  -27.1510  -28.8690   20.8670 C   0  0  0  0  0  3  0  0  0  0  0  0
  -26.0150  -27.0770   19.6790 C   0  0  0  0  0  3  0  0  0  0  0  0
  -24.8210  -27.8180   19.6790 C   0  0  0  0  0  3  0  0  0  0  0  0
  -23.5380  -29.9350   20.3420 C   0  0  0  0  0  2  0  0  0  0  0  0
  -24.6100  -31.2360   22.2400 N   0  0  0  0  0  0  0  0  0  0  0  0
  -23.4810  -32.3060   23.8900 O   0  0  0  0  0  0  0  0  0  0  0  0
  -22.7110  -29.6180   22.6970 C   0  0  0  0  0  0  0  0  0  0  0  0
  -21.3930  -29.4040   22.5570 N   0  0  0  0  0  0  0  0  0  0  0  0
  -23.3980  -29.0210   23.5290 O   0  0  0  0  0  0  0  0  0  0  0  0
  -20.8940  -29.9440   21.8640 H   0  0  0  0  0  0  0  0  0  0  0  0
  -18.0560  -28.0080   22.9080 C   0  0  0  0  0  0  0  0  0  0  0  0
  -20.6050  -28.4160   23.2910 C   0  0  0  0  0  0  0  0  0  0  0  0
  -20.9050  -27.0020   22.7260 C   0  0  0  0  0  3  0  0  0  0  0  0
  -19.7490  -26.3260   21.9560 C   0  0  0  0  0  3  0  0  0  0  0  0
  -18.2700  -26.6860   22.1850 C   0  0  0  0  0  3  0  0  0  0  0  0
  -19.1250  -28.8270   23.3690 C   0  0  0  0  0  0  0  0  0  0  0  0
  -18.8190  -30.0930   23.9170 C   0  0  0  0  0  3  0  0  0  0  0  0
  -17.4870  -30.5400   24.0140 C   0  0  0  0  0  3  0  0  0  0  0  0
  -16.4370  -29.7130   23.5830 C   0  0  0  0  0  3  0  0  0  0  0  0
  -16.7250  -28.4510   23.0390 C   0  0  0  0  0  3  0  0  0  0  0  0
  -25.8500  -32.6720   23.9480 C   0  0  0  0  0  3  0  0  0  0  0  0
  -26.3690  -31.9240   25.2380 C   0  0  1  0  0  0  0  0  0  0  0  0
  -25.2780  -31.6950   26.3100 C   0  0  0  0  0  1  0  0  0  0  0  0
  -26.9620  -30.5420   24.8720 C   0  0  0  0  0  1  0  0  0  0  0  0
  -27.5110  -32.7380   25.8900 C   0  0  0  0  0  1  0  0  0  0  0  0
  -25.5480  -34.0790   24.2450 N   0  0  0  0  0  0  0  0  0  0  0  0
  -25.8800  -35.1090   23.4560 C   0  0  0  0  0  0  0  0  0  0  0  0
  -26.5490  -34.9750   22.4270 O   0  0  0  0  0  0  0  0  0  0  0  0
  -24.9520  -34.2590   25.0390 H   0  0  0  0  0  0  0  0  0  0  0  0
  -24.1530  -36.8980   23.0680 C   0  0  0  0  0  1  0  0  0  0  0  0
  -25.3990  -36.5100   23.8810 C   0  0  0  0  0  3  0  0  0  0  0  0
  -27.5410  -37.4150   24.6740 C   0  0  0  0  0  1  0  0  0  0  0  0
  -26.4320  -37.5580   23.7330 N   0  0  0  0  0  0  0  0  0  0  0  0
  -26.0290  -38.4840   23.8530 H   0  0  0  0  0  0  0  0  0  0  0  0
  2  1  2  0
  2 48  1  0
  3  6  1  0
  4  6  2  0
  5  7  1  0
  5  8  2  0
  6  1  1  0
  7  3  2  0
  8  4  1  0
  9  7  1  0
 10 18  1  0
 11 16  1  0
 12 13  1  0
 12 11  1  0
 14 13  1  0
 14 23  1  0
 14 15  1  0
 16 10  1  0
 16 15  1  0
 17 10  2  0
 18  8  1  0
 18 19  1  0
 20 21  2  0
 21 40  1  0
 22 21  1  0
 22 25  1  0
 23 24  1  0
 23 20  1  0
 24 22  2  0
 25 26  1  0
 26 27  2  0
 28 31  1  0
 28 27  1  0
 29 28  2  0
 30 29  1  0
 30 25  2  0
 31 32  1  0
 32 33  1  0
 33 34  2  0
 35 34  1  0
 35 39  1  0
 36 35  2  0
 37 32  2  0
 37 36  1  0
 38 37  1  0
 40 41  1  0
 41 44  1  0
 41 43  1  0
 42 40  2  0
 45 20  1  0
 45 46  1  0
 47 45  1  0
 51 49  1  6
 50 51  1  0
 51 52  1  0
 51 48  1  0
 53 52  1  0
 54 65  2  0
 55 53  1  0
 55 60  1  0
 56 64  1  0
 56 66  1  0
 57 63  1  0
 57 59  1  0
 58 64  1  0
 59 60  2  0
 59 58  1  0
 61 62  1  0
 61 55  2  0
 62 57  2  0
 63 56  1  0
 64 54  1  0
 66 68  2  0
 67 66  1  0
 67 71  1  0
 69 67  1  0
 70 79  2  0
 70 75  1  0
 71 75  1  0
 72 71  2  0
 73 74  2  0
 73 72  1  0
 74 70  1  0
 75 76  2  0
 76 77  1  0
 78 77  2  0
 79 78  1  0
 80 54  1  0
 80 85  1  0
 80 81  1  0
 81 84  1  1
 81 82  1  0
 83 81  1  0
 85 88  1  0
 86 90  1  0
 86 85  1  0
 87 86  2  0
 90 89  1  0
 92 93  1  0
 92 90  1  0
 92 91  1  0
M  ISO  4  10 100  18 100  52 101  53 101
M  END
>  <TORSDO>  (71) 
F 20

>  <SCORE>  (71) 
-13.821

>  <name>  (71) 
70

>  <ligand_id>  (71) 
70

>  <original_smiles>  (71) 
[H]C(=C([H])C([H])([H])C(C([H])([H])[H])(C([H])([H])[H])C([H])([H])Oc1c([H])c([H])c2c(c1[H])C([H])([H])N(C(=O)C([H])(N([H])C(=O)C([H])(N([H])C([H])([H])[H])C([H])([H])[H])C(C([H])([H])[H])(C([H])([H])[H])C([H])([H])[H])C([H])(C(=O)N([H])C1([H])c3c([H])c([H])c([H])c([H])c3C([H])([H])C([H])([H])C1([H])[H])C2([H])[H])c1c([H])c(N([H])C(=O)N2C([H])([H])C([H])([H])C([H])([H])C([H])(n3nc(-c4c([H])c([H])c(Oc5c([H])c([H])c(F)c([H])c5F)c([H])c4[H])c(C(=O)N([H])[H])c3N([H])[H])C2([H])[H])c([H])c(C([H])([H])[H])c1[H]

>  <smiles>  (71) 
[H]C(=C([H])C([H])([H])C(C([H])([H])[H])(C([H])([H])[H])C([H])([H])Oc1c([H])c([H])c2c(c1[H])C([H])([H])N(C(=O)C([H])(N([H])C(=O)C([H])(N([H])C([H])([H])[H])C([H])([H])[H])C(C([H])([H])[H])(C([H])([H])[H])C([H])([H])[H])C([H])(C(=O)N([H])C1([H])c3c([H])c([H])c([H])c([H])c3C([H])([H])C([H])([H])C1([H])[H])C2([H])[H])c1c([H])c(N([H])C(=O)N2C([H])([H])C([H])([H])C([H])([H])C([H])(n3nc(-c4c([H])c([H])c(Oc5c([H])c([H])c(F)c([H])c5F)c([H])c4[H])c(C(=O)N([H])[H])c3N([H])[H])C2([H])[H])c([H])c(C([H])([H])[H])c1[H]

$$$$
71:0:0
     RDKit          3D

 94102  0  0  1  0  0  0  0  0999 V2000
  -30.1920  -21.5860   19.9490 C   0  0  0  0  0  0  0  0  0  0  0  0
  -31.1020  -22.0600   19.2060 N   0  0  0  0  0  0  0  0  0  0  0  0
  -31.6900  -21.3300   18.8240 H   0  0  0  0  0  0  0  0  0  0  0  0
  -31.2970  -19.2660   20.0830 C   0  0  0  0  0  3  0  0  0  0  0  0
  -31.2870  -17.8480   20.2130 C   0  0  0  0  0  3  0  0  0  0  0  0
  -28.9220  -19.3490   20.4220 C   0  0  0  0  0  3  0  0  0  0  0  0
  -30.1200  -20.0680   20.1740 C   0  0  0  0  0  0  0  0  0  0  0  0
  -30.0800  -17.1380   20.4400 C   0  0  0  0  0  0  0  0  0  0  0  0
  -28.9040  -17.9280   20.5470 C   0  0  0  0  0  0  0  0  0  0  0  0
  -27.7210  -17.2990   20.7560 F   0  0  0  0  0  0  0  0  0  0  0  0
  -30.7020  -14.6550   20.0730 C   0  0  0  0  0  0  0  0  0  0  0  0
  -30.4020  -12.4780   18.9190 C   0  0  0  0  0  2  0  0  0  0  0  0
  -29.3880  -12.6690   17.7690 C   0  0  0  0  0  2  0  0  0  0  0  0
  -27.9420  -12.5000   18.2780 C   0  0  0  0  0  2  0  0  0  0  0  0
  -27.6650  -13.3040   19.5760 C   0  0  0  0  0  3  0  0  0  0  0  0
  -28.7880  -13.0880   20.6170 C   0  0  0  0  0  2  0  0  0  0  0  0
  -30.0650  -13.4470   19.9800 N   0  0  0  0  0  0  0  0  0  0  0  0
  -31.8320  -14.8200   19.6060 O   0  0  0  0  0  0  0  0  0  0  0  0
  -29.9540  -15.6890   20.5590 N   0  0  0  0  0  0  0  0  0  0  0  0
  -29.0680  -15.3980   20.9430 H   0  0  0  0  0  0  0  0  0  0  0  0
  -25.3110  -13.8730   20.4360 C   0  0  0  0  0  0  0  0  0  0  0  0
  -24.2690  -13.0830   20.8430 C   0  0  0  0  0  0  0  0  0  0  0  0
  -24.7360  -11.7360   20.7550 C   0  0  0  0  0  0  0  0  0  0  0  0
  -26.3460  -13.0050   20.1270 N   0  0  0  0  0  0  0  0  0  0  0  0
  -26.0080  -11.7130   20.3770 N   0  0  0  0  0  0  0  0  0  0  0  0
  -24.0280  -10.4660   20.9540 C   0  0  0  0  0  0  0  0  0  0  0  0
  -24.4630   -9.5200   21.9100 C   0  0  0  0  0  3  0  0  0  0  0  0
  -23.7550   -8.3140   22.0960 C   0  0  0  0  0  3  0  0  0  0  0  0
  -22.5980   -8.0440   21.3280 C   0  0  0  0  0  0  0  0  0  0  0  0
  -22.1820   -8.9780   20.3630 C   0  0  0  0  0  3  0  0  0  0  0  0
  -22.8910  -10.1760   20.1750 C   0  0  0  0  0  3  0  0  0  0  0  0
  -21.8620   -6.8880   21.4230 O   0  0  0  0  0  0  0  0  0  0  0  0
  -21.7450   -6.2040   22.6070 C   0  0  0  0  0  0  0  0  0  0  0  0
  -21.1850   -6.7990   23.7580 C   0  0  0  0  0  3  0  0  0  0  0  0
  -21.0200   -6.0390   24.9330 C   0  0  0  0  0  3  0  0  0  0  0  0
  -21.4020   -4.6840   24.9560 C   0  0  0  0  0  0  0  0  0  0  0  0
  -21.9540   -4.0890   23.8080 C   0  0  0  0  0  3  0  0  0  0  0  0
  -22.1210   -4.8460   22.6360 C   0  0  0  0  0  0  0  0  0  0  0  0
  -22.6330   -4.2620   21.5260 F   0  0  0  0  0  0  0  0  0  0  0  0
  -21.2360   -3.9510   26.0810 F   0  0  0  0  0  0  0  0  0  0  0  0
  -22.8860  -13.5450   21.2010 C   0  0  0  0  0  0  0  0  0  0  0  0
  -22.2070  -12.8190   22.0830 N   0  0  0  0  0  0  0  0  0  0  0  0
  -22.4160  -14.5830   20.7360 O   0  0  0  0  0  0  0  0  0  0  0  0
  -22.6010  -11.9800   22.4810 H   0  0  0  0  0  0  0  0  0  0  0  0
  -21.2800  -13.1070   22.3640 H   0  0  0  0  0  0  0  0  0  0  0  0
  -25.4590  -15.2480   20.2890 N   0  0  0  0  0  0  0  0  0  0  0  0
  -24.7070  -15.8950   20.4980 H   0  0  0  0  0  0  0  0  0  0  0  0
  -26.3130  -15.7160   20.0160 H   0  0  0  0  0  0  0  0  0  0  0  0
  -29.2120  -22.6110   20.6150 C   0  0  0  0  0  3  0  0  0  0  0  0
  -29.2270  -24.1140   20.0570 C   0  0  0  0  0  3  0  0  0  0  0  0
  -26.9730  -24.6690   21.0900 C   0  0  0  0  0  1  0  0  0  0  0  0
  -29.0390  -25.6020   22.1400 C   0  0  0  0  0  1  0  0  0  0  0  0
  -28.3810  -25.2420   20.7970 C   0  0  1  0  0  0  0  0  0  0  0  0
  -28.3960  -26.5340   20.0630 O   0  0  0  0  0  0  0  0  0  0  0  0
  -24.6090  -31.8390   23.1640 C   0  0  0  0  0  0  0  0  0  0  0  0
  -27.2770  -27.3730   20.0640 C   0  0  0  0  0  0  0  0  0  0  0  0
  -23.4300  -30.4610   21.4870 C   0  0  0  0  0  3  0  0  0  0  0  0
  -24.9060  -28.9520   20.0470 C   0  0  0  0  0  0  0  0  0  0  0  0
  -25.9660  -30.8040   21.3370 C   0  0  0  0  0  2  0  0  0  0  0  0
  -26.0600  -29.4380   20.6730 C   0  0  0  0  0  0  0  0  0  0  0  0
  -27.2520  -28.6570   20.6780 C   0  0  0  0  0  3  0  0  0  0  0  0
  -26.1170  -26.9540   19.3780 C   0  0  0  0  0  3  0  0  0  0  0  0
  -24.9330  -27.7120   19.3900 C   0  0  0  0  0  3  0  0  0  0  0  0
  -23.6610  -29.8130   20.0980 C   0  0  0  0  0  2  0  0  0  0  0  0
  -24.6860  -31.0510   22.0540 N   0  0  0  0  0  0  0  0  0  0  0  0
  -23.5190  -32.1010   23.6920 O   0  0  0  0  0  0  0  0  0  0  0  0
  -22.7660  -29.4230   22.4230 C   0  0  0  0  0  0  0  0  0  0  0  0
  -21.4370  -29.2660   22.3040 N   0  0  0  0  0  0  0  0  0  0  0  0
  -23.4460  -28.7620   23.2140 O   0  0  0  0  0  0  0  0  0  0  0  0
  -20.9500  -29.8490   21.6370 H   0  0  0  0  0  0  0  0  0  0  0  0
  -18.0400  -28.1530   22.8460 C   0  0  0  0  0  0  0  0  0  0  0  0
  -20.6110  -28.3200   23.0560 C   0  0  0  0  0  3  0  0  0  0  0  0
  -20.6540  -26.9140   22.4140 C   0  0  0  0  0  2  0  0  0  0  0  0
  -19.5150  -26.6720   21.4190 C   0  0  0  0  0  2  0  0  0  0  0  0
  -18.1560  -26.8300   22.1070 C   0  0  0  0  0  2  0  0  0  0  0  0
  -19.1940  -28.8600   23.2790 C   0  0  0  0  0  0  0  0  0  0  0  0
  -19.0310  -30.1000   23.9310 C   0  0  0  0  0  3  0  0  0  0  0  0
  -17.7470  -30.6330   24.1580 C   0  0  0  0  0  3  0  0  0  0  0  0
  -16.6090  -29.9200   23.7440 C   0  0  0  0  0  3  0  0  0  0  0  0
  -16.7560  -28.6830   23.0920 C   0  0  0  0  0  3  0  0  0  0  0  0
  -25.8830  -32.4660   23.8080 C   0  0  0  0  0  3  0  0  0  0  0  0
  -26.3840  -31.6830   25.0840 C   0  0  1  0  0  0  0  0  0  0  0  0
  -25.2740  -31.4270   26.1300 C   0  0  0  0  0  1  0  0  0  0  0  0
  -26.9810  -30.3130   24.6860 C   0  0  0  0  0  1  0  0  0  0  0  0
  -27.5200  -32.4750   25.7740 C   0  0  0  0  0  1  0  0  0  0  0  0
  -25.5690  -33.8610   24.1470 N   0  0  0  0  0  0  0  0  0  0  0  0
  -25.9020  -34.9200   23.3990 C   0  0  0  0  0  0  0  0  0  0  0  0
  -26.5800  -34.8260   22.3710 O   0  0  0  0  0  0  0  0  0  0  0  0
  -24.9710  -34.0080   24.9470 H   0  0  0  0  0  0  0  0  0  0  0  0
  -24.1790  -36.7140   23.0410 C   0  0  0  0  0  1  0  0  0  0  0  0
  -25.4100  -36.3030   23.8640 C   0  0  0  0  0  3  0  0  0  0  0  0
  -27.5270  -37.1870   24.7370 C   0  0  0  0  0  1  0  0  0  0  0  0
  -26.4420  -37.3570   23.7740 N   0  0  0  0  0  0  0  0  0  0  0  0
  -26.0330  -38.2760   23.9180 H   0  0  0  0  0  0  0  0  0  0  0  0
  1  7  1  0
  1 49  1  0
  2  1  2  0
  3  2  1  0
  4  7  2  0
  4  5  1  0
  5  8  2  0
  6  9  2  0
  7  6  1  0
  8  9  1  0
  8 19  1  0
  9 10  1  0
 11 19  1  0
 12 17  1  0
 13 14  1  0
 13 12  1  0
 15 14  1  0
 15 24  1  0
 15 16  1  0
 17 11  1  0
 17 16  1  0
 18 11  2  0
 19 20  1  0
 21 22  2  0
 22 41  1  0
 23 22  1  0
 23 26  1  0
 24 25  1  0
 24 21  1  0
 25 23  2  0
 26 27  1  0
 27 28  2  0
 29 32  1  0
 29 28  1  0
 30 29  2  0
 31 30  1  0
 31 26  2  0
 32 33  1  0
 33 38  2  0
 33 34  1  0
 34 35  2  0
 35 36  1  0
 36 40  1  0
 37 36  2  0
 38 37  1  0
 39 38  1  0
 41 42  1  0
 42 45  1  0
 42 44  1  0
 43 41  2  0
 46 21  1  0
 46 47  1  0
 48 46  1  0
 50 49  2  0
 50 53  1  0
 53 51  1  1
 53 52  1  0
 54 56  1  0
 54 53  1  0
 55 66  2  0
 56 61  1  0
 57 65  1  0
 57 67  1  0
 58 64  1  0
 58 60  1  0
 59 65  1  0
 60 61  2  0
 60 59  1  0
 62 63  1  0
 62 56  2  0
 63 58  2  0
 64 57  1  0
 65 55  1  0
 67 69  2  0
 68 67  1  0
 70 68  1  0
 71 80  2  0
 71 76  1  0
 72 68  1  0
 72 76  1  0
 73 72  1  0
 74 75  1  0
 74 73  1  0
 75 71  1  0
 76 77  2  0
 77 78  1  0
 79 78  2  0
 80 79  1  0
 81 55  1  0
 81 86  1  0
 81 82  1  0
 82 85  1  1
 82 83  1  0
 84 82  1  0
 86 89  1  0
 87 91  1  0
 87 86  1  0
 88 87  2  0
 91 90  1  0
 93 91  1  0
 93 94  1  0
 93 92  1  0
M  ISO  4  11 100  19 100  53 101  54 101
M  END
>  <TORSDO>  (72) 
F 20

>  <SCORE>  (72) 
-13.975

>  <name>  (72) 
71

>  <ligand_id>  (72) 
71

>  <original_smiles>  (72) 
[H]N=C(c1c([H])c([H])c(N([H])C(=O)N2C([H])([H])C([H])([H])C([H])([H])C([H])(n3nc(-c4c([H])c([H])c(Oc5c([H])c([H])c(F)c([H])c5F)c([H])c4[H])c(C(=O)N([H])[H])c3N([H])[H])C2([H])[H])c(F)c1[H])C([H])([H])C([H])([H])C(Oc1c([H])c([H])c2c(c1[H])C([H])([H])N(C(=O)C([H])(N([H])C(=O)C([H])(N([H])C([H])([H])[H])C([H])([H])[H])C(C([H])([H])[H])(C([H])([H])[H])C([H])([H])[H])C([H])(C(=O)N([H])C1([H])c3c([H])c([H])c([H])c([H])c3C([H])([H])C([H])([H])C1([H])[H])C2([H])[H])(C([H])([H])[H])C([H])([H])[H]

>  <smiles>  (72) 
[H]N=C(c1c([H])c([H])c(N([H])C(=O)N2C([H])([H])C([H])([H])C([H])([H])C([H])(n3nc(-c4c([H])c([H])c(Oc5c([H])c([H])c(F)c([H])c5F)c([H])c4[H])c(C(=O)N([H])[H])c3N([H])[H])C2([H])[H])c(F)c1[H])C([H])([H])C([H])([H])C(Oc1c([H])c([H])c2c(c1[H])C([H])([H])N(C(=O)C([H])(N([H])C(=O)C([H])(N([H])C([H])([H])[H])C([H])([H])[H])C(C([H])([H])[H])(C([H])([H])[H])C([H])([H])[H])C([H])(C(=O)N([H])C1([H])c3c([H])c([H])c([H])c([H])c3C([H])([H])C([H])([H])C1([H])[H])C2([H])[H])(C([H])([H])[H])C([H])([H])[H]

$$$$
72:0:0
     RDKit          3D

 91 99  0  0  1  0  0  0  0  0999 V2000
  -28.9250  -22.3980   20.0330 C   0  0  0  0  0  3  0  0  0  0  0  0
  -30.5340  -24.3390   20.4920 C   0  0  0  0  0  1  0  0  0  0  0  0
  -28.6840  -23.8630   22.1280 C   0  0  0  0  0  1  0  0  0  0  0  0
  -29.0670  -23.8930   20.6360 C   0  0  2  0  0  0  0  0  0  0  0  0
  -28.1520  -25.0060   19.9260 C   0  0  0  0  0  2  0  0  0  0  0  0
  -28.3170  -26.4560   20.2430 O   0  0  0  0  0  0  0  0  0  0  0  0
  -24.5960  -31.8730   23.2450 C   0  0  0  0  0  0  0  0  0  0  0  0
  -27.2060  -27.3200   20.1640 C   0  0  0  0  0  0  0  0  0  0  0  0
  -23.3980  -30.4880   21.5930 C   0  0  0  0  0  3  0  0  0  0  0  0
  -24.8480  -28.9500   20.1560 C   0  0  0  0  0  0  0  0  0  0  0  0
  -25.9410  -30.7950   21.4260 C   0  0  0  0  0  2  0  0  0  0  0  0
  -26.0160  -29.4240   20.7670 C   0  0  0  0  0  0  0  0  0  0  0  0
  -27.1960  -28.6200   20.7640 C   0  0  0  0  0  3  0  0  0  0  0  0
  -26.0200  -26.9170   19.5080 C   0  0  0  0  0  3  0  0  0  0  0  0
  -24.8560  -27.7030   19.5140 C   0  0  0  0  0  3  0  0  0  0  0  0
  -23.6150  -29.8250   20.2080 C   0  0  0  0  0  2  0  0  0  0  0  0
  -24.6630  -31.0710   22.1430 N   0  0  0  0  0  0  0  0  0  0  0  0
  -23.5110  -32.1510   23.7750 O   0  0  0  0  0  0  0  0  0  0  0  0
  -22.7310  -29.4630   22.5440 C   0  0  0  0  0  0  0  0  0  0  0  0
  -21.4070  -29.2820   22.4060 N   0  0  0  0  0  0  0  0  0  0  0  0
  -23.4050  -28.8370   23.3660 O   0  0  0  0  0  0  0  0  0  0  0  0
  -20.9240  -29.8410   21.7170 H   0  0  0  0  0  0  0  0  0  0  0  0
  -18.0280  -28.0680   22.8660 C   0  0  0  0  0  0  0  0  0  0  0  0
  -20.5820  -28.3410   23.1670 C   0  0  0  0  0  3  0  0  0  0  0  0
  -20.6980  -26.9100   22.5930 C   0  0  0  0  0  2  0  0  0  0  0  0
  -19.6100  -26.5810   21.5660 C   0  0  0  0  0  2  0  0  0  0  0  0
  -18.2190  -26.7190   22.1920 C   0  0  0  0  0  2  0  0  0  0  0  0
  -19.1380  -28.8350   23.3090 C   0  0  0  0  0  0  0  0  0  0  0  0
  -18.9050  -30.0970   23.9000 C   0  0  0  0  0  3  0  0  0  0  0  0
  -17.5950  -30.5900   24.0510 C   0  0  0  0  0  3  0  0  0  0  0  0
  -16.5000  -29.8210   23.6230 C   0  0  0  0  0  3  0  0  0  0  0  0
  -16.7170  -28.5600   23.0380 C   0  0  0  0  0  3  0  0  0  0  0  0
  -25.8780  -32.4980   23.8770 C   0  0  0  0  0  3  0  0  0  0  0  0
  -26.3820  -31.7250   25.1580 C   0  0  1  0  0  0  0  0  0  0  0  0
  -25.2790  -31.4980   26.2190 C   0  0  0  0  0  1  0  0  0  0  0  0
  -26.9590  -30.3430   24.7740 C   0  0  0  0  0  1  0  0  0  0  0  0
  -27.5340  -32.5140   25.8250 C   0  0  0  0  0  1  0  0  0  0  0  0
  -25.5710  -33.8970   24.2070 N   0  0  0  0  0  0  0  0  0  0  0  0
  -25.9080  -34.9500   23.4510 C   0  0  0  0  0  0  0  0  0  0  0  0
  -26.5790  -34.8460   22.4200 O   0  0  0  0  0  0  0  0  0  0  0  0
  -24.9720  -34.0520   25.0050 H   0  0  0  0  0  0  0  0  0  0  0  0
  -24.1840  -36.7480   23.1030 C   0  0  0  0  0  1  0  0  0  0  0  0
  -25.4260  -36.3400   23.9110 C   0  0  0  0  0  3  0  0  0  0  0  0
  -27.5650  -37.2180   24.7370 C   0  0  0  0  0  1  0  0  0  0  0  0
  -26.4610  -37.3900   23.7950 N   0  0  0  0  0  0  0  0  0  0  0  0
  -26.0580  -38.3110   23.9450 H   0  0  0  0  0  0  0  0  0  0  0  0
  -29.5360  -21.1160   20.8060 C   0  0  0  0  0  3  0  0  0  0  0  0
  -30.2540  -18.4820   18.0310 C   0  0  0  0  0  3  0  0  0  0  0  0
  -30.0020  -19.6930   18.7030 C   0  0  0  0  0  3  0  0  0  0  0  0
  -30.2480  -17.2500   18.7120 C   0  0  0  0  0  3  0  0  0  0  0  0
  -29.6910  -18.4320   20.7630 C   0  0  0  0  0  3  0  0  0  0  0  0
  -29.7140  -19.7160   20.0840 C   0  0  0  0  0  0  0  0  0  0  0  0
  -29.9740  -17.1750   20.0970 C   0  0  0  0  0  0  0  0  0  0  0  0
  -30.6250  -14.7070   20.3880 C   0  0  0  0  0  0  0  0  0  0  0  0
  -30.3850  -12.4500   19.3800 C   0  0  0  0  0  2  0  0  0  0  0  0
  -29.4680  -12.5640   18.1430 C   0  0  0  0  0  2  0  0  0  0  0  0
  -27.9900  -12.4100   18.5530 C   0  0  0  0  0  2  0  0  0  0  0  0
  -27.6150  -13.2920   19.7750 C   0  0  0  0  0  3  0  0  0  0  0  0
  -28.6590  -13.1810   20.9110 C   0  0  0  0  0  2  0  0  0  0  0  0
  -29.9760  -13.4970   20.3410 N   0  0  0  0  0  0  0  0  0  0  0  0
  -31.7950  -14.8000   20.0020 O   0  0  0  0  0  0  0  0  0  0  0  0
  -29.9090  -15.8390   20.7230 N   0  0  0  0  0  0  0  0  0  0  0  0
  -29.0820  -15.6690   21.2760 H   0  0  0  0  0  0  0  0  0  0  0  0
  -25.2170  -13.8940   20.4680 C   0  0  0  0  0  0  0  0  0  0  0  0
  -24.1440  -13.1260   20.8330 C   0  0  0  0  0  0  0  0  0  0  0  0
  -24.6050  -11.7730   20.8200 C   0  0  0  0  0  0  0  0  0  0  0  0
  -26.2620  -13.0120   20.2490 N   0  0  0  0  0  0  0  0  0  0  0  0
  -25.8990  -11.7310   20.5240 N   0  0  0  0  0  0  0  0  0  0  0  0
  -23.8730  -10.5140   21.0160 C   0  0  0  0  0  0  0  0  0  0  0  0
  -24.2980   -9.5510   21.9590 C   0  0  0  0  0  3  0  0  0  0  0  0
  -23.5660   -8.3580   22.1420 C   0  0  0  0  0  3  0  0  0  0  0  0
  -22.3950   -8.1190   21.3840 C   0  0  0  0  0  0  0  0  0  0  0  0
  -21.9890   -9.0700   20.4320 C   0  0  0  0  0  3  0  0  0  0  0  0
  -22.7210  -10.2550   20.2470 C   0  0  0  0  0  3  0  0  0  0  0  0
  -21.6390   -6.9750   21.4750 O   0  0  0  0  0  0  0  0  0  0  0  0
  -21.5870   -6.2360   22.6280 C   0  0  0  0  0  0  0  0  0  0  0  0
  -21.1680   -6.7970   23.8550 C   0  0  0  0  0  3  0  0  0  0  0  0
  -21.0610   -5.9860   25.0020 C   0  0  0  0  0  3  0  0  0  0  0  0
  -21.3650   -4.6130   24.9240 C   0  0  0  0  0  0  0  0  0  0  0  0
  -21.7780   -4.0510   23.7030 C   0  0  0  0  0  3  0  0  0  0  0  0
  -21.8860   -4.8600   22.5580 C   0  0  0  0  0  0  0  0  0  0  0  0
  -22.2640   -4.3090   21.3790 F   0  0  0  0  0  0  0  0  0  0  0  0
  -21.2550   -3.8310   26.0240 F   0  0  0  0  0  0  0  0  0  0  0  0
  -22.7460  -13.6100   21.0850 C   0  0  0  0  0  0  0  0  0  0  0  0
  -22.0070  -12.9270   21.9520 N   0  0  0  0  0  0  0  0  0  0  0  0
  -22.3160  -14.6300   20.5460 O   0  0  0  0  0  0  0  0  0  0  0  0
  -22.3670  -12.1040   22.4140 H   0  0  0  0  0  0  0  0  0  0  0  0
  -21.0660  -13.2330   22.1580 H   0  0  0  0  0  0  0  0  0  0  0  0
  -25.3850  -15.2630   20.2800 N   0  0  0  0  0  0  0  0  0  0  0  0
  -24.6150  -15.9160   20.3680 H   0  0  0  0  0  0  0  0  0  0  0  0
  -26.2380  -15.6980   19.9520 H   0  0  0  0  0  0  0  0  0  0  0  0
  1  4  1  0
  1 47  2  0
  4  2  1  1
  4  3  1  0
  5  6  1  0
  5  4  1  0
  7 18  2  0
  8  6  1  0
  8 13  1  0
  9 17  1  0
  9 19  1  0
 10 16  1  0
 10 12  1  0
 11 17  1  0
 12 11  1  0
 13 12  2  0
 14 15  1  0
 14  8  2  0
 15 10  2  0
 16  9  1  0
 17  7  1  0
 19 21  2  0
 20 19  1  0
 22 20  1  0
 23 32  2  0
 23 28  1  0
 24 20  1  0
 24 28  1  0
 25 24  1  0
 26 27  1  0
 26 25  1  0
 27 23  1  0
 28 29  2  0
 29 30  1  0
 31 30  2  0
 32 31  1  0
 33  7  1  0
 33 38  1  0
 33 34  1  0
 34 37  1  1
 34 35  1  0
 36 34  1  0
 38 41  1  0
 39 43  1  0
 39 38  1  0
 40 39  2  0
 43 42  1  0
 45 43  1  0
 45 46  1  0
 45 44  1  0
 48 49  2  0
 48 50  1  0
 49 52  1  0
 50 53  2  0
 52 51  2  0
 52 47  1  0
 53 62  1  0
 53 51  1  0
 54 62  1  0
 55 60  1  0
 56 57  1  0
 56 55  1  0
 58 57  1  0
 58 67  1  0
 58 59  1  0
 60 54  1  0
 60 59  1  0
 61 54  2  0
 62 63  1  0
 64 65  2  0
 65 84  1  0
 66 65  1  0
 66 69  1  0
 67 64  1  0
 67 68  1  0
 68 66  2  0
 69 70  1  0
 70 71  2  0
 72 75  1  0
 72 71  1  0
 73 72  2  0
 74 73  1  0
 74 69  2  0
 75 76  1  0
 76 77  1  0
 77 78  2  0
 79 78  1  0
 79 83  1  0
 80 79  2  0
 81 76  2  0
 81 80  1  0
 82 81  1  0
 84 85  1  0
 85 88  1  0
 85 87  1  0
 86 84  2  0
 89 90  1  0
 89 64  1  0
 91 89  1  0
M  ISO  4   5 101   6 101  54 100  62 100
M  END
>  <TORSDO>  (73) 
F 20

>  <SCORE>  (73) 
-13.840

>  <name>  (73) 
72

>  <ligand_id>  (73) 
72

>  <original_smiles>  (73) 
[H]c1c([H])c([H])c2c(c1[H])C([H])([H])C([H])([H])C([H])([H])C2([H])N([H])C(=O)C1([H])N(C(=O)C([H])(N([H])C(=O)C([H])(N([H])C([H])([H])[H])C([H])([H])[H])C(C([H])([H])[H])(C([H])([H])[H])C([H])([H])[H])C([H])([H])c2c([H])c(OC([H])([H])C(C([H])([H])[H])(C([H])([H])[H])C([H])([H])C([H])([H])c3c([H])c([H])c([H])c(N([H])C(=O)N4C([H])([H])C([H])([H])C([H])([H])C([H])(n5nc(-c6c([H])c([H])c(Oc7c([H])c([H])c(F)c([H])c7F)c([H])c6[H])c(C(=O)N([H])[H])c5N([H])[H])C4([H])[H])c3[H])c([H])c([H])c2C1([H])[H]

>  <smiles>  (73) 
[H]c1c([H])c([H])c2c(c1[H])C([H])([H])C([H])([H])C([H])([H])C2([H])N([H])C(=O)C1([H])N(C(=O)C([H])(N([H])C(=O)C([H])(N([H])C([H])([H])[H])C([H])([H])[H])C(C([H])([H])[H])(C([H])([H])[H])C([H])([H])[H])C([H])([H])c2c([H])c(OC([H])([H])C(C([H])([H])[H])(C([H])([H])[H])C([H])([H])C([H])([H])c3c([H])c([H])c([H])c(N([H])C(=O)N4C([H])([H])C([H])([H])C([H])([H])C([H])(n5nc(-c6c([H])c([H])c(Oc7c([H])c([H])c(F)c([H])c7F)c([H])c6[H])c(C(=O)N([H])[H])c5N([H])[H])C4([H])[H])c3[H])c([H])c([H])c2C1([H])[H]

$$$$
73:0:0
     RDKit          3D

 96104  0  0  1  0  0  0  0  0999 V2000
  -31.3890  -20.8350   19.7120 C   0  0  0  0  0  3  0  0  0  0  0  0
  -31.6290  -20.3680   17.3430 C   0  0  0  0  0  3  0  0  0  0  0  0
  -31.1750  -19.4680   19.9740 C   0  0  0  0  0  0  0  0  0  0  0  0
  -31.1790  -18.5290   18.9100 C   0  0  0  0  0  0  0  0  0  0  0  0
  -31.3790  -18.9890   17.5790 C   0  0  0  0  0  0  0  0  0  0  0  0
  -31.6310  -21.3080   18.4020 C   0  0  0  0  0  0  0  0  0  0  0  0
  -32.1010  -17.2630   15.8780 C   0  0  0  0  0  0  0  0  0  0  0  0
  -32.4830  -16.0350   13.7590 C   0  0  0  0  0  2  0  0  0  0  0  0
  -33.3310  -16.8710   12.7800 C   0  0  0  0  0  2  0  0  0  0  0  0
  -32.4490  -17.8310   11.9590 C   0  0  0  0  0  2  0  0  0  0  0  0
  -31.4730  -18.6440   12.8480 C   0  0  0  0  0  3  0  0  0  0  0  0
  -30.7210  -17.7070   13.8170 C   0  0  0  0  0  2  0  0  0  0  0  0
  -31.7110  -16.9490   14.6120 N   0  0  0  0  0  0  0  0  0  0  0  0
  -33.1050  -16.7900   16.4190 O   0  0  0  0  0  0  0  0  0  0  0  0
  -31.2170  -18.0340   16.5290 N   0  0  0  0  0  0  0  0  0  0  0  0
  -30.3250  -18.0810   16.0630 H   0  0  0  0  0  0  0  0  0  0  0  0
  -30.3850  -20.8180   11.9910 C   0  0  0  0  0  0  0  0  0  0  0  0
  -29.4420  -21.0490   11.0260 C   0  0  0  0  0  0  0  0  0  0  0  0
  -29.0780  -19.7660   10.5150 C   0  0  0  0  0  0  0  0  0  0  0  0
  -30.5500  -19.4410   12.0410 N   0  0  0  0  0  0  0  0  0  0  0  0
  -29.7170  -18.8080   11.1760 N   0  0  0  0  0  0  0  0  0  0  0  0
  -28.2020  -19.3950    9.3950 C   0  0  0  0  0  0  0  0  0  0  0  0
  -26.8080  -19.2390    9.5690 C   0  0  0  0  0  3  0  0  0  0  0  0
  -25.9850  -18.9010    8.4730 C   0  0  0  0  0  3  0  0  0  0  0  0
  -26.5520  -18.7160    7.1900 C   0  0  0  0  0  0  0  0  0  0  0  0
  -27.9420  -18.8510    7.0280 C   0  0  0  0  0  3  0  0  0  0  0  0
  -28.7610  -19.1820    8.1200 C   0  0  0  0  0  3  0  0  0  0  0  0
  -25.8340  -18.3620    6.0740 O   0  0  0  0  0  0  0  0  0  0  0  0
  -24.5190  -17.9770    6.1560 C   0  0  0  0  0  0  0  0  0  0  0  0
  -23.4620  -18.8900    5.9480 C   0  0  0  0  0  3  0  0  0  0  0  0
  -22.1260  -18.4390    5.9720 C   0  0  0  0  0  3  0  0  0  0  0  0
  -21.8470  -17.0770    6.1960 C   0  0  0  0  0  0  0  0  0  0  0  0
  -22.8980  -16.1660    6.3970 C   0  0  0  0  0  3  0  0  0  0  0  0
  -24.2300  -16.6150    6.3750 C   0  0  0  0  0  0  0  0  0  0  0  0
  -25.2410  -15.7280    6.5490 F   0  0  0  0  0  0  0  0  0  0  0  0
  -20.5660  -16.6420    6.2110 F   0  0  0  0  0  0  0  0  0  0  0  0
  -28.9730  -22.3880   10.5340 C   0  0  0  0  0  0  0  0  0  0  0  0
  -27.6670  -22.6290   10.5630 N   0  0  0  0  0  0  0  0  0  0  0  0
  -29.7710  -23.2490   10.1650 O   0  0  0  0  0  0  0  0  0  0  0  0
  -27.0140  -21.9290   10.8840 H   0  0  0  0  0  0  0  0  0  0  0  0
  -27.3150  -23.5250   10.2570 H   0  0  0  0  0  0  0  0  0  0  0  0
  -31.1260  -21.6580   12.8150 N   0  0  0  0  0  0  0  0  0  0  0  0
  -31.0640  -22.6690   12.7580 H   0  0  0  0  0  0  0  0  0  0  0  0
  -31.8350  -21.3420   13.4660 H   0  0  0  0  0  0  0  0  0  0  0  0
  -29.5250  -16.6060   19.3080 C   0  0  0  0  0  1  0  0  0  0  0  0
  -30.9940  -17.0320   19.1900 C   0  0  0  0  0  2  0  0  0  0  0  0
  -31.5050  -20.0850   22.4120 C   0  0  0  0  0  1  0  0  0  0  0  0
  -30.9470  -19.0560   21.4250 C   0  0  0  0  0  2  0  0  0  0  0  0
  -31.8770  -22.6410   18.1100 O   0  0  0  0  0  0  0  0  0  0  0  0
  -31.8150  -23.6150   19.1670 C   0  0  0  0  0  2  0  0  0  0  0  0
  -30.4490  -24.3380   19.1360 C   0  0  0  0  0  2  0  0  0  0  0  0
  -29.7390  -24.4910   20.5070 C   0  0  0  0  0  2  0  0  0  0  0  0
  -29.6400  -25.8960   21.1280 C   0  0  0  0  0  0  0  0  0  0  0  0
  -28.5670  -26.3780   21.5060 O   0  0  0  0  0  0  0  0  0  0  0  0
  -30.9730  -26.6570   21.2150 C   0  0  0  0  0  2  0  0  0  0  0  0
  -30.9550  -27.9630   20.6040 O   0  0  0  0  0  0  0  0  0  0  0  0
  -34.3130  -33.0300   16.8580 C   0  0  0  0  0  0  0  0  0  0  0  0
  -32.0780  -28.3010   19.8630 C   0  0  0  0  0  0  0  0  0  0  0  0
  -35.2210  -30.7420   16.6370 C   0  0  0  0  0  3  0  0  0  0  0  0
  -34.3370  -29.0360   18.3090 C   0  0  0  0  0  0  0  0  0  0  0  0
  -34.0090  -31.4660   18.7750 C   0  0  0  0  0  2  0  0  0  0  0  0
  -33.5810  -30.0230   18.9530 C   0  0  0  0  0  0  0  0  0  0  0  0
  -32.4550  -29.6610   19.7340 C   0  0  0  0  0  3  0  0  0  0  0  0
  -32.8740  -27.3250   19.2120 C   0  0  0  0  0  3  0  0  0  0  0  0
  -33.9860  -27.6850   18.4340 C   0  0  0  0  0  3  0  0  0  0  0  0
  -35.5280  -29.4910   17.5000 C   0  0  0  0  0  2  0  0  0  0  0  0
  -34.4780  -31.7930   17.4060 N   0  0  0  0  0  0  0  0  0  0  0  0
  -34.7970  -33.3100   15.7520 O   0  0  0  0  0  0  0  0  0  0  0  0
  -34.4900  -30.2930   15.3510 C   0  0  0  0  0  0  0  0  0  0  0  0
  -35.2180  -30.2800   14.2220 N   0  0  0  0  0  0  0  0  0  0  0  0
  -33.3080  -29.9430   15.3860 O   0  0  0  0  0  0  0  0  0  0  0  0
  -36.1780  -30.5910   14.2770 H   0  0  0  0  0  0  0  0  0  0  0  0
  -36.2200  -29.8620   10.7740 C   0  0  0  0  0  0  0  0  0  0  0  0
  -34.7500  -29.8610   12.9010 C   0  0  0  0  0  3  0  0  0  0  0  0
  -34.7460  -28.3200   12.7750 C   0  0  0  0  0  2  0  0  0  0  0  0
  -36.0380  -27.7610   12.1730 C   0  0  0  0  0  2  0  0  0  0  0  0
  -36.2800  -28.3440   10.7770 C   0  0  0  0  0  2  0  0  0  0  0  0
  -35.5130  -30.5750   11.7790 C   0  0  0  0  0  0  0  0  0  0  0  0
  -35.5160  -31.9860   11.7500 C   0  0  0  0  0  3  0  0  0  0  0  0
  -36.2040  -32.6840   10.7400 C   0  0  0  0  0  3  0  0  0  0  0  0
  -36.8890  -31.9740    9.7380 C   0  0  0  0  0  3  0  0  0  0  0  0
  -36.8940  -30.5670    9.7550 C   0  0  0  0  0  3  0  0  0  0  0  0
  -33.5290  -34.1550   17.6010 C   0  0  0  0  0  3  0  0  0  0  0  0
  -34.3290  -35.3830   17.5140 N   0  0  0  0  0  0  0  0  0  0  0  0
  -35.2400  -35.7610   18.4200 C   0  0  0  0  0  0  0  0  0  0  0  0
  -35.4460  -35.1370   19.4640 O   0  0  0  0  0  0  0  0  0  0  0  0
  -34.2490  -35.9170   16.6620 H   0  0  0  0  0  0  0  0  0  0  0  0
  -37.4250  -36.6420   17.5500 C   0  0  0  0  0  1  0  0  0  0  0  0
  -36.0520  -37.0340   18.1180 C   0  0  0  0  0  3  0  0  0  0  0  0
  -35.0470  -38.7110   19.6000 C   0  0  0  0  0  1  0  0  0  0  0  0
  -36.2300  -37.9110   19.2950 N   0  0  0  0  0  0  0  0  0  0  0  0
  -37.0130  -38.5460   19.1590 H   0  0  0  0  0  0  0  0  0  0  0  0
  -32.0810  -34.3930   17.0180 C   0  0  1  0  0  0  0  0  0  0  0  0
  -32.0490  -35.3520   15.8060 C   0  0  0  0  0  1  0  0  0  0  0  0
  -31.4460  -33.0520   16.5820 C   0  0  0  0  0  1  0  0  0  0  0  0
  -31.1660  -34.9800   18.1190 C   0  0  0  0  0  1  0  0  0  0  0  0
  1  3  1  0
  2  5  2  0
  2  6  1  0
  3 48  1  0
  4 46  1  0
  4  3  2  0
  5  4  1  0
  6  1  2  0
  7 14  2  0
  7 15  1  0
  8 13  1  0
  9  8  1  0
 10  9  1  0
 11 10  1  0
 11 12  1  0
 12 13  1  0
 13  7  1  0
 15  5  1  0
 16 15  1  0
 17 20  1  0
 17 42  1  0
 18 17  2  0
 19 18  1  0
 19 21  2  0
 20 11  1  0
 21 20  1  0
 22 23  1  0
 22 19  1  0
 24 23  2  0
 25 24  1  0
 26 25  2  0
 26 27  1  0
 27 22  2  0
 28 29  1  0
 28 25  1  0
 29 34  1  0
 30 31  1  0
 30 29  2  0
 31 32  2  0
 32 36  1  0
 32 33  1  0
 34 33  2  0
 34 35  1  0
 37 38  1  0
 37 18  1  0
 38 40  1  0
 39 37  2  0
 41 38  1  0
 42 44  1  0
 43 42  1  0
 46 45  1  0
 48 47  1  0
 49  6  1  0
 49 50  1  0
 51 50  1  0
 51 52  1  0
 52 53  1  0
 53 55  1  0
 53 54  2  0
 56 55  1  0
 57 67  1  0
 58 56  1  0
 59 69  1  0
 59 67  1  0
 59 66  1  0
 60 65  2  0
 60 62  1  0
 61 62  1  0
 62 63  2  0
 63 58  1  0
 64 58  2  0
 65 64  1  0
 66 60  1  0
 67 61  1  0
 68 57  2  0
 69 71  2  0
 70 72  1  0
 70 69  1  0
 73 77  1  0
 73 78  1  0
 74 70  1  0
 75 74  1  0
 76 75  1  0
 77 76  1  0
 78 74  1  0
 79 78  2  0
 80 79  1  0
 81 82  1  0
 81 80  2  0
 82 73  2  0
 83 57  1  0
 84 83  1  0
 84 85  1  0
 85 86  2  0
 87 84  1  0
 89 88  1  0
 89 85  1  0
 89 91  1  0
 91 90  1  0
 92 91  1  0
 93 83  1  0
 93 96  1  1
 94 93  1  0
 95 93  1  0
M  ISO  4   7 100  15 100  55 101  56 101
M  END
>  <TORSDO>  (74) 
F 24

>  <SCORE>  (74) 
-5.072

>  <name>  (74) 
73

>  <ligand_id>  (74) 
73

>  <original_smiles>  (74) 
[H]c1c([H])c([H])c2c(c1[H])C([H])([H])C([H])([H])C([H])([H])C2([H])N([H])C(=O)C1([H])N(C(=O)C([H])(N([H])C(=O)C([H])(N([H])C([H])([H])[H])C([H])([H])[H])C(C([H])([H])[H])(C([H])([H])[H])C([H])([H])[H])C([H])([H])c2c([H])c(OC([H])([H])C(=O)C([H])([H])C([H])([H])C([H])([H])Oc3c([H])c(N([H])C(=O)N4C([H])([H])C([H])([H])C([H])([H])C([H])(n5nc(-c6c([H])c([H])c(Oc7c([H])c([H])c(F)c([H])c7F)c([H])c6[H])c(C(=O)N([H])[H])c5N([H])[H])C4([H])[H])c(C([H])([H])C([H])([H])[H])c(C([H])([H])C([H])([H])[H])c3[H])c([H])c([H])c2C1([H])[H]

>  <smiles>  (74) 
[H]c1c([H])c([H])c2c(c1[H])C([H])([H])C([H])([H])C([H])([H])C2([H])N([H])C(=O)C1([H])N(C(=O)C([H])(N([H])C(=O)C([H])(N([H])C([H])([H])[H])C([H])([H])[H])C(C([H])([H])[H])(C([H])([H])[H])C([H])([H])[H])C([H])([H])c2c([H])c(OC([H])([H])C(=O)C([H])([H])C([H])([H])C([H])([H])Oc3c([H])c(N([H])C(=O)N4C([H])([H])C([H])([H])C([H])([H])C([H])(n5nc(-c6c([H])c([H])c(Oc7c([H])c([H])c(F)c([H])c7F)c([H])c6[H])c(C(=O)N([H])[H])c5N([H])[H])C4([H])[H])c(C([H])([H])C([H])([H])[H])c(C([H])([H])C([H])([H])[H])c3[H])c([H])c([H])c2C1([H])[H]

$$$$
74:0:0
     RDKit          3D

 97105  0  0  1  0  0  0  0  0999 V2000
  -29.1480  -21.5610   20.3970 C   0  0  0  0  0  3  0  0  0  0  0  0
  -27.0980  -21.8050   18.8620 C   0  0  0  0  0  1  0  0  0  0  0  0
  -28.3090  -20.9420   19.2500 C   0  0  0  0  0  2  0  0  0  0  0  0
  -30.0430  -20.5570   21.1800 C   0  0  0  0  0  2  0  0  0  0  0  0
  -31.3020  -19.4480   19.2660 C   0  0  0  0  0  3  0  0  0  0  0  0
  -31.6730  -18.3090   18.5330 C   0  0  0  0  0  3  0  0  0  0  0  0
  -30.1510  -18.0290   20.8770 C   0  0  0  0  0  3  0  0  0  0  0  0
  -30.5080  -19.3190   20.4200 C   0  0  0  0  0  0  0  0  0  0  0  0
  -31.2860  -17.0200   18.9520 C   0  0  0  0  0  0  0  0  0  0  0  0
  -30.5570  -16.8740   20.1730 C   0  0  0  0  0  0  0  0  0  0  0  0
  -31.6160  -15.8530   18.0300 C   0  0  0  0  0  1  0  0  0  0  0  0
  -30.9350  -14.5430   20.8740 C   0  0  0  0  0  0  0  0  0  0  0  0
  -30.7150  -12.3100   19.9210 C   0  0  0  0  0  2  0  0  0  0  0  0
  -29.8890  -12.4310   18.6240 C   0  0  0  0  0  2  0  0  0  0  0  0
  -28.3750  -12.3720   18.9190 C   0  0  0  0  0  2  0  0  0  0  0  0
  -27.9330  -13.2840   20.0990 C   0  0  0  0  0  3  0  0  0  0  0  0
  -28.8970  -13.1390   21.3010 C   0  0  0  0  0  2  0  0  0  0  0  0
  -30.2660  -13.3690   20.8250 N   0  0  0  0  0  0  0  0  0  0  0  0
  -32.1620  -14.6400   20.7750 O   0  0  0  0  0  0  0  0  0  0  0  0
  -30.1520  -15.6160   20.6980 N   0  0  0  0  0  0  0  0  0  0  0  0
  -29.1650  -15.4770   20.8460 H   0  0  0  0  0  0  0  0  0  0  0  0
  -25.4950  -13.9360   20.6230 C   0  0  0  0  0  0  0  0  0  0  0  0
  -24.3910  -13.1800   20.9200 C   0  0  0  0  0  0  0  0  0  0  0  0
  -24.8350  -11.8240   20.9470 C   0  0  0  0  0  0  0  0  0  0  0  0
  -26.5430  -13.0380   20.4840 N   0  0  0  0  0  0  0  0  0  0  0  0
  -26.1460  -11.7680   20.7450 N   0  0  0  0  0  0  0  0  0  0  0  0
  -24.0830  -10.5710   21.0890 C   0  0  0  0  0  0  0  0  0  0  0  0
  -24.4480   -9.6010   22.0490 C   0  0  0  0  0  3  0  0  0  0  0  0
  -23.6990   -8.4110   22.1850 C   0  0  0  0  0  3  0  0  0  0  0  0
  -22.5730   -8.1830   21.3590 C   0  0  0  0  0  0  0  0  0  0  0  0
  -22.2300   -9.1390   20.3870 C   0  0  0  0  0  3  0  0  0  0  0  0
  -22.9800  -10.3210   20.2500 C   0  0  0  0  0  3  0  0  0  0  0  0
  -21.8020   -7.0460   21.4000 O   0  0  0  0  0  0  0  0  0  0  0  0
  -21.6840   -6.2980   22.5450 C   0  0  0  0  0  0  0  0  0  0  0  0
  -21.1900   -6.8490   23.7470 C   0  0  0  0  0  3  0  0  0  0  0  0
  -21.0240   -6.0270   24.8810 C   0  0  0  0  0  3  0  0  0  0  0  0
  -21.3330   -4.6570   24.8110 C   0  0  0  0  0  0  0  0  0  0  0  0
  -21.8170   -4.1050   23.6120 C   0  0  0  0  0  3  0  0  0  0  0  0
  -21.9870   -4.9220   22.4820 C   0  0  0  0  0  0  0  0  0  0  0  0
  -22.4320   -4.3810   21.3230 F   0  0  0  0  0  0  0  0  0  0  0  0
  -21.1640   -3.8660   25.8960 F   0  0  0  0  0  0  0  0  0  0  0  0
  -22.9790  -13.6720   21.0710 C   0  0  0  0  0  0  0  0  0  0  0  0
  -22.1750  -13.0050   21.8930 N   0  0  0  0  0  0  0  0  0  0  0  0
  -22.5930  -14.6860   20.4900 O   0  0  0  0  0  0  0  0  0  0  0  0
  -22.4930  -12.1890   22.3950 H   0  0  0  0  0  0  0  0  0  0  0  0
  -21.2220  -13.3160   22.0220 H   0  0  0  0  0  0  0  0  0  0  0  0
  -25.6930  -15.3030   20.4390 N   0  0  0  0  0  0  0  0  0  0  0  0
  -24.9250  -15.9680   20.4760 H   0  0  0  0  0  0  0  0  0  0  0  0
  -26.5700  -15.7240   20.1630 H   0  0  0  0  0  0  0  0  0  0  0  0
  -29.9400  -22.8090   19.9230 C   0  0  0  0  0  2  0  0  0  0  0  0
  -30.8730  -25.0810   20.1020 C   0  0  0  0  0  1  0  0  0  0  0  0
  -30.7030  -23.7360   22.1720 C   0  0  0  0  0  1  0  0  0  0  0  0
  -29.9730  -24.0690   20.8490 C   0  0  2  0  0  0  0  0  0  0  0  0
  -27.8410  -24.1670   22.4030 C   0  0  0  0  0  1  0  0  0  0  0  0
  -28.5290  -24.6710   21.1090 C   0  0  0  0  0  3  0  0  0  0  0  0
  -28.4310  -26.2230   21.1350 C   0  0  0  0  0  2  0  0  0  0  0  0
  -28.1770  -26.7710   19.8360 O   0  0  0  0  0  0  0  0  0  0  0  0
  -24.5270  -31.8830   23.1040 C   0  0  0  0  0  0  0  0  0  0  0  0
  -27.0480  -27.5410   19.8270 C   0  0  0  0  0  0  0  0  0  0  0  0
  -23.2600  -30.5200   21.4700 C   0  0  0  0  0  3  0  0  0  0  0  0
  -24.6600  -29.0210   19.9540 C   0  0  0  0  0  0  0  0  0  0  0  0
  -25.7730  -30.8910   21.1910 C   0  0  0  0  0  2  0  0  0  0  0  0
  -25.8330  -29.5390   20.5140 C   0  0  0  0  0  0  0  0  0  0  0  0
  -27.0340  -28.8030   20.4530 C   0  0  0  0  0  3  0  0  0  0  0  0
  -25.8670  -27.0260   19.2580 C   0  0  0  0  0  3  0  0  0  0  0  0
  -24.6700  -27.7610   19.3240 C   0  0  0  0  0  3  0  0  0  0  0  0
  -23.4150  -29.8710   20.0680 C   0  0  0  0  0  2  0  0  0  0  0  0
  -24.5400  -31.1110   21.9800 N   0  0  0  0  0  0  0  0  0  0  0  0
  -23.4660  -32.1430   23.6870 O   0  0  0  0  0  0  0  0  0  0  0  0
  -22.6420  -29.4780   22.4300 C   0  0  0  0  0  0  0  0  0  0  0  0
  -21.3150  -29.2960   22.3380 N   0  0  0  0  0  0  0  0  0  0  0  0
  -23.3520  -28.8380   23.2090 O   0  0  0  0  0  0  0  0  0  0  0  0
  -20.8040  -29.8620   21.6750 H   0  0  0  0  0  0  0  0  0  0  0  0
  -17.9580  -28.0890   22.9030 C   0  0  0  0  0  0  0  0  0  0  0  0
  -20.5220  -28.3430   23.1130 C   0  0  0  0  0  3  0  0  0  0  0  0
  -20.6100  -26.9230   22.5090 C   0  0  0  0  0  2  0  0  0  0  0  0
  -19.4820  -26.6190   21.5180 C   0  0  0  0  0  2  0  0  0  0  0  0
  -18.1160  -26.7530   22.1970 C   0  0  0  0  0  2  0  0  0  0  0  0
  -19.0860  -28.8430   23.3180 C   0  0  0  0  0  0  0  0  0  0  0  0
  -18.8810  -30.0960   23.9360 C   0  0  0  0  0  3  0  0  0  0  0  0
  -17.5810  -30.5930   24.1410 C   0  0  0  0  0  3  0  0  0  0  0  0
  -16.4670  -29.8340   23.7430 C   0  0  0  0  0  3  0  0  0  0  0  0
  -16.6570  -28.5830   23.1300 C   0  0  0  0  0  3  0  0  0  0  0  0
  -25.8370  -32.4940   23.6930 C   0  0  0  0  0  3  0  0  0  0  0  0
  -25.5440  -33.8840   24.0660 N   0  0  0  0  0  0  0  0  0  0  0  0
  -25.8740  -34.9540   23.3290 C   0  0  0  0  0  0  0  0  0  0  0  0
  -26.5270  -34.8710   22.2850 O   0  0  0  0  0  0  0  0  0  0  0  0
  -24.9610  -34.0210   24.8770 H   0  0  0  0  0  0  0  0  0  0  0  0
  -24.1680  -36.7770   23.0330 C   0  0  0  0  0  1  0  0  0  0  0  0
  -25.4050  -36.3330   23.8310 C   0  0  0  0  0  3  0  0  0  0  0  0
  -27.5510  -37.1640   24.6850 C   0  0  0  0  0  1  0  0  0  0  0  0
  -26.4510  -37.3760   23.7480 N   0  0  0  0  0  0  0  0  0  0  0  0
  -26.0570  -38.2950   23.9270 H   0  0  0  0  0  0  0  0  0  0  0  0
  -26.3980  -31.6930   24.9310 C   0  0  1  0  0  0  0  0  0  0  0  0
  -25.3450  -31.4350   26.0330 C   0  0  0  0  0  1  0  0  0  0  0  0
  -26.9560  -30.3230   24.4790 C   0  0  0  0  0  1  0  0  0  0  0  0
  -27.5780  -32.4650   25.5640 C   0  0  0  0  0  1  0  0  0  0  0  0
  1  3  1  0
  1  4  1  0
  2  3  1  0
  5  8  1  0
  6  9  1  0
  6  5  2  0
  8  7  2  0
  8  4  1  0
  9 10  2  0
 10 20  1  0
 10  7  1  0
 11  9  1  0
 13 18  1  0
 14 15  1  0
 14 13  1  0
 16 15  1  0
 16 25  1  0
 16 17  1  0
 18 12  1  0
 18 17  1  0
 19 12  2  0
 20 21  1  0
 20 12  1  0
 22 23  2  0
 23 24  1  0
 23 42  1  0
 24 27  1  0
 25 22  1  0
 25 26  1  0
 26 24  2  0
 27 28  1  0
 28 29  2  0
 30 33  1  0
 30 29  1  0
 31 30  2  0
 32 31  1  0
 32 27  2  0
 33 34  1  0
 34 35  1  0
 35 36  2  0
 37 36  1  0
 37 41  1  0
 38 37  2  0
 39 34  2  0
 39 38  1  0
 40 39  1  0
 42 43  1  0
 43 46  1  0
 43 45  1  0
 44 42  2  0
 47 48  1  0
 47 22  1  0
 49 47  1  0
 50  1  1  0
 50 53  1  0
 53 51  1  6
 53 55  1  0
 53 52  1  0
 55 56  1  0
 55 54  1  0
 57 56  1  0
 58 69  2  0
 59 57  1  0
 59 64  1  0
 60 68  1  0
 60 70  1  0
 61 67  1  0
 61 63  1  0
 62 68  1  0
 63 62  1  0
 64 63  2  0
 65 66  1  0
 65 59  2  0
 66 61  2  0
 67 60  1  0
 68 58  1  0
 70 72  2  0
 71 70  1  0
 73 71  1  0
 74 83  2  0
 74 79  1  0
 75 71  1  0
 75 79  1  0
 76 75  1  0
 77 78  1  0
 77 76  1  0
 78 74  1  0
 79 80  2  0
 80 81  1  0
 82 81  2  0
 83 82  1  0
 84 58  1  0
 84 85  1  0
 84 94  1  0
 85 88  1  0
 86 90  1  0
 86 85  1  0
 87 86  2  0
 90 89  1  0
 92 90  1  0
 92 93  1  0
 92 91  1  0
 94 97  1  1
 94 95  1  0
 96 94  1  0
M  ISO  4  12 100  20 100  56 101  57 101
M  END
>  <TORSDO>  (75) 
F 23

>  <SCORE>  (75) 
-12.313

>  <name>  (75) 
74

>  <ligand_id>  (75) 
74

>  <original_smiles>  (75) 
[H]c1c([H])c([H])c2c(c1[H])C([H])([H])C([H])([H])C([H])([H])C2([H])N([H])C(=O)C1([H])N(C(=O)C([H])(N([H])C(=O)C([H])(N([H])C([H])([H])[H])C([H])([H])[H])C(C([H])([H])[H])(C([H])([H])[H])C([H])([H])[H])C([H])([H])c2c([H])c(OC([H])([H])C([H])(C([H])([H])[H])C(C([H])([H])[H])(C([H])([H])[H])C([H])([H])C([H])(C([H])([H])c3c([H])c([H])c(C([H])([H])[H])c(N([H])C(=O)N4C([H])([H])C([H])([H])C([H])([H])C([H])(n5nc(-c6c([H])c([H])c(Oc7c([H])c([H])c(F)c([H])c7F)c([H])c6[H])c(C(=O)N([H])[H])c5N([H])[H])C4([H])[H])c3[H])C([H])([H])C([H])([H])[H])c([H])c([H])c2C1([H])[H]

>  <smiles>  (75) 
[H]c1c([H])c([H])c2c(c1[H])C([H])([H])C([H])([H])C([H])([H])C2([H])N([H])C(=O)C1([H])N(C(=O)C([H])(N([H])C(=O)C([H])(N([H])C([H])([H])[H])C([H])([H])[H])C(C([H])([H])[H])(C([H])([H])[H])C([H])([H])[H])C([H])([H])c2c([H])c(OC([H])([H])C([H])(C([H])([H])[H])C(C([H])([H])[H])(C([H])([H])[H])C([H])([H])C([H])(C([H])([H])c3c([H])c([H])c(C([H])([H])[H])c(N([H])C(=O)N4C([H])([H])C([H])([H])C([H])([H])C([H])(n5nc(-c6c([H])c([H])c(Oc7c([H])c([H])c(F)c([H])c7F)c([H])c6[H])c(C(=O)N([H])[H])c5N([H])[H])C4([H])[H])c3[H])C([H])([H])C([H])([H])[H])c([H])c([H])c2C1([H])[H]

$$$$
75:0:0
     RDKit          3D

 93101  0  0  1  0  0  0  0  0999 V2000
  -31.2630  -18.0260   20.2410 C   0  0  0  0  0  3  0  0  0  0  0  0
  -31.2860  -19.4420   20.0630 C   0  0  0  0  0  3  0  0  0  0  0  0
  -28.9990  -19.4110   19.3700 C   0  0  0  0  0  3  0  0  0  0  0  0
  -30.1010  -17.2400   20.0180 C   0  0  0  0  0  0  0  0  0  0  0  0
  -28.9590  -17.9900   19.5540 C   0  0  0  0  0  0  0  0  0  0  0  0
  -30.1550  -20.1850   19.6420 C   0  0  0  0  0  0  0  0  0  0  0  0
  -30.0350  -15.7430   20.4220 C   0  0  0  0  0  0  0  0  0  0  0  0
  -29.6160  -15.4640   21.5870 N   0  0  0  0  0  0  0  0  0  0  0  0
  -29.3530  -16.3090   22.0790 H   0  0  0  0  0  0  0  0  0  0  0  0
  -30.5370  -14.5910   19.4700 C   0  0  0  0  0  0  0  0  0  0  0  0
  -30.2490  -12.3090   18.5020 C   0  0  0  0  0  2  0  0  0  0  0  0
  -29.1410  -12.3260   17.4240 C   0  0  0  0  0  2  0  0  0  0  0  0
  -27.7520  -12.1080   18.0580 C   0  0  0  0  0  2  0  0  0  0  0  0
  -27.5250  -13.0100   19.2980 C   0  0  0  0  0  3  0  0  0  0  0  0
  -28.7310  -12.9420   20.2590 C   0  0  0  0  0  2  0  0  0  0  0  0
  -29.9380  -13.3470   19.5130 N   0  0  0  0  0  0  0  0  0  0  0  0
  -31.4980  -14.8010   18.7210 O   0  0  0  0  0  0  0  0  0  0  0  0
  -25.2860  -13.5470   20.4410 C   0  0  0  0  0  0  0  0  0  0  0  0
  -24.2960  -12.7470   20.9420 C   0  0  0  0  0  0  0  0  0  0  0  0
  -24.7350  -11.4030   20.7370 C   0  0  0  0  0  0  0  0  0  0  0  0
  -26.2720  -12.6910   19.9770 N   0  0  0  0  0  0  0  0  0  0  0  0
  -25.9530  -11.3910   20.2080 N   0  0  0  0  0  0  0  0  0  0  0  0
  -24.0390  -10.1290   20.9590 C   0  0  0  0  0  0  0  0  0  0  0  0
  -24.5400   -9.1610   21.8590 C   0  0  0  0  0  3  0  0  0  0  0  0
  -23.8430   -7.9520   22.0690 C   0  0  0  0  0  3  0  0  0  0  0  0
  -22.6320   -7.7020   21.3790 C   0  0  0  0  0  0  0  0  0  0  0  0
  -22.1520   -8.6580   20.4670 C   0  0  0  0  0  3  0  0  0  0  0  0
  -22.8490   -9.8590   20.2560 C   0  0  0  0  0  3  0  0  0  0  0  0
  -21.9010   -6.5440   21.5010 O   0  0  0  0  0  0  0  0  0  0  0  0
  -21.8250   -5.8630   22.6880 C   0  0  0  0  0  0  0  0  0  0  0  0
  -21.3060   -6.4600   23.8590 C   0  0  0  0  0  3  0  0  0  0  0  0
  -21.1810   -5.7040   25.0400 C   0  0  0  0  0  3  0  0  0  0  0  0
  -21.5640   -4.3490   25.0530 C   0  0  0  0  0  0  0  0  0  0  0  0
  -22.0760   -3.7500   23.8880 C   0  0  0  0  0  3  0  0  0  0  0  0
  -22.2030   -4.5060   22.7090 C   0  0  0  0  0  0  0  0  0  0  0  0
  -22.6770   -3.9180   21.5830 F   0  0  0  0  0  0  0  0  0  0  0  0
  -21.4370   -3.6190   26.1860 F   0  0  0  0  0  0  0  0  0  0  0  0
  -22.9720  -13.2000   21.4850 C   0  0  0  0  0  0  0  0  0  0  0  0
  -22.4050  -12.4490   22.4230 N   0  0  0  0  0  0  0  0  0  0  0  0
  -22.4540  -14.2530   21.1130 O   0  0  0  0  0  0  0  0  0  0  0  0
  -22.8410  -11.5980   22.7420 H   0  0  0  0  0  0  0  0  0  0  0  0
  -21.5240  -12.7310   22.8280 H   0  0  0  0  0  0  0  0  0  0  0  0
  -25.4140  -14.9260   20.3160 N   0  0  0  0  0  0  0  0  0  0  0  0
  -24.6600  -15.5540   20.5690 H   0  0  0  0  0  0  0  0  0  0  0  0
  -26.1580  -15.3800   19.8040 H   0  0  0  0  0  0  0  0  0  0  0  0
  -26.5420  -17.6370   20.2820 C   0  0  0  0  0  1  0  0  0  0  0  0
  -27.6240  -17.3200   19.2410 C   0  0  0  0  0  2  0  0  0  0  0  0
  -30.2540  -21.5900   19.5460 O   0  0  0  0  0  0  0  0  0  0  0  0
  -29.0820  -22.4640   19.4270 C   0  0  0  0  0  2  0  0  0  0  0  0
  -29.3920  -24.0020   19.6470 C   0  0  0  0  0  0  0  0  0  0  0  0
  -30.4990  -24.3680   20.0580 O   0  0  0  0  0  0  0  0  0  0  0  0
  -28.2710  -25.0630   19.3310 C   0  0  0  0  0  2  0  0  0  0  0  0
  -28.5050  -26.4730   19.7360 O   0  0  0  0  0  0  0  0  0  0  0  0
  -24.6620  -31.6260   23.0280 C   0  0  0  0  0  0  0  0  0  0  0  0
  -27.3810  -27.3190   19.7150 C   0  0  0  0  0  0  0  0  0  0  0  0
  -23.5030  -30.3290   21.2790 C   0  0  0  0  0  3  0  0  0  0  0  0
  -24.9950  -28.8990   19.7760 C   0  0  0  0  0  0  0  0  0  0  0  0
  -26.0400  -30.6890   21.1590 C   0  0  0  0  0  2  0  0  0  0  0  0
  -26.1500  -29.3590   20.4230 C   0  0  0  0  0  0  0  0  0  0  0  0
  -27.3450  -28.5830   20.3840 C   0  0  0  0  0  3  0  0  0  0  0  0
  -26.2010  -26.9190   19.0440 C   0  0  0  0  0  3  0  0  0  0  0  0
  -25.0230  -27.6840   19.0800 C   0  0  0  0  0  3  0  0  0  0  0  0
  -23.7460  -29.7510   19.8620 C   0  0  0  0  0  2  0  0  0  0  0  0
  -24.7540  -30.8930   21.8810 N   0  0  0  0  0  0  0  0  0  0  0  0
  -23.5670  -31.8550   23.5620 O   0  0  0  0  0  0  0  0  0  0  0  0
  -22.8370  -29.2410   22.1560 C   0  0  0  0  0  0  0  0  0  0  0  0
  -21.5030  -29.1130   22.0530 N   0  0  0  0  0  0  0  0  0  0  0  0
  -23.5180  -28.5190   22.8880 O   0  0  0  0  0  0  0  0  0  0  0  0
  -21.0130  -29.7470   21.4360 H   0  0  0  0  0  0  0  0  0  0  0  0
  -18.1000  -28.0040   22.5780 C   0  0  0  0  0  0  0  0  0  0  0  0
  -20.6770  -28.1290   22.7540 C   0  0  0  0  0  3  0  0  0  0  0  0
  -20.6900  -26.7680   22.0230 C   0  0  0  0  0  2  0  0  0  0  0  0
  -19.5330  -26.6020   21.0340 C   0  0  0  0  0  2  0  0  0  0  0  0
  -18.1880  -26.7310   21.7530 C   0  0  0  0  0  2  0  0  0  0  0  0
  -19.2690  -28.6690   23.0340 C   0  0  0  0  0  0  0  0  0  0  0  0
  -19.1320  -29.8670   23.7680 C   0  0  0  0  0  3  0  0  0  0  0  0
  -17.8590  -30.3980   24.0490 C   0  0  0  0  0  3  0  0  0  0  0  0
  -16.7050  -29.7280   23.6090 C   0  0  0  0  0  3  0  0  0  0  0  0
  -16.8270  -28.5320   22.8780 C   0  0  0  0  0  3  0  0  0  0  0  0
  -25.9260  -32.2290   23.7140 C   0  0  0  0  0  3  0  0  0  0  0  0
  -25.6070  -33.6120   24.0950 N   0  0  0  0  0  0  0  0  0  0  0  0
  -25.9560  -34.6960   23.3890 C   0  0  0  0  0  0  0  0  0  0  0  0
  -26.6500  -34.6360   22.3710 O   0  0  0  0  0  0  0  0  0  0  0  0
  -24.9920  -33.7310   24.8860 H   0  0  0  0  0  0  0  0  0  0  0  0
  -24.2310  -36.5010   23.0750 C   0  0  0  0  0  1  0  0  0  0  0  0
  -25.4570  -36.0640   23.8930 C   0  0  0  0  0  3  0  0  0  0  0  0
  -27.5690  -36.9200   24.8080 C   0  0  0  0  0  1  0  0  0  0  0  0
  -26.4900  -37.1220   23.8440 N   0  0  0  0  0  0  0  0  0  0  0  0
  -26.0780  -38.0350   24.0170 H   0  0  0  0  0  0  0  0  0  0  0  0
  -26.4060  -31.4030   24.9700 C   0  0  1  0  0  0  0  0  0  0  0  0
  -25.2870  -31.1400   26.0050 C   0  0  0  0  0  1  0  0  0  0  0  0
  -26.9780  -30.0320   24.5400 C   0  0  0  0  0  1  0  0  0  0  0  0
  -27.5530  -32.1540   25.6840 C   0  0  0  0  0  1  0  0  0  0  0  0
  2  1  1  0
  3  5  2  0
  3  6  1  0
  4  1  2  0
  4  7  1  0
  5  4  1  0
  6  2  2  0
  7  8  2  0
  8  9  1  0
 10 16  1  0
 10  7  1  0
 11 16  1  0
 12 13  1  0
 12 11  1  0
 14 13  1  0
 14 21  1  0
 14 15  1  0
 16 15  1  0
 17 10  2  0
 18 19  2  0
 19 38  1  0
 20 19  1  0
 20 23  1  0
 21 22  1  0
 21 18  1  0
 22 20  2  0
 23 24  1  0
 24 25  2  0
 26 29  1  0
 26 25  1  0
 27 26  2  0
 28 27  1  0
 28 23  2  0
 29 30  1  0
 30 35  2  0
 30 31  1  0
 31 32  2  0
 32 33  1  0
 33 37  1  0
 34 33  2  0
 35 34  1  0
 36 35  1  0
 38 39  1  0
 39 41  1  0
 39 42  1  0
 40 38  2  0
 43 18  1  0
 43 44  1  0
 45 43  1  0
 47  5  1  0
 47 46  1  0
 48  6  1  0
 49 48  1  0
 49 50  1  0
 50 51  2  0
 52 50  1  0
 52 53  1  0
 54 65  2  0
 55 53  1  0
 55 60  1  0
 56 64  1  0
 56 66  1  0
 57 63  1  0
 57 59  1  0
 58 64  1  0
 59 58  1  0
 60 59  2  0
 61 62  1  0
 61 55  2  0
 62 57  2  0
 63 56  1  0
 64 54  1  0
 66 68  2  0
 67 66  1  0
 69 67  1  0
 70 79  2  0
 70 75  1  0
 71 67  1  0
 71 75  1  0
 72 71  1  0
 73 74  1  0
 73 72  1  0
 74 70  1  0
 75 76  2  0
 76 77  1  0
 78 77  2  0
 79 78  1  0
 80 54  1  0
 80 81  1  0
 80 90  1  0
 81 84  1  0
 82 86  1  0
 82 81  1  0
 83 82  2  0
 86 85  1  0
 88 86  1  0
 88 89  1  0
 88 87  1  0
 90 93  1  1
 90 91  1  0
 92 90  1  0
M  ISO  4   7 100  10 100  52 101  53 101
M  END
>  <TORSDO>  (76) 
F 22

>  <SCORE>  (76) 
-12.029

>  <name>  (76) 
75

>  <ligand_id>  (76) 
75

>  <original_smiles>  (76) 
[H]N=C(C(=O)N1C([H])([H])C([H])([H])C([H])([H])C([H])(n2nc(-c3c([H])c([H])c(Oc4c([H])c([H])c(F)c([H])c4F)c([H])c3[H])c(C(=O)N([H])[H])c2N([H])[H])C1([H])[H])c1c([H])c([H])c(OC([H])([H])C(=O)C([H])([H])Oc2c([H])c([H])c3c(c2[H])C([H])([H])N(C(=O)C([H])(N([H])C(=O)C([H])(N([H])C([H])([H])[H])C([H])([H])[H])C(C([H])([H])[H])(C([H])([H])[H])C([H])([H])[H])C([H])(C(=O)N([H])C2([H])c4c([H])c([H])c([H])c([H])c4C([H])([H])C([H])([H])C2([H])[H])C3([H])[H])c([H])c1C([H])([H])C([H])([H])[H]

>  <smiles>  (76) 
[H]N=C(C(=O)N1C([H])([H])C([H])([H])C([H])([H])C([H])(n2nc(-c3c([H])c([H])c(Oc4c([H])c([H])c(F)c([H])c4F)c([H])c3[H])c(C(=O)N([H])[H])c2N([H])[H])C1([H])[H])c1c([H])c([H])c(OC([H])([H])C(=O)C([H])([H])Oc2c([H])c([H])c3c(c2[H])C([H])([H])N(C(=O)C([H])(N([H])C(=O)C([H])(N([H])C([H])([H])[H])C([H])([H])[H])C(C([H])([H])[H])(C([H])([H])[H])C([H])([H])[H])C([H])(C(=O)N([H])C2([H])c4c([H])c([H])c([H])c([H])c4C([H])([H])C([H])([H])C2([H])[H])C3([H])[H])c([H])c1C([H])([H])C([H])([H])[H]

$$$$
76:0:0
     RDKit          3D

 94102  0  0  1  0  0  0  0  0999 V2000
  -30.3670  -19.9220   21.3150 C   0  0  0  0  0  3  0  0  0  0  0  0
  -29.8510  -18.4810   19.4360 C   0  0  0  0  0  3  0  0  0  0  0  0
  -30.9240  -18.8160   21.9910 C   0  0  0  0  0  0  0  0  0  0  0  0
  -30.9600  -17.5190   21.3970 C   0  0  0  0  0  0  0  0  0  0  0  0
  -30.4290  -17.3080   20.0850 C   0  0  0  0  0  0  0  0  0  0  0  0
  -29.7980  -19.8100   20.0350 C   0  0  0  0  0  0  0  0  0  0  0  0
  -31.0710  -14.7960   19.4550 C   0  0  0  0  0  0  0  0  0  0  0  0
  -30.7700  -12.4810   18.5230 C   0  0  0  0  0  2  0  0  0  0  0  0
  -29.7100  -12.5160   17.3980 C   0  0  0  0  0  2  0  0  0  0  0  0
  -28.2840  -12.3880   17.9750 C   0  0  0  0  0  2  0  0  0  0  0  0
  -28.0440  -13.3390   19.1760 C   0  0  0  0  0  3  0  0  0  0  0  0
  -29.2040  -13.2450   20.1910 C   0  0  0  0  0  2  0  0  0  0  0  0
  -30.4400  -13.5700   19.4670 N   0  0  0  0  0  0  0  0  0  0  0  0
  -32.2370  -14.8900   19.0560 O   0  0  0  0  0  0  0  0  0  0  0  0
  -30.2470  -15.9060   19.6110 N   0  0  0  0  0  0  0  0  0  0  0  0
  -29.2870  -15.6090   19.6750 H   0  0  0  0  0  0  0  0  0  0  0  0
  -25.7930  -14.0520   20.1850 C   0  0  0  0  0  0  0  0  0  0  0  0
  -24.7260  -13.3310   20.6460 C   0  0  0  0  0  0  0  0  0  0  0  0
  -25.0950  -11.9560   20.5190 C   0  0  0  0  0  0  0  0  0  0  0  0
  -26.7460  -13.1200   19.8030 N   0  0  0  0  0  0  0  0  0  0  0  0
  -26.3380  -11.8520   20.0670 N   0  0  0  0  0  0  0  0  0  0  0  0
  -24.3120  -10.7340   20.7450 C   0  0  0  0  0  0  0  0  0  0  0  0
  -24.7030   -9.7730   21.7030 C   0  0  0  0  0  3  0  0  0  0  0  0
  -23.9250   -8.6150   21.9150 C   0  0  0  0  0  3  0  0  0  0  0  0
  -22.7400   -8.4100   21.1670 C   0  0  0  0  0  0  0  0  0  0  0  0
  -22.3680   -9.3580   20.1990 C   0  0  0  0  0  3  0  0  0  0  0  0
  -23.1470  -10.5080   19.9850 C   0  0  0  0  0  3  0  0  0  0  0  0
  -21.9350   -7.3030   21.2880 O   0  0  0  0  0  0  0  0  0  0  0  0
  -21.7470   -6.6770   22.4940 C   0  0  0  0  0  0  0  0  0  0  0  0
  -21.2520   -7.3680   23.6220 C   0  0  0  0  0  3  0  0  0  0  0  0
  -21.0080   -6.6710   24.8220 C   0  0  0  0  0  3  0  0  0  0  0  0
  -21.2510   -5.2860   24.8950 C   0  0  0  0  0  0  0  0  0  0  0  0
  -21.7390   -4.5970   23.7720 C   0  0  0  0  0  3  0  0  0  0  0  0
  -21.9840   -5.2900   22.5730 C   0  0  0  0  0  0  0  0  0  0  0  0
  -22.4360   -4.6180   21.4870 F   0  0  0  0  0  0  0  0  0  0  0  0
  -21.0090   -4.6150   26.0450 F   0  0  0  0  0  0  0  0  0  0  0  0
  -23.4000  -13.8810   21.0860 C   0  0  0  0  0  0  0  0  0  0  0  0
  -22.7490  -13.2220   22.0370 N   0  0  0  0  0  0  0  0  0  0  0  0
  -22.9540  -14.9280   20.6160 O   0  0  0  0  0  0  0  0  0  0  0  0
  -23.1230  -12.3740   22.4350 H   0  0  0  0  0  0  0  0  0  0  0  0
  -21.8630  -13.5730   22.3750 H   0  0  0  0  0  0  0  0  0  0  0  0
  -26.0200  -15.4170   20.0330 N   0  0  0  0  0  0  0  0  0  0  0  0
  -25.3010  -16.1000   20.2470 H   0  0  0  0  0  0  0  0  0  0  0  0
  -26.8220  -15.8250   19.5730 H   0  0  0  0  0  0  0  0  0  0  0  0
  -32.7850  -19.8640   23.3580 C   0  0  0  0  0  1  0  0  0  0  0  0
  -31.4580  -19.1010   23.3940 C   0  0  0  0  0  2  0  0  0  0  0  0
  -30.4220  -15.2990   22.5220 C   0  0  0  0  0  1  0  0  0  0  0  0
  -31.5070  -16.3410   22.2070 C   0  0  0  0  0  2  0  0  0  0  0  0
  -29.2740  -20.9810   19.4070 O   0  0  0  0  0  0  0  0  0  0  0  0
  -28.6970  -22.1430   20.1650 C   0  0  0  0  0  2  0  0  0  0  0  0
  -30.3000  -24.0610   20.8010 C   0  0  0  0  0  1  0  0  0  0  0  0
  -29.1240  -23.6900   19.8830 C   0  0  0  0  0  3  0  0  0  0  0  0
  -27.9640  -24.8200   19.9830 C   0  0  0  0  0  2  0  0  0  0  0  0
  -28.1850  -26.3090   19.8440 O   0  0  0  0  0  0  0  0  0  0  0  0
  -24.4420  -31.6050   23.1490 C   0  0  0  0  0  0  0  0  0  0  0  0
  -27.0570  -27.1700   19.8640 C   0  0  0  0  0  0  0  0  0  0  0  0
  -23.2130  -30.2080   21.5300 C   0  0  0  0  0  3  0  0  0  0  0  0
  -24.6490  -28.7440   19.9980 C   0  0  0  0  0  0  0  0  0  0  0  0
  -25.7340  -30.6070   21.2410 C   0  0  0  0  0  2  0  0  0  0  0  0
  -25.8320  -29.2450   20.5540 C   0  0  0  0  0  0  0  0  0  0  0  0
  -27.0380  -28.4730   20.4730 C   0  0  0  0  0  3  0  0  0  0  0  0
  -25.8390  -26.7420   19.2840 C   0  0  0  0  0  3  0  0  0  0  0  0
  -24.6570  -27.5010   19.3510 C   0  0  0  0  0  3  0  0  0  0  0  0
  -23.3880  -29.5780   20.1250 C   0  0  0  0  0  2  0  0  0  0  0  0
  -24.4850  -30.8240   22.0300 N   0  0  0  0  0  0  0  0  0  0  0  0
  -23.3740  -31.8330   23.7370 O   0  0  0  0  0  0  0  0  0  0  0  0
  -22.6290  -29.1450   22.4900 C   0  0  0  0  0  0  0  0  0  0  0  0
  -21.3490  -28.7840   22.2910 N   0  0  0  0  0  0  0  0  0  0  0  0
  -23.3280  -28.6450   23.3760 O   0  0  0  0  0  0  0  0  0  0  0  0
  -20.8370  -29.2460   21.5530 H   0  0  0  0  0  0  0  0  0  0  0  0
  -18.1920  -27.0300   22.5240 C   0  0  0  0  0  0  0  0  0  0  0  0
  -20.6110  -27.7730   23.0500 C   0  0  0  0  0  3  0  0  0  0  0  0
  -21.0300  -26.3440   22.6310 C   0  0  0  0  0  2  0  0  0  0  0  0
  -20.1400  -25.7520   21.5350 C   0  0  0  0  0  2  0  0  0  0  0  0
  -18.6830  -25.6900   22.0030 C   0  0  0  0  0  2  0  0  0  0  0  0
  -19.0980  -28.0140   23.0000 C   0  0  0  0  0  0  0  0  0  0  0  0
  -18.5910  -29.2550   23.4410 C   0  0  0  0  0  3  0  0  0  0  0  0
  -17.2090  -29.5200   23.4110 C   0  0  0  0  0  3  0  0  0  0  0  0
  -16.3160  -28.5380   22.9500 C   0  0  0  0  0  3  0  0  0  0  0  0
  -16.8070  -27.2950   22.5130 C   0  0  0  0  0  3  0  0  0  0  0  0
  -25.7290  -32.2660   23.7300 C   0  0  0  0  0  3  0  0  0  0  0  0
  -25.3970  -33.6550   24.0790 N   0  0  0  0  0  0  0  0  0  0  0  0
  -25.7020  -34.7220   23.3290 C   0  0  0  0  0  0  0  0  0  0  0  0
  -26.3610  -34.6420   22.2890 O   0  0  0  0  0  0  0  0  0  0  0  0
  -24.8080  -33.7910   24.8880 H   0  0  0  0  0  0  0  0  0  0  0  0
  -23.9440  -36.4920   23.0060 C   0  0  0  0  0  1  0  0  0  0  0  0
  -25.1950  -36.0960   23.8060 C   0  0  0  0  0  3  0  0  0  0  0  0
  -27.3250  -36.9970   24.6340 C   0  0  0  0  0  1  0  0  0  0  0  0
  -26.2120  -37.1660   23.7040 N   0  0  0  0  0  0  0  0  0  0  0  0
  -25.7940  -38.0770   23.8730 H   0  0  0  0  0  0  0  0  0  0  0  0
  -26.3080  -31.5020   24.9850 C   0  0  1  0  0  0  0  0  0  0  0  0
  -25.2450  -31.1880   26.0640 C   0  0  0  0  0  1  0  0  0  0  0  0
  -26.9560  -30.1640   24.5600 C   0  0  0  0  0  1  0  0  0  0  0  0
  -27.4270  -32.3450   25.6410 C   0  0  0  0  0  1  0  0  0  0  0  0
  1  3  1  0
  2  6  1  0
  2  5  2  0
  3 46  1  0
  4  3  2  0
  4 48  1  0
  5  4  1  0
  6  1  2  0
  7 13  1  0
  7 15  1  0
  8 13  1  0
  9 10  1  0
  9  8  1  0
 11 10  1  0
 11 20  1  0
 11 12  1  0
 13 12  1  0
 14  7  2  0
 15 16  1  0
 15  5  1  0
 17 18  2  0
 18 37  1  0
 19 18  1  0
 19 22  1  0
 20 21  1  0
 20 17  1  0
 21 19  2  0
 22 23  1  0
 23 24  2  0
 25 28  1  0
 25 24  1  0
 26 25  2  0
 27 26  1  0
 27 22  2  0
 28 29  1  0
 29 34  2  0
 29 30  1  0
 30 31  2  0
 31 32  1  0
 32 36  1  0
 33 32  2  0
 34 33  1  0
 35 34  1  0
 37 38  1  0
 38 41  1  0
 38 40  1  0
 39 37  2  0
 42 17  1  0
 42 43  1  0
 44 42  1  0
 45 46  1  0
 48 47  1  0
 49  6  1  0
 49 50  1  0
 52 53  1  0
 52 50  1  0
 52 51  1  0
 54 56  1  0
 54 53  1  0
 55 66  2  0
 56 61  1  0
 57 65  1  0
 57 67  1  0
 58 64  1  0
 58 60  1  0
 59 65  1  0
 60 59  1  0
 61 60  2  0
 62 63  1  0
 62 56  2  0
 63 58  2  0
 64 57  1  0
 65 55  1  0
 67 69  2  0
 68 67  1  0
 70 68  1  0
 71 76  1  0
 72 68  1  0
 73 72  1  0
 74 75  1  0
 74 73  1  0
 75 71  1  0
 76 72  1  0
 76 77  2  0
 78 77  1  0
 79 78  2  0
 80 71  2  0
 80 79  1  0
 81 55  1  0
 81 82  1  0
 81 91  1  0
 82 85  1  0
 83 87  1  0
 83 82  1  0
 84 83  2  0
 87 86  1  0
 89 87  1  0
 89 90  1  0
 89 88  1  0
 91 94  1  1
 91 92  1  0
 93 91  1  0
M  ISO  4   7 100  15 100  53 101  54 101
M  END
>  <TORSDO>  (77) 
F 22

>  <SCORE>  (77) 
-9.695

>  <name>  (77) 
76

>  <ligand_id>  (77) 
76

>  <original_smiles>  (77) 
[H]c1c([H])c([H])c2c(c1[H])C([H])([H])C([H])([H])C([H])([H])C2([H])N([H])C(=O)C1([H])N(C(=O)C([H])(N([H])C(=O)C([H])(N([H])C([H])([H])[H])C([H])([H])[H])C(C([H])([H])[H])(C([H])([H])[H])C([H])([H])[H])C([H])([H])c2c([H])c(OC([H])([H])C([H])(C([H])([H])[H])C([H])([H])Oc3c([H])c(N([H])C(=O)N4C([H])([H])C([H])([H])C([H])([H])C([H])(n5nc(-c6c([H])c([H])c(Oc7c([H])c([H])c(F)c([H])c7F)c([H])c6[H])c(C(=O)N([H])[H])c5N([H])[H])C4([H])[H])c(C([H])([H])C([H])([H])[H])c(C([H])([H])C([H])([H])[H])c3[H])c([H])c([H])c2C1([H])[H]

>  <smiles>  (77) 
[H]c1c([H])c([H])c2c(c1[H])C([H])([H])C([H])([H])C([H])([H])C2([H])N([H])C(=O)C1([H])N(C(=O)C([H])(N([H])C(=O)C([H])(N([H])C([H])([H])[H])C([H])([H])[H])C(C([H])([H])[H])(C([H])([H])[H])C([H])([H])[H])C([H])([H])c2c([H])c(OC([H])([H])C([H])(C([H])([H])[H])C([H])([H])Oc3c([H])c(N([H])C(=O)N4C([H])([H])C([H])([H])C([H])([H])C([H])(n5nc(-c6c([H])c([H])c(Oc7c([H])c([H])c(F)c([H])c7F)c([H])c6[H])c(C(=O)N([H])[H])c5N([H])[H])C4([H])[H])c(C([H])([H])C([H])([H])[H])c(C([H])([H])C([H])([H])[H])c3[H])c([H])c([H])c2C1([H])[H]

$$$$
77:0:0
     RDKit          3D

103113  0  0  1  0  0  0  0  0999 V2000
  -30.3020  -20.0970   19.4200 C   0  0  0  0  0  3  0  0  0  0  0  0
  -31.5450  -21.8580   20.5500 C   0  0  0  0  0  3  0  0  0  0  0  0
  -32.7160  -19.9120   19.6570 C   0  0  0  0  0  3  0  0  0  0  0  0
  -30.3020  -21.3330   20.1220 C   0  0  0  0  0  0  0  0  0  0  0  0
  -31.4990  -19.3790   19.1730 C   0  0  0  0  0  0  0  0  0  0  0  0
  -32.7390  -21.1490   20.3250 C   0  0  0  0  0  0  0  0  0  0  0  0
  -33.9180  -21.6560   20.7620 F   0  0  0  0  0  0  0  0  0  0  0  0
  -32.4220  -17.4200   17.9120 C   0  0  0  0  0  0  0  0  0  0  0  0
  -31.4230  -18.1240   18.4850 N   0  0  0  0  0  0  0  0  0  0  0  0
  -33.5900  -17.8190   17.8670 O   0  0  0  0  0  0  0  0  0  0  0  0
  -30.4990  -17.7310   18.3690 H   0  0  0  0  0  0  0  0  0  0  0  0
  -33.1920  -15.5380   16.3510 C   0  0  0  0  0  1  0  0  0  0  0  0
  -32.0570  -16.0750   17.2410 C   0  0  0  0  0  3  0  0  0  0  0  0
  -32.5540  -12.9340   20.1260 C   0  0  0  0  0  3  0  0  0  0  0  0
  -32.7810  -14.1570   19.0680 C   0  0  0  0  0  3  0  0  0  0  0  0
  -31.1040  -12.3450   20.6510 C   0  0  0  0  0  3  0  0  0  0  0  0
  -30.0410  -14.7140   18.5190 C   0  0  0  0  0  2  0  0  0  0  0  0
  -31.6480  -15.0220   18.2650 C   0  0  1  0  0  0  0  0  0  0  0  0
  -29.7050  -13.1700   20.1610 C   0  0  0  0  0  2  0  0  0  0  0  0
  -30.3580  -14.8850   21.7970 C   0  0  0  0  0  3  0  0  0  0  0  0
  -30.6910  -13.5590   18.2330 C   0  0  0  0  0  3  0  0  0  0  0  0
  -29.2120  -12.6140   17.8060 C   0  0  0  0  0  3  0  0  0  0  0  0
  -27.6770  -12.7030   18.7590 C   0  0  0  0  0  3  0  0  0  0  0  0
  -27.2020  -13.8430   20.0830 C   0  0  0  0  0  0  0  0  0  0  0  0
  -28.2460  -14.9580   21.0530 C   0  0  0  0  0  3  0  0  0  0  0  0
  -30.0170  -15.1490   20.6400 N   0  0  0  0  0  2  0  0  0  0  0  0
  -31.4060  -15.4280   22.1220 O   0  0  0  0  0  1  0  0  0  0  0  0
  -30.0650  -13.5420   21.6020 N   0  0  2  0  0  4  0  0  0  0  0  0
  -30.5110  -12.8570   22.1950 H   0  0  0  0  0  0  0  0  0  0  0  0
  -24.7980  -14.2540   20.7250 C   0  0  0  0  0  0  0  0  0  0  0  0
  -23.7950  -13.3570   20.9500 C   0  0  0  0  0  0  0  0  0  0  0  0
  -24.4050  -12.0660   20.9320 C   0  0  0  0  0  0  0  0  0  0  0  0
  -25.9400  -13.4810   20.6210 N   0  0  0  0  0  0  0  0  0  0  0  0
  -25.7100  -12.1680   20.7930 N   0  0  0  0  0  0  0  0  0  0  0  0
  -23.8330  -10.7260   20.9960 C   0  0  0  0  0  0  0  0  0  0  0  0
  -24.3390   -9.7670   21.8990 C   0  0  0  0  0  3  0  0  0  0  0  0
  -23.7530   -8.4870   21.9760 C   0  0  0  0  0  3  0  0  0  0  0  0
  -22.6530   -8.1630   21.1460 C   0  0  0  0  0  0  0  0  0  0  0  0
  -22.1800   -9.1110   20.2230 C   0  0  0  0  0  3  0  0  0  0  0  0
  -22.7680  -10.3830   20.1420 C   0  0  0  0  0  3  0  0  0  0  0  0
  -22.0290   -6.9410   21.1470 O   0  0  0  0  0  0  0  0  0  0  0  0
  -21.9890   -6.1580   22.2730 C   0  0  0  0  0  0  0  0  0  0  0  0
  -21.4310   -6.6220   23.4840 C   0  0  0  0  0  3  0  0  0  0  0  0
  -21.3450   -5.7590   24.5940 C   0  0  0  0  0  3  0  0  0  0  0  0
  -21.8100   -4.4330   24.4940 C   0  0  0  0  0  0  0  0  0  0  0  0
  -22.3650   -3.9710   23.2870 C   0  0  0  0  0  3  0  0  0  0  0  0
  -22.4510   -4.8310   22.1790 C   0  0  0  0  0  0  0  0  0  0  0  0
  -22.9670   -4.3740   21.0120 F   0  0  0  0  0  0  0  0  0  0  0  0
  -21.7210   -3.6010   25.5570 F   0  0  0  0  0  0  0  0  0  0  0  0
  -22.3370  -13.6700   21.0710 C   0  0  0  0  0  0  0  0  0  0  0  0
  -21.6240  -12.8950   21.8790 N   0  0  0  0  0  0  0  0  0  0  0  0
  -21.8390  -14.6370   20.4990 O   0  0  0  0  0  0  0  0  0  0  0  0
  -22.0450  -12.1170   22.3640 H   0  0  0  0  0  0  0  0  0  0  0  0
  -20.6410  -13.0830   22.0160 H   0  0  0  0  0  0  0  0  0  0  0  0
  -24.8260  -15.6380   20.5510 N   0  0  0  0  0  0  0  0  0  0  0  0
  -23.9840  -16.2010   20.5780 H   0  0  0  0  0  0  0  0  0  0  0  0
  -25.6610  -16.1790   20.3610 H   0  0  0  0  0  0  0  0  0  0  0  0
  -28.0120  -21.0510   21.1370 C   0  0  0  0  0  1  0  0  0  0  0  0
  -28.9620  -22.0350   20.4250 C   0  0  0  0  0  3  0  0  0  0  0  0
  -29.0330  -23.3410   21.2740 C   0  0  0  0  0  2  0  0  0  0  0  0
  -29.2790  -24.6770   20.5280 C   0  0  0  0  0  2  0  0  0  0  0  0
  -28.0060  -25.3240   19.9340 C   0  0  0  0  0  2  0  0  0  0  0  0
  -28.1500  -26.7490   19.8150 O   0  0  0  0  0  0  0  0  0  0  0  0
  -24.5660  -31.8760   23.2230 C   0  0  0  0  0  0  0  0  0  0  0  0
  -26.9850  -27.4890   19.8850 C   0  0  0  0  0  0  0  0  0  0  0  0
  -23.2570  -30.5430   21.6020 C   0  0  0  0  0  3  0  0  0  0  0  0
  -24.6130  -29.0280   20.0640 C   0  0  0  0  0  0  0  0  0  0  0  0
  -25.7760  -30.8720   21.2880 C   0  0  0  0  0  2  0  0  0  0  0  0
  -25.8090  -29.5210   20.6030 C   0  0  0  0  0  0  0  0  0  0  0  0
  -26.9990  -28.7610   20.5040 C   0  0  0  0  0  3  0  0  0  0  0  0
  -25.7690  -27.0110   19.3450 C   0  0  0  0  0  3  0  0  0  0  0  0
  -24.5890  -27.7730   19.4320 C   0  0  0  0  0  3  0  0  0  0  0  0
  -23.3860  -29.9010   20.1960 C   0  0  0  0  0  2  0  0  0  0  0  0
  -24.5540  -31.1090   22.0960 N   0  0  0  0  0  0  0  0  0  0  0  0
  -23.5170  -32.1470   23.8250 O   0  0  0  0  0  0  0  0  0  0  0  0
  -22.6370  -29.5030   22.5640 C   0  0  0  0  0  0  0  0  0  0  0  0
  -21.3240  -29.2610   22.4190 N   0  0  0  0  0  0  0  0  0  0  0  0
  -23.3360  -28.9160   23.3960 O   0  0  0  0  0  0  0  0  0  0  0  0
  -20.8210  -29.7890   21.7190 H   0  0  0  0  0  0  0  0  0  0  0  0
  -18.0190  -27.8530   22.8050 C   0  0  0  0  0  0  0  0  0  0  0  0
  -20.5370  -28.2960   23.1850 C   0  0  0  0  0  3  0  0  0  0  0  0
  -20.7640  -26.8570   22.6670 C   0  0  0  0  0  2  0  0  0  0  0  0
  -19.7360  -26.4250   21.6160 C   0  0  0  0  0  2  0  0  0  0  0  0
  -18.3180  -26.4970   22.1900 C   0  0  0  0  0  2  0  0  0  0  0  0
  -19.0610  -28.7050   23.2580 C   0  0  0  0  0  0  0  0  0  0  0  0
  -18.7290  -29.9700   23.7890 C   0  0  0  0  0  3  0  0  0  0  0  0
  -17.3870  -30.3860   23.8750 C   0  0  0  0  0  3  0  0  0  0  0  0
  -16.3580  -29.5330   23.4400 C   0  0  0  0  0  3  0  0  0  0  0  0
  -16.6750  -28.2680   22.9100 C   0  0  0  0  0  3  0  0  0  0  0  0
  -25.8910  -32.4670   23.7980 C   0  0  0  0  0  3  0  0  0  0  0  0
  -25.6300  -33.8660   24.1600 N   0  0  0  0  0  0  0  0  0  0  0  0
  -25.9650  -34.9220   23.4070 C   0  0  0  0  0  0  0  0  0  0  0  0
  -26.5980  -34.8200   22.3530 O   0  0  0  0  0  0  0  0  0  0  0  0
  -25.0660  -34.0210   24.9820 H   0  0  0  0  0  0  0  0  0  0  0  0
  -24.2740  -36.7630   23.1350 C   0  0  0  0  0  1  0  0  0  0  0  0
  -25.5270  -36.3140   23.9020 C   0  0  0  0  0  3  0  0  0  0  0  0
  -27.7050  -37.1310   24.6900 C   0  0  0  0  0  1  0  0  0  0  0  0
  -26.5840  -37.3420   23.7770 N   0  0  0  0  0  0  0  0  0  0  0  0
  -26.2040  -38.2700   23.9490 H   0  0  0  0  0  0  0  0  0  0  0  0
  -26.4450  -31.6630   25.0370 C   0  0  1  0  0  0  0  0  0  0  0  0
  -25.3910  -31.4210   26.1410 C   0  0  0  0  0  1  0  0  0  0  0  0
  -26.9900  -30.2850   24.5930 C   0  0  0  0  0  1  0  0  0  0  0  0
  -27.6360  -32.4250   25.6660 C   0  0  0  0  0  1  0  0  0  0  0  0
  1  4  1  0
  3  6  2  0
  4 59  1  0
  4  2  2  0
  5  1  2  0
  5  3  1  0
  6  2  1  0
  6  7  1  0
  8  9  1  0
  9  5  1  0
 10  8  2  0
 11  9  1  0
 13 12  1  0
 13  8  1  0
 15 14  2  0
 16 14  1  0
 16 28  1  0
 18 13  1  1
 18 17  1  0
 18 15  1  0
 19 16  1  0
 19 28  1  0
 20 27  1  0
 21 22  1  0
 21 18  1  0
 21 17  1  0
 22 23  2  0
 23 24  1  0
 24 33  1  0
 24 25  2  0
 26 25  1  0
 26 20  1  0
 28 20  1  0
 28 29  1  1
 30 31  2  0
 31 50  1  0
 32 31  1  0
 32 35  1  0
 33 30  1  0
 33 34  1  0
 34 32  2  0
 35 36  1  0
 36 37  2  0
 38 41  1  0
 38 37  1  0
 39 38  2  0
 40 39  1  0
 40 35  2  0
 41 42  1  0
 42 43  1  0
 43 44  2  0
 45 44  1  0
 45 49  1  0
 46 45  2  0
 47 42  2  0
 47 46  1  0
 48 47  1  0
 50 51  1  0
 51 54  1  0
 51 53  1  0
 52 50  2  0
 55 56  1  0
 55 30  1  0
 57 55  1  0
 59 58  1  0
 59 60  1  0
 61 60  1  0
 62 61  1  0
 63 65  1  0
 63 62  1  0
 64 75  2  0
 65 70  1  0
 66 74  1  0
 66 76  1  0
 67 73  1  0
 67 69  1  0
 68 74  1  0
 69 68  1  0
 70 69  2  0
 71 72  1  0
 71 65  2  0
 72 67  2  0
 73 66  1  0
 74 64  1  0
 76 78  2  0
 77 76  1  0
 79 77  1  0
 80 89  2  0
 80 85  1  0
 81 77  1  0
 81 85  1  0
 82 81  1  0
 83 84  1  0
 83 82  1  0
 84 80  1  0
 85 86  2  0
 86 87  1  0
 88 87  2  0
 89 88  1  0
 90 64  1  0
 90 91  1  0
 90100  1  0
 91 94  1  0
 92 96  1  0
 92 91  1  0
 93 92  2  0
 96 95  1  0
 98 96  1  0
 98 99  1  0
 98 97  1  0
100103  1  1
100101  1  0
102100  1  0
M  ISO  4  20 100  28 100  62 101  63 101
M  END
>  <TORSDO>  (78) 
F 23

>  <SCORE>  (78) 
-11.678

>  <name>  (78) 
77

>  <ligand_id>  (78) 
77

>  <original_smiles>  (78) 
[H]c1c([H])c([H])c2c(c1[H])C([H])([H])C([H])([H])C([H])([H])C2([H])N([H])C(=O)C1([H])N(C(=O)C([H])(N([H])C(=O)C([H])(N([H])C([H])([H])[H])C([H])([H])[H])C(C([H])([H])[H])(C([H])([H])[H])C([H])([H])[H])C([H])([H])c2c([H])c(OC([H])([H])C([H])([H])C([H])([H])C([H])(c3c([H])c(F)c([H])c(N([H])C(=O)C([H])(c4c([H])c([H])c([H])c(N([H])C(=O)N5C([H])([H])C([H])([H])C([H])([H])C([H])(n6nc(-c7c([H])c([H])c(Oc8c([H])c([H])c(F)c([H])c8F)c([H])c7[H])c(C(=O)N([H])[H])c6N([H])[H])C5([H])[H])c4[H])C([H])([H])[H])c3[H])C([H])([H])[H])c([H])c([H])c2C1([H])[H]

>  <smiles>  (78) 
[H]c1c([H])c([H])c2c(c1[H])C([H])([H])C([H])([H])C([H])([H])C2([H])N([H])C(=O)C1([H])N(C(=O)C([H])(N([H])C(=O)C([H])(N([H])C([H])([H])[H])C([H])([H])[H])C(C([H])([H])[H])(C([H])([H])[H])C([H])([H])[H])C([H])([H])c2c([H])c(OC([H])([H])C([H])([H])C([H])([H])C([H])(c3c([H])c(F)c([H])c(N([H])C(=O)C([H])(c4c([H])c([H])c([H])c(N([H])C(=O)N5C([H])([H])C([H])([H])C([H])([H])C([H])(n6nc(-c7c([H])c([H])c(Oc8c([H])c([H])c(F)c([H])c8F)c([H])c7[H])c(C(=O)N([H])[H])c6N([H])[H])C5([H])[H])c4[H])C([H])([H])[H])c3[H])C([H])([H])[H])c([H])c([H])c2C1([H])[H]

$$$$
78:0:0
     RDKit          3D

 94102  0  0  1  0  0  0  0  0999 V2000
  -29.3530  -22.4890   20.9100 C   0  0  0  0  0  2  0  0  0  0  0  0
  -30.1700  -23.7100   21.3550 C   0  0  0  0  0  0  0  0  0  0  0  0
  -31.0970  -23.6040   22.1640 O   0  0  0  0  0  0  0  0  0  0  0  0
  -29.8530  -25.0770   20.7360 C   0  0  0  0  0  2  0  0  0  0  0  0
  -27.7520  -25.5770   22.1460 C   0  0  0  0  0  1  0  0  0  0  0  0
  -28.3640  -25.5000   20.7260 C   0  0  0  0  0  3  0  0  0  0  0  0
  -28.3510  -26.7880   20.0960 O   0  0  0  0  0  0  0  0  0  0  0  0
  -24.5490  -31.8850   23.2220 C   0  0  0  0  0  0  0  0  0  0  0  0
  -27.1660  -27.4820   20.0970 C   0  0  0  0  0  0  0  0  0  0  0  0
  -23.3260  -30.4880   21.5870 C   0  0  0  0  0  3  0  0  0  0  0  0
  -24.7630  -28.9550   20.1450 C   0  0  0  0  0  0  0  0  0  0  0  0
  -25.8460  -30.8590   21.3620 C   0  0  0  0  0  2  0  0  0  0  0  0
  -25.9250  -29.4920   20.7140 C   0  0  0  0  0  0  0  0  0  0  0  0
  -27.1320  -28.7640   20.6800 C   0  0  0  0  0  3  0  0  0  0  0  0
  -25.9930  -26.9450   19.5300 C   0  0  0  0  0  3  0  0  0  0  0  0
  -24.7910  -27.6790   19.5500 C   0  0  0  0  0  3  0  0  0  0  0  0
  -23.5210  -29.8130   20.2040 C   0  0  0  0  0  2  0  0  0  0  0  0
  -24.5930  -31.0910   22.1160 N   0  0  0  0  0  0  0  0  0  0  0  0
  -23.4750  -32.1570   23.7720 O   0  0  0  0  0  0  0  0  0  0  0  0
  -22.6830  -29.4650   22.5510 C   0  0  0  0  0  0  0  0  0  0  0  0
  -21.3580  -29.2890   22.4360 N   0  0  0  0  0  0  0  0  0  0  0  0
  -23.3720  -28.8360   23.3600 O   0  0  0  0  0  0  0  0  0  0  0  0
  -20.8640  -29.8460   21.7530 H   0  0  0  0  0  0  0  0  0  0  0  0
  -17.9810  -28.1070   22.9520 C   0  0  0  0  0  0  0  0  0  0  0  0
  -20.5430  -28.3530   23.2100 C   0  0  0  0  0  3  0  0  0  0  0  0
  -20.6370  -26.9230   22.6310 C   0  0  0  0  0  2  0  0  0  0  0  0
  -19.5280  -26.6080   21.6220 C   0  0  0  0  0  2  0  0  0  0  0  0
  -18.1500  -26.7570   22.2760 C   0  0  0  0  0  2  0  0  0  0  0  0
  -19.1060  -28.8640   23.3770 C   0  0  0  0  0  0  0  0  0  0  0  0
  -18.8970  -30.1290   23.9690 C   0  0  0  0  0  3  0  0  0  0  0  0
  -17.5950  -30.6350   24.1450 C   0  0  0  0  0  3  0  0  0  0  0  0
  -16.4850  -29.8750   23.7360 C   0  0  0  0  0  3  0  0  0  0  0  0
  -16.6790  -28.6150   23.1430 C   0  0  0  0  0  3  0  0  0  0  0  0
  -25.8440  -32.5110   23.8330 C   0  0  0  0  0  3  0  0  0  0  0  0
  -25.5430  -33.9090   24.1650 N   0  0  0  0  0  0  0  0  0  0  0  0
  -25.8850  -34.9600   23.4110 C   0  0  0  0  0  0  0  0  0  0  0  0
  -26.5590  -34.8540   22.3810 O   0  0  0  0  0  0  0  0  0  0  0  0
  -24.9430  -34.0670   24.9630 H   0  0  0  0  0  0  0  0  0  0  0  0
  -24.1750  -36.7710   23.0460 C   0  0  0  0  0  1  0  0  0  0  0  0
  -25.4030  -36.3510   23.8690 C   0  0  0  0  0  3  0  0  0  0  0  0
  -27.5370  -37.2110   24.7290 C   0  0  0  0  0  1  0  0  0  0  0  0
  -26.4450  -37.3960   23.7750 N   0  0  0  0  0  0  0  0  0  0  0  0
  -26.0450  -38.3190   23.9250 H   0  0  0  0  0  0  0  0  0  0  0  0
  -26.3720  -31.7330   25.1010 C   0  0  1  0  0  0  0  0  0  0  0  0
  -25.2910  -31.4950   26.1800 C   0  0  0  0  0  1  0  0  0  0  0  0
  -26.9470  -30.3550   24.6970 C   0  0  0  0  0  1  0  0  0  0  0  0
  -27.5310  -32.5220   25.7550 C   0  0  0  0  0  1  0  0  0  0  0  0
  -29.4730  -21.2540   21.8390 C   0  0  0  0  0  2  0  0  0  0  0  0
  -30.7640  -20.4220   21.6690 C   0  0  0  0  0  2  0  0  0  0  0  0
  -30.6080  -19.5020   19.3100 C   0  0  0  0  0  3  0  0  0  0  0  0
  -30.2250  -17.1310   18.8980 C   0  0  0  0  0  3  0  0  0  0  0  0
  -30.3810  -17.9530   21.1860 C   0  0  0  0  0  3  0  0  0  0  0  0
  -30.4070  -18.4410   18.4100 C   0  0  0  0  0  0  0  0  0  0  0  0
  -30.5860  -19.2660   20.6990 C   0  0  0  0  0  0  0  0  0  0  0  0
  -30.2210  -16.8730   20.2910 C   0  0  0  0  0  0  0  0  0  0  0  0
  -30.3480  -18.7120   16.9210 C   0  0  0  0  0  1  0  0  0  0  0  0
  -30.6910  -14.4790   20.3350 C   0  0  0  0  0  0  0  0  0  0  0  0
  -30.3480  -12.3270   19.2230 C   0  0  0  0  0  2  0  0  0  0  0  0
  -29.3970  -12.5430   18.0270 C   0  0  0  0  0  2  0  0  0  0  0  0
  -27.9310  -12.4060   18.4720 C   0  0  0  0  0  2  0  0  0  0  0  0
  -27.6040  -13.2520   19.7330 C   0  0  0  0  0  3  0  0  0  0  0  0
  -28.6700  -13.0430   20.8340 C   0  0  0  0  0  2  0  0  0  0  0  0
  -29.9960  -13.3150   20.2530 N   0  0  0  0  0  0  0  0  0  0  0  0
  -31.8310  -14.6150   19.8850 O   0  0  0  0  0  0  0  0  0  0  0  0
  -30.0140  -15.5510   20.7830 N   0  0  0  0  0  0  0  0  0  0  0  0
  -29.1410  -15.3680   21.2580 H   0  0  0  0  0  0  0  0  0  0  0  0
  -25.2030  -13.8530   20.4540 C   0  0  0  0  0  0  0  0  0  0  0  0
  -24.1410  -13.0770   20.8360 C   0  0  0  0  0  0  0  0  0  0  0  0
  -24.6110  -11.7290   20.8110 C   0  0  0  0  0  0  0  0  0  0  0  0
  -26.2530  -12.9770   20.2230 N   0  0  0  0  0  0  0  0  0  0  0  0
  -25.9000  -11.6950   20.5000 N   0  0  0  0  0  0  0  0  0  0  0  0
  -23.8930  -10.4630   21.0130 C   0  0  0  0  0  0  0  0  0  0  0  0
  -24.3390   -9.4990   21.9430 C   0  0  0  0  0  3  0  0  0  0  0  0
  -23.6210   -8.2980   22.1290 C   0  0  0  0  0  3  0  0  0  0  0  0
  -22.4430   -8.0520   21.3850 C   0  0  0  0  0  0  0  0  0  0  0  0
  -22.0150   -9.0050   20.4440 C   0  0  0  0  0  3  0  0  0  0  0  0
  -22.7330  -10.1980   20.2560 C   0  0  0  0  0  3  0  0  0  0  0  0
  -21.6910   -6.9050   21.4850 O   0  0  0  0  0  0  0  0  0  0  0  0
  -21.6670   -6.1600   22.6360 C   0  0  0  0  0  0  0  0  0  0  0  0
  -21.2610   -6.7090   23.8720 C   0  0  0  0  0  3  0  0  0  0  0  0
  -21.1820   -5.8900   25.0160 C   0  0  0  0  0  3  0  0  0  0  0  0
  -21.4980   -4.5210   24.9260 C   0  0  0  0  0  0  0  0  0  0  0  0
  -21.8960   -3.9700   23.6970 C   0  0  0  0  0  3  0  0  0  0  0  0
  -21.9780   -4.7870   22.5540 C   0  0  0  0  0  0  0  0  0  0  0  0
  -22.3420   -4.2460   21.3670 F   0  0  0  0  0  0  0  0  0  0  0  0
  -21.4150   -3.7310   26.0230 F   0  0  0  0  0  0  0  0  0  0  0  0
  -22.7430  -13.5500   21.1100 C   0  0  0  0  0  0  0  0  0  0  0  0
  -22.0200  -12.8540   21.9820 N   0  0  0  0  0  0  0  0  0  0  0  0
  -22.2970  -14.5700   20.5880 O   0  0  0  0  0  0  0  0  0  0  0  0
  -22.3920  -12.0290   22.4290 H   0  0  0  0  0  0  0  0  0  0  0  0
  -21.0810  -13.1510   22.2090 H   0  0  0  0  0  0  0  0  0  0  0  0
  -25.3570  -15.2220   20.2660 N   0  0  0  0  0  0  0  0  0  0  0  0
  -24.5850  -15.8700   20.3840 H   0  0  0  0  0  0  0  0  0  0  0  0
  -26.1990  -15.6670   19.9220 H   0  0  0  0  0  0  0  0  0  0  0  0
  1  2  1  0
  1 48  1  0
  2  3  2  0
  4  2  1  0
  6  4  1  0
  6  5  1  0
  7  9  1  0
  7  6  1  0
  8 19  2  0
  9 14  1  0
 10 18  1  0
 10 20  1  0
 11 17  1  0
 11 13  1  0
 12 18  1  0
 13 12  1  0
 14 13  2  0
 15 16  1  0
 15  9  2  0
 16 11  2  0
 17 10  1  0
 18  8  1  0
 20 22  2  0
 21 20  1  0
 23 21  1  0
 24 33  2  0
 24 29  1  0
 25 21  1  0
 25 29  1  0
 26 25  1  0
 27 28  1  0
 27 26  1  0
 28 24  1  0
 29 30  2  0
 30 31  1  0
 32 31  2  0
 33 32  1  0
 34  8  1  0
 34 35  1  0
 34 44  1  0
 35 38  1  0
 36 40  1  0
 36 35  1  0
 37 36  2  0
 40 39  1  0
 42 40  1  0
 42 43  1  0
 42 41  1  0
 44 47  1  1
 44 45  1  0
 46 44  1  0
 49 48  1  0
 50 54  1  0
 51 55  2  0
 53 51  1  0
 53 50  2  0
 54 52  2  0
 54 49  1  0
 55 65  1  0
 55 52  1  0
 56 53  1  0
 57 65  1  0
 58 63  1  0
 59 60  1  0
 59 58  1  0
 61 60  1  0
 61 70  1  0
 61 62  1  0
 63 57  1  0
 63 62  1  0
 64 57  2  0
 65 66  1  0
 67 68  2  0
 68 87  1  0
 69 68  1  0
 69 72  1  0
 70 67  1  0
 70 71  1  0
 71 69  2  0
 72 73  1  0
 73 74  2  0
 75 78  1  0
 75 74  1  0
 76 75  2  0
 77 76  1  0
 77 72  2  0
 78 79  1  0
 79 80  1  0
 80 81  2  0
 82 81  1  0
 82 86  1  0
 83 82  2  0
 84 79  2  0
 84 83  1  0
 85 84  1  0
 87 88  1  0
 88 91  1  0
 88 90  1  0
 89 87  2  0
 92 93  1  0
 92 67  1  0
 94 92  1  0
M  ISO  4   6 101   7 101  57 100  65 100
M  END
>  <TORSDO>  (79) 
F 22

>  <SCORE>  (79) 
-13.079

>  <name>  (79) 
78

>  <ligand_id>  (79) 
78

>  <original_smiles>  (79) 
[H]c1c([H])c([H])c2c(c1[H])C([H])([H])C([H])([H])C([H])([H])C2([H])N([H])C(=O)C1([H])N(C(=O)C([H])(N([H])C(=O)C([H])(N([H])C([H])([H])[H])C([H])([H])[H])C(C([H])([H])[H])(C([H])([H])[H])C([H])([H])[H])C([H])([H])c2c([H])c(OC([H])(C([H])([H])[H])C([H])([H])C(=O)C([H])([H])C([H])([H])C([H])([H])c3c([H])c(N([H])C(=O)N4C([H])([H])C([H])([H])C([H])([H])C([H])(n5nc(-c6c([H])c([H])c(Oc7c([H])c([H])c(F)c([H])c7F)c([H])c6[H])c(C(=O)N([H])[H])c5N([H])[H])C4([H])[H])c([H])c(C([H])([H])[H])c3[H])c([H])c([H])c2C1([H])[H]

>  <smiles>  (79) 
[H]c1c([H])c([H])c2c(c1[H])C([H])([H])C([H])([H])C([H])([H])C2([H])N([H])C(=O)C1([H])N(C(=O)C([H])(N([H])C(=O)C([H])(N([H])C([H])([H])[H])C([H])([H])[H])C(C([H])([H])[H])(C([H])([H])[H])C([H])([H])[H])C([H])([H])c2c([H])c(OC([H])(C([H])([H])[H])C([H])([H])C(=O)C([H])([H])C([H])([H])C([H])([H])c3c([H])c(N([H])C(=O)N4C([H])([H])C([H])([H])C([H])([H])C([H])(n5nc(-c6c([H])c([H])c(Oc7c([H])c([H])c(F)c([H])c7F)c([H])c6[H])c(C(=O)N([H])[H])c5N([H])[H])C4([H])[H])c([H])c(C([H])([H])[H])c3[H])c([H])c([H])c2C1([H])[H]

$$$$
79:0:0
     RDKit          3D

 96104  0  0  1  0  0  0  0  0999 V2000
  -29.9240  -18.3740   21.6640 C   0  0  0  0  0  3  0  0  0  0  0  0
  -31.4490  -17.6660   19.4160 C   0  0  0  0  0  3  0  0  0  0  0  0
  -30.1660  -17.0170   21.3910 C   0  0  0  0  0  0  0  0  0  0  0  0
  -30.4230  -19.3940   20.8400 C   0  0  0  0  0  0  0  0  0  0  0  0
  -30.9530  -16.6250   20.2770 C   0  0  0  0  0  0  0  0  0  0  0  0
  -31.1620  -19.0630   19.6710 C   0  0  0  0  0  0  0  0  0  0  0  0
  -29.5400  -15.9940   22.3330 C   0  0  0  0  0  1  0  0  0  0  0  0
  -31.7630  -14.2010   19.5360 C   0  0  0  0  0  0  0  0  0  0  0  0
  -31.4090  -11.8840   18.6670 C   0  0  0  0  0  2  0  0  0  0  0  0
  -30.3600  -11.9480   17.5310 C   0  0  0  0  0  2  0  0  0  0  0  0
  -28.9150  -11.9450   18.0800 C   0  0  0  0  0  2  0  0  0  0  0  0
  -28.7190  -12.9360   19.2550 C   0  0  0  0  0  3  0  0  0  0  0  0
  -29.8470  -12.7400   20.2930 C   0  0  0  0  0  2  0  0  0  0  0  0
  -31.1320  -12.9870   19.6040 N   0  0  0  0  0  0  0  0  0  0  0  0
  -32.8370  -14.3630   18.9420 O   0  0  0  0  0  0  0  0  0  0  0  0
  -31.0290  -15.1810   20.1330 N   0  0  0  0  0  0  0  0  0  0  0  0
  -30.2900  -14.7320   20.6480 H   0  0  0  0  0  0  0  0  0  0  0  0
  -26.5180  -13.8190   20.2650 C   0  0  0  0  0  0  0  0  0  0  0  0
  -25.3860  -13.1800   20.6950 C   0  0  0  0  0  0  0  0  0  0  0  0
  -25.6390  -11.7830   20.5320 C   0  0  0  0  0  0  0  0  0  0  0  0
  -27.3920  -12.8210   19.8610 N   0  0  0  0  0  0  0  0  0  0  0  0
  -26.8710  -11.5870   20.0790 N   0  0  0  0  0  0  0  0  0  0  0  0
  -24.7610  -10.6240   20.7280 C   0  0  0  0  0  0  0  0  0  0  0  0
  -25.0360   -9.6480   21.7110 C   0  0  0  0  0  3  0  0  0  0  0  0
  -24.1650   -8.5520   21.8950 C   0  0  0  0  0  3  0  0  0  0  0  0
  -23.0050   -8.4260   21.0950 C   0  0  0  0  0  0  0  0  0  0  0  0
  -22.7460   -9.3890   20.1050 C   0  0  0  0  0  3  0  0  0  0  0  0
  -23.6150  -10.4770   19.9200 C   0  0  0  0  0  3  0  0  0  0  0  0
  -22.1160   -7.3810   21.1820 O   0  0  0  0  0  0  0  0  0  0  0  0
  -21.7870   -6.8170   22.3880 C   0  0  0  0  0  0  0  0  0  0  0  0
  -21.1980   -7.5690   23.4270 C   0  0  0  0  0  3  0  0  0  0  0  0
  -20.8150   -6.9340   24.6250 C   0  0  0  0  0  3  0  0  0  0  0  0
  -21.0040   -5.5490   24.7820 C   0  0  0  0  0  0  0  0  0  0  0  0
  -21.5840   -4.7960   23.7440 C   0  0  0  0  0  3  0  0  0  0  0  0
  -21.9730   -5.4300   22.5500 C   0  0  0  0  0  0  0  0  0  0  0  0
  -22.5100   -4.6970   21.5470 F   0  0  0  0  0  0  0  0  0  0  0  0
  -20.6290   -4.9380   25.9290 F   0  0  0  0  0  0  0  0  0  0  0  0
  -24.1080  -13.8270   21.1490 C   0  0  0  0  0  0  0  0  0  0  0  0
  -23.3850  -13.1870   22.0620 N   0  0  0  0  0  0  0  0  0  0  0  0
  -23.7670  -14.9320   20.7310 O   0  0  0  0  0  0  0  0  0  0  0  0
  -23.6730  -12.2900   22.4230 H   0  0  0  0  0  0  0  0  0  0  0  0
  -22.5310  -13.6030   22.4060 H   0  0  0  0  0  0  0  0  0  0  0  0
  -26.8700  -15.1620   20.1710 N   0  0  0  0  0  0  0  0  0  0  0  0
  -26.2380  -15.9000   20.4600 H   0  0  0  0  0  0  0  0  0  0  0  0
  -27.7610  -15.5120   19.8450 H   0  0  0  0  0  0  0  0  0  0  0  0
  -30.1580  -20.8290   21.3000 C   0  0  0  0  0  2  0  0  0  0  0  0
  -31.1870  -23.0370   22.0340 C   0  0  0  0  0  1  0  0  0  0  0  0
  -31.4110  -21.5330   21.8340 C   0  0  0  0  0  2  0  0  0  0  0  0
  -31.6720  -20.0920   18.8740 O   0  0  0  0  0  0  0  0  0  0  0  0
  -30.7510  -20.9630   18.1530 C   0  0  0  0  0  2  0  0  0  0  0  0
  -31.1730  -22.4840   17.9550 C   0  0  0  0  0  3  0  0  0  0  0  0
  -33.1920  -21.8000   16.4580 C   0  0  0  0  0  1  0  0  0  0  0  0
  -32.6830  -22.6300   17.6470 C   0  0  0  0  0  2  0  0  0  0  0  0
  -30.7120  -23.6020   18.9950 C   0  0  0  0  0  2  0  0  0  0  0  0
  -29.6900  -24.6910   18.4760 C   0  0  0  0  0  2  0  0  0  0  0  0
  -29.6280  -25.9870   19.1700 O   0  0  0  0  0  0  0  0  0  0  0  0
  -25.3890  -30.3120   23.0370 C   0  0  0  0  0  0  0  0  0  0  0  0
  -28.4230  -26.7030   19.2210 C   0  0  0  0  0  0  0  0  0  0  0  0
  -24.3290  -29.1820   21.1130 C   0  0  0  0  0  3  0  0  0  0  0  0
  -25.9240  -28.0700   19.4560 C   0  0  0  0  0  0  0  0  0  0  0  0
  -26.8340  -29.7300   21.0830 C   0  0  0  0  0  2  0  0  0  0  0  0
  -27.0340  -28.5210   20.1810 C   0  0  0  0  0  0  0  0  0  0  0  0
  -28.2800  -27.8440   20.0650 C   0  0  0  0  0  3  0  0  0  0  0  0
  -27.2890  -26.3150   18.4670 C   0  0  0  0  0  3  0  0  0  0  0  0
  -26.0520  -26.9730   18.5950 C   0  0  0  0  0  3  0  0  0  0  0  0
  -24.6190  -28.8160   19.6330 C   0  0  0  0  0  2  0  0  0  0  0  0
  -25.5330  -29.7490   21.8030 N   0  0  0  0  0  0  0  0  0  0  0  0
  -24.2780  -30.3940   23.5800 O   0  0  0  0  0  0  0  0  0  0  0  0
  -23.7400  -27.9460   21.8300 C   0  0  0  0  0  0  0  0  0  0  0  0
  -22.4520  -27.6560   21.5700 N   0  0  0  0  0  0  0  0  0  0  0  0
  -24.4370  -27.2560   22.5780 O   0  0  0  0  0  0  0  0  0  0  0  0
  -21.9480  -28.2750   20.9500 H   0  0  0  0  0  0  0  0  0  0  0  0
  -19.2310  -26.0130   21.5350 C   0  0  0  0  0  0  0  0  0  0  0  0
  -21.7020  -26.5180   22.1020 C   0  0  0  0  0  3  0  0  0  0  0  0
  -22.0370  -25.2210   21.3300 C   0  0  0  0  0  2  0  0  0  0  0  0
  -21.0740  -24.9440   20.1720 C   0  0  0  0  0  2  0  0  0  0  0  0
  -19.6370  -24.8220   20.6840 C   0  0  0  0  0  2  0  0  0  0  0  0
  -20.2010  -26.8190   22.1860 C   0  0  0  0  0  0  0  0  0  0  0  0
  -19.7710  -27.9360   22.9370 C   0  0  0  0  0  3  0  0  0  0  0  0
  -18.4030  -28.2490   23.0410 C   0  0  0  0  0  3  0  0  0  0  0  0
  -17.4460  -27.4390   22.4040 C   0  0  0  0  0  3  0  0  0  0  0  0
  -17.8600  -26.3220   21.6580 C   0  0  0  0  0  3  0  0  0  0  0  0
  -26.6080  -30.9010   23.8120 C   0  0  0  0  0  3  0  0  0  0  0  0
  -26.2190  -32.2300   24.3060 N   0  0  0  0  0  0  0  0  0  0  0  0
  -26.5890  -33.3880   23.7430 C   0  0  0  0  0  0  0  0  0  0  0  0
  -27.3610  -33.4470   22.7830 O   0  0  0  0  0  0  0  0  0  0  0  0
  -25.5470  -32.2530   25.0580 H   0  0  0  0  0  0  0  0  0  0  0  0
  -24.8550  -35.1840   23.4590 C   0  0  0  0  0  1  0  0  0  0  0  0
  -26.0110  -34.6850   24.3400 C   0  0  0  0  0  3  0  0  0  0  0  0
  -28.0060  -35.4690   25.5370 C   0  0  0  0  0  1  0  0  0  0  0  0
  -27.0160  -35.7590   24.5030 N   0  0  0  0  0  0  0  0  0  0  0  0
  -26.5690  -36.6430   24.7290 H   0  0  0  0  0  0  0  0  0  0  0  0
  -27.0850  -29.9850   25.0040 C   0  0  1  0  0  0  0  0  0  0  0  0
  -25.9470  -29.5760   25.9680 C   0  0  0  0  0  1  0  0  0  0  0  0
  -27.7380  -28.6890   24.4700 C   0  0  0  0  0  1  0  0  0  0  0  0
  -28.1730  -30.7170   25.8240 C   0  0  0  0  0  1  0  0  0  0  0  0
  2  6  2  0
  2  5  1  0
  3  1  1  0
  3  7  1  0
  4 46  1  0
  4  1  2  0
  5  3  2  0
  6  4  1  0
  8 14  1  0
  8 16  1  0
  9 14  1  0
 10 11  1  0
 10  9  1  0
 12 11  1  0
 12 21  1  0
 12 13  1  0
 14 13  1  0
 15  8  2  0
 16  5  1  0
 16 17  1  0
 18 19  2  0
 19 38  1  0
 20 19  1  0
 20 23  1  0
 21 22  1  0
 21 18  1  0
 22 20  2  0
 23 24  1  0
 24 25  2  0
 26 29  1  0
 26 25  1  0
 27 26  2  0
 28 27  1  0
 28 23  2  0
 29 30  1  0
 30 35  2  0
 30 31  1  0
 31 32  2  0
 32 33  1  0
 33 37  1  0
 34 33  2  0
 35 34  1  0
 36 35  1  0
 38 39  1  0
 39 42  1  0
 39 41  1  0
 40 38  2  0
 43 18  1  0
 43 44  1  0
 45 43  1  0
 46 48  1  0
 48 47  1  0
 49  6  1  0
 50 49  1  0
 51 53  1  0
 51 50  1  0
 51 54  1  0
 52 53  1  0
 55 54  1  0
 55 56  1  0
 56 58  1  0
 57 68  2  0
 58 63  1  0
 59 67  1  0
 59 69  1  0
 60 66  1  0
 60 62  1  0
 61 67  1  0
 62 61  1  0
 63 62  2  0
 64 65  1  0
 64 58  2  0
 65 60  2  0
 66 59  1  0
 67 57  1  0
 69 71  2  0
 70 69  1  0
 72 70  1  0
 73 82  2  0
 73 78  1  0
 74 70  1  0
 74 78  1  0
 75 74  1  0
 76 77  1  0
 76 75  1  0
 77 73  1  0
 78 79  2  0
 79 80  1  0
 81 80  2  0
 82 81  1  0
 83 57  1  0
 83 84  1  0
 83 93  1  0
 84 87  1  0
 85 84  1  0
 85 89  1  0
 86 85  2  0
 89 88  1  0
 89 91  1  0
 91 92  1  0
 91 90  1  0
 93 96  1  1
 93 94  1  0
 95 93  1  0
M  ISO  4   8 100  16 100  55 101  56 101
M  END
>  <TORSDO>  (80) 
F 24

>  <SCORE>  (80) 
-6.936

>  <name>  (80) 
79

>  <ligand_id>  (80) 
79

>  <original_smiles>  (80) 
[H]c1c([H])c([H])c2c(c1[H])C([H])([H])C([H])([H])C([H])([H])C2([H])N([H])C(=O)C1([H])N(C(=O)C([H])(N([H])C(=O)C([H])(N([H])C([H])([H])[H])C([H])([H])[H])C(C([H])([H])[H])(C([H])([H])[H])C([H])([H])[H])C([H])([H])c2c([H])c(OC([H])([H])C([H])([H])C([H])(C([H])([H])Oc3c([H])c(N([H])C(=O)N4C([H])([H])C([H])([H])C([H])([H])C([H])(n5nc(-c6c([H])c([H])c(Oc7c([H])c([H])c(F)c([H])c7F)c([H])c6[H])c(C(=O)N([H])[H])c5N([H])[H])C4([H])[H])c(C([H])([H])[H])c([H])c3C([H])([H])C([H])([H])C([H])([H])[H])C([H])([H])C([H])([H])[H])c([H])c([H])c2C1([H])[H]

>  <smiles>  (80) 
[H]c1c([H])c([H])c2c(c1[H])C([H])([H])C([H])([H])C([H])([H])C2([H])N([H])C(=O)C1([H])N(C(=O)C([H])(N([H])C(=O)C([H])(N([H])C([H])([H])[H])C([H])([H])[H])C(C([H])([H])[H])(C([H])([H])[H])C([H])([H])[H])C([H])([H])c2c([H])c(OC([H])([H])C([H])([H])C([H])(C([H])([H])Oc3c([H])c(N([H])C(=O)N4C([H])([H])C([H])([H])C([H])([H])C([H])(n5nc(-c6c([H])c([H])c(Oc7c([H])c([H])c(F)c([H])c7F)c([H])c6[H])c(C(=O)N([H])[H])c5N([H])[H])C4([H])[H])c(C([H])([H])[H])c([H])c3C([H])([H])C([H])([H])C([H])([H])[H])C([H])([H])C([H])([H])[H])c([H])c([H])c2C1([H])[H]

$$$$
80:0:0
     RDKit          3D

 93101  0  0  1  0  0  0  0  0999 V2000
  -30.0940  -20.4900   20.7130 C   0  0  0  0  0  2  0  0  0  0  0  0
  -27.6820  -21.2930   21.3430 C   0  0  0  0  0  1  0  0  0  0  0  0
  -29.1300  -21.7060   21.0380 C   0  0  0  0  0  3  0  0  0  0  0  0
  -29.1960  -22.9200   20.0390 C   0  0  0  0  0  3  0  0  0  0  0  0
  -28.4810  -24.2570   20.4720 C   0  0  0  0  0  3  0  0  0  0  0  0
  -28.7670  -25.4930   19.5610 C   0  0  0  0  0  2  0  0  0  0  0  0
  -28.5830  -26.7910   20.1790 O   0  0  0  0  0  0  0  0  0  0  0  0
  -24.6910  -31.8680   23.3150 C   0  0  0  0  0  0  0  0  0  0  0  0
  -27.3840  -27.4930   20.1370 C   0  0  0  0  0  0  0  0  0  0  0  0
  -23.5100  -30.5130   21.6170 C   0  0  0  0  0  3  0  0  0  0  0  0
  -24.9850  -29.0220   20.1560 C   0  0  0  0  0  0  0  0  0  0  0  0
  -26.0370  -30.8760   21.4620 C   0  0  0  0  0  2  0  0  0  0  0  0
  -26.1310  -29.5230   20.7800 C   0  0  0  0  0  0  0  0  0  0  0  0
  -27.3280  -28.7640   20.7680 C   0  0  0  0  0  3  0  0  0  0  0  0
  -26.2140  -27.0130   19.5070 C   0  0  0  0  0  3  0  0  0  0  0  0
  -25.0240  -27.7710   19.5110 C   0  0  0  0  0  3  0  0  0  0  0  0
  -23.7370  -29.8780   20.2170 C   0  0  0  0  0  2  0  0  0  0  0  0
  -24.7630  -31.0990   22.1920 N   0  0  0  0  0  0  0  0  0  0  0  0
  -23.6010  -32.1200   23.8500 O   0  0  0  0  0  0  0  0  0  0  0  0
  -22.8470  -29.4630   22.5370 C   0  0  0  0  0  0  0  0  0  0  0  0
  -21.5220  -29.2940   22.4000 N   0  0  0  0  0  0  0  0  0  0  0  0
  -23.5230  -28.8050   23.3330 O   0  0  0  0  0  0  0  0  0  0  0  0
  -21.0430  -29.8750   21.7270 H   0  0  0  0  0  0  0  0  0  0  0  0
  -18.1310  -28.1210   22.8530 C   0  0  0  0  0  0  0  0  0  0  0  0
  -20.6930  -28.3340   23.1310 C   0  0  0  0  0  3  0  0  0  0  0  0
  -20.7780  -26.9310   22.4890 C   0  0  0  0  0  2  0  0  0  0  0  0
  -19.6700  -26.6660   21.4660 C   0  0  0  0  0  2  0  0  0  0  0  0
  -18.2900  -26.8000   22.1180 C   0  0  0  0  0  2  0  0  0  0  0  0
  -19.2610  -28.8490   23.3110 C   0  0  0  0  0  0  0  0  0  0  0  0
  -19.0600  -30.0880   23.9580 C   0  0  0  0  0  3  0  0  0  0  0  0
  -17.7620  -30.5980   24.1510 C   0  0  0  0  0  3  0  0  0  0  0  0
  -16.6470  -29.8650   23.7080 C   0  0  0  0  0  3  0  0  0  0  0  0
  -16.8330  -28.6290   23.0630 C   0  0  0  0  0  3  0  0  0  0  0  0
  -25.9660  -32.4810   23.9720 C   0  0  0  0  0  3  0  0  0  0  0  0
  -25.6470  -33.8640   24.3460 N   0  0  0  0  0  0  0  0  0  0  0  0
  -25.9900  -34.9450   23.6320 C   0  0  0  0  0  0  0  0  0  0  0  0
  -26.6780  -34.8820   22.6100 O   0  0  0  0  0  0  0  0  0  0  0  0
  -25.0390  -33.9870   25.1420 H   0  0  0  0  0  0  0  0  0  0  0  0
  -24.2620  -36.7420   23.3160 C   0  0  0  0  0  1  0  0  0  0  0  0
  -25.4920  -36.3130   24.1320 C   0  0  0  0  0  3  0  0  0  0  0  0
  -27.6090  -37.1700   25.0280 C   0  0  0  0  0  1  0  0  0  0  0  0
  -26.5230  -37.3720   24.0730 N   0  0  0  0  0  0  0  0  0  0  0  0
  -26.1140  -38.2850   24.2490 H   0  0  0  0  0  0  0  0  0  0  0  0
  -26.4750  -31.6670   25.2260 C   0  0  1  0  0  0  0  0  0  0  0  0
  -25.3700  -31.3880   26.2720 C   0  0  0  0  0  1  0  0  0  0  0  0
  -27.0690  -30.3080   24.7880 C   0  0  0  0  0  1  0  0  0  0  0  0
  -27.6170  -32.4430   25.9240 C   0  0  0  0  0  1  0  0  0  0  0  0
  -29.5300  -19.0260   20.4620 C   0  0  0  0  0  2  0  0  0  0  0  0
  -31.4240  -16.2670   18.3990 C   0  0  0  0  0  3  0  0  0  0  0  0
  -31.6610  -16.9840   17.2180 C   0  0  0  0  0  3  0  0  0  0  0  0
  -30.4960  -18.8740   18.1720 C   0  0  0  0  0  3  0  0  0  0  0  0
  -30.2760  -18.1900   19.3950 C   0  0  0  0  0  0  0  0  0  0  0  0
  -30.7220  -16.8160   19.5130 C   0  0  0  0  0  0  0  0  0  0  0  0
  -31.1840  -18.2910   17.0990 C   0  0  0  0  0  0  0  0  0  0  0  0
  -31.3860  -18.9850   15.9540 F   0  0  0  0  0  0  0  0  0  0  0  0
  -31.1330  -14.7440   20.8320 C   0  0  0  0  0  0  0  0  0  0  0  0
  -30.8670  -12.4730   19.9320 C   0  0  0  0  0  2  0  0  0  0  0  0
  -30.0480  -12.5520   18.6250 C   0  0  0  0  0  2  0  0  0  0  0  0
  -28.5440  -12.4680   18.9310 C   0  0  0  0  0  2  0  0  0  0  0  0
  -28.1010  -13.4200   20.0750 C   0  0  0  0  0  3  0  0  0  0  0  0
  -29.0580  -13.3590   21.2890 C   0  0  0  0  0  2  0  0  0  0  0  0
  -30.4210  -13.5810   20.7970 N   0  0  0  0  0  0  0  0  0  0  0  0
  -32.3610  -14.7490   20.7180 O   0  0  0  0  0  0  0  0  0  0  0  0
  -30.4520  -15.9130   20.6260 N   0  0  0  0  0  0  0  0  0  0  0  0
  -29.5140  -15.9520   20.9980 H   0  0  0  0  0  0  0  0  0  0  0  0
  -25.6720  -14.0930   20.5630 C   0  0  0  0  0  0  0  0  0  0  0  0
  -24.5580  -13.3580   20.8630 C   0  0  0  0  0  0  0  0  0  0  0  0
  -24.9880  -11.9960   20.9260 C   0  0  0  0  0  0  0  0  0  0  0  0
  -26.7110  -13.1840   20.4570 N   0  0  0  0  0  0  0  0  0  0  0  0
  -26.3010  -11.9190   20.7380 N   0  0  0  0  0  0  0  0  0  0  0  0
  -24.2160  -10.7580   21.0940 C   0  0  0  0  0  0  0  0  0  0  0  0
  -24.5560   -9.8020   22.0770 C   0  0  0  0  0  3  0  0  0  0  0  0
  -23.7860   -8.6290   22.2320 C   0  0  0  0  0  3  0  0  0  0  0  0
  -22.6620   -8.4040   21.4020 C   0  0  0  0  0  0  0  0  0  0  0  0
  -22.3430   -9.3460   20.4090 C   0  0  0  0  0  3  0  0  0  0  0  0
  -23.1130  -10.5100   20.2520 C   0  0  0  0  0  3  0  0  0  0  0  0
  -21.8710   -7.2820   21.4650 O   0  0  0  0  0  0  0  0  0  0  0  0
  -21.7350   -6.5610   22.6230 C   0  0  0  0  0  0  0  0  0  0  0  0
  -21.2650   -7.1490   23.8160 C   0  0  0  0  0  3  0  0  0  0  0  0
  -21.0730   -6.3570   24.9650 C   0  0  0  0  0  3  0  0  0  0  0  0
  -21.3410   -4.9750   24.9220 C   0  0  0  0  0  0  0  0  0  0  0  0
  -21.8040   -4.3850   23.7310 C   0  0  0  0  0  3  0  0  0  0  0  0
  -21.9960   -5.1760   22.5850 C   0  0  0  0  0  0  0  0  0  0  0  0
  -22.4220   -4.5980   21.4350 F   0  0  0  0  0  0  0  0  0  0  0  0
  -21.1500   -4.2110   26.0230 F   0  0  0  0  0  0  0  0  0  0  0  0
  -23.1530  -13.8740   20.9860 C   0  0  0  0  0  0  0  0  0  0  0  0
  -22.3360  -13.2340   21.8150 N   0  0  0  0  0  0  0  0  0  0  0  0
  -22.7880  -14.8820   20.3850 O   0  0  0  0  0  0  0  0  0  0  0  0
  -22.6420  -12.4170   22.3240 H   0  0  0  0  0  0  0  0  0  0  0  0
  -21.3900  -13.5630   21.9390 H   0  0  0  0  0  0  0  0  0  0  0  0
  -25.8820  -15.4520   20.3480 N   0  0  0  0  0  0  0  0  0  0  0  0
  -25.1200  -16.1230   20.3550 H   0  0  0  0  0  0  0  0  0  0  0  0
  -26.7620  -15.8610   20.0600 H   0  0  0  0  0  0  0  0  0  0  0  0
  1  3  1  0
  3  2  1  0
  4  5  2  0
  4  3  1  0
  6  7  1  0
  6  5  1  0
  8 19  2  0
  9  7  1  0
  9 14  1  0
 10 18  1  0
 10 20  1  0
 11 17  1  0
 11 13  1  0
 12 18  1  0
 13 12  1  0
 14 13  2  0
 15 16  1  0
 15  9  2  0
 16 11  2  0
 17 10  1  0
 18  8  1  0
 20 22  2  0
 21 20  1  0
 23 21  1  0
 24 33  2  0
 24 29  1  0
 25 21  1  0
 25 29  1  0
 26 25  1  0
 27 28  1  0
 27 26  1  0
 28 24  1  0
 29 30  2  0
 30 31  1  0
 32 31  2  0
 33 32  1  0
 34  8  1  0
 34 35  1  0
 34 44  1  0
 35 38  1  0
 36 40  1  0
 36 35  1  0
 37 36  2  0
 40 39  1  0
 42 40  1  0
 42 43  1  0
 42 41  1  0
 44 47  1  1
 44 45  1  0
 46 44  1  0
 48  1  1  0
 49 53  1  0
 50 49  2  0
 51 52  1  0
 52 53  2  0
 52 48  1  0
 53 64  1  0
 54 50  1  0
 54 51  2  0
 55 54  1  0
 57 62  1  0
 58 59  1  0
 58 57  1  0
 60 59  1  0
 60 69  1  0
 60 61  1  0
 62 56  1  0
 62 61  1  0
 63 56  2  0
 64 56  1  0
 64 65  1  0
 66 67  2  0
 67 68  1  0
 67 86  1  0
 68 71  1  0
 69 66  1  0
 69 70  1  0
 70 68  2  0
 71 72  1  0
 72 73  2  0
 74 77  1  0
 74 73  1  0
 75 74  2  0
 76 75  1  0
 76 71  2  0
 77 78  1  0
 78 79  1  0
 79 80  2  0
 81 80  1  0
 81 85  1  0
 82 81  2  0
 83 78  2  0
 83 82  1  0
 84 83  1  0
 86 87  1  0
 87 90  1  0
 87 89  1  0
 88 86  2  0
 91 92  1  0
 91 66  1  0
 93 91  1  0
M  ISO  4   6 101   7 101  56 100  64 100
M  END
>  <TORSDO>  (81) 
F 22

>  <SCORE>  (81) 
-12.364

>  <name>  (81) 
80

>  <ligand_id>  (81) 
80

>  <original_smiles>  (81) 
[H]c1c([H])c([H])c2c(c1[H])C([H])([H])C([H])([H])C([H])([H])C2([H])N([H])C(=O)C1([H])N(C(=O)C([H])(N([H])C(=O)C([H])(N([H])C([H])([H])[H])C([H])([H])[H])C(C([H])([H])[H])(C([H])([H])[H])C([H])([H])[H])C([H])([H])c2c([H])c(OC([H])([H])C([H])([H])C([H])([H])C([H])(C([H])([H])[H])C([H])([H])C([H])([H])c3c([H])c(F)c([H])c([H])c3N([H])C(=O)N3C([H])([H])C([H])([H])C([H])([H])C([H])(n4nc(-c5c([H])c([H])c(Oc6c([H])c([H])c(F)c([H])c6F)c([H])c5[H])c(C(=O)N([H])[H])c4N([H])[H])C3([H])[H])c([H])c([H])c2C1([H])[H]

>  <smiles>  (81) 
[H]c1c([H])c([H])c2c(c1[H])C([H])([H])C([H])([H])C([H])([H])C2([H])N([H])C(=O)C1([H])N(C(=O)C([H])(N([H])C(=O)C([H])(N([H])C([H])([H])[H])C([H])([H])[H])C(C([H])([H])[H])(C([H])([H])[H])C([H])([H])[H])C([H])([H])c2c([H])c(OC([H])([H])C([H])([H])C([H])([H])C([H])(C([H])([H])[H])C([H])([H])C([H])([H])c3c([H])c(F)c([H])c([H])c3N([H])C(=O)N3C([H])([H])C([H])([H])C([H])([H])C([H])(n4nc(-c5c([H])c([H])c(Oc6c([H])c([H])c(F)c([H])c6F)c([H])c5[H])c(C(=O)N([H])[H])c4N([H])[H])C3([H])[H])c([H])c([H])c2C1([H])[H]

$$$$
81:0:0
     RDKit          3D

 95103  0  0  1  0  0  0  0  0999 V2000
  -30.4600  -21.1640   21.7710 C   0  0  0  0  0  0  0  0  0  0  0  0
  -31.2710  -21.6450   22.6200 N   0  0  0  0  0  0  0  0  0  0  0  0
  -31.8740  -20.9220   23.0020 H   0  0  0  0  0  0  0  0  0  0  0  0
  -29.1770  -19.0380   21.3930 C   0  0  0  0  0  3  0  0  0  0  0  0
  -29.0880  -17.6490   21.2000 C   0  0  0  0  0  3  0  0  0  0  0  0
  -31.5090  -17.5140   21.0890 C   0  0  0  0  0  3  0  0  0  0  0  0
  -30.4280  -19.6970   21.4560 C   0  0  0  0  0  0  0  0  0  0  0  0
  -30.2530  -16.8740   21.0550 C   0  0  0  0  0  0  0  0  0  0  0  0
  -31.6160  -18.9200   21.2860 C   0  0  0  0  0  0  0  0  0  0  0  0
  -30.7410  -14.5950   20.1650 C   0  0  0  0  0  0  0  0  0  0  0  0
  -30.4100  -12.5090   18.8860 C   0  0  0  0  0  2  0  0  0  0  0  0
  -29.3960  -12.7540   17.7500 C   0  0  0  0  0  2  0  0  0  0  0  0
  -27.9490  -12.5860   18.2530 C   0  0  0  0  0  2  0  0  0  0  0  0
  -27.6760  -13.3630   19.5680 C   0  0  0  0  0  3  0  0  0  0  0  0
  -28.7860  -13.0680   20.6020 C   0  0  0  0  0  2  0  0  0  0  0  0
  -30.0830  -13.4180   19.9930 N   0  0  0  0  0  0  0  0  0  0  0  0
  -31.7950  -14.8710   19.5830 O   0  0  0  0  0  0  0  0  0  0  0  0
  -30.1000  -15.4640   20.9650 N   0  0  0  0  0  0  0  0  0  0  0  0
  -29.2520  -15.0890   21.3610 H   0  0  0  0  0  0  0  0  0  0  0  0
  -25.3040  -13.9260   20.3970 C   0  0  0  0  0  0  0  0  0  0  0  0
  -24.2650  -13.1330   20.8010 C   0  0  0  0  0  0  0  0  0  0  0  0
  -24.7440  -11.7880   20.7270 C   0  0  0  0  0  0  0  0  0  0  0  0
  -26.3490  -13.0650   20.1030 N   0  0  0  0  0  0  0  0  0  0  0  0
  -26.0180  -11.7730   20.3560 N   0  0  0  0  0  0  0  0  0  0  0  0
  -24.0490  -10.5110   20.9300 C   0  0  0  0  0  0  0  0  0  0  0  0
  -24.5050   -9.5590   21.8680 C   0  0  0  0  0  3  0  0  0  0  0  0
  -23.8080   -8.3450   22.0530 C   0  0  0  0  0  3  0  0  0  0  0  0
  -22.6400   -8.0750   21.2990 C   0  0  0  0  0  0  0  0  0  0  0  0
  -22.2050   -9.0170   20.3500 C   0  0  0  0  0  3  0  0  0  0  0  0
  -22.9020  -10.2230   20.1640 C   0  0  0  0  0  3  0  0  0  0  0  0
  -21.9110   -6.9150   21.3960 O   0  0  0  0  0  0  0  0  0  0  0  0
  -21.8270   -6.2150   22.5720 C   0  0  0  0  0  0  0  0  0  0  0  0
  -21.3290   -6.8040   23.7560 C   0  0  0  0  0  3  0  0  0  0  0  0
  -21.1940   -6.0280   24.9240 C   0  0  0  0  0  3  0  0  0  0  0  0
  -21.5450   -4.6650   24.9100 C   0  0  0  0  0  0  0  0  0  0  0  0
  -22.0350   -4.0760   23.7310 C   0  0  0  0  0  3  0  0  0  0  0  0
  -22.1730   -4.8490   22.5650 C   0  0  0  0  0  0  0  0  0  0  0  0
  -22.6250   -4.2720   21.4250 F   0  0  0  0  0  0  0  0  0  0  0  0
  -21.4080   -3.9160   26.0300 F   0  0  0  0  0  0  0  0  0  0  0  0
  -22.8760  -13.5830   21.1490 C   0  0  0  0  0  0  0  0  0  0  0  0
  -22.2030  -12.8640   22.0410 N   0  0  0  0  0  0  0  0  0  0  0  0
  -22.3950  -14.6070   20.6640 O   0  0  0  0  0  0  0  0  0  0  0  0
  -22.6010  -12.0330   22.4520 H   0  0  0  0  0  0  0  0  0  0  0  0
  -21.2750  -13.1530   22.3180 H   0  0  0  0  0  0  0  0  0  0  0  0
  -25.4400  -15.3020   20.2360 N   0  0  0  0  0  0  0  0  0  0  0  0
  -24.6670  -15.9420   20.3770 H   0  0  0  0  0  0  0  0  0  0  0  0
  -26.2600  -15.7520   19.8470 H   0  0  0  0  0  0  0  0  0  0  0  0
  -32.8430  -19.5590   21.3330 O   0  0  0  0  0  0  0  0  0  0  0  0
  -35.2280  -19.7550   21.1300 C   0  0  0  0  0  1  0  0  0  0  0  0
  -34.0250  -18.8170   21.0450 C   0  0  0  0  0  2  0  0  0  0  0  0
  -29.4820  -22.0990   21.0290 C   0  0  0  0  0  2  0  0  0  0  0  0
  -29.5970  -23.5990   21.4220 C   0  0  0  0  0  2  0  0  0  0  0  0
  -28.7740  -24.5640   20.5370 C   0  0  0  0  0  2  0  0  0  0  0  0
  -28.8420  -26.0280   21.0320 C   0  0  0  0  0  2  0  0  0  0  0  0
  -28.5060  -26.9290   19.9820 O   0  0  0  0  0  0  0  0  0  0  0  0
  -24.5930  -31.9730   23.2160 C   0  0  0  0  0  0  0  0  0  0  0  0
  -27.3170  -27.6060   20.1010 C   0  0  0  0  0  0  0  0  0  0  0  0
  -23.4090  -30.5540   21.5670 C   0  0  0  0  0  3  0  0  0  0  0  0
  -24.8890  -29.0450   20.1390 C   0  0  0  0  0  0  0  0  0  0  0  0
  -25.9260  -30.9630   21.3680 C   0  0  0  0  0  2  0  0  0  0  0  0
  -26.0380  -29.5930   20.7280 C   0  0  0  0  0  0  0  0  0  0  0  0
  -27.2580  -28.8800   20.7080 C   0  0  0  0  0  3  0  0  0  0  0  0
  -26.1560  -27.0620   19.5180 C   0  0  0  0  0  3  0  0  0  0  0  0
  -24.9410  -27.7760   19.5330 C   0  0  0  0  0  3  0  0  0  0  0  0
  -23.6300  -29.8820   20.1850 C   0  0  0  0  0  2  0  0  0  0  0  0
  -24.6610  -31.1780   22.1080 N   0  0  0  0  0  0  0  0  0  0  0  0
  -23.5090  -32.2200   23.7600 O   0  0  0  0  0  0  0  0  0  0  0  0
  -22.7780  -29.5140   22.5220 C   0  0  0  0  0  0  0  0  0  0  0  0
  -21.4560  -29.3140   22.3960 N   0  0  0  0  0  0  0  0  0  0  0  0
  -23.4740  -28.8930   23.3300 O   0  0  0  0  0  0  0  0  0  0  0  0
  -20.9570  -29.8700   21.7160 H   0  0  0  0  0  0  0  0  0  0  0  0
  -18.1010  -28.0670   22.8930 C   0  0  0  0  0  0  0  0  0  0  0  0
  -20.6540  -28.3570   23.1610 C   0  0  0  0  0  3  0  0  0  0  0  0
  -20.7790  -26.9340   22.5730 C   0  0  0  0  0  2  0  0  0  0  0  0
  -19.6790  -26.6030   21.5580 C   0  0  0  0  0  2  0  0  0  0  0  0
  -18.2950  -26.7250   22.2060 C   0  0  0  0  0  2  0  0  0  0  0  0
  -19.2090  -28.8410   23.3270 C   0  0  0  0  0  0  0  0  0  0  0  0
  -18.9770  -30.0990   23.9270 C   0  0  0  0  0  3  0  0  0  0  0  0
  -17.6660  -30.5840   24.0940 C   0  0  0  0  0  3  0  0  0  0  0  0
  -16.5720  -29.8060   23.6800 C   0  0  0  0  0  3  0  0  0  0  0  0
  -16.7890  -28.5490   23.0870 C   0  0  0  0  0  3  0  0  0  0  0  0
  -25.8710  -32.6200   23.8360 C   0  0  0  0  0  3  0  0  0  0  0  0
  -25.5420  -34.0130   24.1620 N   0  0  0  0  0  0  0  0  0  0  0  0
  -25.8590  -35.0670   23.3990 C   0  0  0  0  0  0  0  0  0  0  0  0
  -26.5330  -34.9710   22.3700 O   0  0  0  0  0  0  0  0  0  0  0  0
  -24.9490  -34.1590   24.9650 H   0  0  0  0  0  0  0  0  0  0  0  0
  -24.1080  -36.8330   23.0400 C   0  0  0  0  0  1  0  0  0  0  0  0
  -25.3550  -36.4500   23.8520 C   0  0  0  0  0  3  0  0  0  0  0  0
  -27.4750  -37.3680   24.6810 C   0  0  0  0  0  1  0  0  0  0  0  0
  -26.3720  -37.5160   23.7340 N   0  0  0  0  0  0  0  0  0  0  0  0
  -25.9530  -38.4290   23.8810 H   0  0  0  0  0  0  0  0  0  0  0  0
  -26.4000  -31.8560   25.1120 C   0  0  1  0  0  0  0  0  0  0  0  0
  -25.3070  -31.5930   26.1730 C   0  0  0  0  0  1  0  0  0  0  0  0
  -27.0150  -30.4930   24.7160 C   0  0  0  0  0  1  0  0  0  0  0  0
  -27.5310  -32.6730   25.7800 C   0  0  0  0  0  1  0  0  0  0  0  0
  1  2  2  0
  2  3  1  0
  4  7  1  0
  5  4  2  0
  6  9  1  0
  7  1  1  0
  8  6  2  0
  8  5  1  0
  9 48  1  0
  9  7  2  0
 10 18  1  0
 11 16  1  0
 12 13  1  0
 12 11  1  0
 14 13  1  0
 14 23  1  0
 14 15  1  0
 16 10  1  0
 16 15  1  0
 17 10  2  0
 18  8  1  0
 18 19  1  0
 20 21  2  0
 21 40  1  0
 22 21  1  0
 22 25  1  0
 23 24  1  0
 23 20  1  0
 24 22  2  0
 25 26  1  0
 26 27  2  0
 28 31  1  0
 28 27  1  0
 29 28  2  0
 30 29  1  0
 30 25  2  0
 31 32  1  0
 32 33  1  0
 33 34  2  0
 35 34  1  0
 35 39  1  0
 36 35  2  0
 37 32  2  0
 37 36  1  0
 38 37  1  0
 40 41  1  0
 41 44  1  0
 41 43  1  0
 42 40  2  0
 45 46  1  0
 45 20  1  0
 47 45  1  0
 50 49  1  0
 50 48  1  0
 51 52  1  0
 51  1  1  0
 53 54  1  0
 53 52  1  0
 55 57  1  0
 55 54  1  0
 56 67  2  0
 57 62  1  0
 58 66  1  0
 58 68  1  0
 59 65  1  0
 59 61  1  0
 60 66  1  0
 61 60  1  0
 62 61  2  0
 63 64  1  0
 63 57  2  0
 64 59  2  0
 65 58  1  0
 66 56  1  0
 68 70  2  0
 69 68  1  0
 71 69  1  0
 72 81  2  0
 72 77  1  0
 73 69  1  0
 73 77  1  0
 74 73  1  0
 75 76  1  0
 75 74  1  0
 76 72  1  0
 77 78  2  0
 78 79  1  0
 80 79  2  0
 81 80  1  0
 82 56  1  0
 82 83  1  0
 82 92  1  0
 83 86  1  0
 84 88  1  0
 84 83  1  0
 85 84  2  0
 88 87  1  0
 90 88  1  0
 90 91  1  0
 90 89  1  0
 92 95  1  1
 92 93  1  0
 94 92  1  0
M  ISO  4  10 100  18 100  54 101  55 101
M  END
>  <TORSDO>  (82) 
F 23

>  <SCORE>  (82) 
-12.265

>  <name>  (82) 
81

>  <ligand_id>  (82) 
81

>  <original_smiles>  (82) 
[H]N=C(c1c([H])c([H])c(N([H])C(=O)N2C([H])([H])C([H])([H])C([H])([H])C([H])(n3nc(-c4c([H])c([H])c(Oc5c([H])c([H])c(F)c([H])c5F)c([H])c4[H])c(C(=O)N([H])[H])c3N([H])[H])C2([H])[H])c([H])c1OC([H])([H])C([H])([H])[H])C([H])([H])C([H])([H])C([H])([H])C([H])([H])Oc1c([H])c([H])c2c(c1[H])C([H])([H])N(C(=O)C([H])(N([H])C(=O)C([H])(N([H])C([H])([H])[H])C([H])([H])[H])C(C([H])([H])[H])(C([H])([H])[H])C([H])([H])[H])C([H])(C(=O)N([H])C1([H])c3c([H])c([H])c([H])c([H])c3C([H])([H])C([H])([H])C1([H])[H])C2([H])[H]

>  <smiles>  (82) 
[H]N=C(c1c([H])c([H])c(N([H])C(=O)N2C([H])([H])C([H])([H])C([H])([H])C([H])(n3nc(-c4c([H])c([H])c(Oc5c([H])c([H])c(F)c([H])c5F)c([H])c4[H])c(C(=O)N([H])[H])c3N([H])[H])C2([H])[H])c([H])c1OC([H])([H])C([H])([H])[H])C([H])([H])C([H])([H])C([H])([H])C([H])([H])Oc1c([H])c([H])c2c(c1[H])C([H])([H])N(C(=O)C([H])(N([H])C(=O)C([H])(N([H])C([H])([H])[H])C([H])([H])[H])C(C([H])([H])[H])(C([H])([H])[H])C([H])([H])[H])C([H])(C(=O)N([H])C1([H])c3c([H])c([H])c([H])c([H])c3C([H])([H])C([H])([H])C1([H])[H])C2([H])[H]

$$$$
82:0:0
     RDKit          3D

 98107  0  0  1  0  0  0  0  0999 V2000
  -31.2030  -21.8080   19.6680 C   0  0  0  0  0  3  0  0  0  0  0  0
  -29.7320  -23.8670   19.9180 C   0  0  0  0  0  0  0  0  0  0  0  0
  -27.5450  -22.9420   19.7800 C   0  0  0  0  0  2  0  0  0  0  0  0
  -28.6170  -21.8760   19.5150 C   0  0  0  0  0  2  0  0  0  0  0  0
  -28.2740  -24.2880   19.6880 C   0  0  0  0  0  3  0  0  0  0  0  0
  -29.9060  -22.5460   19.7030 N   0  0  0  0  0  0  0  0  0  0  0  0
  -30.6220  -24.6670   20.2170 O   0  0  0  0  0  0  0  0  0  0  0  0
  -27.7090  -25.3940   20.6250 C   0  0  0  0  0  2  0  0  0  0  0  0
  -27.8530  -26.7220   20.0880 O   0  0  0  0  0  0  0  0  0  0  0  0
  -24.5200  -32.0240   23.4750 C   0  0  0  0  0  0  0  0  0  0  0  0
  -26.7330  -27.5240   20.1610 C   0  0  0  0  0  0  0  0  0  0  0  0
  -23.1520  -30.7560   21.8510 C   0  0  0  0  0  3  0  0  0  0  0  0
  -24.4370  -29.1690   20.3240 C   0  0  0  0  0  0  0  0  0  0  0  0
  -25.6830  -30.9660   21.5380 C   0  0  0  0  0  2  0  0  0  0  0  0
  -25.6520  -29.6090   20.8630 C   0  0  0  0  0  0  0  0  0  0  0  0
  -26.8050  -28.7970   20.7720 C   0  0  0  0  0  3  0  0  0  0  0  0
  -25.5040  -27.1000   19.6090 C   0  0  0  0  0  3  0  0  0  0  0  0
  -24.3570  -27.9140   19.6930 C   0  0  0  0  0  3  0  0  0  0  0  0
  -23.2550  -30.1040   20.4450 C   0  0  0  0  0  2  0  0  0  0  0  0
  -24.4740  -31.2590   22.3470 N   0  0  0  0  0  0  0  0  0  0  0  0
  -23.4850  -32.3470   24.0740 O   0  0  0  0  0  0  0  0  0  0  0  0
  -22.4770  -29.7510   22.8130 C   0  0  0  0  0  0  0  0  0  0  0  0
  -21.1610  -29.5450   22.6390 N   0  0  0  0  0  0  0  0  0  0  0  0
  -23.1360  -29.1560   23.6700 O   0  0  0  0  0  0  0  0  0  0  0  0
  -20.6880  -30.0740   21.9200 H   0  0  0  0  0  0  0  0  0  0  0  0
  -17.8230  -28.1960   22.9350 C   0  0  0  0  0  0  0  0  0  0  0  0
  -20.3300  -28.6170   23.4050 C   0  0  0  0  0  3  0  0  0  0  0  0
  -20.5570  -27.1580   22.9430 C   0  0  0  0  0  2  0  0  0  0  0  0
  -19.5690  -26.7070   21.8630 C   0  0  0  0  0  2  0  0  0  0  0  0
  -18.1290  -26.8160   22.3750 C   0  0  0  0  0  2  0  0  0  0  0  0
  -18.8590  -29.0460   23.4040 C   0  0  0  0  0  0  0  0  0  0  0  0
  -18.5270  -30.3320   23.8830 C   0  0  0  0  0  3  0  0  0  0  0  0
  -17.1900  -30.7700   23.8990 C   0  0  0  0  0  3  0  0  0  0  0  0
  -16.1670  -29.9200   23.4480 C   0  0  0  0  0  3  0  0  0  0  0  0
  -16.4830  -28.6350   22.9730 C   0  0  0  0  0  3  0  0  0  0  0  0
  -25.8720  -32.5530   24.0490 C   0  0  0  0  0  3  0  0  0  0  0  0
  -25.6800  -33.9650   24.4050 N   0  0  0  0  0  0  0  0  0  0  0  0
  -26.0820  -34.9990   23.6540 C   0  0  0  0  0  0  0  0  0  0  0  0
  -26.7280  -34.8580   22.6110 O   0  0  0  0  0  0  0  0  0  0  0  0
  -25.1070  -34.1530   25.2150 H   0  0  0  0  0  0  0  0  0  0  0  0
  -24.4870  -36.9210   23.3590 C   0  0  0  0  0  1  0  0  0  0  0  0
  -25.7110  -36.4130   24.1380 C   0  0  0  0  0  3  0  0  0  0  0  0
  -27.9220  -37.1240   24.9340 C   0  0  0  0  0  1  0  0  0  0  0  0
  -26.8170  -37.3870   24.0150 N   0  0  0  0  0  0  0  0  0  0  0  0
  -26.4830  -38.3320   24.1820 H   0  0  0  0  0  0  0  0  0  0  0  0
  -26.3840  -31.7270   25.2920 C   0  0  1  0  0  0  0  0  0  0  0  0
  -25.3110  -31.5240   26.3850 C   0  0  0  0  0  1  0  0  0  0  0  0
  -26.8800  -30.3290   24.8540 C   0  0  0  0  0  1  0  0  0  0  0  0
  -27.5920  -32.4440   25.9400 C   0  0  0  0  0  1  0  0  0  0  0  0
  -31.9890  -23.4450   17.8310 C   0  0  0  0  0  1  0  0  0  0  0  0
  -33.3970  -21.4840   18.3170 C   0  0  0  0  0  1  0  0  0  0  0  0
  -31.2310  -21.1800   17.1340 C   0  0  0  0  0  1  0  0  0  0  0  0
  -31.9310  -21.9620   18.2670 C   0  0  1  0  0  0  0  0  0  0  0  0
  -30.9980  -20.3540   20.2260 C   0  0  0  0  0  2  0  0  0  0  0  0
  -33.5800  -19.6770   20.3420 C   0  0  0  0  0  3  0  0  0  0  0  0
  -32.1830  -19.3910   20.2820 C   0  0  0  0  0  0  0  0  0  0  0  0
  -32.1070  -18.0210   20.3740 C   0  0  0  0  0  0  0  0  0  0  0  0
  -34.2390  -18.4790   20.3470 C   0  0  0  0  0  0  0  0  0  0  0  0
  -35.6830  -18.1070   20.3830 C   0  0  0  0  0  1  0  0  0  0  0  0
  -33.3440  -17.4530   20.3440 O   0  0  0  0  0  0  0  0  0  0  0  0
  -30.9810  -17.1710   20.6040 C   0  0  0  0  0  3  0  0  0  0  0  0
  -30.6970  -15.8500   20.5580 C   0  0  0  0  0  3  0  0  0  0  0  0
  -31.5260  -14.7430   20.0640 C   0  0  0  0  0  0  0  0  0  0  0  0
  -31.1800  -12.5670   18.9270 C   0  0  0  0  0  2  0  0  0  0  0  0
  -30.1760  -12.7620   17.7690 C   0  0  0  0  0  2  0  0  0  0  0  0
  -28.7200  -12.6420   18.2660 C   0  0  0  0  0  2  0  0  0  0  0  0
  -28.4550  -13.5040   19.5260 C   0  0  0  0  0  3  0  0  0  0  0  0
  -29.5540  -13.2400   20.5840 C   0  0  0  0  0  2  0  0  0  0  0  0
  -30.8580  -13.5550   19.9690 N   0  0  0  0  0  0  0  0  0  0  0  0
  -32.6500  -14.9030   19.5730 O   0  0  0  0  0  0  0  0  0  0  0  0
  -26.1380  -14.2190   20.3960 C   0  0  0  0  0  0  0  0  0  0  0  0
  -25.0490  -13.4900   20.7900 C   0  0  0  0  0  0  0  0  0  0  0  0
  -25.4300  -12.1180   20.6700 C   0  0  0  0  0  0  0  0  0  0  0  0
  -27.1160  -13.2910   20.0660 N   0  0  0  0  0  0  0  0  0  0  0  0
  -26.6950  -12.0220   20.2880 N   0  0  0  0  0  0  0  0  0  0  0  0
  -24.6480  -10.8880   20.8430 C   0  0  0  0  0  0  0  0  0  0  0  0
  -25.0100   -9.9110   21.7950 C   0  0  0  0  0  3  0  0  0  0  0  0
  -24.2340   -8.7430   21.9550 C   0  0  0  0  0  3  0  0  0  0  0  0
  -23.0790   -8.5450   21.1600 C   0  0  0  0  0  0  0  0  0  0  0  0
  -22.7350   -9.5120   20.1980 C   0  0  0  0  0  3  0  0  0  0  0  0
  -23.5120  -10.6710   20.0370 C   0  0  0  0  0  3  0  0  0  0  0  0
  -22.2800   -7.4300   21.2280 O   0  0  0  0  0  0  0  0  0  0  0  0
  -22.0530   -6.7780   22.4130 C   0  0  0  0  0  0  0  0  0  0  0  0
  -21.4670   -7.4260   23.5210 C   0  0  0  0  0  3  0  0  0  0  0  0
  -21.1890   -6.7000   24.6970 C   0  0  0  0  0  3  0  0  0  0  0  0
  -21.4880   -5.3270   24.7640 C   0  0  0  0  0  0  0  0  0  0  0  0
  -22.0660   -4.6770   23.6590 C   0  0  0  0  0  3  0  0  0  0  0  0
  -22.3470   -5.4000   22.4850 C   0  0  0  0  0  0  0  0  0  0  0  0
  -22.8870   -4.7660   21.4180 F   0  0  0  0  0  0  0  0  0  0  0  0
  -21.2120   -4.6270   25.8890 F   0  0  0  0  0  0  0  0  0  0  0  0
  -23.6970  -14.0270   21.1610 C   0  0  0  0  0  0  0  0  0  0  0  0
  -22.9870  -13.3440   22.0530 N   0  0  0  0  0  0  0  0  0  0  0  0
  -23.2780  -15.0860   20.6940 O   0  0  0  0  0  0  0  0  0  0  0  0
  -23.3360  -12.4860   22.4560 H   0  0  0  0  0  0  0  0  0  0  0  0
  -22.0820  -13.6850   22.3410 H   0  0  0  0  0  0  0  0  0  0  0  0
  -26.3740  -15.5850   20.2710 N   0  0  0  0  0  0  0  0  0  0  0  0
  -25.6550  -16.2790   20.4520 H   0  0  0  0  0  0  0  0  0  0  0  0
  -27.2280  -15.9860   19.9060 H   0  0  0  0  0  0  0  0  0  0  0  0
  1  6  1  0
  1 54  1  0
  2  7  2  0
  4  6  1  0
  4  3  1  0
  5  3  1  0
  5  2  1  0
  5  8  1  0
  6  2  1  0
  9 11  1  0
  9  8  1  0
 10 21  2  0
 11 16  1  0
 12 20  1  0
 12 22  1  0
 13 19  1  0
 13 15  1  0
 14 20  1  0
 15 14  1  0
 16 15  2  0
 17 18  1  0
 17 11  2  0
 18 13  2  0
 19 12  1  0
 20 10  1  0
 22 24  2  0
 23 22  1  0
 25 23  1  0
 26 35  2  0
 26 31  1  0
 27 23  1  0
 28 27  1  0
 29 30  1  0
 29 28  1  0
 30 26  1  0
 31 27  1  0
 31 32  2  0
 32 33  1  0
 34 33  2  0
 35 34  1  0
 36 10  1  0
 36 37  1  0
 36 46  1  0
 37 40  1  0
 38 42  1  0
 38 37  1  0
 39 38  2  0
 42 41  1  0
 44 42  1  0
 44 45  1  0
 44 43  1  0
 46 49  1  1
 46 47  1  0
 48 46  1  0
 53 50  1  6
 52 53  1  0
 53 51  1  0
 53  1  1  0
 54 56  1  0
 55 58  2  0
 56 55  1  0
 56 57  2  0
 57 61  1  0
 58 59  1  0
 60 58  1  0
 60 57  1  0
 62 61  2  0
 63 62  1  0
 64 69  1  0
 65 66  1  0
 65 64  1  0
 67 66  1  0
 67 74  1  0
 67 68  1  0
 69 63  1  0
 69 68  1  0
 70 63  2  0
 71 72  2  0
 72 91  1  0
 73 72  1  0
 73 76  1  0
 74 75  1  0
 74 71  1  0
 75 73  2  0
 76 77  1  0
 77 78  2  0
 79 82  1  0
 79 78  1  0
 80 79  2  0
 81 80  1  0
 81 76  2  0
 82 83  1  0
 83 88  2  0
 83 84  1  0
 84 85  2  0
 85 86  1  0
 86 90  1  0
 87 86  2  0
 88 87  1  0
 89 88  1  0
 91 92  1  0
 92 95  1  0
 92 94  1  0
 93 91  2  0
 96 71  1  0
 96 97  1  0
 98 96  1  0
M  ISO  4   8 101   9 101  62 100  63 100
M  END
>  <TORSDO>  (83) 
F 22

>  <SCORE>  (83) 
-11.621

>  <name>  (83) 
82

>  <ligand_id>  (83) 
82

>  <original_smiles>  (83) 
[H]C(C(=O)N1C([H])([H])C([H])([H])C([H])([H])C([H])(n2nc(-c3c([H])c([H])c(Oc4c([H])c([H])c(F)c([H])c4F)c([H])c3[H])c(C(=O)N([H])[H])c2N([H])[H])C1([H])[H])=C([H])c1oc(C([H])([H])[H])c([H])c1C([H])([H])C([H])(N1C(=O)C([H])(C([H])([H])Oc2c([H])c([H])c3c(c2[H])C([H])([H])N(C(=O)C([H])(N([H])C(=O)C([H])(N([H])C([H])([H])[H])C([H])([H])[H])C(C([H])([H])[H])(C([H])([H])[H])C([H])([H])[H])C([H])(C(=O)N([H])C2([H])c4c([H])c([H])c([H])c([H])c4C([H])([H])C([H])([H])C2([H])[H])C3([H])[H])C([H])([H])C1([H])[H])C(C([H])([H])[H])(C([H])([H])[H])C([H])([H])[H]

>  <smiles>  (83) 
[H]C(C(=O)N1C([H])([H])C([H])([H])C([H])([H])C([H])(n2nc(-c3c([H])c([H])c(Oc4c([H])c([H])c(F)c([H])c4F)c([H])c3[H])c(C(=O)N([H])[H])c2N([H])[H])C1([H])[H])=C([H])c1oc(C([H])([H])[H])c([H])c1C([H])([H])C([H])(N1C(=O)C([H])(C([H])([H])Oc2c([H])c([H])c3c(c2[H])C([H])([H])N(C(=O)C([H])(N([H])C(=O)C([H])(N([H])C([H])([H])[H])C([H])([H])[H])C(C([H])([H])[H])(C([H])([H])[H])C([H])([H])[H])C([H])(C(=O)N([H])C2([H])c4c([H])c([H])c([H])c([H])c4C([H])([H])C([H])([H])C2([H])[H])C3([H])[H])C([H])([H])C1([H])[H])C(C([H])([H])[H])(C([H])([H])[H])C([H])([H])[H]

$$$$
83:0:0
     RDKit          3D

 93101  0  0  1  0  0  0  0  0999 V2000
  -28.8600  -19.9230   17.4970 C   0  0  0  0  0  3  0  0  0  0  0  0
  -28.8040  -18.9110   18.4680 C   0  0  0  0  0  3  0  0  0  0  0  0
  -30.0900  -20.3110   19.9760 C   0  0  0  0  0  3  0  0  0  0  0  0
  -29.5560  -21.1290   17.7340 C   0  0  0  0  0  0  0  0  0  0  0  0
  -30.1620  -21.3460   19.0090 C   0  0  0  0  0  0  0  0  0  0  0  0
  -29.4540  -19.0820   19.7040 C   0  0  0  0  0  0  0  0  0  0  0  0
  -31.0290  -22.2000   15.9410 C   0  0  0  0  0  1  0  0  0  0  0  0
  -29.6280  -22.1050   16.5640 C   0  0  0  0  0  2  0  0  0  0  0  0
  -31.0110  -22.5700   19.3950 C   0  0  0  0  0  2  0  0  0  0  0  0
  -30.5470  -24.0020   19.0200 C   0  0  0  0  0  2  0  0  0  0  0  0
  -29.3100  -24.5450   19.7430 C   0  0  0  0  0  0  0  0  0  0  0  0
  -28.8650  -24.0180   20.7680 O   0  0  0  0  0  0  0  0  0  0  0  0
  -28.6700  -25.8030   19.1420 C   0  0  0  0  0  2  0  0  0  0  0  0
  -28.3750  -26.7500   20.1770 O   0  0  0  0  0  0  0  0  0  0  0  0
  -24.5570  -31.8990   23.2340 C   0  0  0  0  0  0  0  0  0  0  0  0
  -27.1810  -27.4390   20.1530 C   0  0  0  0  0  0  0  0  0  0  0  0
  -23.3410  -30.4960   21.6000 C   0  0  0  0  0  3  0  0  0  0  0  0
  -24.7830  -28.9430   20.1820 C   0  0  0  0  0  0  0  0  0  0  0  0
  -25.8680  -30.8400   21.3990 C   0  0  0  0  0  2  0  0  0  0  0  0
  -25.9430  -29.4660   20.7670 C   0  0  0  0  0  0  0  0  0  0  0  0
  -27.1390  -28.7160   20.7580 C   0  0  0  0  0  3  0  0  0  0  0  0
  -25.9930  -26.9170   19.5910 C   0  0  0  0  0  3  0  0  0  0  0  0
  -24.8010  -27.6650   19.5980 C   0  0  0  0  0  3  0  0  0  0  0  0
  -23.5440  -29.8090   20.2240 C   0  0  0  0  0  2  0  0  0  0  0  0
  -24.6070  -31.0940   22.1350 N   0  0  0  0  0  0  0  0  0  0  0  0
  -23.4780  -32.1800   23.7740 O   0  0  0  0  0  0  0  0  0  0  0  0
  -22.6860  -29.4830   22.5650 C   0  0  0  0  0  0  0  0  0  0  0  0
  -21.3590  -29.3150   22.4450 N   0  0  0  0  0  0  0  0  0  0  0  0
  -23.3670  -28.8520   23.3780 O   0  0  0  0  0  0  0  0  0  0  0  0
  -20.8720  -29.8800   21.7630 H   0  0  0  0  0  0  0  0  0  0  0  0
  -17.9730  -28.1640   22.9590 C   0  0  0  0  0  0  0  0  0  0  0  0
  -20.5350  -28.3870   23.2180 C   0  0  0  0  0  3  0  0  0  0  0  0
  -20.6160  -26.9540   22.6420 C   0  0  0  0  0  2  0  0  0  0  0  0
  -19.5040  -26.6460   21.6330 C   0  0  0  0  0  2  0  0  0  0  0  0
  -18.1280  -26.8110   22.2840 C   0  0  0  0  0  2  0  0  0  0  0  0
  -19.1040  -28.9110   23.3830 C   0  0  0  0  0  0  0  0  0  0  0  0
  -18.9050  -30.1780   23.9730 C   0  0  0  0  0  3  0  0  0  0  0  0
  -17.6090  -30.6970   24.1450 C   0  0  0  0  0  3  0  0  0  0  0  0
  -16.4930  -29.9470   23.7370 C   0  0  0  0  0  3  0  0  0  0  0  0
  -16.6750  -28.6830   23.1510 C   0  0  0  0  0  3  0  0  0  0  0  0
  -25.8490  -32.5240   23.8510 C   0  0  0  0  0  3  0  0  0  0  0  0
  -25.5470  -33.9230   24.1830 N   0  0  0  0  0  0  0  0  0  0  0  0
  -25.8830  -34.9740   23.4240 C   0  0  0  0  0  0  0  0  0  0  0  0
  -26.5510  -34.8690   22.3910 O   0  0  0  0  0  0  0  0  0  0  0  0
  -24.9530  -34.0790   24.9850 H   0  0  0  0  0  0  0  0  0  0  0  0
  -24.1650  -36.7770   23.0650 C   0  0  0  0  0  1  0  0  0  0  0  0
  -25.4000  -36.3640   23.8820 C   0  0  0  0  0  3  0  0  0  0  0  0
  -27.5340  -37.2350   24.7270 C   0  0  0  0  0  1  0  0  0  0  0  0
  -26.4380  -37.4120   23.7780 N   0  0  0  0  0  0  0  0  0  0  0  0
  -26.0360  -38.3330   23.9250 H   0  0  0  0  0  0  0  0  0  0  0  0
  -26.3700  -31.7480   25.1220 C   0  0  1  0  0  0  0  0  0  0  0  0
  -25.2840  -31.5090   26.1950 C   0  0  0  0  0  1  0  0  0  0  0  0
  -26.9470  -30.3700   24.7200 C   0  0  0  0  0  1  0  0  0  0  0  0
  -27.5260  -32.5370   25.7810 C   0  0  0  0  0  1  0  0  0  0  0  0
  -29.4950  -18.0680   20.6340 O   0  0  0  0  0  0  0  0  0  0  0  0
  -30.1480  -16.8860   20.1650 C   0  0  0  0  0  2  0  0  0  0  0  0
  -29.9950  -15.6900   21.1290 C   0  0  0  0  0  2  0  0  0  0  0  0
  -30.6760  -14.4380   20.5390 C   0  0  0  0  0  0  0  0  0  0  0  0
  -30.3680  -12.3010   19.3560 C   0  0  0  0  0  2  0  0  0  0  0  0
  -29.4480  -12.5500   18.1430 C   0  0  0  0  0  2  0  0  0  0  0  0
  -27.9640  -12.4300   18.5470 C   0  0  0  0  0  2  0  0  0  0  0  0
  -27.6230  -13.2460   19.8230 C   0  0  0  0  0  3  0  0  0  0  0  0
  -28.6610  -12.9770   20.9370 C   0  0  0  0  0  2  0  0  0  0  0  0
  -29.9950  -13.2690   20.3960 N   0  0  0  0  0  0  0  0  0  0  0  0
  -31.8140  -14.5850   20.0810 O   0  0  0  0  0  0  0  0  0  0  0  0
  -25.2130  -13.8720   20.4800 C   0  0  0  0  0  0  0  0  0  0  0  0
  -24.1340  -13.1060   20.8370 C   0  0  0  0  0  0  0  0  0  0  0  0
  -24.5920  -11.7530   20.8280 C   0  0  0  0  0  0  0  0  0  0  0  0
  -26.2590  -12.9830   20.2790 N   0  0  0  0  0  0  0  0  0  0  0  0
  -25.8860  -11.7050   20.5430 N   0  0  0  0  0  0  0  0  0  0  0  0
  -23.8590  -10.4950   21.0210 C   0  0  0  0  0  0  0  0  0  0  0  0
  -24.2730   -9.5340   21.9700 C   0  0  0  0  0  3  0  0  0  0  0  0
  -23.5410   -8.3400   22.1470 C   0  0  0  0  0  3  0  0  0  0  0  0
  -22.3800   -8.0980   21.3750 C   0  0  0  0  0  0  0  0  0  0  0  0
  -21.9860   -9.0470   20.4150 C   0  0  0  0  0  3  0  0  0  0  0  0
  -22.7180  -10.2330   20.2360 C   0  0  0  0  0  3  0  0  0  0  0  0
  -21.6210   -6.9560   21.4600 O   0  0  0  0  0  0  0  0  0  0  0  0
  -21.5530   -6.2220   22.6180 C   0  0  0  0  0  0  0  0  0  0  0  0
  -21.1090   -6.7890   23.8330 C   0  0  0  0  0  3  0  0  0  0  0  0
  -20.9870   -5.9820   24.9820 C   0  0  0  0  0  3  0  0  0  0  0  0
  -21.2980   -4.6110   24.9170 C   0  0  0  0  0  0  0  0  0  0  0  0
  -21.7330   -4.0440   23.7070 C   0  0  0  0  0  3  0  0  0  0  0  0
  -21.8570   -4.8470   22.5590 C   0  0  0  0  0  0  0  0  0  0  0  0
  -22.2570   -4.2910   21.3900 F   0  0  0  0  0  0  0  0  0  0  0  0
  -21.1740   -3.8350   26.0190 F   0  0  0  0  0  0  0  0  0  0  0  0
  -22.7340  -13.5900   21.0810 C   0  0  0  0  0  0  0  0  0  0  0  0
  -21.9900  -12.9020   21.9400 N   0  0  0  0  0  0  0  0  0  0  0  0
  -22.3080  -14.6130   20.5460 O   0  0  0  0  0  0  0  0  0  0  0  0
  -22.3480  -12.0750   22.3940 H   0  0  0  0  0  0  0  0  0  0  0  0
  -21.0490  -13.2080   22.1460 H   0  0  0  0  0  0  0  0  0  0  0  0
  -25.3880  -15.2390   20.2900 N   0  0  0  0  0  0  0  0  0  0  0  0
  -24.6270  -15.9030   20.3820 H   0  0  0  0  0  0  0  0  0  0  0  0
  -26.2540  -15.6690   19.9910 H   0  0  0  0  0  0  0  0  0  0  0  0
  1  4  2  0
  1  2  1  0
  2  6  2  0
  4  5  1  0
  5  9  1  0
  5  3  2  0
  6  3  1  0
  6 55  1  0
  7  8  1  0
  8  4  1  0
 10  9  1  0
 10 11  1  0
 11 12  2  0
 13 11  1  0
 13 14  1  0
 15 26  2  0
 16 14  1  0
 16 21  1  0
 17 25  1  0
 17 27  1  0
 18 24  1  0
 18 20  1  0
 19 25  1  0
 20 19  1  0
 21 20  2  0
 22 23  1  0
 22 16  2  0
 23 18  2  0
 24 17  1  0
 25 15  1  0
 27 29  2  0
 28 27  1  0
 30 28  1  0
 31 40  2  0
 31 36  1  0
 32 28  1  0
 32 36  1  0
 33 32  1  0
 34 35  1  0
 34 33  1  0
 35 31  1  0
 36 37  2  0
 37 38  1  0
 39 38  2  0
 40 39  1  0
 41 15  1  0
 41 42  1  0
 41 51  1  0
 42 45  1  0
 43 47  1  0
 43 42  1  0
 44 43  2  0
 47 46  1  0
 49 47  1  0
 49 50  1  0
 49 48  1  0
 51 54  1  1
 51 52  1  0
 53 51  1  0
 56 55  1  0
 56 57  1  0
 58 57  1  0
 59 64  1  0
 60 61  1  0
 60 59  1  0
 62 61  1  0
 62 69  1  0
 62 63  1  0
 64 58  1  0
 64 63  1  0
 65 58  2  0
 66 67  2  0
 67 86  1  0
 68 67  1  0
 68 71  1  0
 69 66  1  0
 69 70  1  0
 70 68  2  0
 71 72  1  0
 72 73  2  0
 74 77  1  0
 74 73  1  0
 75 74  2  0
 76 75  1  0
 76 71  2  0
 77 78  1  0
 78 79  1  0
 79 80  2  0
 81 80  1  0
 81 85  1  0
 82 81  2  0
 83 78  2  0
 83 82  1  0
 84 83  1  0
 86 87  1  0
 87 90  1  0
 87 89  1  0
 88 86  2  0
 91 92  1  0
 91 66  1  0
 93 91  1  0
M  ISO  4  13 101  14 101  57 100  58 100
M  END
>  <TORSDO>  (84) 
F 24

>  <SCORE>  (84) 
-12.543

>  <name>  (84) 
83

>  <ligand_id>  (84) 
83

>  <original_smiles>  (84) 
[H]c1c([H])c([H])c2c(c1[H])C([H])([H])C([H])([H])C([H])([H])C2([H])N([H])C(=O)C1([H])N(C(=O)C([H])(N([H])C(=O)C([H])(N([H])C([H])([H])[H])C([H])([H])[H])C(C([H])([H])[H])(C([H])([H])[H])C([H])([H])[H])C([H])([H])c2c([H])c(OC([H])([H])C(=O)C([H])([H])C([H])([H])c3c([H])c(OC([H])([H])C([H])([H])C(=O)N4C([H])([H])C([H])([H])C([H])([H])C([H])(n5nc(-c6c([H])c([H])c(Oc7c([H])c([H])c(F)c([H])c7F)c([H])c6[H])c(C(=O)N([H])[H])c5N([H])[H])C4([H])[H])c([H])c([H])c3C([H])([H])C([H])([H])[H])c([H])c([H])c2C1([H])[H]

>  <smiles>  (84) 
[H]c1c([H])c([H])c2c(c1[H])C([H])([H])C([H])([H])C([H])([H])C2([H])N([H])C(=O)C1([H])N(C(=O)C([H])(N([H])C(=O)C([H])(N([H])C([H])([H])[H])C([H])([H])[H])C(C([H])([H])[H])(C([H])([H])[H])C([H])([H])[H])C([H])([H])c2c([H])c(OC([H])([H])C(=O)C([H])([H])C([H])([H])c3c([H])c(OC([H])([H])C([H])([H])C(=O)N4C([H])([H])C([H])([H])C([H])([H])C([H])(n5nc(-c6c([H])c([H])c(Oc7c([H])c([H])c(F)c([H])c7F)c([H])c6[H])c(C(=O)N([H])[H])c5N([H])[H])C4([H])[H])c([H])c([H])c3C([H])([H])C([H])([H])[H])c([H])c([H])c2C1([H])[H]

$$$$
84:0:0
     RDKit          3D

 92100  0  0  1  0  0  0  0  0999 V2000
  -30.9010  -18.0940   20.6950 C   0  0  0  0  0  3  0  0  0  0  0  0
  -30.6660  -19.4910   20.4630 C   0  0  0  0  0  3  0  0  0  0  0  0
  -28.7570  -17.6050   19.7470 C   0  0  0  0  0  3  0  0  0  0  0  0
  -29.9530  -17.1030   20.3220 C   0  0  0  0  0  0  0  0  0  0  0  0
  -29.4740  -19.9830   19.8500 C   0  0  0  0  0  0  0  0  0  0  0  0
  -28.5090  -18.9870   19.5090 C   0  0  0  0  0  0  0  0  0  0  0  0
  -30.8230  -14.6430   20.0790 C   0  0  0  0  0  0  0  0  0  0  0  0
  -30.5680  -12.3960   19.0200 C   0  0  0  0  0  2  0  0  0  0  0  0
  -29.5990  -12.5370   17.8240 C   0  0  0  0  0  2  0  0  0  0  0  0
  -28.1320  -12.4100   18.2840 C   0  0  0  0  0  2  0  0  0  0  0  0
  -27.8210  -13.2920   19.5210 C   0  0  0  0  0  3  0  0  0  0  0  0
  -28.8930  -13.0980   20.6160 C   0  0  0  0  0  2  0  0  0  0  0  0
  -30.2030  -13.4190   20.0210 N   0  0  0  0  0  0  0  0  0  0  0  0
  -31.9590  -14.8100   19.6200 O   0  0  0  0  0  0  0  0  0  0  0  0
  -30.0460  -15.6590   20.5750 N   0  0  0  0  0  0  0  0  0  0  0  0
  -29.1960  -15.2700   20.9570 H   0  0  0  0  0  0  0  0  0  0  0  0
  -25.4600  -13.9760   20.2750 C   0  0  0  0  0  0  0  0  0  0  0  0
  -24.3790  -13.2440   20.6840 C   0  0  0  0  0  0  0  0  0  0  0  0
  -24.8020  -11.8790   20.6670 C   0  0  0  0  0  0  0  0  0  0  0  0
  -26.4720  -13.0620   20.0320 N   0  0  0  0  0  0  0  0  0  0  0  0
  -26.0810  -11.7960   20.3270 N   0  0  0  0  0  0  0  0  0  0  0  0
  -24.0430  -10.6430   20.8950 C   0  0  0  0  0  0  0  0  0  0  0  0
  -24.4800   -9.6710   21.8220 C   0  0  0  0  0  3  0  0  0  0  0  0
  -23.7250   -8.5000   22.0390 C   0  0  0  0  0  3  0  0  0  0  0  0
  -22.5180   -8.2920   21.3290 C   0  0  0  0  0  0  0  0  0  0  0  0
  -22.0990   -9.2520   20.3910 C   0  0  0  0  0  3  0  0  0  0  0  0
  -22.8550  -10.4150   20.1730 C   0  0  0  0  0  3  0  0  0  0  0  0
  -21.7340   -7.1710   21.4540 O   0  0  0  0  0  0  0  0  0  0  0  0
  -21.7290   -6.4200   22.6020 C   0  0  0  0  0  0  0  0  0  0  0  0
  -21.4090   -6.9830   23.8570 C   0  0  0  0  0  3  0  0  0  0  0  0
  -21.3460   -6.1620   25.0010 C   0  0  0  0  0  3  0  0  0  0  0  0
  -21.5940   -4.7810   24.8920 C   0  0  0  0  0  0  0  0  0  0  0  0
  -21.9070   -4.2170   23.6420 C   0  0  0  0  0  3  0  0  0  0  0  0
  -21.9710   -5.0360   22.5000 C   0  0  0  0  0  0  0  0  0  0  0  0
  -22.2530   -4.4840   21.2930 F   0  0  0  0  0  0  0  0  0  0  0  0
  -21.5250   -3.9900   25.9880 F   0  0  0  0  0  0  0  0  0  0  0  0
  -23.0030  -13.7680   20.9790 C   0  0  0  0  0  0  0  0  0  0  0  0
  -22.2830  -13.1220   21.8890 N   0  0  0  0  0  0  0  0  0  0  0  0
  -22.5770  -14.7860   20.4360 O   0  0  0  0  0  0  0  0  0  0  0  0
  -22.6400  -12.3010   22.3510 H   0  0  0  0  0  0  0  0  0  0  0  0
  -21.3610  -13.4590   22.1310 H   0  0  0  0  0  0  0  0  0  0  0  0
  -25.6530  -15.3370   20.0660 N   0  0  0  0  0  0  0  0  0  0  0  0
  -24.8990  -16.0050   20.1720 H   0  0  0  0  0  0  0  0  0  0  0  0
  -26.4680  -15.7250   19.6100 H   0  0  0  0  0  0  0  0  0  0  0  0
  -26.6520  -20.4650   19.2970 C   0  0  0  0  0  1  0  0  0  0  0  0
  -27.3190  -19.2790   18.8820 O   0  0  0  0  0  0  0  0  0  0  0  0
  -29.3540  -21.3120   19.3790 O   0  0  0  0  0  0  0  0  0  0  0  0
  -29.1200  -22.4810   20.2370 C   0  0  0  0  0  2  0  0  0  0  0  0
  -30.3580  -24.1710   18.7880 C   0  0  0  0  0  1  0  0  0  0  0  0
  -29.0020  -23.8700   19.4380 C   0  0  0  0  0  3  0  0  0  0  0  0
  -28.4830  -25.1610   20.2240 C   0  0  0  0  0  2  0  0  0  0  0  0
  -28.4930  -26.4780   19.5480 O   0  0  0  0  0  0  0  0  0  0  0  0
  -24.7550  -31.5500   23.0560 C   0  0  0  0  0  0  0  0  0  0  0  0
  -27.3550  -27.2860   19.6280 C   0  0  0  0  0  0  0  0  0  0  0  0
  -23.5340  -30.2850   21.3200 C   0  0  0  0  0  3  0  0  0  0  0  0
  -24.9750  -28.8580   19.7590 C   0  0  0  0  0  0  0  0  0  0  0  0
  -26.0640  -30.6400   21.1260 C   0  0  0  0  0  2  0  0  0  0  0  0
  -26.1450  -29.3170   20.3770 C   0  0  0  0  0  0  0  0  0  0  0  0
  -27.3400  -28.5430   20.3000 C   0  0  0  0  0  3  0  0  0  0  0  0
  -26.1660  -26.8680   18.9940 C   0  0  0  0  0  3  0  0  0  0  0  0
  -24.9870  -27.6400   19.0560 C   0  0  0  0  0  3  0  0  0  0  0  0
  -23.7330  -29.7190   19.8880 C   0  0  0  0  0  2  0  0  0  0  0  0
  -24.8040  -30.8370   21.8940 N   0  0  0  0  0  0  0  0  0  0  0  0
  -23.6780  -31.7760   23.6280 O   0  0  0  0  0  0  0  0  0  0  0  0
  -22.8870  -29.1920   22.2050 C   0  0  0  0  0  0  0  0  0  0  0  0
  -21.5570  -29.0360   22.0970 N   0  0  0  0  0  0  0  0  0  0  0  0
  -23.5810  -28.4890   22.9440 O   0  0  0  0  0  0  0  0  0  0  0  0
  -21.0550  -29.6560   21.4770 H   0  0  0  0  0  0  0  0  0  0  0  0
  -18.1800  -27.8370   22.5870 C   0  0  0  0  0  0  0  0  0  0  0  0
  -20.7490  -28.0380   22.8000 C   0  0  0  0  0  3  0  0  0  0  0  0
  -20.8130  -26.6680   22.0880 C   0  0  0  0  0  2  0  0  0  0  0  0
  -19.6770  -26.4570   21.0830 C   0  0  0  0  0  2  0  0  0  0  0  0
  -18.3180  -26.5560   21.7810 C   0  0  0  0  0  2  0  0  0  0  0  0
  -19.3220  -28.5400   23.0520 C   0  0  0  0  0  0  0  0  0  0  0  0
  -19.1410  -29.7440   23.7690 C   0  0  0  0  0  3  0  0  0  0  0  0
  -17.8480  -30.2420   24.0240 C   0  0  0  0  0  3  0  0  0  0  0  0
  -16.7220  -29.5330   23.5720 C   0  0  0  0  0  3  0  0  0  0  0  0
  -16.8880  -28.3320   22.8610 C   0  0  0  0  0  3  0  0  0  0  0  0
  -26.0440  -32.1330   23.7140 C   0  0  0  0  0  3  0  0  0  0  0  0
  -25.7300  -33.4910   24.1810 N   0  0  0  0  0  0  0  0  0  0  0  0
  -26.0640  -34.6160   23.5340 C   0  0  0  0  0  0  0  0  0  0  0  0
  -26.7380  -34.6170   22.5000 O   0  0  0  0  0  0  0  0  0  0  0  0
  -25.1310  -33.5640   24.9910 H   0  0  0  0  0  0  0  0  0  0  0  0
  -24.3310  -36.4300   23.3570 C   0  0  0  0  0  1  0  0  0  0  0  0
  -25.5720  -35.9500   24.1270 C   0  0  0  0  0  3  0  0  0  0  0  0
  -27.7030  -36.7530   25.0430 C   0  0  0  0  0  1  0  0  0  0  0  0
  -26.6010  -37.0120   24.1200 N   0  0  0  0  0  0  0  0  0  0  0  0
  -26.1930  -37.9120   24.3600 H   0  0  0  0  0  0  0  0  0  0  0  0
  -26.5900  -31.2480   24.9020 C   0  0  1  0  0  0  0  0  0  0  0  0
  -25.5220  -30.9100   25.9690 C   0  0  0  0  0  1  0  0  0  0  0  0
  -27.1640  -29.9140   24.3700 C   0  0  0  0  0  1  0  0  0  0  0  0
  -27.7560  -31.9800   25.6070 C   0  0  0  0  0  1  0  0  0  0  0  0
  2  1  1  0
  3  4  1  0
  4 15  1  0
  4  1  2  0
  5  2  2  0
  6  3  2  0
  6  5  1  0
  7 15  1  0
  8 13  1  0
  9 10  1  0
  9  8  1  0
 11 10  1  0
 11 20  1  0
 11 12  1  0
 13  7  1  0
 13 12  1  0
 14  7  2  0
 15 16  1  0
 17 18  2  0
 18 37  1  0
 19 18  1  0
 19 22  1  0
 20 17  1  0
 20 21  1  0
 21 19  2  0
 22 23  1  0
 23 24  2  0
 25 28  1  0
 25 24  1  0
 26 25  2  0
 27 26  1  0
 27 22  2  0
 28 29  1  0
 29 30  1  0
 30 31  2  0
 32 31  1  0
 32 36  1  0
 33 32  2  0
 34 29  2  0
 34 33  1  0
 35 34  1  0
 37 38  1  0
 38 41  1  0
 38 40  1  0
 39 37  2  0
 42 43  1  0
 42 17  1  0
 44 42  1  0
 46 45  1  0
 46  6  1  0
 47  5  1  0
 47 48  1  0
 50 49  1  0
 50 51  1  0
 50 48  1  0
 52 54  1  0
 52 51  1  0
 53 64  2  0
 54 59  1  0
 55 63  1  0
 55 65  1  0
 56 62  1  0
 56 58  1  0
 57 63  1  0
 58 57  1  0
 59 58  2  0
 60 61  1  0
 60 54  2  0
 61 56  2  0
 62 55  1  0
 63 53  1  0
 65 67  2  0
 66 65  1  0
 68 66  1  0
 69 78  2  0
 69 74  1  0
 70 66  1  0
 70 74  1  0
 71 70  1  0
 72 73  1  0
 72 71  1  0
 73 69  1  0
 74 75  2  0
 75 76  1  0
 77 76  2  0
 78 77  1  0
 79 53  1  0
 79 80  1  0
 79 89  1  0
 80 83  1  0
 81 85  1  0
 81 80  1  0
 82 81  2  0
 85 84  1  0
 87 85  1  0
 87 88  1  0
 87 86  1  0
 89 92  1  1
 89 90  1  0
 91 89  1  0
M  ISO  4   7 100  15 100  51 101  52 101
M  END
>  <TORSDO>  (85) 
F 21

>  <SCORE>  (85) 
-12.368

>  <name>  (85) 
84

>  <ligand_id>  (85) 
84

>  <original_smiles>  (85) 
[H]c1c([H])c([H])c2c(c1[H])C([H])([H])C([H])([H])C([H])([H])C2([H])N([H])C(=O)C1([H])N(C(=O)C([H])(N([H])C(=O)C([H])(N([H])C([H])([H])[H])C([H])([H])[H])C(C([H])([H])[H])(C([H])([H])[H])C([H])([H])[H])C([H])([H])c2c([H])c(OC([H])([H])C([H])(C([H])([H])[H])C([H])([H])Oc3c([H])c([H])c(N([H])C(=O)N4C([H])([H])C([H])([H])C([H])([H])C([H])(n5nc(-c6c([H])c([H])c(Oc7c([H])c([H])c(F)c([H])c7F)c([H])c6[H])c(C(=O)N([H])[H])c5N([H])[H])C4([H])[H])c([H])c3OC([H])([H])[H])c([H])c([H])c2C1([H])[H]

>  <smiles>  (85) 
[H]c1c([H])c([H])c2c(c1[H])C([H])([H])C([H])([H])C([H])([H])C2([H])N([H])C(=O)C1([H])N(C(=O)C([H])(N([H])C(=O)C([H])(N([H])C([H])([H])[H])C([H])([H])[H])C(C([H])([H])[H])(C([H])([H])[H])C([H])([H])[H])C([H])([H])c2c([H])c(OC([H])([H])C([H])(C([H])([H])[H])C([H])([H])Oc3c([H])c([H])c(N([H])C(=O)N4C([H])([H])C([H])([H])C([H])([H])C([H])(n5nc(-c6c([H])c([H])c(Oc7c([H])c([H])c(F)c([H])c7F)c([H])c6[H])c(C(=O)N([H])[H])c5N([H])[H])C4([H])[H])c([H])c3OC([H])([H])[H])c([H])c([H])c2C1([H])[H]

$$$$
85:0:0
     RDKit          3D

 95103  0  0  1  0  0  0  0  0999 V2000
  -31.8580  -22.9250   20.7190 C   0  0  0  0  0  1  0  0  0  0  0  0
  -30.4690  -22.9960   21.3680 C   0  0  0  0  0  3  0  0  0  0  0  0
  -29.6460  -24.2530   20.9250 C   0  0  0  0  0  2  0  0  0  0  0  0
  -30.8070  -25.7650   22.6060 C   0  0  0  0  0  1  0  0  0  0  0  0
  -31.0990  -26.2410   20.1030 C   0  0  0  0  0  1  0  0  0  0  0  0
  -30.1550  -25.7070   21.2070 C   0  0  1  0  0  0  0  0  0  0  0  0
  -28.9660  -26.6940   21.2190 C   0  0  0  0  0  2  0  0  0  0  0  0
  -28.2120  -26.6520   20.0040 O   0  0  0  0  0  0  0  0  0  0  0  0
  -24.5160  -31.8640   23.1290 C   0  0  0  0  0  0  0  0  0  0  0  0
  -27.0760  -27.4260   20.0170 C   0  0  0  0  0  0  0  0  0  0  0  0
  -23.2610  -30.4670   21.5130 C   0  0  0  0  0  3  0  0  0  0  0  0
  -24.6770  -28.9180   20.0600 C   0  0  0  0  0  0  0  0  0  0  0  0
  -25.7790  -30.8180   21.2590 C   0  0  0  0  0  2  0  0  0  0  0  0
  -25.8400  -29.4480   20.6240 C   0  0  0  0  0  0  0  0  0  0  0  0
  -27.0390  -28.7110   20.6040 C   0  0  0  0  0  3  0  0  0  0  0  0
  -25.9030  -26.9070   19.4350 C   0  0  0  0  0  3  0  0  0  0  0  0
  -24.6990  -27.6430   19.4630 C   0  0  0  0  0  3  0  0  0  0  0  0
  -23.4320  -29.7720   20.1340 C   0  0  0  0  0  2  0  0  0  0  0  0
  -24.5370  -31.0640   22.0240 N   0  0  0  0  0  0  0  0  0  0  0  0
  -23.4520  -32.1500   23.6940 O   0  0  0  0  0  0  0  0  0  0  0  0
  -22.6240  -29.4580   22.4920 C   0  0  0  0  0  0  0  0  0  0  0  0
  -21.2950  -29.2940   22.4000 N   0  0  0  0  0  0  0  0  0  0  0  0
  -23.3190  -28.8210   23.2890 O   0  0  0  0  0  0  0  0  0  0  0  0
  -20.7890  -29.8540   21.7270 H   0  0  0  0  0  0  0  0  0  0  0  0
  -17.9200  -28.1480   22.9760 C   0  0  0  0  0  0  0  0  0  0  0  0
  -20.4850  -28.3660   23.1900 C   0  0  0  0  0  3  0  0  0  0  0  0
  -20.5540  -26.9340   22.6110 C   0  0  0  0  0  2  0  0  0  0  0  0
  -19.4270  -26.6300   21.6210 C   0  0  0  0  0  2  0  0  0  0  0  0
  -18.0610  -26.7980   22.2940 C   0  0  0  0  0  2  0  0  0  0  0  0
  -19.0590  -28.8930   23.3810 C   0  0  0  0  0  0  0  0  0  0  0  0
  -18.8740  -30.1600   23.9750 C   0  0  0  0  0  3  0  0  0  0  0  0
  -17.5820  -30.6830   24.1680 C   0  0  0  0  0  3  0  0  0  0  0  0
  -16.4560  -29.9350   23.7810 C   0  0  0  0  0  3  0  0  0  0  0  0
  -16.6270  -28.6690   23.1920 C   0  0  0  0  0  3  0  0  0  0  0  0
  -25.8240  -32.4820   23.7170 C   0  0  0  0  0  3  0  0  0  0  0  0
  -25.5320  -33.8750   24.0790 N   0  0  0  0  0  0  0  0  0  0  0  0
  -25.8860  -34.9390   23.3460 C   0  0  0  0  0  0  0  0  0  0  0  0
  -26.5610  -34.8500   22.3180 O   0  0  0  0  0  0  0  0  0  0  0  0
  -24.9260  -34.0180   24.8740 H   0  0  0  0  0  0  0  0  0  0  0  0
  -24.1860  -36.7630   23.0110 C   0  0  0  0  0  1  0  0  0  0  0  0
  -25.4100  -36.3250   23.8300 C   0  0  0  0  0  3  0  0  0  0  0  0
  -27.5470  -37.1580   24.7070 C   0  0  0  0  0  1  0  0  0  0  0  0
  -26.4580  -37.3660   23.7550 N   0  0  0  0  0  0  0  0  0  0  0  0
  -26.0650  -38.2870   23.9190 H   0  0  0  0  0  0  0  0  0  0  0  0
  -26.3840  -31.6840   24.9590 C   0  0  1  0  0  0  0  0  0  0  0  0
  -25.3330  -31.4330   26.0650 C   0  0  0  0  0  1  0  0  0  0  0  0
  -26.9420  -30.3090   24.5220 C   0  0  0  0  0  1  0  0  0  0  0  0
  -27.5670  -32.4580   25.5880 C   0  0  0  0  0  1  0  0  0  0  0  0
  -29.6710  -21.7120   21.0200 C   0  0  0  0  0  2  0  0  0  0  0  0
  -30.2820  -20.5030   21.5160 O   0  0  0  0  0  0  0  0  0  0  0  0
  -30.3080  -18.2190   18.5610 C   0  0  0  0  0  3  0  0  0  0  0  0
  -30.2880  -19.3980   19.3130 C   0  0  0  0  0  3  0  0  0  0  0  0
  -30.2500  -18.0790   21.3560 C   0  0  0  0  0  3  0  0  0  0  0  0
  -30.3170  -16.9590   19.1820 C   0  0  0  0  0  0  0  0  0  0  0  0
  -30.2730  -16.8700   20.6050 C   0  0  0  0  0  0  0  0  0  0  0  0
  -30.2650  -19.3570   20.7280 C   0  0  0  0  0  0  0  0  0  0  0  0
  -30.3900  -15.7570   18.2660 C   0  0  0  0  0  1  0  0  0  0  0  0
  -30.9250  -14.5270   21.1580 C   0  0  0  0  0  0  0  0  0  0  0  0
  -30.7450  -12.2350   20.2590 C   0  0  0  0  0  2  0  0  0  0  0  0
  -29.9720  -12.3010   18.9240 C   0  0  0  0  0  2  0  0  0  0  0  0
  -28.4460  -12.3100   19.1450 C   0  0  0  0  0  2  0  0  0  0  0  0
  -27.9700  -13.2170   20.3140 C   0  0  0  0  0  3  0  0  0  0  0  0
  -28.8860  -13.0900   21.5550 C   0  0  0  0  0  2  0  0  0  0  0  0
  -30.2710  -13.3330   21.1160 N   0  0  0  0  0  0  0  0  0  0  0  0
  -32.1250  -14.6470   20.9000 O   0  0  0  0  0  0  0  0  0  0  0  0
  -30.1300  -15.6100   21.2860 N   0  0  0  0  0  0  0  0  0  0  0  0
  -29.2050  -15.4050   21.6250 H   0  0  0  0  0  0  0  0  0  0  0  0
  -25.5160  -13.8670   20.7340 C   0  0  0  0  0  0  0  0  0  0  0  0
  -24.4000  -13.1160   20.9820 C   0  0  0  0  0  0  0  0  0  0  0  0
  -24.8420  -11.7560   21.0280 C   0  0  0  0  0  0  0  0  0  0  0  0
  -26.5690  -12.9710   20.6390 N   0  0  0  0  0  0  0  0  0  0  0  0
  -26.1590  -11.6990   20.8800 N   0  0  0  0  0  0  0  0  0  0  0  0
  -24.0860  -10.5050   21.1530 C   0  0  0  0  0  0  0  0  0  0  0  0
  -24.4370   -9.5220   22.1050 C   0  0  0  0  0  3  0  0  0  0  0  0
  -23.6820   -8.3360   22.2210 C   0  0  0  0  0  3  0  0  0  0  0  0
  -22.5610   -8.1240   21.3830 C   0  0  0  0  0  0  0  0  0  0  0  0
  -22.2330   -9.0930   20.4200 C   0  0  0  0  0  3  0  0  0  0  0  0
  -22.9870  -10.2710   20.3020 C   0  0  0  0  0  3  0  0  0  0  0  0
  -21.7830   -6.9920   21.4050 O   0  0  0  0  0  0  0  0  0  0  0  0
  -21.6770   -6.2140   22.5280 C   0  0  0  0  0  0  0  0  0  0  0  0
  -21.2060   -6.7320   23.7550 C   0  0  0  0  0  3  0  0  0  0  0  0
  -21.0510   -5.8780   24.8650 C   0  0  0  0  0  3  0  0  0  0  0  0
  -21.3510   -4.5070   24.7490 C   0  0  0  0  0  0  0  0  0  0  0  0
  -21.8180   -3.9910   23.5280 C   0  0  0  0  0  3  0  0  0  0  0  0
  -21.9760   -4.8420   22.4190 C   0  0  0  0  0  0  0  0  0  0  0  0
  -22.4030   -4.3330   21.2390 F   0  0  0  0  0  0  0  0  0  0  0  0
  -21.1960   -3.6860   25.8140 F   0  0  0  0  0  0  0  0  0  0  0  0
  -22.9890  -13.6140   21.0790 C   0  0  0  0  0  0  0  0  0  0  0  0
  -22.1620  -12.9560   21.8860 N   0  0  0  0  0  0  0  0  0  0  0  0
  -22.6210  -14.6230   20.4770 O   0  0  0  0  0  0  0  0  0  0  0  0
  -22.4690  -12.1330   22.3830 H   0  0  0  0  0  0  0  0  0  0  0  0
  -21.2100  -13.2760   22.0010 H   0  0  0  0  0  0  0  0  0  0  0  0
  -25.7300  -15.2340   20.5650 N   0  0  0  0  0  0  0  0  0  0  0  0
  -24.9860  -15.9190   20.6280 H   0  0  0  0  0  0  0  0  0  0  0  0
  -26.6330  -15.6490   20.3890 H   0  0  0  0  0  0  0  0  0  0  0  0
  2  1  1  0
  3  6  1  0
  3  2  1  0
  6  5  1  6
  6  7  1  0
  6  4  1  0
  8 10  1  0
  8  7  1  0
  9 20  2  0
 10 15  1  0
 11 19  1  0
 11 21  1  0
 12 18  1  0
 12 14  1  0
 13 19  1  0
 14 13  1  0
 15 14  2  0
 16 17  1  0
 16 10  2  0
 17 12  2  0
 18 11  1  0
 19  9  1  0
 21 23  2  0
 22 21  1  0
 24 22  1  0
 25 34  2  0
 25 30  1  0
 26 22  1  0
 26 30  1  0
 27 26  1  0
 28 29  1  0
 28 27  1  0
 29 25  1  0
 30 31  2  0
 31 32  1  0
 33 32  2  0
 34 33  1  0
 35  9  1  0
 35 36  1  0
 35 45  1  0
 36 39  1  0
 37 41  1  0
 37 36  1  0
 38 37  2  0
 41 40  1  0
 43 41  1  0
 43 44  1  0
 43 42  1  0
 45 48  1  1
 45 46  1  0
 47 45  1  0
 49  2  1  0
 49 50  1  0
 51 54  2  0
 51 52  1  0
 52 56  2  0
 54 55  1  0
 55 66  1  0
 55 53  2  0
 56 53  1  0
 56 50  1  0
 57 54  1  0
 58 66  1  0
 59 64  1  0
 60 61  1  0
 60 59  1  0
 62 61  1  0
 62 71  1  0
 62 63  1  0
 64 58  1  0
 64 63  1  0
 65 58  2  0
 66 67  1  0
 68 69  2  0
 69 70  1  0
 69 88  1  0
 70 73  1  0
 71 68  1  0
 71 72  1  0
 72 70  2  0
 73 74  1  0
 74 75  2  0
 76 79  1  0
 76 75  1  0
 77 76  2  0
 78 77  1  0
 78 73  2  0
 79 80  1  0
 80 81  1  0
 81 82  2  0
 83 82  1  0
 83 87  1  0
 84 83  2  0
 85 80  2  0
 85 84  1  0
 86 85  1  0
 88 89  1  0
 89 92  1  0
 89 91  1  0
 90 88  2  0
 93 94  1  0
 93 68  1  0
 95 93  1  0
M  ISO  4   7 101   8 101  58 100  66 100
M  END
>  <TORSDO>  (86) 
F 22

>  <SCORE>  (86) 
-11.876

>  <name>  (86) 
85

>  <ligand_id>  (86) 
85

>  <original_smiles>  (86) 
[H]c1c([H])c([H])c2c(c1[H])C([H])([H])C([H])([H])C([H])([H])C2([H])N([H])C(=O)C1([H])N(C(=O)C([H])(N([H])C(=O)C([H])(N([H])C([H])([H])[H])C([H])([H])[H])C(C([H])([H])[H])(C([H])([H])[H])C([H])([H])[H])C([H])([H])c2c([H])c(OC([H])([H])C(C([H])([H])[H])(C([H])([H])[H])C([H])([H])C([H])(C([H])([H])[H])C([H])([H])Oc3c([H])c([H])c(C([H])([H])[H])c(N([H])C(=O)N4C([H])([H])C([H])([H])C([H])([H])C([H])(n5nc(-c6c([H])c([H])c(Oc7c([H])c([H])c(F)c([H])c7F)c([H])c6[H])c(C(=O)N([H])[H])c5N([H])[H])C4([H])[H])c3[H])c([H])c([H])c2C1([H])[H]

>  <smiles>  (86) 
[H]c1c([H])c([H])c2c(c1[H])C([H])([H])C([H])([H])C([H])([H])C2([H])N([H])C(=O)C1([H])N(C(=O)C([H])(N([H])C(=O)C([H])(N([H])C([H])([H])[H])C([H])([H])[H])C(C([H])([H])[H])(C([H])([H])[H])C([H])([H])[H])C([H])([H])c2c([H])c(OC([H])([H])C(C([H])([H])[H])(C([H])([H])[H])C([H])([H])C([H])(C([H])([H])[H])C([H])([H])Oc3c([H])c([H])c(C([H])([H])[H])c(N([H])C(=O)N4C([H])([H])C([H])([H])C([H])([H])C([H])(n5nc(-c6c([H])c([H])c(Oc7c([H])c([H])c(F)c([H])c7F)c([H])c6[H])c(C(=O)N([H])[H])c5N([H])[H])C4([H])[H])c3[H])c([H])c([H])c2C1([H])[H]

$$$$
86:0:0
     RDKit          3D

 96104  0  0  1  0  0  0  0  0999 V2000
  -27.6600  -19.2930   19.2020 C   0  0  0  0  0  3  0  0  0  0  0  0
  -28.6960  -20.5330   21.0010 C   0  0  0  0  0  3  0  0  0  0  0  0
  -27.0530  -20.4750   18.7270 C   0  0  0  0  0  0  0  0  0  0  0  0
  -27.2420  -21.7150   19.4060 C   0  0  0  0  0  0  0  0  0  0  0  0
  -28.5070  -19.2900   20.3310 C   0  0  0  0  0  0  0  0  0  0  0  0
  -28.1120  -21.7530   20.5370 C   0  0  0  0  0  0  0  0  0  0  0  0
  -26.2340  -20.3580   17.4510 C   0  0  0  0  0  1  0  0  0  0  0  0
  -29.4330  -16.9160   20.1590 C   0  0  0  0  0  0  0  0  0  0  0  0
  -29.1170  -18.0710   20.8190 N   0  0  0  0  0  0  0  0  0  0  0  0
  -29.2830  -16.7730   18.9360 O   0  0  0  0  0  0  0  0  0  0  0  0
  -29.3520  -18.0710   21.8000 H   0  0  0  0  0  0  0  0  0  0  0  0
  -30.0130  -15.7490   21.0280 C   0  0  0  0  0  2  0  0  0  0  0  0
  -30.6630  -14.5810   20.1900 C   0  0  0  0  0  0  0  0  0  0  0  0
  -30.3810  -12.4390   18.9500 C   0  0  0  0  0  2  0  0  0  0  0  0
  -29.3780  -12.6740   17.7990 C   0  0  0  0  0  2  0  0  0  0  0  0
  -27.9250  -12.5200   18.2920 C   0  0  0  0  0  2  0  0  0  0  0  0
  -27.6520  -13.2900   19.6130 C   0  0  0  0  0  3  0  0  0  0  0  0
  -28.7530  -12.9870   20.6480 C   0  0  0  0  0  2  0  0  0  0  0  0
  -30.0360  -13.3720   20.0410 N   0  0  0  0  0  0  0  0  0  0  0  0
  -31.7590  -14.7760   19.6480 O   0  0  0  0  0  0  0  0  0  0  0  0
  -25.2870  -13.8890   20.4210 C   0  0  0  0  0  0  0  0  0  0  0  0
  -24.2350  -13.1130   20.8370 C   0  0  0  0  0  0  0  0  0  0  0  0
  -24.6890  -11.7620   20.7710 C   0  0  0  0  0  0  0  0  0  0  0  0
  -26.3190  -13.0070   20.1400 N   0  0  0  0  0  0  0  0  0  0  0  0
  -25.9650  -11.7220   20.4030 N   0  0  0  0  0  0  0  0  0  0  0  0
  -23.9690  -10.4990   20.9730 C   0  0  0  0  0  0  0  0  0  0  0  0
  -24.4200   -9.5330   21.8980 C   0  0  0  0  0  3  0  0  0  0  0  0
  -23.7020   -8.3320   22.0880 C   0  0  0  0  0  3  0  0  0  0  0  0
  -22.5180   -8.0910   21.3530 C   0  0  0  0  0  0  0  0  0  0  0  0
  -22.0870   -9.0430   20.4140 C   0  0  0  0  0  3  0  0  0  0  0  0
  -22.8050  -10.2350   20.2230 C   0  0  0  0  0  3  0  0  0  0  0  0
  -21.7720   -6.9410   21.4520 O   0  0  0  0  0  0  0  0  0  0  0  0
  -21.7160   -6.2140   22.6140 C   0  0  0  0  0  0  0  0  0  0  0  0
  -21.2700   -6.7810   23.8270 C   0  0  0  0  0  3  0  0  0  0  0  0
  -21.1650   -5.9800   24.9820 C   0  0  0  0  0  3  0  0  0  0  0  0
  -21.4980   -4.6120   24.9260 C   0  0  0  0  0  0  0  0  0  0  0  0
  -21.9340   -4.0460   23.7150 C   0  0  0  0  0  3  0  0  0  0  0  0
  -22.0400   -4.8440   22.5630 C   0  0  0  0  0  0  0  0  0  0  0  0
  -22.4430   -4.2870   21.3970 F   0  0  0  0  0  0  0  0  0  0  0  0
  -21.3900   -3.8410   26.0310 F   0  0  0  0  0  0  0  0  0  0  0  0
  -22.8530  -13.5910   21.1750 C   0  0  0  0  0  0  0  0  0  0  0  0
  -22.1510  -12.8840   22.0590 N   0  0  0  0  0  0  0  0  0  0  0  0
  -22.3980  -14.6250   20.6880 O   0  0  0  0  0  0  0  0  0  0  0  0
  -22.5270  -12.0470   22.4780 H   0  0  0  0  0  0  0  0  0  0  0  0
  -21.2250  -13.1920   22.3170 H   0  0  0  0  0  0  0  0  0  0  0  0
  -25.4520  -15.2560   20.2340 N   0  0  0  0  0  0  0  0  0  0  0  0
  -24.6670  -15.9000   20.2760 H   0  0  0  0  0  0  0  0  0  0  0  0
  -26.2560  -15.6520   19.7580 H   0  0  0  0  0  0  0  0  0  0  0  0
  -26.4040  -22.9380   18.9970 C   0  0  0  0  0  2  0  0  0  0  0  0
  -25.7550  -24.4870   17.0520 C   0  0  0  0  0  1  0  0  0  0  0  0
  -26.8840  -23.7060   17.7440 C   0  0  0  0  0  2  0  0  0  0  0  0
  -28.3350  -22.9040   21.2840 O   0  0  0  0  0  0  0  0  0  0  0  0
  -28.9760  -24.0530   20.6750 C   0  0  0  0  0  2  0  0  0  0  0  0
  -28.7250  -25.6940   22.6330 C   0  0  0  0  0  1  0  0  0  0  0  0
  -28.3150  -25.3720   21.1910 C   0  0  0  0  0  3  0  0  0  0  0  0
  -28.5530  -26.5750   20.4060 O   0  0  0  0  0  0  0  0  0  0  0  0
  -24.7130  -31.8940   23.2540 C   0  0  0  0  0  0  0  0  0  0  0  0
  -27.4410  -27.3940   20.3140 C   0  0  0  0  0  0  0  0  0  0  0  0
  -23.5570  -30.4580   21.6070 C   0  0  0  0  0  3  0  0  0  0  0  0
  -25.0540  -28.9110   20.2360 C   0  0  0  0  0  0  0  0  0  0  0  0
  -26.0880  -30.8240   21.4680 C   0  0  0  0  0  2  0  0  0  0  0  0
  -26.1980  -29.4420   20.8480 C   0  0  0  0  0  0  0  0  0  0  0  0
  -27.4010  -28.6920   20.8820 C   0  0  0  0  0  3  0  0  0  0  0  0
  -26.2900  -26.8970   19.6730 C   0  0  0  0  0  3  0  0  0  0  0  0
  -25.0960  -27.6390   19.6390 C   0  0  0  0  0  3  0  0  0  0  0  0
  -23.8060  -29.7650   20.2410 C   0  0  0  0  0  2  0  0  0  0  0  0
  -24.8020  -31.0740   22.1690 N   0  0  0  0  0  0  0  0  0  0  0  0
  -23.6160  -32.1710   23.7610 O   0  0  0  0  0  0  0  0  0  0  0  0
  -22.8880  -29.4480   22.5700 C   0  0  0  0  0  0  0  0  0  0  0  0
  -21.5650  -29.2630   22.4220 N   0  0  0  0  0  0  0  0  0  0  0  0
  -23.5570  -28.8380   23.4080 O   0  0  0  0  0  0  0  0  0  0  0  0
  -21.0840  -29.8260   21.7360 H   0  0  0  0  0  0  0  0  0  0  0  0
  -18.1830  -28.0620   22.8650 C   0  0  0  0  0  0  0  0  0  0  0  0
  -20.7340  -28.3320   23.1850 C   0  0  0  0  0  3  0  0  0  0  0  0
  -20.8490  -26.8900   22.6340 C   0  0  0  0  0  2  0  0  0  0  0  0
  -19.7690  -26.5490   21.6020 C   0  0  0  0  0  2  0  0  0  0  0  0
  -18.3730  -26.7020   22.2150 C   0  0  0  0  0  2  0  0  0  0  0  0
  -19.2900  -28.8330   23.3070 C   0  0  0  0  0  0  0  0  0  0  0  0
  -19.0570  -30.1050   23.8750 C   0  0  0  0  0  3  0  0  0  0  0  0
  -17.7480  -30.6070   24.0010 C   0  0  0  0  0  3  0  0  0  0  0  0
  -16.6540  -29.8320   23.5780 C   0  0  0  0  0  3  0  0  0  0  0  0
  -16.8720  -28.5620   23.0170 C   0  0  0  0  0  3  0  0  0  0  0  0
  -25.9780  -32.5490   23.8940 C   0  0  0  0  0  3  0  0  0  0  0  0
  -25.6460  -33.9460   24.2030 N   0  0  0  0  0  0  0  0  0  0  0  0
  -25.9810  -34.9950   23.4380 C   0  0  0  0  0  0  0  0  0  0  0  0
  -26.6710  -34.8870   22.4220 O   0  0  0  0  0  0  0  0  0  0  0  0
  -25.0340  -34.1020   24.9890 H   0  0  0  0  0  0  0  0  0  0  0  0
  -24.2410  -36.7660   23.0320 C   0  0  0  0  0  1  0  0  0  0  0  0
  -25.4710  -36.3830   23.8700 C   0  0  0  0  0  3  0  0  0  0  0  0
  -27.5820  -37.2990   24.7270 C   0  0  0  0  0  1  0  0  0  0  0  0
  -26.4950  -37.4460   23.7640 N   0  0  0  0  0  0  0  0  0  0  0  0
  -26.0750  -38.3620   23.8950 H   0  0  0  0  0  0  0  0  0  0  0  0
  -26.4810  -31.7940   25.1850 C   0  0  1  0  0  0  0  0  0  0  0  0
  -25.3760  -31.5520   26.2390 C   0  0  0  0  0  1  0  0  0  0  0  0
  -27.0880  -30.4210   24.8140 C   0  0  0  0  0  1  0  0  0  0  0  0
  -27.6110  -32.6100   25.8600 C   0  0  0  0  0  1  0  0  0  0  0  0
  1  5  1  0
  3  1  2  0
  3  4  1  0
  4  6  2  0
  5  9  1  0
  5  2  2  0
  6  2  1  0
  6 52  1  0
  7  3  1  0
  8  9  1  0
  8 12  1  0
  9 11  1  0
 10  8  2  0
 13 12  1  0
 14 19  1  0
 15 16  1  0
 15 14  1  0
 17 16  1  0
 17 24  1  0
 17 18  1  0
 19 13  1  0
 19 18  1  0
 20 13  2  0
 21 22  2  0
 22 41  1  0
 23 22  1  0
 23 26  1  0
 24 25  1  0
 24 21  1  0
 25 23  2  0
 26 27  1  0
 27 28  2  0
 29 32  1  0
 29 28  1  0
 30 29  2  0
 31 30  1  0
 31 26  2  0
 32 33  1  0
 33 34  1  0
 34 35  2  0
 36 35  1  0
 36 40  1  0
 37 36  2  0
 38 33  2  0
 38 37  1  0
 39 38  1  0
 41 42  1  0
 42 45  1  0
 42 44  1  0
 43 41  2  0
 46 47  1  0
 46 21  1  0
 48 46  1  0
 49  4  1  0
 50 51  1  0
 51 49  1  0
 53 55  1  0
 53 52  1  0
 55 54  1  0
 56 55  1  0
 57 68  2  0
 58 56  1  0
 58 63  1  0
 59 67  1  0
 59 69  1  0
 60 66  1  0
 60 62  1  0
 61 67  1  0
 62 63  2  0
 62 61  1  0
 64 58  2  0
 65 64  1  0
 65 60  2  0
 66 59  1  0
 67 57  1  0
 69 71  2  0
 70 69  1  0
 72 70  1  0
 73 82  2  0
 73 78  1  0
 74 70  1  0
 74 78  1  0
 75 74  1  0
 76 77  1  0
 76 75  1  0
 77 73  1  0
 78 79  2  0
 79 80  1  0
 81 80  2  0
 82 81  1  0
 83 57  1  0
 83 84  1  0
 83 93  1  0
 84 87  1  0
 85 89  1  0
 85 84  1  0
 86 85  2  0
 89 88  1  0
 91 89  1  0
 91 92  1  0
 91 90  1  0
 93 96  1  1
 93 94  1  0
 95 93  1  0
M  ISO  4  12 100  13 100  55 101  56 101
M  END
>  <TORSDO>  (87) 
F 23

>  <SCORE>  (87) 
-13.215

>  <name>  (87) 
86

>  <ligand_id>  (87) 
86

>  <original_smiles>  (87) 
[H]c1c([H])c([H])c2c(c1[H])C([H])([H])C([H])([H])C([H])([H])C2([H])N([H])C(=O)C1([H])N(C(=O)C([H])(N([H])C(=O)C([H])(N([H])C([H])([H])[H])C([H])([H])[H])C(C([H])([H])[H])(C([H])([H])[H])C([H])([H])[H])C([H])([H])c2c([H])c(OC([H])(C([H])([H])[H])C([H])([H])Oc3c([H])c(N([H])C(=O)C([H])([H])C(=O)N4C([H])([H])C([H])([H])C([H])([H])C([H])(n5nc(-c6c([H])c([H])c(Oc7c([H])c([H])c(F)c([H])c7F)c([H])c6[H])c(C(=O)N([H])[H])c5N([H])[H])C4([H])[H])c([H])c(C([H])([H])[H])c3C([H])([H])C([H])([H])C([H])([H])[H])c([H])c([H])c2C1([H])[H]

>  <smiles>  (87) 
[H]c1c([H])c([H])c2c(c1[H])C([H])([H])C([H])([H])C([H])([H])C2([H])N([H])C(=O)C1([H])N(C(=O)C([H])(N([H])C(=O)C([H])(N([H])C([H])([H])[H])C([H])([H])[H])C(C([H])([H])[H])(C([H])([H])[H])C([H])([H])[H])C([H])([H])c2c([H])c(OC([H])(C([H])([H])[H])C([H])([H])Oc3c([H])c(N([H])C(=O)C([H])([H])C(=O)N4C([H])([H])C([H])([H])C([H])([H])C([H])(n5nc(-c6c([H])c([H])c(Oc7c([H])c([H])c(F)c([H])c7F)c([H])c6[H])c(C(=O)N([H])[H])c5N([H])[H])C4([H])[H])c([H])c(C([H])([H])[H])c3C([H])([H])C([H])([H])C([H])([H])[H])c([H])c([H])c2C1([H])[H]

$$$$
87:0:0
     RDKit          3D

 93101  0  0  1  0  0  0  0  0999 V2000
  -28.9420  -22.3630   20.5340 C   0  0  0  0  0  2  0  0  0  0  0  0
  -30.5860  -24.3180   20.8010 C   0  0  0  0  0  1  0  0  0  0  0  0
  -29.2720  -23.9080   20.1070 C   0  0  1  0  0  0  0  0  0  0  0  0
  -30.6580  -23.6140   17.8540 C   0  0  0  0  0  1  0  0  0  0  0  0
  -29.3680  -24.0740   18.5600 C   0  0  0  0  0  2  0  0  0  0  0  0
  -28.1700  -25.0020   20.5570 C   0  0  0  0  0  2  0  0  0  0  0  0
  -28.4020  -26.4700   20.3360 O   0  0  0  0  0  0  0  0  0  0  0  0
  -24.6340  -31.9310   23.2530 C   0  0  0  0  0  0  0  0  0  0  0  0
  -27.2880  -27.3350   20.2780 C   0  0  0  0  0  0  0  0  0  0  0  0
  -23.4480  -30.5070   21.6200 C   0  0  0  0  0  3  0  0  0  0  0  0
  -24.9200  -28.9510   20.2190 C   0  0  0  0  0  0  0  0  0  0  0  0
  -25.9890  -30.8400   21.4460 C   0  0  0  0  0  2  0  0  0  0  0  0
  -26.0830  -29.4510   20.8190 C   0  0  0  0  0  0  0  0  0  0  0  0
  -27.2720  -28.6560   20.8360 C   0  0  0  0  0  3  0  0  0  0  0  0
  -26.1040  -26.9030   19.6400 C   0  0  0  0  0  3  0  0  0  0  0  0
  -24.9340  -27.6830   19.6200 C   0  0  0  0  0  3  0  0  0  0  0  0
  -23.6790  -29.8200   20.2470 C   0  0  0  0  0  2  0  0  0  0  0  0
  -24.7090  -31.1110   22.1630 N   0  0  0  0  0  0  0  0  0  0  0  0
  -23.5460  -32.2090   23.7770 O   0  0  0  0  0  0  0  0  0  0  0  0
  -22.7880  -29.4930   22.5900 C   0  0  0  0  0  0  0  0  0  0  0  0
  -21.4650  -29.2960   22.4500 N   0  0  0  0  0  0  0  0  0  0  0  0
  -23.4640  -28.8930   23.4290 O   0  0  0  0  0  0  0  0  0  0  0  0
  -20.9790  -29.8370   21.7490 H   0  0  0  0  0  0  0  0  0  0  0  0
  -18.1090  -28.0220   22.8970 C   0  0  0  0  0  0  0  0  0  0  0  0
  -20.6510  -28.3590   23.2280 C   0  0  0  0  0  3  0  0  0  0  0  0
  -20.8060  -26.9140   22.7000 C   0  0  0  0  0  2  0  0  0  0  0  0
  -19.7420  -26.5330   21.6660 C   0  0  0  0  0  2  0  0  0  0  0  0
  -18.3400  -26.6600   22.2650 C   0  0  0  0  0  2  0  0  0  0  0  0
  -19.1950  -28.8260   23.3340 C   0  0  0  0  0  0  0  0  0  0  0  0
  -18.9250  -30.0990   23.8810 C   0  0  0  0  0  3  0  0  0  0  0  0
  -17.6040  -30.5700   23.9950 C   0  0  0  0  0  3  0  0  0  0  0  0
  -16.5330  -29.7630   23.5740 C   0  0  0  0  0  3  0  0  0  0  0  0
  -16.7850  -28.4900   23.0330 C   0  0  0  0  0  3  0  0  0  0  0  0
  -25.9090  -32.5830   23.8740 C   0  0  0  0  0  3  0  0  0  0  0  0
  -25.5840  -33.9810   24.1910 N   0  0  0  0  0  0  0  0  0  0  0  0
  -25.9180  -35.0330   23.4300 C   0  0  0  0  0  0  0  0  0  0  0  0
  -26.6030  -34.9250   22.4090 O   0  0  0  0  0  0  0  0  0  0  0  0
  -24.9780  -34.1360   24.9840 H   0  0  0  0  0  0  0  0  0  0  0  0
  -24.1840  -36.8060   23.0380 C   0  0  0  0  0  1  0  0  0  0  0  0
  -25.4150  -36.4200   23.8730 C   0  0  0  0  0  3  0  0  0  0  0  0
  -27.5330  -37.3110   24.7300 C   0  0  0  0  0  1  0  0  0  0  0  0
  -26.4420  -37.4800   23.7750 N   0  0  0  0  0  0  0  0  0  0  0  0
  -26.0270  -38.3970   23.9280 H   0  0  0  0  0  0  0  0  0  0  0  0
  -26.4260  -31.8300   25.1590 C   0  0  1  0  0  0  0  0  0  0  0  0
  -25.3290  -31.5900   26.2240 C   0  0  0  0  0  1  0  0  0  0  0  0
  -27.0260  -30.4570   24.7800 C   0  0  0  0  0  1  0  0  0  0  0  0
  -27.5620  -32.6460   25.8200 C   0  0  0  0  0  1  0  0  0  0  0  0
  -29.6670  -21.0970   19.8280 C   0  0  0  0  0  2  0  0  0  0  0  0
  -30.5380  -19.7580   21.8500 C   0  0  0  0  0  3  0  0  0  0  0  0
  -30.9750  -18.5820   22.4960 C   0  0  0  0  0  3  0  0  0  0  0  0
  -29.8190  -18.4070   19.9640 C   0  0  0  0  0  3  0  0  0  0  0  0
  -29.9600  -19.7210   20.5640 C   0  0  0  0  0  0  0  0  0  0  0  0
  -30.8560  -17.3080   21.8930 C   0  0  0  0  0  0  0  0  0  0  0  0
  -30.2660  -17.1830   20.6050 C   0  0  0  0  0  0  0  0  0  0  0  0
  -31.3350  -16.0940   22.6830 C   0  0  0  0  0  1  0  0  0  0  0  0
  -30.7710  -14.7350   19.8860 C   0  0  0  0  0  0  0  0  0  0  0  0
  -30.4660  -12.4910   18.8380 C   0  0  0  0  0  2  0  0  0  0  0  0
  -29.4590  -12.6200   17.6760 C   0  0  0  0  0  2  0  0  0  0  0  0
  -28.0130  -12.4660   18.1990 C   0  0  0  0  0  2  0  0  0  0  0  0
  -27.7290  -13.3470   19.4440 C   0  0  0  0  0  3  0  0  0  0  0  0
  -28.8500  -13.2140   20.4980 C   0  0  0  0  0  2  0  0  0  0  0  0
  -30.1160  -13.5340   19.8240 N   0  0  0  0  0  0  0  0  0  0  0  0
  -31.9440  -14.8410   19.5230 O   0  0  0  0  0  0  0  0  0  0  0  0
  -29.9770  -15.8450   20.0770 N   0  0  0  0  0  0  0  0  0  0  0  0
  -28.9950  -15.6350   20.0110 H   0  0  0  0  0  0  0  0  0  0  0  0
  -25.4110  -13.9850   20.3540 C   0  0  0  0  0  0  0  0  0  0  0  0
  -24.3520  -13.2300   20.7770 C   0  0  0  0  0  0  0  0  0  0  0  0
  -24.7760  -11.8690   20.6820 C   0  0  0  0  0  0  0  0  0  0  0  0
  -26.4110  -13.0860   20.0170 N   0  0  0  0  0  0  0  0  0  0  0  0
  -26.0390  -11.8060   20.2780 N   0  0  0  0  0  0  0  0  0  0  0  0
  -24.0330  -10.6200   20.8930 C   0  0  0  0  0  0  0  0  0  0  0  0
  -24.4820   -9.6380   21.8050 C   0  0  0  0  0  3  0  0  0  0  0  0
  -23.7400   -8.4550   22.0030 C   0  0  0  0  0  3  0  0  0  0  0  0
  -22.5350   -8.2440   21.2930 C   0  0  0  0  0  0  0  0  0  0  0  0
  -22.1050   -9.2140   20.3690 C   0  0  0  0  0  3  0  0  0  0  0  0
  -22.8470  -10.3890   20.1660 C   0  0  0  0  0  3  0  0  0  0  0  0
  -21.7620   -7.1130   21.4000 O   0  0  0  0  0  0  0  0  0  0  0  0
  -21.7140   -6.3840   22.5620 C   0  0  0  0  0  0  0  0  0  0  0  0
  -21.3140   -6.9590   23.7880 C   0  0  0  0  0  3  0  0  0  0  0  0
  -21.2090   -6.1570   24.9410 C   0  0  0  0  0  3  0  0  0  0  0  0
  -21.4940   -4.7810   24.8700 C   0  0  0  0  0  0  0  0  0  0  0  0
  -21.8880   -4.2060   23.6500 C   0  0  0  0  0  3  0  0  0  0  0  0
  -21.9960   -5.0050   22.5000 C   0  0  0  0  0  0  0  0  0  0  0  0
  -22.3540   -4.4410   21.3210 F   0  0  0  0  0  0  0  0  0  0  0  0
  -21.3880   -4.0080   25.9780 F   0  0  0  0  0  0  0  0  0  0  0  0
  -22.9870  -13.7370   21.1460 C   0  0  0  0  0  0  0  0  0  0  0  0
  -22.2990  -13.0470   22.0490 N   0  0  0  0  0  0  0  0  0  0  0  0
  -22.5410  -14.7800   20.6690 O   0  0  0  0  0  0  0  0  0  0  0  0
  -22.6730  -12.2050   22.4610 H   0  0  0  0  0  0  0  0  0  0  0  0
  -21.3830  -13.3670   22.3330 H   0  0  0  0  0  0  0  0  0  0  0  0
  -25.6000  -15.3550   20.2020 N   0  0  0  0  0  0  0  0  0  0  0  0
  -24.8600  -16.0220   20.3920 H   0  0  0  0  0  0  0  0  0  0  0  0
  -26.4180  -15.7820   19.7890 H   0  0  0  0  0  0  0  0  0  0  0  0
  3  1  1  0
  3  6  1  0
  3  2  1  1
  4  5  1  0
  5  3  1  0
  7  6  1  0
  8 19  2  0
  9  7  1  0
  9 14  1  0
 10 18  1  0
 10 20  1  0
 11 17  1  0
 11 13  1  0
 12 18  1  0
 13 14  2  0
 13 12  1  0
 15  9  2  0
 16 15  1  0
 16 11  2  0
 17 10  1  0
 18  8  1  0
 20 22  2  0
 21 20  1  0
 23 21  1  0
 24 33  2  0
 24 29  1  0
 25 21  1  0
 25 29  1  0
 26 25  1  0
 27 28  1  0
 27 26  1  0
 28 24  1  0
 29 30  2  0
 30 31  1  0
 32 31  2  0
 33 32  1  0
 34  8  1  0
 34 35  1  0
 34 44  1  0
 35 38  1  0
 36 40  1  0
 36 35  1  0
 37 36  2  0
 40 39  1  0
 42 40  1  0
 42 43  1  0
 42 41  1  0
 44 47  1  1
 44 45  1  0
 46 44  1  0
 48  1  1  0
 48 52  1  0
 49 50  1  0
 51 52  1  0
 51 54  2  0
 52 49  2  0
 53 50  2  0
 53 55  1  0
 54 53  1  0
 56 64  1  0
 57 62  1  0
 58 59  1  0
 58 57  1  0
 60 59  1  0
 60 69  1  0
 60 61  1  0
 62 56  1  0
 62 61  1  0
 63 56  2  0
 64 54  1  0
 65 64  1  0
 66 67  2  0
 67 86  1  0
 68 67  1  0
 68 71  1  0
 69 70  1  0
 69 66  1  0
 70 68  2  0
 71 72  1  0
 72 73  2  0
 74 77  1  0
 74 73  1  0
 75 74  2  0
 76 75  1  0
 76 71  2  0
 77 78  1  0
 78 79  1  0
 79 80  2  0
 81 80  1  0
 81 85  1  0
 82 81  2  0
 83 78  2  0
 83 82  1  0
 84 83  1  0
 86 87  1  0
 87 90  1  0
 87 89  1  0
 88 86  2  0
 91 66  1  0
 91 92  1  0
 93 91  1  0
M  ISO  4   6 101   7 101  56 100  64 100
M  END
>  <TORSDO>  (88) 
F 21

>  <SCORE>  (88) 
-12.499

>  <name>  (88) 
87

>  <ligand_id>  (88) 
87

>  <original_smiles>  (88) 
[H]c1c([H])c([H])c2c(c1[H])C([H])([H])C([H])([H])C([H])([H])C2([H])N([H])C(=O)C1([H])N(C(=O)C([H])(N([H])C(=O)C([H])(N([H])C([H])([H])[H])C([H])([H])[H])C(C([H])([H])[H])(C([H])([H])[H])C([H])([H])[H])C([H])([H])c2c([H])c(OC([H])([H])C(C([H])([H])[H])(C([H])([H])C([H])([H])[H])C([H])([H])C([H])([H])c3c([H])c([H])c(C([H])([H])[H])c(N([H])C(=O)N4C([H])([H])C([H])([H])C([H])([H])C([H])(n5nc(-c6c([H])c([H])c(Oc7c([H])c([H])c(F)c([H])c7F)c([H])c6[H])c(C(=O)N([H])[H])c5N([H])[H])C4([H])[H])c3[H])c([H])c([H])c2C1([H])[H]

>  <smiles>  (88) 
[H]c1c([H])c([H])c2c(c1[H])C([H])([H])C([H])([H])C([H])([H])C2([H])N([H])C(=O)C1([H])N(C(=O)C([H])(N([H])C(=O)C([H])(N([H])C([H])([H])[H])C([H])([H])[H])C(C([H])([H])[H])(C([H])([H])[H])C([H])([H])[H])C([H])([H])c2c([H])c(OC([H])([H])C(C([H])([H])[H])(C([H])([H])C([H])([H])[H])C([H])([H])C([H])([H])c3c([H])c([H])c(C([H])([H])[H])c(N([H])C(=O)N4C([H])([H])C([H])([H])C([H])([H])C([H])(n5nc(-c6c([H])c([H])c(Oc7c([H])c([H])c(F)c([H])c7F)c([H])c6[H])c(C(=O)N([H])[H])c5N([H])[H])C4([H])[H])c3[H])c([H])c([H])c2C1([H])[H]

$$$$
88:0:0
     RDKit          3D

 92 98  0  0  1  0  0  0  0  0999 V2000
  -32.4000  -23.5220   20.7740 C   0  0  0  0  0  2  0  0  0  0  0  0
  -31.7650  -21.0830   20.9020 C   0  0  0  0  0  2  0  0  0  0  0  0
  -31.4690  -22.3630   21.1730 C   0  0  0  0  0  0  0  0  0  0  0  0
  -30.1740  -22.7460   21.8860 C   0  0  0  0  0  2  0  0  0  0  0  0
  -28.8750  -22.9160   20.9540 C   0  0  0  0  0  1  0  0  0  0  0  0
  -28.1160  -25.4840   19.2880 O   0  0  0  0  0  1  0  0  0  0  0  0
  -24.5730  -32.1570   23.6010 C   0  0  0  0  0  0  0  0  0  0  0  0
  -27.3210  -27.0960   19.6760 C   0  0  0  0  0  0  0  0  0  0  0  0
  -23.4720  -30.9860   21.7520 C   0  0  0  0  0  3  0  0  0  0  0  0
  -25.0050  -29.5160   20.0870 C   0  0  0  0  0  0  0  0  0  0  0  0
  -26.0780  -31.0090   21.7150 C   0  0  0  0  0  2  0  0  0  0  0  0
  -26.2030  -29.6280   20.8040 C   0  0  0  0  0  0  0  0  0  0  0  0
  -27.2870  -28.4750   20.5790 C   0  0  0  0  0  3  0  0  0  0  0  0
  -26.0840  -27.4480   18.9680 C   0  0  0  0  0  3  0  0  0  0  0  0
  -25.0340  -28.4600   19.1500 C   0  0  0  0  0  3  0  0  0  0  0  0
  -23.7820  -30.4850   20.2970 C   0  0  0  0  0  2  0  0  0  0  0  0
  -24.7410  -31.4290   22.4180 N   0  0  0  0  0  0  0  0  0  0  0  0
  -23.4540  -32.3550   24.1150 O   0  0  0  0  0  0  0  0  0  0  0  0
  -22.7270  -29.8910   22.5740 C   0  0  0  0  0  0  0  0  0  0  0  0
  -21.4080  -29.6840   22.3730 N   0  0  0  0  0  0  0  0  0  0  0  0
  -23.3690  -29.2190   23.3820 O   0  0  0  0  0  0  0  0  0  0  0  0
  -20.9230  -30.2810   21.7180 H   0  0  0  0  0  0  0  0  0  0  0  0
  -18.1080  -28.1300   22.5910 C   0  0  0  0  0  0  0  0  0  0  0  0
  -20.6290  -28.5890   22.9770 C   0  0  0  0  0  3  0  0  0  0  0  0
  -20.8690  -27.2610   22.2200 C   0  0  0  0  0  2  0  0  0  0  0  0
  -19.8300  -26.9960   21.1240 C   0  0  0  0  0  2  0  0  0  0  0  0
  -18.4250  -26.9210   21.7260 C   0  0  0  0  0  2  0  0  0  0  0  0
  -19.1400  -28.9230   23.1630 C   0  0  0  0  0  0  0  0  0  0  0  0
  -18.7830  -30.0470   23.9400 C   0  0  0  0  0  3  0  0  0  0  0  0
  -17.4300  -30.3850   24.1420 C   0  0  0  0  0  3  0  0  0  0  0  0
  -16.4150  -29.5930   23.5770 C   0  0  0  0  0  3  0  0  0  0  0  0
  -16.7550  -28.4640   22.8100 C   0  0  0  0  0  3  0  0  0  0  0  0
  -25.7670  -32.7880   24.3870 C   0  0  0  0  0  3  0  0  0  0  0  0
  -25.4160  -34.1740   24.7970 N   0  0  0  0  0  0  0  0  0  0  0  0
  -25.8230  -35.3030   24.1970 C   0  0  0  0  0  0  0  0  0  0  0  0
  -26.5680  -35.2910   23.2150 O   0  0  0  0  0  0  0  0  0  0  0  0
  -24.7610  -34.2570   25.5600 H   0  0  0  0  0  0  0  0  0  0  0  0
  -24.1410  -37.1750   23.9430 C   0  0  0  0  0  1  0  0  0  0  0  0
  -25.3360  -36.6590   24.7650 C   0  0  0  0  0  3  0  0  0  0  0  0
  -27.4340  -37.4490   25.7810 C   0  0  0  0  0  1  0  0  0  0  0  0
  -26.3850  -37.7050   24.7980 N   0  0  0  0  0  0  0  0  0  0  0  0
  -25.9810  -38.6170   24.9950 H   0  0  0  0  0  0  0  0  0  0  0  0
  -26.1520  -31.9610   25.6790 C   0  0  1  0  0  0  0  0  0  0  0  0
  -24.9550  -31.6650   26.6160 C   0  0  0  0  0  1  0  0  0  0  0  0
  -26.7840  -30.6040   25.3070 C   0  0  0  0  0  1  0  0  0  0  0  0
  -27.2240  -32.7250   26.4920 C   0  0  0  0  0  1  0  0  0  0  0  0
  -32.1070  -24.1730   19.5260 O   0  0  0  0  0  0  0  0  0  0  0  0
  -28.8190  -22.8150   17.1780 C   0  0  0  0  0  2  0  0  0  0  0  0
  -29.5930  -24.1150   18.2850 C   0  0  0  0  0  2  0  0  0  0  0  0
  -31.7270  -21.7530   18.3190 C   0  0  0  0  0  2  0  0  0  0  0  0
  -29.6200  -21.2070   16.9970 C   0  0  0  0  0  3  0  0  0  0  0  0
  -30.8380  -20.3120   17.9030 C   0  0  0  0  0  2  0  0  0  0  0  0
  -31.2940  -23.4560   18.7000 C   0  0  0  0  0  3  0  0  0  0  0  0
  -28.8390  -20.3150   16.0600 C   0  0  0  0  0  1  0  0  0  0  0  0
  -31.5210  -16.5330   18.8800 C   0  0  0  0  0  0  0  0  0  0  0  0
  -31.7170  -13.5600   18.9680 C   0  0  0  0  0  2  0  0  0  0  0  0
  -30.9330  -12.4060   18.1860 C   0  0  0  0  0  2  0  0  0  0  0  0
  -29.5950  -12.0450   18.8310 C   0  0  0  0  0  2  0  0  0  0  0  0
  -28.9900  -13.3420   19.3770 C   0  0  0  0  0  3  0  0  0  0  0  0
  -29.9740  -14.3280   20.1440 C   0  0  0  0  0  2  0  0  0  0  0  0
  -31.0040  -15.0100   19.1990 N   0  0  0  0  0  0  0  0  0  0  0  0
  -32.7440  -16.1530   18.9240 O   0  0  0  0  0  0  0  0  0  0  0  0
  -30.9060  -18.2340   18.4220 N   0  0  0  0  0  2  0  0  0  0  0  0
  -29.9240  -18.0080   18.5150 H   0  0  0  0  0  0  0  0  0  0  0  0
  -26.8710  -14.2020   20.4170 C   0  0  0  0  0  0  0  0  0  0  0  0
  -25.6820  -13.6450   20.7850 C   0  0  0  0  0  0  0  0  0  0  0  0
  -25.8090  -12.2390   20.5520 C   0  0  0  0  0  0  0  0  0  0  0  0
  -27.6730  -13.1660   19.9930 N   0  0  0  0  0  0  0  0  0  0  0  0
  -27.0430  -11.9580   20.1160 N   0  0  0  0  0  0  0  0  0  0  0  0
  -24.7910  -11.1770   20.6710 C   0  0  0  0  0  0  0  0  0  0  0  0
  -24.9780  -10.0530   21.5080 C   0  0  0  0  0  3  0  0  0  0  0  0
  -23.9690   -9.0720   21.6320 C   0  0  0  0  0  3  0  0  0  0  0  0
  -22.7530   -9.2050   20.9200 C   0  0  0  0  0  0  0  0  0  0  0  0
  -22.5770  -10.3140   20.0730 C   0  0  0  0  0  3  0  0  0  0  0  0
  -23.5850  -11.2870   19.9480 C   0  0  0  0  0  3  0  0  0  0  0  0
  -21.7300   -8.2860   20.9560 O   0  0  0  0  0  0  0  0  0  0  0  0
  -21.4860   -7.5200   22.0680 C   0  0  0  0  0  0  0  0  0  0  0  0
  -21.1530   -8.1000   23.3120 C   0  0  0  0  0  3  0  0  0  0  0  0
  -20.8420   -7.2760   24.4120 C   0  0  0  0  0  3  0  0  0  0  0  0
  -20.8530   -5.8750   24.2700 C   0  0  0  0  0  0  0  0  0  0  0  0
  -21.1760   -5.2960   23.0300 C   0  0  0  0  0  3  0  0  0  0  0  0
  -21.4890   -6.1170   21.9320 C   0  0  0  0  0  0  0  0  0  0  0  0
  -21.7790   -5.5530   20.7350 F   0  0  0  0  0  0  0  0  0  0  0  0
  -20.5470   -5.0840   25.3250 F   0  0  0  0  0  0  0  0  0  0  0  0
  -24.4670  -14.4050   21.2250 C   0  0  0  0  0  0  0  0  0  0  0  0
  -23.6620  -13.8190   22.1030 N   0  0  0  0  0  0  0  0  0  0  0  0
  -24.2580  -15.5530   20.8340 O   0  0  0  0  0  0  0  0  0  0  0  0
  -23.8490  -12.8860   22.4400 H   0  0  0  0  0  0  0  0  0  0  0  0
  -22.8470  -14.3080   22.4420 H   0  0  0  0  0  0  0  0  0  0  0  0
  -27.3310  -15.5140   20.3680 N   0  0  0  0  0  0  0  0  0  0  0  0
  -26.7420  -16.3030   20.6090 H   0  0  0  0  0  0  0  0  0  0  0  0
  -28.2380  -15.7870   20.0080 H   0  0  0  0  0  0  0  0  0  0  0  0
  1  3  1  0
  2  3  2  0
  3  4  1  0
  5  4  1  0
  6  8  1  0
  7 18  2  0
  8 13  1  0
  9 17  1  0
  9 19  1  0
 10 16  1  0
 10 12  1  0
 11 17  1  0
 12 11  1  0
 13 12  2  0
 14 15  1  0
 14  8  2  0
 15 10  2  0
 16  9  1  0
 17  7  1  0
 19 21  2  0
 20 19  1  0
 22 20  1  0
 23 32  2  0
 23 28  1  0
 24 20  1  0
 24 28  1  0
 25 24  1  0
 26 27  1  0
 26 25  1  0
 27 23  1  0
 28 29  2  0
 29 30  1  0
 31 30  2  0
 32 31  1  0
 33  7  1  0
 33 34  1  0
 33 43  1  0
 34 37  1  0
 35 39  1  0
 35 34  1  0
 36 35  2  0
 39 38  1  0
 39 41  1  0
 41 42  1  0
 41 40  1  0
 43 46  1  1
 43 44  1  0
 45 43  1  0
 47  1  1  0
 48 49  1  0
 49 53  1  0
 50 53  1  0
 51 54  1  0
 51 48  1  0
 51 52  1  0
 52 50  1  0
 53 47  1  0
 55 62  2  0
 55 61  1  0
 56 61  1  0
 57 58  1  0
 57 56  1  0
 59 58  1  0
 59 68  1  0
 59 60  1  0
 61 60  1  0
 63 64  1  0
 63 55  1  0
 65 66  2  0
 66 85  1  0
 67 70  1  0
 67 66  1  0
 68 69  1  0
 68 65  1  0
 69 67  2  0
 70 71  1  0
 71 72  2  0
 73 76  1  0
 73 72  1  0
 74 73  2  0
 75 74  1  0
 75 70  2  0
 76 77  1  0
 77 78  1  0
 78 79  2  0
 80 79  1  0
 80 84  1  0
 81 80  2  0
 82 77  2  0
 82 81  1  0
 83 82  1  0
 85 86  1  0
 86 88  1  0
 86 89  1  0
 87 85  2  0
 90 65  1  0
 90 91  1  0
 92 90  1  0
M  ISO  4   5 101   6 101  55 100  63 100
M  END
>  <TORSDO>  (89) 
F 21

>  <SCORE>  (89) 
-10.473

>  <name>  (89) 
88

>  <ligand_id>  (89) 
88

>  <original_smiles>  (89) 
[H]C([H])=C(C([H])([H])Oc1c([H])c([H])c(C([H])([H])[H])c(N([H])C(=O)N2C([H])([H])C([H])([H])C([H])([H])C([H])(n3nc(-c4c([H])c([H])c(Oc5c([H])c([H])c(F)c([H])c5F)c([H])c4[H])c(C(=O)N([H])[H])c3N([H])[H])C2([H])[H])c1[H])C([H])([H])C([H])([H])Oc1c([H])c([H])c2c(c1[H])C([H])([H])N(C(=O)C([H])(N([H])C(=O)C([H])(N([H])C([H])([H])[H])C([H])([H])[H])C(C([H])([H])[H])(C([H])([H])[H])C([H])([H])[H])C([H])(C(=O)N([H])C1([H])c3c([H])c([H])c([H])c([H])c3C([H])([H])C([H])([H])C1([H])[H])C2([H])[H]

>  <smiles>  (89) 
[H]C([H])=C(C([H])([H])Oc1c([H])c([H])c(C([H])([H])[H])c(N([H])C(=O)N2C([H])([H])C([H])([H])C([H])([H])C([H])(n3nc(-c4c([H])c([H])c(Oc5c([H])c([H])c(F)c([H])c5F)c([H])c4[H])c(C(=O)N([H])[H])c3N([H])[H])C2([H])[H])c1[H])C([H])([H])C([H])([H])Oc1c([H])c([H])c2c(c1[H])C([H])([H])N(C(=O)C([H])(N([H])C(=O)C([H])(N([H])C([H])([H])[H])C([H])([H])[H])C(C([H])([H])[H])(C([H])([H])[H])C([H])([H])[H])C([H])(C(=O)N([H])C1([H])c3c([H])c([H])c([H])c([H])c3C([H])([H])C([H])([H])C1([H])[H])C2([H])[H]

$$$$
89:0:0
     RDKit          3D

 94102  0  0  1  0  0  0  0  0999 V2000
  -31.4610  -18.4380   20.7850 C   0  0  0  0  0  3  0  0  0  0  0  0
  -31.1180  -20.8590   20.9220 C   0  0  0  0  0  3  0  0  0  0  0  0
  -31.9660  -19.7350   21.0080 C   0  0  0  0  0  0  0  0  0  0  0  0
  -30.1050  -18.2370   20.4600 C   0  0  0  0  0  0  0  0  0  0  0  0
  -29.2440  -19.3890   20.3990 C   0  0  0  0  0  0  0  0  0  0  0  0
  -29.7440  -20.7140   20.6270 C   0  0  0  0  0  0  0  0  0  0  0  0
  -33.4410  -19.9340   21.3000 C   0  0  0  0  0  1  0  0  0  0  0  0
  -27.7720  -19.2170   20.0460 C   0  0  0  0  0  1  0  0  0  0  0  0
  -29.6510  -16.8150   20.0180 C   0  0  0  0  0  2  0  0  0  0  0  0
  -30.7250  -14.5740   20.4130 C   0  0  0  0  0  0  0  0  0  0  0  0
  -30.5070  -12.3540   19.3560 C   0  0  0  0  0  2  0  0  0  0  0  0
  -29.5910  -12.5150   18.1210 C   0  0  0  0  0  2  0  0  0  0  0  0
  -28.1090  -12.3670   18.5180 C   0  0  0  0  0  2  0  0  0  0  0  0
  -27.7350  -13.2320   19.7510 C   0  0  0  0  0  3  0  0  0  0  0  0
  -28.7660  -13.0510   20.8920 C   0  0  0  0  0  2  0  0  0  0  0  0
  -30.1020  -13.3600   20.3560 N   0  0  0  0  0  0  0  0  0  0  0  0
  -31.8440  -14.7650   19.9300 O   0  0  0  0  0  0  0  0  0  0  0  0
  -29.9590  -15.6100   20.8350 N   0  0  0  0  0  0  0  0  0  0  0  0
  -29.1830  -15.3130   21.4070 H   0  0  0  0  0  0  0  0  0  0  0  0
  -25.3180  -13.8470   20.3880 C   0  0  0  0  0  0  0  0  0  0  0  0
  -24.2440  -13.0810   20.7510 C   0  0  0  0  0  0  0  0  0  0  0  0
  -24.7080  -11.7300   20.7600 C   0  0  0  0  0  0  0  0  0  0  0  0
  -26.3700  -12.9620   20.2020 N   0  0  0  0  0  0  0  0  0  0  0  0
  -26.0050  -11.6860   20.4820 N   0  0  0  0  0  0  0  0  0  0  0  0
  -23.9790  -10.4700   20.9620 C   0  0  0  0  0  0  0  0  0  0  0  0
  -24.4010   -9.5190   21.9180 C   0  0  0  0  0  3  0  0  0  0  0  0
  -23.6730   -8.3240   22.1060 C   0  0  0  0  0  3  0  0  0  0  0  0
  -22.5120   -8.0720   21.3390 C   0  0  0  0  0  0  0  0  0  0  0  0
  -22.1100   -9.0130   20.3740 C   0  0  0  0  0  3  0  0  0  0  0  0
  -22.8370  -10.1990   20.1840 C   0  0  0  0  0  3  0  0  0  0  0  0
  -21.7570   -6.9280   21.4350 O   0  0  0  0  0  0  0  0  0  0  0  0
  -21.6970   -6.2000   22.5970 C   0  0  0  0  0  0  0  0  0  0  0  0
  -21.2660   -6.7730   23.8140 C   0  0  0  0  0  3  0  0  0  0  0  0
  -21.1540   -5.9730   24.9680 C   0  0  0  0  0  3  0  0  0  0  0  0
  -21.4620   -4.6010   24.9070 C   0  0  0  0  0  0  0  0  0  0  0  0
  -21.8860   -4.0280   23.6950 C   0  0  0  0  0  3  0  0  0  0  0  0
  -22.0000   -4.8250   22.5430 C   0  0  0  0  0  0  0  0  0  0  0  0
  -22.3890   -4.2630   21.3730 F   0  0  0  0  0  0  0  0  0  0  0  0
  -21.3480   -3.8300   26.0120 F   0  0  0  0  0  0  0  0  0  0  0  0
  -22.8390  -13.5610   20.9850 C   0  0  0  0  0  0  0  0  0  0  0  0
  -22.0960  -12.8860   21.8540 N   0  0  0  0  0  0  0  0  0  0  0  0
  -22.4100  -14.5720   20.4300 O   0  0  0  0  0  0  0  0  0  0  0  0
  -22.4570  -12.0680   22.3250 H   0  0  0  0  0  0  0  0  0  0  0  0
  -21.1540  -13.1900   22.0520 H   0  0  0  0  0  0  0  0  0  0  0  0
  -25.4840  -15.2130   20.1800 N   0  0  0  0  0  0  0  0  0  0  0  0
  -24.7100  -15.8660   20.2440 H   0  0  0  0  0  0  0  0  0  0  0  0
  -26.3350  -15.6400   19.8390 H   0  0  0  0  0  0  0  0  0  0  0  0
  -28.8720  -21.8050   20.5470 O   0  0  0  0  0  0  0  0  0  0  0  0
  -29.3340  -23.1860   20.5390 C   0  0  0  0  0  2  0  0  0  0  0  0
  -27.7210  -23.8600   22.3240 C   0  0  0  0  0  1  0  0  0  0  0  0
  -26.9850  -23.9430   19.9440 C   0  0  0  0  0  1  0  0  0  0  0  0
  -28.1760  -24.1980   20.8840 C   0  0  2  0  0  0  0  0  0  0  0  0
  -28.6030  -25.7340   20.8970 C   0  0  0  0  0  2  0  0  0  0  0  0
  -28.3500  -26.6060   19.7610 O   0  0  0  0  0  0  0  0  0  0  0  0
  -24.6560  -31.7890   23.1240 C   0  0  0  0  0  0  0  0  0  0  0  0
  -27.2300  -27.4230   19.8380 C   0  0  0  0  0  0  0  0  0  0  0  0
  -23.4250  -30.4530   21.4480 C   0  0  0  0  0  3  0  0  0  0  0  0
  -24.8560  -28.9740   19.9380 C   0  0  0  0  0  0  0  0  0  0  0  0
  -25.9520  -30.8040   21.2300 C   0  0  0  0  0  2  0  0  0  0  0  0
  -26.0260  -29.4530   20.5420 C   0  0  0  0  0  0  0  0  0  0  0  0
  -27.2170  -28.6800   20.5010 C   0  0  0  0  0  3  0  0  0  0  0  0
  -26.0530  -26.9980   19.1910 C   0  0  0  0  0  3  0  0  0  0  0  0
  -24.8650  -27.7470   19.2590 C   0  0  0  0  0  3  0  0  0  0  0  0
  -23.6130  -29.8330   20.0370 C   0  0  0  0  0  2  0  0  0  0  0  0
  -24.6970  -31.0300   21.9920 N   0  0  0  0  0  0  0  0  0  0  0  0
  -23.5840  -32.0390   23.6910 O   0  0  0  0  0  0  0  0  0  0  0  0
  -22.7870  -29.3930   22.3770 C   0  0  0  0  0  0  0  0  0  0  0  0
  -21.4570  -29.2270   22.2760 N   0  0  0  0  0  0  0  0  0  0  0  0
  -23.4840  -28.7260   23.1470 O   0  0  0  0  0  0  0  0  0  0  0  0
  -20.9560  -29.8180   21.6280 H   0  0  0  0  0  0  0  0  0  0  0  0
  -18.0850  -28.0400   22.8100 C   0  0  0  0  0  0  0  0  0  0  0  0
  -20.6530  -28.2600   23.0240 C   0  0  0  0  0  3  0  0  0  0  0  0
  -20.7240  -26.8570   22.3760 C   0  0  0  0  0  2  0  0  0  0  0  0
  -19.5910  -26.5950   21.3790 C   0  0  0  0  0  2  0  0  0  0  0  0
  -18.2280  -26.7230   22.0660 C   0  0  0  0  0  2  0  0  0  0  0  0
  -19.2230  -28.7690   23.2450 C   0  0  0  0  0  0  0  0  0  0  0  0
  -19.0350  -30.0050   23.9010 C   0  0  0  0  0  3  0  0  0  0  0  0
  -17.7400  -30.5110   24.1260 C   0  0  0  0  0  3  0  0  0  0  0  0
  -16.6170  -29.7780   23.7060 C   0  0  0  0  0  3  0  0  0  0  0  0
  -16.7900  -28.5440   23.0530 C   0  0  0  0  0  3  0  0  0  0  0  0
  -25.9520  -32.3950   23.7470 C   0  0  0  0  0  3  0  0  0  0  0  0
  -25.6430  -33.7730   24.1550 N   0  0  0  0  0  0  0  0  0  0  0  0
  -25.9460  -34.8630   23.4370 C   0  0  0  0  0  0  0  0  0  0  0  0
  -26.5870  -34.8160   22.3840 O   0  0  0  0  0  0  0  0  0  0  0  0
  -25.0750  -33.8830   24.9810 H   0  0  0  0  0  0  0  0  0  0  0  0
  -24.1940  -36.6530   23.2200 C   0  0  0  0  0  1  0  0  0  0  0  0
  -25.4610  -36.2230   23.9760 C   0  0  0  0  0  3  0  0  0  0  0  0
  -27.6120  -37.0850   24.7870 C   0  0  0  0  0  1  0  0  0  0  0  0
  -26.4830  -37.2910   23.8850 N   0  0  0  0  0  0  0  0  0  0  0  0
  -26.0740  -38.1980   24.0910 H   0  0  0  0  0  0  0  0  0  0  0  0
  -26.5020  -31.5620   24.9680 C   0  0  1  0  0  0  0  0  0  0  0  0
  -25.4370  -31.2670   26.0490 C   0  0  0  0  0  1  0  0  0  0  0  0
  -27.0780  -30.2090   24.4910 C   0  0  0  0  0  1  0  0  0  0  0  0
  -27.6680  -32.3250   25.6430 C   0  0  0  0  0  1  0  0  0  0  0  0
  1  3  1  0
  2  3  2  0
  3  7  1  0
  4  1  2  0
  5  4  1  0
  5  6  2  0
  6  2  1  0
  8  5  1  0
  9  4  1  0
  9 18  1  0
 10 18  1  0
 11 16  1  0
 12 13  1  0
 12 11  1  0
 14 13  1  0
 14 23  1  0
 14 15  1  0
 16 10  1  0
 16 15  1  0
 17 10  2  0
 18 19  1  0
 20 21  2  0
 21 22  1  0
 21 40  1  0
 22 25  1  0
 23 20  1  0
 23 24  1  0
 24 22  2  0
 25 26  1  0
 26 27  2  0
 28 31  1  0
 28 27  1  0
 29 28  2  0
 30 29  1  0
 30 25  2  0
 31 32  1  0
 32 33  1  0
 33 34  2  0
 35 34  1  0
 35 39  1  0
 36 35  2  0
 37 32  2  0
 37 36  1  0
 38 37  1  0
 40 41  1  0
 41 44  1  0
 41 43  1  0
 42 40  2  0
 45 46  1  0
 45 20  1  0
 47 45  1  0
 48  6  1  0
 49 48  1  0
 49 52  1  0
 52 51  1  6
 52 53  1  0
 52 50  1  0
 54 56  1  0
 54 53  1  0
 55 66  2  0
 56 61  1  0
 57 65  1  0
 57 67  1  0
 58 64  1  0
 58 60  1  0
 59 65  1  0
 60 59  1  0
 61 60  2  0
 62 63  1  0
 62 56  2  0
 63 58  2  0
 64 57  1  0
 65 55  1  0
 67 69  2  0
 68 67  1  0
 70 68  1  0
 71 80  2  0
 71 76  1  0
 72 68  1  0
 72 76  1  0
 73 72  1  0
 74 75  1  0
 74 73  1  0
 75 71  1  0
 76 77  2  0
 77 78  1  0
 79 78  2  0
 80 79  1  0
 81 55  1  0
 81 82  1  0
 81 91  1  0
 82 85  1  0
 83 87  1  0
 83 82  1  0
 84 83  2  0
 87 86  1  0
 89 87  1  0
 89 90  1  0
 89 88  1  0
 91 94  1  1
 91 92  1  0
 93 91  1  0
M  ISO  4  10 100  18 100  53 101  54 101
M  END
>  <TORSDO>  (90) 
F 21

>  <SCORE>  (90) 
-13.368

>  <name>  (90) 
89

>  <ligand_id>  (90) 
89

>  <original_smiles>  (90) 
[H]c1c([H])c([H])c2c(c1[H])C([H])([H])C([H])([H])C([H])([H])C2([H])N([H])C(=O)C1([H])N(C(=O)C([H])(N([H])C(=O)C([H])(N([H])C([H])([H])[H])C([H])([H])[H])C(C([H])([H])[H])(C([H])([H])[H])C([H])([H])[H])C([H])([H])c2c([H])c(OC([H])([H])C(C([H])([H])[H])(C([H])([H])[H])C([H])([H])Oc3c([H])c(C([H])([H])[H])c([H])c(C([H])([H])N([H])C(=O)N4C([H])([H])C([H])([H])C([H])([H])C([H])(n5nc(-c6c([H])c([H])c(Oc7c([H])c([H])c(F)c([H])c7F)c([H])c6[H])c(C(=O)N([H])[H])c5N([H])[H])C4([H])[H])c3C([H])([H])[H])c([H])c([H])c2C1([H])[H]

>  <smiles>  (90) 
[H]c1c([H])c([H])c2c(c1[H])C([H])([H])C([H])([H])C([H])([H])C2([H])N([H])C(=O)C1([H])N(C(=O)C([H])(N([H])C(=O)C([H])(N([H])C([H])([H])[H])C([H])([H])[H])C(C([H])([H])[H])(C([H])([H])[H])C([H])([H])[H])C([H])([H])c2c([H])c(OC([H])([H])C(C([H])([H])[H])(C([H])([H])[H])C([H])([H])Oc3c([H])c(C([H])([H])[H])c([H])c(C([H])([H])N([H])C(=O)N4C([H])([H])C([H])([H])C([H])([H])C([H])(n5nc(-c6c([H])c([H])c(Oc7c([H])c([H])c(F)c([H])c7F)c([H])c6[H])c(C(=O)N([H])[H])c5N([H])[H])C4([H])[H])c3C([H])([H])[H])c([H])c([H])c2C1([H])[H]

$$$$
90:0:0
     RDKit          3D

 93101  0  0  1  0  0  0  0  0999 V2000
  -28.7220  -21.0510   20.5390 C   0  0  0  0  0  3  0  0  0  0  0  0
  -32.0410  -19.1560   19.8380 C   0  0  0  0  0  3  0  0  0  0  0  0
  -31.0880  -20.1670   20.0410 C   0  0  0  0  0  3  0  0  0  0  0  0
  -31.7120  -17.7950   19.9760 C   0  0  0  0  0  3  0  0  0  0  0  0
  -29.7560  -19.8530   20.3740 C   0  0  0  0  0  0  0  0  0  0  0  0
  -29.4260  -18.4340   20.5090 C   0  0  0  0  0  0  0  0  0  0  0  0
  -30.4080  -17.3660   20.3290 C   0  0  0  0  0  0  0  0  0  0  0  0
  -30.8490  -14.7760   20.1260 C   0  0  0  0  0  0  0  0  0  0  0  0
  -30.5680  -12.5830   18.9760 C   0  0  0  0  0  2  0  0  0  0  0  0
  -29.5890  -12.7570   17.7950 C   0  0  0  0  0  2  0  0  0  0  0  0
  -28.1340  -12.5710   18.2690 C   0  0  0  0  0  2  0  0  0  0  0  0
  -27.8170  -13.3790   19.5560 C   0  0  0  0  0  3  0  0  0  0  0  0
  -28.9130  -13.2010   20.6280 C   0  0  0  0  0  2  0  0  0  0  0  0
  -30.1930  -13.5730   20.0130 N   0  0  0  0  0  0  0  0  0  0  0  0
  -32.0300  -14.8410   19.7760 O   0  0  0  0  0  0  0  0  0  0  0  0
  -30.1090  -15.9080   20.4510 N   0  0  0  0  0  0  0  0  0  0  0  0
  -29.1710  -15.6950   20.7500 H   0  0  0  0  0  0  0  0  0  0  0  0
  -25.4380  -13.9210   20.3500 C   0  0  0  0  0  0  0  0  0  0  0  0
  -24.3940  -13.1320   20.7430 C   0  0  0  0  0  0  0  0  0  0  0  0
  -24.8790  -11.7900   20.6890 C   0  0  0  0  0  0  0  0  0  0  0  0
  -26.4900  -13.0640   20.0790 N   0  0  0  0  0  0  0  0  0  0  0  0
  -26.1620  -11.7740   20.3460 N   0  0  0  0  0  0  0  0  0  0  0  0
  -24.1760  -10.5170   20.8820 C   0  0  0  0  0  0  0  0  0  0  0  0
  -24.5570   -9.6080   21.8920 C   0  0  0  0  0  3  0  0  0  0  0  0
  -23.8510   -8.3990   22.0710 C   0  0  0  0  0  3  0  0  0  0  0  0
  -22.7490   -8.0920   21.2380 C   0  0  0  0  0  0  0  0  0  0  0  0
  -22.3870   -8.9910   20.2180 C   0  0  0  0  0  3  0  0  0  0  0  0
  -23.0960  -10.1910   20.0380 C   0  0  0  0  0  3  0  0  0  0  0  0
  -22.0200   -6.9300   21.3220 O   0  0  0  0  0  0  0  0  0  0  0  0
  -21.7930   -6.3110   22.5240 C   0  0  0  0  0  0  0  0  0  0  0  0
  -21.1100   -6.9570   23.5780 C   0  0  0  0  0  3  0  0  0  0  0  0
  -20.8360   -6.2610   24.7710 C   0  0  0  0  0  3  0  0  0  0  0  0
  -21.2360   -4.9180   24.9110 C   0  0  0  0  0  0  0  0  0  0  0  0
  -21.9110   -4.2710   23.8610 C   0  0  0  0  0  3  0  0  0  0  0  0
  -22.1860   -4.9660   22.6700 C   0  0  0  0  0  0  0  0  0  0  0  0
  -22.8190   -4.3330   21.6530 F   0  0  0  0  0  0  0  0  0  0  0  0
  -20.9660   -4.2450   26.0530 F   0  0  0  0  0  0  0  0  0  0  0  0
  -22.9990  -13.5890   21.0520 C   0  0  0  0  0  0  0  0  0  0  0  0
  -22.3000  -12.8760   21.9260 N   0  0  0  0  0  0  0  0  0  0  0  0
  -22.5400  -14.6170   20.5550 O   0  0  0  0  0  0  0  0  0  0  0  0
  -22.6840  -12.0440   22.3500 H   0  0  0  0  0  0  0  0  0  0  0  0
  -21.3630  -13.1640   22.1760 H   0  0  0  0  0  0  0  0  0  0  0  0
  -25.5690  -15.2870   20.1710 N   0  0  0  0  0  0  0  0  0  0  0  0
  -24.7800  -15.9150   20.2790 H   0  0  0  0  0  0  0  0  0  0  0  0
  -26.3820  -15.7360   19.7760 H   0  0  0  0  0  0  0  0  0  0  0  0
  -27.1220  -17.9980   19.5490 C   0  0  0  0  0  1  0  0  0  0  0  0
  -27.9800  -18.0630   20.8180 C   0  0  0  0  0  2  0  0  0  0  0  0
  -29.1400  -22.6070   20.3340 C   0  0  0  0  0  3  0  0  0  0  0  0
  -27.0970  -23.4840   21.5810 C   0  0  0  0  0  1  0  0  0  0  0  0
  -27.1350  -23.6500   19.1230 C   0  0  0  0  0  1  0  0  0  0  0  0
  -28.0160  -23.7780   20.3760 C   0  0  2  0  0  0  0  0  0  0  0  0
  -28.5240  -25.3150   20.5950 C   0  0  0  0  0  2  0  0  0  0  0  0
  -28.3070  -26.4930   19.7200 O   0  0  0  0  0  0  0  0  0  0  0  0
  -24.6190  -31.7810   23.1040 C   0  0  0  0  0  0  0  0  0  0  0  0
  -27.1920  -27.3320   19.8620 C   0  0  0  0  0  0  0  0  0  0  0  0
  -23.3960  -30.4370   21.4330 C   0  0  0  0  0  3  0  0  0  0  0  0
  -24.8330  -28.9440   19.9340 C   0  0  0  0  0  0  0  0  0  0  0  0
  -25.9320  -30.7640   21.2320 C   0  0  0  0  0  2  0  0  0  0  0  0
  -26.0060  -29.4040   20.5470 C   0  0  0  0  0  0  0  0  0  0  0  0
  -27.1900  -28.6030   20.5150 C   0  0  0  0  0  3  0  0  0  0  0  0
  -26.0140  -26.9520   19.1950 C   0  0  0  0  0  3  0  0  0  0  0  0
  -24.8380  -27.7210   19.2500 C   0  0  0  0  0  3  0  0  0  0  0  0
  -23.5950  -29.8130   20.0280 C   0  0  0  0  0  2  0  0  0  0  0  0
  -24.6670  -31.0130   21.9780 N   0  0  0  0  0  0  0  0  0  0  0  0
  -23.5450  -32.0370   23.6660 O   0  0  0  0  0  0  0  0  0  0  0  0
  -22.7550  -29.3830   22.3660 C   0  0  0  0  0  0  0  0  0  0  0  0
  -21.4260  -29.2140   22.2660 N   0  0  0  0  0  0  0  0  0  0  0  0
  -23.4510  -28.7190   23.1370 O   0  0  0  0  0  0  0  0  0  0  0  0
  -20.9230  -29.8080   21.6210 H   0  0  0  0  0  0  0  0  0  0  0  0
  -18.0480  -28.0510   22.8390 C   0  0  0  0  0  0  0  0  0  0  0  0
  -20.6200  -28.2480   23.0140 C   0  0  0  0  0  3  0  0  0  0  0  0
  -20.6700  -26.8490   22.3570 C   0  0  0  0  0  2  0  0  0  0  0  0
  -19.5210  -26.6060   21.3720 C   0  0  0  0  0  2  0  0  0  0  0  0
  -18.1690  -26.7390   22.0810 C   0  0  0  0  0  2  0  0  0  0  0  0
  -19.2000  -28.7660   23.2620 C   0  0  0  0  0  0  0  0  0  0  0  0
  -19.0330  -29.9980   23.9310 C   0  0  0  0  0  3  0  0  0  0  0  0
  -17.7480  -30.5120   24.1840 C   0  0  0  0  0  3  0  0  0  0  0  0
  -16.6100  -29.7910   23.7790 C   0  0  0  0  0  3  0  0  0  0  0  0
  -16.7610  -28.5640   23.1090 C   0  0  0  0  0  3  0  0  0  0  0  0
  -25.9100  -32.3960   23.7280 C   0  0  0  0  0  3  0  0  0  0  0  0
  -25.6080  -33.7890   24.0850 N   0  0  0  0  0  0  0  0  0  0  0  0
  -25.9390  -34.8550   23.3430 C   0  0  0  0  0  0  0  0  0  0  0  0
  -26.5980  -34.7680   22.3030 O   0  0  0  0  0  0  0  0  0  0  0  0
  -25.0180  -33.9330   24.8910 H   0  0  0  0  0  0  0  0  0  0  0  0
  -24.2240  -36.6690   23.0270 C   0  0  0  0  0  1  0  0  0  0  0  0
  -25.4620  -36.2380   23.8300 C   0  0  0  0  0  3  0  0  0  0  0  0
  -27.5960  -37.1000   24.6860 C   0  0  0  0  0  1  0  0  0  0  0  0
  -26.5010  -37.2860   23.7370 N   0  0  0  0  0  0  0  0  0  0  0  0
  -26.1010  -38.2060   23.8920 H   0  0  0  0  0  0  0  0  0  0  0  0
  -26.4310  -31.6010   24.9880 C   0  0  1  0  0  0  0  0  0  0  0  0
  -25.3410  -31.3470   26.0580 C   0  0  0  0  0  1  0  0  0  0  0  0
  -27.0150  -30.2300   24.5690 C   0  0  0  0  0  1  0  0  0  0  0  0
  -27.5860  -32.3820   25.6550 C   0  0  0  0  0  1  0  0  0  0  0  0
  2  4  2  0
  2  3  1  0
  3  5  2  0
  4  7  1  0
  5  6  1  0
  5  1  1  0
  6 47  1  0
  7 16  1  0
  7  6  2  0
  8 16  1  0
  9 14  1  0
 10 11  1  0
 10  9  1  0
 12 11  1  0
 12 21  1  0
 12 13  1  0
 14  8  1  0
 14 13  1  0
 15  8  2  0
 16 17  1  0
 18 19  2  0
 19 38  1  0
 20 19  1  0
 20 23  1  0
 21 22  1  0
 21 18  1  0
 22 20  2  0
 23 24  1  0
 24 25  2  0
 26 29  1  0
 26 25  1  0
 27 26  2  0
 28 27  1  0
 28 23  2  0
 29 30  1  0
 30 35  2  0
 30 31  1  0
 31 32  2  0
 32 33  1  0
 33 37  1  0
 34 33  2  0
 35 34  1  0
 36 35  1  0
 38 39  1  0
 39 42  1  0
 39 41  1  0
 40 38  2  0
 43 44  1  0
 43 18  1  0
 45 43  1  0
 46 47  1  0
 48 51  1  0
 48  1  2  0
 51 50  1  6
 51 52  1  0
 51 49  1  0
 53 55  1  0
 53 52  1  0
 54 65  2  0
 55 60  1  0
 56 64  1  0
 56 66  1  0
 57 63  1  0
 57 59  1  0
 58 64  1  0
 59 58  1  0
 60 59  2  0
 61 62  1  0
 61 55  2  0
 62 57  2  0
 63 56  1  0
 64 54  1  0
 66 68  2  0
 67 66  1  0
 69 67  1  0
 70 79  2  0
 70 75  1  0
 71 67  1  0
 71 75  1  0
 72 71  1  0
 73 74  1  0
 73 72  1  0
 74 70  1  0
 75 76  2  0
 76 77  1  0
 78 77  2  0
 79 78  1  0
 80 54  1  0
 80 81  1  0
 80 90  1  0
 81 84  1  0
 82 86  1  0
 82 81  1  0
 83 82  2  0
 86 85  1  0
 88 86  1  0
 88 89  1  0
 88 87  1  0
 90 93  1  1
 90 91  1  0
 92 90  1  0
M  ISO  4   8 100  16 100  52 101  53 101
M  END
>  <TORSDO>  (91) 
F 21

>  <SCORE>  (91) 
-12.907

>  <name>  (91) 
90

>  <ligand_id>  (91) 
90

>  <original_smiles>  (91) 
[H]c1c([H])c([H])c2c(c1[H])C([H])([H])C([H])([H])C([H])([H])C2([H])N([H])C(=O)C1([H])N(C(=O)C([H])(N([H])C(=O)C([H])(N([H])C([H])([H])[H])C([H])([H])[H])C(C([H])([H])[H])(C([H])([H])[H])C([H])([H])[H])C([H])([H])c2c([H])c(OC([H])([H])C(C([H])([H])[H])(C([H])([H])[H])C([H])([H])C([H])([H])c3c([H])c([H])c([H])c(N([H])C(=O)N4C([H])([H])C([H])([H])C([H])([H])C([H])(n5nc(-c6c([H])c([H])c(Oc7c([H])c([H])c(F)c([H])c7F)c([H])c6[H])c(C(=O)N([H])[H])c5N([H])[H])C4([H])[H])c3C([H])([H])C([H])([H])[H])c([H])c([H])c2C1([H])[H]

>  <smiles>  (91) 
[H]c1c([H])c([H])c2c(c1[H])C([H])([H])C([H])([H])C([H])([H])C2([H])N([H])C(=O)C1([H])N(C(=O)C([H])(N([H])C(=O)C([H])(N([H])C([H])([H])[H])C([H])([H])[H])C(C([H])([H])[H])(C([H])([H])[H])C([H])([H])[H])C([H])([H])c2c([H])c(OC([H])([H])C(C([H])([H])[H])(C([H])([H])[H])C([H])([H])C([H])([H])c3c([H])c([H])c([H])c(N([H])C(=O)N4C([H])([H])C([H])([H])C([H])([H])C([H])(n5nc(-c6c([H])c([H])c(Oc7c([H])c([H])c(F)c([H])c7F)c([H])c6[H])c(C(=O)N([H])[H])c5N([H])[H])C4([H])[H])c3C([H])([H])C([H])([H])[H])c([H])c([H])c2C1([H])[H]

$$$$
91:0:0
     RDKit          3D

 88 96  0  0  1  0  0  0  0  0999 V2000
  -27.6870  -20.8980   19.9210 C   0  0  0  0  0  3  0  0  0  0  0  0
  -27.9680  -19.4680   19.9260 C   0  0  0  0  0  0  0  0  0  0  0  0
  -28.7800  -21.6470   20.2860 C   0  0  0  0  0  0  0  0  0  0  0  0
  -29.2710  -19.2360   20.3260 C   0  0  0  0  0  0  0  0  0  0  0  0
  -26.9690  -18.4150   19.5350 C   0  0  0  0  0  1  0  0  0  0  0  0
  -29.7610  -20.5980   20.5400 O   0  0  0  0  0  0  0  0  0  0  0  0
  -29.0630  -23.2830   20.4440 C   0  0  0  0  0  3  0  0  0  0  0  0
  -28.0080  -24.6070   20.1710 C   0  0  0  0  0  3  0  0  0  0  0  0
  -28.2580  -26.1580   20.3620 O   0  0  0  0  0  0  0  0  0  0  0  0
  -24.6040  -31.9110   23.2930 C   0  0  0  0  0  0  0  0  0  0  0  0
  -27.2100  -27.1640   20.2870 C   0  0  0  0  0  0  0  0  0  0  0  0
  -23.4220  -30.5130   21.6460 C   0  0  0  0  0  3  0  0  0  0  0  0
  -24.8850  -28.9360   20.2300 C   0  0  0  0  0  0  0  0  0  0  0  0
  -25.9800  -30.7710   21.5080 C   0  0  0  0  0  2  0  0  0  0  0  0
  -26.0610  -29.3760   20.8520 C   0  0  0  0  0  0  0  0  0  0  0  0
  -27.2240  -28.5090   20.8570 C   0  0  0  0  0  3  0  0  0  0  0  0
  -26.0050  -26.8370   19.6280 C   0  0  0  0  0  3  0  0  0  0  0  0
  -24.8740  -27.6840   19.5990 C   0  0  0  0  0  3  0  0  0  0  0  0
  -23.6550  -29.8340   20.2690 C   0  0  0  0  0  2  0  0  0  0  0  0
  -24.6890  -31.0880   22.2030 N   0  0  0  0  0  0  0  0  0  0  0  0
  -23.5120  -32.1960   23.8090 O   0  0  0  0  0  0  0  0  0  0  0  0
  -22.7320  -29.5090   22.6010 C   0  0  0  0  0  0  0  0  0  0  0  0
  -21.4120  -29.3100   22.4340 N   0  0  0  0  0  0  0  0  0  0  0  0
  -23.3870  -28.9080   23.4550 O   0  0  0  0  0  0  0  0  0  0  0  0
  -20.9400  -29.8410   21.7160 H   0  0  0  0  0  0  0  0  0  0  0  0
  -18.0420  -28.0390   22.8380 C   0  0  0  0  0  0  0  0  0  0  0  0
  -20.5830  -28.3690   23.1940 C   0  0  0  0  0  3  0  0  0  0  0  0
  -20.7400  -26.9300   22.6500 C   0  0  0  0  0  2  0  0  0  0  0  0
  -19.6840  -26.5610   21.6030 C   0  0  0  0  0  2  0  0  0  0  0  0
  -18.2760  -26.6840   22.1920 C   0  0  0  0  0  2  0  0  0  0  0  0
  -19.1260  -28.8380   23.2930 C   0  0  0  0  0  0  0  0  0  0  0  0
  -18.8530  -30.1030   23.8550 C   0  0  0  0  0  3  0  0  0  0  0  0
  -17.5300  -30.5720   23.9680 C   0  0  0  0  0  3  0  0  0  0  0  0
  -16.4610  -29.7710   23.5290 C   0  0  0  0  0  3  0  0  0  0  0  0
  -16.7180  -28.5060   22.9720 C   0  0  0  0  0  3  0  0  0  0  0  0
  -25.8740  -32.5490   23.9350 C   0  0  0  0  0  3  0  0  0  0  0  0
  -26.3440  -31.8070   25.2480 C   0  0  1  0  0  0  0  0  0  0  0  0
  -25.2160  -31.6090   26.2860 C   0  0  0  0  0  1  0  0  0  0  0  0
  -26.9250  -30.4140   24.9170 C   0  0  0  0  0  1  0  0  0  0  0  0
  -27.4810  -32.6100   25.9240 C   0  0  0  0  0  1  0  0  0  0  0  0
  -25.5720  -33.9600   24.2260 N   0  0  0  0  0  0  0  0  0  0  0  0
  -25.9100  -34.9940   23.4440 C   0  0  0  0  0  0  0  0  0  0  0  0
  -26.5770  -34.8600   22.4160 O   0  0  0  0  0  0  0  0  0  0  0  0
  -24.9810  -34.1380   25.0260 H   0  0  0  0  0  0  0  0  0  0  0  0
  -24.1890  -36.7890   23.0580 C   0  0  0  0  0  1  0  0  0  0  0  0
  -25.4350  -36.3970   23.8700 C   0  0  0  0  0  3  0  0  0  0  0  0
  -27.5730  -37.3000   24.6730 C   0  0  0  0  0  1  0  0  0  0  0  0
  -26.4730  -37.4400   23.7230 N   0  0  0  0  0  0  0  0  0  0  0  0
  -26.0720  -38.3690   23.8390 H   0  0  0  0  0  0  0  0  0  0  0  0
  -30.2200  -17.8750   20.5020 C   0  0  0  0  0  2  0  0  0  0  0  0
  -30.5780  -15.1160   20.3780 C   0  0  0  0  0  0  0  0  0  0  0  0
  -30.4920  -12.7530   19.4290 C   0  0  0  0  0  2  0  0  0  0  0  0
  -29.5660  -12.6840   18.1910 C   0  0  0  0  0  2  0  0  0  0  0  0
  -28.1010  -12.4560   18.6130 C   0  0  0  0  0  2  0  0  0  0  0  0
  -27.6790  -13.3580   19.8040 C   0  0  0  0  0  3  0  0  0  0  0  0
  -28.7340  -13.3960   20.9290 C   0  0  0  0  0  2  0  0  0  0  0  0
  -29.9900  -13.8460   20.3170 N   0  0  0  0  0  0  0  0  0  0  0  0
  -31.7870  -15.1640   20.1260 O   0  0  0  0  0  0  0  0  0  0  0  0
  -29.8130  -16.3250   20.5150 N   0  0  0  0  0  0  0  0  0  0  0  0
  -28.8300  -16.1640   20.6690 H   0  0  0  0  0  0  0  0  0  0  0  0
  -25.2950  -13.8910   20.5510 C   0  0  0  0  0  0  0  0  0  0  0  0
  -24.2400  -13.1020   20.9120 C   0  0  0  0  0  0  0  0  0  0  0  0
  -24.7200  -11.7550   20.8680 C   0  0  0  0  0  0  0  0  0  0  0  0
  -26.3480  -13.0300   20.3030 N   0  0  0  0  0  0  0  0  0  0  0  0
  -26.0130  -11.7380   20.5600 N   0  0  0  0  0  0  0  0  0  0  0  0
  -24.0050  -10.4850   21.0470 C   0  0  0  0  0  0  0  0  0  0  0  0
  -24.4310   -9.5250   21.9910 C   0  0  0  0  0  3  0  0  0  0  0  0
  -23.7160   -8.3200   22.1590 C   0  0  0  0  0  3  0  0  0  0  0  0
  -22.5600   -8.0660   21.3820 C   0  0  0  0  0  0  0  0  0  0  0  0
  -22.1550   -9.0160   20.4270 C   0  0  0  0  0  3  0  0  0  0  0  0
  -22.8700  -10.2120   20.2570 C   0  0  0  0  0  3  0  0  0  0  0  0
  -21.8180   -6.9130   21.4550 O   0  0  0  0  0  0  0  0  0  0  0  0
  -21.7280   -6.1880   22.6170 C   0  0  0  0  0  0  0  0  0  0  0  0
  -21.1920   -6.7410   23.8000 C   0  0  0  0  0  3  0  0  0  0  0  0
  -21.0530   -5.9420   24.9510 C   0  0  0  0  0  3  0  0  0  0  0  0
  -21.4400   -4.5890   24.9220 C   0  0  0  0  0  0  0  0  0  0  0  0
  -21.9710   -4.0350   23.7430 C   0  0  0  0  0  3  0  0  0  0  0  0
  -22.1100   -4.8320   22.5930 C   0  0  0  0  0  0  0  0  0  0  0  0
  -22.6020   -4.2870   21.4530 F   0  0  0  0  0  0  0  0  0  0  0  0
  -21.3010   -3.8170   26.0260 F   0  0  0  0  0  0  0  0  0  0  0  0
  -22.8370  -13.5620   21.1810 C   0  0  0  0  0  0  0  0  0  0  0  0
  -22.1190  -12.8580   22.0480 N   0  0  0  0  0  0  0  0  0  0  0  0
  -22.3870  -14.5800   20.6570 O   0  0  0  0  0  0  0  0  0  0  0  0
  -22.5010  -12.0380   22.4980 H   0  0  0  0  0  0  0  0  0  0  0  0
  -21.1750  -13.1420   22.2670 H   0  0  0  0  0  0  0  0  0  0  0  0
  -25.4400  -15.2640   20.3820 N   0  0  0  0  0  0  0  0  0  0  0  0
  -24.6580  -15.9010   20.4810 H   0  0  0  0  0  0  0  0  0  0  0  0
  -26.2650  -15.7050   20.0010 H   0  0  0  0  0  0  0  0  0  0  0  0
  1  2  1  0
  1  3  2  0
  2  4  2  0
  3  7  1  0
  3  6  1  0
  4 50  1  0
  4  6  1  0
  5  2  1  0
  8  9  1  0
  8  7  2  0
 10 21  2  0
 11  9  1  0
 11 16  1  0
 12 20  1  0
 12 22  1  0
 13 19  1  0
 13 15  1  0
 14 20  1  0
 15 16  2  0
 15 14  1  0
 17 11  2  0
 18 17  1  0
 18 13  2  0
 19 12  1  0
 20 10  1  0
 22 24  2  0
 23 22  1  0
 25 23  1  0
 26 35  2  0
 26 31  1  0
 27 23  1  0
 27 31  1  0
 28 27  1  0
 29 30  1  0
 29 28  1  0
 30 26  1  0
 31 32  2  0
 32 33  1  0
 34 33  2  0
 35 34  1  0
 36 10  1  0
 36 41  1  0
 36 37  1  0
 37 40  1  1
 37 38  1  0
 39 37  1  0
 41 44  1  0
 42 46  1  0
 42 41  1  0
 43 42  2  0
 46 45  1  0
 48 49  1  0
 48 46  1  0
 48 47  1  0
 50 59  1  0
 51 59  1  0
 52 57  1  0
 53 54  1  0
 53 52  1  0
 55 54  1  0
 55 64  1  0
 55 56  1  0
 57 51  1  0
 57 56  1  0
 58 51  2  0
 59 60  1  0
 61 62  2  0
 62 81  1  0
 63 62  1  0
 63 66  1  0
 64 61  1  0
 64 65  1  0
 65 63  2  0
 66 67  1  0
 67 68  2  0
 69 72  1  0
 69 68  1  0
 70 69  2  0
 71 70  1  0
 71 66  2  0
 72 73  1  0
 73 74  1  0
 74 75  2  0
 76 75  1  0
 76 80  1  0
 77 76  2  0
 78 73  2  0
 78 77  1  0
 79 78  1  0
 81 82  1  0
 82 85  1  0
 82 84  1  0
 83 81  2  0
 86 87  1  0
 86 61  1  0
 88 86  1  0
M  ISO  4   8 101   9 101  51 100  59 100
M  END
>  <TORSDO>  (92) 
F 19

>  <SCORE>  (92) 
-14.855

>  <name>  (92) 
91

>  <ligand_id>  (92) 
91

>  <original_smiles>  (92) 
[H]c1c([H])c([H])c2c(c1[H])C([H])([H])C([H])([H])C([H])([H])C2([H])N([H])C(=O)C1([H])N(C(=O)C([H])(N([H])C(=O)C([H])(N([H])C([H])([H])[H])C([H])([H])[H])C(C([H])([H])[H])(C([H])([H])[H])C([H])([H])[H])C([H])([H])c2c([H])c(OC([H])([H])C([H])([H])c3oc(C([H])([H])N([H])C(=O)N4C([H])([H])C([H])([H])C([H])([H])C([H])(n5nc(-c6c([H])c([H])c(Oc7c([H])c([H])c(F)c([H])c7F)c([H])c6[H])c(C(=O)N([H])[H])c5N([H])[H])C4([H])[H])c(C([H])([H])[H])c3[H])c([H])c([H])c2C1([H])[H]

>  <smiles>  (92) 
[H]c1c([H])c([H])c2c(c1[H])C([H])([H])C([H])([H])C([H])([H])C2([H])N([H])C(=O)C1([H])N(C(=O)C([H])(N([H])C(=O)C([H])(N([H])C([H])([H])[H])C([H])([H])[H])C(C([H])([H])[H])(C([H])([H])[H])C([H])([H])[H])C([H])([H])c2c([H])c(OC([H])([H])C([H])([H])c3oc(C([H])([H])N([H])C(=O)N4C([H])([H])C([H])([H])C([H])([H])C([H])(n5nc(-c6c([H])c([H])c(Oc7c([H])c([H])c(F)c([H])c7F)c([H])c6[H])c(C(=O)N([H])[H])c5N([H])[H])C4([H])[H])c(C([H])([H])[H])c3[H])c([H])c([H])c2C1([H])[H]

$$$$
92:0:0
     RDKit          3D

 96104  0  0  1  0  0  0  0  0999 V2000
  -30.3470  -21.1750   20.1940 C   0  0  0  0  0  2  0  0  0  0  0  0
  -29.0830  -18.9570   20.3630 C   0  0  0  0  0  3  0  0  0  0  0  0
  -31.3280  -17.5330   21.2140 C   0  0  0  0  0  3  0  0  0  0  0  0
  -30.2810  -19.6720   20.5810 C   0  0  0  0  0  0  0  0  0  0  0  0
  -28.9880  -17.5550   20.5620 C   0  0  0  0  0  0  0  0  0  0  0  0
  -31.4040  -18.9420   21.0580 C   0  0  0  0  0  0  0  0  0  0  0  0
  -30.1420  -16.8120   20.9270 C   0  0  0  0  0  0  0  0  0  0  0  0
  -32.7220  -19.6310   21.3760 C   0  0  0  0  0  1  0  0  0  0  0  0
  -30.5860  -14.4460   20.1710 C   0  0  0  0  0  0  0  0  0  0  0  0
  -30.1880  -12.3450   18.9270 C   0  0  0  0  0  2  0  0  0  0  0  0
  -29.1880  -12.6040   17.7830 C   0  0  0  0  0  2  0  0  0  0  0  0
  -27.7430  -12.4250   18.2830 C   0  0  0  0  0  2  0  0  0  0  0  0
  -27.4660  -13.2000   19.5980 C   0  0  0  0  0  3  0  0  0  0  0  0
  -28.5850  -12.9540   20.6400 C   0  0  0  0  0  2  0  0  0  0  0  0
  -29.8820  -13.2850   20.0200 N   0  0  0  0  0  0  0  0  0  0  0  0
  -31.6380  -14.6540   19.5630 O   0  0  0  0  0  0  0  0  0  0  0  0
  -30.0410  -15.3730   20.9910 N   0  0  0  0  0  0  0  0  0  0  0  0
  -29.2410  -15.0230   21.4910 H   0  0  0  0  0  0  0  0  0  0  0  0
  -25.0780  -13.7370   20.4030 C   0  0  0  0  0  0  0  0  0  0  0  0
  -24.0510  -12.9400   20.8290 C   0  0  0  0  0  0  0  0  0  0  0  0
  -24.5440  -11.6010   20.7750 C   0  0  0  0  0  0  0  0  0  0  0  0
  -26.1390  -12.8870   20.1320 N   0  0  0  0  0  0  0  0  0  0  0  0
  -25.8220  -11.5950   20.4110 N   0  0  0  0  0  0  0  0  0  0  0  0
  -23.8550  -10.3230   20.9940 C   0  0  0  0  0  0  0  0  0  0  0  0
  -24.3360   -9.3770   21.9270 C   0  0  0  0  0  3  0  0  0  0  0  0
  -23.6470   -8.1640   22.1360 C   0  0  0  0  0  3  0  0  0  0  0  0
  -22.4640   -7.8860   21.4130 C   0  0  0  0  0  0  0  0  0  0  0  0
  -21.9990   -8.8210   20.4700 C   0  0  0  0  0  3  0  0  0  0  0  0
  -22.6900  -10.0260   20.2600 C   0  0  0  0  0  3  0  0  0  0  0  0
  -21.7420   -6.7230   21.5310 O   0  0  0  0  0  0  0  0  0  0  0  0
  -21.7190   -6.0050   22.7000 C   0  0  0  0  0  0  0  0  0  0  0  0
  -21.3040   -6.5840   23.9190 C   0  0  0  0  0  3  0  0  0  0  0  0
  -21.2260   -5.7940   25.0840 C   0  0  0  0  0  3  0  0  0  0  0  0
  -21.5540   -4.4270   25.0310 C   0  0  0  0  0  0  0  0  0  0  0  0
  -21.9610   -3.8470   23.8170 C   0  0  0  0  0  3  0  0  0  0  0  0
  -22.0410   -4.6340   22.6540 C   0  0  0  0  0  0  0  0  0  0  0  0
  -22.4160   -4.0660   21.4820 F   0  0  0  0  0  0  0  0  0  0  0  0
  -21.4700   -3.6670   26.1490 F   0  0  0  0  0  0  0  0  0  0  0  0
  -22.6570  -13.3870   21.1630 C   0  0  0  0  0  0  0  0  0  0  0  0
  -21.9900  -12.6890   22.0760 N   0  0  0  0  0  0  0  0  0  0  0  0
  -22.1670  -14.3910   20.6510 O   0  0  0  0  0  0  0  0  0  0  0  0
  -22.3980  -11.8760   22.5140 H   0  0  0  0  0  0  0  0  0  0  0  0
  -21.0580  -12.9750   22.3400 H   0  0  0  0  0  0  0  0  0  0  0  0
  -25.1890  -15.1080   20.2020 N   0  0  0  0  0  0  0  0  0  0  0  0
  -24.4030  -15.7350   20.3330 H   0  0  0  0  0  0  0  0  0  0  0  0
  -25.9870  -15.5590   19.7770 H   0  0  0  0  0  0  0  0  0  0  0  0
  -26.5440  -17.5940   19.6450 C   0  0  0  0  0  1  0  0  0  0  0  0
  -27.6640  -16.8200   20.3620 C   0  0  0  0  0  2  0  0  0  0  0  0
  -30.9650  -22.0250   22.5130 C   0  0  0  0  0  1  0  0  0  0  0  0
  -28.5900  -22.1780   21.7700 C   0  0  0  0  0  1  0  0  0  0  0  0
  -30.0540  -22.2600   21.2910 C   0  0  2  0  0  0  0  0  0  0  0  0
  -30.3580  -23.7190   20.7920 C   0  0  0  0  0  2  0  0  0  0  0  0
  -29.4210  -24.3880   19.7590 C   0  0  0  0  0  0  0  0  0  0  0  0
  -29.6250  -24.2500   18.5490 O   0  0  0  0  0  0  0  0  0  0  0  0
  -28.2420  -25.2490   20.2680 C   0  0  0  0  0  2  0  0  0  0  0  0
  -28.3120  -26.6060   19.7770 O   0  0  0  0  0  0  0  0  0  0  0  0
  -24.5440  -31.7140   23.0630 C   0  0  0  0  0  0  0  0  0  0  0  0
  -27.1380  -27.3370   19.8370 C   0  0  0  0  0  0  0  0  0  0  0  0
  -23.3090  -30.3500   21.4090 C   0  0  0  0  0  3  0  0  0  0  0  0
  -24.7400  -28.8470   19.9230 C   0  0  0  0  0  0  0  0  0  0  0  0
  -25.8310  -30.7160   21.1720 C   0  0  0  0  0  2  0  0  0  0  0  0
  -25.9090  -29.3580   20.5010 C   0  0  0  0  0  0  0  0  0  0  0  0
  -27.1120  -28.6130   20.4510 C   0  0  0  0  0  3  0  0  0  0  0  0
  -25.9510  -26.8430   19.2530 C   0  0  0  0  0  3  0  0  0  0  0  0
  -24.7560  -27.5880   19.2960 C   0  0  0  0  0  3  0  0  0  0  0  0
  -23.4940  -29.7020   20.0100 C   0  0  0  0  0  2  0  0  0  0  0  0
  -24.5800  -30.9400   21.9400 N   0  0  0  0  0  0  0  0  0  0  0  0
  -23.4710  -31.9730   23.6290 O   0  0  0  0  0  0  0  0  0  0  0  0
  -22.6760  -29.3070   22.3580 C   0  0  0  0  0  0  0  0  0  0  0  0
  -21.3470  -29.1370   22.2580 N   0  0  0  0  0  0  0  0  0  0  0  0
  -23.3750  -28.6540   23.1370 O   0  0  0  0  0  0  0  0  0  0  0  0
  -20.8440  -29.7140   21.5980 H   0  0  0  0  0  0  0  0  0  0  0  0
  -17.9750  -27.9720   22.8320 C   0  0  0  0  0  0  0  0  0  0  0  0
  -20.5440  -28.1840   23.0220 C   0  0  0  0  0  3  0  0  0  0  0  0
  -20.6050  -26.7750   22.3900 C   0  0  0  0  0  2  0  0  0  0  0  0
  -19.4640  -26.5050   21.4050 C   0  0  0  0  0  2  0  0  0  0  0  0
  -18.1070  -26.6470   22.1010 C   0  0  0  0  0  2  0  0  0  0  0  0
  -19.1190  -28.7020   23.2500 C   0  0  0  0  0  0  0  0  0  0  0  0
  -18.9410  -29.9450   23.8940 C   0  0  0  0  0  3  0  0  0  0  0  0
  -17.6500  -30.4570   24.1250 C   0  0  0  0  0  3  0  0  0  0  0  0
  -16.5210  -29.7240   23.7210 C   0  0  0  0  0  3  0  0  0  0  0  0
  -16.6840  -28.4830   23.0790 C   0  0  0  0  0  3  0  0  0  0  0  0
  -25.8400  -32.3300   23.6760 C   0  0  0  0  0  3  0  0  0  0  0  0
  -25.5290  -33.7110   24.0670 N   0  0  0  0  0  0  0  0  0  0  0  0
  -25.8350  -34.7960   23.3410 C   0  0  0  0  0  0  0  0  0  0  0  0
  -26.4820  -34.7390   22.2920 O   0  0  0  0  0  0  0  0  0  0  0  0
  -24.9460  -33.8280   24.8830 H   0  0  0  0  0  0  0  0  0  0  0  0
  -24.0800  -36.5830   23.1000 C   0  0  0  0  0  1  0  0  0  0  0  0
  -25.3450  -36.1600   23.8640 C   0  0  0  0  0  3  0  0  0  0  0  0
  -27.4960  -37.0320   24.6660 C   0  0  0  0  0  1  0  0  0  0  0  0
  -26.3630  -37.2280   23.7660 N   0  0  0  0  0  0  0  0  0  0  0  0
  -25.9520  -38.1350   23.9700 H   0  0  0  0  0  0  0  0  0  0  0  0
  -26.3960  -31.5130   24.9050 C   0  0  1  0  0  0  0  0  0  0  0  0
  -25.3350  -31.2280   25.9930 C   0  0  0  0  0  1  0  0  0  0  0  0
  -26.9760  -30.1540   24.4420 C   0  0  0  0  0  1  0  0  0  0  0  0
  -27.5620  -32.2870   25.5650 C   0  0  0  0  0  1  0  0  0  0  0  0
  1  4  1  0
  1 51  1  0
  2  5  2  0
  2  4  1  0
  4  6  2  0
  5  7  1  0
  6  3  1  0
  6  8  1  0
  7 17  1  0
  7  3  2  0
  9 17  1  0
 10 15  1  0
 11 12  1  0
 11 10  1  0
 13 12  1  0
 13 22  1  0
 13 14  1  0
 15  9  1  0
 15 14  1  0
 16  9  2  0
 17 18  1  0
 19 20  2  0
 20 39  1  0
 21 20  1  0
 21 24  1  0
 22 19  1  0
 22 23  1  0
 23 21  2  0
 24 25  1  0
 25 26  2  0
 27 30  1  0
 27 26  1  0
 28 27  2  0
 29 28  1  0
 29 24  2  0
 30 31  1  0
 31 32  1  0
 32 33  2  0
 34 33  1  0
 34 38  1  0
 35 34  2  0
 36 31  2  0
 36 35  1  0
 37 36  1  0
 39 40  1  0
 40 43  1  0
 40 42  1  0
 41 39  2  0
 44 45  1  0
 44 19  1  0
 46 44  1  0
 47 48  1  0
 48  5  1  0
 51 50  1  1
 51 49  1  0
 52 51  1  0
 53 55  1  0
 53 52  1  0
 54 53  2  0
 56 58  1  0
 56 55  1  0
 57 68  2  0
 58 63  1  0
 59 67  1  0
 59 69  1  0
 60 66  1  0
 60 62  1  0
 61 67  1  0
 62 61  1  0
 63 62  2  0
 64 65  1  0
 64 58  2  0
 65 60  2  0
 66 59  1  0
 67 57  1  0
 69 71  2  0
 70 69  1  0
 72 70  1  0
 73 82  2  0
 73 78  1  0
 74 70  1  0
 74 78  1  0
 75 74  1  0
 76 77  1  0
 76 75  1  0
 77 73  1  0
 78 79  2  0
 79 80  1  0
 81 80  2  0
 82 81  1  0
 83 57  1  0
 83 84  1  0
 83 93  1  0
 84 87  1  0
 85 89  1  0
 85 84  1  0
 86 85  2  0
 89 88  1  0
 91 89  1  0
 91 92  1  0
 91 90  1  0
 93 96  1  1
 93 94  1  0
 95 93  1  0
M  ISO  4   9 100  17 100  55 101  56 101
M  END
>  <TORSDO>  (93) 
F 22

>  <SCORE>  (93) 
-13.441

>  <name>  (93) 
92

>  <ligand_id>  (93) 
92

>  <original_smiles>  (93) 
[H]c1c([H])c([H])c2c(c1[H])C([H])([H])C([H])([H])C([H])([H])C2([H])N([H])C(=O)C1([H])N(C(=O)C([H])(N([H])C(=O)C([H])(N([H])C([H])([H])[H])C([H])([H])[H])C(C([H])([H])[H])(C([H])([H])[H])C([H])([H])[H])C([H])([H])c2c([H])c(OC([H])([H])C(=O)C([H])([H])C(C([H])([H])[H])(C([H])([H])[H])C([H])([H])c3c([H])c(C([H])([H])C([H])([H])[H])c(N([H])C(=O)N4C([H])([H])C([H])([H])C([H])([H])C([H])(n5nc(-c6c([H])c([H])c(Oc7c([H])c([H])c(F)c([H])c7F)c([H])c6[H])c(C(=O)N([H])[H])c5N([H])[H])C4([H])[H])c([H])c3C([H])([H])[H])c([H])c([H])c2C1([H])[H]

>  <smiles>  (93) 
[H]c1c([H])c([H])c2c(c1[H])C([H])([H])C([H])([H])C([H])([H])C2([H])N([H])C(=O)C1([H])N(C(=O)C([H])(N([H])C(=O)C([H])(N([H])C([H])([H])[H])C([H])([H])[H])C(C([H])([H])[H])(C([H])([H])[H])C([H])([H])[H])C([H])([H])c2c([H])c(OC([H])([H])C(=O)C([H])([H])C(C([H])([H])[H])(C([H])([H])[H])C([H])([H])c3c([H])c(C([H])([H])C([H])([H])[H])c(N([H])C(=O)N4C([H])([H])C([H])([H])C([H])([H])C([H])(n5nc(-c6c([H])c([H])c(Oc7c([H])c([H])c(F)c([H])c7F)c([H])c6[H])c(C(=O)N([H])[H])c5N([H])[H])C4([H])[H])c([H])c3C([H])([H])[H])c([H])c([H])c2C1([H])[H]

$$$$
93:0:0
     RDKit          3D

 95103  0  0  1  0  0  0  0  0999 V2000
  -29.0770  -21.6590   21.0940 C   0  0  0  0  0  2  0  0  0  0  0  0
  -28.5470  -24.2020   20.7660 C   0  0  0  0  0  3  0  0  0  0  0  0
  -29.3840  -23.2030   21.2140 C   0  0  0  0  0  0  0  0  0  0  0  0
  -31.9250  -23.4270   21.0760 C   0  0  0  0  0  1  0  0  0  0  0  0
  -30.6700  -23.5390   21.9540 C   0  0  0  0  0  2  0  0  0  0  0  0
  -30.0970  -26.3260   20.7300 C   0  0  0  0  0  1  0  0  0  0  0  0
  -28.6650  -25.7700   20.8850 C   0  0  0  0  0  3  0  0  0  0  0  0
  -28.0030  -26.4920   19.8220 O   0  0  0  0  0  0  0  0  0  0  0  0
  -24.5000  -31.8910   23.1800 C   0  0  0  0  0  0  0  0  0  0  0  0
  -26.8990  -27.3040   20.0450 C   0  0  0  0  0  0  0  0  0  0  0  0
  -23.2010  -30.5110   21.5960 C   0  0  0  0  0  3  0  0  0  0  0  0
  -24.5600  -28.9180   20.1370 C   0  0  0  0  0  0  0  0  0  0  0  0
  -25.7320  -30.7830   21.3070 C   0  0  0  0  0  2  0  0  0  0  0  0
  -25.7590  -29.3960   20.6860 C   0  0  0  0  0  0  0  0  0  0  0  0
  -26.9370  -28.5970   20.6410 C   0  0  0  0  0  3  0  0  0  0  0  0
  -25.6840  -26.8610   19.4880 C   0  0  0  0  0  3  0  0  0  0  0  0
  -24.5190  -27.6480   19.5370 C   0  0  0  0  0  3  0  0  0  0  0  0
  -23.3470  -29.8200   20.2150 C   0  0  0  0  0  2  0  0  0  0  0  0
  -24.4990  -31.0790   22.0840 N   0  0  0  0  0  0  0  0  0  0  0  0
  -23.4470  -32.1960   23.7560 O   0  0  0  0  0  0  0  0  0  0  0  0
  -22.5560  -29.5130   22.5860 C   0  0  0  0  0  0  0  0  0  0  0  0
  -21.2310  -29.3240   22.4750 N   0  0  0  0  0  0  0  0  0  0  0  0
  -23.2480  -28.9120   23.4130 O   0  0  0  0  0  0  0  0  0  0  0  0
  -20.7340  -29.8620   21.7790 H   0  0  0  0  0  0  0  0  0  0  0  0
  -17.8790  -28.0670   22.9800 C   0  0  0  0  0  0  0  0  0  0  0  0
  -20.4250  -28.4020   23.2750 C   0  0  0  0  0  3  0  0  0  0  0  0
  -20.5710  -26.9480   22.7660 C   0  0  0  0  0  2  0  0  0  0  0  0
  -19.4930  -26.5510   21.7530 C   0  0  0  0  0  2  0  0  0  0  0  0
  -18.0990  -26.6920   22.3710 C   0  0  0  0  0  2  0  0  0  0  0  0
  -18.9710  -28.8750   23.3900 C   0  0  0  0  0  0  0  0  0  0  0  0
  -18.7140  -30.1570   23.9190 C   0  0  0  0  0  3  0  0  0  0  0  0
  -17.3950  -30.6340   24.0440 C   0  0  0  0  0  3  0  0  0  0  0  0
  -16.3150  -29.8240   23.6490 C   0  0  0  0  0  3  0  0  0  0  0  0
  -16.5580  -28.5430   23.1230 C   0  0  0  0  0  3  0  0  0  0  0  0
  -25.8230  -32.4960   23.7460 C   0  0  0  0  0  3  0  0  0  0  0  0
  -25.5510  -33.8930   24.1140 N   0  0  0  0  0  0  0  0  0  0  0  0
  -25.8710  -34.9540   23.3620 C   0  0  0  0  0  0  0  0  0  0  0  0
  -26.5000  -34.8600   22.3040 O   0  0  0  0  0  0  0  0  0  0  0  0
  -24.9900  -34.0410   24.9400 H   0  0  0  0  0  0  0  0  0  0  0  0
  -24.1630  -36.7810   23.1050 C   0  0  0  0  0  1  0  0  0  0  0  0
  -25.4250  -36.3410   23.8640 C   0  0  0  0  0  3  0  0  0  0  0  0
  -27.6060  -37.1680   24.6300 C   0  0  0  0  0  1  0  0  0  0  0  0
  -26.4720  -37.3780   23.7340 N   0  0  0  0  0  0  0  0  0  0  0  0
  -26.0890  -38.3010   23.9190 H   0  0  0  0  0  0  0  0  0  0  0  0
  -26.3920  -31.6950   24.9820 C   0  0  1  0  0  0  0  0  0  0  0  0
  -25.3490  -31.4480   26.0950 C   0  0  0  0  0  1  0  0  0  0  0  0
  -26.9440  -30.3210   24.5350 C   0  0  0  0  0  1  0  0  0  0  0  0
  -27.5800  -32.4680   25.6040 C   0  0  0  0  0  1  0  0  0  0  0  0
  -30.1400  -20.7770   20.5960 O   0  0  0  0  0  0  0  0  0  0  0  0
  -31.2280  -18.0130   22.9010 C   0  0  0  0  0  3  0  0  0  0  0  0
  -30.1410  -18.2910   20.3510 C   0  0  0  0  0  3  0  0  0  0  0  0
  -31.0180  -16.8590   22.1310 C   0  0  0  0  0  0  0  0  0  0  0  0
  -30.9210  -19.3020   22.4220 C   0  0  0  0  0  0  0  0  0  0  0  0
  -30.4830  -16.9710   20.8250 C   0  0  0  0  0  0  0  0  0  0  0  0
  -30.3470  -19.4850   21.1320 C   0  0  0  0  0  0  0  0  0  0  0  0
  -31.3630  -15.5130   22.7550 C   0  0  0  0  0  1  0  0  0  0  0  0
  -31.3060  -20.4560   23.3200 C   0  0  0  0  0  1  0  0  0  0  0  0
  -30.9050  -14.6530   19.8380 C   0  0  0  0  0  0  0  0  0  0  0  0
  -30.5360  -12.4260   18.7870 C   0  0  0  0  0  2  0  0  0  0  0  0
  -29.5260  -12.5650   17.6270 C   0  0  0  0  0  2  0  0  0  0  0  0
  -28.0730  -12.4760   18.1420 C   0  0  0  0  0  2  0  0  0  0  0  0
  -27.8200  -13.3800   19.3790 C   0  0  0  0  0  3  0  0  0  0  0  0
  -28.9320  -13.1940   20.4330 C   0  0  0  0  0  2  0  0  0  0  0  0
  -30.2180  -13.4720   19.7730 N   0  0  0  0  0  0  0  0  0  0  0  0
  -32.0650  -14.7590   19.4290 O   0  0  0  0  0  0  0  0  0  0  0  0
  -30.1400  -15.7490   20.1210 N   0  0  0  0  0  0  0  0  0  0  0  0
  -29.1600  -15.5240   20.1680 H   0  0  0  0  0  0  0  0  0  0  0  0
  -25.5180  -14.1030   20.2630 C   0  0  0  0  0  0  0  0  0  0  0  0
  -24.4320  -13.3850   20.6870 C   0  0  0  0  0  0  0  0  0  0  0  0
  -24.8110  -12.0100   20.6020 C   0  0  0  0  0  0  0  0  0  0  0  0
  -26.4910  -13.1680   19.9450 N   0  0  0  0  0  0  0  0  0  0  0  0
  -26.0750  -11.9030   20.2090 N   0  0  0  0  0  0  0  0  0  0  0  0
  -24.0250  -10.7880   20.8130 C   0  0  0  0  0  0  0  0  0  0  0  0
  -24.4410   -9.7910   21.7240 C   0  0  0  0  0  3  0  0  0  0  0  0
  -23.6580   -8.6340   21.9240 C   0  0  0  0  0  3  0  0  0  0  0  0
  -22.4470   -8.4640   21.2120 C   0  0  0  0  0  0  0  0  0  0  0  0
  -22.0500   -9.4490   20.2900 C   0  0  0  0  0  3  0  0  0  0  0  0
  -22.8320  -10.5990   20.0890 C   0  0  0  0  0  3  0  0  0  0  0  0
  -21.6370   -7.3600   21.3210 O   0  0  0  0  0  0  0  0  0  0  0  0
  -21.5690   -6.6280   22.4800 C   0  0  0  0  0  0  0  0  0  0  0  0
  -21.2110   -7.2170   23.7130 C   0  0  0  0  0  3  0  0  0  0  0  0
  -21.0860   -6.4160   24.8650 C   0  0  0  0  0  3  0  0  0  0  0  0
  -21.3100   -5.0280   24.7870 C   0  0  0  0  0  0  0  0  0  0  0  0
  -21.6610   -4.4400   23.5590 C   0  0  0  0  0  3  0  0  0  0  0  0
  -21.7880   -5.2380   22.4080 C   0  0  0  0  0  0  0  0  0  0  0  0
  -22.1060   -4.6630   21.2240 F   0  0  0  0  0  0  0  0  0  0  0  0
  -21.1820   -4.2570   25.8910 F   0  0  0  0  0  0  0  0  0  0  0  0
  -23.0840  -13.9350   21.0530 C   0  0  0  0  0  0  0  0  0  0  0  0
  -22.3840  -13.2800   21.9730 N   0  0  0  0  0  0  0  0  0  0  0  0
  -22.6640  -14.9810   20.5590 O   0  0  0  0  0  0  0  0  0  0  0  0
  -22.7400  -12.4350   22.3940 H   0  0  0  0  0  0  0  0  0  0  0  0
  -21.4830  -13.6310   22.2610 H   0  0  0  0  0  0  0  0  0  0  0  0
  -25.7480  -15.4650   20.1000 N   0  0  0  0  0  0  0  0  0  0  0  0
  -25.0220  -16.1520   20.2700 H   0  0  0  0  0  0  0  0  0  0  0  0
  -26.5780  -15.8680   19.6850 H   0  0  0  0  0  0  0  0  0  0  0  0
  1  3  1  0
  2  7  1  0
  2  3  2  0
  3  5  1  0
  4  5  1  0
  7  6  1  0
  8 10  1  0
  8  7  1  0
  9 20  2  0
 10 15  1  0
 11 19  1  0
 11 21  1  0
 12 18  1  0
 12 14  1  0
 13 19  1  0
 14 13  1  0
 15 14  2  0
 16 17  1  0
 16 10  2  0
 17 12  2  0
 18 11  1  0
 19  9  1  0
 21 23  2  0
 22 21  1  0
 24 22  1  0
 25 34  2  0
 25 30  1  0
 26 22  1  0
 26 30  1  0
 27 26  1  0
 28 29  1  0
 28 27  1  0
 29 25  1  0
 30 31  2  0
 31 32  1  0
 33 32  2  0
 34 33  1  0
 35  9  1  0
 35 36  1  0
 35 45  1  0
 36 39  1  0
 37 41  1  0
 37 36  1  0
 38 37  2  0
 41 40  1  0
 43 41  1  0
 43 44  1  0
 43 42  1  0
 45 48  1  1
 45 46  1  0
 47 45  1  0
 49  1  1  0
 49 55  1  0
 51 54  2  0
 51 55  1  0
 52 56  1  0
 52 50  2  0
 53 50  1  0
 53 57  1  0
 54 52  1  0
 55 53  2  0
 58 66  1  0
 59 64  1  0
 60 61  1  0
 60 59  1  0
 62 61  1  0
 62 71  1  0
 62 63  1  0
 64 58  1  0
 64 63  1  0
 65 58  2  0
 66 67  1  0
 66 54  1  0
 68 69  2  0
 69 88  1  0
 70 69  1  0
 70 73  1  0
 71 72  1  0
 71 68  1  0
 72 70  2  0
 73 74  1  0
 74 75  2  0
 76 79  1  0
 76 75  1  0
 77 76  2  0
 78 77  1  0
 78 73  2  0
 79 80  1  0
 80 81  1  0
 81 82  2  0
 83 82  1  0
 83 87  1  0
 84 83  2  0
 85 80  2  0
 85 84  1  0
 86 85  1  0
 88 89  1  0
 89 92  1  0
 89 91  1  0
 90 88  2  0
 93 68  1  0
 93 94  1  0
 95 93  1  0
M  ISO  4   7 101   8 101  58 100  66 100
M  END
>  <TORSDO>  (94) 
F 21

>  <SCORE>  (94) 
-11.296

>  <name>  (94) 
93

>  <ligand_id>  (94) 
93

>  <original_smiles>  (94) 
[H]C(=C(C([H])([H])Oc1c([H])c(N([H])C(=O)N2C([H])([H])C([H])([H])C([H])([H])C([H])(n3nc(-c4c([H])c([H])c(Oc5c([H])c([H])c(F)c([H])c5F)c([H])c4[H])c(C(=O)N([H])[H])c3N([H])[H])C2([H])[H])c(C([H])([H])[H])c([H])c1C([H])([H])[H])C([H])([H])C([H])([H])[H])C([H])(Oc1c([H])c([H])c2c(c1[H])C([H])([H])N(C(=O)C([H])(N([H])C(=O)C([H])(N([H])C([H])([H])[H])C([H])([H])[H])C(C([H])([H])[H])(C([H])([H])[H])C([H])([H])[H])C([H])(C(=O)N([H])C1([H])c3c([H])c([H])c([H])c([H])c3C([H])([H])C([H])([H])C1([H])[H])C2([H])[H])C([H])([H])[H]

>  <smiles>  (94) 
[H]C(=C(C([H])([H])Oc1c([H])c(N([H])C(=O)N2C([H])([H])C([H])([H])C([H])([H])C([H])(n3nc(-c4c([H])c([H])c(Oc5c([H])c([H])c(F)c([H])c5F)c([H])c4[H])c(C(=O)N([H])[H])c3N([H])[H])C2([H])[H])c(C([H])([H])[H])c([H])c1C([H])([H])[H])C([H])([H])C([H])([H])[H])C([H])(Oc1c([H])c([H])c2c(c1[H])C([H])([H])N(C(=O)C([H])(N([H])C(=O)C([H])(N([H])C([H])([H])[H])C([H])([H])[H])C(C([H])([H])[H])(C([H])([H])[H])C([H])([H])[H])C([H])(C(=O)N([H])C1([H])c3c([H])c([H])c([H])c([H])c3C([H])([H])C([H])([H])C1([H])[H])C2([H])[H])C([H])([H])[H]

$$$$
94:0:0
     RDKit          3D

 92100  0  0  1  0  0  0  0  0999 V2000
  -29.9230  -21.1540   19.9600 C   0  0  0  0  0  2  0  0  0  0  0  0
  -30.6240  -19.7620   22.0170 C   0  0  0  0  0  3  0  0  0  0  0  0
  -30.9250  -18.5580   22.6910 C   0  0  0  0  0  3  0  0  0  0  0  0
  -29.9810  -18.4550   20.0740 C   0  0  0  0  0  3  0  0  0  0  0  0
  -30.1300  -19.7600   20.6970 C   0  0  0  0  0  0  0  0  0  0  0  0
  -30.7560  -17.2980   22.0820 C   0  0  0  0  0  0  0  0  0  0  0  0
  -30.3000  -17.2040   20.7420 C   0  0  0  0  0  0  0  0  0  0  0  0
  -31.0270  -16.0530   22.9230 C   0  0  0  0  0  1  0  0  0  0  0  0
  -30.7770  -14.7500   20.0020 C   0  0  0  0  0  0  0  0  0  0  0  0
  -30.4730  -12.5150   18.9300 C   0  0  0  0  0  2  0  0  0  0  0  0
  -29.4700  -12.6210   17.7600 C   0  0  0  0  0  2  0  0  0  0  0  0
  -28.0220  -12.4730   18.2640 C   0  0  0  0  0  2  0  0  0  0  0  0
  -27.7260  -13.3680   19.4930 C   0  0  0  0  0  3  0  0  0  0  0  0
  -28.8300  -13.2350   20.5650 C   0  0  0  0  0  2  0  0  0  0  0  0
  -30.1080  -13.5530   19.9120 N   0  0  0  0  0  0  0  0  0  0  0  0
  -31.9590  -14.8430   19.6630 O   0  0  0  0  0  0  0  0  0  0  0  0
  -29.9960  -15.8730   20.1930 N   0  0  0  0  0  0  0  0  0  0  0  0
  -29.0120  -15.6570   20.1890 H   0  0  0  0  0  0  0  0  0  0  0  0
  -25.3840  -14.0200   20.3220 C   0  0  0  0  0  0  0  0  0  0  0  0
  -24.3130  -13.2740   20.7320 C   0  0  0  0  0  0  0  0  0  0  0  0
  -24.7400  -11.9120   20.6830 C   0  0  0  0  0  0  0  0  0  0  0  0
  -26.3930  -13.1170   20.0380 N   0  0  0  0  0  0  0  0  0  0  0  0
  -26.0150  -11.8440   20.3190 N   0  0  0  0  0  0  0  0  0  0  0  0
  -23.9950  -10.6670   20.9060 C   0  0  0  0  0  0  0  0  0  0  0  0
  -24.4410   -9.6950   21.8280 C   0  0  0  0  0  3  0  0  0  0  0  0
  -23.6970   -8.5130   22.0350 C   0  0  0  0  0  3  0  0  0  0  0  0
  -22.4940   -8.2950   21.3210 C   0  0  0  0  0  0  0  0  0  0  0  0
  -22.0670   -9.2570   20.3880 C   0  0  0  0  0  3  0  0  0  0  0  0
  -22.8120  -10.4300   20.1800 C   0  0  0  0  0  3  0  0  0  0  0  0
  -21.7240   -7.1640   21.4370 O   0  0  0  0  0  0  0  0  0  0  0  0
  -21.6890   -6.4330   22.5970 C   0  0  0  0  0  0  0  0  0  0  0  0
  -21.3210   -7.0110   23.8310 C   0  0  0  0  0  3  0  0  0  0  0  0
  -21.2250   -6.2070   24.9850 C   0  0  0  0  0  3  0  0  0  0  0  0
  -21.4960   -4.8280   24.9060 C   0  0  0  0  0  0  0  0  0  0  0  0
  -21.8610   -4.2500   23.6780 C   0  0  0  0  0  3  0  0  0  0  0  0
  -21.9530   -5.0510   22.5270 C   0  0  0  0  0  0  0  0  0  0  0  0
  -22.2860   -4.4870   21.3400 F   0  0  0  0  0  0  0  0  0  0  0  0
  -21.3990   -4.0530   26.0130 F   0  0  0  0  0  0  0  0  0  0  0  0
  -22.9390  -13.7860   21.0570 C   0  0  0  0  0  0  0  0  0  0  0  0
  -22.2290  -13.1190   21.9590 N   0  0  0  0  0  0  0  0  0  0  0  0
  -22.5050  -14.8160   20.5450 O   0  0  0  0  0  0  0  0  0  0  0  0
  -22.5970  -12.2920   22.4060 H   0  0  0  0  0  0  0  0  0  0  0  0
  -21.3090  -13.4500   22.2140 H   0  0  0  0  0  0  0  0  0  0  0  0
  -25.5700  -15.3870   20.1470 N   0  0  0  0  0  0  0  0  0  0  0  0
  -24.8180  -16.0460   20.3040 H   0  0  0  0  0  0  0  0  0  0  0  0
  -26.4070  -15.8190   19.7740 H   0  0  0  0  0  0  0  0  0  0  0  0
  -29.1170  -22.3910   20.6280 C   0  0  0  0  0  2  0  0  0  0  0  0
  -29.2120  -23.9240   18.5830 C   0  0  0  0  0  1  0  0  0  0  0  0
  -30.7740  -24.3730   20.4900 C   0  0  0  0  0  1  0  0  0  0  0  0
  -29.3480  -23.9200   20.1180 C   0  0  2  0  0  0  0  0  0  0  0  0
  -28.3350  -25.0350   20.7060 C   0  0  0  0  0  2  0  0  0  0  0  0
  -28.5320  -26.4930   20.4200 O   0  0  0  0  0  0  0  0  0  0  0  0
  -24.6430  -31.9080   23.2910 C   0  0  0  0  0  0  0  0  0  0  0  0
  -27.4060  -27.3390   20.3650 C   0  0  0  0  0  0  0  0  0  0  0  0
  -23.5100  -30.4770   21.6310 C   0  0  0  0  0  3  0  0  0  0  0  0
  -25.0250  -28.9310   20.2710 C   0  0  0  0  0  0  0  0  0  0  0  0
  -26.0520  -30.8290   21.5210 C   0  0  0  0  0  2  0  0  0  0  0  0
  -26.1720  -29.4430   20.8900 C   0  0  0  0  0  0  0  0  0  0  0  0
  -27.3690  -28.6600   20.9200 C   0  0  0  0  0  3  0  0  0  0  0  0
  -26.2350  -26.8880   19.7160 C   0  0  0  0  0  3  0  0  0  0  0  0
  -25.0600  -27.6630   19.6730 C   0  0  0  0  0  3  0  0  0  0  0  0
  -23.7770  -29.7910   20.2660 C   0  0  0  0  0  2  0  0  0  0  0  0
  -24.7510  -31.0880   22.2050 N   0  0  0  0  0  0  0  0  0  0  0  0
  -23.5400  -32.1750   23.7900 O   0  0  0  0  0  0  0  0  0  0  0  0
  -22.8300  -29.4600   22.5830 C   0  0  0  0  0  0  0  0  0  0  0  0
  -21.5120  -29.2580   22.4110 N   0  0  0  0  0  0  0  0  0  0  0  0
  -23.4890  -28.8590   23.4340 O   0  0  0  0  0  0  0  0  0  0  0  0
  -21.0370  -29.8010   21.7020 H   0  0  0  0  0  0  0  0  0  0  0  0
  -18.1490  -27.9680   22.7680 C   0  0  0  0  0  0  0  0  0  0  0  0
  -20.6810  -28.3150   23.1650 C   0  0  0  0  0  3  0  0  0  0  0  0
  -20.8580  -26.8720   22.6390 C   0  0  0  0  0  2  0  0  0  0  0  0
  -19.8230  -26.4860   21.5780 C   0  0  0  0  0  2  0  0  0  0  0  0
  -18.4040  -26.6050   22.1460 C   0  0  0  0  0  2  0  0  0  0  0  0
  -19.2200  -28.7770   23.2340 C   0  0  0  0  0  0  0  0  0  0  0  0
  -18.9320  -30.0470   23.7780 C   0  0  0  0  0  3  0  0  0  0  0  0
  -17.6060  -30.5120   23.8580 C   0  0  0  0  0  3  0  0  0  0  0  0
  -16.5500  -29.7010   23.4110 C   0  0  0  0  0  3  0  0  0  0  0  0
  -16.8210  -28.4300   22.8730 C   0  0  0  0  0  3  0  0  0  0  0  0
  -25.8940  -32.5670   23.9470 C   0  0  0  0  0  3  0  0  0  0  0  0
  -26.3700  -31.8290   25.2580 C   0  0  1  0  0  0  0  0  0  0  0  0
  -25.2370  -31.6100   26.2900 C   0  0  0  0  0  1  0  0  0  0  0  0
  -26.9750  -30.4470   24.9230 C   0  0  0  0  0  1  0  0  0  0  0  0
  -27.4890  -32.6490   25.9440 C   0  0  0  0  0  1  0  0  0  0  0  0
  -25.5590  -33.9680   24.2350 N   0  0  0  0  0  0  0  0  0  0  0  0
  -25.9160  -35.0110   23.4740 C   0  0  0  0  0  0  0  0  0  0  0  0
  -26.6280  -34.8950   22.4730 O   0  0  0  0  0  0  0  0  0  0  0  0
  -24.9180  -34.1340   24.9990 H   0  0  0  0  0  0  0  0  0  0  0  0
  -24.1850  -36.7820   23.0340 C   0  0  0  0  0  1  0  0  0  0  0  0
  -25.4030  -36.4030   23.8890 C   0  0  0  0  0  3  0  0  0  0  0  0
  -27.5080  -37.3170   24.7620 C   0  0  0  0  0  1  0  0  0  0  0  0
  -26.4290  -37.4630   23.7910 N   0  0  0  0  0  0  0  0  0  0  0  0
  -26.0100  -38.3800   23.9200 H   0  0  0  0  0  0  0  0  0  0  0  0
  1 47  1  0
  1  5  1  0
  2  3  1  0
  4  5  1  0
  4  7  2  0
  5  2  2  0
  6  3  2  0
  6  8  1  0
  7  6  1  0
  9 17  1  0
 10 15  1  0
 11 12  1  0
 11 10  1  0
 13 12  1  0
 13 22  1  0
 13 14  1  0
 15  9  1  0
 15 14  1  0
 16  9  2  0
 17  7  1  0
 18 17  1  0
 19 20  2  0
 20 39  1  0
 21 20  1  0
 21 24  1  0
 22 23  1  0
 22 19  1  0
 23 21  2  0
 24 25  1  0
 25 26  2  0
 27 30  1  0
 27 26  1  0
 28 27  2  0
 29 28  1  0
 29 24  2  0
 30 31  1  0
 31 32  1  0
 32 33  2  0
 34 33  1  0
 34 38  1  0
 35 34  2  0
 36 31  2  0
 36 35  1  0
 37 36  1  0
 39 40  1  0
 40 43  1  0
 40 42  1  0
 41 39  2  0
 44 45  1  0
 44 19  1  0
 46 44  1  0
 50 48  1  6
 50 49  1  0
 50 47  1  0
 50 51  1  0
 52 51  1  0
 53 64  2  0
 54 52  1  0
 54 59  1  0
 55 63  1  0
 55 65  1  0
 56 58  1  0
 57 63  1  0
 58 59  2  0
 58 57  1  0
 60 54  2  0
 61 60  1  0
 61 56  2  0
 62 56  1  0
 62 55  1  0
 63 53  1  0
 65 67  2  0
 66 65  1  0
 68 66  1  0
 69 78  2  0
 69 74  1  0
 70 66  1  0
 70 74  1  0
 71 70  1  0
 72 73  1  0
 72 71  1  0
 73 69  1  0
 74 75  2  0
 75 76  1  0
 77 76  2  0
 78 77  1  0
 79 53  1  0
 79 84  1  0
 79 80  1  0
 80 83  1  1
 80 81  1  0
 82 80  1  0
 84 87  1  0
 85 89  1  0
 85 84  1  0
 86 85  2  0
 89 88  1  0
 91 89  1  0
 91 92  1  0
 91 90  1  0
M  ISO  4   9 100  17 100  51 101  52 101
M  END
>  <TORSDO>  (95) 
F 20

>  <SCORE>  (95) 
-12.618

>  <name>  (95) 
94

>  <ligand_id>  (95) 
94

>  <original_smiles>  (95) 
[H]c1c([H])c([H])c2c(c1[H])C([H])([H])C([H])([H])C([H])([H])C2([H])N([H])C(=O)C1([H])N(C(=O)C([H])(N([H])C(=O)C([H])(N([H])C([H])([H])[H])C([H])([H])[H])C(C([H])([H])[H])(C([H])([H])[H])C([H])([H])[H])C([H])([H])c2c([H])c(OC([H])([H])C(C([H])([H])[H])(C([H])([H])[H])C([H])([H])C([H])([H])c3c([H])c([H])c(C([H])([H])[H])c(N([H])C(=O)N4C([H])([H])C([H])([H])C([H])([H])C([H])(n5nc(-c6c([H])c([H])c(Oc7c([H])c([H])c(F)c([H])c7F)c([H])c6[H])c(C(=O)N([H])[H])c5N([H])[H])C4([H])[H])c3[H])c([H])c([H])c2C1([H])[H]

>  <smiles>  (95) 
[H]c1c([H])c([H])c2c(c1[H])C([H])([H])C([H])([H])C([H])([H])C2([H])N([H])C(=O)C1([H])N(C(=O)C([H])(N([H])C(=O)C([H])(N([H])C([H])([H])[H])C([H])([H])[H])C(C([H])([H])[H])(C([H])([H])[H])C([H])([H])[H])C([H])([H])c2c([H])c(OC([H])([H])C(C([H])([H])[H])(C([H])([H])[H])C([H])([H])C([H])([H])c3c([H])c([H])c(C([H])([H])[H])c(N([H])C(=O)N4C([H])([H])C([H])([H])C([H])([H])C([H])(n5nc(-c6c([H])c([H])c(Oc7c([H])c([H])c(F)c([H])c7F)c([H])c6[H])c(C(=O)N([H])[H])c5N([H])[H])C4([H])[H])c3[H])c([H])c([H])c2C1([H])[H]

$$$$
95:0:0
     RDKit          3D

 94102  0  0  1  0  0  0  0  0999 V2000
  -30.3340  -18.2960   21.8730 C   0  0  0  0  0  3  0  0  0  0  0  0
  -30.3870  -19.7120   21.8690 C   0  0  0  0  0  3  0  0  0  0  0  0
  -30.4880  -19.6960   19.4690 C   0  0  0  0  0  3  0  0  0  0  0  0
  -30.3210  -17.5140   20.6830 C   0  0  0  0  0  0  0  0  0  0  0  0
  -30.4490  -18.2570   19.4580 C   0  0  0  0  0  0  0  0  0  0  0  0
  -30.4190  -20.4560   20.6700 C   0  0  0  0  0  0  0  0  0  0  0  0
  -29.9100  -16.0400   20.8440 C   0  0  0  0  0  0  0  0  0  0  0  0
  -28.8320  -15.8990   21.4930 N   0  0  0  0  0  0  0  0  0  0  0  0
  -28.4670  -16.7990   21.7750 H   0  0  0  0  0  0  0  0  0  0  0  0
  -30.7480  -14.8160   20.2670 C   0  0  0  0  0  0  0  0  0  0  0  0
  -30.5550  -12.6110   19.1160 C   0  0  0  0  0  2  0  0  0  0  0  0
  -29.5640  -12.7420   17.9330 C   0  0  0  0  0  2  0  0  0  0  0  0
  -28.0970  -12.5730   18.3880 C   0  0  0  0  0  2  0  0  0  0  0  0
  -27.7780  -13.3740   19.6760 C   0  0  0  0  0  3  0  0  0  0  0  0
  -28.8680  -13.1080   20.7350 C   0  0  0  0  0  2  0  0  0  0  0  0
  -30.1490  -13.5720   20.1670 N   0  0  0  0  0  0  0  0  0  0  0  0
  -31.8800  -14.9990   19.8060 O   0  0  0  0  0  0  0  0  0  0  0  0
  -25.3880  -13.9680   20.4260 C   0  0  0  0  0  0  0  0  0  0  0  0
  -24.3300  -13.1850   20.8090 C   0  0  0  0  0  0  0  0  0  0  0  0
  -24.8010  -11.8390   20.7660 C   0  0  0  0  0  0  0  0  0  0  0  0
  -26.4360  -13.0920   20.1800 N   0  0  0  0  0  0  0  0  0  0  0  0
  -26.0850  -11.8070   20.4360 N   0  0  0  0  0  0  0  0  0  0  0  0
  -24.0870  -10.5720   20.9680 C   0  0  0  0  0  0  0  0  0  0  0  0
  -24.5220   -9.6230   21.9190 C   0  0  0  0  0  3  0  0  0  0  0  0
  -23.8100   -8.4190   22.1050 C   0  0  0  0  0  3  0  0  0  0  0  0
  -22.6490   -8.1570   21.3410 C   0  0  0  0  0  0  0  0  0  0  0  0
  -22.2320   -9.0960   20.3800 C   0  0  0  0  0  3  0  0  0  0  0  0
  -22.9450  -10.2910   20.1930 C   0  0  0  0  0  3  0  0  0  0  0  0
  -21.9060   -7.0040   21.4350 O   0  0  0  0  0  0  0  0  0  0  0  0
  -21.8150   -6.3010   22.6100 C   0  0  0  0  0  0  0  0  0  0  0  0
  -21.3160   -6.8890   23.7930 C   0  0  0  0  0  3  0  0  0  0  0  0
  -21.1720   -6.1110   24.9590 C   0  0  0  0  0  3  0  0  0  0  0  0
  -21.5170   -4.7460   24.9430 C   0  0  0  0  0  0  0  0  0  0  0  0
  -22.0100   -4.1580   23.7640 C   0  0  0  0  0  3  0  0  0  0  0  0
  -22.1540   -4.9330   22.6000 C   0  0  0  0  0  0  0  0  0  0  0  0
  -22.6090   -4.3560   21.4620 F   0  0  0  0  0  0  0  0  0  0  0  0
  -21.3730   -3.9970   26.0610 F   0  0  0  0  0  0  0  0  0  0  0  0
  -22.9350  -13.6540   21.1100 C   0  0  0  0  0  0  0  0  0  0  0  0
  -22.2290  -12.9540   21.9920 N   0  0  0  0  0  0  0  0  0  0  0  0
  -22.4810  -14.6780   20.6020 O   0  0  0  0  0  0  0  0  0  0  0  0
  -22.6130  -12.1270   22.4230 H   0  0  0  0  0  0  0  0  0  0  0  0
  -21.2960  -13.2550   22.2360 H   0  0  0  0  0  0  0  0  0  0  0  0
  -25.5450  -15.3380   20.2560 N   0  0  0  0  0  0  0  0  0  0  0  0
  -24.7970  -16.0020   20.4170 H   0  0  0  0  0  0  0  0  0  0  0  0
  -26.4420  -15.7780   20.0890 H   0  0  0  0  0  0  0  0  0  0  0  0
  -32.0330  -17.4960   17.6380 C   0  0  0  0  0  1  0  0  0  0  0  0
  -29.6490  -18.0930   17.0100 C   0  0  0  0  0  1  0  0  0  0  0  0
  -30.5700  -17.5340   18.1070 C   0  0  0  0  0  3  0  0  0  0  0  0
  -30.5130  -21.8550   20.7630 O   0  0  0  0  0  0  0  0  0  0  0  0
  -29.5740  -22.7430   20.0860 C   0  0  0  0  0  2  0  0  0  0  0  0
  -29.3600  -24.2860   22.1340 C   0  0  0  0  0  1  0  0  0  0  0  0
  -29.6080  -24.2560   20.6140 C   0  0  0  0  0  3  0  0  0  0  0  0
  -28.6120  -25.2780   19.9180 C   0  0  0  0  0  2  0  0  0  0  0  0
  -28.6600  -26.6960   20.3370 O   0  0  0  0  0  0  0  0  0  0  0  0
  -24.7020  -31.9380   23.2940 C   0  0  0  0  0  0  0  0  0  0  0  0
  -27.5030  -27.4880   20.2540 C   0  0  0  0  0  0  0  0  0  0  0  0
  -23.5730  -30.5330   21.6080 C   0  0  0  0  0  3  0  0  0  0  0  0
  -25.0930  -29.0300   20.2070 C   0  0  0  0  0  0  0  0  0  0  0  0
  -26.1060  -30.9150   21.4880 C   0  0  0  0  0  2  0  0  0  0  0  0
  -26.2330  -29.5440   20.8330 C   0  0  0  0  0  0  0  0  0  0  0  0
  -27.4380  -28.7860   20.8480 C   0  0  0  0  0  3  0  0  0  0  0  0
  -26.3370  -27.0280   19.5980 C   0  0  0  0  0  3  0  0  0  0  0  0
  -25.1450  -27.7740   19.5840 C   0  0  0  0  0  3  0  0  0  0  0  0
  -23.8390  -29.8810   20.2240 C   0  0  0  0  0  2  0  0  0  0  0  0
  -24.8110  -31.1430   22.1900 N   0  0  0  0  0  0  0  0  0  0  0  0
  -23.6000  -32.1870   23.8040 O   0  0  0  0  0  0  0  0  0  0  0  0
  -22.9070  -29.4920   22.5380 C   0  0  0  0  0  0  0  0  0  0  0  0
  -21.5910  -29.2860   22.3710 N   0  0  0  0  0  0  0  0  0  0  0  0
  -23.5760  -28.8740   23.3690 O   0  0  0  0  0  0  0  0  0  0  0  0
  -21.1110  -29.8320   21.6710 H   0  0  0  0  0  0  0  0  0  0  0  0
  -18.2230  -28.0280   22.7730 C   0  0  0  0  0  0  0  0  0  0  0  0
  -20.7690  -28.3240   23.1090 C   0  0  0  0  0  3  0  0  0  0  0  0
  -20.9090  -26.9020   22.5170 C   0  0  0  0  0  2  0  0  0  0  0  0
  -19.8380  -26.5760   21.4740 C   0  0  0  0  0  2  0  0  0  0  0  0
  -18.4390  -26.6910   22.0840 C   0  0  0  0  0  2  0  0  0  0  0  0
  -19.3170  -28.8020   23.2400 C   0  0  0  0  0  0  0  0  0  0  0  0
  -19.0640  -30.0530   23.8410 C   0  0  0  0  0  3  0  0  0  0  0  0
  -17.7460  -30.5310   23.9800 C   0  0  0  0  0  3  0  0  0  0  0  0
  -16.6650  -29.7530   23.5300 C   0  0  0  0  0  3  0  0  0  0  0  0
  -16.9040  -28.5030   22.9310 C   0  0  0  0  0  3  0  0  0  0  0  0
  -25.9550  -32.5890   23.9560 C   0  0  0  0  0  3  0  0  0  0  0  0
  -25.6230  -33.9890   24.2510 N   0  0  0  0  0  0  0  0  0  0  0  0
  -25.9620  -35.0300   23.4800 C   0  0  0  0  0  0  0  0  0  0  0  0
  -26.6550  -34.9150   22.4660 O   0  0  0  0  0  0  0  0  0  0  0  0
  -25.0030  -34.1510   25.0300 H   0  0  0  0  0  0  0  0  0  0  0  0
  -24.2100  -36.7890   23.0690 C   0  0  0  0  0  1  0  0  0  0  0  0
  -25.4510  -36.4210   23.8990 C   0  0  0  0  0  3  0  0  0  0  0  0
  -27.5620  -37.3610   24.7320 C   0  0  0  0  0  1  0  0  0  0  0  0
  -26.4690  -37.4860   23.7700 N   0  0  0  0  0  0  0  0  0  0  0  0
  -26.0460  -38.4040   23.8900 H   0  0  0  0  0  0  0  0  0  0  0  0
  -26.4250  -31.8400   25.2650 C   0  0  1  0  0  0  0  0  0  0  0  0
  -25.2900  -31.6020   26.2870 C   0  0  0  0  0  1  0  0  0  0  0  0
  -27.0410  -30.4670   24.9160 C   0  0  0  0  0  1  0  0  0  0  0  0
  -27.5320  -32.6610   25.9680 C   0  0  0  0  0  1  0  0  0  0  0  0
  2  1  1  0
  3  6  1  0
  4  7  1  0
  4  1  2  0
  5  3  2  0
  5  4  1  0
  6 49  1  0
  6  2  2  0
  7  8  2  0
  8  9  1  0
 10  7  1  0
 11 16  1  0
 12 13  1  0
 12 11  1  0
 14 13  1  0
 14 21  1  0
 14 15  1  0
 16 10  1  0
 16 15  1  0
 17 10  2  0
 18 19  2  0
 19 38  1  0
 20 19  1  0
 20 23  1  0
 21 18  1  0
 21 22  1  0
 22 20  2  0
 23 24  1  0
 24 25  2  0
 26 29  1  0
 26 25  1  0
 27 26  2  0
 28 27  1  0
 28 23  2  0
 29 30  1  0
 30 31  1  0
 31 32  2  0
 33 32  1  0
 33 37  1  0
 34 33  2  0
 35 30  2  0
 35 34  1  0
 36 35  1  0
 38 39  1  0
 39 42  1  0
 39 41  1  0
 40 38  2  0
 43 44  1  0
 43 18  1  0
 45 43  1  0
 46 48  1  0
 47 48  1  0
 48  5  1  0
 50 52  1  0
 50 49  1  0
 52 51  1  0
 53 54  1  0
 53 52  1  0
 55 66  2  0
 56 54  1  0
 56 61  1  0
 57 65  1  0
 57 67  1  0
 58 64  1  0
 58 60  1  0
 59 65  1  0
 60 61  2  0
 60 59  1  0
 62 56  2  0
 63 62  1  0
 63 58  2  0
 64 57  1  0
 65 55  1  0
 67 69  2  0
 68 67  1  0
 70 68  1  0
 71 80  2  0
 71 76  1  0
 72 68  1  0
 72 76  1  0
 73 72  1  0
 74 75  1  0
 74 73  1  0
 75 71  1  0
 76 77  2  0
 77 78  1  0
 79 78  2  0
 80 79  1  0
 81 55  1  0
 81 82  1  0
 81 91  1  0
 82 85  1  0
 83 87  1  0
 83 82  1  0
 84 83  2  0
 87 86  1  0
 89 90  1  0
 89 87  1  0
 89 88  1  0
 91 94  1  1
 91 92  1  0
 93 91  1  0
M  ISO  4   7 100  10 100  53 101  54 101
M  END
>  <TORSDO>  (96) 
F 22

>  <SCORE>  (96) 
-12.685

>  <name>  (96) 
95

>  <ligand_id>  (96) 
95

>  <original_smiles>  (96) 
[H]N=C(C(=O)N1C([H])([H])C([H])([H])C([H])([H])C([H])(n2nc(-c3c([H])c([H])c(Oc4c([H])c([H])c(F)c([H])c4F)c([H])c3[H])c(C(=O)N([H])[H])c2N([H])[H])C1([H])[H])c1c([H])c([H])c(OC([H])([H])C([H])(C([H])([H])[H])C([H])([H])Oc2c([H])c([H])c3c(c2[H])C([H])([H])N(C(=O)C([H])(N([H])C(=O)C([H])(N([H])C([H])([H])[H])C([H])([H])[H])C(C([H])([H])[H])(C([H])([H])[H])C([H])([H])[H])C([H])(C(=O)N([H])C2([H])c4c([H])c([H])c([H])c([H])c4C([H])([H])C([H])([H])C2([H])[H])C3([H])[H])c([H])c1C([H])(C([H])([H])[H])C([H])([H])[H]

>  <smiles>  (96) 
[H]N=C(C(=O)N1C([H])([H])C([H])([H])C([H])([H])C([H])(n2nc(-c3c([H])c([H])c(Oc4c([H])c([H])c(F)c([H])c4F)c([H])c3[H])c(C(=O)N([H])[H])c2N([H])[H])C1([H])[H])c1c([H])c([H])c(OC([H])([H])C([H])(C([H])([H])[H])C([H])([H])Oc2c([H])c([H])c3c(c2[H])C([H])([H])N(C(=O)C([H])(N([H])C(=O)C([H])(N([H])C([H])([H])[H])C([H])([H])[H])C(C([H])([H])[H])(C([H])([H])[H])C([H])([H])[H])C([H])(C(=O)N([H])C2([H])c4c([H])c([H])c([H])c([H])c4C([H])([H])C([H])([H])C2([H])[H])C3([H])[H])c([H])c1C([H])(C([H])([H])[H])C([H])([H])[H]

$$$$
96:0:0
     RDKit          3D

 91 99  0  0  1  0  0  0  0  0999 V2000
  -29.1380  -21.0410   20.1190 C   0  0  0  0  0  2  0  0  0  0  0  0
  -31.9450  -18.7010   21.6600 C   0  0  0  0  0  3  0  0  0  0  0  0
  -31.4650  -17.4050   21.4230 C   0  0  0  0  0  3  0  0  0  0  0  0
  -29.4530  -18.3870   20.4870 C   0  0  0  0  0  3  0  0  0  0  0  0
  -31.2260  -19.8560   21.2760 C   0  0  0  0  0  0  0  0  0  0  0  0
  -29.9300  -19.7550   20.6850 C   0  0  0  0  0  0  0  0  0  0  0  0
  -30.2180  -17.1880   20.8070 C   0  0  0  0  0  0  0  0  0  0  0  0
  -31.9270  -21.1760   21.5120 C   0  0  0  0  0  1  0  0  0  0  0  0
  -30.5220  -14.6740   20.2440 C   0  0  0  0  0  0  0  0  0  0  0  0
  -30.2430  -12.4550   19.1230 C   0  0  0  0  0  2  0  0  0  0  0  0
  -29.2650  -12.6050   17.9370 C   0  0  0  0  0  2  0  0  0  0  0  0
  -27.8130  -12.4360   18.4200 C   0  0  0  0  0  2  0  0  0  0  0  0
  -27.5000  -13.2890   19.6800 C   0  0  0  0  0  3  0  0  0  0  0  0
  -28.5880  -13.1040   20.7560 C   0  0  0  0  0  2  0  0  0  0  0  0
  -29.8720  -13.4660   20.1400 N   0  0  0  0  0  0  0  0  0  0  0  0
  -31.6840  -14.7830   19.8330 O   0  0  0  0  0  0  0  0  0  0  0  0
  -29.7820  -15.7890   20.6020 N   0  0  0  0  0  0  0  0  0  0  0  0
  -28.8020  -15.6040   20.7610 H   0  0  0  0  0  0  0  0  0  0  0  0
  -25.1360  -13.8780   20.4810 C   0  0  0  0  0  0  0  0  0  0  0  0
  -24.0850  -13.0940   20.8820 C   0  0  0  0  0  0  0  0  0  0  0  0
  -24.5510  -11.7480   20.8230 C   0  0  0  0  0  0  0  0  0  0  0  0
  -26.1720  -13.0010   20.2050 N   0  0  0  0  0  0  0  0  0  0  0  0
  -25.8280  -11.7160   20.4680 N   0  0  0  0  0  0  0  0  0  0  0  0
  -23.8380  -10.4790   21.0210 C   0  0  0  0  0  0  0  0  0  0  0  0
  -24.2950   -9.5050   21.9370 C   0  0  0  0  0  3  0  0  0  0  0  0
  -23.5760   -8.3050   22.1200 C   0  0  0  0  0  3  0  0  0  0  0  0
  -22.3880   -8.0690   21.3890 C   0  0  0  0  0  0  0  0  0  0  0  0
  -21.9560   -9.0290   20.4560 C   0  0  0  0  0  3  0  0  0  0  0  0
  -22.6760  -10.2210   20.2700 C   0  0  0  0  0  3  0  0  0  0  0  0
  -21.6390   -6.9240   21.4870 O   0  0  0  0  0  0  0  0  0  0  0  0
  -21.6100   -6.1750   22.6390 C   0  0  0  0  0  0  0  0  0  0  0  0
  -21.1850   -6.7200   23.8700 C   0  0  0  0  0  3  0  0  0  0  0  0
  -21.1050   -5.8980   25.0140 C   0  0  0  0  0  3  0  0  0  0  0  0
  -21.4420   -4.5350   24.9240 C   0  0  0  0  0  0  0  0  0  0  0  0
  -21.8640   -3.9910   23.6990 C   0  0  0  0  0  3  0  0  0  0  0  0
  -21.9450   -4.8090   22.5590 C   0  0  0  0  0  0  0  0  0  0  0  0
  -22.3300   -4.2740   21.3750 F   0  0  0  0  0  0  0  0  0  0  0  0
  -21.3590   -3.7440   26.0200 F   0  0  0  0  0  0  0  0  0  0  0  0
  -22.6970  -13.5640   21.2060 C   0  0  0  0  0  0  0  0  0  0  0  0
  -21.9990  -12.8480   22.0820 N   0  0  0  0  0  0  0  0  0  0  0  0
  -22.2430  -14.5980   20.7200 O   0  0  0  0  0  0  0  0  0  0  0  0
  -22.3830  -12.0110   22.4920 H   0  0  0  0  0  0  0  0  0  0  0  0
  -21.0680  -13.1400   22.3450 H   0  0  0  0  0  0  0  0  0  0  0  0
  -25.2950  -15.2480   20.3080 N   0  0  0  0  0  0  0  0  0  0  0  0
  -24.5350  -15.9070   20.4430 H   0  0  0  0  0  0  0  0  0  0  0  0
  -26.1250  -15.6800   19.9210 H   0  0  0  0  0  0  0  0  0  0  0  0
  -29.0250  -22.5160   20.8220 C   0  0  0  0  0  2  0  0  0  0  0  0
  -29.7630  -24.1280   18.9140 C   0  0  0  0  0  1  0  0  0  0  0  0
  -28.6750  -23.8610   19.9700 C   0  0  0  0  0  3  0  0  0  0  0  0
  -28.4230  -25.2130   20.8130 C   0  0  0  0  0  2  0  0  0  0  0  0
  -28.4310  -26.5600   20.1910 O   0  0  0  0  0  0  0  0  0  0  0  0
  -24.5840  -31.8970   23.2500 C   0  0  0  0  0  0  0  0  0  0  0  0
  -27.2820  -27.3570   20.2310 C   0  0  0  0  0  0  0  0  0  0  0  0
  -23.4130  -30.4840   21.5960 C   0  0  0  0  0  3  0  0  0  0  0  0
  -24.8940  -28.9240   20.2040 C   0  0  0  0  0  0  0  0  0  0  0  0
  -25.9520  -30.8180   21.4470 C   0  0  0  0  0  2  0  0  0  0  0  0
  -26.0530  -29.4390   20.8030 C   0  0  0  0  0  0  0  0  0  0  0  0
  -27.2520  -28.6650   20.8000 C   0  0  0  0  0  3  0  0  0  0  0  0
  -26.0990  -26.8810   19.6280 C   0  0  0  0  0  3  0  0  0  0  0  0
  -24.9170  -27.6480   19.6120 C   0  0  0  0  0  3  0  0  0  0  0  0
  -23.6520  -29.7900   20.2270 C   0  0  0  0  0  2  0  0  0  0  0  0
  -24.6690  -31.0840   22.1570 N   0  0  0  0  0  0  0  0  0  0  0  0
  -23.4900  -32.1700   23.7650 O   0  0  0  0  0  0  0  0  0  0  0  0
  -22.7390  -29.4710   22.5520 C   0  0  0  0  0  0  0  0  0  0  0  0
  -21.4120  -29.3030   22.4180 N   0  0  0  0  0  0  0  0  0  0  0  0
  -23.4100  -28.8350   23.3710 O   0  0  0  0  0  0  0  0  0  0  0  0
  -20.9310  -29.8730   21.7370 H   0  0  0  0  0  0  0  0  0  0  0  0
  -18.0200  -28.1370   22.9050 C   0  0  0  0  0  0  0  0  0  0  0  0
  -20.5810  -28.3660   23.1760 C   0  0  0  0  0  3  0  0  0  0  0  0
  -20.6680  -26.9370   22.5910 C   0  0  0  0  0  2  0  0  0  0  0  0
  -19.5620  -26.6390   21.5730 C   0  0  0  0  0  2  0  0  0  0  0  0
  -18.1820  -26.7920   22.2180 C   0  0  0  0  0  2  0  0  0  0  0  0
  -19.1480  -28.8840   23.3430 C   0  0  0  0  0  0  0  0  0  0  0  0
  -18.9420  -30.1440   23.9450 C   0  0  0  0  0  3  0  0  0  0  0  0
  -17.6410  -30.6580   24.1150 C   0  0  0  0  0  3  0  0  0  0  0  0
  -16.5290  -29.9050   23.7010 C   0  0  0  0  0  3  0  0  0  0  0  0
  -16.7200  -28.6490   23.0980 C   0  0  0  0  0  3  0  0  0  0  0  0
  -25.8510  -32.5410   23.8920 C   0  0  0  0  0  3  0  0  0  0  0  0
  -26.3410  -31.7870   25.1890 C   0  0  1  0  0  0  0  0  0  0  0  0
  -25.2230  -31.5560   26.2340 C   0  0  0  0  0  1  0  0  0  0  0  0
  -26.9350  -30.4090   24.8200 C   0  0  0  0  0  1  0  0  0  0  0  0
  -27.4830  -32.5860   25.8600 C   0  0  0  0  0  1  0  0  0  0  0  0
  -25.5310  -33.9430   24.1980 N   0  0  0  0  0  0  0  0  0  0  0  0
  -25.8830  -34.9900   23.4390 C   0  0  0  0  0  0  0  0  0  0  0  0
  -26.5760  -34.8740   22.4240 O   0  0  0  0  0  0  0  0  0  0  0  0
  -24.9180  -34.1020   24.9830 H   0  0  0  0  0  0  0  0  0  0  0  0
  -24.1720  -36.7860   23.0360 C   0  0  0  0  0  1  0  0  0  0  0  0
  -25.3940  -36.3840   23.8740 C   0  0  0  0  0  3  0  0  0  0  0  0
  -27.5130  -37.2730   24.7440 C   0  0  0  0  0  1  0  0  0  0  0  0
  -26.4350  -37.4310   23.7730 N   0  0  0  0  0  0  0  0  0  0  0  0
  -26.0300  -38.3540   23.8980 H   0  0  0  0  0  0  0  0  0  0  0  0
  1  6  1  0
  1 47  1  0
  3  2  1  0
  4  6  2  0
  4  7  1  0
  5  8  1  0
  5  2  2  0
  6  5  1  0
  7  3  2  0
  9 17  1  0
 10 15  1  0
 11 12  1  0
 11 10  1  0
 13 12  1  0
 13 22  1  0
 13 14  1  0
 15  9  1  0
 15 14  1  0
 16  9  2  0
 17 18  1  0
 17  7  1  0
 19 20  2  0
 20 39  1  0
 21 20  1  0
 21 24  1  0
 22 23  1  0
 22 19  1  0
 23 21  2  0
 24 25  1  0
 25 26  2  0
 27 30  1  0
 27 26  1  0
 28 27  2  0
 29 28  1  0
 29 24  2  0
 30 31  1  0
 31 32  1  0
 32 33  2  0
 34 33  1  0
 34 38  1  0
 35 34  2  0
 36 31  2  0
 36 35  1  0
 37 36  1  0
 39 40  1  0
 40 43  1  0
 40 42  1  0
 41 39  2  0
 44 45  1  0
 44 19  1  0
 46 44  1  0
 49 48  1  0
 49 50  1  0
 49 47  1  0
 51 53  1  0
 51 50  1  0
 52 63  2  0
 53 58  1  0
 54 62  1  0
 54 64  1  0
 55 61  1  0
 55 57  1  0
 56 62  1  0
 57 56  1  0
 58 57  2  0
 59 53  2  0
 60 59  1  0
 60 55  2  0
 61 54  1  0
 62 52  1  0
 64 66  2  0
 65 64  1  0
 67 65  1  0
 68 77  2  0
 68 73  1  0
 69 65  1  0
 69 73  1  0
 70 69  1  0
 71 72  1  0
 71 70  1  0
 72 68  1  0
 73 74  2  0
 74 75  1  0
 76 75  2  0
 77 76  1  0
 78 52  1  0
 78 83  1  0
 78 79  1  0
 79 82  1  1
 79 80  1  0
 81 79  1  0
 83 86  1  0
 84 88  1  0
 84 83  1  0
 85 84  2  0
 88 87  1  0
 90 88  1  0
 90 91  1  0
 90 89  1  0
M  ISO  4   9 100  17 100  50 101  51 101
M  END
>  <TORSDO>  (97) 
F 20

>  <SCORE>  (97) 
-14.052

>  <name>  (97) 
96

>  <ligand_id>  (97) 
96

>  <original_smiles>  (97) 
[H]c1c([H])c([H])c2c(c1[H])C([H])([H])C([H])([H])C([H])([H])C2([H])N([H])C(=O)C1([H])N(C(=O)C([H])(N([H])C(=O)C([H])(N([H])C([H])([H])[H])C([H])([H])[H])C(C([H])([H])[H])(C([H])([H])[H])C([H])([H])[H])C([H])([H])c2c([H])c(OC([H])([H])C([H])(C([H])([H])[H])C([H])([H])C([H])([H])c3c([H])c(N([H])C(=O)N4C([H])([H])C([H])([H])C([H])([H])C([H])(n5nc(-c6c([H])c([H])c(Oc7c([H])c([H])c(F)c([H])c7F)c([H])c6[H])c(C(=O)N([H])[H])c5N([H])[H])C4([H])[H])c([H])c([H])c3C([H])([H])[H])c([H])c([H])c2C1([H])[H]

>  <smiles>  (97) 
[H]c1c([H])c([H])c2c(c1[H])C([H])([H])C([H])([H])C([H])([H])C2([H])N([H])C(=O)C1([H])N(C(=O)C([H])(N([H])C(=O)C([H])(N([H])C([H])([H])[H])C([H])([H])[H])C(C([H])([H])[H])(C([H])([H])[H])C([H])([H])[H])C([H])([H])c2c([H])c(OC([H])([H])C([H])(C([H])([H])[H])C([H])([H])C([H])([H])c3c([H])c(N([H])C(=O)N4C([H])([H])C([H])([H])C([H])([H])C([H])(n5nc(-c6c([H])c([H])c(Oc7c([H])c([H])c(F)c([H])c7F)c([H])c6[H])c(C(=O)N([H])[H])c5N([H])[H])C4([H])[H])c([H])c([H])c3C([H])([H])[H])c([H])c([H])c2C1([H])[H]

$$$$
97:0:0
     RDKit          3D

 95103  0  0  1  0  0  0  0  0999 V2000
  -29.1690  -21.7020   20.4680 C   0  0  0  0  0  3  0  0  0  0  0  0
  -30.7900  -19.5990   20.3830 C   0  0  0  0  0  3  0  0  0  0  0  0
  -31.0350  -18.1850   20.4240 C   0  0  0  0  0  3  0  0  0  0  0  0
  -28.6820  -17.7970   20.1690 C   0  0  0  0  0  3  0  0  0  0  0  0
  -29.4790  -20.1530   20.2620 C   0  0  0  0  0  0  0  0  0  0  0  0
  -28.4300  -19.1980   20.1100 C   0  0  0  0  0  0  0  0  0  0  0  0
  -29.9710  -17.2440   20.3530 C   0  0  0  0  0  0  0  0  0  0  0  0
  -26.9840  -19.6390   19.9470 C   0  0  0  0  0  1  0  0  0  0  0  0
  -30.8860  -14.7990   20.2300 C   0  0  0  0  0  0  0  0  0  0  0  0
  -30.7120  -12.5290   19.2200 C   0  0  0  0  0  2  0  0  0  0  0  0
  -29.7550  -12.6120   18.0100 C   0  0  0  0  0  2  0  0  0  0  0  0
  -28.2830  -12.4600   18.4470 C   0  0  0  0  0  2  0  0  0  0  0  0
  -27.9270  -13.3560   19.6630 C   0  0  0  0  0  3  0  0  0  0  0  0
  -28.9900  -13.2180   20.7770 C   0  0  0  0  0  2  0  0  0  0  0  0
  -30.2980  -13.5600   20.1920 N   0  0  0  0  0  0  0  0  0  0  0  0
  -32.0330  -14.9850   19.8100 O   0  0  0  0  0  0  0  0  0  0  0  0
  -30.0570  -15.8110   20.6360 N   0  0  0  0  0  0  0  0  0  0  0  0
  -29.1840  -15.4240   20.9560 H   0  0  0  0  0  0  0  0  0  0  0  0
  -25.5450  -13.9880   20.4020 C   0  0  0  0  0  0  0  0  0  0  0  0
  -24.4730  -13.2290   20.7850 C   0  0  0  0  0  0  0  0  0  0  0  0
  -24.9160  -11.8730   20.7480 C   0  0  0  0  0  0  0  0  0  0  0  0
  -26.5770  -13.0940   20.1570 N   0  0  0  0  0  0  0  0  0  0  0  0
  -26.2030  -11.8180   20.4240 N   0  0  0  0  0  0  0  0  0  0  0  0
  -24.1760  -10.6210   20.9450 C   0  0  0  0  0  0  0  0  0  0  0  0
  -24.5850   -9.6640   21.8990 C   0  0  0  0  0  3  0  0  0  0  0  0
  -23.8460   -8.4750   22.0840 C   0  0  0  0  0  3  0  0  0  0  0  0
  -22.6830   -8.2370   21.3150 C   0  0  0  0  0  0  0  0  0  0  0  0
  -22.2920   -9.1830   20.3510 C   0  0  0  0  0  3  0  0  0  0  0  0
  -23.0320  -10.3630   20.1640 C   0  0  0  0  0  3  0  0  0  0  0  0
  -21.9160   -7.1000   21.4070 O   0  0  0  0  0  0  0  0  0  0  0  0
  -21.8180   -6.3930   22.5780 C   0  0  0  0  0  0  0  0  0  0  0  0
  -21.3390   -6.9840   23.7670 C   0  0  0  0  0  3  0  0  0  0  0  0
  -21.1870   -6.2030   24.9300 C   0  0  0  0  0  3  0  0  0  0  0  0
  -21.5030   -4.8320   24.9040 C   0  0  0  0  0  0  0  0  0  0  0  0
  -21.9740   -4.2400   23.7190 C   0  0  0  0  0  3  0  0  0  0  0  0
  -22.1280   -5.0190   22.5580 C   0  0  0  0  0  0  0  0  0  0  0  0
  -22.5620   -4.4390   21.4130 F   0  0  0  0  0  0  0  0  0  0  0  0
  -21.3510   -4.0790   26.0180 F   0  0  0  0  0  0  0  0  0  0  0  0
  -23.0850  -13.7270   21.0710 C   0  0  0  0  0  0  0  0  0  0  0  0
  -22.3600  -13.0490   21.9540 N   0  0  0  0  0  0  0  0  0  0  0  0
  -22.6520  -14.7530   20.5460 O   0  0  0  0  0  0  0  0  0  0  0  0
  -22.7210  -12.2190   22.4010 H   0  0  0  0  0  0  0  0  0  0  0  0
  -21.4300  -13.3660   22.1860 H   0  0  0  0  0  0  0  0  0  0  0  0
  -25.7180  -15.3550   20.2200 N   0  0  0  0  0  0  0  0  0  0  0  0
  -24.9460  -16.0050   20.3240 H   0  0  0  0  0  0  0  0  0  0  0  0
  -26.5410  -15.7790   19.8170 H   0  0  0  0  0  0  0  0  0  0  0  0
  -29.9100  -22.2350   21.7130 C   0  0  0  0  0  2  0  0  0  0  0  0
  -30.7490  -21.7930   24.0780 C   0  0  0  0  0  1  0  0  0  0  0  0
  -29.8150  -21.3320   22.9550 C   0  0  0  0  0  2  0  0  0  0  0  0
  -29.3930  -22.7030   19.2640 C   0  0  0  0  0  2  0  0  0  0  0  0
  -27.0240  -23.4450   18.5990 C   0  0  0  0  0  1  0  0  0  0  0  0
  -29.0300  -24.6190   17.6960 C   0  0  0  0  0  1  0  0  0  0  0  0
  -28.4300  -23.9650   18.9590 C   0  0  2  0  0  0  0  0  0  0  0  0
  -28.2820  -25.1310   20.0420 C   0  0  0  0  0  2  0  0  0  0  0  0
  -28.2470  -26.5340   19.5700 O   0  0  0  0  0  0  0  0  0  0  0  0
  -24.6060  -31.6700   23.0910 C   0  0  0  0  0  0  0  0  0  0  0  0
  -27.0870  -27.3070   19.6870 C   0  0  0  0  0  0  0  0  0  0  0  0
  -23.3240  -30.3490   21.4440 C   0  0  0  0  0  3  0  0  0  0  0  0
  -24.7060  -28.8730   19.8760 C   0  0  0  0  0  0  0  0  0  0  0  0
  -25.8440  -30.7020   21.1410 C   0  0  0  0  0  2  0  0  0  0  0  0
  -25.8990  -29.3550   20.4300 C   0  0  0  0  0  0  0  0  0  0  0  0
  -27.0920  -28.5860   20.3200 C   0  0  0  0  0  3  0  0  0  0  0  0
  -25.8710  -26.8620   19.1280 C   0  0  0  0  0  3  0  0  0  0  0  0
  -24.6920  -27.6330   19.2150 C   0  0  0  0  0  3  0  0  0  0  0  0
  -23.4670  -29.7330   20.0250 C   0  0  0  0  0  2  0  0  0  0  0  0
  -24.6120  -30.9220   21.9490 N   0  0  0  0  0  0  0  0  0  0  0  0
  -23.5510  -31.9120   23.6950 O   0  0  0  0  0  0  0  0  0  0  0  0
  -22.7140  -29.2830   22.3860 C   0  0  0  0  0  0  0  0  0  0  0  0
  -21.3940  -29.0560   22.2680 N   0  0  0  0  0  0  0  0  0  0  0  0
  -23.4260  -28.6650   23.1820 O   0  0  0  0  0  0  0  0  0  0  0  0
  -20.8770  -29.6080   21.5980 H   0  0  0  0  0  0  0  0  0  0  0  0
  -18.0890  -27.6590   22.7070 C   0  0  0  0  0  0  0  0  0  0  0  0
  -20.6230  -28.0670   23.0210 C   0  0  0  0  0  3  0  0  0  0  0  0
  -20.8200  -26.6480   22.4400 C   0  0  0  0  0  2  0  0  0  0  0  0
  -19.7550  -26.2660   21.4060 C   0  0  0  0  0  2  0  0  0  0  0  0
  -18.3570  -26.3260   22.0280 C   0  0  0  0  0  2  0  0  0  0  0  0
  -19.1530  -28.4840   23.1600 C   0  0  0  0  0  0  0  0  0  0  0  0
  -18.8490  -29.7280   23.7530 C   0  0  0  0  0  3  0  0  0  0  0  0
  -17.5140  -30.1500   23.8980 C   0  0  0  0  0  3  0  0  0  0  0  0
  -16.4640  -29.3220   23.4630 C   0  0  0  0  0  3  0  0  0  0  0  0
  -16.7520  -28.0780   22.8740 C   0  0  0  0  0  3  0  0  0  0  0  0
  -25.9170  -32.2770   23.6790 C   0  0  0  0  0  3  0  0  0  0  0  0
  -25.6250  -33.6610   24.0830 N   0  0  0  0  0  0  0  0  0  0  0  0
  -25.9330  -34.7450   23.3590 C   0  0  0  0  0  0  0  0  0  0  0  0
  -26.5630  -34.6860   22.2990 O   0  0  0  0  0  0  0  0  0  0  0  0
  -25.0610  -33.7810   24.9110 H   0  0  0  0  0  0  0  0  0  0  0  0
  -24.1950  -36.5530   23.1570 C   0  0  0  0  0  1  0  0  0  0  0  0
  -25.4710  -36.1130   23.8950 C   0  0  0  0  0  3  0  0  0  0  0  0
  -27.6420  -36.9620   24.6670 C   0  0  0  0  0  1  0  0  0  0  0  0
  -26.4990  -37.1700   23.7810 N   0  0  0  0  0  0  0  0  0  0  0  0
  -26.1020  -38.0830   23.9860 H   0  0  0  0  0  0  0  0  0  0  0  0
  -26.4920  -31.4540   24.8960 C   0  0  1  0  0  0  0  0  0  0  0  0
  -25.4530  -31.1760   26.0070 C   0  0  0  0  0  1  0  0  0  0  0  0
  -27.0460  -30.0920   24.4200 C   0  0  0  0  0  1  0  0  0  0  0  0
  -27.6800  -32.2150   25.5310 C   0  0  0  0  0  1  0  0  0  0  0  0
  1 50  1  0
  1 47  1  0
  2  3  1  0
  4  7  1  0
  5  2  2  0
  5  1  1  0
  6  4  2  0
  6  5  1  0
  7  3  2  0
  7 17  1  0
  8  6  1  0
  9 17  1  0
 10 15  1  0
 11 12  1  0
 11 10  1  0
 13 12  1  0
 13 22  1  0
 13 14  1  0
 15  9  1  0
 15 14  1  0
 16  9  2  0
 17 18  1  0
 19 20  2  0
 20 39  1  0
 21 20  1  0
 21 24  1  0
 22 19  1  0
 22 23  1  0
 23 21  2  0
 24 25  1  0
 25 26  2  0
 27 30  1  0
 27 26  1  0
 28 27  2  0
 29 28  1  0
 29 24  2  0
 30 31  1  0
 31 32  1  0
 32 33  2  0
 34 33  1  0
 34 38  1  0
 35 34  2  0
 36 31  2  0
 36 35  1  0
 37 36  1  0
 39 40  1  0
 40 43  1  0
 40 42  1  0
 41 39  2  0
 44 45  1  0
 44 19  1  0
 46 44  1  0
 47 49  1  0
 49 48  1  0
 53 51  1  6
 52 53  1  0
 53 50  1  0
 53 54  1  0
 55 57  1  0
 55 54  1  0
 56 67  2  0
 57 62  1  0
 58 66  1  0
 58 68  1  0
 59 65  1  0
 59 61  1  0
 60 66  1  0
 61 60  1  0
 62 61  2  0
 63 64  1  0
 63 57  2  0
 64 59  2  0
 65 58  1  0
 66 56  1  0
 68 70  2  0
 69 68  1  0
 71 69  1  0
 72 81  2  0
 72 77  1  0
 73 69  1  0
 73 77  1  0
 74 73  1  0
 75 76  1  0
 75 74  1  0
 76 72  1  0
 77 78  2  0
 78 79  1  0
 80 79  2  0
 81 80  1  0
 82 56  1  0
 82 83  1  0
 82 92  1  0
 83 86  1  0
 84 88  1  0
 84 83  1  0
 85 84  2  0
 88 87  1  0
 90 88  1  0
 90 91  1  0
 90 89  1  0
 92 95  1  1
 92 93  1  0
 94 92  1  0
M  ISO  4   9 100  17 100  54 101  55 101
M  END
>  <TORSDO>  (98) 
F 22

>  <SCORE>  (98) 
-12.801

>  <name>  (98) 
97

>  <ligand_id>  (98) 
97

>  <original_smiles>  (98) 
[H]c1c([H])c([H])c2c(c1[H])C([H])([H])C([H])([H])C([H])([H])C2([H])N([H])C(=O)C1([H])N(C(=O)C([H])(N([H])C(=O)C([H])(N([H])C([H])([H])[H])C([H])([H])[H])C(C([H])([H])[H])(C([H])([H])[H])C([H])([H])[H])C([H])([H])c2c([H])c(OC([H])([H])C(C([H])([H])[H])(C([H])([H])[H])C([H])([H])C([H])(c3c([H])c([H])c(N([H])C(=O)N4C([H])([H])C([H])([H])C([H])([H])C([H])(n5nc(-c6c([H])c([H])c(Oc7c([H])c([H])c(F)c([H])c7F)c([H])c6[H])c(C(=O)N([H])[H])c5N([H])[H])C4([H])[H])c([H])c3C([H])([H])[H])C([H])([H])C([H])([H])C([H])([H])[H])c([H])c([H])c2C1([H])[H]

>  <smiles>  (98) 
[H]c1c([H])c([H])c2c(c1[H])C([H])([H])C([H])([H])C([H])([H])C2([H])N([H])C(=O)C1([H])N(C(=O)C([H])(N([H])C(=O)C([H])(N([H])C([H])([H])[H])C([H])([H])[H])C(C([H])([H])[H])(C([H])([H])[H])C([H])([H])[H])C([H])([H])c2c([H])c(OC([H])([H])C(C([H])([H])[H])(C([H])([H])[H])C([H])([H])C([H])(c3c([H])c([H])c(N([H])C(=O)N4C([H])([H])C([H])([H])C([H])([H])C([H])(n5nc(-c6c([H])c([H])c(Oc7c([H])c([H])c(F)c([H])c7F)c([H])c6[H])c(C(=O)N([H])[H])c5N([H])[H])C4([H])[H])c([H])c3C([H])([H])[H])C([H])([H])C([H])([H])C([H])([H])[H])c([H])c([H])c2C1([H])[H]

$$$$
98:0:0
     RDKit          3D

 92100  0  0  1  0  0  0  0  0999 V2000
  -30.6410  -17.8420   21.5150 C   0  0  0  0  0  3  0  0  0  0  0  0
  -30.1160  -20.2170   21.0950 C   0  0  0  0  0  3  0  0  0  0  0  0
  -29.1400  -18.4760   19.7120 C   0  0  0  0  0  3  0  0  0  0  0  0
  -30.7860  -19.2120   21.8330 C   0  0  0  0  0  0  0  0  0  0  0  0
  -29.8150  -17.4190   20.4530 C   0  0  0  0  0  0  0  0  0  0  0  0
  -29.2790  -19.8970   20.0020 C   0  0  0  0  0  0  0  0  0  0  0  0
  -30.4850  -14.8920   20.3160 C   0  0  0  0  0  0  0  0  0  0  0  0
  -30.4230  -12.5160   19.5370 C   0  0  0  0  0  2  0  0  0  0  0  0
  -29.5070  -12.4260   18.2980 C   0  0  0  0  0  2  0  0  0  0  0  0
  -28.0340  -12.2420   18.7160 C   0  0  0  0  0  2  0  0  0  0  0  0
  -27.6020  -13.2320   19.8310 C   0  0  0  0  0  3  0  0  0  0  0  0
  -28.6400  -13.2850   20.9730 C   0  0  0  0  0  2  0  0  0  0  0  0
  -29.9270  -13.6360   20.3610 N   0  0  0  0  0  0  0  0  0  0  0  0
  -31.6860  -15.0300   20.0600 O   0  0  0  0  0  0  0  0  0  0  0  0
  -29.6090  -15.9660   20.2570 N   0  0  0  0  0  0  0  0  0  0  0  0
  -28.6470  -15.6860   20.1570 H   0  0  0  0  0  0  0  0  0  0  0  0
  -25.2190  -13.8360   20.5640 C   0  0  0  0  0  0  0  0  0  0  0  0
  -24.1490  -13.0640   20.9300 C   0  0  0  0  0  0  0  0  0  0  0  0
  -24.6050  -11.7110   20.8920 C   0  0  0  0  0  0  0  0  0  0  0  0
  -26.2580  -12.9500   20.3210 N   0  0  0  0  0  0  0  0  0  0  0  0
  -25.8950  -11.6680   20.5800 N   0  0  0  0  0  0  0  0  0  0  0  0
  -23.8730  -10.4510   21.0760 C   0  0  0  0  0  0  0  0  0  0  0  0
  -24.2970   -9.4800   22.0110 C   0  0  0  0  0  3  0  0  0  0  0  0
  -23.5670   -8.2850   22.1830 C   0  0  0  0  0  3  0  0  0  0  0  0
  -22.3990   -8.0520   21.4190 C   0  0  0  0  0  0  0  0  0  0  0  0
  -21.9950   -9.0090   20.4710 C   0  0  0  0  0  3  0  0  0  0  0  0
  -22.7260  -10.1960   20.3000 C   0  0  0  0  0  3  0  0  0  0  0  0
  -21.6420   -6.9080   21.4980 O   0  0  0  0  0  0  0  0  0  0  0  0
  -21.5750   -6.1690   22.6520 C   0  0  0  0  0  0  0  0  0  0  0  0
  -21.0680   -6.7100   23.8540 C   0  0  0  0  0  3  0  0  0  0  0  0
  -20.9500   -5.8960   24.9980 C   0  0  0  0  0  3  0  0  0  0  0  0
  -21.3300   -4.5420   24.9410 C   0  0  0  0  0  0  0  0  0  0  0  0
  -21.8300   -4.0000   23.7450 C   0  0  0  0  0  3  0  0  0  0  0  0
  -21.9480   -4.8110   22.6030 C   0  0  0  0  0  0  0  0  0  0  0  0
  -22.4110   -4.2790   21.4460 F   0  0  0  0  0  0  0  0  0  0  0  0
  -21.2100   -3.7560   26.0370 F   0  0  0  0  0  0  0  0  0  0  0  0
  -22.7550  -13.5450   21.2070 C   0  0  0  0  0  0  0  0  0  0  0  0
  -22.0290  -12.8470   22.0740 N   0  0  0  0  0  0  0  0  0  0  0  0
  -22.3160  -14.5710   20.6890 O   0  0  0  0  0  0  0  0  0  0  0  0
  -22.3990  -12.0160   22.5130 H   0  0  0  0  0  0  0  0  0  0  0  0
  -21.0900  -13.1440   22.2980 H   0  0  0  0  0  0  0  0  0  0  0  0
  -25.3880  -15.2070   20.3950 N   0  0  0  0  0  0  0  0  0  0  0  0
  -24.6210  -15.8590   20.5020 H   0  0  0  0  0  0  0  0  0  0  0  0
  -26.2370  -15.6480   20.0650 H   0  0  0  0  0  0  0  0  0  0  0  0
  -30.8830  -20.2190   24.1520 C   0  0  0  0  0  1  0  0  0  0  0  0
  -31.6790  -19.6090   22.9930 C   0  0  0  0  0  2  0  0  0  0  0  0
  -28.7000  -20.9320   19.2060 O   0  0  0  0  0  0  0  0  0  0  0  0
  -28.0830  -22.1850   19.7510 C   0  0  0  0  0  2  0  0  0  0  0  0
  -29.8130  -23.9730   19.0840 C   0  0  0  0  0  1  0  0  0  0  0  0
  -28.3160  -23.6390   19.0490 C   0  0  0  0  0  3  0  0  0  0  0  0
  -27.4750  -24.9240   19.5850 C   0  0  0  0  0  2  0  0  0  0  0  0
  -27.7780  -26.3470   19.1760 O   0  0  0  0  0  0  0  0  0  0  0  0
  -24.7820  -31.5790   23.2600 C   0  0  0  0  0  0  0  0  0  0  0  0
  -26.7780  -27.3290   19.3580 C   0  0  0  0  0  0  0  0  0  0  0  0
  -23.3680  -30.5490   21.5190 C   0  0  0  0  0  3  0  0  0  0  0  0
  -24.5900  -29.1440   19.7600 C   0  0  0  0  0  0  0  0  0  0  0  0
  -25.9160  -30.6740   21.2140 C   0  0  0  0  0  2  0  0  0  0  0  0
  -25.8310  -29.4180   20.3490 C   0  0  0  0  0  0  0  0  0  0  0  0
  -26.9320  -28.5270   20.1360 C   0  0  0  0  0  3  0  0  0  0  0  0
  -25.5270  -27.1390   18.7360 C   0  0  0  0  0  3  0  0  0  0  0  0
  -24.4460  -28.0190   18.9350 C   0  0  0  0  0  3  0  0  0  0  0  0
  -23.4410  -30.0920   20.0390 C   0  0  0  0  0  2  0  0  0  0  0  0
  -24.7120  -30.9450   22.0510 N   0  0  0  0  0  0  0  0  0  0  0  0
  -23.7600  -31.8530   23.9050 O   0  0  0  0  0  0  0  0  0  0  0  0
  -22.6810  -29.4460   22.3600 C   0  0  0  0  0  0  0  0  0  0  0  0
  -21.3430  -29.3540   22.2600 N   0  0  0  0  0  0  0  0  0  0  0  0
  -23.3490  -28.6840   23.0620 O   0  0  0  0  0  0  0  0  0  0  0  0
  -20.8670  -30.0200   21.6690 H   0  0  0  0  0  0  0  0  0  0  0  0
  -17.9270  -28.2360   22.6930 C   0  0  0  0  0  0  0  0  0  0  0  0
  -20.5000  -28.3620   22.9300 C   0  0  0  0  0  3  0  0  0  0  0  0
  -20.5300  -27.0100   22.1810 C   0  0  0  0  0  2  0  0  0  0  0  0
  -19.3970  -26.8590   21.1610 C   0  0  0  0  0  2  0  0  0  0  0  0
  -18.0350  -26.9760   21.8510 C   0  0  0  0  0  2  0  0  0  0  0  0
  -19.0850  -28.8960   23.1840 C   0  0  0  0  0  0  0  0  0  0  0  0
  -18.9300  -30.0830   23.9340 C   0  0  0  0  0  3  0  0  0  0  0  0
  -17.6510  -30.6090   24.1950 C   0  0  0  0  0  3  0  0  0  0  0  0
  -16.5080  -29.9450   23.7150 C   0  0  0  0  0  3  0  0  0  0  0  0
  -16.6470  -28.7590   22.9720 C   0  0  0  0  0  3  0  0  0  0  0  0
  -26.1500  -32.0060   23.8750 C   0  0  0  0  0  3  0  0  0  0  0  0
  -25.9850  -33.3640   24.4180 N   0  0  0  0  0  0  0  0  0  0  0  0
  -26.4160  -34.4820   23.8200 C   0  0  0  0  0  0  0  0  0  0  0  0
  -27.0610  -34.4720   22.7670 O   0  0  0  0  0  0  0  0  0  0  0  0
  -25.4110  -33.4510   25.2440 H   0  0  0  0  0  0  0  0  0  0  0  0
  -24.9040  -36.4930   23.7580 C   0  0  0  0  0  1  0  0  0  0  0  0
  -26.0780  -35.8270   24.4950 C   0  0  0  0  0  3  0  0  0  0  0  0
  -28.2750  -36.3260   25.4720 C   0  0  0  0  0  1  0  0  0  0  0  0
  -27.2240  -36.7610   24.5530 N   0  0  0  0  0  0  0  0  0  0  0  0
  -26.9200  -37.6890   24.8350 H   0  0  0  0  0  0  0  0  0  0  0  0
  -26.6660  -31.0190   24.9940 C   0  0  1  0  0  0  0  0  0  0  0  0
  -25.6190  -30.7230   26.0920 C   0  0  0  0  0  1  0  0  0  0  0  0
  -27.0960  -29.6640   24.3820 C   0  0  0  0  0  1  0  0  0  0  0  0
  -27.9250  -31.6130   25.6690 C   0  0  0  0  0  1  0  0  0  0  0  0
  1  4  1  0
  2  4  2  0
  3  6  2  0
  3  5  1  0
  4 46  1  0
  5  1  2  0
  6  2  1  0
  7 13  1  0
  8 13  1  0
  9 10  1  0
  9  8  1  0
 11 10  1  0
 11 20  1  0
 11 12  1  0
 13 12  1  0
 14  7  2  0
 15  7  1  0
 15  5  1  0
 16 15  1  0
 17 18  2  0
 18 37  1  0
 19 18  1  0
 19 22  1  0
 20 17  1  0
 20 21  1  0
 21 19  2  0
 22 23  1  0
 23 24  2  0
 25 28  1  0
 25 24  1  0
 26 25  2  0
 27 26  1  0
 27 22  2  0
 28 29  1  0
 29 30  1  0
 30 31  2  0
 32 31  1  0
 32 36  1  0
 33 32  2  0
 34 29  2  0
 34 33  1  0
 35 34  1  0
 37 38  1  0
 38 41  1  0
 38 40  1  0
 39 37  2  0
 42 43  1  0
 42 17  1  0
 44 42  1  0
 46 45  1  0
 47 48  1  0
 47  6  1  0
 50 49  1  0
 50 51  1  0
 50 48  1  0
 52 54  1  0
 52 51  1  0
 53 64  2  0
 54 59  1  0
 55 63  1  0
 55 65  1  0
 56 62  1  0
 56 58  1  0
 57 63  1  0
 58 57  1  0
 59 58  2  0
 60 61  1  0
 60 54  2  0
 61 56  2  0
 62 55  1  0
 63 53  1  0
 65 67  2  0
 66 65  1  0
 68 66  1  0
 69 78  2  0
 69 74  1  0
 70 66  1  0
 70 74  1  0
 71 70  1  0
 72 73  1  0
 72 71  1  0
 73 69  1  0
 74 75  2  0
 75 76  1  0
 77 76  2  0
 78 77  1  0
 79 53  1  0
 79 80  1  0
 79 89  1  0
 80 83  1  0
 81 80  1  0
 81 85  1  0
 82 81  2  0
 85 84  1  0
 85 87  1  0
 87 88  1  0
 87 86  1  0
 89 92  1  1
 89 90  1  0
 91 89  1  0
M  ISO  4   7 100  15 100  51 101  52 101
M  END
>  <TORSDO>  (99) 
F 21

>  <SCORE>  (99) 
-12.866

>  <name>  (99) 
98

>  <ligand_id>  (99) 
98

>  <original_smiles>  (99) 
[H]c1c([H])c([H])c2c(c1[H])C([H])([H])C([H])([H])C([H])([H])C2([H])N([H])C(=O)C1([H])N(C(=O)C([H])(N([H])C(=O)C([H])(N([H])C([H])([H])[H])C([H])([H])[H])C(C([H])([H])[H])(C([H])([H])[H])C([H])([H])[H])C([H])([H])c2c([H])c(OC([H])([H])C([H])(C([H])([H])[H])C([H])([H])Oc3c([H])c(N([H])C(=O)N4C([H])([H])C([H])([H])C([H])([H])C([H])(n5nc(-c6c([H])c([H])c(Oc7c([H])c([H])c(F)c([H])c7F)c([H])c6[H])c(C(=O)N([H])[H])c5N([H])[H])C4([H])[H])c([H])c(C([H])([H])C([H])([H])[H])c3[H])c([H])c([H])c2C1([H])[H]

>  <smiles>  (99) 
[H]c1c([H])c([H])c2c(c1[H])C([H])([H])C([H])([H])C([H])([H])C2([H])N([H])C(=O)C1([H])N(C(=O)C([H])(N([H])C(=O)C([H])(N([H])C([H])([H])[H])C([H])([H])[H])C(C([H])([H])[H])(C([H])([H])[H])C([H])([H])[H])C([H])([H])c2c([H])c(OC([H])([H])C([H])(C([H])([H])[H])C([H])([H])Oc3c([H])c(N([H])C(=O)N4C([H])([H])C([H])([H])C([H])([H])C([H])(n5nc(-c6c([H])c([H])c(Oc7c([H])c([H])c(F)c([H])c7F)c([H])c6[H])c(C(=O)N([H])[H])c5N([H])[H])C4([H])[H])c([H])c(C([H])([H])C([H])([H])[H])c3[H])c([H])c([H])c2C1([H])[H]

$$$$
