0:0:0
     RDKit          3D

 98106  0  0  1  0  0  0  0  0999 V2000
  -30.0470  -21.3210   19.9430 C   0  0  0  0  0  1  0  0  0  0  0  0
  -31.3100  -21.9360   20.6080 C   0  0  1  0  0  0  0  0  0  0  0  0
  -32.1130  -20.8600   21.4070 C   0  0  0  0  0  0  0  0  0  0  0  0
  -33.1500  -21.1440   22.0810 N   0  0  0  0  0  0  0  0  0  0  0  0
  -33.5410  -20.3120   22.5100 H   0  0  0  0  0  0  0  0  0  0  0  0
  -32.0010  -18.7230   20.1740 C   0  0  0  0  0  3  0  0  0  0  0  0
  -31.6250  -17.3820   20.0250 C   0  0  0  0  0  3  0  0  0  0  0  0
  -30.6050  -17.4250   22.2290 C   0  0  0  0  0  3  0  0  0  0  0  0
  -31.6750  -19.4440   21.3390 C   0  0  0  0  0  0  0  0  0  0  0  0
  -30.9650  -18.7850   22.3780 C   0  0  0  0  0  0  0  0  0  0  0  0
  -30.9370  -16.7040   21.0610 C   0  0  0  0  0  0  0  0  0  0  0  0
  -30.5680  -19.5110   23.6550 C   0  0  0  0  0  1  0  0  0  0  0  0
  -31.0730  -14.3460   20.2480 C   0  0  0  0  0  0  0  0  0  0  0  0
  -30.6300  -12.2000   19.1320 C   0  0  0  0  0  2  0  0  0  0  0  0
  -29.6620  -12.4230   17.9550 C   0  0  0  0  0  2  0  0  0  0  0  0
  -28.2000  -12.3390   18.4330 C   0  0  0  0  0  2  0  0  0  0  0  0
  -27.9300  -13.2130   19.6870 C   0  0  0  0  0  3  0  0  0  0  0  0
  -29.0120  -12.9820   20.7690 C   0  0  0  0  0  2  0  0  0  0  0  0
  -30.3320  -13.2130   20.1560 N   0  0  0  0  0  0  0  0  0  0  0  0
  -32.1510  -14.4710   19.6600 O   0  0  0  0  0  0  0  0  0  0  0  0
  -30.5320  -15.3390   20.9770 N   0  0  0  0  0  0  0  0  0  0  0  0
  -29.7000  -15.0840   21.4870 H   0  0  0  0  0  0  0  0  0  0  0  0
  -25.5920  -13.9060   20.5140 C   0  0  0  0  0  0  0  0  0  0  0  0
  -24.5060  -13.1680   20.9050 C   0  0  0  0  0  0  0  0  0  0  0  0
  -24.9030  -11.8000   20.8130 C   0  0  0  0  0  0  0  0  0  0  0  0
  -26.5850  -12.9860   20.2130 N   0  0  0  0  0  0  0  0  0  0  0  0
  -26.1750  -11.7130   20.4480 N   0  0  0  0  0  0  0  0  0  0  0  0
  -24.1300  -10.5640   20.9960 C   0  0  0  0  0  0  0  0  0  0  0  0
  -24.5370   -9.5650   21.9080 C   0  0  0  0  0  3  0  0  0  0  0  0
  -23.7670   -8.3950   22.0790 C   0  0  0  0  0  3  0  0  0  0  0  0
  -22.5760   -8.2140   21.3380 C   0  0  0  0  0  0  0  0  0  0  0  0
  -22.1870   -9.2010   20.4130 C   0  0  0  0  0  3  0  0  0  0  0  0
  -22.9580  -10.3630   20.2410 C   0  0  0  0  0  3  0  0  0  0  0  0
  -21.7770   -7.0990   21.4180 O   0  0  0  0  0  0  0  0  0  0  0  0
  -21.6750   -6.3690   22.5750 C   0  0  0  0  0  0  0  0  0  0  0  0
  -21.2420   -6.9500   23.7870 C   0  0  0  0  0  3  0  0  0  0  0  0
  -21.0860   -6.1500   24.9360 C   0  0  0  0  0  3  0  0  0  0  0  0
  -21.3520   -4.7690   24.8740 C   0  0  0  0  0  0  0  0  0  0  0  0
  -21.7800   -4.1870   23.6680 C   0  0  0  0  0  3  0  0  0  0  0  0
  -21.9380   -4.9850   22.5210 C   0  0  0  0  0  0  0  0  0  0  0  0
  -22.3290   -4.4160   21.3560 F   0  0  0  0  0  0  0  0  0  0  0  0
  -21.1950   -3.9980   25.9760 F   0  0  0  0  0  0  0  0  0  0  0  0
  -23.1440  -13.6970   21.2550 C   0  0  0  0  0  0  0  0  0  0  0  0
  -22.4270  -13.0080   22.1370 N   0  0  0  0  0  0  0  0  0  0  0  0
  -22.7270  -14.7530   20.7810 O   0  0  0  0  0  0  0  0  0  0  0  0
  -22.7770  -12.1520   22.5390 H   0  0  0  0  0  0  0  0  0  0  0  0
  -21.5150  -13.3430   22.4130 H   0  0  0  0  0  0  0  0  0  0  0  0
  -25.8120  -15.2720   20.3720 N   0  0  0  0  0  0  0  0  0  0  0  0
  -25.0860  -15.9600   20.5400 H   0  0  0  0  0  0  0  0  0  0  0  0
  -26.6740  -15.6830   20.0350 H   0  0  0  0  0  0  0  0  0  0  0  0
  -33.4420  -23.3400   19.8050 C   0  0  0  0  0  1  0  0  0  0  0  0
  -32.1910  -22.5070   19.4450 C   0  0  0  0  0  2  0  0  0  0  0  0
  -30.7750  -23.0520   21.5550 C   0  0  0  0  0  0  0  0  0  0  0  0
  -30.6390  -22.8820   22.7720 O   0  0  0  0  0  0  0  0  0  0  0  0
  -30.2860  -24.3600   20.9140 C   0  0  0  0  0  2  0  0  0  0  0  0
  -29.8240  -25.4090   21.9370 C   0  0  0  0  0  2  0  0  0  0  0  0
  -29.6120  -26.7830   21.2990 C   0  0  0  0  0  2  0  0  0  0  0  0
  -28.6890  -26.6470   20.2150 O   0  0  0  0  0  0  0  0  0  0  0  0
  -24.6490  -31.7180   23.2020 C   0  0  0  0  0  0  0  0  0  0  0  0
  -27.5230  -27.3780   20.2380 C   0  0  0  0  0  0  0  0  0  0  0  0
  -23.5290  -30.2850   21.5190 C   0  0  0  0  0  3  0  0  0  0  0  0
  -25.0690  -28.7780   20.1550 C   0  0  0  0  0  0  0  0  0  0  0  0
  -26.0400  -30.7240   21.3940 C   0  0  0  0  0  2  0  0  0  0  0  0
  -26.1840  -29.3520   20.7750 C   0  0  0  0  0  0  0  0  0  0  0  0
  -27.4110  -28.6660   20.8110 C   0  0  0  0  0  3  0  0  0  0  0  0
  -26.3940  -26.8130   19.6090 C   0  0  0  0  0  3  0  0  0  0  0  0
  -25.1660  -27.5030   19.5680 C   0  0  0  0  0  3  0  0  0  0  0  0
  -23.7980  -29.5960   20.1520 C   0  0  0  0  0  2  0  0  0  0  0  0
  -24.7550  -30.9220   22.1000 N   0  0  0  0  0  0  0  0  0  0  0  0
  -23.5460  -31.9650   23.7070 O   0  0  0  0  0  0  0  0  0  0  0  0
  -22.8710  -29.2520   22.4630 C   0  0  0  0  0  0  0  0  0  0  0  0
  -21.5550  -29.0460   22.2940 N   0  0  0  0  0  0  0  0  0  0  0  0
  -23.5420  -28.6400   23.2970 O   0  0  0  0  0  0  0  0  0  0  0  0
  -21.0760  -29.5950   21.5940 H   0  0  0  0  0  0  0  0  0  0  0  0
  -18.1910  -27.7960   22.6830 C   0  0  0  0  0  0  0  0  0  0  0  0
  -20.7330  -28.0930   23.0370 C   0  0  0  0  0  3  0  0  0  0  0  0
  -20.8780  -26.6660   22.4610 C   0  0  0  0  0  2  0  0  0  0  0  0
  -19.8140  -26.3280   21.4100 C   0  0  0  0  0  2  0  0  0  0  0  0
  -18.4090  -26.4510   22.0120 C   0  0  0  0  0  2  0  0  0  0  0  0
  -19.2830  -28.5740   23.1500 C   0  0  0  0  0  0  0  0  0  0  0  0
  -19.0270  -29.8340   23.7330 C   0  0  0  0  0  3  0  0  0  0  0  0
  -17.7110  -30.3170   23.8550 C   0  0  0  0  0  3  0  0  0  0  0  0
  -16.6320  -29.5350   23.4070 C   0  0  0  0  0  3  0  0  0  0  0  0
  -16.8730  -28.2760   22.8270 C   0  0  0  0  0  3  0  0  0  0  0  0
  -25.9020  -32.3740   23.8640 C   0  0  0  0  0  3  0  0  0  0  0  0
  -25.5540  -33.7650   24.1830 N   0  0  0  0  0  0  0  0  0  0  0  0
  -25.8800  -34.8220   23.4270 C   0  0  0  0  0  0  0  0  0  0  0  0
  -26.5770  -34.7320   22.4120 O   0  0  0  0  0  0  0  0  0  0  0  0
  -24.9400  -33.9080   24.9700 H   0  0  0  0  0  0  0  0  0  0  0  0
  -24.1140  -36.5660   23.0280 C   0  0  0  0  0  1  0  0  0  0  0  0
  -25.3480  -36.1990   23.8660 C   0  0  0  0  0  3  0  0  0  0  0  0
  -27.4420  -37.1430   24.7360 C   0  0  0  0  0  1  0  0  0  0  0  0
  -26.3550  -37.2780   23.7690 N   0  0  0  0  0  0  0  0  0  0  0  0
  -25.9220  -38.1870   23.9040 H   0  0  0  0  0  0  0  0  0  0  0  0
  -26.3990  -31.6110   25.1510 C   0  0  1  0  0  0  0  0  0  0  0  0
  -25.2790  -31.3280   26.1800 C   0  0  0  0  0  1  0  0  0  0  0  0
  -27.0410  -30.2570   24.7660 C   0  0  0  0  0  1  0  0  0  0  0  0
  -27.5000  -32.4350   25.8590 C   0  0  0  0  0  1  0  0  0  0  0  0
  2  1  1  6
  2  3  1  0
  2 53  1  0
  3  4  2  0
  4  5  1  0
  6  9  1  0
  7  6  2  0
  7 11  1  0
  8 10  1  0
  9  3  1  0
  9 10  2  0
 10 12  1  0
 11  8  2  0
 13 21  1  0
 14 19  1  0
 15 16  1  0
 15 14  1  0
 17 16  1  0
 17 26  1  0
 17 18  1  0
 19 13  1  0
 19 18  1  0
 20 13  2  0
 21 11  1  0
 21 22  1  0
 23 24  2  0
 24 43  1  0
 25 24  1  0
 25 28  1  0
 26 27  1  0
 26 23  1  0
 27 25  2  0
 28 29  1  0
 29 30  2  0
 31 34  1  0
 31 30  1  0
 32 31  2  0
 33 32  1  0
 33 28  2  0
 34 35  1  0
 35 36  1  0
 36 37  2  0
 38 37  1  0
 38 42  1  0
 39 38  2  0
 40 35  2  0
 40 39  1  0
 41 40  1  0
 43 44  1  0
 44 47  1  0
 44 46  1  0
 45 43  2  0
 48 23  1  0
 48 49  1  0
 50 48  1  0
 52 51  1  0
 52  2  1  0
 53 54  2  0
 55 53  1  0
 55 56  1  0
 57 56  1  0
 58 60  1  0
 58 57  1  0
 59 70  2  0
 60 65  1  0
 61 69  1  0
 61 71  1  0
 62 64  1  0
 63 69  1  0
 64 65  2  0
 64 63  1  0
 66 60  2  0
 67 66  1  0
 67 62  2  0
 68 62  1  0
 68 61  1  0
 69 59  1  0
 71 73  2  0
 72 71  1  0
 74 72  1  0
 75 84  2  0
 75 80  1  0
 76 72  1  0
 76 80  1  0
 77 76  1  0
 78 79  1  0
 78 77  1  0
 79 75  1  0
 80 81  2  0
 81 82  1  0
 83 82  2  0
 84 83  1  0
 85 59  1  0
 85 86  1  0
 85 95  1  0
 86 89  1  0
 87 91  1  0
 87 86  1  0
 88 87  2  0
 91 90  1  0
 93 91  1  0
 93 94  1  0
 93 92  1  0
 95 98  1  1
 95 96  1  0
 97 95  1  0
M  ISO  4  13 100  21 100  57 101  58 101
M  END
>  <TORSDO>  (1) 
F 23

>  <SCORE>  (1) 
-12.551

>  <name>  (1) 
0

>  <ligand_id>  (1) 
0

>  <original_smiles>  (1) 
[H]N=C(c1c([H])c([H])c(N([H])C(=O)N2C([H])([H])C([H])([H])C([H])([H])C([H])(n3nc(-c4c([H])c([H])c(Oc5c([H])c([H])c(F)c([H])c5F)c([H])c4[H])c(C(=O)N([H])[H])c3N([H])[H])C2([H])[H])c([H])c1C([H])([H])[H])C(C(=O)C([H])([H])C([H])([H])C([H])([H])Oc1c([H])c([H])c2c(c1[H])C([H])([H])N(C(=O)C([H])(N([H])C(=O)C([H])(N([H])C([H])([H])[H])C([H])([H])[H])C(C([H])([H])[H])(C([H])([H])[H])C([H])([H])[H])C([H])(C(=O)N([H])C1([H])c3c([H])c([H])c([H])c([H])c3C([H])([H])C([H])([H])C1([H])[H])C2([H])[H])(C([H])([H])[H])C([H])([H])C([H])([H])[H]

>  <smiles>  (1) 
[H]N=C(c1c([H])c([H])c(N([H])C(=O)N2C([H])([H])C([H])([H])C([H])([H])C([H])(n3nc(-c4c([H])c([H])c(Oc5c([H])c([H])c(F)c([H])c5F)c([H])c4[H])c(C(=O)N([H])[H])c3N([H])[H])C2([H])[H])c([H])c1C([H])([H])[H])C(C(=O)C([H])([H])C([H])([H])C([H])([H])Oc1c([H])c([H])c2c(c1[H])C([H])([H])N(C(=O)C([H])(N([H])C(=O)C([H])(N([H])C([H])([H])[H])C([H])([H])[H])C(C([H])([H])[H])(C([H])([H])[H])C([H])([H])[H])C([H])(C(=O)N([H])C1([H])c3c([H])c([H])c([H])c([H])c3C([H])([H])C([H])([H])C1([H])[H])C2([H])[H])(C([H])([H])[H])C([H])([H])C([H])([H])[H]

$$$$
1:0:0
     RDKit          3D

 96104  0  0  1  0  0  0  0  0999 V2000
  -29.2680  -21.0210   21.1580 C   0  0  0  0  0  0  0  0  0  0  0  0
  -29.8190  -21.0760   22.2960 N   0  0  0  0  0  0  0  0  0  0  0  0
  -30.2950  -20.2100   22.5200 H   0  0  0  0  0  0  0  0  0  0  0  0
  -29.3320  -19.7200   18.9610 C   0  0  0  0  0  3  0  0  0  0  0  0
  -29.5600  -18.3770   20.9760 C   0  0  0  0  0  3  0  0  0  0  0  0
  -29.7080  -17.2920   18.8060 C   0  0  0  0  0  3  0  0  0  0  0  0
  -29.3690  -19.6890   20.3730 C   0  0  0  0  0  0  0  0  0  0  0  0
  -29.4880  -18.5470   18.1910 C   0  0  0  0  0  0  0  0  0  0  0  0
  -29.7450  -17.1570   20.2140 C   0  0  0  0  0  0  0  0  0  0  0  0
  -30.5770  -14.7110   20.3760 C   0  0  0  0  0  0  0  0  0  0  0  0
  -30.3670  -12.4500   19.3470 C   0  0  0  0  0  2  0  0  0  0  0  0
  -29.4270  -12.5630   18.1270 C   0  0  0  0  0  2  0  0  0  0  0  0
  -27.9550  -12.4140   18.5540 C   0  0  0  0  0  2  0  0  0  0  0  0
  -27.5980  -13.2740   19.7940 C   0  0  0  0  0  3  0  0  0  0  0  0
  -28.6580  -13.1400   20.9100 C   0  0  0  0  0  2  0  0  0  0  0  0
  -29.9630  -13.4820   20.3320 N   0  0  0  0  0  0  0  0  0  0  0  0
  -31.7230  -14.8480   19.9380 O   0  0  0  0  0  0  0  0  0  0  0  0
  -29.8420  -15.8020   20.8030 N   0  0  0  0  0  0  0  0  0  0  0  0
  -29.0820  -15.5640   21.4230 H   0  0  0  0  0  0  0  0  0  0  0  0
  -25.2100  -13.8690   20.5120 C   0  0  0  0  0  0  0  0  0  0  0  0
  -24.1440  -13.0950   20.8840 C   0  0  0  0  0  0  0  0  0  0  0  0
  -24.6040  -11.7440   20.8560 C   0  0  0  0  0  0  0  0  0  0  0  0
  -26.2530  -12.9870   20.2800 N   0  0  0  0  0  0  0  0  0  0  0  0
  -25.8950  -11.7050   20.5480 N   0  0  0  0  0  0  0  0  0  0  0  0
  -23.8770  -10.4830   21.0490 C   0  0  0  0  0  0  0  0  0  0  0  0
  -24.3220   -9.5070   21.9700 C   0  0  0  0  0  3  0  0  0  0  0  0
  -23.5980   -8.3100   22.1510 C   0  0  0  0  0  3  0  0  0  0  0  0
  -22.4120   -8.0790   21.4130 C   0  0  0  0  0  0  0  0  0  0  0  0
  -21.9860   -9.0420   20.4820 C   0  0  0  0  0  3  0  0  0  0  0  0
  -22.7100  -10.2320   20.2990 C   0  0  0  0  0  3  0  0  0  0  0  0
  -21.6570   -6.9360   21.5060 O   0  0  0  0  0  0  0  0  0  0  0  0
  -21.6360   -6.1770   22.6490 C   0  0  0  0  0  0  0  0  0  0  0  0
  -21.2520   -6.7190   23.8950 C   0  0  0  0  0  3  0  0  0  0  0  0
  -21.1800   -5.8880   25.0320 C   0  0  0  0  0  3  0  0  0  0  0  0
  -21.4760   -4.5160   24.9240 C   0  0  0  0  0  0  0  0  0  0  0  0
  -21.8480   -3.9720   23.6810 C   0  0  0  0  0  3  0  0  0  0  0  0
  -21.9230   -4.8010   22.5460 C   0  0  0  0  0  0  0  0  0  0  0  0
  -22.2640   -4.2680   21.3490 F   0  0  0  0  0  0  0  0  0  0  0  0
  -21.3950   -3.7150   26.0120 F   0  0  0  0  0  0  0  0  0  0  0  0
  -22.7490  -13.5740   21.1550 C   0  0  0  0  0  0  0  0  0  0  0  0
  -22.0220  -12.8790   22.0230 N   0  0  0  0  0  0  0  0  0  0  0  0
  -22.3090  -14.5980   20.6340 O   0  0  0  0  0  0  0  0  0  0  0  0
  -22.3910  -12.0500   22.4680 H   0  0  0  0  0  0  0  0  0  0  0  0
  -21.0840  -13.1820   22.2470 H   0  0  0  0  0  0  0  0  0  0  0  0
  -25.3840  -15.2380   20.3320 N   0  0  0  0  0  0  0  0  0  0  0  0
  -24.6410  -15.9160   20.4530 H   0  0  0  0  0  0  0  0  0  0  0  0
  -26.2500  -15.6580   20.0130 H   0  0  0  0  0  0  0  0  0  0  0  0
  -29.4300  -18.6410   16.7980 N   0  0  0  0  0  0  0  0  0  0  0  0
  -28.9880  -19.4520   16.3690 H   0  0  0  0  0  0  0  0  0  0  0  0
  -29.3700  -17.8030   16.2260 H   0  0  0  0  0  0  0  0  0  0  0  0
  -28.4450  -22.3140   20.6680 C   0  0  0  0  0  2  0  0  0  0  0  0
  -29.2990  -24.2380   22.2060 C   0  0  0  0  0  1  0  0  0  0  0  0
  -30.3070  -23.9380   19.9170 C   0  0  0  0  0  1  0  0  0  0  0  0
  -29.0120  -23.8400   20.7410 C   0  0  1  0  0  0  0  0  0  0  0  0
  -27.9840  -24.9480   20.1800 C   0  0  0  0  0  2  0  0  0  0  0  0
  -28.2700  -26.4150   20.2740 O   0  0  0  0  0  0  0  0  0  0  0  0
  -24.6270  -31.9040   23.2390 C   0  0  0  0  0  0  0  0  0  0  0  0
  -27.1840  -27.3070   20.1890 C   0  0  0  0  0  0  0  0  0  0  0  0
  -23.4060  -30.5140   21.6080 C   0  0  0  0  0  3  0  0  0  0  0  0
  -24.8380  -28.9570   20.1710 C   0  0  0  0  0  0  0  0  0  0  0  0
  -25.9480  -30.8130   21.4110 C   0  0  0  0  0  2  0  0  0  0  0  0
  -26.0150  -29.4330   20.7630 C   0  0  0  0  0  0  0  0  0  0  0  0
  -27.1930  -28.6220   20.7580 C   0  0  0  0  0  3  0  0  0  0  0  0
  -25.9880  -26.9030   19.5520 C   0  0  0  0  0  3  0  0  0  0  0  0
  -24.8300  -27.7000   19.5520 C   0  0  0  0  0  3  0  0  0  0  0  0
  -23.6090  -29.8420   20.2250 C   0  0  0  0  0  2  0  0  0  0  0  0
  -24.6780  -31.0930   22.1430 N   0  0  0  0  0  0  0  0  0  0  0  0
  -23.5480  -32.1830   23.7830 O   0  0  0  0  0  0  0  0  0  0  0  0
  -22.7460  -29.4970   22.5680 C   0  0  0  0  0  0  0  0  0  0  0  0
  -21.4180  -29.3260   22.4490 N   0  0  0  0  0  0  0  0  0  0  0  0
  -23.4250  -28.8670   23.3830 O   0  0  0  0  0  0  0  0  0  0  0  0
  -20.9280  -29.8840   21.7640 H   0  0  0  0  0  0  0  0  0  0  0  0
  -18.0390  -28.1430   22.9680 C   0  0  0  0  0  0  0  0  0  0  0  0
  -20.5980  -28.3940   23.2270 C   0  0  0  0  0  3  0  0  0  0  0  0
  -20.6930  -26.9600   22.6570 C   0  0  0  0  0  2  0  0  0  0  0  0
  -19.5870  -26.6380   21.6480 C   0  0  0  0  0  2  0  0  0  0  0  0
  -18.2070  -26.7910   22.2950 C   0  0  0  0  0  2  0  0  0  0  0  0
  -19.1610  -28.9020   23.3910 C   0  0  0  0  0  0  0  0  0  0  0  0
  -18.9500  -30.1670   23.9800 C   0  0  0  0  0  3  0  0  0  0  0  0
  -17.6470  -30.6730   24.1490 C   0  0  0  0  0  3  0  0  0  0  0  0
  -16.5380  -29.9120   23.7410 C   0  0  0  0  0  3  0  0  0  0  0  0
  -16.7350  -28.6480   23.1550 C   0  0  0  0  0  3  0  0  0  0  0  0
  -25.9170  -32.5310   23.8530 C   0  0  0  0  0  3  0  0  0  0  0  0
  -25.6120  -33.9280   24.1930 N   0  0  0  0  0  0  0  0  0  0  0  0
  -25.9360  -34.9830   23.4320 C   0  0  0  0  0  0  0  0  0  0  0  0
  -26.5920  -34.8820   22.3930 O   0  0  0  0  0  0  0  0  0  0  0  0
  -25.0320  -34.0830   25.0030 H   0  0  0  0  0  0  0  0  0  0  0  0
  -24.2010  -36.7760   23.1120 C   0  0  0  0  0  1  0  0  0  0  0  0
  -25.4570  -36.3690   23.9010 C   0  0  0  0  0  3  0  0  0  0  0  0
  -27.6060  -37.2520   24.6970 C   0  0  0  0  0  1  0  0  0  0  0  0
  -26.4880  -37.4250   23.7730 N   0  0  0  0  0  0  0  0  0  0  0  0
  -26.0840  -38.3440   23.9340 H   0  0  0  0  0  0  0  0  0  0  0  0
  -26.4410  -31.7520   25.1210 C   0  0  1  0  0  0  0  0  0  0  0  0
  -25.3540  -31.5160   26.1960 C   0  0  0  0  0  1  0  0  0  0  0  0
  -27.0150  -30.3730   24.7230 C   0  0  0  0  0  1  0  0  0  0  0  0
  -27.6000  -32.5400   25.7770 C   0  0  0  0  0  1  0  0  0  0  0  0
  1  2  2  0
  2  3  1  0
  4  7  1  0
  6  9  2  0
  7  5  2  0
  7  1  1  0
  8  6  1  0
  8  4  2  0
  9 18  1  0
  9  5  1  0
 10 18  1  0
 11 16  1  0
 12 13  1  0
 12 11  1  0
 14 13  1  0
 14 23  1  0
 14 15  1  0
 16 10  1  0
 16 15  1  0
 17 10  2  0
 18 19  1  0
 20 21  2  0
 21 40  1  0
 22 21  1  0
 22 25  1  0
 23 20  1  0
 23 24  1  0
 24 22  2  0
 25 26  1  0
 26 27  2  0
 28 31  1  0
 28 27  1  0
 29 28  2  0
 30 29  1  0
 30 25  2  0
 31 32  1  0
 32 33  1  0
 33 34  2  0
 35 34  1  0
 35 39  1  0
 36 35  2  0
 37 32  2  0
 37 36  1  0
 38 37  1  0
 40 41  1  0
 41 44  1  0
 41 43  1  0
 42 40  2  0
 45 46  1  0
 45 20  1  0
 47 45  1  0
 48  8  1  0
 49 48  1  0
 50 48  1  0
 51 54  1  0
 51  1  1  0
 54 53  1  6
 54 52  1  0
 55 56  1  0
 55 54  1  0
 57 68  2  0
 58 56  1  0
 58 63  1  0
 59 67  1  0
 59 69  1  0
 60 66  1  0
 60 62  1  0
 61 67  1  0
 62 61  1  0
 63 62  2  0
 64 65  1  0
 64 58  2  0
 65 60  2  0
 66 59  1  0
 67 57  1  0
 69 71  2  0
 70 69  1  0
 72 70  1  0
 73 82  2  0
 73 78  1  0
 74 70  1  0
 74 78  1  0
 75 74  1  0
 76 77  1  0
 76 75  1  0
 77 73  1  0
 78 79  2  0
 79 80  1  0
 81 80  2  0
 82 81  1  0
 83 57  1  0
 83 84  1  0
 83 93  1  0
 84 87  1  0
 85 89  1  0
 85 84  1  0
 86 85  2  0
 89 88  1  0
 91 89  1  0
 91 92  1  0
 91 90  1  0
 93 96  1  1
 93 94  1  0
 95 93  1  0
M  ISO  4  10 100  18 100  55 101  56 101
M  END
>  <TORSDO>  (2) 
F 21

>  <SCORE>  (2) 
-14.135

>  <name>  (2) 
1

>  <ligand_id>  (2) 
1

>  <original_smiles>  (2) 
[H]N=C(c1c([H])c(N([H])[H])c([H])c(N([H])C(=O)N2C([H])([H])C([H])([H])C([H])([H])C([H])(n3nc(-c4c([H])c([H])c(Oc5c([H])c([H])c(F)c([H])c5F)c([H])c4[H])c(C(=O)N([H])[H])c3N([H])[H])C2([H])[H])c1[H])C([H])([H])C(C([H])([H])[H])(C([H])([H])[H])C([H])([H])Oc1c([H])c([H])c2c(c1[H])C([H])([H])N(C(=O)C([H])(N([H])C(=O)C([H])(N([H])C([H])([H])[H])C([H])([H])[H])C(C([H])([H])[H])(C([H])([H])[H])C([H])([H])[H])C([H])(C(=O)N([H])C1([H])c3c([H])c([H])c([H])c([H])c3C([H])([H])C([H])([H])C1([H])[H])C2([H])[H]

>  <smiles>  (2) 
[H]N=C(c1c([H])c(N([H])[H])c([H])c(N([H])C(=O)N2C([H])([H])C([H])([H])C([H])([H])C([H])(n3nc(-c4c([H])c([H])c(Oc5c([H])c([H])c(F)c([H])c5F)c([H])c4[H])c(C(=O)N([H])[H])c3N([H])[H])C2([H])[H])c1[H])C([H])([H])C(C([H])([H])[H])(C([H])([H])[H])C([H])([H])Oc1c([H])c([H])c2c(c1[H])C([H])([H])N(C(=O)C([H])(N([H])C(=O)C([H])(N([H])C([H])([H])[H])C([H])([H])[H])C(C([H])([H])[H])(C([H])([H])[H])C([H])([H])[H])C([H])(C(=O)N([H])C1([H])c3c([H])c([H])c([H])c([H])c3C([H])([H])C([H])([H])C1([H])[H])C2([H])[H]

$$$$
2:0:0
     RDKit          3D

 96105  0  0  1  0  0  0  0  0999 V2000
  -30.8250  -21.1640   21.8970 C   0  0  0  0  0  3  0  0  0  0  0  0
  -29.7210  -24.7210   21.8670 C   0  0  0  0  0  2  0  0  0  0  0  0
  -30.5780  -23.5850   22.4270 C   0  0  0  0  0  2  0  0  0  0  0  0
  -29.3800  -22.8060   20.4900 C   0  0  0  0  0  2  0  0  0  0  0  0
  -29.5210  -24.3720   20.3890 C   0  0  2  0  0  0  0  0  0  0  0  0
  -30.7780  -24.7360   19.5680 C   0  0  0  0  0  1  0  0  0  0  0  0
  -30.2940  -22.3910   21.5910 N   0  0  0  0  0  0  0  0  0  0  0  0
  -31.6800  -21.1240   22.9190 N   0  0  0  0  0  0  0  0  0  0  0  0
  -32.0440  -20.2270   23.2030 H   0  0  0  0  0  0  0  0  0  0  0  0
  -31.9390  -21.9370   23.4480 H   0  0  0  0  0  0  0  0  0  0  0  0
  -31.6830  -18.9530   21.0980 C   0  0  0  0  0  3  0  0  0  0  0  0
  -29.2860  -19.2990   21.1100 C   0  0  0  0  0  3  0  0  0  0  0  0
  -31.4990  -17.5730   20.8410 C   0  0  0  0  0  3  0  0  0  0  0  0
  -29.1030  -17.9110   20.8620 C   0  0  0  0  0  3  0  0  0  0  0  0
  -30.5840  -19.8330   21.2790 C   0  0  0  0  0  0  0  0  0  0  0  0
  -30.1980  -17.0130   20.7600 C   0  0  0  0  0  0  0  0  0  0  0  0
  -30.6510  -14.5770   20.1070 C   0  0  0  0  0  0  0  0  0  0  0  0
  -30.2930  -12.4290   18.9260 C   0  0  0  0  0  2  0  0  0  0  0  0
  -29.2750  -12.6510   17.7850 C   0  0  0  0  0  2  0  0  0  0  0  0
  -27.8280  -12.5140   18.3000 C   0  0  0  0  0  2  0  0  0  0  0  0
  -27.5740  -13.3210   19.6010 C   0  0  0  0  0  3  0  0  0  0  0  0
  -28.6940  -13.0680   20.6370 C   0  0  0  0  0  2  0  0  0  0  0  0
  -29.9790  -13.3930   19.9950 N   0  0  0  0  0  0  0  0  0  0  0  0
  -31.7710  -14.7360   19.6160 O   0  0  0  0  0  0  0  0  0  0  0  0
  -29.9240  -15.5990   20.6300 N   0  0  0  0  0  0  0  0  0  0  0  0
  -29.0080  -15.3140   20.9350 H   0  0  0  0  0  0  0  0  0  0  0  0
  -25.2300  -13.9340   20.4600 C   0  0  0  0  0  0  0  0  0  0  0  0
  -24.1770  -13.1640   20.8770 C   0  0  0  0  0  0  0  0  0  0  0  0
  -24.6230  -11.8080   20.7940 C   0  0  0  0  0  0  0  0  0  0  0  0
  -26.2510  -13.0480   20.1530 N   0  0  0  0  0  0  0  0  0  0  0  0
  -25.8930  -11.7650   20.4120 N   0  0  0  0  0  0  0  0  0  0  0  0
  -23.8970  -10.5490   21.0000 C   0  0  0  0  0  0  0  0  0  0  0  0
  -24.3600   -9.5690   21.9070 C   0  0  0  0  0  3  0  0  0  0  0  0
  -23.6350   -8.3750   22.1010 C   0  0  0  0  0  3  0  0  0  0  0  0
  -22.4320   -8.1500   21.3900 C   0  0  0  0  0  0  0  0  0  0  0  0
  -21.9890   -9.1170   20.4720 C   0  0  0  0  0  3  0  0  0  0  0  0
  -22.7140  -10.3040   20.2750 C   0  0  0  0  0  3  0  0  0  0  0  0
  -21.6760   -7.0090   21.4960 O   0  0  0  0  0  0  0  0  0  0  0  0
  -21.6440   -6.2710   22.6520 C   0  0  0  0  0  0  0  0  0  0  0  0
  -21.2120   -6.8240   23.8770 C   0  0  0  0  0  3  0  0  0  0  0  0
  -21.1300   -6.0120   25.0260 C   0  0  0  0  0  3  0  0  0  0  0  0
  -21.4670   -4.6480   24.9500 C   0  0  0  0  0  0  0  0  0  0  0  0
  -21.8920   -4.0940   23.7300 C   0  0  0  0  0  3  0  0  0  0  0  0
  -21.9770   -4.9030   22.5830 C   0  0  0  0  0  0  0  0  0  0  0  0
  -22.3660   -4.3590   21.4050 F   0  0  0  0  0  0  0  0  0  0  0  0
  -21.3800   -3.8650   26.0510 F   0  0  0  0  0  0  0  0  0  0  0  0
  -22.8010  -13.6470   21.2370 C   0  0  0  0  0  0  0  0  0  0  0  0
  -22.1200  -12.9440   22.1350 N   0  0  0  0  0  0  0  0  0  0  0  0
  -22.3410  -14.6820   20.7580 O   0  0  0  0  0  0  0  0  0  0  0  0
  -22.5060  -12.1060   22.5430 H   0  0  0  0  0  0  0  0  0  0  0  0
  -21.1990  -13.2480   22.4160 H   0  0  0  0  0  0  0  0  0  0  0  0
  -25.3960  -15.3050   20.2950 N   0  0  0  0  0  0  0  0  0  0  0  0
  -24.6330  -15.9580   20.4430 H   0  0  0  0  0  0  0  0  0  0  0  0
  -26.2020  -15.7340   19.8580 H   0  0  0  0  0  0  0  0  0  0  0  0
  -28.2920  -25.1500   19.8000 C   0  0  0  0  0  2  0  0  0  0  0  0
  -28.3960  -26.5980   19.9240 O   0  0  0  0  0  0  0  0  0  0  0  0
  -24.5120  -31.6930   23.1120 C   0  0  0  0  0  0  0  0  0  0  0  0
  -27.2200  -27.3420   19.9120 C   0  0  0  0  0  0  0  0  0  0  0  0
  -23.3250  -30.3120   21.4410 C   0  0  0  0  0  3  0  0  0  0  0  0
  -24.8010  -28.8390   19.9670 C   0  0  0  0  0  0  0  0  0  0  0  0
  -25.8480  -30.7130   21.2440 C   0  0  0  0  0  2  0  0  0  0  0  0
  -25.9560  -29.3590   20.5640 C   0  0  0  0  0  0  0  0  0  0  0  0
  -27.1680  -28.6210   20.5280 C   0  0  0  0  0  3  0  0  0  0  0  0
  -26.0410  -26.8520   19.3030 C   0  0  0  0  0  3  0  0  0  0  0  0
  -24.8410  -27.5870   19.3320 C   0  0  0  0  0  3  0  0  0  0  0  0
  -23.5420  -29.6740   20.0430 C   0  0  0  0  0  2  0  0  0  0  0  0
  -24.5800  -30.9210   21.9900 N   0  0  0  0  0  0  0  0  0  0  0  0
  -23.4290  -31.9290   23.6650 O   0  0  0  0  0  0  0  0  0  0  0  0
  -22.6980  -29.2540   22.3790 C   0  0  0  0  0  0  0  0  0  0  0  0
  -21.3790  -29.0390   22.2460 N   0  0  0  0  0  0  0  0  0  0  0  0
  -23.3980  -28.6300   23.1820 O   0  0  0  0  0  0  0  0  0  0  0  0
  -20.8750  -29.5960   21.5720 H   0  0  0  0  0  0  0  0  0  0  0  0
  -18.0390  -27.7390   22.7110 C   0  0  0  0  0  0  0  0  0  0  0  0
  -20.5870  -28.0630   22.9950 C   0  0  0  0  0  3  0  0  0  0  0  0
  -20.7320  -26.6480   22.3900 C   0  0  0  0  0  2  0  0  0  0  0  0
  -19.6430  -26.3140   21.3670 C   0  0  0  0  0  2  0  0  0  0  0  0
  -18.2560  -26.4080   22.0090 C   0  0  0  0  0  2  0  0  0  0  0  0
  -19.1340  -28.5220   23.1600 C   0  0  0  0  0  0  0  0  0  0  0  0
  -18.8790  -29.7670   23.7750 C   0  0  0  0  0  3  0  0  0  0  0  0
  -17.5610  -30.2280   23.9460 C   0  0  0  0  0  3  0  0  0  0  0  0
  -16.4800  -29.4410   23.5130 C   0  0  0  0  0  3  0  0  0  0  0  0
  -16.7190  -28.1980   22.9010 C   0  0  0  0  0  3  0  0  0  0  0  0
  -25.7890  -32.3340   23.7420 C   0  0  0  0  0  3  0  0  0  0  0  0
  -25.4600  -33.7240   24.0890 N   0  0  0  0  0  0  0  0  0  0  0  0
  -25.7850  -34.7910   23.3470 C   0  0  0  0  0  0  0  0  0  0  0  0
  -26.4640  -34.7100   22.3190 O   0  0  0  0  0  0  0  0  0  0  0  0
  -24.8600  -33.8610   24.8900 H   0  0  0  0  0  0  0  0  0  0  0  0
  -24.0440  -36.5720   22.9970 C   0  0  0  0  0  1  0  0  0  0  0  0
  -25.2780  -36.1660   23.8200 C   0  0  0  0  0  3  0  0  0  0  0  0
  -27.3850  -37.0630   24.7040 C   0  0  0  0  0  1  0  0  0  0  0  0
  -26.3020  -37.2300   23.7400 N   0  0  0  0  0  0  0  0  0  0  0  0
  -25.8840  -38.1450   23.8900 H   0  0  0  0  0  0  0  0  0  0  0  0
  -26.3170  -31.5560   25.0080 C   0  0  1  0  0  0  0  0  0  0  0  0
  -25.2270  -31.2860   26.0720 C   0  0  0  0  0  1  0  0  0  0  0  0
  -26.9230  -30.1940   24.5950 C   0  0  0  0  0  1  0  0  0  0  0  0
  -27.4550  -32.3580   25.6820 C   0  0  0  0  0  1  0  0  0  0  0  0
  1  8  1  0
  2  3  1  0
  4  7  1  0
  5  6  1  6
  5  4  1  0
  5  2  1  0
  7  1  1  0
  7  3  1  0
  8  9  1  0
  8 10  1  0
 11 15  1  0
 12 15  2  0
 13 11  2  0
 14 12  1  0
 15  1  1  0
 16 13  1  0
 16 14  2  0
 17 25  1  0
 18 23  1  0
 19 20  1  0
 19 18  1  0
 21 20  1  0
 21 30  1  0
 21 22  1  0
 23 17  1  0
 23 22  1  0
 24 17  2  0
 25 16  1  0
 25 26  1  0
 27 28  2  0
 28 47  1  0
 29 28  1  0
 29 32  1  0
 30 31  1  0
 30 27  1  0
 31 29  2  0
 32 33  1  0
 33 34  2  0
 35 38  1  0
 35 34  1  0
 36 35  2  0
 37 36  1  0
 37 32  2  0
 38 39  1  0
 39 40  1  0
 40 41  2  0
 42 41  1  0
 42 46  1  0
 43 42  2  0
 44 39  2  0
 44 43  1  0
 45 44  1  0
 47 48  1  0
 48 51  1  0
 48 50  1  0
 49 47  2  0
 52 53  1  0
 52 27  1  0
 54 52  1  0
 55 56  1  0
 55  5  1  0
 57 68  2  0
 58 56  1  0
 58 63  1  0
 59 67  1  0
 59 69  1  0
 60 66  1  0
 60 62  1  0
 61 67  1  0
 62 61  1  0
 63 62  2  0
 64 65  1  0
 64 58  2  0
 65 60  2  0
 66 59  1  0
 67 57  1  0
 69 71  2  0
 70 69  1  0
 72 70  1  0
 73 82  2  0
 73 78  1  0
 74 70  1  0
 74 78  1  0
 75 74  1  0
 76 77  1  0
 76 75  1  0
 77 73  1  0
 78 79  2  0
 79 80  1  0
 81 80  2  0
 82 81  1  0
 83 57  1  0
 83 84  1  0
 83 93  1  0
 84 87  1  0
 85 89  1  0
 85 84  1  0
 86 85  2  0
 89 88  1  0
 91 89  1  0
 91 92  1  0
 91 90  1  0
 93 96  1  1
 93 94  1  0
 95 93  1  0
M  ISO  4  17 100  25 100  55 101  56 101
M  END
>  <TORSDO>  (3) 
F 18

>  <SCORE>  (3) 
-14.269

>  <name>  (3) 
2

>  <ligand_id>  (3) 
2

>  <original_smiles>  (3) 
[H]c1c([H])c([H])c2c(c1[H])C([H])([H])C([H])([H])C([H])([H])C2([H])N([H])C(=O)C1([H])N(C(=O)C([H])(N([H])C(=O)C([H])(N([H])C([H])([H])[H])C([H])([H])[H])C(C([H])([H])[H])(C([H])([H])[H])C([H])([H])[H])C([H])([H])c2c([H])c(OC([H])([H])C3(C([H])([H])[H])C([H])([H])N(C(c4c([H])c([H])c(N([H])C(=O)N5C([H])([H])C([H])([H])C([H])([H])C([H])(n6nc(-c7c([H])c([H])c(Oc8c([H])c([H])c(F)c([H])c8F)c([H])c7[H])c(C(=O)N([H])[H])c6N([H])[H])C5([H])[H])c([H])c4[H])=[N+]([H])[H])C([H])([H])C3([H])[H])c([H])c([H])c2C1([H])[H]

>  <smiles>  (3) 
[H]c1c([H])c([H])c2c(c1[H])C([H])([H])C([H])([H])C([H])([H])C2([H])N([H])C(=O)C1([H])N(C(=O)C([H])(N([H])C(=O)C([H])(N([H])C([H])([H])[H])C([H])([H])[H])C(C([H])([H])[H])(C([H])([H])[H])C([H])([H])[H])C([H])([H])c2c([H])c(OC([H])([H])C3(C([H])([H])[H])C([H])([H])N(C(c4c([H])c([H])c(N([H])C(=O)N5C([H])([H])C([H])([H])C([H])([H])C([H])(n6nc(-c7c([H])c([H])c(Oc8c([H])c([H])c(F)c([H])c8F)c([H])c7[H])c(C(=O)N([H])[H])c6N([H])[H])C5([H])[H])c([H])c4[H])=[N+]([H])[H])C([H])([H])C3([H])[H])c([H])c([H])c2C1([H])[H]

$$$$
3:0:0
     RDKit          3D

 95104  0  0  1  0  0  0  0  0999 V2000
  -30.2440  -22.0600   18.7240 C   0  0  0  0  0  0  0  0  0  0  0  0
  -29.5440  -23.1930   17.9920 C   0  0  0  0  0  2  0  0  0  0  0  0
  -28.2070  -23.2830   18.7110 C   0  0  0  0  0  2  0  0  0  0  0  0
  -28.5540  -22.9080   20.1550 C   0  0  0  0  0  3  0  0  0  0  0  0
  -29.6490  -21.7440   19.8920 N   0  0  0  0  0  0  0  0  0  0  0  0
  -31.2570  -21.5290   18.2560 O   0  0  0  0  0  0  0  0  0  0  0  0
  -30.2090  -20.2570   21.8630 C   0  0  0  0  0  3  0  0  0  0  0  0
  -30.1040  -18.9860   19.7970 C   0  0  0  0  0  3  0  0  0  0  0  0
  -30.8330  -17.8390   21.7940 C   0  0  0  0  0  3  0  0  0  0  0  0
  -29.9400  -20.3230   20.4820 C   0  0  0  0  0  0  0  0  0  0  0  0
  -30.6590  -19.0650   22.4910 C   0  0  0  0  0  0  0  0  0  0  0  0
  -30.5470  -17.6880   20.4180 C   0  0  0  0  0  0  0  0  0  0  0  0
  -31.2220  -14.9790   20.0590 C   0  0  0  0  0  0  0  0  0  0  0  0
  -30.9830  -12.6160   19.1040 C   0  0  0  0  0  2  0  0  0  0  0  0
  -30.0250  -12.5720   17.8910 C   0  0  0  0  0  2  0  0  0  0  0  0
  -28.5610  -12.4350   18.3540 C   0  0  0  0  0  2  0  0  0  0  0  0
  -28.2130  -13.3970   19.5210 C   0  0  0  0  0  3  0  0  0  0  0  0
  -29.2890  -13.3850   20.6230 C   0  0  0  0  0  2  0  0  0  0  0  0
  -30.5540  -13.7520   19.9700 N   0  0  0  0  0  0  0  0  0  0  0  0
  -32.4510  -14.9370   19.9230 O   0  0  0  0  0  0  0  0  0  0  0  0
  -30.5050  -16.2190   19.8930 N   0  0  0  0  0  0  0  0  0  0  0  0
  -29.5960  -16.0080   19.5100 H   0  0  0  0  0  0  0  0  0  0  0  0
  -25.8890  -14.1210   20.3040 C   0  0  0  0  0  0  0  0  0  0  0  0
  -24.7820  -13.4150   20.6840 C   0  0  0  0  0  0  0  0  0  0  0  0
  -25.1590  -12.0380   20.6460 C   0  0  0  0  0  0  0  0  0  0  0  0
  -26.8710  -13.1790   20.0450 N   0  0  0  0  0  0  0  0  0  0  0  0
  -26.4410  -11.9210   20.3190 N   0  0  0  0  0  0  0  0  0  0  0  0
  -24.3550  -10.8240   20.8410 C   0  0  0  0  0  0  0  0  0  0  0  0
  -24.7190   -9.8400   21.7860 C   0  0  0  0  0  3  0  0  0  0  0  0
  -23.9190   -8.6910   21.9690 C   0  0  0  0  0  3  0  0  0  0  0  0
  -22.7390   -8.5210   21.2060 C   0  0  0  0  0  0  0  0  0  0  0  0
  -22.3930   -9.4910   20.2500 C   0  0  0  0  0  3  0  0  0  0  0  0
  -23.1950  -10.6310   20.0650 C   0  0  0  0  0  3  0  0  0  0  0  0
  -21.9140   -7.4260   21.2980 O   0  0  0  0  0  0  0  0  0  0  0  0
  -21.7850   -6.7180   22.4660 C   0  0  0  0  0  0  0  0  0  0  0  0
  -21.3740   -7.3330   23.6690 C   0  0  0  0  0  3  0  0  0  0  0  0
  -21.1860   -6.5540   24.8280 C   0  0  0  0  0  3  0  0  0  0  0  0
  -21.3990   -5.1640   24.7870 C   0  0  0  0  0  0  0  0  0  0  0  0
  -21.8040   -4.5490   23.5890 C   0  0  0  0  0  3  0  0  0  0  0  0
  -21.9930   -5.3230   22.4310 C   0  0  0  0  0  0  0  0  0  0  0  0
  -22.3620   -4.7220   21.2740 F   0  0  0  0  0  0  0  0  0  0  0  0
  -21.2120   -4.4150   25.8990 F   0  0  0  0  0  0  0  0  0  0  0  0
  -23.4200  -13.9810   20.9660 C   0  0  0  0  0  0  0  0  0  0  0  0
  -22.6580  -13.3460   21.8490 N   0  0  0  0  0  0  0  0  0  0  0  0
  -23.0400  -15.0230   20.4350 O   0  0  0  0  0  0  0  0  0  0  0  0
  -22.9760  -12.5050   22.3070 H   0  0  0  0  0  0  0  0  0  0  0  0
  -21.7450  -13.7130   22.0750 H   0  0  0  0  0  0  0  0  0  0  0  0
  -26.1350  -15.4810   20.1300 N   0  0  0  0  0  0  0  0  0  0  0  0
  -25.4170  -16.1820   20.2680 H   0  0  0  0  0  0  0  0  0  0  0  0
  -27.0120  -15.8720   19.8140 H   0  0  0  0  0  0  0  0  0  0  0  0
  -30.9330  -19.1040   23.8580 N   0  0  0  0  0  0  0  0  0  0  0  0
  -31.0110  -19.9990   24.3330 H   0  0  0  0  0  0  0  0  0  0  0  0
  -31.5060  -18.3770   24.2750 H   0  0  0  0  0  0  0  0  0  0  0  0
  -28.7150  -24.4300   20.9350 C   0  0  0  0  0  2  0  0  0  0  0  0
  -28.6650  -25.9390   20.4360 O   0  0  0  0  0  0  0  0  0  0  0  0
  -24.7600  -31.6640   23.1650 C   0  0  0  0  0  0  0  0  0  0  0  0
  -27.5520  -26.8720   20.4130 C   0  0  0  0  0  0  0  0  0  0  0  0
  -23.6620  -30.2020   21.5110 C   0  0  0  0  0  3  0  0  0  0  0  0
  -25.1990  -28.5970   20.2110 C   0  0  0  0  0  0  0  0  0  0  0  0
  -26.2170  -30.4970   21.4600 C   0  0  0  0  0  2  0  0  0  0  0  0
  -26.3430  -29.0810   20.8580 C   0  0  0  0  0  0  0  0  0  0  0  0
  -27.5210  -28.2370   20.9280 C   0  0  0  0  0  3  0  0  0  0  0  0
  -26.3760  -26.4870   19.7390 C   0  0  0  0  0  3  0  0  0  0  0  0
  -25.2310  -27.3140   19.6370 C   0  0  0  0  0  3  0  0  0  0  0  0
  -23.9600  -29.4820   20.1680 C   0  0  0  0  0  2  0  0  0  0  0  0
  -24.8970  -30.8140   22.1000 N   0  0  0  0  0  0  0  0  0  0  0  0
  -23.6460  -31.9440   23.6340 O   0  0  0  0  0  0  0  0  0  0  0  0
  -22.9520  -29.2140   22.4720 C   0  0  0  0  0  0  0  0  0  0  0  0
  -21.6280  -29.0410   22.3090 N   0  0  0  0  0  0  0  0  0  0  0  0
  -23.5970  -28.6040   23.3280 O   0  0  0  0  0  0  0  0  0  0  0  0
  -21.1630  -29.5840   21.5940 H   0  0  0  0  0  0  0  0  0  0  0  0
  -18.2320  -27.8490   22.7380 C   0  0  0  0  0  0  0  0  0  0  0  0
  -20.7850  -28.1150   23.0700 C   0  0  0  0  0  3  0  0  0  0  0  0
  -20.8990  -26.6750   22.5160 C   0  0  0  0  0  2  0  0  0  0  0  0
  -19.8230  -26.3410   21.4770 C   0  0  0  0  0  2  0  0  0  0  0  0
  -18.4250  -26.4940   22.0820 C   0  0  0  0  0  2  0  0  0  0  0  0
  -19.3400  -28.6180   23.1870 C   0  0  0  0  0  0  0  0  0  0  0  0
  -19.1040  -29.8860   23.7600 C   0  0  0  0  0  3  0  0  0  0  0  0
  -17.7940  -30.3870   23.8890 C   0  0  0  0  0  3  0  0  0  0  0  0
  -16.7010  -29.6160   23.4550 C   0  0  0  0  0  3  0  0  0  0  0  0
  -16.9220  -28.3490   22.8850 C   0  0  0  0  0  3  0  0  0  0  0  0
  -25.9950  -32.3390   23.8370 C   0  0  0  0  0  3  0  0  0  0  0  0
  -26.4800  -31.5890   25.1380 C   0  0  1  0  0  0  0  0  0  0  0  0
  -25.3550  -31.3300   26.1660 C   0  0  0  0  0  1  0  0  0  0  0  0
  -27.1140  -30.2230   24.7840 C   0  0  0  0  0  1  0  0  0  0  0  0
  -27.5850  -32.4160   25.8380 C   0  0  0  0  0  1  0  0  0  0  0  0
  -25.6300  -33.7290   24.1560 N   0  0  0  0  0  0  0  0  0  0  0  0
  -25.9520  -34.7950   23.4120 C   0  0  0  0  0  0  0  0  0  0  0  0
  -26.6530  -34.7140   22.4000 O   0  0  0  0  0  0  0  0  0  0  0  0
  -25.0070  -33.8620   24.9380 H   0  0  0  0  0  0  0  0  0  0  0  0
  -24.1760  -36.5380   23.0250 C   0  0  0  0  0  1  0  0  0  0  0  0
  -25.4130  -36.1680   23.8600 C   0  0  0  0  0  3  0  0  0  0  0  0
  -27.5030  -37.1220   24.7260 C   0  0  0  0  0  1  0  0  0  0  0  0
  -26.4130  -37.2530   23.7630 N   0  0  0  0  0  0  0  0  0  0  0  0
  -25.9760  -38.1610   23.9010 H   0  0  0  0  0  0  0  0  0  0  0  0
  1  5  1  0
  2  3  1  0
  2  1  1  0
  3  4  1  0
  4 54  1  0
  5  4  1  0
  5 10  1  0
  6  1  2  0
  7 11  1  0
  8 12  2  0
  8 10  1  0
  9 11  2  0
 10  7  2  0
 11 51  1  0
 12  9  1  0
 14 19  1  0
 15 16  1  0
 15 14  1  0
 17 16  1  0
 17 26  1  0
 17 18  1  0
 19 13  1  0
 19 18  1  0
 20 13  2  0
 21 13  1  0
 21 12  1  0
 22 21  1  0
 23 24  2  0
 24 43  1  0
 25 24  1  0
 25 28  1  0
 26 23  1  0
 26 27  1  0
 27 25  2  0
 28 29  1  0
 29 30  2  0
 31 34  1  0
 31 30  1  0
 32 31  2  0
 33 32  1  0
 33 28  2  0
 34 35  1  0
 35 36  1  0
 36 37  2  0
 38 37  1  0
 38 42  1  0
 39 38  2  0
 40 35  2  0
 40 39  1  0
 41 40  1  0
 43 44  1  0
 44 47  1  0
 44 46  1  0
 45 43  2  0
 48 49  1  0
 48 23  1  0
 50 48  1  0
 51 53  1  0
 51 52  1  0
 55 54  1  0
 56 67  2  0
 57 55  1  0
 57 62  1  0
 58 66  1  0
 58 68  1  0
 59 61  1  0
 60 66  1  0
 61 62  2  0
 61 60  1  0
 63 57  2  0
 64 63  1  0
 64 59  2  0
 65 59  1  0
 65 58  1  0
 66 56  1  0
 68 70  2  0
 69 68  1  0
 71 69  1  0
 72 81  2  0
 72 77  1  0
 73 69  1  0
 73 77  1  0
 74 73  1  0
 75 76  1  0
 75 74  1  0
 76 72  1  0
 77 78  2  0
 78 79  1  0
 80 79  2  0
 81 80  1  0
 82 56  1  0
 82 87  1  0
 82 83  1  0
 83 86  1  1
 83 84  1  0
 85 83  1  0
 87 90  1  0
 88 92  1  0
 88 87  1  0
 89 88  2  0
 92 91  1  0
 94 92  1  0
 94 95  1  0
 94 93  1  0
M  ISO  4  13 100  21 100  54 101  55 101
M  END
>  <TORSDO>  (4) 
F 19

>  <SCORE>  (4) 
-14.198

>  <name>  (4) 
3

>  <ligand_id>  (4) 
3

>  <original_smiles>  (4) 
[H]c1c([H])c([H])c2c(c1[H])C([H])([H])C([H])([H])C([H])([H])C2([H])N([H])C(=O)C1([H])N(C(=O)C([H])(N([H])C(=O)C([H])(N([H])C([H])([H])[H])C([H])([H])[H])C(C([H])([H])[H])(C([H])([H])[H])C([H])([H])[H])C([H])([H])c2c([H])c(OC([H])([H])C3([H])N(c4c([H])c(N([H])[H])c([H])c(N([H])C(=O)N5C([H])([H])C([H])([H])C([H])([H])C([H])(n6nc(-c7c([H])c([H])c(Oc8c([H])c([H])c(F)c([H])c8F)c([H])c7[H])c(C(=O)N([H])[H])c6N([H])[H])C5([H])[H])c4[H])C(=O)C([H])([H])C3([H])[H])c([H])c([H])c2C1([H])[H]

>  <smiles>  (4) 
[H]c1c([H])c([H])c2c(c1[H])C([H])([H])C([H])([H])C([H])([H])C2([H])N([H])C(=O)C1([H])N(C(=O)C([H])(N([H])C(=O)C([H])(N([H])C([H])([H])[H])C([H])([H])[H])C(C([H])([H])[H])(C([H])([H])[H])C([H])([H])[H])C([H])([H])c2c([H])c(OC([H])([H])C3([H])N(c4c([H])c(N([H])[H])c([H])c(N([H])C(=O)N5C([H])([H])C([H])([H])C([H])([H])C([H])(n6nc(-c7c([H])c([H])c(Oc8c([H])c([H])c(F)c([H])c8F)c([H])c7[H])c(C(=O)N([H])[H])c6N([H])[H])C5([H])[H])c4[H])C(=O)C([H])([H])C3([H])[H])c([H])c([H])c2C1([H])[H]

$$$$
4:0:0
     RDKit          3D

102110  0  0  1  0  0  0  0  0999 V2000
  -31.0960  -22.9900   19.4080 C   0  0  0  0  0  3  0  0  0  0  0  0
  -29.7990  -24.6810   18.1130 C   0  0  0  0  0  0  0  0  0  0  0  0
  -30.3770  -24.2630   19.2520 N   0  0  0  0  0  0  0  0  0  0  0  0
  -29.5000  -23.8810   17.2190 O   0  0  0  0  0  0  0  0  0  0  0  0
  -30.5490  -24.9580   19.9620 H   0  0  0  0  0  0  0  0  0  0  0  0
  -30.9080  -26.7380   17.2120 C   0  0  0  0  0  1  0  0  0  0  0  0
  -29.6220  -26.2110   17.8750 C   0  0  1  0  0  0  0  0  0  0  0  0
  -28.5890  -26.4430   16.9190 O   0  0  0  0  0  0  0  0  0  0  0  0
  -28.4300  -27.3770   16.8880 H   0  0  0  0  0  0  0  0  0  0  0  0
  -29.2930  -27.0630   19.1290 C   0  0  0  0  0  2  0  0  0  0  0  0
  -28.1380  -26.5510   19.7770 O   0  0  0  0  0  0  0  0  0  0  0  0
  -24.4980  -31.6880   23.1080 C   0  0  0  0  0  0  0  0  0  0  0  0
  -27.0280  -27.3560   19.8150 C   0  0  0  0  0  0  0  0  0  0  0  0
  -23.2390  -30.3520   21.4490 C   0  0  0  0  0  3  0  0  0  0  0  0
  -24.6460  -28.8560   19.9360 C   0  0  0  0  0  0  0  0  0  0  0  0
  -25.7580  -30.7090   21.1950 C   0  0  0  0  0  2  0  0  0  0  0  0
  -25.8220  -29.3630   20.5070 C   0  0  0  0  0  0  0  0  0  0  0  0
  -27.0210  -28.6190   20.4460 C   0  0  0  0  0  3  0  0  0  0  0  0
  -25.8390  -26.8490   19.2600 C   0  0  0  0  0  3  0  0  0  0  0  0
  -24.6480  -27.5970   19.3100 C   0  0  0  0  0  3  0  0  0  0  0  0
  -23.4080  -29.7190   20.0420 C   0  0  0  0  0  2  0  0  0  0  0  0
  -24.5190  -30.9290   21.9760 N   0  0  0  0  0  0  0  0  0  0  0  0
  -23.4350  -31.9480   23.6860 O   0  0  0  0  0  0  0  0  0  0  0  0
  -22.6050  -29.3040   22.3910 C   0  0  0  0  0  0  0  0  0  0  0  0
  -21.2810  -29.1130   22.2700 N   0  0  0  0  0  0  0  0  0  0  0  0
  -23.2990  -28.6640   23.1860 O   0  0  0  0  0  0  0  0  0  0  0  0
  -20.7810  -29.6830   21.6030 H   0  0  0  0  0  0  0  0  0  0  0  0
  -17.9200  -27.8790   22.7570 C   0  0  0  0  0  0  0  0  0  0  0  0
  -20.4770  -28.1520   23.0250 C   0  0  0  0  0  3  0  0  0  0  0  0
  -20.5880  -26.7340   22.4190 C   0  0  0  0  0  2  0  0  0  0  0  0
  -19.4850  -26.4230   21.4020 C   0  0  0  0  0  2  0  0  0  0  0  0
  -18.1050  -26.5440   22.0550 C   0  0  0  0  0  2  0  0  0  0  0  0
  -19.0330  -28.6410   23.1990 C   0  0  0  0  0  0  0  0  0  0  0  0
  -18.8070  -29.8920   23.8130 C   0  0  0  0  0  3  0  0  0  0  0  0
  -17.4990  -30.3800   23.9920 C   0  0  0  0  0  3  0  0  0  0  0  0
  -16.4000  -29.6130   23.5670 C   0  0  0  0  0  3  0  0  0  0  0  0
  -16.6110  -28.3650   22.9550 C   0  0  0  0  0  3  0  0  0  0  0  0
  -25.8060  -32.2850   23.7140 C   0  0  0  0  0  3  0  0  0  0  0  0
  -26.3460  -31.4710   24.9540 C   0  0  1  0  0  0  0  0  0  0  0  0
  -25.2690  -31.1850   26.0260 C   0  0  0  0  0  1  0  0  0  0  0  0
  -26.9330  -30.1150   24.4990 C   0  0  0  0  0  1  0  0  0  0  0  0
  -27.5000  -32.2490   25.6300 C   0  0  0  0  0  1  0  0  0  0  0  0
  -25.5250  -33.6780   24.0870 N   0  0  0  0  0  0  0  0  0  0  0  0
  -25.8760  -34.7460   23.3580 C   0  0  0  0  0  0  0  0  0  0  0  0
  -26.5430  -34.6600   22.3230 O   0  0  0  0  0  0  0  0  0  0  0  0
  -24.9280  -33.8180   24.8900 H   0  0  0  0  0  0  0  0  0  0  0  0
  -24.1940  -36.5870   23.0400 C   0  0  0  0  0  1  0  0  0  0  0  0
  -25.4130  -36.1290   23.8560 C   0  0  0  0  0  3  0  0  0  0  0  0
  -27.5490  -36.9400   24.7550 C   0  0  0  0  0  1  0  0  0  0  0  0
  -26.4710  -37.1600   23.7950 N   0  0  0  0  0  0  0  0  0  0  0  0
  -26.0820  -38.0850   23.9610 H   0  0  0  0  0  0  0  0  0  0  0  0
  -33.2960  -24.2810   19.3780 C   0  0  0  0  0  1  0  0  0  0  0  0
  -33.2730  -21.9390   20.2310 C   0  0  0  0  0  1  0  0  0  0  0  0
  -32.2240  -23.7930   21.5790 C   0  0  0  0  0  1  0  0  0  0  0  0
  -32.4490  -23.2420   20.1530 C   0  0  2  0  0  0  0  0  0  0  0  0
  -30.1960  -21.8550   19.9900 C   0  0  0  0  0  2  0  0  0  0  0  0
  -30.1880  -20.7650   19.0630 O   0  0  0  0  0  0  0  0  0  0  0  0
  -30.6540  -14.3380   19.9870 C   0  0  0  0  0  0  0  0  0  0  0  0
  -30.3180  -12.1720   18.8690 C   0  0  0  0  0  2  0  0  0  0  0  0
  -29.3210  -12.3790   17.7110 C   0  0  0  0  0  2  0  0  0  0  0  0
  -27.8710  -12.2300   18.2090 C   0  0  0  0  0  2  0  0  0  0  0  0
  -27.5880  -13.0530   19.4940 C   0  0  0  0  0  3  0  0  0  0  0  0
  -28.6980  -12.8410   20.5500 C   0  0  0  0  0  2  0  0  0  0  0  0
  -29.9930  -13.1500   19.9210 N   0  0  0  0  0  0  0  0  0  0  0  0
  -31.7540  -14.5130   19.4520 O   0  0  0  0  0  0  0  0  0  0  0  0
  -30.2300  -17.0990   18.8690 C   0  0  0  0  0  3  0  0  0  0  0  0
  -29.8990  -18.9990   20.8140 C   0  0  0  0  0  3  0  0  0  0  0  0
  -30.2490  -18.4550   18.4970 C   0  0  0  0  0  0  0  0  0  0  0  0
  -30.1130  -19.4480   19.4860 C   0  0  0  0  0  0  0  0  0  0  0  0
  -30.0540  -16.7330   20.2220 C   0  0  0  0  0  0  0  0  0  0  0  0
  -30.4010  -18.8460   17.0400 C   0  0  0  0  0  1  0  0  0  0  0  0
  -29.8590  -17.6870   21.1620 N   0  0  0  0  0  0  0  0  0  0  0  0
  -29.9850  -15.3520   20.5720 N   0  0  0  0  0  0  0  0  0  0  0  0
  -29.2210  -15.0890   21.1720 H   0  0  0  0  0  0  0  0  0  0  0  0
  -25.2050  -13.6220   20.2820 C   0  0  0  0  0  0  0  0  0  0  0  0
  -24.1720  -12.8350   20.7140 C   0  0  0  0  0  0  0  0  0  0  0  0
  -24.6650  -11.4930   20.7010 C   0  0  0  0  0  0  0  0  0  0  0  0
  -26.2620  -12.7590   20.0350 N   0  0  0  0  0  0  0  0  0  0  0  0
  -25.9420  -11.4750   20.3410 N   0  0  0  0  0  0  0  0  0  0  0  0
  -23.9790  -10.2200   20.9550 C   0  0  0  0  0  0  0  0  0  0  0  0
  -24.4030   -9.3430   21.9780 C   0  0  0  0  0  3  0  0  0  0  0  0
  -23.7180   -8.1330   22.2160 C   0  0  0  0  0  3  0  0  0  0  0  0
  -22.5930   -7.7890   21.4280 C   0  0  0  0  0  0  0  0  0  0  0  0
  -22.1890   -8.6550   20.3960 C   0  0  0  0  0  3  0  0  0  0  0  0
  -22.8750   -9.8570   20.1580 C   0  0  0  0  0  3  0  0  0  0  0  0
  -21.8790   -6.6230   21.5690 O   0  0  0  0  0  0  0  0  0  0  0  0
  -21.7380   -6.0100   22.7880 C   0  0  0  0  0  0  0  0  0  0  0  0
  -21.1000   -6.6480   23.8740 C   0  0  0  0  0  3  0  0  0  0  0  0
  -20.9120   -5.9560   25.0870 C   0  0  0  0  0  3  0  0  0  0  0  0
  -21.3520   -4.6240   25.2110 C   0  0  0  0  0  0  0  0  0  0  0  0
  -21.9830   -3.9850   24.1300 C   0  0  0  0  0  3  0  0  0  0  0  0
  -22.1710   -4.6740   22.9200 C   0  0  0  0  0  0  0  0  0  0  0  0
  -22.7580   -4.0470   21.8730 F   0  0  0  0  0  0  0  0  0  0  0  0
  -21.1660   -3.9560   26.3730 F   0  0  0  0  0  0  0  0  0  0  0  0
  -22.7750  -13.2830   21.0330 C   0  0  0  0  0  0  0  0  0  0  0  0
  -22.1050  -12.5940   21.9500 N   0  0  0  0  0  0  0  0  0  0  0  0
  -22.2880  -14.2820   20.5060 O   0  0  0  0  0  0  0  0  0  0  0  0
  -22.5120  -11.7870   22.3970 H   0  0  0  0  0  0  0  0  0  0  0  0
  -21.1690  -12.8770   22.2060 H   0  0  0  0  0  0  0  0  0  0  0  0
  -25.3290  -14.9900   20.0570 N   0  0  0  0  0  0  0  0  0  0  0  0
  -24.5570  -15.6360   20.1790 H   0  0  0  0  0  0  0  0  0  0  0  0
  -26.1520  -15.4300   19.6640 H   0  0  0  0  0  0  0  0  0  0  0  0
  1 56  1  0
  1 55  1  0
  2  3  1  0
  3  1  1  0
  3  5  1  0
  4  2  2  0
  7  6  1  6
  7  2  1  0
  7 10  1  0
  8  7  1  0
  9  8  1  0
 10 11  1  0
 11 13  1  0
 12 23  2  0
 13 18  1  0
 14 22  1  0
 14 24  1  0
 15 21  1  0
 15 17  1  0
 16 22  1  0
 17 16  1  0
 18 17  2  0
 19 20  1  0
 19 13  2  0
 20 15  2  0
 21 14  1  0
 22 12  1  0
 24 26  2  0
 25 24  1  0
 27 25  1  0
 28 37  2  0
 28 33  1  0
 29 25  1  0
 29 33  1  0
 30 29  1  0
 31 32  1  0
 31 30  1  0
 32 28  1  0
 33 34  2  0
 34 35  1  0
 36 35  2  0
 37 36  1  0
 38 12  1  0
 38 43  1  0
 38 39  1  0
 39 42  1  1
 39 40  1  0
 41 39  1  0
 43 46  1  0
 44 48  1  0
 44 43  1  0
 45 44  2  0
 48 47  1  0
 50 48  1  0
 50 51  1  0
 50 49  1  0
 55 52  1  6
 55 53  1  0
 55 54  1  0
 57 69  1  0
 57 56  1  0
 58 73  1  0
 59 64  1  0
 60 61  1  0
 60 59  1  0
 62 61  1  0
 62 78  1  0
 62 63  1  0
 64 58  1  0
 64 63  1  0
 65 58  2  0
 66 70  1  0
 67 72  1  0
 68 66  2  0
 68 69  1  0
 69 67  2  0
 70 73  1  0
 70 72  2  0
 71 68  1  0
 73 74  1  0
 75 76  2  0
 76 95  1  0
 77 76  1  0
 77 80  1  0
 78 75  1  0
 78 79  1  0
 79 77  2  0
 80 81  1  0
 81 82  2  0
 83 86  1  0
 83 82  1  0
 84 83  2  0
 85 84  1  0
 85 80  2  0
 86 87  1  0
 87 92  2  0
 87 88  1  0
 88 89  2  0
 89 90  1  0
 90 94  1  0
 91 90  2  0
 92 91  1  0
 93 92  1  0
 95 96  1  0
 96 99  1  0
 96 98  1  0
 97 95  2  0
100101  1  0
100 75  1  0
102100  1  0
M  ISO  4  10 101  11 101  58 100  73 100
M  END
>  <TORSDO>  (5) 
F 23

>  <SCORE>  (5) 
-10.805

>  <name>  (5) 
4

>  <ligand_id>  (5) 
4

>  <original_smiles>  (5) 
[H]OC(C(=O)N([H])C([H])(C([H])([H])Oc1c([H])nc(N([H])C(=O)N2C([H])([H])C([H])([H])C([H])([H])C([H])(n3nc(-c4c([H])c([H])c(Oc5c([H])c([H])c(F)c([H])c5F)c([H])c4[H])c(C(=O)N([H])[H])c3N([H])[H])C2([H])[H])c([H])c1C([H])([H])[H])C(C([H])([H])[H])(C([H])([H])[H])C([H])([H])[H])(C([H])([H])[H])C([H])([H])Oc1c([H])c([H])c2c(c1[H])C([H])([H])N(C(=O)C([H])(N([H])C(=O)C([H])(N([H])C([H])([H])[H])C([H])([H])[H])C(C([H])([H])[H])(C([H])([H])[H])C([H])([H])[H])C([H])(C(=O)N([H])C1([H])c3c([H])c([H])c([H])c([H])c3C([H])([H])C([H])([H])C1([H])[H])C2([H])[H]

>  <smiles>  (5) 
[H]OC(C(=O)N([H])C([H])(C([H])([H])Oc1c([H])nc(N([H])C(=O)N2C([H])([H])C([H])([H])C([H])([H])C([H])(n3nc(-c4c([H])c([H])c(Oc5c([H])c([H])c(F)c([H])c5F)c([H])c4[H])c(C(=O)N([H])[H])c3N([H])[H])C2([H])[H])c([H])c1C([H])([H])[H])C(C([H])([H])[H])(C([H])([H])[H])C([H])([H])[H])(C([H])([H])[H])C([H])([H])Oc1c([H])c([H])c2c(c1[H])C([H])([H])N(C(=O)C([H])(N([H])C(=O)C([H])(N([H])C([H])([H])[H])C([H])([H])[H])C(C([H])([H])[H])(C([H])([H])[H])C([H])([H])[H])C([H])(C(=O)N([H])C1([H])c3c([H])c([H])c([H])c([H])c3C([H])([H])C([H])([H])C1([H])[H])C2([H])[H]

$$$$
5:0:0
     RDKit          3D

 97105  0  0  1  0  0  0  0  0999 V2000
  -29.3090  -22.6400   20.2600 C   0  0  0  0  0  0  0  0  0  0  0  0
  -29.6990  -21.5760   19.4820 N   0  0  0  0  0  0  0  0  0  0  0  0
  -29.0800  -22.5120   21.4640 O   0  0  0  0  0  0  0  0  0  0  0  0
  -29.8630  -21.8440   18.5220 H   0  0  0  0  0  0  0  0  0  0  0  0
  -30.3130  -19.5840   20.9800 C   0  0  0  0  0  3  0  0  0  0  0  0
  -29.6200  -19.2030   18.7180 C   0  0  0  0  0  3  0  0  0  0  0  0
  -30.4480  -18.1710   21.1900 C   0  0  0  0  0  0  0  0  0  0  0  0
  -29.8870  -20.1430   19.7500 C   0  0  0  0  0  0  0  0  0  0  0  0
  -30.1460  -17.2320   20.1430 C   0  0  0  0  0  0  0  0  0  0  0  0
  -29.7310  -17.7950   18.9050 C   0  0  0  0  0  0  0  0  0  0  0  0
  -29.3660  -16.9790   17.8850 F   0  0  0  0  0  0  0  0  0  0  0  0
  -30.8810  -14.7490   19.8900 C   0  0  0  0  0  0  0  0  0  0  0  0
  -30.6290  -12.4920   18.8810 C   0  0  0  0  0  2  0  0  0  0  0  0
  -29.6000  -12.5940   17.7310 C   0  0  0  0  0  2  0  0  0  0  0  0
  -28.1620  -12.4390   18.2610 C   0  0  0  0  0  2  0  0  0  0  0  0
  -27.8860  -13.3260   19.5030 C   0  0  0  0  0  3  0  0  0  0  0  0
  -29.0130  -13.1730   20.5500 C   0  0  0  0  0  2  0  0  0  0  0  0
  -30.2830  -13.5170   19.8880 N   0  0  0  0  0  0  0  0  0  0  0  0
  -32.0040  -14.9190   19.4050 O   0  0  0  0  0  0  0  0  0  0  0  0
  -30.1230  -15.7800   20.3730 N   0  0  0  0  0  0  0  0  0  0  0  0
  -29.3390  -15.4650   20.9270 H   0  0  0  0  0  0  0  0  0  0  0  0
  -25.5640  -13.9520   20.4100 C   0  0  0  0  0  0  0  0  0  0  0  0
  -24.5060  -13.1870   20.8250 C   0  0  0  0  0  0  0  0  0  0  0  0
  -24.9340  -11.8280   20.7100 C   0  0  0  0  0  0  0  0  0  0  0  0
  -26.5680  -13.0580   20.0720 N   0  0  0  0  0  0  0  0  0  0  0  0
  -26.1980  -11.7740   20.3110 N   0  0  0  0  0  0  0  0  0  0  0  0
  -24.1920  -10.5750   20.9030 C   0  0  0  0  0  0  0  0  0  0  0  0
  -24.6080   -9.6090   21.8460 C   0  0  0  0  0  3  0  0  0  0  0  0
  -23.8670   -8.4210   22.0260 C   0  0  0  0  0  3  0  0  0  0  0  0
  -22.6970   -8.1900   21.2640 C   0  0  0  0  0  0  0  0  0  0  0  0
  -22.3010   -9.1450   20.3110 C   0  0  0  0  0  3  0  0  0  0  0  0
  -23.0430  -10.3260   20.1280 C   0  0  0  0  0  3  0  0  0  0  0  0
  -21.9290   -7.0550   21.3540 O   0  0  0  0  0  0  0  0  0  0  0  0
  -21.7790   -6.3820   22.5410 C   0  0  0  0  0  0  0  0  0  0  0  0
  -21.2560   -7.0100   23.6930 C   0  0  0  0  0  3  0  0  0  0  0  0
  -21.0520   -6.2630   24.8700 C   0  0  0  0  0  3  0  0  0  0  0  0
  -21.3590   -4.8880   24.8950 C   0  0  0  0  0  0  0  0  0  0  0  0
  -21.8720   -4.2610   23.7450 C   0  0  0  0  0  3  0  0  0  0  0  0
  -22.0770   -5.0050   22.5720 C   0  0  0  0  0  0  0  0  0  0  0  0
  -22.5520   -4.3910   21.4610 F   0  0  0  0  0  0  0  0  0  0  0  0
  -21.1550   -4.1690   26.0220 F   0  0  0  0  0  0  0  0  0  0  0  0
  -23.1430  -13.6820   21.2140 C   0  0  0  0  0  0  0  0  0  0  0  0
  -22.4760  -12.9830   22.1260 N   0  0  0  0  0  0  0  0  0  0  0  0
  -22.6830  -14.7240   20.7470 O   0  0  0  0  0  0  0  0  0  0  0  0
  -22.8620  -12.1390   22.5220 H   0  0  0  0  0  0  0  0  0  0  0  0
  -21.5670  -13.2970   22.4340 H   0  0  0  0  0  0  0  0  0  0  0  0
  -25.7440  -15.3240   20.2710 N   0  0  0  0  0  0  0  0  0  0  0  0
  -24.9970  -15.9840   20.4550 H   0  0  0  0  0  0  0  0  0  0  0  0
  -26.5780  -15.7630   19.9000 H   0  0  0  0  0  0  0  0  0  0  0  0
  -30.8530  -17.7220   22.5590 C   0  0  0  0  0  0  0  0  0  0  0  0
  -31.7000  -18.6780   23.3940 C   0  0  0  0  0  1  0  0  0  0  0  0
  -30.5580  -16.6240   23.0430 O   0  0  0  0  0  0  0  0  0  0  0  0
  -28.2830  -23.9450   18.3330 C   0  0  0  0  0  1  0  0  0  0  0  0
  -30.5660  -24.5700   19.1880 C   0  0  0  0  0  1  0  0  0  0  0  0
  -29.1570  -24.0850   19.5970 C   0  0  2  0  0  0  0  0  0  0  0  0
  -28.4840  -25.1990   20.5390 C   0  0  0  0  0  2  0  0  0  0  0  0
  -28.5910  -26.6300   20.1730 O   0  0  0  0  0  0  0  0  0  0  0  0
  -24.7340  -31.9510   23.1710 C   0  0  0  0  0  0  0  0  0  0  0  0
  -27.4370  -27.4200   20.1740 C   0  0  0  0  0  0  0  0  0  0  0  0
  -23.5540  -30.5250   21.5290 C   0  0  0  0  0  3  0  0  0  0  0  0
  -25.0370  -28.9730   20.1340 C   0  0  0  0  0  0  0  0  0  0  0  0
  -26.0880  -30.8760   21.3620 C   0  0  0  0  0  2  0  0  0  0  0  0
  -26.1920  -29.4930   20.7340 C   0  0  0  0  0  0  0  0  0  0  0  0
  -27.3940  -28.7280   20.7410 C   0  0  0  0  0  3  0  0  0  0  0  0
  -26.2620  -26.9430   19.5550 C   0  0  0  0  0  3  0  0  0  0  0  0
  -25.0740  -27.7020   19.5370 C   0  0  0  0  0  3  0  0  0  0  0  0
  -23.7880  -29.8300   20.1610 C   0  0  0  0  0  2  0  0  0  0  0  0
  -24.8100  -31.1360   22.0780 N   0  0  0  0  0  0  0  0  0  0  0  0
  -23.6440  -32.2220   23.6970 O   0  0  0  0  0  0  0  0  0  0  0  0
  -22.8950  -29.5140   22.4960 C   0  0  0  0  0  0  0  0  0  0  0  0
  -21.5730  -29.3150   22.3550 N   0  0  0  0  0  0  0  0  0  0  0  0
  -23.5740  -28.9050   23.3260 O   0  0  0  0  0  0  0  0  0  0  0  0
  -21.0800  -29.8620   21.6630 H   0  0  0  0  0  0  0  0  0  0  0  0
  -18.2120  -28.0740   22.8170 C   0  0  0  0  0  0  0  0  0  0  0  0
  -20.7600  -28.3720   23.1240 C   0  0  0  0  0  3  0  0  0  0  0  0
  -20.8930  -26.9350   22.5700 C   0  0  0  0  0  2  0  0  0  0  0  0
  -19.8140  -26.5830   21.5420 C   0  0  0  0  0  2  0  0  0  0  0  0
  -18.4190  -26.7180   22.1620 C   0  0  0  0  0  2  0  0  0  0  0  0
  -19.3120  -28.8560   23.2560 C   0  0  0  0  0  0  0  0  0  0  0  0
  -19.0680  -30.1240   23.8250 C   0  0  0  0  0  3  0  0  0  0  0  0
  -17.7540  -30.6100   23.9670 C   0  0  0  0  0  3  0  0  0  0  0  0
  -16.6680  -29.8210   23.5510 C   0  0  0  0  0  3  0  0  0  0  0  0
  -16.8960  -28.5560   22.9790 C   0  0  0  0  0  3  0  0  0  0  0  0
  -26.0070  -32.6000   23.7960 C   0  0  0  0  0  3  0  0  0  0  0  0
  -26.5490  -31.8210   25.0580 C   0  0  1  0  0  0  0  0  0  0  0  0
  -25.4630  -31.5330   26.1210 C   0  0  0  0  0  1  0  0  0  0  0  0
  -27.1740  -30.4680   24.6380 C   0  0  0  0  0  1  0  0  0  0  0  0
  -27.6690  -32.6400   25.7430 C   0  0  0  0  0  1  0  0  0  0  0  0
  -25.6740  -33.9870   24.1480 N   0  0  0  0  0  0  0  0  0  0  0  0
  -25.9750  -35.0560   23.3990 C   0  0  0  0  0  0  0  0  0  0  0  0
  -26.6330  -34.9820   22.3570 O   0  0  0  0  0  0  0  0  0  0  0  0
  -25.0970  -34.1210   24.9650 H   0  0  0  0  0  0  0  0  0  0  0  0
  -24.2020  -36.8130   23.0990 C   0  0  0  0  0  1  0  0  0  0  0  0
  -25.4660  -36.4270   23.8830 C   0  0  0  0  0  3  0  0  0  0  0  0
  -27.5950  -37.3520   24.6830 C   0  0  0  0  0  1  0  0  0  0  0  0
  -26.4710  -37.5050   23.7650 N   0  0  0  0  0  0  0  0  0  0  0  0
  -26.0470  -38.4110   23.9380 H   0  0  0  0  0  0  0  0  0  0  0  0
  1  3  2  0
  2  8  1  0
  2  1  1  0
  4  2  1  0
  5  7  1  0
  6 10  2  0
  6  8  1  0
  7 50  1  0
  8  5  2  0
  9 20  1  0
  9  7  2  0
 10  9  1  0
 11 10  1  0
 12 20  1  0
 13 18  1  0
 14 15  1  0
 14 13  1  0
 16 15  1  0
 16 25  1  0
 16 17  1  0
 18 12  1  0
 18 17  1  0
 19 12  2  0
 20 21  1  0
 22 23  2  0
 23 42  1  0
 24 23  1  0
 24 27  1  0
 25 26  1  0
 25 22  1  0
 26 24  2  0
 27 28  1  0
 28 29  2  0
 30 33  1  0
 30 29  1  0
 31 30  2  0
 32 31  1  0
 32 27  2  0
 33 34  1  0
 34 39  2  0
 34 35  1  0
 35 36  2  0
 36 37  1  0
 37 41  1  0
 38 37  2  0
 39 38  1  0
 40 39  1  0
 42 43  1  0
 43 46  1  0
 43 45  1  0
 44 42  2  0
 47 22  1  0
 47 48  1  0
 49 47  1  0
 50 52  2  0
 50 51  1  0
 55 53  1  6
 54 55  1  0
 55  1  1  0
 55 56  1  0
 57 59  1  0
 57 56  1  0
 58 69  2  0
 59 64  1  0
 60 68  1  0
 60 70  1  0
 61 67  1  0
 61 63  1  0
 62 68  1  0
 63 64  2  0
 63 62  1  0
 65 59  2  0
 66 65  1  0
 66 61  2  0
 67 60  1  0
 68 58  1  0
 70 72  2  0
 71 70  1  0
 73 71  1  0
 74 83  2  0
 74 79  1  0
 75 71  1  0
 75 79  1  0
 76 75  1  0
 77 78  1  0
 77 76  1  0
 78 74  1  0
 79 80  2  0
 80 81  1  0
 82 81  2  0
 83 82  1  0
 84 58  1  0
 84 89  1  0
 84 85  1  0
 85 88  1  1
 85 86  1  0
 87 85  1  0
 89 92  1  0
 90 94  1  0
 90 89  1  0
 91 90  2  0
 94 93  1  0
 96 94  1  0
 96 97  1  0
 96 95  1  0
M  ISO  4  12 100  20 100  56 101  57 101
M  END
>  <TORSDO>  (6) 
F 20

>  <SCORE>  (6) 
-12.959

>  <name>  (6) 
5

>  <ligand_id>  (6) 
5

>  <original_smiles>  (6) 
[H]c1c([H])c([H])c2c(c1[H])C([H])([H])C([H])([H])C([H])([H])C2([H])N([H])C(=O)C1([H])N(C(=O)C([H])(N([H])C(=O)C([H])(N([H])C([H])([H])[H])C([H])([H])[H])C(C([H])([H])[H])(C([H])([H])[H])C([H])([H])[H])C([H])([H])c2c([H])c(OC([H])([H])C(C(=O)N([H])c3c([H])c(F)c(N([H])C(=O)N4C([H])([H])C([H])([H])C([H])([H])C([H])(n5nc(-c6c([H])c([H])c(Oc7c([H])c([H])c(F)c([H])c7F)c([H])c6[H])c(C(=O)N([H])[H])c5N([H])[H])C4([H])[H])c(C(=O)C([H])([H])[H])c3[H])(C([H])([H])[H])C([H])([H])[H])c([H])c([H])c2C1([H])[H]

>  <smiles>  (6) 
[H]c1c([H])c([H])c2c(c1[H])C([H])([H])C([H])([H])C([H])([H])C2([H])N([H])C(=O)C1([H])N(C(=O)C([H])(N([H])C(=O)C([H])(N([H])C([H])([H])[H])C([H])([H])[H])C(C([H])([H])[H])(C([H])([H])[H])C([H])([H])[H])C([H])([H])c2c([H])c(OC([H])([H])C(C(=O)N([H])c3c([H])c(F)c(N([H])C(=O)N4C([H])([H])C([H])([H])C([H])([H])C([H])(n5nc(-c6c([H])c([H])c(Oc7c([H])c([H])c(F)c([H])c7F)c([H])c6[H])c(C(=O)N([H])[H])c5N([H])[H])C4([H])[H])c(C(=O)C([H])([H])[H])c3[H])(C([H])([H])[H])C([H])([H])[H])c([H])c([H])c2C1([H])[H]

$$$$
6:0:0
     RDKit          3D

 97105  0  0  1  0  0  0  0  0999 V2000
  -29.3720  -21.6940   21.2730 C   0  0  0  0  0  0  0  0  0  0  0  0
  -29.2500  -20.3580   21.4290 N   0  0  0  0  0  0  0  0  0  0  0  0
  -30.2890  -22.2380   20.6550 O   0  0  0  0  0  0  0  0  0  0  0  0
  -28.3680  -20.0520   21.8110 H   0  0  0  0  0  0  0  0  0  0  0  0
  -29.7900  -17.9740   21.1060 C   0  0  0  0  0  3  0  0  0  0  0  0
  -31.5910  -19.6240   21.0220 C   0  0  0  0  0  3  0  0  0  0  0  0
  -32.0890  -17.2570   20.7610 C   0  0  0  0  0  3  0  0  0  0  0  0
  -30.2140  -19.3310   21.1640 C   0  0  0  0  0  0  0  0  0  0  0  0
  -30.7160  -16.9210   20.8760 C   0  0  0  0  0  0  0  0  0  0  0  0
  -32.5200  -18.5920   20.8180 C   0  0  0  0  0  0  0  0  0  0  0  0
  -33.8380  -18.8830   20.6880 F   0  0  0  0  0  0  0  0  0  0  0  0
  -30.8230  -14.5490   20.0980 C   0  0  0  0  0  0  0  0  0  0  0  0
  -30.4520  -12.3760   19.0050 C   0  0  0  0  0  2  0  0  0  0  0  0
  -29.4720  -12.5710   17.8300 C   0  0  0  0  0  2  0  0  0  0  0  0
  -28.0170  -12.4270   18.3150 C   0  0  0  0  0  2  0  0  0  0  0  0
  -27.7230  -13.2730   19.5830 C   0  0  0  0  0  3  0  0  0  0  0  0
  -28.8240  -13.0960   20.6540 C   0  0  0  0  0  2  0  0  0  0  0  0
  -30.1240  -13.3820   20.0270 N   0  0  0  0  0  0  0  0  0  0  0  0
  -31.8790  -14.7040   19.4810 O   0  0  0  0  0  0  0  0  0  0  0  0
  -30.2490  -15.5620   20.7840 N   0  0  0  0  0  0  0  0  0  0  0  0
  -29.3330  -15.3630   21.1600 H   0  0  0  0  0  0  0  0  0  0  0  0
  -25.3650  -13.8610   20.4200 C   0  0  0  0  0  0  0  0  0  0  0  0
  -24.3160  -13.0830   20.8330 C   0  0  0  0  0  0  0  0  0  0  0  0
  -24.7760  -11.7330   20.7590 C   0  0  0  0  0  0  0  0  0  0  0  0
  -26.3960  -12.9860   20.1230 N   0  0  0  0  0  0  0  0  0  0  0  0
  -26.0490  -11.6990   20.3840 N   0  0  0  0  0  0  0  0  0  0  0  0
  -24.0600  -10.4680   20.9720 C   0  0  0  0  0  0  0  0  0  0  0  0
  -24.4970   -9.5260   21.9300 C   0  0  0  0  0  3  0  0  0  0  0  0
  -23.7860   -8.3220   22.1290 C   0  0  0  0  0  3  0  0  0  0  0  0
  -22.6210   -8.0540   21.3700 C   0  0  0  0  0  0  0  0  0  0  0  0
  -22.2030   -8.9840   20.4020 C   0  0  0  0  0  3  0  0  0  0  0  0
  -22.9160  -10.1770   20.2020 C   0  0  0  0  0  3  0  0  0  0  0  0
  -21.8810   -6.9010   21.4760 O   0  0  0  0  0  0  0  0  0  0  0  0
  -21.7750   -6.2190   22.6620 C   0  0  0  0  0  0  0  0  0  0  0  0
  -21.2550   -6.8240   23.8260 C   0  0  0  0  0  3  0  0  0  0  0  0
  -21.0990   -6.0670   25.0030 C   0  0  0  0  0  3  0  0  0  0  0  0
  -21.4540   -4.7050   25.0180 C   0  0  0  0  0  0  0  0  0  0  0  0
  -21.9670   -4.0990   23.8580 C   0  0  0  0  0  3  0  0  0  0  0  0
  -22.1270   -4.8540   22.6830 C   0  0  0  0  0  0  0  0  0  0  0  0
  -22.6030   -4.2600   21.5620 F   0  0  0  0  0  0  0  0  0  0  0  0
  -21.2950   -3.9750   26.1460 F   0  0  0  0  0  0  0  0  0  0  0  0
  -22.9350  -13.5580   21.1790 C   0  0  0  0  0  0  0  0  0  0  0  0
  -22.2450  -12.8500   22.0660 N   0  0  0  0  0  0  0  0  0  0  0  0
  -22.4760  -14.5910   20.6980 O   0  0  0  0  0  0  0  0  0  0  0  0
  -22.6270  -12.0140   22.4820 H   0  0  0  0  0  0  0  0  0  0  0  0
  -21.3200  -13.1570   22.3360 H   0  0  0  0  0  0  0  0  0  0  0  0
  -25.5210  -15.2350   20.2560 N   0  0  0  0  0  0  0  0  0  0  0  0
  -24.7600  -15.8900   20.3980 H   0  0  0  0  0  0  0  0  0  0  0  0
  -26.3510  -15.6700   19.8740 H   0  0  0  0  0  0  0  0  0  0  0  0
  -28.2810  -22.5680   21.9160 C   0  0  0  0  0  2  0  0  0  0  0  0
  -26.1410  -23.8870   21.7930 C   0  0  0  0  0  1  0  0  0  0  0  0
  -26.6750  -22.3410   19.9270 C   0  0  0  0  0  1  0  0  0  0  0  0
  -27.3110  -23.3200   20.9500 C   0  0  2  0  0  0  0  0  0  0  0  0
  -28.0240  -24.4930   20.2080 C   0  0  0  0  0  0  0  0  0  0  0  0
  -28.2550  -24.4210   18.9960 O   0  0  0  0  0  0  0  0  0  0  0  0
  -28.4450  -25.7560   20.9950 C   0  0  0  0  0  2  0  0  0  0  0  0
  -28.4870  -26.9270   20.1590 O   0  0  0  0  0  0  0  0  0  0  0  0
  -24.6060  -31.9740   23.3180 C   0  0  0  0  0  0  0  0  0  0  0  0
  -27.3190  -27.6490   20.1590 C   0  0  0  0  0  0  0  0  0  0  0  0
  -23.4220  -30.5900   21.6410 C   0  0  0  0  0  3  0  0  0  0  0  0
  -24.9020  -29.1050   20.1890 C   0  0  0  0  0  0  0  0  0  0  0  0
  -25.9390  -30.9960   21.4550 C   0  0  0  0  0  2  0  0  0  0  0  0
  -26.0480  -29.6390   20.7920 C   0  0  0  0  0  0  0  0  0  0  0  0
  -27.2620  -28.9190   20.7720 C   0  0  0  0  0  3  0  0  0  0  0  0
  -26.1630  -27.1270   19.5400 C   0  0  0  0  0  3  0  0  0  0  0  0
  -24.9540  -27.8500   19.5560 C   0  0  0  0  0  3  0  0  0  0  0  0
  -23.6450  -29.9420   20.2460 C   0  0  0  0  0  2  0  0  0  0  0  0
  -24.6740  -31.2000   22.1970 N   0  0  0  0  0  0  0  0  0  0  0  0
  -23.5220  -32.2200   23.8620 O   0  0  0  0  0  0  0  0  0  0  0  0
  -22.7860  -29.5380   22.5790 C   0  0  0  0  0  0  0  0  0  0  0  0
  -21.4700  -29.3200   22.4250 N   0  0  0  0  0  0  0  0  0  0  0  0
  -23.4740  -28.9220   23.3970 O   0  0  0  0  0  0  0  0  0  0  0  0
  -20.9770  -29.8680   21.7340 H   0  0  0  0  0  0  0  0  0  0  0  0
  -18.1250  -28.0160   22.8360 C   0  0  0  0  0  0  0  0  0  0  0  0
  -20.6670  -28.3510   23.1690 C   0  0  0  0  0  3  0  0  0  0  0  0
  -20.8260  -26.9280   22.5840 C   0  0  0  0  0  2  0  0  0  0  0  0
  -19.7590  -26.5810   21.5410 C   0  0  0  0  0  2  0  0  0  0  0  0
  -18.3580  -26.6790   22.1530 C   0  0  0  0  0  2  0  0  0  0  0  0
  -19.2100  -28.8090   23.2990 C   0  0  0  0  0  0  0  0  0  0  0  0
  -18.9400  -30.0610   23.8910 C   0  0  0  0  0  3  0  0  0  0  0  0
  -17.6170  -30.5220   24.0290 C   0  0  0  0  0  3  0  0  0  0  0  0
  -16.5450  -29.7270   23.5850 C   0  0  0  0  0  3  0  0  0  0  0  0
  -16.8010  -28.4780   22.9930 C   0  0  0  0  0  3  0  0  0  0  0  0
  -25.8830  -32.6080   23.9520 C   0  0  0  0  0  3  0  0  0  0  0  0
  -25.5710  -34.0080   24.2730 N   0  0  0  0  0  0  0  0  0  0  0  0
  -25.9060  -35.0560   23.5080 C   0  0  0  0  0  0  0  0  0  0  0  0
  -26.5860  -34.9470   22.4840 O   0  0  0  0  0  0  0  0  0  0  0  0
  -24.9740  -34.1650   25.0730 H   0  0  0  0  0  0  0  0  0  0  0  0
  -24.1720  -36.8340   23.1230 C   0  0  0  0  0  1  0  0  0  0  0  0
  -25.4090  -36.4460   23.9480 C   0  0  0  0  0  3  0  0  0  0  0  0
  -27.5330  -37.3480   24.7890 C   0  0  0  0  0  1  0  0  0  0  0  0
  -26.4380  -37.5020   23.8340 N   0  0  0  0  0  0  0  0  0  0  0  0
  -26.0280  -38.4230   23.9700 H   0  0  0  0  0  0  0  0  0  0  0  0
  -26.3860  -31.8420   25.2370 C   0  0  1  0  0  0  0  0  0  0  0  0
  -25.2770  -31.5890   26.2850 C   0  0  0  0  0  1  0  0  0  0  0  0
  -26.9930  -30.4740   24.8510 C   0  0  0  0  0  1  0  0  0  0  0  0
  -27.5130  -32.6500   25.9250 C   0  0  0  0  0  1  0  0  0  0  0  0
  1  2  1  0
  1 50  1  0
  2  4  1  0
  3  1  2  0
  5  8  1  0
  6  8  2  0
  7 10  2  0
  7  9  1  0
  8  2  1  0
  9  5  2  0
 10  6  1  0
 11 10  1  0
 12 20  1  0
 13 18  1  0
 14 15  1  0
 14 13  1  0
 16 15  1  0
 16 25  1  0
 16 17  1  0
 18 12  1  0
 18 17  1  0
 19 12  2  0
 20  9  1  0
 20 21  1  0
 22 23  2  0
 23 42  1  0
 24 23  1  0
 24 27  1  0
 25 26  1  0
 25 22  1  0
 26 24  2  0
 27 28  1  0
 28 29  2  0
 30 33  1  0
 30 29  1  0
 31 30  2  0
 32 31  1  0
 32 27  2  0
 33 34  1  0
 34 39  2  0
 34 35  1  0
 35 36  2  0
 36 37  1  0
 37 41  1  0
 38 37  2  0
 39 38  1  0
 40 39  1  0
 42 43  1  0
 43 46  1  0
 43 45  1  0
 44 42  2  0
 47 48  1  0
 47 22  1  0
 49 47  1  0
 53 52  1  6
 53 51  1  0
 53 50  1  0
 54 53  1  0
 54 56  1  0
 55 54  2  0
 57 59  1  0
 57 56  1  0
 58 69  2  0
 59 64  1  0
 60 68  1  0
 60 70  1  0
 61 67  1  0
 61 63  1  0
 62 68  1  0
 63 62  1  0
 64 63  2  0
 65 66  1  0
 65 59  2  0
 66 61  2  0
 67 60  1  0
 68 58  1  0
 70 72  2  0
 71 70  1  0
 73 71  1  0
 74 83  2  0
 74 79  1  0
 75 71  1  0
 75 79  1  0
 76 75  1  0
 77 78  1  0
 77 76  1  0
 78 74  1  0
 79 80  2  0
 80 81  1  0
 82 81  2  0
 83 82  1  0
 84 58  1  0
 84 85  1  0
 84 94  1  0
 85 88  1  0
 86 90  1  0
 86 85  1  0
 87 86  2  0
 90 89  1  0
 92 90  1  0
 92 93  1  0
 92 91  1  0
 94 97  1  1
 94 95  1  0
 96 94  1  0
M  ISO  4  12 100  20 100  56 101  57 101
M  END
>  <TORSDO>  (7) 
F 21

>  <SCORE>  (7) 
-13.793

>  <name>  (7) 
6

>  <ligand_id>  (7) 
6

>  <original_smiles>  (7) 
[H]c1c([H])c([H])c2c(c1[H])C([H])([H])C([H])([H])C([H])([H])C2([H])N([H])C(=O)C1([H])N(C(=O)C([H])(N([H])C(=O)C([H])(N([H])C([H])([H])[H])C([H])([H])[H])C(C([H])([H])[H])(C([H])([H])[H])C([H])([H])[H])C([H])([H])c2c([H])c(OC([H])([H])C(=O)C(C([H])([H])[H])(C([H])([H])[H])C([H])([H])C(=O)N([H])c3c([H])c(F)c([H])c(N([H])C(=O)N4C([H])([H])C([H])([H])C([H])([H])C([H])(n5nc(-c6c([H])c([H])c(Oc7c([H])c([H])c(F)c([H])c7F)c([H])c6[H])c(C(=O)N([H])[H])c5N([H])[H])C4([H])[H])c3[H])c([H])c([H])c2C1([H])[H]

>  <smiles>  (7) 
[H]c1c([H])c([H])c2c(c1[H])C([H])([H])C([H])([H])C([H])([H])C2([H])N([H])C(=O)C1([H])N(C(=O)C([H])(N([H])C(=O)C([H])(N([H])C([H])([H])[H])C([H])([H])[H])C(C([H])([H])[H])(C([H])([H])[H])C([H])([H])[H])C([H])([H])c2c([H])c(OC([H])([H])C(=O)C(C([H])([H])[H])(C([H])([H])[H])C([H])([H])C(=O)N([H])c3c([H])c(F)c([H])c(N([H])C(=O)N4C([H])([H])C([H])([H])C([H])([H])C([H])(n5nc(-c6c([H])c([H])c(Oc7c([H])c([H])c(F)c([H])c7F)c([H])c6[H])c(C(=O)N([H])[H])c5N([H])[H])C4([H])[H])c3[H])c([H])c([H])c2C1([H])[H]

$$$$
7:0:0
     RDKit          3D

 95103  0  0  1  0  0  0  0  0999 V2000
  -29.2630  -22.8600   19.6650 C   0  0  0  0  0  0  0  0  0  0  0  0
  -29.7870  -21.7810   20.3050 N   0  0  0  0  0  0  0  0  0  0  0  0
  -28.6480  -22.7490   18.6000 O   0  0  0  0  0  0  0  0  0  0  0  0
  -30.1460  -21.9680   21.2310 H   0  0  0  0  0  0  0  0  0  0  0  0
  -30.3310  -17.7410   18.9600 C   0  0  0  0  0  3  0  0  0  0  0  0
  -30.0280  -20.1130   18.4570 C   0  0  0  0  0  3  0  0  0  0  0  0
  -30.0450  -19.3550   20.7660 C   0  0  0  0  0  3  0  0  0  0  0  0
  -30.2270  -18.7860   18.0230 C   0  0  0  0  0  0  0  0  0  0  0  0
  -30.2470  -18.0090   20.3430 C   0  0  0  0  0  0  0  0  0  0  0  0
  -29.9240  -20.4240   19.8350 C   0  0  0  0  0  0  0  0  0  0  0  0
  -30.3640  -18.4930   16.5430 C   0  0  0  0  0  1  0  0  0  0  0  0
  -30.4510  -16.8830   21.3730 C   0  0  0  0  0  2  0  0  0  0  0  0
  -30.6740  -14.5150   20.4760 C   0  0  0  0  0  0  0  0  0  0  0  0
  -30.3700  -12.3650   19.2950 C   0  0  0  0  0  2  0  0  0  0  0  0
  -29.4260  -12.5650   18.0930 C   0  0  0  0  0  2  0  0  0  0  0  0
  -27.9500  -12.4360   18.5200 C   0  0  0  0  0  2  0  0  0  0  0  0
  -27.6160  -13.2700   19.7860 C   0  0  0  0  0  3  0  0  0  0  0  0
  -28.6700  -13.0390   20.8920 C   0  0  0  0  0  2  0  0  0  0  0  0
  -29.9940  -13.3450   20.3250 N   0  0  0  0  0  0  0  0  0  0  0  0
  -31.8130  -14.6880   20.0340 O   0  0  0  0  0  0  0  0  0  0  0  0
  -29.9730  -15.5300   21.0220 N   0  0  0  0  0  0  0  0  0  0  0  0
  -29.0290  -15.3050   21.3000 H   0  0  0  0  0  0  0  0  0  0  0  0
  -25.2190  -13.8910   20.4820 C   0  0  0  0  0  0  0  0  0  0  0  0
  -24.1460  -13.1260   20.8540 C   0  0  0  0  0  0  0  0  0  0  0  0
  -24.6030  -11.7720   20.8370 C   0  0  0  0  0  0  0  0  0  0  0  0
  -26.2620  -13.0030   20.2630 N   0  0  0  0  0  0  0  0  0  0  0  0
  -25.8950  -11.7260   20.5350 N   0  0  0  0  0  0  0  0  0  0  0  0
  -23.8720  -10.5140   21.0350 C   0  0  0  0  0  0  0  0  0  0  0  0
  -24.3100   -9.5450   21.9640 C   0  0  0  0  0  3  0  0  0  0  0  0
  -23.5810   -8.3500   22.1510 C   0  0  0  0  0  3  0  0  0  0  0  0
  -22.4000   -8.1170   21.4070 C   0  0  0  0  0  0  0  0  0  0  0  0
  -21.9820   -9.0740   20.4660 C   0  0  0  0  0  3  0  0  0  0  0  0
  -22.7100  -10.2610   20.2780 C   0  0  0  0  0  3  0  0  0  0  0  0
  -21.6430   -6.9740   21.5020 O   0  0  0  0  0  0  0  0  0  0  0  0
  -21.6120   -6.2220   22.6490 C   0  0  0  0  0  0  0  0  0  0  0  0
  -21.2280   -6.7730   23.8920 C   0  0  0  0  0  3  0  0  0  0  0  0
  -21.1440   -5.9500   25.0310 C   0  0  0  0  0  3  0  0  0  0  0  0
  -21.4350   -4.5760   24.9320 C   0  0  0  0  0  0  0  0  0  0  0  0
  -21.8130   -4.0240   23.6960 C   0  0  0  0  0  3  0  0  0  0  0  0
  -21.8990   -4.8460   22.5570 C   0  0  0  0  0  0  0  0  0  0  0  0
  -22.2430   -4.3050   21.3630 F   0  0  0  0  0  0  0  0  0  0  0  0
  -21.3480   -3.7830   26.0250 F   0  0  0  0  0  0  0  0  0  0  0  0
  -22.7490  -13.6080   21.1140 C   0  0  0  0  0  0  0  0  0  0  0  0
  -22.0160  -12.9220   21.9830 N   0  0  0  0  0  0  0  0  0  0  0  0
  -22.3160  -14.6280   20.5800 O   0  0  0  0  0  0  0  0  0  0  0  0
  -22.3820  -12.0970   22.4360 H   0  0  0  0  0  0  0  0  0  0  0  0
  -21.0770  -13.2230   22.2000 H   0  0  0  0  0  0  0  0  0  0  0  0
  -25.3920  -15.2580   20.2910 N   0  0  0  0  0  0  0  0  0  0  0  0
  -24.6300  -15.9210   20.3780 H   0  0  0  0  0  0  0  0  0  0  0  0
  -26.2460  -15.6840   19.9500 H   0  0  0  0  0  0  0  0  0  0  0  0
  -30.7810  -24.8560   19.8250 C   0  0  0  0  0  1  0  0  0  0  0  0
  -29.3920  -24.2180   21.8370 C   0  0  0  0  0  1  0  0  0  0  0  0
  -29.4260  -24.2890   20.2940 C   0  0  2  0  0  0  0  0  0  0  0  0
  -28.2730  -25.2410   19.8110 C   0  0  0  0  0  2  0  0  0  0  0  0
  -28.3650  -26.6400   20.1930 O   0  0  0  0  0  0  0  0  0  0  0  0
  -24.5910  -31.8890   23.2330 C   0  0  0  0  0  0  0  0  0  0  0  0
  -27.2030  -27.4040   20.1440 C   0  0  0  0  0  0  0  0  0  0  0  0
  -23.3730  -30.4930   21.5970 C   0  0  0  0  0  3  0  0  0  0  0  0
  -24.8140  -28.9520   20.1620 C   0  0  0  0  0  0  0  0  0  0  0  0
  -25.9030  -30.8320   21.3920 C   0  0  0  0  0  2  0  0  0  0  0  0
  -25.9800  -29.4590   20.7480 C   0  0  0  0  0  0  0  0  0  0  0  0
  -27.1750  -28.6940   20.7360 C   0  0  0  0  0  3  0  0  0  0  0  0
  -26.0140  -26.9320   19.5340 C   0  0  0  0  0  3  0  0  0  0  0  0
  -24.8290  -27.6880   19.5510 C   0  0  0  0  0  3  0  0  0  0  0  0
  -23.5730  -29.8160   20.2160 C   0  0  0  0  0  2  0  0  0  0  0  0
  -24.6410  -31.0870   22.1310 N   0  0  0  0  0  0  0  0  0  0  0  0
  -23.5130  -32.1640   23.7780 O   0  0  0  0  0  0  0  0  0  0  0  0
  -22.7210  -29.4730   22.5590 C   0  0  0  0  0  0  0  0  0  0  0  0
  -21.3960  -29.2930   22.4370 N   0  0  0  0  0  0  0  0  0  0  0  0
  -23.4050  -28.8480   23.3730 O   0  0  0  0  0  0  0  0  0  0  0  0
  -20.9040  -29.8520   21.7540 H   0  0  0  0  0  0  0  0  0  0  0  0
  -18.0210  -28.1000   22.9410 C   0  0  0  0  0  0  0  0  0  0  0  0
  -20.5800  -28.3570   23.2100 C   0  0  0  0  0  3  0  0  0  0  0  0
  -20.6800  -26.9240   22.6370 C   0  0  0  0  0  2  0  0  0  0  0  0
  -19.5770  -26.5990   21.6250 C   0  0  0  0  0  2  0  0  0  0  0  0
  -18.1970  -26.7480   22.2700 C   0  0  0  0  0  2  0  0  0  0  0  0
  -19.1410  -28.8620   23.3680 C   0  0  0  0  0  0  0  0  0  0  0  0
  -18.9230  -30.1280   23.9550 C   0  0  0  0  0  3  0  0  0  0  0  0
  -17.6200  -30.6320   24.1200 C   0  0  0  0  0  3  0  0  0  0  0  0
  -16.5150  -29.8660   23.7080 C   0  0  0  0  0  3  0  0  0  0  0  0
  -16.7160  -28.6030   23.1250 C   0  0  0  0  0  3  0  0  0  0  0  0
  -25.8810  -32.5160   23.8460 C   0  0  0  0  0  3  0  0  0  0  0  0
  -26.4050  -31.7400   25.1170 C   0  0  1  0  0  0  0  0  0  0  0  0
  -25.3210  -31.5040   26.1930 C   0  0  0  0  0  1  0  0  0  0  0  0
  -26.9820  -30.3620   24.7160 C   0  0  0  0  0  1  0  0  0  0  0  0
  -27.5610  -32.5320   25.7730 C   0  0  0  0  0  1  0  0  0  0  0  0
  -25.5750  -33.9140   24.1810 N   0  0  0  0  0  0  0  0  0  0  0  0
  -25.9080  -34.9680   23.4240 C   0  0  0  0  0  0  0  0  0  0  0  0
  -26.5760  -34.8670   22.3920 O   0  0  0  0  0  0  0  0  0  0  0  0
  -24.9800  -34.0660   24.9820 H   0  0  0  0  0  0  0  0  0  0  0  0
  -24.1830  -36.7670   23.0750 C   0  0  0  0  0  1  0  0  0  0  0  0
  -25.4230  -36.3570   23.8850 C   0  0  0  0  0  3  0  0  0  0  0  0
  -27.5620  -37.2310   24.7170 C   0  0  0  0  0  1  0  0  0  0  0  0
  -26.4590  -37.4080   23.7760 N   0  0  0  0  0  0  0  0  0  0  0  0
  -26.0560  -38.3280   23.9280 H   0  0  0  0  0  0  0  0  0  0  0  0
  1 53  1  0
  1  2  1  0
  2  4  1  0
  3  1  2  0
  5  9  1  0
  6 10  2  0
  8  6  1  0
  8  5  2  0
  9  7  2  0
  9 12  1  0
 10  2  1  0
 10  7  1  0
 11  8  1  0
 13 21  1  0
 14 19  1  0
 15 16  1  0
 15 14  1  0
 17 16  1  0
 17 26  1  0
 17 18  1  0
 19 13  1  0
 19 18  1  0
 20 13  2  0
 21 22  1  0
 21 12  1  0
 23 24  2  0
 24 43  1  0
 25 24  1  0
 25 28  1  0
 26 23  1  0
 26 27  1  0
 27 25  2  0
 28 29  1  0
 29 30  2  0
 31 34  1  0
 31 30  1  0
 32 31  2  0
 33 32  1  0
 33 28  2  0
 34 35  1  0
 35 36  1  0
 36 37  2  0
 38 37  1  0
 38 42  1  0
 39 38  2  0
 40 35  2  0
 40 39  1  0
 41 40  1  0
 43 44  1  0
 44 47  1  0
 44 46  1  0
 45 43  2  0
 48 49  1  0
 48 23  1  0
 50 48  1  0
 53 51  1  1
 53 52  1  0
 54 55  1  0
 54 53  1  0
 56 67  2  0
 57 55  1  0
 57 62  1  0
 58 66  1  0
 58 68  1  0
 59 65  1  0
 59 61  1  0
 60 66  1  0
 61 60  1  0
 62 61  2  0
 63 64  1  0
 63 57  2  0
 64 59  2  0
 65 58  1  0
 66 56  1  0
 68 70  2  0
 69 68  1  0
 71 69  1  0
 72 81  2  0
 72 77  1  0
 73 69  1  0
 73 77  1  0
 74 73  1  0
 75 76  1  0
 75 74  1  0
 76 72  1  0
 77 78  2  0
 78 79  1  0
 80 79  2  0
 81 80  1  0
 82 56  1  0
 82 87  1  0
 82 83  1  0
 83 86  1  1
 83 84  1  0
 85 83  1  0
 87 90  1  0
 88 92  1  0
 88 87  1  0
 89 88  2  0
 92 91  1  0
 94 92  1  0
 94 95  1  0
 94 93  1  0
M  ISO  4  13 100  21 100  54 101  55 101
M  END
>  <TORSDO>  (8) 
F 20

>  <SCORE>  (8) 
-14.102

>  <name>  (8) 
7

>  <ligand_id>  (8) 
7

>  <original_smiles>  (8) 
[H]c1c([H])c([H])c2c(c1[H])C([H])([H])C([H])([H])C([H])([H])C2([H])N([H])C(=O)C1([H])N(C(=O)C([H])(N([H])C(=O)C([H])(N([H])C([H])([H])[H])C([H])([H])[H])C(C([H])([H])[H])(C([H])([H])[H])C([H])([H])[H])C([H])([H])c2c([H])c(OC([H])([H])C(C(=O)N([H])c3c([H])c(C([H])([H])[H])c([H])c(C([H])([H])N([H])C(=O)N4C([H])([H])C([H])([H])C([H])([H])C([H])(n5nc(-c6c([H])c([H])c(Oc7c([H])c([H])c(F)c([H])c7F)c([H])c6[H])c(C(=O)N([H])[H])c5N([H])[H])C4([H])[H])c3[H])(C([H])([H])[H])C([H])([H])[H])c([H])c([H])c2C1([H])[H]

>  <smiles>  (8) 
[H]c1c([H])c([H])c2c(c1[H])C([H])([H])C([H])([H])C([H])([H])C2([H])N([H])C(=O)C1([H])N(C(=O)C([H])(N([H])C(=O)C([H])(N([H])C([H])([H])[H])C([H])([H])[H])C(C([H])([H])[H])(C([H])([H])[H])C([H])([H])[H])C([H])([H])c2c([H])c(OC([H])([H])C(C(=O)N([H])c3c([H])c(C([H])([H])[H])c([H])c(C([H])([H])N([H])C(=O)N4C([H])([H])C([H])([H])C([H])([H])C([H])(n5nc(-c6c([H])c([H])c(Oc7c([H])c([H])c(F)c([H])c7F)c([H])c6[H])c(C(=O)N([H])[H])c5N([H])[H])C4([H])[H])c3[H])(C([H])([H])[H])C([H])([H])[H])c([H])c([H])c2C1([H])[H]

$$$$
8:0:0
     RDKit          3D

 99107  0  0  1  0  0  0  0  0999 V2000
  -30.2470  -20.5180   20.8520 C   0  0  0  0  0  0  0  0  0  0  0  0
  -29.7390  -23.0230   20.7390 C   0  0  0  0  0  0  0  0  0  0  0  0
  -29.6480  -21.6270   20.2910 N   0  0  0  0  0  0  0  0  0  0  0  0
  -31.1230  -20.6670   21.8550 N   0  0  0  0  0  4  0  0  0  0  0  0
  -30.2620  -23.2890   21.8280 O   0  0  0  0  0  0  0  0  0  0  0  0
  -29.1350  -21.3910   19.4550 H   0  0  0  0  0  0  0  0  0  0  0  0
  -31.5360  -19.8730   22.3190 H   0  0  0  0  0  0  0  0  0  0  0  0
  -31.2420  -21.5980   22.2420 H   0  0  0  0  0  0  0  0  0  0  0  0
  -28.6720  -18.9490   19.7890 C   0  0  0  0  0  3  0  0  0  0  0  0
  -30.6660  -17.9300   20.7830 C   0  0  0  0  0  3  0  0  0  0  0  0
  -28.9190  -16.5260   19.8160 C   0  0  0  0  0  3  0  0  0  0  0  0
  -29.9070  -19.1140   20.4470 C   0  0  0  0  0  0  0  0  0  0  0  0
  -28.1730  -17.6730   19.4880 C   0  0  0  0  0  0  0  0  0  0  0  0
  -30.1720  -16.6150   20.4710 C   0  0  0  0  0  0  0  0  0  0  0  0
  -31.2770  -14.2980   20.2810 C   0  0  0  0  0  0  0  0  0  0  0  0
  -31.0350  -11.9160   19.5870 C   0  0  0  0  0  2  0  0  0  0  0  0
  -30.1560  -11.8660   18.3170 C   0  0  0  0  0  2  0  0  0  0  0  0
  -28.6550  -11.8450   18.6710 C   0  0  0  0  0  2  0  0  0  0  0  0
  -28.2730  -12.9070   19.7340 C   0  0  0  0  0  3  0  0  0  0  0  0
  -29.2690  -12.8910   20.9160 C   0  0  0  0  0  2  0  0  0  0  0  0
  -30.6290  -13.0930   20.3780 N   0  0  0  0  0  0  0  0  0  0  0  0
  -32.3590  -14.4150   19.6950 O   0  0  0  0  0  0  0  0  0  0  0  0
  -30.6810  -15.3330   20.9270 N   0  0  0  0  0  0  0  0  0  0  0  0
  -30.0510  -14.9290   21.6030 H   0  0  0  0  0  0  0  0  0  0  0  0
  -25.9190  -13.7340   20.3490 C   0  0  0  0  0  0  0  0  0  0  0  0
  -24.7850  -13.0820   20.7440 C   0  0  0  0  0  0  0  0  0  0  0  0
  -25.1220  -11.6950   20.7730 C   0  0  0  0  0  0  0  0  0  0  0  0
  -26.8900  -12.7590   20.1850 N   0  0  0  0  0  0  0  0  0  0  0  0
  -26.4100  -11.5260   20.4870 N   0  0  0  0  0  0  0  0  0  0  0  0
  -24.2770  -10.5160   20.9910 C   0  0  0  0  0  0  0  0  0  0  0  0
  -24.6500   -9.5020   21.9000 C   0  0  0  0  0  3  0  0  0  0  0  0
  -23.8150   -8.3850   22.1090 C   0  0  0  0  0  3  0  0  0  0  0  0
  -22.5900   -8.2730   21.4100 C   0  0  0  0  0  0  0  0  0  0  0  0
  -22.2340   -9.2730   20.4870 C   0  0  0  0  0  3  0  0  0  0  0  0
  -23.0700  -10.3820   20.2780 C   0  0  0  0  0  3  0  0  0  0  0  0
  -21.7280   -7.2100   21.5330 O   0  0  0  0  0  0  0  0  0  0  0  0
  -21.7000   -6.4300   22.6600 C   0  0  0  0  0  0  0  0  0  0  0  0
  -21.4610   -6.9780   23.9400 C   0  0  0  0  0  3  0  0  0  0  0  0
  -21.3720   -6.1300   25.0620 C   0  0  0  0  0  3  0  0  0  0  0  0
  -21.5060   -4.7370   24.9060 C   0  0  0  0  0  0  0  0  0  0  0  0
  -21.7350   -4.1910   23.6300 C   0  0  0  0  0  3  0  0  0  0  0  0
  -21.8270   -5.0350   22.5110 C   0  0  0  0  0  0  0  0  0  0  0  0
  -22.0270   -4.5000   21.2830 F   0  0  0  0  0  0  0  0  0  0  0  0
  -21.4120   -3.9210   25.9820 F   0  0  0  0  0  0  0  0  0  0  0  0
  -23.4350  -13.7000   20.9750 C   0  0  0  0  0  0  0  0  0  0  0  0
  -22.6380  -13.1260   21.8670 N   0  0  0  0  0  0  0  0  0  0  0  0
  -23.0960  -14.7290   20.3910 O   0  0  0  0  0  0  0  0  0  0  0  0
  -22.9240  -12.2980   22.3700 H   0  0  0  0  0  0  0  0  0  0  0  0
  -21.7280  -13.5240   22.0520 H   0  0  0  0  0  0  0  0  0  0  0  0
  -26.1930  -15.0700   20.0910 N   0  0  0  0  0  0  0  0  0  0  0  0
  -25.4190  -15.7230   20.0470 H   0  0  0  0  0  0  0  0  0  0  0  0
  -26.9930  -15.3720   19.5530 H   0  0  0  0  0  0  0  0  0  0  0  0
  -25.7080  -17.6440   20.0140 C   0  0  0  0  0  1  0  0  0  0  0  0
  -26.7710  -17.5550   18.9120 C   0  0  0  0  0  2  0  0  0  0  0  0
  -28.6860  -23.6940   18.4580 C   0  0  0  0  0  1  0  0  0  0  0  0
  -30.5290  -25.0370   19.4970 C   0  0  0  0  0  1  0  0  0  0  0  0
  -29.2540  -24.2000   19.8040 C   0  0  2  0  0  0  0  0  0  0  0  0
  -28.1900  -25.1350   20.5090 C   0  0  0  0  0  2  0  0  0  0  0  0
  -28.2480  -26.5450   20.1370 O   0  0  0  0  0  0  0  0  0  0  0  0
  -24.5090  -31.8090   23.2320 C   0  0  0  0  0  0  0  0  0  0  0  0
  -27.0800  -27.2950   20.1630 C   0  0  0  0  0  0  0  0  0  0  0  0
  -23.2790  -30.4290   21.5880 C   0  0  0  0  0  3  0  0  0  0  0  0
  -24.7080  -28.8580   20.1650 C   0  0  0  0  0  0  0  0  0  0  0  0
  -25.8110  -30.7380   21.3910 C   0  0  0  0  0  2  0  0  0  0  0  0
  -25.8760  -29.3620   20.7530 C   0  0  0  0  0  0  0  0  0  0  0  0
  -27.0650  -28.5900   20.7430 C   0  0  0  0  0  3  0  0  0  0  0  0
  -25.8950  -26.8130   19.5640 C   0  0  0  0  0  3  0  0  0  0  0  0
  -24.7160  -27.5870   19.5630 C   0  0  0  0  0  3  0  0  0  0  0  0
  -23.4770  -29.7390   20.2100 C   0  0  0  0  0  2  0  0  0  0  0  0
  -24.5520  -31.0070   22.1290 N   0  0  0  0  0  0  0  0  0  0  0  0
  -23.4330  -32.1020   23.7730 O   0  0  0  0  0  0  0  0  0  0  0  0
  -22.6100  -29.4220   22.5520 C   0  0  0  0  0  0  0  0  0  0  0  0
  -21.2810  -29.2640   22.4270 N   0  0  0  0  0  0  0  0  0  0  0  0
  -23.2830  -28.7870   23.3680 O   0  0  0  0  0  0  0  0  0  0  0  0
  -20.8030  -29.8200   21.7310 H   0  0  0  0  0  0  0  0  0  0  0  0
  -17.8920  -28.1280   22.9400 C   0  0  0  0  0  0  0  0  0  0  0  0
  -20.4530  -28.3410   23.2010 C   0  0  0  0  0  3  0  0  0  0  0  0
  -20.5310  -26.9120   22.6200 C   0  0  0  0  0  2  0  0  0  0  0  0
  -19.4210  -26.6080   21.6110 C   0  0  0  0  0  2  0  0  0  0  0  0
  -18.0430  -26.7770   22.2590 C   0  0  0  0  0  2  0  0  0  0  0  0
  -19.0240  -28.8690   23.3670 C   0  0  0  0  0  0  0  0  0  0  0  0
  -18.8310  -30.1340   23.9660 C   0  0  0  0  0  3  0  0  0  0  0  0
  -17.5360  -30.6560   24.1430 C   0  0  0  0  0  3  0  0  0  0  0  0
  -16.4170  -29.9130   23.7320 C   0  0  0  0  0  3  0  0  0  0  0  0
  -16.5950  -28.6510   23.1340 C   0  0  0  0  0  3  0  0  0  0  0  0
  -25.8050  -32.4210   23.8510 C   0  0  0  0  0  3  0  0  0  0  0  0
  -26.3190  -31.6430   25.1260 C   0  0  1  0  0  0  0  0  0  0  0  0
  -25.2290  -31.4160   26.1970 C   0  0  0  0  0  1  0  0  0  0  0  0
  -26.8830  -30.2570   24.7320 C   0  0  0  0  0  1  0  0  0  0  0  0
  -27.4790  -32.4240   25.7870 C   0  0  0  0  0  1  0  0  0  0  0  0
  -25.5200  -33.8260   24.1780 N   0  0  0  0  0  0  0  0  0  0  0  0
  -25.8760  -34.8720   23.4210 C   0  0  0  0  0  0  0  0  0  0  0  0
  -26.5500  -34.7590   22.3930 O   0  0  0  0  0  0  0  0  0  0  0  0
  -24.9320  -33.9910   24.9810 H   0  0  0  0  0  0  0  0  0  0  0  0
  -24.1860  -36.7000   23.0500 C   0  0  0  0  0  1  0  0  0  0  0  0
  -25.4100  -36.2690   23.8750 C   0  0  0  0  0  3  0  0  0  0  0  0
  -27.5520  -37.1120   24.7310 C   0  0  0  0  0  1  0  0  0  0  0  0
  -26.4620  -37.3040   23.7780 N   0  0  0  0  0  0  0  0  0  0  0  0
  -26.0690  -38.2290   23.9280 H   0  0  0  0  0  0  0  0  0  0  0  0
  1  4  2  0
  2  5  2  0
  3  2  1  0
  3  1  1  0
  4  8  1  0
  4  7  1  0
  6  3  1  0
  9 12  1  0
 11 14  2  0
 12 10  2  0
 12  1  1  0
 13  9  2  0
 13 11  1  0
 14 10  1  0
 14 23  1  0
 15 21  1  0
 15 23  1  0
 16 21  1  0
 17 18  1  0
 17 16  1  0
 19 18  1  0
 19 28  1  0
 19 20  1  0
 21 20  1  0
 22 15  2  0
 23 24  1  0
 25 26  2  0
 26 27  1  0
 26 45  1  0
 27 30  1  0
 28 25  1  0
 28 29  1  0
 29 27  2  0
 30 31  1  0
 31 32  2  0
 33 36  1  0
 33 32  1  0
 34 33  2  0
 35 34  1  0
 35 30  2  0
 36 37  1  0
 37 38  1  0
 38 39  2  0
 40 39  1  0
 40 44  1  0
 41 40  2  0
 42 37  2  0
 42 41  1  0
 43 42  1  0
 45 46  1  0
 46 49  1  0
 46 48  1  0
 47 45  2  0
 50 25  1  0
 51 50  1  0
 52 50  1  0
 54 13  1  0
 54 53  1  0
 57 55  1  6
 56 57  1  0
 57 58  1  0
 57  2  1  0
 59 61  1  0
 59 58  1  0
 60 71  2  0
 61 66  1  0
 62 70  1  0
 62 72  1  0
 63 69  1  0
 63 65  1  0
 64 70  1  0
 65 64  1  0
 66 65  2  0
 67 61  2  0
 68 67  1  0
 68 63  2  0
 69 62  1  0
 70 60  1  0
 72 74  2  0
 73 72  1  0
 75 73  1  0
 76 85  2  0
 76 81  1  0
 77 73  1  0
 77 81  1  0
 78 77  1  0
 79 80  1  0
 79 78  1  0
 80 76  1  0
 81 82  2  0
 82 83  1  0
 84 83  2  0
 85 84  1  0
 86 60  1  0
 86 91  1  0
 86 87  1  0
 87 90  1  1
 87 88  1  0
 89 87  1  0
 91 94  1  0
 92 96  1  0
 92 91  1  0
 93 92  2  0
 96 95  1  0
 98 96  1  0
 98 99  1  0
 98 97  1  0
M  ISO  4  15 100  23 100  58 101  59 101
M  END
>  <TORSDO>  (9) 
F 20

>  <SCORE>  (9) 
-13.613

>  <name>  (9) 
8

>  <ligand_id>  (9) 
8

>  <original_smiles>  (9) 
[H]c1c([H])c([H])c2c(c1[H])C([H])([H])C([H])([H])C([H])([H])C2([H])N([H])C(=O)C1([H])N(C(=O)C([H])(N([H])C(=O)C([H])(N([H])C([H])([H])[H])C([H])([H])[H])C(C([H])([H])[H])(C([H])([H])[H])C([H])([H])[H])C([H])([H])c2c([H])c(OC([H])([H])C(C(=O)N([H])C(c3c([H])c(N([H])C(=O)N4C([H])([H])C([H])([H])C([H])([H])C([H])(n5nc(-c6c([H])c([H])c(Oc7c([H])c([H])c(F)c([H])c7F)c([H])c6[H])c(C(=O)N([H])[H])c5N([H])[H])C4([H])[H])c([H])c(C([H])([H])C([H])([H])[H])c3[H])=[N+]([H])[H])(C([H])([H])[H])C([H])([H])[H])c([H])c([H])c2C1([H])[H]

>  <smiles>  (9) 
[H]c1c([H])c([H])c2c(c1[H])C([H])([H])C([H])([H])C([H])([H])C2([H])N([H])C(=O)C1([H])N(C(=O)C([H])(N([H])C(=O)C([H])(N([H])C([H])([H])[H])C([H])([H])[H])C(C([H])([H])[H])(C([H])([H])[H])C([H])([H])[H])C([H])([H])c2c([H])c(OC([H])([H])C(C(=O)N([H])C(c3c([H])c(N([H])C(=O)N4C([H])([H])C([H])([H])C([H])([H])C([H])(n5nc(-c6c([H])c([H])c(Oc7c([H])c([H])c(F)c([H])c7F)c([H])c6[H])c(C(=O)N([H])[H])c5N([H])[H])C4([H])[H])c([H])c(C([H])([H])C([H])([H])[H])c3[H])=[N+]([H])[H])(C([H])([H])[H])C([H])([H])[H])c([H])c([H])c2C1([H])[H]

$$$$
9:0:0
     RDKit          3D

102110  0  0  1  0  0  0  0  0999 V2000
  -29.1950  -20.7380   22.6550 C   0  0  0  0  0  1  0  0  0  0  0  0
  -29.6130  -21.7820   21.5680 C   0  0  2  0  0  0  0  0  0  0  0  0
  -31.9620  -22.7040   20.6980 C   0  0  0  0  0  1  0  0  0  0  0  0
  -31.1680  -21.9060   21.7500 C   0  0  0  0  0  2  0  0  0  0  0  0
  -27.3940  -22.9100   22.2480 C   0  0  0  0  0  1  0  0  0  0  0  0
  -28.8540  -23.2300   21.8010 C   0  0  1  0  0  0  0  0  0  0  0  0
  -29.8020  -23.4770   24.3520 C   0  0  0  0  0  1  0  0  0  0  0  0
  -29.6140  -24.0410   22.9340 C   0  0  0  0  0  2  0  0  0  0  0  0
  -28.6920  -24.2070   20.5020 C   0  0  0  0  0  2  0  0  0  0  0  0
  -29.5400  -26.6170   21.0450 C   0  0  0  0  0  1  0  0  0  0  0  0
  -27.0720  -26.0560   21.5050 C   0  0  0  0  0  1  0  0  0  0  0  0
  -28.3150  -25.7900   20.5770 C   0  0  2  0  0  0  0  0  0  0  0  0
  -28.0890  -26.4150   19.2420 O   0  0  0  0  0  0  0  0  0  0  0  0
  -24.6900  -31.4950   22.8850 C   0  0  0  0  0  0  0  0  0  0  0  0
  -27.1100  -27.4050   19.1770 C   0  0  0  0  0  0  0  0  0  0  0  0
  -23.4170  -30.3870   21.0780 C   0  0  0  0  0  3  0  0  0  0  0  0
  -24.8040  -29.0420   19.4000 C   0  0  0  0  0  0  0  0  0  0  0  0
  -25.9570  -30.6760   20.8970 C   0  0  0  0  0  2  0  0  0  0  0  0
  -25.9880  -29.4170   20.0490 C   0  0  0  0  0  0  0  0  0  0  0  0
  -27.1480  -28.6070   19.9370 C   0  0  0  0  0  3  0  0  0  0  0  0
  -25.9350  -27.1020   18.4600 C   0  0  0  0  0  3  0  0  0  0  0  0
  -24.7780  -27.8910   18.5940 C   0  0  0  0  0  3  0  0  0  0  0  0
  -23.5870  -29.9180   19.6080 C   0  0  0  0  0  2  0  0  0  0  0  0
  -24.7070  -30.8580   21.6790 N   0  0  0  0  0  0  0  0  0  0  0  0
  -23.6270  -31.7270   23.4740 O   0  0  0  0  0  0  0  0  0  0  0  0
  -22.7360  -29.2630   21.8920 C   0  0  0  0  0  0  0  0  0  0  0  0
  -21.3990  -29.1800   21.8050 N   0  0  0  0  0  0  0  0  0  0  0  0
  -23.4080  -28.4740   22.5630 O   0  0  0  0  0  0  0  0  0  0  0  0
  -20.9200  -29.8690   21.2430 H   0  0  0  0  0  0  0  0  0  0  0  0
  -17.9790  -28.0880   22.2340 C   0  0  0  0  0  0  0  0  0  0  0  0
  -20.5530  -28.1780   22.4560 C   0  0  0  0  0  3  0  0  0  0  0  0
  -20.5630  -26.8450   21.6720 C   0  0  0  0  0  2  0  0  0  0  0  0
  -19.4200  -26.7340   20.6580 C   0  0  0  0  0  2  0  0  0  0  0  0
  -18.0640  -26.8480   21.3620 C   0  0  0  0  0  2  0  0  0  0  0  0
  -19.1470  -28.7220   22.7350 C   0  0  0  0  0  0  0  0  0  0  0  0
  -19.0110  -29.8900   23.5150 C   0  0  0  0  0  3  0  0  0  0  0  0
  -17.7410  -30.4260   23.7950 C   0  0  0  0  0  3  0  0  0  0  0  0
  -16.5870  -29.7850   23.3120 C   0  0  0  0  0  3  0  0  0  0  0  0
  -16.7070  -28.6170   22.5380 C   0  0  0  0  0  3  0  0  0  0  0  0
  -26.0070  -31.9840   23.5650 C   0  0  0  0  0  3  0  0  0  0  0  0
  -25.7410  -33.3100   24.1410 N   0  0  0  0  0  0  0  0  0  0  0  0
  -26.1540  -34.4670   23.6060 C   0  0  0  0  0  0  0  0  0  0  0  0
  -26.8700  -34.5240   22.6020 O   0  0  0  0  0  0  0  0  0  0  0  0
  -25.1110  -33.3420   24.9280 H   0  0  0  0  0  0  0  0  0  0  0  0
  -24.5380  -36.3920   23.5090 C   0  0  0  0  0  1  0  0  0  0  0  0
  -25.7000  -35.7670   24.2950 C   0  0  0  0  0  3  0  0  0  0  0  0
  -27.8020  -36.3590   25.4170 C   0  0  0  0  0  1  0  0  0  0  0  0
  -26.7850  -36.7610   24.4510 N   0  0  0  0  0  0  0  0  0  0  0  0
  -26.4090  -37.6590   24.7420 H   0  0  0  0  0  0  0  0  0  0  0  0
  -26.5410  -30.9940   24.6720 C   0  0  1  0  0  0  0  0  0  0  0  0
  -25.4770  -30.6110   25.7260 C   0  0  0  0  0  1  0  0  0  0  0  0
  -27.0640  -29.6890   24.0280 C   0  0  0  0  0  1  0  0  0  0  0  0
  -27.7370  -31.6380   25.4150 C   0  0  0  0  0  1  0  0  0  0  0  0
  -29.2700  -20.9800   20.2340 C   0  0  0  0  0  2  0  0  0  0  0  0
  -31.3950  -19.8540   19.4310 C   0  0  0  0  0  3  0  0  0  0  0  0
  -31.8770  -17.4760   19.6310 C   0  0  0  0  0  3  0  0  0  0  0  0
  -30.1000  -19.6730   19.9600 C   0  0  0  0  0  0  0  0  0  0  0  0
  -30.5480  -17.1960   20.0360 C   0  0  0  0  0  0  0  0  0  0  0  0
  -29.6680  -18.3170   20.2060 C   0  0  0  0  0  0  0  0  0  0  0  0
  -32.2840  -18.7780   19.2980 C   0  0  0  0  0  0  0  0  0  0  0  0
  -33.8940  -19.0630   18.7460 Cl  0  0  0  0  0  0  0  0  0  0  0  0
  -30.8000  -14.6700   20.0870 C   0  0  0  0  0  0  0  0  0  0  0  0
  -30.6120  -12.2870   19.4540 C   0  0  0  0  0  2  0  0  0  0  0  0
  -29.6870  -12.1480   18.2290 C   0  0  0  0  0  2  0  0  0  0  0  0
  -28.2270  -11.9850   18.6850 C   0  0  0  0  0  2  0  0  0  0  0  0
  -27.8050  -13.0430   19.7400 C   0  0  0  0  0  3  0  0  0  0  0  0
  -28.8630  -13.2030   20.8580 C   0  0  0  0  0  2  0  0  0  0  0  0
  -30.1610  -13.4670   20.2200 N   0  0  0  0  0  0  0  0  0  0  0  0
  -31.9370  -14.7080   19.6190 O   0  0  0  0  0  0  0  0  0  0  0  0
  -30.1060  -15.8260   20.3080 N   0  0  0  0  0  0  0  0  0  0  0  0
  -29.1470  -15.7300   20.6010 H   0  0  0  0  0  0  0  0  0  0  0  0
  -25.4870  -13.6410   20.6760 C   0  0  0  0  0  0  0  0  0  0  0  0
  -24.4100  -12.8720   21.0250 C   0  0  0  0  0  0  0  0  0  0  0  0
  -24.8060  -11.5170   20.8060 C   0  0  0  0  0  0  0  0  0  0  0  0
  -26.4760  -12.7570   20.2790 N   0  0  0  0  0  0  0  0  0  0  0  0
  -26.0730  -11.4660   20.4140 N   0  0  0  0  0  0  0  0  0  0  0  0
  -24.0330  -10.2710   20.8930 C   0  0  0  0  0  0  0  0  0  0  0  0
  -24.3530   -9.2650   21.8310 C   0  0  0  0  0  3  0  0  0  0  0  0
  -23.5830   -8.0850   21.9080 C   0  0  0  0  0  3  0  0  0  0  0  0
  -22.4750   -7.9020   21.0460 C   0  0  0  0  0  0  0  0  0  0  0  0
  -22.1740   -8.8970   20.0980 C   0  0  0  0  0  3  0  0  0  0  0  0
  -22.9450  -10.0680   20.0190 C   0  0  0  0  0  3  0  0  0  0  0  0
  -21.6850   -6.7780   21.0330 O   0  0  0  0  0  0  0  0  0  0  0  0
  -21.3810   -6.0980   22.1840 C   0  0  0  0  0  0  0  0  0  0  0  0
  -20.6710   -6.7050   23.2430 C   0  0  0  0  0  3  0  0  0  0  0  0
  -20.3190   -5.9510   24.3800 C   0  0  0  0  0  3  0  0  0  0  0  0
  -20.6660   -4.5890   24.4570 C   0  0  0  0  0  0  0  0  0  0  0  0
  -21.3670   -3.9800   23.4010 C   0  0  0  0  0  3  0  0  0  0  0  0
  -21.7210   -4.7330   22.2670 C   0  0  0  0  0  0  0  0  0  0  0  0
  -22.3780   -4.1360   21.2430 F   0  0  0  0  0  0  0  0  0  0  0  0
  -20.3220   -3.8610   25.5450 F   0  0  0  0  0  0  0  0  0  0  0  0
  -23.0560  -13.3680   21.4430 C   0  0  0  0  0  0  0  0  0  0  0  0
  -22.3530  -12.6060   22.2750 N   0  0  0  0  0  0  0  0  0  0  0  0
  -22.6340  -14.4620   21.0710 O   0  0  0  0  0  0  0  0  0  0  0  0
  -22.7090  -11.7190   22.5970 H   0  0  0  0  0  0  0  0  0  0  0  0
  -21.4470  -12.9150   22.5930 H   0  0  0  0  0  0  0  0  0  0  0  0
  -25.6990  -15.0160   20.6390 N   0  0  0  0  0  0  0  0  0  0  0  0
  -24.9600  -15.6810   20.8440 H   0  0  0  0  0  0  0  0  0  0  0  0
  -26.5390  -15.4560   20.2900 H   0  0  0  0  0  0  0  0  0  0  0  0
  -28.3580  -18.0530   20.5980 N   0  0  0  0  0  0  0  0  0  0  0  0
  -27.7180  -18.8370   20.5500 H   0  0  0  0  0  0  0  0  0  0  0  0
  -27.9520  -17.2250   20.1870 H   0  0  0  0  0  0  0  0  0  0  0  0
  2  4  1  0
  2  6  1  0
  2  1  1  1
  3  4  1  0
  6  5  1  1
  6  8  1  0
  8  7  1  0
  9 12  1  0
  9  6  1  0
 12 10  1  1
 12 11  1  0
 13 12  1  0
 14 25  2  0
 15 13  1  0
 15 20  1  0
 16 24  1  0
 16 26  1  0
 17 23  1  0
 17 19  1  0
 18 24  1  0
 19 18  1  0
 20 19  2  0
 21 22  1  0
 21 15  2  0
 22 17  2  0
 23 16  1  0
 24 14  1  0
 26 28  2  0
 27 26  1  0
 29 27  1  0
 30 39  2  0
 30 35  1  0
 31 27  1  0
 31 35  1  0
 32 31  1  0
 33 34  1  0
 33 32  1  0
 34 30  1  0
 35 36  2  0
 36 37  1  0
 38 37  2  0
 39 38  1  0
 40 14  1  0
 40 41  1  0
 40 50  1  0
 41 44  1  0
 42 41  1  0
 42 46  1  0
 43 42  2  0
 46 45  1  0
 46 48  1  0
 48 49  1  0
 48 47  1  0
 50 53  1  1
 50 51  1  0
 52 50  1  0
 54  2  1  0
 55 57  1  0
 56 58  2  0
 57 59  2  0
 57 54  1  0
 58 59  1  0
 58 70  1  0
 59100  1  0
 60 55  2  0
 60 56  1  0
 61 60  1  0
 62 68  1  0
 62 70  1  0
 63 68  1  0
 64 65  1  0
 64 63  1  0
 66 65  1  0
 66 75  1  0
 66 67  1  0
 68 67  1  0
 69 62  2  0
 70 71  1  0
 72 73  2  0
 73 92  1  0
 74 77  1  0
 74 73  1  0
 75 76  1  0
 75 72  1  0
 76 74  2  0
 77 78  1  0
 78 79  2  0
 80 79  1  0
 81 80  2  0
 82 81  1  0
 82 77  2  0
 83 80  1  0
 83 84  1  0
 84 89  2  0
 84 85  1  0
 85 86  2  0
 86 87  1  0
 87 91  1  0
 88 87  2  0
 89 88  1  0
 90 89  1  0
 92 93  1  0
 93 96  1  0
 93 95  1  0
 94 92  2  0
 97 72  1  0
 97 98  1  0
 99 97  1  0
101100  1  0
102100  1  0
M  ISO  4  12 101  13 101  62 100  70 100
M  END
>  <TORSDO>  (10) 
F 24

>  <SCORE>  (10) 
-9.072

>  <name>  (10) 
9

>  <ligand_id>  (10) 
9

>  <original_smiles>  (10) 
[H]c1c([H])c([H])c2c(c1[H])C([H])([H])C([H])([H])C([H])([H])C2([H])N([H])C(=O)C1([H])N(C(=O)C([H])(N([H])C(=O)C([H])(N([H])C([H])([H])[H])C([H])([H])[H])C(C([H])([H])[H])(C([H])([H])[H])C([H])([H])[H])C([H])([H])c2c([H])c(OC(C([H])([H])[H])(C([H])([H])[H])C([H])([H])C(C([H])([H])[H])(C([H])([H])C([H])([H])[H])C(C([H])([H])[H])(C([H])([H])c3c([H])c(Cl)c([H])c(N([H])C(=O)N4C([H])([H])C([H])([H])C([H])([H])C([H])(n5nc(-c6c([H])c([H])c(Oc7c([H])c([H])c(F)c([H])c7F)c([H])c6[H])c(C(=O)N([H])[H])c5N([H])[H])C4([H])[H])c3N([H])[H])C([H])([H])C([H])([H])[H])c([H])c([H])c2C1([H])[H]

>  <smiles>  (10) 
[H]c1c([H])c([H])c2c(c1[H])C([H])([H])C([H])([H])C([H])([H])C2([H])N([H])C(=O)C1([H])N(C(=O)C([H])(N([H])C(=O)C([H])(N([H])C([H])([H])[H])C([H])([H])[H])C(C([H])([H])[H])(C([H])([H])[H])C([H])([H])[H])C([H])([H])c2c([H])c(OC(C([H])([H])[H])(C([H])([H])[H])C([H])([H])C(C([H])([H])[H])(C([H])([H])C([H])([H])[H])C(C([H])([H])[H])(C([H])([H])c3c([H])c(Cl)c([H])c(N([H])C(=O)N4C([H])([H])C([H])([H])C([H])([H])C([H])(n5nc(-c6c([H])c([H])c(Oc7c([H])c([H])c(F)c([H])c7F)c([H])c6[H])c(C(=O)N([H])[H])c5N([H])[H])C4([H])[H])c3N([H])[H])C([H])([H])C([H])([H])[H])c([H])c([H])c2C1([H])[H]

$$$$
10:0:0
     RDKit          3D

 97105  0  0  1  0  0  0  0  0999 V2000
  -30.5450  -21.3900   21.0720 N   0  0  0  0  0  0  0  0  0  0  0  0
  -31.1310  -21.7900   21.8020 H   0  0  0  0  0  0  0  0  0  0  0  0
  -31.1260  -17.7330   21.6440 C   0  0  0  0  0  3  0  0  0  0  0  0
  -29.5020  -19.3890   20.0710 C   0  0  0  0  0  3  0  0  0  0  0  0
  -31.2630  -19.1420   21.7200 C   0  0  0  0  0  0  0  0  0  0  0  0
  -29.3590  -17.9830   19.9880 C   0  0  0  0  0  0  0  0  0  0  0  0
  -30.4330  -19.9900   20.9450 C   0  0  0  0  0  0  0  0  0  0  0  0
  -30.1640  -17.1350   20.7980 C   0  0  0  0  0  0  0  0  0  0  0  0
  -32.3040  -19.7350   22.6590 C   0  0  0  0  0  1  0  0  0  0  0  0
  -30.7030  -14.7100   20.4500 C   0  0  0  0  0  0  0  0  0  0  0  0
  -30.4540  -12.5360   19.3070 C   0  0  0  0  0  2  0  0  0  0  0  0
  -29.4920  -12.7290   18.1150 C   0  0  0  0  0  2  0  0  0  0  0  0
  -28.0300  -12.5350   18.5620 C   0  0  0  0  0  2  0  0  0  0  0  0
  -27.6820  -13.3560   19.8320 C   0  0  0  0  0  3  0  0  0  0  0  0
  -28.7590  -13.1690   20.9270 C   0  0  0  0  0  2  0  0  0  0  0  0
  -30.0680  -13.5090   20.3400 N   0  0  0  0  0  0  0  0  0  0  0  0
  -31.8460  -14.9040   20.0270 O   0  0  0  0  0  0  0  0  0  0  0  0
  -29.9210  -15.7240   20.8800 N   0  0  0  0  0  0  0  0  0  0  0  0
  -28.9760  -15.4540   21.1030 H   0  0  0  0  0  0  0  0  0  0  0  0
  -25.2890  -13.9280   20.5810 C   0  0  0  0  0  0  0  0  0  0  0  0
  -24.2310  -13.1380   20.9460 C   0  0  0  0  0  0  0  0  0  0  0  0
  -24.7070  -11.7930   20.8830 C   0  0  0  0  0  0  0  0  0  0  0  0
  -26.3400  -13.0610   20.3210 N   0  0  0  0  0  0  0  0  0  0  0  0
  -25.9930  -11.7710   20.5580 N   0  0  0  0  0  0  0  0  0  0  0  0
  -23.9980  -10.5190   21.0540 C   0  0  0  0  0  0  0  0  0  0  0  0
  -24.4120   -9.5680   22.0130 C   0  0  0  0  0  3  0  0  0  0  0  0
  -23.7040   -8.3580   22.1720 C   0  0  0  0  0  3  0  0  0  0  0  0
  -22.5690   -8.0910   21.3690 C   0  0  0  0  0  0  0  0  0  0  0  0
  -22.1770   -9.0290   20.3990 C   0  0  0  0  0  3  0  0  0  0  0  0
  -22.8860  -10.2310   20.2390 C   0  0  0  0  0  3  0  0  0  0  0  0
  -21.8360   -6.9310   21.4360 O   0  0  0  0  0  0  0  0  0  0  0  0
  -21.7110   -6.2230   22.6040 C   0  0  0  0  0  0  0  0  0  0  0  0
  -21.1190   -6.7860   23.7560 C   0  0  0  0  0  3  0  0  0  0  0  0
  -20.9480   -6.0010   24.9130 C   0  0  0  0  0  3  0  0  0  0  0  0
  -21.3590   -4.6550   24.9200 C   0  0  0  0  0  0  0  0  0  0  0  0
  -21.9440   -4.0920   23.7730 C   0  0  0  0  0  3  0  0  0  0  0  0
  -22.1170   -4.8740   22.6170 C   0  0  0  0  0  0  0  0  0  0  0  0
  -22.6640   -4.3200   21.5080 F   0  0  0  0  0  0  0  0  0  0  0  0
  -21.1870   -3.8990   26.0290 F   0  0  0  0  0  0  0  0  0  0  0  0
  -22.8320  -13.5950   21.2430 C   0  0  0  0  0  0  0  0  0  0  0  0
  -22.1110  -12.8610   22.0840 N   0  0  0  0  0  0  0  0  0  0  0  0
  -22.3860  -14.6390   20.7670 O   0  0  0  0  0  0  0  0  0  0  0  0
  -22.4830  -12.0180   22.4920 H   0  0  0  0  0  0  0  0  0  0  0  0
  -21.1740  -13.1520   22.3240 H   0  0  0  0  0  0  0  0  0  0  0  0
  -25.4350  -15.3040   20.4300 N   0  0  0  0  0  0  0  0  0  0  0  0
  -24.6590  -15.9430   20.5600 H   0  0  0  0  0  0  0  0  0  0  0  0
  -26.2710  -15.7610   20.0950 H   0  0  0  0  0  0  0  0  0  0  0  0
  -28.6470  -17.8640   17.5590 C   0  0  0  0  0  1  0  0  0  0  0  0
  -28.3350  -17.4440   19.0010 C   0  0  0  0  0  2  0  0  0  0  0  0
  -29.8510  -22.3670   20.2140 C   0  0  0  0  0  2  0  0  0  0  0  0
  -30.1990  -23.8400   20.5720 C   0  0  0  0  0  0  0  0  0  0  0  0
  -30.6660  -24.0820   21.6920 O   0  0  0  0  0  0  0  0  0  0  0  0
  -30.2640  -24.4660   18.1020 C   0  0  0  0  0  1  0  0  0  0  0  0
  -31.0390  -26.1050   19.7960 C   0  0  0  0  0  1  0  0  0  0  0  0
  -29.9910  -24.9930   19.5320 C   0  0  2  0  0  0  0  0  0  0  0  0
  -28.5470  -25.6090   19.5790 C   0  0  0  0  0  2  0  0  0  0  0  0
  -28.4610  -26.8960   20.2280 O   0  0  0  0  0  0  0  0  0  0  0  0
  -24.5690  -31.9890   23.3580 C   0  0  0  0  0  0  0  0  0  0  0  0
  -27.2570  -27.5850   20.2280 C   0  0  0  0  0  0  0  0  0  0  0  0
  -23.3710  -30.5850   21.7130 C   0  0  0  0  0  3  0  0  0  0  0  0
  -24.8350  -29.0700   20.2720 C   0  0  0  0  0  0  0  0  0  0  0  0
  -25.8940  -30.9680   21.5060 C   0  0  0  0  0  2  0  0  0  0  0  0
  -25.9910  -29.6000   20.8570 C   0  0  0  0  0  0  0  0  0  0  0  0
  -27.2000  -28.8640   20.8340 C   0  0  0  0  0  3  0  0  0  0  0  0
  -26.0710  -27.0670   19.6540 C   0  0  0  0  0  3  0  0  0  0  0  0
  -24.8700  -27.8020   19.6720 C   0  0  0  0  0  3  0  0  0  0  0  0
  -23.5810  -29.9150   20.3290 C   0  0  0  0  0  2  0  0  0  0  0  0
  -24.6300  -31.1960   22.2510 N   0  0  0  0  0  0  0  0  0  0  0  0
  -23.4880  -32.2470   23.9040 O   0  0  0  0  0  0  0  0  0  0  0  0
  -22.7350  -29.5510   22.6690 C   0  0  0  0  0  0  0  0  0  0  0  0
  -21.4180  -29.3320   22.5230 N   0  0  0  0  0  0  0  0  0  0  0  0
  -23.4220  -28.9500   23.4980 O   0  0  0  0  0  0  0  0  0  0  0  0
  -20.9230  -29.8700   21.8270 H   0  0  0  0  0  0  0  0  0  0  0  0
  -18.0710  -28.0440   22.9730 C   0  0  0  0  0  0  0  0  0  0  0  0
  -20.6150  -28.3760   23.2860 C   0  0  0  0  0  3  0  0  0  0  0  0
  -20.7670  -26.9450   22.7170 C   0  0  0  0  0  2  0  0  0  0  0  0
  -19.6910  -26.5870   21.6880 C   0  0  0  0  0  2  0  0  0  0  0  0
  -18.2960  -26.6970   22.3090 C   0  0  0  0  0  2  0  0  0  0  0  0
  -19.1610  -28.8390   23.4180 C   0  0  0  0  0  0  0  0  0  0  0  0
  -18.8980  -30.1000   23.9960 C   0  0  0  0  0  3  0  0  0  0  0  0
  -17.5770  -30.5660   24.1390 C   0  0  0  0  0  3  0  0  0  0  0  0
  -16.5010  -29.7680   23.7110 C   0  0  0  0  0  3  0  0  0  0  0  0
  -16.7490  -28.5100   23.1350 C   0  0  0  0  0  3  0  0  0  0  0  0
  -25.8510  -32.6310   23.9760 C   0  0  0  0  0  3  0  0  0  0  0  0
  -25.5400  -34.0320   24.2840 N   0  0  0  0  0  0  0  0  0  0  0  0
  -25.8810  -35.0740   23.5140 C   0  0  0  0  0  0  0  0  0  0  0  0
  -26.5620  -34.9560   22.4900 O   0  0  0  0  0  0  0  0  0  0  0  0
  -24.9380  -34.1990   25.0770 H   0  0  0  0  0  0  0  0  0  0  0  0
  -24.1670  -36.8670   23.1020 C   0  0  0  0  0  1  0  0  0  0  0  0
  -25.3880  -36.4680   23.9450 C   0  0  0  0  0  3  0  0  0  0  0  0
  -27.5020  -37.3580   24.8200 C   0  0  0  0  0  1  0  0  0  0  0  0
  -26.4270  -37.5160   23.8450 N   0  0  0  0  0  0  0  0  0  0  0  0
  -26.0200  -38.4390   23.9680 H   0  0  0  0  0  0  0  0  0  0  0  0
  -26.3640  -31.8780   25.2640 C   0  0  1  0  0  0  0  0  0  0  0  0
  -25.2600  -31.6190   26.3160 C   0  0  0  0  0  1  0  0  0  0  0  0
  -26.9870  -30.5130   24.8870 C   0  0  0  0  0  1  0  0  0  0  0  0
  -27.4860  -32.7010   25.9410 C   0  0  0  0  0  1  0  0  0  0  0  0
  1  2  1  0
  3  5  1  0
  4  7  1  0
  5  9  1  0
  6  4  2  0
  6  8  1  0
  7  1  1  0
  7  5  2  0
  8 18  1  0
  8  3  2  0
 10 18  1  0
 11 16  1  0
 12 13  1  0
 12 11  1  0
 14 13  1  0
 14 23  1  0
 14 15  1  0
 16 10  1  0
 16 15  1  0
 17 10  2  0
 18 19  1  0
 20 21  2  0
 21 40  1  0
 22 21  1  0
 22 25  1  0
 23 24  1  0
 23 20  1  0
 24 22  2  0
 25 26  1  0
 26 27  2  0
 28 31  1  0
 28 27  1  0
 29 28  2  0
 30 29  1  0
 30 25  2  0
 31 32  1  0
 32 37  2  0
 32 33  1  0
 33 34  2  0
 34 35  1  0
 35 39  1  0
 36 35  2  0
 37 36  1  0
 38 37  1  0
 40 41  1  0
 41 44  1  0
 41 43  1  0
 42 40  2  0
 45 46  1  0
 45 20  1  0
 47 45  1  0
 48 49  1  0
 49  6  1  0
 50 51  1  0
 50  1  1  0
 51 52  2  0
 55 53  1  6
 55 56  1  0
 55 54  1  0
 55 51  1  0
 56 57  1  0
 58 69  2  0
 59 57  1  0
 59 64  1  0
 60 68  1  0
 60 70  1  0
 61 67  1  0
 61 63  1  0
 62 68  1  0
 63 62  1  0
 64 63  2  0
 65 66  1  0
 65 59  2  0
 66 61  2  0
 67 60  1  0
 68 58  1  0
 70 72  2  0
 71 70  1  0
 73 71  1  0
 74 83  2  0
 74 79  1  0
 75 71  1  0
 75 79  1  0
 76 75  1  0
 77 78  1  0
 77 76  1  0
 78 74  1  0
 79 80  2  0
 80 81  1  0
 82 81  2  0
 83 82  1  0
 84 58  1  0
 84 85  1  0
 84 94  1  0
 85 88  1  0
 86 90  1  0
 86 85  1  0
 87 86  2  0
 90 89  1  0
 92 90  1  0
 92 93  1  0
 92 91  1  0
 94 97  1  1
 94 95  1  0
 96 94  1  0
M  ISO  4  10 100  18 100  56 101  57 101
M  END
>  <TORSDO>  (11) 
F 22

>  <SCORE>  (11) 
-13.457

>  <name>  (11) 
10

>  <ligand_id>  (11) 
10

>  <original_smiles>  (11) 
[H]c1c([H])c([H])c2c(c1[H])C([H])([H])C([H])([H])C([H])([H])C2([H])N([H])C(=O)C1([H])N(C(=O)C([H])(N([H])C(=O)C([H])(N([H])C([H])([H])[H])C([H])([H])[H])C(C([H])([H])[H])(C([H])([H])[H])C([H])([H])[H])C([H])([H])c2c([H])c(OC([H])([H])C(C(=O)C([H])([H])N([H])c3c([H])c(C([H])([H])C([H])([H])[H])c(N([H])C(=O)N4C([H])([H])C([H])([H])C([H])([H])C([H])(n5nc(-c6c([H])c([H])c(Oc7c([H])c([H])c(F)c([H])c7F)c([H])c6[H])c(C(=O)N([H])[H])c5N([H])[H])C4([H])[H])c([H])c3C([H])([H])[H])(C([H])([H])[H])C([H])([H])[H])c([H])c([H])c2C1([H])[H]

>  <smiles>  (11) 
[H]c1c([H])c([H])c2c(c1[H])C([H])([H])C([H])([H])C([H])([H])C2([H])N([H])C(=O)C1([H])N(C(=O)C([H])(N([H])C(=O)C([H])(N([H])C([H])([H])[H])C([H])([H])[H])C(C([H])([H])[H])(C([H])([H])[H])C([H])([H])[H])C([H])([H])c2c([H])c(OC([H])([H])C(C(=O)C([H])([H])N([H])c3c([H])c(C([H])([H])C([H])([H])[H])c(N([H])C(=O)N4C([H])([H])C([H])([H])C([H])([H])C([H])(n5nc(-c6c([H])c([H])c(Oc7c([H])c([H])c(F)c([H])c7F)c([H])c6[H])c(C(=O)N([H])[H])c5N([H])[H])C4([H])[H])c([H])c3C([H])([H])[H])(C([H])([H])[H])C([H])([H])[H])c([H])c([H])c2C1([H])[H]

$$$$
11:0:0
     RDKit          3D

 95103  0  0  1  0  0  0  0  0999 V2000
  -29.2750  -22.5660   20.3160 C   0  0  0  0  0  0  0  0  0  0  0  0
  -29.7800  -21.5120   19.5930 N   0  0  0  0  0  0  0  0  0  0  0  0
  -28.8950  -22.4280   21.4790 O   0  0  0  0  0  0  0  0  0  0  0  0
  -30.0550  -21.7870   18.6610 H   0  0  0  0  0  0  0  0  0  0  0  0
  -30.0520  -19.4970   21.1690 C   0  0  0  0  0  3  0  0  0  0  0  0
  -30.0270  -19.1680   18.7920 C   0  0  0  0  0  3  0  0  0  0  0  0
  -30.1750  -18.0830   21.3580 C   0  0  0  0  0  0  0  0  0  0  0  0
  -29.9560  -20.0830   19.8790 C   0  0  0  0  0  0  0  0  0  0  0  0
  -30.2460  -17.1720   20.2580 C   0  0  0  0  0  0  0  0  0  0  0  0
  -30.1620  -17.7590   18.9650 C   0  0  0  0  0  0  0  0  0  0  0  0
  -30.2000  -17.5480   22.7810 C   0  0  0  0  0  1  0  0  0  0  0  0
  -30.1390  -16.9700   17.8640 F   0  0  0  0  0  0  0  0  0  0  0  0
  -31.0000  -14.7020   19.9550 C   0  0  0  0  0  0  0  0  0  0  0  0
  -30.7530  -12.4490   18.9230 C   0  0  0  0  0  2  0  0  0  0  0  0
  -29.7100  -12.5440   17.7870 C   0  0  0  0  0  2  0  0  0  0  0  0
  -28.2850  -12.3540   18.3390 C   0  0  0  0  0  2  0  0  0  0  0  0
  -28.0100  -13.2320   19.5880 C   0  0  0  0  0  3  0  0  0  0  0  0
  -29.1530  -13.1000   20.6200 C   0  0  0  0  0  2  0  0  0  0  0  0
  -30.4090  -13.4630   19.9440 N   0  0  0  0  0  0  0  0  0  0  0  0
  -32.1050  -14.8830   19.4380 O   0  0  0  0  0  0  0  0  0  0  0  0
  -30.2590  -15.7220   20.4940 N   0  0  0  0  0  0  0  0  0  0  0  0
  -29.4990  -15.3950   21.0680 H   0  0  0  0  0  0  0  0  0  0  0  0
  -25.7040  -13.8100   20.5650 C   0  0  0  0  0  0  0  0  0  0  0  0
  -24.6620  -13.0250   20.9770 C   0  0  0  0  0  0  0  0  0  0  0  0
  -25.0960  -11.6740   20.8160 C   0  0  0  0  0  0  0  0  0  0  0  0
  -26.7070  -12.9350   20.1770 N   0  0  0  0  0  0  0  0  0  0  0  0
  -26.3520  -11.6420   20.3880 N   0  0  0  0  0  0  0  0  0  0  0  0
  -24.3710  -10.4100   20.9890 C   0  0  0  0  0  0  0  0  0  0  0  0
  -24.7960   -9.4330   21.9150 C   0  0  0  0  0  3  0  0  0  0  0  0
  -24.0690   -8.2340   22.0760 C   0  0  0  0  0  3  0  0  0  0  0  0
  -22.9010   -8.0030   21.3110 C   0  0  0  0  0  0  0  0  0  0  0  0
  -22.4950   -8.9700   20.3740 C   0  0  0  0  0  3  0  0  0  0  0  0
  -23.2230  -10.1600   20.2100 C   0  0  0  0  0  3  0  0  0  0  0  0
  -22.1460   -6.8580   21.3830 O   0  0  0  0  0  0  0  0  0  0  0  0
  -21.9860   -6.1740   22.5610 C   0  0  0  0  0  0  0  0  0  0  0  0
  -21.4270   -6.7830   23.7070 C   0  0  0  0  0  3  0  0  0  0  0  0
  -21.2170   -6.0230   24.8750 C   0  0  0  0  0  3  0  0  0  0  0  0
  -21.5540   -4.6580   24.8980 C   0  0  0  0  0  0  0  0  0  0  0  0
  -22.1030   -4.0480   23.7560 C   0  0  0  0  0  3  0  0  0  0  0  0
  -22.3170   -4.8040   22.5900 C   0  0  0  0  0  0  0  0  0  0  0  0
  -22.8280   -4.2070   21.4860 F   0  0  0  0  0  0  0  0  0  0  0  0
  -21.3440   -3.9260   26.0170 F   0  0  0  0  0  0  0  0  0  0  0  0
  -23.3050  -13.4990   21.4120 C   0  0  0  0  0  0  0  0  0  0  0  0
  -22.6620  -12.7690   22.3170 N   0  0  0  0  0  0  0  0  0  0  0  0
  -22.8270  -14.5490   20.9840 O   0  0  0  0  0  0  0  0  0  0  0  0
  -23.0620  -11.9180   22.6810 H   0  0  0  0  0  0  0  0  0  0  0  0
  -21.7570  -13.0670   22.6520 H   0  0  0  0  0  0  0  0  0  0  0  0
  -25.8750  -15.1870   20.4640 N   0  0  0  0  0  0  0  0  0  0  0  0
  -25.1280  -15.8380   20.6810 H   0  0  0  0  0  0  0  0  0  0  0  0
  -26.7030  -15.6430   20.1020 H   0  0  0  0  0  0  0  0  0  0  0  0
  -28.4190  -23.8980   18.3130 C   0  0  0  0  0  1  0  0  0  0  0  0
  -30.6310  -24.4950   19.3540 C   0  0  0  0  0  1  0  0  0  0  0  0
  -29.1920  -24.0140   19.6450 C   0  0  2  0  0  0  0  0  0  0  0  0
  -28.4550  -25.1230   20.5350 C   0  0  0  0  0  2  0  0  0  0  0  0
  -28.5940  -26.5480   20.1630 O   0  0  0  0  0  0  0  0  0  0  0  0
  -24.7670  -31.8470   23.2070 C   0  0  0  0  0  0  0  0  0  0  0  0
  -27.4500  -27.3510   20.1570 C   0  0  0  0  0  0  0  0  0  0  0  0
  -23.5860  -30.4600   21.5350 C   0  0  0  0  0  3  0  0  0  0  0  0
  -25.0660  -28.9220   20.1220 C   0  0  0  0  0  0  0  0  0  0  0  0
  -26.1220  -30.7980   21.3860 C   0  0  0  0  0  2  0  0  0  0  0  0
  -26.2180  -29.4230   20.7400 C   0  0  0  0  0  0  0  0  0  0  0  0
  -27.4140  -28.6480   20.7510 C   0  0  0  0  0  3  0  0  0  0  0  0
  -26.2800  -26.8950   19.5130 C   0  0  0  0  0  3  0  0  0  0  0  0
  -25.0980  -27.6630   19.5000 C   0  0  0  0  0  3  0  0  0  0  0  0
  -23.8220  -29.7870   20.1550 C   0  0  0  0  0  2  0  0  0  0  0  0
  -24.8440  -31.0510   22.1010 N   0  0  0  0  0  0  0  0  0  0  0  0
  -23.6780  -32.1190   23.7300 O   0  0  0  0  0  0  0  0  0  0  0  0
  -22.9130  -29.4370   22.4780 C   0  0  0  0  0  0  0  0  0  0  0  0
  -21.5850  -29.2830   22.3540 N   0  0  0  0  0  0  0  0  0  0  0  0
  -23.5880  -28.7820   23.2770 O   0  0  0  0  0  0  0  0  0  0  0  0
  -21.0970  -29.8680   21.6910 H   0  0  0  0  0  0  0  0  0  0  0  0
  -18.1910  -28.1480   22.8530 C   0  0  0  0  0  0  0  0  0  0  0  0
  -20.7570  -28.3400   23.1070 C   0  0  0  0  0  3  0  0  0  0  0  0
  -20.8200  -26.9230   22.4910 C   0  0  0  0  0  2  0  0  0  0  0  0
  -19.7030  -26.6530   21.4780 C   0  0  0  0  0  2  0  0  0  0  0  0
  -18.3300  -26.8130   22.1400 C   0  0  0  0  0  2  0  0  0  0  0  0
  -19.3320  -28.8720   23.2940 C   0  0  0  0  0  0  0  0  0  0  0  0
  -19.1500  -30.1230   23.9190 C   0  0  0  0  0  3  0  0  0  0  0  0
  -17.8600  -30.6510   24.1130 C   0  0  0  0  0  3  0  0  0  0  0  0
  -16.7350  -29.9230   23.6940 C   0  0  0  0  0  3  0  0  0  0  0  0
  -16.9000  -28.6740   23.0680 C   0  0  0  0  0  3  0  0  0  0  0  0
  -26.0430  -32.4740   23.8500 C   0  0  0  0  0  3  0  0  0  0  0  0
  -26.6020  -31.6390   25.0680 C   0  0  1  0  0  0  0  0  0  0  0  0
  -25.5280  -31.2930   26.1260 C   0  0  0  0  0  1  0  0  0  0  0  0
  -27.2290  -30.3120   24.5760 C   0  0  0  0  0  1  0  0  0  0  0  0
  -27.7220  -32.4310   25.7820 C   0  0  0  0  0  1  0  0  0  0  0  0
  -25.7050  -33.8410   24.2700 N   0  0  0  0  0  0  0  0  0  0  0  0
  -25.9880  -34.9470   23.5680 C   0  0  0  0  0  0  0  0  0  0  0  0
  -26.6330  -34.9250   22.5150 O   0  0  0  0  0  0  0  0  0  0  0  0
  -25.1390  -33.9320   25.1010 H   0  0  0  0  0  0  0  0  0  0  0  0
  -24.1990  -36.7000   23.3700 C   0  0  0  0  0  1  0  0  0  0  0  0
  -25.4750  -36.2890   24.1200 C   0  0  0  0  0  3  0  0  0  0  0  0
  -27.6030  -37.1990   24.9400 C   0  0  0  0  0  1  0  0  0  0  0  0
  -26.4700  -37.3780   24.0380 N   0  0  0  0  0  0  0  0  0  0  0  0
  -26.0410  -38.2740   24.2500 H   0  0  0  0  0  0  0  0  0  0  0  0
  1  3  2  0
  2  8  1  0
  2  1  1  0
  4  2  1  0
  5  7  1  0
  6 10  2  0
  6  8  1  0
  7 11  1  0
  8  5  2  0
  9 21  1  0
  9  7  2  0
 10  9  1  0
 12 10  1  0
 13 21  1  0
 14 19  1  0
 15 16  1  0
 15 14  1  0
 17 16  1  0
 17 26  1  0
 17 18  1  0
 19 13  1  0
 19 18  1  0
 20 13  2  0
 21 22  1  0
 23 24  2  0
 24 43  1  0
 25 24  1  0
 25 28  1  0
 26 27  1  0
 26 23  1  0
 27 25  2  0
 28 29  1  0
 29 30  2  0
 31 34  1  0
 31 30  1  0
 32 31  2  0
 33 32  1  0
 33 28  2  0
 34 35  1  0
 35 40  2  0
 35 36  1  0
 36 37  2  0
 37 38  1  0
 38 42  1  0
 39 38  2  0
 40 39  1  0
 41 40  1  0
 43 44  1  0
 44 47  1  0
 44 46  1  0
 45 43  2  0
 48 23  1  0
 48 49  1  0
 50 48  1  0
 53 51  1  6
 52 53  1  0
 53  1  1  0
 53 54  1  0
 55 54  1  0
 56 67  2  0
 57 55  1  0
 57 62  1  0
 58 66  1  0
 58 68  1  0
 59 65  1  0
 59 61  1  0
 60 66  1  0
 61 62  2  0
 61 60  1  0
 63 57  2  0
 64 63  1  0
 64 59  2  0
 65 58  1  0
 66 56  1  0
 68 70  2  0
 69 68  1  0
 71 69  1  0
 72 81  2  0
 72 77  1  0
 73 69  1  0
 73 77  1  0
 74 73  1  0
 75 76  1  0
 75 74  1  0
 76 72  1  0
 77 78  2  0
 78 79  1  0
 80 79  2  0
 81 80  1  0
 82 56  1  0
 82 87  1  0
 82 83  1  0
 83 86  1  1
 83 84  1  0
 85 83  1  0
 87 90  1  0
 88 92  1  0
 88 87  1  0
 89 88  2  0
 92 91  1  0
 94 92  1  0
 94 95  1  0
 94 93  1  0
M  ISO  4  13 100  21 100  54 101  55 101
M  END
>  <TORSDO>  (12) 
F 19

>  <SCORE>  (12) 
-12.920

>  <name>  (12) 
11

>  <ligand_id>  (12) 
11

>  <original_smiles>  (12) 
[H]c1c([H])c([H])c2c(c1[H])C([H])([H])C([H])([H])C([H])([H])C2([H])N([H])C(=O)C1([H])N(C(=O)C([H])(N([H])C(=O)C([H])(N([H])C([H])([H])[H])C([H])([H])[H])C(C([H])([H])[H])(C([H])([H])[H])C([H])([H])[H])C([H])([H])c2c([H])c(OC([H])([H])C(C(=O)N([H])c3c([H])c(F)c(N([H])C(=O)N4C([H])([H])C([H])([H])C([H])([H])C([H])(n5nc(-c6c([H])c([H])c(Oc7c([H])c([H])c(F)c([H])c7F)c([H])c6[H])c(C(=O)N([H])[H])c5N([H])[H])C4([H])[H])c(C([H])([H])[H])c3[H])(C([H])([H])[H])C([H])([H])[H])c([H])c([H])c2C1([H])[H]

>  <smiles>  (12) 
[H]c1c([H])c([H])c2c(c1[H])C([H])([H])C([H])([H])C([H])([H])C2([H])N([H])C(=O)C1([H])N(C(=O)C([H])(N([H])C(=O)C([H])(N([H])C([H])([H])[H])C([H])([H])[H])C(C([H])([H])[H])(C([H])([H])[H])C([H])([H])[H])C([H])([H])c2c([H])c(OC([H])([H])C(C(=O)N([H])c3c([H])c(F)c(N([H])C(=O)N4C([H])([H])C([H])([H])C([H])([H])C([H])(n5nc(-c6c([H])c([H])c(Oc7c([H])c([H])c(F)c([H])c7F)c([H])c6[H])c(C(=O)N([H])[H])c5N([H])[H])C4([H])[H])c(C([H])([H])[H])c3[H])(C([H])([H])[H])C([H])([H])[H])c([H])c([H])c2C1([H])[H]

$$$$
12:0:0
     RDKit          3D

 94103  0  0  1  0  0  0  0  0999 V2000
  -29.9280  -23.4610   22.1490 C   0  0  0  0  0  2  0  0  0  0  0  0
  -29.7880  -24.2200   20.8240 C   0  0  0  0  0  3  0  0  0  0  0  0
  -30.1250  -22.7150   20.9040 N   0  0  2  0  0  4  0  0  0  0  0  0
  -31.1100  -22.5520   20.7790 H   0  0  0  0  0  0  0  0  0  0  0  0
  -28.3600  -24.6300   18.7310 C   0  0  0  0  0  1  0  0  0  0  0  0
  -27.3260  -24.3660   21.1640 C   0  0  0  0  0  1  0  0  0  0  0  0
  -28.4430  -24.9210   20.2610 C   0  0  1  0  0  0  0  0  0  0  0  0
  -28.3960  -26.4470   20.3330 O   0  0  0  0  0  0  0  0  0  0  0  0
  -24.5820  -31.8830   23.2370 C   0  0  0  0  0  0  0  0  0  0  0  0
  -27.2330  -27.2780   20.2290 C   0  0  0  0  0  0  0  0  0  0  0  0
  -23.3690  -30.4760   21.6000 C   0  0  0  0  0  3  0  0  0  0  0  0
  -24.8270  -28.9010   20.2090 C   0  0  0  0  0  0  0  0  0  0  0  0
  -25.9130  -30.7970   21.4070 C   0  0  0  0  0  2  0  0  0  0  0  0
  -26.0050  -29.4080   20.7730 C   0  0  0  0  0  0  0  0  0  0  0  0
  -27.2000  -28.6130   20.7680 C   0  0  0  0  0  3  0  0  0  0  0  0
  -26.0150  -26.8400   19.6430 C   0  0  0  0  0  3  0  0  0  0  0  0
  -24.8350  -27.6140   19.6560 C   0  0  0  0  0  3  0  0  0  0  0  0
  -23.5840  -29.7680   20.2360 C   0  0  0  0  0  2  0  0  0  0  0  0
  -24.6390  -31.0750   22.1360 N   0  0  0  0  0  0  0  0  0  0  0  0
  -23.5010  -32.1630   23.7740 O   0  0  0  0  0  0  0  0  0  0  0  0
  -22.7030  -29.4770   22.5760 C   0  0  0  0  0  0  0  0  0  0  0  0
  -21.3790  -29.2920   22.4490 N   0  0  0  0  0  0  0  0  0  0  0  0
  -23.3820  -28.8640   23.4040 O   0  0  0  0  0  0  0  0  0  0  0  0
  -20.8900  -29.8310   21.7470 H   0  0  0  0  0  0  0  0  0  0  0  0
  -18.0090  -28.0910   22.9670 C   0  0  0  0  0  0  0  0  0  0  0  0
  -20.5670  -28.3590   23.2290 C   0  0  0  0  0  3  0  0  0  0  0  0
  -20.6700  -26.9240   22.6660 C   0  0  0  0  0  2  0  0  0  0  0  0
  -19.5710  -26.5930   21.6520 C   0  0  0  0  0  2  0  0  0  0  0  0
  -18.1900  -26.7370   22.2990 C   0  0  0  0  0  2  0  0  0  0  0  0
  -19.1270  -28.8580   23.3910 C   0  0  0  0  0  0  0  0  0  0  0  0
  -18.9040  -30.1230   23.9760 C   0  0  0  0  0  3  0  0  0  0  0  0
  -17.5990  -30.6220   24.1450 C   0  0  0  0  0  3  0  0  0  0  0  0
  -16.4960  -29.8540   23.7360 C   0  0  0  0  0  3  0  0  0  0  0  0
  -16.7020  -28.5900   23.1520 C   0  0  0  0  0  3  0  0  0  0  0  0
  -25.8690  -32.5100   23.8630 C   0  0  0  0  0  3  0  0  0  0  0  0
  -26.3930  -31.7320   25.1330 C   0  0  1  0  0  0  0  0  0  0  0  0
  -25.3000  -31.4940   26.2010 C   0  0  0  0  0  1  0  0  0  0  0  0
  -26.9600  -30.3510   24.7330 C   0  0  0  0  0  1  0  0  0  0  0  0
  -27.5520  -32.5160   25.7960 C   0  0  0  0  0  1  0  0  0  0  0  0
  -25.5630  -33.9050   24.1970 N   0  0  0  0  0  0  0  0  0  0  0  0
  -25.8930  -34.9600   23.4400 C   0  0  0  0  0  0  0  0  0  0  0  0
  -26.5510  -34.8600   22.4010 O   0  0  0  0  0  0  0  0  0  0  0  0
  -24.9690  -34.0600   24.9980 H   0  0  0  0  0  0  0  0  0  0  0  0
  -24.1450  -36.7320   23.1350 C   0  0  0  0  0  1  0  0  0  0  0  0
  -25.4130  -36.3460   23.9110 C   0  0  0  0  0  3  0  0  0  0  0  0
  -27.5640  -37.2330   24.6870 C   0  0  0  0  0  1  0  0  0  0  0  0
  -26.4390  -37.4040   23.7710 N   0  0  0  0  0  0  0  0  0  0  0  0
  -26.0370  -38.3240   23.9310 H   0  0  0  0  0  0  0  0  0  0  0  0
  -29.2740  -21.4500   20.6800 C   0  0  0  0  0  2  0  0  0  0  0  0
  -31.1120  -20.1410   19.4640 C   0  0  0  0  0  3  0  0  0  0  0  0
  -31.3220  -17.6930   19.3300 C   0  0  0  0  0  3  0  0  0  0  0  0
  -29.6560  -18.6970   20.7780 C   0  0  0  0  0  3  0  0  0  0  0  0
  -31.7200  -18.9870   18.9400 C   0  0  0  0  0  0  0  0  0  0  0  0
  -30.0240  -20.0570   20.3570 C   0  0  0  0  0  0  0  0  0  0  0  0
  -30.3010  -17.4690   20.2840 C   0  0  0  0  0  0  0  0  0  0  0  0
  -32.7590  -19.1460   17.8530 C   0  0  0  0  0  1  0  0  0  0  0  0
  -30.6090  -14.8380   20.3640 C   0  0  0  0  0  0  0  0  0  0  0  0
  -30.3590  -12.5460   19.3710 C   0  0  0  0  0  2  0  0  0  0  0  0
  -29.4170  -12.5610   18.1460 C   0  0  0  0  0  2  0  0  0  0  0  0
  -27.9510  -12.3860   18.5820 C   0  0  0  0  0  2  0  0  0  0  0  0
  -27.5750  -13.3000   19.7760 C   0  0  0  0  0  3  0  0  0  0  0  0
  -28.6440  -13.2720   20.8910 C   0  0  0  0  0  2  0  0  0  0  0  0
  -29.9330  -13.6320   20.2880 N   0  0  0  0  0  0  0  0  0  0  0  0
  -31.8070  -14.8400   20.0670 O   0  0  0  0  0  0  0  0  0  0  0  0
  -29.9220  -16.0420   20.5940 N   0  0  0  0  0  0  0  0  0  0  0  0
  -28.9650  -15.9160   20.8910 H   0  0  0  0  0  0  0  0  0  0  0  0
  -25.2030  -13.8700   20.5550 C   0  0  0  0  0  0  0  0  0  0  0  0
  -24.1400  -13.0840   20.9320 C   0  0  0  0  0  0  0  0  0  0  0  0
  -24.6100  -11.7380   20.8860 C   0  0  0  0  0  0  0  0  0  0  0  0
  -26.2410  -12.9940   20.2890 N   0  0  0  0  0  0  0  0  0  0  0  0
  -25.8950  -11.7080   20.5570 N   0  0  0  0  0  0  0  0  0  0  0  0
  -23.8910  -10.4680   21.0720 C   0  0  0  0  0  0  0  0  0  0  0  0
  -24.3450   -9.4880   21.9810 C   0  0  0  0  0  3  0  0  0  0  0  0
  -23.6180   -8.2900   22.1610 C   0  0  0  0  0  3  0  0  0  0  0  0
  -22.4310   -8.0610   21.4270 C   0  0  0  0  0  0  0  0  0  0  0  0
  -21.9950   -9.0320   20.5080 C   0  0  0  0  0  3  0  0  0  0  0  0
  -22.7210  -10.2210   20.3270 C   0  0  0  0  0  3  0  0  0  0  0  0
  -21.6760   -6.9150   21.5150 O   0  0  0  0  0  0  0  0  0  0  0  0
  -21.6590   -6.1520   22.6560 C   0  0  0  0  0  0  0  0  0  0  0  0
  -21.2790   -6.6880   23.9050 C   0  0  0  0  0  3  0  0  0  0  0  0
  -21.2080   -5.8500   25.0380 C   0  0  0  0  0  3  0  0  0  0  0  0
  -21.5100   -4.4790   24.9190 C   0  0  0  0  0  0  0  0  0  0  0  0
  -21.8820   -3.9450   23.6750 C   0  0  0  0  0  3  0  0  0  0  0  0
  -21.9540   -4.7790   22.5460 C   0  0  0  0  0  0  0  0  0  0  0  0
  -22.2950   -4.2550   21.3430 F   0  0  0  0  0  0  0  0  0  0  0  0
  -21.4330   -3.6730   26.0040 F   0  0  0  0  0  0  0  0  0  0  0  0
  -22.7460  -13.5560   21.2190 C   0  0  0  0  0  0  0  0  0  0  0  0
  -22.0320  -12.8520   22.0960 N   0  0  0  0  0  0  0  0  0  0  0  0
  -22.2980  -14.5780   20.7040 O   0  0  0  0  0  0  0  0  0  0  0  0
  -22.4080  -12.0230   22.5270 H   0  0  0  0  0  0  0  0  0  0  0  0
  -21.1030  -13.1540   22.3460 H   0  0  0  0  0  0  0  0  0  0  0  0
  -25.3570  -15.2410   20.3960 N   0  0  0  0  0  0  0  0  0  0  0  0
  -24.5870  -15.8840   20.5460 H   0  0  0  0  0  0  0  0  0  0  0  0
  -26.1840  -15.6910   20.0250 H   0  0  0  0  0  0  0  0  0  0  0  0
  2  7  1  0
  2  3  1  0
  2  1  1  0
  3  1  1  0
  3  4  1  1
  7  5  1  6
  7  8  1  0
  7  6  1  0
  9 20  2  0
 10  8  1  0
 10 15  1  0
 11 19  1  0
 11 21  1  0
 12 18  1  0
 12 14  1  0
 13 19  1  0
 14 13  1  0
 15 14  2  0
 16 17  1  0
 16 10  2  0
 17 12  2  0
 18 11  1  0
 19  9  1  0
 21 23  2  0
 22 21  1  0
 24 22  1  0
 25 34  2  0
 25 30  1  0
 26 22  1  0
 26 30  1  0
 27 26  1  0
 28 29  1  0
 28 27  1  0
 29 25  1  0
 30 31  2  0
 31 32  1  0
 33 32  2  0
 34 33  1  0
 35  9  1  0
 35 40  1  0
 35 36  1  0
 36 39  1  1
 36 37  1  0
 38 36  1  0
 40 43  1  0
 41 45  1  0
 41 40  1  0
 42 41  2  0
 45 44  1  0
 47 45  1  0
 47 48  1  0
 47 46  1  0
 49  3  1  0
 50 54  1  0
 51 55  2  0
 53 51  1  0
 53 50  2  0
 54 49  1  0
 54 52  2  0
 55 65  1  0
 55 52  1  0
 56 53  1  0
 57 65  1  0
 58 63  1  0
 59 60  1  0
 59 58  1  0
 61 60  1  0
 61 70  1  0
 61 62  1  0
 63 57  1  0
 63 62  1  0
 64 57  2  0
 65 66  1  0
 67 68  2  0
 68 87  1  0
 69 68  1  0
 69 72  1  0
 70 67  1  0
 70 71  1  0
 71 69  2  0
 72 73  1  0
 73 74  2  0
 75 78  1  0
 75 74  1  0
 76 75  2  0
 77 76  1  0
 77 72  2  0
 78 79  1  0
 79 80  1  0
 80 81  2  0
 82 81  1  0
 82 86  1  0
 83 82  2  0
 84 79  2  0
 84 83  1  0
 85 84  1  0
 87 88  1  0
 88 91  1  0
 88 90  1  0
 89 87  2  0
 92 93  1  0
 92 67  1  0
 94 92  1  0
M  ISO  4   7 101   8 101  57 100  65 100
M  END
>  <TORSDO>  (13) 
F 19

>  <SCORE>  (13) 
-14.367

>  <name>  (13) 
12

>  <ligand_id>  (13) 
12

>  <original_smiles>  (13) 
[H]c1c([H])c([H])c2c(c1[H])C([H])([H])C([H])([H])C([H])([H])C2([H])N([H])C(=O)C1([H])N(C(=O)C([H])(N([H])C(=O)C([H])(N([H])C([H])([H])[H])C([H])([H])[H])C(C([H])([H])[H])(C([H])([H])[H])C([H])([H])[H])C([H])([H])c2c([H])c(OC(C([H])([H])[H])(C([H])([H])[H])C3([H])C([H])([H])[N+]3([H])C([H])([H])c3c([H])c(N([H])C(=O)N4C([H])([H])C([H])([H])C([H])([H])C([H])(n5nc(-c6c([H])c([H])c(Oc7c([H])c([H])c(F)c([H])c7F)c([H])c6[H])c(C(=O)N([H])[H])c5N([H])[H])C4([H])[H])c([H])c(C([H])([H])[H])c3[H])c([H])c([H])c2C1([H])[H]

>  <smiles>  (13) 
[H]c1c([H])c([H])c2c(c1[H])C([H])([H])C([H])([H])C([H])([H])C2([H])N([H])C(=O)C1([H])N(C(=O)C([H])(N([H])C(=O)C([H])(N([H])C([H])([H])[H])C([H])([H])[H])C(C([H])([H])[H])(C([H])([H])[H])C([H])([H])[H])C([H])([H])c2c([H])c(OC(C([H])([H])[H])(C([H])([H])[H])C3([H])C([H])([H])[N+]3([H])C([H])([H])c3c([H])c(N([H])C(=O)N4C([H])([H])C([H])([H])C([H])([H])C([H])(n5nc(-c6c([H])c([H])c(Oc7c([H])c([H])c(F)c([H])c7F)c([H])c6[H])c(C(=O)N([H])[H])c5N([H])[H])C4([H])[H])c([H])c(C([H])([H])[H])c3[H])c([H])c([H])c2C1([H])[H]

$$$$
13:0:0
     RDKit          3D

 95103  0  0  1  0  0  0  0  0999 V2000
  -29.3450  -22.5300   19.0280 C   0  0  0  0  0  1  0  0  0  0  0  0
  -31.0680  -23.5670   20.5620 C   0  0  0  0  0  1  0  0  0  0  0  0
  -29.6140  -23.0220   20.4750 C   0  0  1  0  0  0  0  0  0  0  0  0
  -28.9060  -24.8440   22.2000 C   0  0  0  0  0  1  0  0  0  0  0  0
  -27.1350  -23.6750   20.8990 C   0  0  0  0  0  1  0  0  0  0  0  0
  -28.5880  -24.2180   20.8170 C   0  0  2  0  0  0  0  0  0  0  0  0
  -28.6150  -25.3750   19.7270 C   0  0  0  0  0  2  0  0  0  0  0  0
  -28.5090  -26.7490   20.1640 O   0  0  0  0  0  0  0  0  0  0  0  0
  -24.6130  -31.8460   23.2230 C   0  0  0  0  0  0  0  0  0  0  0  0
  -27.3180  -27.4510   20.1110 C   0  0  0  0  0  0  0  0  0  0  0  0
  -23.4350  -30.4540   21.5530 C   0  0  0  0  0  3  0  0  0  0  0  0
  -24.9130  -28.9530   20.1150 C   0  0  0  0  0  0  0  0  0  0  0  0
  -25.9610  -30.8370   21.3840 C   0  0  0  0  0  2  0  0  0  0  0  0
  -26.0610  -29.4750   20.7210 C   0  0  0  0  0  0  0  0  0  0  0  0
  -27.2640  -28.7310   20.7150 C   0  0  0  0  0  3  0  0  0  0  0  0
  -26.1500  -26.9530   19.4910 C   0  0  0  0  0  3  0  0  0  0  0  0
  -24.9520  -27.6910   19.4990 C   0  0  0  0  0  3  0  0  0  0  0  0
  -23.6610  -29.7970   20.1650 C   0  0  0  0  0  2  0  0  0  0  0  0
  -24.6870  -31.0610   22.1110 N   0  0  0  0  0  0  0  0  0  0  0  0
  -23.5240  -32.1000   23.7580 O   0  0  0  0  0  0  0  0  0  0  0  0
  -22.7900  -29.4130   22.4950 C   0  0  0  0  0  0  0  0  0  0  0  0
  -21.4720  -29.2030   22.3410 N   0  0  0  0  0  0  0  0  0  0  0  0
  -23.4710  -28.7960   23.3180 O   0  0  0  0  0  0  0  0  0  0  0  0
  -20.9850  -29.7530   21.6470 H   0  0  0  0  0  0  0  0  0  0  0  0
  -18.1210  -27.9060   22.7330 C   0  0  0  0  0  0  0  0  0  0  0  0
  -20.6600  -28.2410   23.0870 C   0  0  0  0  0  3  0  0  0  0  0  0
  -20.8250  -26.8150   22.5130 C   0  0  0  0  0  2  0  0  0  0  0  0
  -19.7660  -26.4560   21.4680 C   0  0  0  0  0  2  0  0  0  0  0  0
  -18.3600  -26.5620   22.0670 C   0  0  0  0  0  2  0  0  0  0  0  0
  -19.2020  -28.7020   23.1950 C   0  0  0  0  0  0  0  0  0  0  0  0
  -18.9290  -29.9600   23.7760 C   0  0  0  0  0  3  0  0  0  0  0  0
  -17.6050  -30.4210   23.9040 C   0  0  0  0  0  3  0  0  0  0  0  0
  -16.5380  -29.6210   23.4600 C   0  0  0  0  0  3  0  0  0  0  0  0
  -16.7960  -28.3660   22.8800 C   0  0  0  0  0  3  0  0  0  0  0  0
  -25.8870  -32.4820   23.8620 C   0  0  0  0  0  3  0  0  0  0  0  0
  -25.5690  -33.8790   24.1840 N   0  0  0  0  0  0  0  0  0  0  0  0
  -25.9140  -34.9320   23.4310 C   0  0  0  0  0  0  0  0  0  0  0  0
  -26.6080  -34.8310   22.4150 O   0  0  0  0  0  0  0  0  0  0  0  0
  -24.9600  -34.0320   24.9750 H   0  0  0  0  0  0  0  0  0  0  0  0
  -24.1930  -36.7230   23.0340 C   0  0  0  0  0  1  0  0  0  0  0  0
  -25.4120  -36.3180   23.8770 C   0  0  0  0  0  3  0  0  0  0  0  0
  -27.5250  -37.2070   24.7610 C   0  0  0  0  0  1  0  0  0  0  0  0
  -26.4450  -37.3730   23.7910 N   0  0  0  0  0  0  0  0  0  0  0  0
  -26.0330  -38.2920   23.9310 H   0  0  0  0  0  0  0  0  0  0  0  0
  -26.3900  -31.7150   25.1460 C   0  0  1  0  0  0  0  0  0  0  0  0
  -25.2830  -31.4760   26.2000 C   0  0  0  0  0  1  0  0  0  0  0  0
  -26.9870  -30.3390   24.7650 C   0  0  0  0  0  1  0  0  0  0  0  0
  -27.5250  -32.5190   25.8240 C   0  0  0  0  0  1  0  0  0  0  0  0
  -29.4640  -21.7590   21.4310 C   0  0  0  0  0  2  0  0  0  0  0  0
  -30.5680  -20.3180   23.2300 C   0  0  0  0  0  1  0  0  0  0  0  0
  -30.6650  -20.7850   21.7620 C   0  0  0  0  0  3  0  0  0  0  0  0
  -32.0110  -18.7710   18.7720 C   0  0  0  0  0  3  0  0  0  0  0  0
  -31.6920  -19.8180   19.6470 C   0  0  0  0  0  3  0  0  0  0  0  0
  -31.6070  -17.4610   19.0670 C   0  0  0  0  0  3  0  0  0  0  0  0
  -30.5020  -18.2580   21.0840 C   0  0  0  0  0  3  0  0  0  0  0  0
  -30.9090  -19.5980   20.8000 C   0  0  0  0  0  0  0  0  0  0  0  0
  -30.8870  -17.1710   20.2530 C   0  0  0  0  0  0  0  0  0  0  0  0
  -31.2320  -14.6950   20.3710 C   0  0  0  0  0  0  0  0  0  0  0  0
  -30.9090  -12.4550   19.4210 C   0  0  0  0  0  2  0  0  0  0  0  0
  -30.0160  -12.5900   18.1700 C   0  0  0  0  0  2  0  0  0  0  0  0
  -28.5270  -12.5080   18.5600 C   0  0  0  0  0  2  0  0  0  0  0  0
  -28.1630  -13.4380   19.7490 C   0  0  0  0  0  3  0  0  0  0  0  0
  -29.1860  -13.3120   20.9030 C   0  0  0  0  0  2  0  0  0  0  0  0
  -30.5270  -13.5320   20.3460 N   0  0  0  0  0  0  0  0  0  0  0  0
  -32.4160  -14.7400   20.0300 O   0  0  0  0  0  0  0  0  0  0  0  0
  -30.5250  -15.8240   20.6110 N   0  0  0  0  0  0  0  0  0  0  0  0
  -29.6030  -15.6920   21.0000 H   0  0  0  0  0  0  0  0  0  0  0  0
  -25.7810  -14.1250   20.4350 C   0  0  0  0  0  0  0  0  0  0  0  0
  -24.6780  -13.3910   20.7790 C   0  0  0  0  0  0  0  0  0  0  0  0
  -25.0870  -12.0210   20.7380 C   0  0  0  0  0  0  0  0  0  0  0  0
  -26.7950  -13.2070   20.2080 N   0  0  0  0  0  0  0  0  0  0  0  0
  -26.3800  -11.9360   20.4490 N   0  0  0  0  0  0  0  0  0  0  0  0
  -24.3090  -10.7870   20.9010 C   0  0  0  0  0  0  0  0  0  0  0  0
  -24.6690   -9.8060   21.8510 C   0  0  0  0  0  3  0  0  0  0  0  0
  -23.8950   -8.6370   22.0020 C   0  0  0  0  0  3  0  0  0  0  0  0
  -22.7460   -8.4380   21.2000 C   0  0  0  0  0  0  0  0  0  0  0  0
  -22.4050   -9.4060   20.2390 C   0  0  0  0  0  3  0  0  0  0  0  0
  -23.1790  -10.5670   20.0860 C   0  0  0  0  0  3  0  0  0  0  0  0
  -21.9480   -7.3210   21.2590 O   0  0  0  0  0  0  0  0  0  0  0  0
  -21.7840   -6.6130   22.4240 C   0  0  0  0  0  0  0  0  0  0  0  0
  -21.2800   -7.2140   23.5970 C   0  0  0  0  0  3  0  0  0  0  0  0
  -21.0630   -6.4330   24.7510 C   0  0  0  0  0  3  0  0  0  0  0  0
  -21.3410   -5.0540   24.7310 C   0  0  0  0  0  0  0  0  0  0  0  0
  -21.8370   -4.4520   23.5610 C   0  0  0  0  0  3  0  0  0  0  0  0
  -22.0560   -5.2300   22.4090 C   0  0  0  0  0  0  0  0  0  0  0  0
  -22.5150   -4.6400   21.2800 F   0  0  0  0  0  0  0  0  0  0  0  0
  -21.1250   -4.3020   25.8350 F   0  0  0  0  0  0  0  0  0  0  0  0
  -23.2970  -13.9180   21.0370 C   0  0  0  0  0  0  0  0  0  0  0  0
  -22.5350  -13.2530   21.8990 N   0  0  0  0  0  0  0  0  0  0  0  0
  -22.9000  -14.9570   20.5090 O   0  0  0  0  0  0  0  0  0  0  0  0
  -22.8660  -12.4130   22.3490 H   0  0  0  0  0  0  0  0  0  0  0  0
  -21.6060  -13.5890   22.1110 H   0  0  0  0  0  0  0  0  0  0  0  0
  -26.0020  -15.4910   20.2760 N   0  0  0  0  0  0  0  0  0  0  0  0
  -25.2580  -16.1740   20.3720 H   0  0  0  0  0  0  0  0  0  0  0  0
  -26.8740  -15.8970   19.9600 H   0  0  0  0  0  0  0  0  0  0  0  0
  3  1  1  6
  3  2  1  0
  3  6  1  0
  3 49  1  0
  6  5  1  1
  6  4  1  0
  7  8  1  0
  7  6  1  0
  9 20  2  0
 10  8  1  0
 10 15  1  0
 11 19  1  0
 11 21  1  0
 12 18  1  0
 12 14  1  0
 13 19  1  0
 14 13  1  0
 15 14  2  0
 16 17  1  0
 16 10  2  0
 17 12  2  0
 18 11  1  0
 19  9  1  0
 21 23  2  0
 22 21  1  0
 24 22  1  0
 25 34  2  0
 25 30  1  0
 26 22  1  0
 26 30  1  0
 27 26  1  0
 28 29  1  0
 28 27  1  0
 29 25  1  0
 30 31  2  0
 31 32  1  0
 33 32  2  0
 34 33  1  0
 35  9  1  0
 35 36  1  0
 35 45  1  0
 36 39  1  0
 37 41  1  0
 37 36  1  0
 38 37  2  0
 41 40  1  0
 43 41  1  0
 43 44  1  0
 43 42  1  0
 45 48  1  1
 45 46  1  0
 47 45  1  0
 49 51  1  0
 51 50  1  0
 52 54  2  0
 52 53  1  0
 53 56  2  0
 54 57  1  0
 56 55  1  0
 56 51  1  0
 57 66  1  0
 57 55  2  0
 58 66  1  0
 59 64  1  0
 60 61  1  0
 60 59  1  0
 62 61  1  0
 62 71  1  0
 62 63  1  0
 64 58  1  0
 64 63  1  0
 65 58  2  0
 66 67  1  0
 68 69  2  0
 69 88  1  0
 70 69  1  0
 70 73  1  0
 71 68  1  0
 71 72  1  0
 72 70  2  0
 73 74  1  0
 74 75  2  0
 76 79  1  0
 76 75  1  0
 77 76  2  0
 78 77  1  0
 78 73  2  0
 79 80  1  0
 80 81  1  0
 81 82  2  0
 83 82  1  0
 83 87  1  0
 84 83  2  0
 85 80  2  0
 85 84  1  0
 86 85  1  0
 88 89  1  0
 89 92  1  0
 89 91  1  0
 90 88  2  0
 93 94  1  0
 93 68  1  0
 95 93  1  0
M  ISO  4   7 101   8 101  58 100  66 100
M  END
>  <TORSDO>  (14) 
F 21

>  <SCORE>  (14) 
-13.325

>  <name>  (14) 
13

>  <ligand_id>  (14) 
13

>  <original_smiles>  (14) 
[H]c1c([H])c([H])c2c(c1[H])C([H])([H])C([H])([H])C([H])([H])C2([H])N([H])C(=O)C1([H])N(C(=O)C([H])(N([H])C(=O)C([H])(N([H])C([H])([H])[H])C([H])([H])[H])C(C([H])([H])[H])(C([H])([H])[H])C([H])([H])[H])C([H])([H])c2c([H])c(OC([H])([H])C(C([H])([H])[H])(C([H])([H])[H])C(C([H])([H])[H])(C([H])([H])[H])C([H])([H])C([H])(c3c([H])c([H])c([H])c(N([H])C(=O)N4C([H])([H])C([H])([H])C([H])([H])C([H])(n5nc(-c6c([H])c([H])c(Oc7c([H])c([H])c(F)c([H])c7F)c([H])c6[H])c(C(=O)N([H])[H])c5N([H])[H])C4([H])[H])c3[H])C([H])([H])[H])c([H])c([H])c2C1([H])[H]

>  <smiles>  (14) 
[H]c1c([H])c([H])c2c(c1[H])C([H])([H])C([H])([H])C([H])([H])C2([H])N([H])C(=O)C1([H])N(C(=O)C([H])(N([H])C(=O)C([H])(N([H])C([H])([H])[H])C([H])([H])[H])C(C([H])([H])[H])(C([H])([H])[H])C([H])([H])[H])C([H])([H])c2c([H])c(OC([H])([H])C(C([H])([H])[H])(C([H])([H])[H])C(C([H])([H])[H])(C([H])([H])[H])C([H])([H])C([H])(c3c([H])c([H])c([H])c(N([H])C(=O)N4C([H])([H])C([H])([H])C([H])([H])C([H])(n5nc(-c6c([H])c([H])c(Oc7c([H])c([H])c(F)c([H])c7F)c([H])c6[H])c(C(=O)N([H])[H])c5N([H])[H])C4([H])[H])c3[H])C([H])([H])[H])c([H])c([H])c2C1([H])[H]

$$$$
14:0:0
     RDKit          3D

 97105  0  0  1  0  0  0  0  0999 V2000
  -29.2350  -22.5240   20.0770 C   0  0  0  0  0  0  0  0  0  0  0  0
  -29.7490  -21.3600   19.5020 N   0  0  0  0  0  0  0  0  0  0  0  0
  -28.6500  -22.4570   21.1610 O   0  0  0  0  0  0  0  0  0  0  0  0
  -30.0120  -21.4590   18.5310 H   0  0  0  0  0  0  0  0  0  0  0  0
  -30.4240  -20.0460   21.5080 C   0  0  0  0  0  3  0  0  0  0  0  0
  -30.2670  -18.7710   19.4560 C   0  0  0  0  0  3  0  0  0  0  0  0
  -30.8730  -18.8950   22.1980 C   0  0  0  0  0  0  0  0  0  0  0  0
  -31.0390  -17.6540   21.5050 C   0  0  0  0  0  0  0  0  0  0  0  0
  -30.1210  -20.0550   20.1310 C   0  0  0  0  0  0  0  0  0  0  0  0
  -30.7050  -17.5470   20.1220 C   0  0  0  0  0  0  0  0  0  0  0  0
  -31.5360  -16.4150   22.2560 C   0  0  0  0  0  1  0  0  0  0  0  0
  -31.3570  -15.0540   19.4660 C   0  0  0  0  0  0  0  0  0  0  0  0
  -31.0390  -12.7310   18.5740 C   0  0  0  0  0  2  0  0  0  0  0  0
  -30.0000  -12.7500   17.4280 C   0  0  0  0  0  2  0  0  0  0  0  0
  -28.5620  -12.6580   17.9800 C   0  0  0  0  0  2  0  0  0  0  0  0
  -28.3110  -13.6360   19.1590 C   0  0  0  0  0  3  0  0  0  0  0  0
  -29.4490  -13.5560   20.1990 C   0  0  0  0  0  2  0  0  0  0  0  0
  -30.7040  -13.8420   19.4890 N   0  0  0  0  0  0  0  0  0  0  0  0
  -32.5330  -15.1250   19.0950 O   0  0  0  0  0  0  0  0  0  0  0  0
  -30.5480  -16.1780   19.5640 N   0  0  0  0  0  0  0  0  0  0  0  0
  -29.5840  -15.8880   19.5630 H   0  0  0  0  0  0  0  0  0  0  0  0
  -26.0620  -14.3910   20.1400 C   0  0  0  0  0  0  0  0  0  0  0  0
  -24.9680  -13.6920   20.5730 C   0  0  0  0  0  0  0  0  0  0  0  0
  -25.3050  -12.3110   20.4360 C   0  0  0  0  0  0  0  0  0  0  0  0
  -26.9960  -13.4410   19.7630 N   0  0  0  0  0  0  0  0  0  0  0  0
  -26.5530  -12.1800   20.0050 N   0  0  0  0  0  0  0  0  0  0  0  0
  -24.4890  -11.1060   20.6330 C   0  0  0  0  0  0  0  0  0  0  0  0
  -24.8740  -10.0930   21.5380 C   0  0  0  0  0  3  0  0  0  0  0  0
  -24.0640   -8.9530   21.7230 C   0  0  0  0  0  3  0  0  0  0  0  0
  -22.8530   -8.8180   21.0030 C   0  0  0  0  0  0  0  0  0  0  0  0
  -22.4860   -9.8180   20.0850 C   0  0  0  0  0  3  0  0  0  0  0  0
  -23.2970  -10.9500   19.8980 C   0  0  0  0  0  3  0  0  0  0  0  0
  -22.0140   -7.7350   21.1010 O   0  0  0  0  0  0  0  0  0  0  0  0
  -21.8420   -7.0610   22.2840 C   0  0  0  0  0  0  0  0  0  0  0  0
  -21.3640   -7.7060   23.4440 C   0  0  0  0  0  3  0  0  0  0  0  0
  -21.1360   -6.9640   24.6200 C   0  0  0  0  0  3  0  0  0  0  0  0
  -21.3750   -5.5770   24.6350 C   0  0  0  0  0  0  0  0  0  0  0  0
  -21.8450   -4.9310   23.4780 C   0  0  0  0  0  3  0  0  0  0  0  0
  -22.0760   -5.6710   22.3050 C   0  0  0  0  0  0  0  0  0  0  0  0
  -22.5090   -5.0410   21.1870 F   0  0  0  0  0  0  0  0  0  0  0  0
  -21.1490   -4.8610   25.7610 F   0  0  0  0  0  0  0  0  0  0  0  0
  -23.6480  -14.2710   20.9940 C   0  0  0  0  0  0  0  0  0  0  0  0
  -22.9810  -13.6400   21.9550 N   0  0  0  0  0  0  0  0  0  0  0  0
  -23.2220  -15.3160   20.5060 O   0  0  0  0  0  0  0  0  0  0  0  0
  -23.3420  -12.7940   22.3690 H   0  0  0  0  0  0  0  0  0  0  0  0
  -22.1000  -14.0100   22.2810 H   0  0  0  0  0  0  0  0  0  0  0  0
  -26.3240  -15.7520   20.0110 N   0  0  0  0  0  0  0  0  0  0  0  0
  -25.6190  -16.4500   20.2220 H   0  0  0  0  0  0  0  0  0  0  0  0
  -27.1510  -16.1480   19.5820 H   0  0  0  0  0  0  0  0  0  0  0  0
  -31.0340  -19.0190   23.6850 C   0  0  0  0  0  0  0  0  0  0  0  0
  -31.4570  -20.3690   24.2660 C   0  0  0  0  0  1  0  0  0  0  0  0
  -30.8530  -18.0850   24.4700 O   0  0  0  0  0  0  0  0  0  0  0  0
  -29.2860  -23.8470   17.8720 C   0  0  0  0  0  1  0  0  0  0  0  0
  -30.7200  -24.5550   19.8040 C   0  0  0  0  0  1  0  0  0  0  0  0
  -29.3410  -23.9950   19.4050 C   0  0  2  0  0  0  0  0  0  0  0  0
  -28.2500  -25.1170   19.8690 C   0  0  0  0  0  2  0  0  0  0  0  0
  -28.4930  -26.6100   19.7890 O   0  0  0  0  0  0  0  0  0  0  0  0
  -24.6880  -31.9130   23.0210 C   0  0  0  0  0  0  0  0  0  0  0  0
  -27.3780  -27.4870   19.7800 C   0  0  0  0  0  0  0  0  0  0  0  0
  -23.5150  -30.5670   21.3210 C   0  0  0  0  0  3  0  0  0  0  0  0
  -24.9930  -29.1050   19.8320 C   0  0  0  0  0  0  0  0  0  0  0  0
  -26.0540  -30.9230   21.1630 C   0  0  0  0  0  2  0  0  0  0  0  0
  -26.1590  -29.5720   20.4540 C   0  0  0  0  0  0  0  0  0  0  0  0
  -27.3530  -28.7790   20.4130 C   0  0  0  0  0  3  0  0  0  0  0  0
  -26.1810  -27.0940   19.1370 C   0  0  0  0  0  3  0  0  0  0  0  0
  -25.0120  -27.8740   19.1620 C   0  0  0  0  0  3  0  0  0  0  0  0
  -23.7440  -29.9600   19.9130 C   0  0  0  0  0  2  0  0  0  0  0  0
  -24.7710  -31.1510   21.8920 N   0  0  0  0  0  0  0  0  0  0  0  0
  -23.6000  -32.1480   23.5660 O   0  0  0  0  0  0  0  0  0  0  0  0
  -22.8670  -29.4970   22.2320 C   0  0  0  0  0  0  0  0  0  0  0  0
  -21.5360  -29.3370   22.1320 N   0  0  0  0  0  0  0  0  0  0  0  0
  -23.5600  -28.8170   22.9930 O   0  0  0  0  0  0  0  0  0  0  0  0
  -21.0340  -29.9420   21.4960 H   0  0  0  0  0  0  0  0  0  0  0  0
  -18.1560  -28.1800   22.7060 C   0  0  0  0  0  0  0  0  0  0  0  0
  -20.7290  -28.3600   22.8650 C   0  0  0  0  0  3  0  0  0  0  0  0
  -20.7650  -26.9770   22.1760 C   0  0  0  0  0  2  0  0  0  0  0  0
  -19.6080  -26.7630   21.1950 C   0  0  0  0  0  2  0  0  0  0  0  0
  -18.2640  -26.8860   21.9170 C   0  0  0  0  0  2  0  0  0  0  0  0
  -19.3120  -28.8810   23.1370 C   0  0  0  0  0  0  0  0  0  0  0  0
  -19.1570  -30.0970   23.8360 C   0  0  0  0  0  3  0  0  0  0  0  0
  -17.8750  -30.6120   24.1080 C   0  0  0  0  0  3  0  0  0  0  0  0
  -16.7310  -29.9070   23.6900 C   0  0  0  0  0  3  0  0  0  0  0  0
  -16.8730  -28.6930   22.9950 C   0  0  0  0  0  3  0  0  0  0  0  0
  -25.9580  -32.5420   23.6730 C   0  0  0  0  0  3  0  0  0  0  0  0
  -26.4890  -31.7240   24.9130 C   0  0  1  0  0  0  0  0  0  0  0  0
  -25.3950  -31.4000   25.9570 C   0  0  0  0  0  1  0  0  0  0  0  0
  -27.1190  -30.3880   24.4580 C   0  0  0  0  0  1  0  0  0  0  0  0
  -27.6090  -32.5190   25.6230 C   0  0  0  0  0  1  0  0  0  0  0  0
  -25.6210  -33.9170   24.0690 N   0  0  0  0  0  0  0  0  0  0  0  0
  -26.0300  -35.0180   23.4260 C   0  0  0  0  0  0  0  0  0  0  0  0
  -26.7970  -34.9820   22.4600 O   0  0  0  0  0  0  0  0  0  0  0  0
  -24.9480  -34.0180   24.8160 H   0  0  0  0  0  0  0  0  0  0  0  0
  -24.3260  -36.8350   23.0560 C   0  0  0  0  0  1  0  0  0  0  0  0
  -25.5010  -36.3750   23.9330 C   0  0  0  0  0  3  0  0  0  0  0  0
  -27.5650  -37.1980   24.9810 C   0  0  0  0  0  1  0  0  0  0  0  0
  -26.5350  -37.4320   23.9730 N   0  0  0  0  0  0  0  0  0  0  0  0
  -26.1170  -38.3400   24.1520 H   0  0  0  0  0  0  0  0  0  0  0  0
  1  3  2  0
  2  1  1  0
  2  9  1  0
  4  2  1  0
  5  7  1  0
  6 10  2  0
  6  9  1  0
  7 50  1  0
  8  7  2  0
  8 11  1  0
  9  5  2  0
 10  8  1  0
 12 18  1  0
 12 20  1  0
 13 18  1  0
 14 15  1  0
 14 13  1  0
 16 15  1  0
 16 25  1  0
 16 17  1  0
 18 17  1  0
 19 12  2  0
 20 10  1  0
 21 20  1  0
 22 23  2  0
 23 42  1  0
 24 23  1  0
 24 27  1  0
 25 26  1  0
 25 22  1  0
 26 24  2  0
 27 28  1  0
 28 29  2  0
 30 33  1  0
 30 29  1  0
 31 30  2  0
 32 31  1  0
 32 27  2  0
 33 34  1  0
 34 39  2  0
 34 35  1  0
 35 36  2  0
 36 37  1  0
 37 41  1  0
 38 37  2  0
 39 38  1  0
 40 39  1  0
 42 43  1  0
 43 46  1  0
 43 45  1  0
 44 42  2  0
 47 22  1  0
 47 48  1  0
 49 47  1  0
 50 51  1  0
 50 52  2  0
 55 53  1  6
 55 54  1  0
 55 56  1  0
 55  1  1  0
 57 56  1  0
 58 69  2  0
 59 57  1  0
 59 64  1  0
 60 68  1  0
 60 70  1  0
 61 67  1  0
 61 63  1  0
 62 68  1  0
 63 62  1  0
 64 63  2  0
 65 66  1  0
 65 59  2  0
 66 61  2  0
 67 60  1  0
 68 58  1  0
 70 72  2  0
 71 70  1  0
 73 71  1  0
 74 83  2  0
 74 79  1  0
 75 71  1  0
 75 79  1  0
 76 75  1  0
 77 78  1  0
 77 76  1  0
 78 74  1  0
 79 80  2  0
 80 81  1  0
 82 81  2  0
 83 82  1  0
 84 58  1  0
 84 89  1  0
 84 85  1  0
 85 88  1  1
 85 86  1  0
 87 85  1  0
 89 92  1  0
 90 94  1  0
 90 89  1  0
 91 90  2  0
 94 93  1  0
 94 96  1  0
 96 97  1  0
 96 95  1  0
M  ISO  4  12 100  20 100  56 101  57 101
M  END
>  <TORSDO>  (15) 
F 20

>  <SCORE>  (15) 
-11.063

>  <name>  (15) 
14

>  <ligand_id>  (15) 
14

>  <original_smiles>  (15) 
[H]c1c([H])c([H])c2c(c1[H])C([H])([H])C([H])([H])C([H])([H])C2([H])N([H])C(=O)C1([H])N(C(=O)C([H])(N([H])C(=O)C([H])(N([H])C([H])([H])[H])C([H])([H])[H])C(C([H])([H])[H])(C([H])([H])[H])C([H])([H])[H])C([H])([H])c2c([H])c(OC([H])([H])C(C(=O)N([H])c3c([H])c(C(=O)C([H])([H])[H])c(C([H])([H])[H])c(N([H])C(=O)N4C([H])([H])C([H])([H])C([H])([H])C([H])(n5nc(-c6c([H])c([H])c(Oc7c([H])c([H])c(F)c([H])c7F)c([H])c6[H])c(C(=O)N([H])[H])c5N([H])[H])C4([H])[H])c3[H])(C([H])([H])[H])C([H])([H])[H])c([H])c([H])c2C1([H])[H]

>  <smiles>  (15) 
[H]c1c([H])c([H])c2c(c1[H])C([H])([H])C([H])([H])C([H])([H])C2([H])N([H])C(=O)C1([H])N(C(=O)C([H])(N([H])C(=O)C([H])(N([H])C([H])([H])[H])C([H])([H])[H])C(C([H])([H])[H])(C([H])([H])[H])C([H])([H])[H])C([H])([H])c2c([H])c(OC([H])([H])C(C(=O)N([H])c3c([H])c(C(=O)C([H])([H])[H])c(C([H])([H])[H])c(N([H])C(=O)N4C([H])([H])C([H])([H])C([H])([H])C([H])(n5nc(-c6c([H])c([H])c(Oc7c([H])c([H])c(F)c([H])c7F)c([H])c6[H])c(C(=O)N([H])[H])c5N([H])[H])C4([H])[H])c3[H])(C([H])([H])[H])C([H])([H])[H])c([H])c([H])c2C1([H])[H]

$$$$
15:0:0
     RDKit          3D

 98106  0  0  1  0  0  0  0  0999 V2000
  -29.5280  -22.0310   20.0270 C   0  0  0  0  0  3  0  0  0  0  0  0
  -28.9690  -20.7940   19.8630 C   0  0  0  0  0  0  0  0  0  0  0  0
  -30.9270  -19.7280   18.8000 C   0  0  0  0  0  3  0  0  0  0  0  0
  -31.6630  -18.6290   18.3500 C   0  0  0  0  0  3  0  0  0  0  0  0
  -29.5450  -18.2370   20.1360 C   0  0  0  0  0  3  0  0  0  0  0  0
  -29.8200  -19.5640   19.6570 C   0  0  0  0  0  0  0  0  0  0  0  0
  -31.3360  -17.3260   18.7560 C   0  0  0  0  0  0  0  0  0  0  0  0
  -30.3090  -17.0890   19.7240 C   0  0  0  0  0  0  0  0  0  0  0  0
  -30.6660  -14.5980   20.2660 C   0  0  0  0  0  0  0  0  0  0  0  0
  -30.3440  -12.3730   19.2760 C   0  0  0  0  0  2  0  0  0  0  0  0
  -29.4210  -12.5350   18.0530 C   0  0  0  0  0  2  0  0  0  0  0  0
  -27.9430  -12.4170   18.4760 C   0  0  0  0  0  2  0  0  0  0  0  0
  -27.5930  -13.2870   19.7170 C   0  0  0  0  0  3  0  0  0  0  0  0
  -28.6550  -13.1620   20.8320 C   0  0  0  0  0  2  0  0  0  0  0  0
  -29.9660  -13.4280   20.2310 N   0  0  0  0  0  0  0  0  0  0  0  0
  -31.8860  -14.5970   20.1180 O   0  0  0  0  0  0  0  0  0  0  0  0
  -29.9420  -15.7560   20.2150 N   0  0  0  0  0  0  0  0  0  0  0  0
  -28.9720  -15.6420   20.4640 H   0  0  0  0  0  0  0  0  0  0  0  0
  -25.2030  -13.8830   20.4500 C   0  0  0  0  0  0  0  0  0  0  0  0
  -24.1370  -13.1100   20.8240 C   0  0  0  0  0  0  0  0  0  0  0  0
  -24.5990  -11.7590   20.7990 C   0  0  0  0  0  0  0  0  0  0  0  0
  -26.2470  -13.0040   20.2130 N   0  0  0  0  0  0  0  0  0  0  0  0
  -25.8900  -11.7210   20.4850 N   0  0  0  0  0  0  0  0  0  0  0  0
  -23.8730  -10.4970   20.9930 C   0  0  0  0  0  0  0  0  0  0  0  0
  -24.2950   -9.5360   21.9380 C   0  0  0  0  0  3  0  0  0  0  0  0
  -23.5650   -8.3420   22.1200 C   0  0  0  0  0  3  0  0  0  0  0  0
  -22.3980   -8.0990   21.3570 C   0  0  0  0  0  0  0  0  0  0  0  0
  -21.9960   -9.0480   20.4000 C   0  0  0  0  0  3  0  0  0  0  0  0
  -22.7270  -10.2340   20.2160 C   0  0  0  0  0  3  0  0  0  0  0  0
  -21.6430   -6.9550   21.4450 O   0  0  0  0  0  0  0  0  0  0  0  0
  -21.5740   -6.2260   22.6060 C   0  0  0  0  0  0  0  0  0  0  0  0
  -21.1060   -6.7890   23.8120 C   0  0  0  0  0  3  0  0  0  0  0  0
  -20.9830   -5.9870   24.9640 C   0  0  0  0  0  3  0  0  0  0  0  0
  -21.3230   -4.6220   24.9120 C   0  0  0  0  0  0  0  0  0  0  0  0
  -21.7890   -4.0580   23.7110 C   0  0  0  0  0  3  0  0  0  0  0  0
  -21.9100   -4.8580   22.5610 C   0  0  0  0  0  0  0  0  0  0  0  0
  -22.3370   -4.3050   21.4010 F   0  0  0  0  0  0  0  0  0  0  0  0
  -21.2000   -3.8490   26.0160 F   0  0  0  0  0  0  0  0  0  0  0  0
  -22.7400  -13.5900   21.0940 C   0  0  0  0  0  0  0  0  0  0  0  0
  -22.0080  -12.8970   21.9590 N   0  0  0  0  0  0  0  0  0  0  0  0
  -22.3050  -14.6180   20.5760 O   0  0  0  0  0  0  0  0  0  0  0  0
  -22.3690  -12.0680   22.4050 H   0  0  0  0  0  0  0  0  0  0  0  0
  -21.0710  -13.2030   22.1800 H   0  0  0  0  0  0  0  0  0  0  0  0
  -25.3620  -15.2530   20.2680 N   0  0  0  0  0  0  0  0  0  0  0  0
  -24.5860  -15.8980   20.3740 H   0  0  0  0  0  0  0  0  0  0  0  0
  -26.1960  -15.6970   19.9070 H   0  0  0  0  0  0  0  0  0  0  0  0
  -32.0440  -16.3190   18.1090 N   0  0  0  0  0  0  0  0  0  0  0  0
  -32.9310  -16.5920   17.7020 H   0  0  0  0  0  0  0  0  0  0  0  0
  -32.1640  -15.4990   18.7140 H   0  0  0  0  0  0  0  0  0  0  0  0
  -27.0720  -20.4930   18.2120 C   0  0  0  0  0  1  0  0  0  0  0  0
  -27.4690  -20.6040   19.6900 C   0  0  0  0  0  2  0  0  0  0  0  0
  -29.7410  -24.1840   18.8060 C   0  0  0  0  0  1  0  0  0  0  0  0
  -28.9020  -23.4420   19.8590 C   0  0  0  0  0  3  0  0  0  0  0  0
  -28.6550  -24.2400   21.1920 C   0  0  0  0  0  2  0  0  0  0  0  0
  -30.3590  -26.1370   21.5730 C   0  0  0  0  0  1  0  0  0  0  0  0
  -28.1570  -26.2100   22.6820 C   0  0  0  0  0  1  0  0  0  0  0  0
  -28.8680  -25.8070   21.3660 C   0  0  2  0  0  0  0  0  0  0  0  0
  -28.4840  -26.6530   20.2440 O   0  0  0  0  0  0  0  0  0  0  0  0
  -24.6050  -31.9010   23.2360 C   0  0  0  0  0  0  0  0  0  0  0  0
  -27.3310  -27.4190   20.2700 C   0  0  0  0  0  0  0  0  0  0  0  0
  -23.4420  -30.4800   21.5790 C   0  0  0  0  0  3  0  0  0  0  0  0
  -24.9340  -28.9320   20.1990 C   0  0  0  0  0  0  0  0  0  0  0  0
  -25.9700  -30.8450   21.4320 C   0  0  0  0  0  2  0  0  0  0  0  0
  -26.0780  -29.4650   20.8080 C   0  0  0  0  0  0  0  0  0  0  0  0
  -27.2830  -28.7200   20.8320 C   0  0  0  0  0  3  0  0  0  0  0  0
  -26.1770  -26.9110   19.6420 C   0  0  0  0  0  3  0  0  0  0  0  0
  -24.9810  -27.6570   19.6080 C   0  0  0  0  0  3  0  0  0  0  0  0
  -23.6850  -29.7860   20.2110 C   0  0  0  0  0  2  0  0  0  0  0  0
  -24.6900  -31.0910   22.1410 N   0  0  0  0  0  0  0  0  0  0  0  0
  -23.5100  -32.1710   23.7500 O   0  0  0  0  0  0  0  0  0  0  0  0
  -22.7750  -29.4630   22.5350 C   0  0  0  0  0  0  0  0  0  0  0  0
  -21.4530  -29.2800   22.3880 N   0  0  0  0  0  0  0  0  0  0  0  0
  -23.4450  -28.8430   23.3650 O   0  0  0  0  0  0  0  0  0  0  0  0
  -20.9750  -29.8330   21.6890 H   0  0  0  0  0  0  0  0  0  0  0  0
  -18.0690  -28.0950   22.8480 C   0  0  0  0  0  0  0  0  0  0  0  0
  -20.6250  -28.3440   23.1480 C   0  0  0  0  0  3  0  0  0  0  0  0
  -20.7280  -26.9140   22.5680 C   0  0  0  0  0  2  0  0  0  0  0  0
  -19.6370  -26.5980   21.5420 C   0  0  0  0  0  2  0  0  0  0  0  0
  -18.2480  -26.7460   22.1730 C   0  0  0  0  0  2  0  0  0  0  0  0
  -19.1860  -28.8520   23.2920 C   0  0  0  0  0  0  0  0  0  0  0  0
  -18.9670  -30.1150   23.8820 C   0  0  0  0  0  3  0  0  0  0  0  0
  -17.6630  -30.6220   24.0360 C   0  0  0  0  0  3  0  0  0  0  0  0
  -16.5590  -29.8610   23.6090 C   0  0  0  0  0  3  0  0  0  0  0  0
  -16.7640  -28.6000   23.0220 C   0  0  0  0  0  3  0  0  0  0  0  0
  -25.8720  -32.5450   23.8780 C   0  0  0  0  0  3  0  0  0  0  0  0
  -25.5490  -33.9440   24.1890 N   0  0  0  0  0  0  0  0  0  0  0  0
  -25.8920  -34.9920   23.4280 C   0  0  0  0  0  0  0  0  0  0  0  0
  -26.5830  -34.8840   22.4120 O   0  0  0  0  0  0  0  0  0  0  0  0
  -24.9350  -34.1010   24.9740 H   0  0  0  0  0  0  0  0  0  0  0  0
  -24.1660  -36.7770   23.0160 C   0  0  0  0  0  1  0  0  0  0  0  0
  -25.3860  -36.3810   23.8630 C   0  0  0  0  0  3  0  0  0  0  0  0
  -27.4900  -37.2830   24.7500 C   0  0  0  0  0  1  0  0  0  0  0  0
  -26.4170  -37.4380   23.7730 N   0  0  0  0  0  0  0  0  0  0  0  0
  -26.0030  -38.3570   23.9020 H   0  0  0  0  0  0  0  0  0  0  0  0
  -26.3700  -31.7860   25.1690 C   0  0  1  0  0  0  0  0  0  0  0  0
  -25.2580  -31.5460   26.2170 C   0  0  0  0  0  1  0  0  0  0  0  0
  -26.9730  -30.4110   24.7960 C   0  0  0  0  0  1  0  0  0  0  0  0
  -27.5000  -32.5970   25.8470 C   0  0  0  0  0  1  0  0  0  0  0  0
  2  1  2  0
  3  6  1  0
  4  7  1  0
  4  3  2  0
  6  2  1  0
  6  5  2  0
  7  8  2  0
  8  5  1  0
  8 17  1  0
 10 15  1  0
 11 12  1  0
 11 10  1  0
 13 12  1  0
 13 22  1  0
 13 14  1  0
 15  9  1  0
 15 14  1  0
 16  9  2  0
 17  9  1  0
 17 18  1  0
 19 20  2  0
 20 39  1  0
 21 20  1  0
 21 24  1  0
 22 19  1  0
 22 23  1  0
 23 21  2  0
 24 25  1  0
 25 26  2  0
 27 30  1  0
 27 26  1  0
 28 27  2  0
 29 28  1  0
 29 24  2  0
 30 31  1  0
 31 32  1  0
 32 33  2  0
 34 33  1  0
 34 38  1  0
 35 34  2  0
 36 31  2  0
 36 35  1  0
 37 36  1  0
 39 40  1  0
 40 43  1  0
 40 42  1  0
 41 39  2  0
 44 45  1  0
 44 19  1  0
 46 44  1  0
 47 49  1  0
 47  7  1  0
 48 47  1  0
 50 51  1  0
 51  2  1  0
 53 52  1  0
 53  1  1  0
 53 54  1  0
 54 57  1  0
 57 55  1  1
 57 56  1  0
 58 60  1  0
 58 57  1  0
 59 70  2  0
 60 65  1  0
 61 69  1  0
 61 71  1  0
 62 68  1  0
 62 64  1  0
 63 69  1  0
 64 65  2  0
 64 63  1  0
 66 60  2  0
 67 66  1  0
 67 62  2  0
 68 61  1  0
 69 59  1  0
 71 73  2  0
 72 71  1  0
 74 72  1  0
 75 84  2  0
 75 80  1  0
 76 72  1  0
 76 80  1  0
 77 76  1  0
 78 79  1  0
 78 77  1  0
 79 75  1  0
 80 81  2  0
 81 82  1  0
 83 82  2  0
 84 83  1  0
 85 59  1  0
 85 86  1  0
 85 95  1  0
 86 89  1  0
 87 91  1  0
 87 86  1  0
 88 87  2  0
 91 90  1  0
 93 91  1  0
 93 94  1  0
 93 92  1  0
 95 98  1  1
 95 96  1  0
 97 95  1  0
M  ISO  4   9 100  17 100  57 101  58 101
M  END
>  <TORSDO>  (16) 
F 22

>  <SCORE>  (16) 
-13.585

>  <name>  (16) 
15

>  <ligand_id>  (16) 
15

>  <original_smiles>  (16) 
[H]C(=C(c1c([H])c([H])c(N([H])[H])c(N([H])C(=O)N2C([H])([H])C([H])([H])C([H])([H])C([H])(n3nc(-c4c([H])c([H])c(Oc5c([H])c([H])c(F)c([H])c5F)c([H])c4[H])c(C(=O)N([H])[H])c3N([H])[H])C2([H])[H])c1[H])C([H])([H])C([H])([H])[H])C([H])(C([H])([H])[H])C([H])([H])C(Oc1c([H])c([H])c2c(c1[H])C([H])([H])N(C(=O)C([H])(N([H])C(=O)C([H])(N([H])C([H])([H])[H])C([H])([H])[H])C(C([H])([H])[H])(C([H])([H])[H])C([H])([H])[H])C([H])(C(=O)N([H])C1([H])c3c([H])c([H])c([H])c([H])c3C([H])([H])C([H])([H])C1([H])[H])C2([H])[H])(C([H])([H])[H])C([H])([H])[H]

>  <smiles>  (16) 
[H]C(=C(c1c([H])c([H])c(N([H])[H])c(N([H])C(=O)N2C([H])([H])C([H])([H])C([H])([H])C([H])(n3nc(-c4c([H])c([H])c(Oc5c([H])c([H])c(F)c([H])c5F)c([H])c4[H])c(C(=O)N([H])[H])c3N([H])[H])C2([H])[H])c1[H])C([H])([H])C([H])([H])[H])C([H])(C([H])([H])[H])C([H])([H])C(Oc1c([H])c([H])c2c(c1[H])C([H])([H])N(C(=O)C([H])(N([H])C(=O)C([H])(N([H])C([H])([H])[H])C([H])([H])[H])C(C([H])([H])[H])(C([H])([H])[H])C([H])([H])[H])C([H])(C(=O)N([H])C1([H])c3c([H])c([H])c([H])c([H])c3C([H])([H])C([H])([H])C1([H])[H])C2([H])[H])(C([H])([H])[H])C([H])([H])[H]

$$$$
16:0:0
     RDKit          3D

 94102  0  0  1  0  0  0  0  0999 V2000
  -29.4800  -21.8780   20.7560 C   0  0  0  0  0  0  0  0  0  0  0  0
  -29.9010  -20.6690   20.2820 N   0  0  0  0  0  0  0  0  0  0  0  0
  -28.7610  -22.0010   21.7520 O   0  0  0  0  0  0  0  0  0  0  0  0
  -30.2540  -20.6900   19.3330 H   0  0  0  0  0  0  0  0  0  0  0  0
  -30.9500  -18.2430   22.9830 C   0  0  0  0  0  3  0  0  0  0  0  0
  -30.5570  -19.4330   22.3400 C   0  0  0  0  0  3  0  0  0  0  0  0
  -30.9370  -17.0130   22.2990 C   0  0  0  0  0  3  0  0  0  0  0  0
  -30.1130  -18.1630   20.3070 C   0  0  0  0  0  3  0  0  0  0  0  0
  -30.1530  -19.4260   20.9830 C   0  0  0  0  0  0  0  0  0  0  0  0
  -30.4980  -16.9470   20.9590 C   0  0  0  0  0  0  0  0  0  0  0  0
  -31.0560  -14.6110   20.0830 C   0  0  0  0  0  0  0  0  0  0  0  0
  -30.7560  -12.4100   18.9630 C   0  0  0  0  0  2  0  0  0  0  0  0
  -29.7740  -12.5820   17.7830 C   0  0  0  0  0  2  0  0  0  0  0  0
  -28.3090  -12.4720   18.2580 C   0  0  0  0  0  2  0  0  0  0  0  0
  -28.0200  -13.3420   19.5110 C   0  0  0  0  0  3  0  0  0  0  0  0
  -29.1030  -13.1150   20.5910 C   0  0  0  0  0  2  0  0  0  0  0  0
  -30.4080  -13.4150   19.9800 N   0  0  0  0  0  0  0  0  0  0  0  0
  -32.2100  -14.7790   19.6730 O   0  0  0  0  0  0  0  0  0  0  0  0
  -30.2340  -15.6470   20.4040 N   0  0  0  0  0  0  0  0  0  0  0  0
  -29.2820  -15.3400   20.5400 H   0  0  0  0  0  0  0  0  0  0  0  0
  -25.6730  -14.0370   20.3000 C   0  0  0  0  0  0  0  0  0  0  0  0
  -24.5890  -13.3030   20.7040 C   0  0  0  0  0  0  0  0  0  0  0  0
  -25.0020  -11.9360   20.6640 C   0  0  0  0  0  0  0  0  0  0  0  0
  -26.6770  -13.1180   20.0360 N   0  0  0  0  0  0  0  0  0  0  0  0
  -26.2800  -11.8500   20.3180 N   0  0  0  0  0  0  0  0  0  0  0  0
  -24.2380  -10.7000   20.8790 C   0  0  0  0  0  0  0  0  0  0  0  0
  -24.6470   -9.7350   21.8250 C   0  0  0  0  0  3  0  0  0  0  0  0
  -23.8870   -8.5640   22.0250 C   0  0  0  0  0  3  0  0  0  0  0  0
  -22.7040   -8.3490   21.2800 C   0  0  0  0  0  0  0  0  0  0  0  0
  -22.3130   -9.3030   20.3230 C   0  0  0  0  0  3  0  0  0  0  0  0
  -23.0730  -10.4660   20.1210 C   0  0  0  0  0  3  0  0  0  0  0  0
  -21.9160   -7.2280   21.3910 O   0  0  0  0  0  0  0  0  0  0  0  0
  -21.8220   -6.5270   22.5660 C   0  0  0  0  0  0  0  0  0  0  0  0
  -21.3950   -7.1360   23.7670 C   0  0  0  0  0  3  0  0  0  0  0  0
  -21.2470   -6.3610   24.9340 C   0  0  0  0  0  3  0  0  0  0  0  0
  -21.5160   -4.9810   24.9030 C   0  0  0  0  0  0  0  0  0  0  0  0
  -21.9350   -4.3720   23.7060 C   0  0  0  0  0  3  0  0  0  0  0  0
  -22.0850   -5.1420   22.5410 C   0  0  0  0  0  0  0  0  0  0  0  0
  -22.4710   -4.5480   21.3870 F   0  0  0  0  0  0  0  0  0  0  0  0
  -21.3650   -4.2350   26.0210 F   0  0  0  0  0  0  0  0  0  0  0  0
  -23.2160  -13.8310   21.0090 C   0  0  0  0  0  0  0  0  0  0  0  0
  -22.4910  -13.1770   21.9090 N   0  0  0  0  0  0  0  0  0  0  0  0
  -22.7970  -14.8610   20.4830 O   0  0  0  0  0  0  0  0  0  0  0  0
  -22.8430  -12.3480   22.3650 H   0  0  0  0  0  0  0  0  0  0  0  0
  -21.5680  -13.5130   22.1440 H   0  0  0  0  0  0  0  0  0  0  0  0
  -25.8830  -15.3990   20.1150 N   0  0  0  0  0  0  0  0  0  0  0  0
  -25.1420  -16.0810   20.2540 H   0  0  0  0  0  0  0  0  0  0  0  0
  -26.7330  -15.8120   19.7530 H   0  0  0  0  0  0  0  0  0  0  0  0
  -29.9720  -23.1500   20.0050 C   0  0  0  0  0  2  0  0  0  0  0  0
  -29.9160  -25.1650   18.5490 C   0  0  0  0  0  1  0  0  0  0  0  0
  -27.9400  -23.6250   18.5420 C   0  0  0  0  0  1  0  0  0  0  0  0
  -29.0110  -24.2760   19.4380 C   0  0  1  0  0  0  0  0  0  0  0  0
  -28.3140  -25.2210   20.4940 C   0  0  0  0  0  2  0  0  0  0  0  0
  -28.3170  -26.6390   20.1410 O   0  0  0  0  0  0  0  0  0  0  0  0
  -24.5460  -31.8880   23.2340 C   0  0  0  0  0  0  0  0  0  0  0  0
  -27.1410  -27.3770   20.1660 C   0  0  0  0  0  0  0  0  0  0  0  0
  -23.3230  -30.4990   21.5940 C   0  0  0  0  0  3  0  0  0  0  0  0
  -24.7560  -28.9300   20.1740 C   0  0  0  0  0  0  0  0  0  0  0  0
  -25.8560  -30.8210   21.3890 C   0  0  0  0  0  2  0  0  0  0  0  0
  -25.9240  -29.4450   20.7500 C   0  0  0  0  0  0  0  0  0  0  0  0
  -27.1210  -28.6830   20.7230 C   0  0  0  0  0  3  0  0  0  0  0  0
  -25.9510  -26.8820   19.5870 C   0  0  0  0  0  3  0  0  0  0  0  0
  -24.7690  -27.6520   19.5850 C   0  0  0  0  0  3  0  0  0  0  0  0
  -23.5210  -29.8060   20.2180 C   0  0  0  0  0  2  0  0  0  0  0  0
  -24.5940  -31.0860   22.1290 N   0  0  0  0  0  0  0  0  0  0  0  0
  -23.4670  -32.1680   23.7770 O   0  0  0  0  0  0  0  0  0  0  0  0
  -22.6570  -29.4900   22.5590 C   0  0  0  0  0  0  0  0  0  0  0  0
  -21.3370  -29.2950   22.4080 N   0  0  0  0  0  0  0  0  0  0  0  0
  -23.3280  -28.8840   23.3980 O   0  0  0  0  0  0  0  0  0  0  0  0
  -20.8570  -29.8340   21.7010 H   0  0  0  0  0  0  0  0  0  0  0  0
  -17.9770  -28.0200   22.8120 C   0  0  0  0  0  0  0  0  0  0  0  0
  -20.5160  -28.3590   23.1760 C   0  0  0  0  0  3  0  0  0  0  0  0
  -20.6780  -26.9120   22.6550 C   0  0  0  0  0  2  0  0  0  0  0  0
  -19.6280  -26.5260   21.6090 C   0  0  0  0  0  2  0  0  0  0  0  0
  -18.2170  -26.6550   22.1900 C   0  0  0  0  0  2  0  0  0  0  0  0
  -19.0570  -28.8260   23.2620 C   0  0  0  0  0  0  0  0  0  0  0  0
  -18.7810  -30.1000   23.8040 C   0  0  0  0  0  3  0  0  0  0  0  0
  -17.4590  -30.5700   23.9020 C   0  0  0  0  0  3  0  0  0  0  0  0
  -16.3920  -29.7620   23.4690 C   0  0  0  0  0  3  0  0  0  0  0  0
  -16.6530  -28.4900   22.9300 C   0  0  0  0  0  3  0  0  0  0  0  0
  -25.8360  -32.5080   23.8540 C   0  0  0  0  0  3  0  0  0  0  0  0
  -26.3430  -31.7390   25.1350 C   0  0  1  0  0  0  0  0  0  0  0  0
  -25.2500  -31.5170   26.2070 C   0  0  0  0  0  1  0  0  0  0  0  0
  -26.9100  -30.3550   24.7450 C   0  0  0  0  0  1  0  0  0  0  0  0
  -27.5030  -32.5250   25.7920 C   0  0  0  0  0  1  0  0  0  0  0  0
  -25.5420  -33.9120   24.1770 N   0  0  0  0  0  0  0  0  0  0  0  0
  -25.8990  -34.9580   23.4220 C   0  0  0  0  0  0  0  0  0  0  0  0
  -26.5790  -34.8440   22.3980 O   0  0  0  0  0  0  0  0  0  0  0  0
  -24.9430  -34.0740   24.9720 H   0  0  0  0  0  0  0  0  0  0  0  0
  -24.1980  -36.7730   23.0480 C   0  0  0  0  0  1  0  0  0  0  0  0
  -25.4260  -36.3530   23.8720 C   0  0  0  0  0  3  0  0  0  0  0  0
  -27.5640  -37.2070   24.7220 C   0  0  0  0  0  1  0  0  0  0  0  0
  -26.4730  -37.3930   23.7690 N   0  0  0  0  0  0  0  0  0  0  0  0
  -26.0780  -38.3180   23.9160 H   0  0  0  0  0  0  0  0  0  0  0  0
  1  3  2  0
  2  1  1  0
  2  9  1  0
  4  2  1  0
  6  5  1  0
  7  5  2  0
  8 10  2  0
  8  9  1  0
  9  6  2  0
 10  7  1  0
 11 19  1  0
 12 17  1  0
 13 14  1  0
 13 12  1  0
 15 14  1  0
 15 24  1  0
 15 16  1  0
 17 11  1  0
 17 16  1  0
 18 11  2  0
 19 20  1  0
 19 10  1  0
 21 22  2  0
 22 41  1  0
 23 22  1  0
 23 26  1  0
 24 21  1  0
 24 25  1  0
 25 23  2  0
 26 27  1  0
 27 28  2  0
 29 32  1  0
 29 28  1  0
 30 29  2  0
 31 30  1  0
 31 26  2  0
 32 33  1  0
 33 34  1  0
 34 35  2  0
 36 35  1  0
 36 40  1  0
 37 36  2  0
 38 33  2  0
 38 37  1  0
 39 38  1  0
 41 42  1  0
 42 45  1  0
 42 44  1  0
 43 41  2  0
 46 47  1  0
 46 21  1  0
 48 46  1  0
 49  1  1  0
 52 50  1  6
 51 52  1  0
 52 49  1  0
 52 53  1  0
 54 56  1  0
 54 53  1  0
 55 66  2  0
 56 61  1  0
 57 65  1  0
 57 67  1  0
 58 64  1  0
 58 60  1  0
 59 65  1  0
 60 59  1  0
 61 60  2  0
 62 56  2  0
 63 62  1  0
 63 58  2  0
 64 57  1  0
 65 55  1  0
 67 69  2  0
 68 67  1  0
 70 68  1  0
 71 80  2  0
 71 76  1  0
 72 68  1  0
 72 76  1  0
 73 72  1  0
 74 75  1  0
 74 73  1  0
 75 71  1  0
 76 77  2  0
 77 78  1  0
 79 78  2  0
 80 79  1  0
 81 55  1  0
 81 86  1  0
 81 82  1  0
 82 85  1  1
 82 83  1  0
 84 82  1  0
 86 89  1  0
 87 91  1  0
 87 86  1  0
 88 87  2  0
 91 90  1  0
 93 91  1  0
 93 94  1  0
 93 92  1  0
M  ISO  4  11 100  19 100  53 101  54 101
M  END
>  <TORSDO>  (17) 
F 20

>  <SCORE>  (17) 
-13.222

>  <name>  (17) 
16

>  <ligand_id>  (17) 
16

>  <original_smiles>  (17) 
[H]c1c([H])c(N([H])C(=O)N2C([H])([H])C([H])([H])C([H])([H])C([H])(n3nc(-c4c([H])c([H])c(Oc5c([H])c([H])c(F)c([H])c5F)c([H])c4[H])c(C(=O)N([H])[H])c3N([H])[H])C2([H])[H])c([H])c(N([H])C(=O)C([H])([H])C(C([H])([H])[H])(C([H])([H])[H])C([H])([H])Oc2c([H])c([H])c3c(c2[H])C([H])([H])N(C(=O)C([H])(N([H])C(=O)C([H])(N([H])C([H])([H])[H])C([H])([H])[H])C(C([H])([H])[H])(C([H])([H])[H])C([H])([H])[H])C([H])(C(=O)N([H])C2([H])c4c([H])c([H])c([H])c([H])c4C([H])([H])C([H])([H])C2([H])[H])C3([H])[H])c1[H]

>  <smiles>  (17) 
[H]c1c([H])c(N([H])C(=O)N2C([H])([H])C([H])([H])C([H])([H])C([H])(n3nc(-c4c([H])c([H])c(Oc5c([H])c([H])c(F)c([H])c5F)c([H])c4[H])c(C(=O)N([H])[H])c3N([H])[H])C2([H])[H])c([H])c(N([H])C(=O)C([H])([H])C(C([H])([H])[H])(C([H])([H])[H])C([H])([H])Oc2c([H])c([H])c3c(c2[H])C([H])([H])N(C(=O)C([H])(N([H])C(=O)C([H])(N([H])C([H])([H])[H])C([H])([H])[H])C(C([H])([H])[H])(C([H])([H])[H])C([H])([H])[H])C([H])(C(=O)N([H])C2([H])c4c([H])c([H])c([H])c([H])c4C([H])([H])C([H])([H])C2([H])[H])C3([H])[H])c1[H]

$$$$
17:0:0
     RDKit          3D

 95104  0  0  1  0  0  0  0  0999 V2000
  -30.1050  -22.8270   22.6610 C   0  0  0  0  0  0  0  0  0  0  0  0
  -29.5420  -24.0600   22.5800 C   0  0  0  0  0  3  0  0  0  0  0  0
  -30.1960  -21.9830   23.9140 C   0  0  0  0  0  2  0  0  0  0  0  0
  -30.6560  -21.9970   21.5220 C   0  0  0  0  0  2  0  0  0  0  0  0
  -30.3150  -20.5350   23.4020 C   0  0  0  0  0  2  0  0  0  0  0  0
  -30.8040  -20.6270   22.0260 N   0  0  0  0  0  0  0  0  0  0  0  0
  -30.7320  -18.6220   18.8600 C   0  0  0  0  0  3  0  0  0  0  0  0
  -30.8540  -19.7010   19.7480 C   0  0  0  0  0  3  0  0  0  0  0  0
  -30.6110  -18.1740   21.6230 C   0  0  0  0  0  3  0  0  0  0  0  0
  -30.5470  -17.3080   19.3310 C   0  0  0  0  0  0  0  0  0  0  0  0
  -30.7530  -19.5110   21.1480 C   0  0  0  0  0  0  0  0  0  0  0  0
  -30.5420  -17.0600   20.7370 C   0  0  0  0  0  0  0  0  0  0  0  0
  -30.3250  -16.2230   18.2860 C   0  0  0  0  0  1  0  0  0  0  0  0
  -31.1520  -14.6570   21.0000 C   0  0  0  0  0  0  0  0  0  0  0  0
  -30.9780  -12.3930   20.0450 C   0  0  0  0  0  2  0  0  0  0  0  0
  -30.1530  -12.4330   18.7390 C   0  0  0  0  0  2  0  0  0  0  0  0
  -28.6380  -12.3860   19.0150 C   0  0  0  0  0  2  0  0  0  0  0  0
  -28.1870  -13.3160   20.1760 C   0  0  0  0  0  3  0  0  0  0  0  0
  -29.1260  -13.1980   21.3950 C   0  0  0  0  0  2  0  0  0  0  0  0
  -30.4990  -13.4630   20.9330 N   0  0  0  0  0  0  0  0  0  0  0  0
  -32.3350  -14.7890   20.6800 O   0  0  0  0  0  0  0  0  0  0  0  0
  -30.3790  -15.7340   21.2730 N   0  0  0  0  0  0  0  0  0  0  0  0
  -29.4970  -15.5340   21.7180 H   0  0  0  0  0  0  0  0  0  0  0  0
  -25.7460  -13.9850   20.6420 C   0  0  0  0  0  0  0  0  0  0  0  0
  -24.6330  -13.2420   20.9300 C   0  0  0  0  0  0  0  0  0  0  0  0
  -25.0700  -11.8830   20.9830 C   0  0  0  0  0  0  0  0  0  0  0  0
  -26.7900  -13.0790   20.5400 N   0  0  0  0  0  0  0  0  0  0  0  0
  -26.3820  -11.8120   20.8020 N   0  0  0  0  0  0  0  0  0  0  0  0
  -24.3090  -10.6380   21.1380 C   0  0  0  0  0  0  0  0  0  0  0  0
  -24.6440   -9.6840   22.1240 C   0  0  0  0  0  3  0  0  0  0  0  0
  -23.8830   -8.5040   22.2650 C   0  0  0  0  0  3  0  0  0  0  0  0
  -22.7750   -8.2680   21.4190 C   0  0  0  0  0  0  0  0  0  0  0  0
  -22.4600   -9.2100   20.4210 C   0  0  0  0  0  3  0  0  0  0  0  0
  -23.2220  -10.3810   20.2790 C   0  0  0  0  0  3  0  0  0  0  0  0
  -21.9970   -7.1360   21.4670 O   0  0  0  0  0  0  0  0  0  0  0  0
  -21.8330   -6.4190   22.6250 C   0  0  0  0  0  0  0  0  0  0  0  0
  -21.2840   -7.0010   23.7880 C   0  0  0  0  0  3  0  0  0  0  0  0
  -21.0710   -6.2110   24.9370 C   0  0  0  0  0  3  0  0  0  0  0  0
  -21.3960   -4.8430   24.9220 C   0  0  0  0  0  0  0  0  0  0  0  0
  -21.9380   -4.2600   23.7640 C   0  0  0  0  0  3  0  0  0  0  0  0
  -22.1530   -5.0460   22.6170 C   0  0  0  0  0  0  0  0  0  0  0  0
  -22.6560   -4.4740   21.4960 F   0  0  0  0  0  0  0  0  0  0  0  0
  -21.1850   -4.0840   26.0230 F   0  0  0  0  0  0  0  0  0  0  0  0
  -23.2240  -13.7470   21.0580 C   0  0  0  0  0  0  0  0  0  0  0  0
  -22.4060  -13.0900   21.8710 N   0  0  0  0  0  0  0  0  0  0  0  0
  -22.8540  -14.7620   20.4710 O   0  0  0  0  0  0  0  0  0  0  0  0
  -22.7080  -12.2680   22.3730 H   0  0  0  0  0  0  0  0  0  0  0  0
  -21.4550  -13.4090   21.9880 H   0  0  0  0  0  0  0  0  0  0  0  0
  -25.9670  -15.3450   20.4370 N   0  0  0  0  0  0  0  0  0  0  0  0
  -25.2270  -16.0380   20.4370 H   0  0  0  0  0  0  0  0  0  0  0  0
  -26.8690  -15.7340   20.1910 H   0  0  0  0  0  0  0  0  0  0  0  0
  -29.4110  -24.8600   21.3320 C   0  0  0  0  0  0  0  0  0  0  0  0
  -29.9180  -24.5320   20.2540 O   0  0  0  0  0  0  0  0  0  0  0  0
  -28.6100  -26.1770   21.4120 C   0  0  0  0  0  2  0  0  0  0  0  0
  -28.2470  -26.6560   20.1060 O   0  0  0  0  0  0  0  0  0  0  0  0
  -24.5180  -31.8710   23.2040 C   0  0  0  0  0  0  0  0  0  0  0  0
  -27.1120  -27.4290   20.1100 C   0  0  0  0  0  0  0  0  0  0  0  0
  -23.2860  -30.4790   21.5690 C   0  0  0  0  0  3  0  0  0  0  0  0
  -24.7220  -28.9380   20.1240 C   0  0  0  0  0  0  0  0  0  0  0  0
  -25.8070  -30.8330   21.3410 C   0  0  0  0  0  2  0  0  0  0  0  0
  -25.8840  -29.4580   20.7120 C   0  0  0  0  0  0  0  0  0  0  0  0
  -27.0810  -28.7090   20.7120 C   0  0  0  0  0  3  0  0  0  0  0  0
  -25.9440  -26.9260   19.5030 C   0  0  0  0  0  3  0  0  0  0  0  0
  -24.7480  -27.6700   19.5170 C   0  0  0  0  0  3  0  0  0  0  0  0
  -23.4790  -29.7990   20.1850 C   0  0  0  0  0  2  0  0  0  0  0  0
  -24.5560  -31.0750   22.0960 N   0  0  0  0  0  0  0  0  0  0  0  0
  -23.4460  -32.1480   23.7560 O   0  0  0  0  0  0  0  0  0  0  0  0
  -22.6410  -29.4580   22.5330 C   0  0  0  0  0  0  0  0  0  0  0  0
  -21.3140  -29.2850   22.4190 N   0  0  0  0  0  0  0  0  0  0  0  0
  -23.3300  -28.8260   23.3390 O   0  0  0  0  0  0  0  0  0  0  0  0
  -20.8190  -29.8460   21.7410 H   0  0  0  0  0  0  0  0  0  0  0  0
  -17.9380  -28.1180   22.9490 C   0  0  0  0  0  0  0  0  0  0  0  0
  -20.4990  -28.3520   23.1960 C   0  0  0  0  0  3  0  0  0  0  0  0
  -20.5840  -26.9210   22.6120 C   0  0  0  0  0  2  0  0  0  0  0  0
  -19.4670  -26.6130   21.6080 C   0  0  0  0  0  2  0  0  0  0  0  0
  -18.0930  -26.7700   22.2650 C   0  0  0  0  0  2  0  0  0  0  0  0
  -19.0670  -28.8680   23.3700 C   0  0  0  0  0  0  0  0  0  0  0  0
  -18.8660  -30.1310   23.9670 C   0  0  0  0  0  3  0  0  0  0  0  0
  -17.5670  -30.6430   24.1490 C   0  0  0  0  0  3  0  0  0  0  0  0
  -16.4520  -29.8910   23.7400 C   0  0  0  0  0  3  0  0  0  0  0  0
  -16.6380  -28.6300   23.1470 C   0  0  0  0  0  3  0  0  0  0  0  0
  -25.8170  -32.4890   23.8120 C   0  0  0  0  0  3  0  0  0  0  0  0
  -26.3450  -31.7080   25.0790 C   0  0  1  0  0  0  0  0  0  0  0  0
  -25.2630  -31.4760   26.1600 C   0  0  0  0  0  1  0  0  0  0  0  0
  -26.9110  -30.3280   24.6690 C   0  0  0  0  0  1  0  0  0  0  0  0
  -27.5080  -32.4910   25.7320 C   0  0  0  0  0  1  0  0  0  0  0  0
  -25.5210  -33.8870   24.1470 N   0  0  0  0  0  0  0  0  0  0  0  0
  -25.8730  -34.9380   23.3930 C   0  0  0  0  0  0  0  0  0  0  0  0
  -26.5500  -34.8320   22.3670 O   0  0  0  0  0  0  0  0  0  0  0  0
  -24.9220  -34.0460   24.9420 H   0  0  0  0  0  0  0  0  0  0  0  0
  -24.1820  -36.7630   23.0130 C   0  0  0  0  0  1  0  0  0  0  0  0
  -25.3940  -36.3290   23.8520 C   0  0  0  0  0  3  0  0  0  0  0  0
  -27.5230  -37.1720   24.7420 C   0  0  0  0  0  1  0  0  0  0  0  0
  -26.4440  -37.3680   23.7770 N   0  0  0  0  0  0  0  0  0  0  0  0
  -26.0460  -38.2910   23.9300 H   0  0  0  0  0  0  0  0  0  0  0  0
  1  3  1  0
  2  1  2  0
  4  6  1  0
  4  1  1  0
  5  3  1  0
  6  5  1  0
  7 10  2  0
  7  8  1  0
  8 11  2  0
 10 12  1  0
 11  9  1  0
 11  6  1  0
 12 22  1  0
 12  9  2  0
 13 10  1  0
 14 22  1  0
 15 20  1  0
 16 17  1  0
 16 15  1  0
 18 17  1  0
 18 27  1  0
 18 19  1  0
 20 14  1  0
 20 19  1  0
 21 14  2  0
 22 23  1  0
 24 25  2  0
 25 26  1  0
 25 44  1  0
 26 29  1  0
 27 24  1  0
 27 28  1  0
 28 26  2  0
 29 30  1  0
 30 31  2  0
 32 35  1  0
 32 31  1  0
 33 32  2  0
 34 33  1  0
 34 29  2  0
 35 36  1  0
 36 37  1  0
 37 38  2  0
 39 38  1  0
 39 43  1  0
 40 39  2  0
 41 36  2  0
 41 40  1  0
 42 41  1  0
 44 45  1  0
 45 48  1  0
 45 47  1  0
 46 44  2  0
 49 50  1  0
 49 24  1  0
 51 49  1  0
 52 54  1  0
 52  2  1  0
 53 52  2  0
 55 57  1  0
 55 54  1  0
 56 67  2  0
 57 62  1  0
 58 66  1  0
 58 68  1  0
 59 65  1  0
 59 61  1  0
 60 66  1  0
 61 60  1  0
 62 61  2  0
 63 64  1  0
 63 57  2  0
 64 59  2  0
 65 58  1  0
 66 56  1  0
 68 70  2  0
 69 68  1  0
 71 69  1  0
 72 81  2  0
 72 77  1  0
 73 69  1  0
 73 77  1  0
 74 73  1  0
 75 76  1  0
 75 74  1  0
 76 72  1  0
 77 78  2  0
 78 79  1  0
 80 79  2  0
 81 80  1  0
 82 56  1  0
 82 87  1  0
 82 83  1  0
 83 86  1  1
 83 84  1  0
 85 83  1  0
 87 90  1  0
 88 92  1  0
 88 87  1  0
 89 88  2  0
 92 91  1  0
 94 92  1  0
 94 95  1  0
 94 93  1  0
M  ISO  4  14 100  22 100  54 101  55 101
M  END
>  <TORSDO>  (18) 
F 19

>  <SCORE>  (18) 
-13.820

>  <name>  (18) 
17

>  <ligand_id>  (18) 
17

>  <original_smiles>  (18) 
[H]C(C(=O)C([H])([H])Oc1c([H])c([H])c2c(c1[H])C([H])([H])N(C(=O)C([H])(N([H])C(=O)C([H])(N([H])C([H])([H])[H])C([H])([H])[H])C(C([H])([H])[H])(C([H])([H])[H])C([H])([H])[H])C([H])(C(=O)N([H])C1([H])c3c([H])c([H])c([H])c([H])c3C([H])([H])C([H])([H])C1([H])[H])C2([H])[H])=C1C([H])([H])N(c2c([H])c([H])c(C([H])([H])[H])c(N([H])C(=O)N3C([H])([H])C([H])([H])C([H])([H])C([H])(n4nc(-c5c([H])c([H])c(Oc6c([H])c([H])c(F)c([H])c6F)c([H])c5[H])c(C(=O)N([H])[H])c4N([H])[H])C3([H])[H])c2[H])C([H])([H])C1([H])[H]

>  <smiles>  (18) 
[H]C(C(=O)C([H])([H])Oc1c([H])c([H])c2c(c1[H])C([H])([H])N(C(=O)C([H])(N([H])C(=O)C([H])(N([H])C([H])([H])[H])C([H])([H])[H])C(C([H])([H])[H])(C([H])([H])[H])C([H])([H])[H])C([H])(C(=O)N([H])C1([H])c3c([H])c([H])c([H])c([H])c3C([H])([H])C([H])([H])C1([H])[H])C2([H])[H])=C1C([H])([H])N(c2c([H])c([H])c(C([H])([H])[H])c(N([H])C(=O)N3C([H])([H])C([H])([H])C([H])([H])C([H])(n4nc(-c5c([H])c([H])c(Oc6c([H])c([H])c(F)c([H])c6F)c([H])c5[H])c(C(=O)N([H])[H])c4N([H])[H])C3([H])[H])c2[H])C([H])([H])C1([H])[H]

$$$$
18:0:0
     RDKit          3D

 94102  0  0  1  0  0  0  0  0999 V2000
  -29.2930  -20.7630   21.0530 C   0  0  0  0  0  0  0  0  0  0  0  0
  -28.7980  -20.6800   22.2160 N   0  0  0  0  0  0  0  0  0  0  0  0
  -28.7430  -19.7200   22.5370 H   0  0  0  0  0  0  0  0  0  0  0  0
  -30.6110  -18.7000   18.1170 C   0  0  0  0  0  3  0  0  0  0  0  0
  -30.2010  -19.7870   18.9100 C   0  0  0  0  0  3  0  0  0  0  0  0
  -30.5870  -17.3920   18.6330 C   0  0  0  0  0  3  0  0  0  0  0  0
  -29.7240  -18.2500   20.7410 C   0  0  0  0  0  3  0  0  0  0  0  0
  -29.7470  -19.5880   20.2340 C   0  0  0  0  0  0  0  0  0  0  0  0
  -30.1620  -17.1450   19.9610 C   0  0  0  0  0  0  0  0  0  0  0  0
  -30.8460  -14.7460   20.0770 C   0  0  0  0  0  0  0  0  0  0  0  0
  -30.5440  -12.5490   19.0130 C   0  0  0  0  0  2  0  0  0  0  0  0
  -29.5570  -12.7480   17.8420 C   0  0  0  0  0  2  0  0  0  0  0  0
  -28.0990  -12.6120   18.3280 C   0  0  0  0  0  2  0  0  0  0  0  0
  -27.8090  -13.4310   19.6150 C   0  0  0  0  0  3  0  0  0  0  0  0
  -28.9160  -13.2340   20.6750 C   0  0  0  0  0  2  0  0  0  0  0  0
  -30.2070  -13.5450   20.0440 N   0  0  0  0  0  0  0  0  0  0  0  0
  -31.9800  -14.9030   19.6140 O   0  0  0  0  0  0  0  0  0  0  0  0
  -30.1040  -15.8040   20.4850 N   0  0  0  0  0  0  0  0  0  0  0  0
  -29.2910  -15.5770   21.0380 H   0  0  0  0  0  0  0  0  0  0  0  0
  -25.4530  -13.9970   20.4780 C   0  0  0  0  0  0  0  0  0  0  0  0
  -24.4080  -13.2090   20.8770 C   0  0  0  0  0  0  0  0  0  0  0  0
  -24.8700  -11.8610   20.7710 C   0  0  0  0  0  0  0  0  0  0  0  0
  -26.4840  -13.1290   20.1560 N   0  0  0  0  0  0  0  0  0  0  0  0
  -26.1400  -11.8360   20.3880 N   0  0  0  0  0  0  0  0  0  0  0  0
  -24.1570  -10.5890   20.9570 C   0  0  0  0  0  0  0  0  0  0  0  0
  -24.5750   -9.6400   21.9140 C   0  0  0  0  0  3  0  0  0  0  0  0
  -23.8620   -8.4330   22.0850 C   0  0  0  0  0  3  0  0  0  0  0  0
  -22.7150   -8.1690   21.2980 C   0  0  0  0  0  0  0  0  0  0  0  0
  -22.3170   -9.1070   20.3300 C   0  0  0  0  0  3  0  0  0  0  0  0
  -23.0320  -10.3040   20.1580 C   0  0  0  0  0  3  0  0  0  0  0  0
  -21.9770   -7.0120   21.3760 O   0  0  0  0  0  0  0  0  0  0  0  0
  -21.8280   -6.3320   22.5570 C   0  0  0  0  0  0  0  0  0  0  0  0
  -21.1980   -6.9150   23.6790 C   0  0  0  0  0  3  0  0  0  0  0  0
  -21.0010   -6.1560   24.8490 C   0  0  0  0  0  3  0  0  0  0  0  0
  -21.4260   -4.8150   24.9000 C   0  0  0  0  0  0  0  0  0  0  0  0
  -22.0510   -4.2320   23.7840 C   0  0  0  0  0  3  0  0  0  0  0  0
  -22.2480   -4.9880   22.6150 C   0  0  0  0  0  0  0  0  0  0  0  0
  -22.8310   -4.4130   21.5350 F   0  0  0  0  0  0  0  0  0  0  0  0
  -21.2320   -4.0850   26.0230 F   0  0  0  0  0  0  0  0  0  0  0  0
  -23.0270  -13.6700   21.2450 C   0  0  0  0  0  0  0  0  0  0  0  0
  -22.3440  -12.9340   22.1140 N   0  0  0  0  0  0  0  0  0  0  0  0
  -22.5630  -14.7180   20.7980 O   0  0  0  0  0  0  0  0  0  0  0  0
  -22.7330  -12.0880   22.5020 H   0  0  0  0  0  0  0  0  0  0  0  0
  -21.4190  -13.2240   22.3970 H   0  0  0  0  0  0  0  0  0  0  0  0
  -25.6060  -15.3750   20.3430 N   0  0  0  0  0  0  0  0  0  0  0  0
  -24.8480  -16.0240   20.5190 H   0  0  0  0  0  0  0  0  0  0  0  0
  -26.4350  -15.8250   19.9760 H   0  0  0  0  0  0  0  0  0  0  0  0
  -29.4830  -21.9780   20.4050 O   0  0  0  0  0  0  0  0  0  0  0  0
  -28.8610  -23.1510   20.9670 C   0  0  0  0  0  2  0  0  0  0  0  0
  -28.9040  -24.2810   18.6910 C   0  0  0  0  0  1  0  0  0  0  0  0
  -30.6940  -24.8040   20.3910 C   0  0  0  0  0  1  0  0  0  0  0  0
  -29.2050  -24.4650   20.1910 C   0  0  2  0  0  0  0  0  0  0  0  0
  -28.3390  -25.6330   20.7440 C   0  0  0  0  0  2  0  0  0  0  0  0
  -28.4990  -26.8890   20.0450 O   0  0  0  0  0  0  0  0  0  0  0  0
  -24.6200  -31.9380   23.2280 C   0  0  0  0  0  0  0  0  0  0  0  0
  -27.3520  -27.6520   20.0170 C   0  0  0  0  0  0  0  0  0  0  0  0
  -23.4480  -30.5710   21.5350 C   0  0  0  0  0  3  0  0  0  0  0  0
  -24.9360  -29.1210   20.0570 C   0  0  0  0  0  0  0  0  0  0  0  0
  -25.9690  -30.9870   21.3600 C   0  0  0  0  0  2  0  0  0  0  0  0
  -26.0830  -29.6440   20.6670 C   0  0  0  0  0  0  0  0  0  0  0  0
  -27.2990  -28.9200   20.6390 C   0  0  0  0  0  3  0  0  0  0  0  0
  -26.1930  -27.1550   19.3810 C   0  0  0  0  0  3  0  0  0  0  0  0
  -24.9860  -27.8760   19.4080 C   0  0  0  0  0  3  0  0  0  0  0  0
  -23.6760  -29.9520   20.1310 C   0  0  0  0  0  2  0  0  0  0  0  0
  -24.6960  -31.1780   22.0990 N   0  0  0  0  0  0  0  0  0  0  0  0
  -23.5330  -32.1700   23.7740 O   0  0  0  0  0  0  0  0  0  0  0  0
  -22.8160  -29.5010   22.4550 C   0  0  0  0  0  0  0  0  0  0  0  0
  -21.4980  -29.2900   22.3090 N   0  0  0  0  0  0  0  0  0  0  0  0
  -23.5080  -28.8680   23.2560 O   0  0  0  0  0  0  0  0  0  0  0  0
  -20.9990  -29.8570   21.6380 H   0  0  0  0  0  0  0  0  0  0  0  0
  -18.1470  -28.0050   22.7440 C   0  0  0  0  0  0  0  0  0  0  0  0
  -20.6980  -28.3090   23.0430 C   0  0  0  0  0  3  0  0  0  0  0  0
  -20.8350  -26.9010   22.4180 C   0  0  0  0  0  2  0  0  0  0  0  0
  -19.7470  -26.5900   21.3850 C   0  0  0  0  0  2  0  0  0  0  0  0
  -18.3580  -26.6820   22.0260 C   0  0  0  0  0  2  0  0  0  0  0  0
  -19.2470  -28.7750   23.2080 C   0  0  0  0  0  0  0  0  0  0  0  0
  -18.9980  -30.0130   23.8400 C   0  0  0  0  0  3  0  0  0  0  0  0
  -17.6820  -30.4800   24.0140 C   0  0  0  0  0  3  0  0  0  0  0  0
  -16.5960  -29.7070   23.5670 C   0  0  0  0  0  3  0  0  0  0  0  0
  -16.8310  -28.4720   22.9370 C   0  0  0  0  0  3  0  0  0  0  0  0
  -25.8910  -32.5730   23.8720 C   0  0  0  0  0  3  0  0  0  0  0  0
  -25.5480  -33.9480   24.2600 N   0  0  0  0  0  0  0  0  0  0  0  0
  -25.8530  -35.0380   23.5430 C   0  0  0  0  0  0  0  0  0  0  0  0
  -26.5220  -34.9930   22.5070 O   0  0  0  0  0  0  0  0  0  0  0  0
  -24.9490  -34.0550   25.0640 H   0  0  0  0  0  0  0  0  0  0  0  0
  -24.0920  -36.8090   23.2480 C   0  0  0  0  0  1  0  0  0  0  0  0
  -25.3330  -36.3940   24.0560 C   0  0  0  0  0  3  0  0  0  0  0  0
  -27.4310  -37.2890   24.9640 C   0  0  0  0  0  1  0  0  0  0  0  0
  -26.3450  -37.4710   24.0040 N   0  0  0  0  0  0  0  0  0  0  0  0
  -25.9170  -38.3770   24.1780 H   0  0  0  0  0  0  0  0  0  0  0  0
  -26.4300  -31.7600   25.1140 C   0  0  1  0  0  0  0  0  0  0  0  0
  -25.3420  -31.4360   26.1640 C   0  0  0  0  0  1  0  0  0  0  0  0
  -27.0590  -30.4220   24.6590 C   0  0  0  0  0  1  0  0  0  0  0  0
  -27.5510  -32.5620   25.8180 C   0  0  0  0  0  1  0  0  0  0  0  0
  1  2  2  0
  2  3  1  0
  4  6  2  0
  4  5  1  0
  5  8  2  0
  6  9  1  0
  8  7  1  0
  8  1  1  0
  9 18  1  0
  9  7  2  0
 10 18  1  0
 11 16  1  0
 12 13  1  0
 12 11  1  0
 14 13  1  0
 14 23  1  0
 14 15  1  0
 16 10  1  0
 16 15  1  0
 17 10  2  0
 18 19  1  0
 20 21  2  0
 21 40  1  0
 22 21  1  0
 22 25  1  0
 23 24  1  0
 23 20  1  0
 24 22  2  0
 25 26  1  0
 26 27  2  0
 28 31  1  0
 28 27  1  0
 29 28  2  0
 30 29  1  0
 30 25  2  0
 31 32  1  0
 32 37  2  0
 32 33  1  0
 33 34  2  0
 34 35  1  0
 35 39  1  0
 36 35  2  0
 37 36  1  0
 38 37  1  0
 40 41  1  0
 41 44  1  0
 41 43  1  0
 42 40  2  0
 45 20  1  0
 45 46  1  0
 47 45  1  0
 48 49  1  0
 48  1  1  0
 52 50  1  6
 52 51  1  0
 52 53  1  0
 52 49  1  0
 54 53  1  0
 55 66  2  0
 56 54  1  0
 56 61  1  0
 57 65  1  0
 57 67  1  0
 58 64  1  0
 58 60  1  0
 59 65  1  0
 60 59  1  0
 61 60  2  0
 62 63  1  0
 62 56  2  0
 63 58  2  0
 64 57  1  0
 65 55  1  0
 67 69  2  0
 68 67  1  0
 70 68  1  0
 71 80  2  0
 71 76  1  0
 72 68  1  0
 72 76  1  0
 73 72  1  0
 74 75  1  0
 74 73  1  0
 75 71  1  0
 76 77  2  0
 77 78  1  0
 79 78  2  0
 80 79  1  0
 81 55  1  0
 81 82  1  0
 81 91  1  0
 82 85  1  0
 83 87  1  0
 83 82  1  0
 84 83  2  0
 87 86  1  0
 89 87  1  0
 89 90  1  0
 89 88  1  0
 91 94  1  1
 91 92  1  0
 93 91  1  0
M  ISO  4  10 100  18 100  53 101  54 101
M  END
>  <TORSDO>  (19) 
F 21

>  <SCORE>  (19) 
-12.829

>  <name>  (19) 
18

>  <ligand_id>  (19) 
18

>  <original_smiles>  (19) 
[H]N=C(OC([H])([H])C(C([H])([H])[H])(C([H])([H])[H])C([H])([H])Oc1c([H])c([H])c2c(c1[H])C([H])([H])N(C(=O)C([H])(N([H])C(=O)C([H])(N([H])C([H])([H])[H])C([H])([H])[H])C(C([H])([H])[H])(C([H])([H])[H])C([H])([H])[H])C([H])(C(=O)N([H])C1([H])c3c([H])c([H])c([H])c([H])c3C([H])([H])C([H])([H])C1([H])[H])C2([H])[H])c1c([H])c([H])c([H])c(N([H])C(=O)N2C([H])([H])C([H])([H])C([H])([H])C([H])(n3nc(-c4c([H])c([H])c(Oc5c([H])c([H])c(F)c([H])c5F)c([H])c4[H])c(C(=O)N([H])[H])c3N([H])[H])C2([H])[H])c1[H]

>  <smiles>  (19) 
[H]N=C(OC([H])([H])C(C([H])([H])[H])(C([H])([H])[H])C([H])([H])Oc1c([H])c([H])c2c(c1[H])C([H])([H])N(C(=O)C([H])(N([H])C(=O)C([H])(N([H])C([H])([H])[H])C([H])([H])[H])C(C([H])([H])[H])(C([H])([H])[H])C([H])([H])[H])C([H])(C(=O)N([H])C1([H])c3c([H])c([H])c([H])c([H])c3C([H])([H])C([H])([H])C1([H])[H])C2([H])[H])c1c([H])c([H])c([H])c(N([H])C(=O)N2C([H])([H])C([H])([H])C([H])([H])C([H])(n3nc(-c4c([H])c([H])c(Oc5c([H])c([H])c(F)c([H])c5F)c([H])c4[H])c(C(=O)N([H])[H])c3N([H])[H])C2([H])[H])c1[H]

$$$$
19:0:0
     RDKit          3D

 97105  0  0  1  0  0  0  0  0999 V2000
  -27.0570  -20.7650   19.9370 C   0  0  0  0  0  1  0  0  0  0  0  0
  -28.4060  -21.5880   18.1090 C   0  0  0  0  0  1  0  0  0  0  0  0
  -28.5230  -21.1140   19.5880 C   0  0  2  0  0  0  0  0  0  0  0  0
  -30.7480  -20.0080   18.9900 C   0  0  0  0  0  3  0  0  0  0  0  0
  -31.5250  -17.7490   19.4070 C   0  0  0  0  0  3  0  0  0  0  0  0
  -31.7830  -19.0710   19.0120 C   0  0  0  0  0  0  0  0  0  0  0  0
  -29.4790  -19.7860   19.5750 C   0  0  0  0  0  0  0  0  0  0  0  0
  -29.2370  -18.3840   19.9950 C   0  0  0  0  0  0  0  0  0  0  0  0
  -30.2460  -17.3300   19.8490 C   0  0  0  0  0  0  0  0  0  0  0  0
  -33.1870  -19.5500   18.6580 C   0  0  0  0  0  1  0  0  0  0  0  0
  -27.9170  -17.9460   20.6290 C   0  0  0  0  0  1  0  0  0  0  0  0
  -30.7640  -14.7390   19.9200 C   0  0  0  0  0  0  0  0  0  0  0  0
  -30.4640  -12.4620   18.9400 C   0  0  0  0  0  2  0  0  0  0  0  0
  -29.4730  -12.6030   17.7650 C   0  0  0  0  0  2  0  0  0  0  0  0
  -28.0290  -12.4550   18.2750 C   0  0  0  0  0  2  0  0  0  0  0  0
  -27.7360  -13.3320   19.5280 C   0  0  0  0  0  3  0  0  0  0  0  0
  -28.8540  -13.2070   20.5870 C   0  0  0  0  0  2  0  0  0  0  0  0
  -30.1180  -13.5280   19.9150 N   0  0  0  0  0  0  0  0  0  0  0  0
  -31.9400  -14.7840   19.5560 O   0  0  0  0  0  0  0  0  0  0  0  0
  -30.0040  -15.8810   20.1320 N   0  0  0  0  0  0  0  0  0  0  0  0
  -29.0570  -15.6430   20.3800 H   0  0  0  0  0  0  0  0  0  0  0  0
  -25.4020  -13.9280   20.4140 C   0  0  0  0  0  0  0  0  0  0  0  0
  -24.3570  -13.1490   20.8400 C   0  0  0  0  0  0  0  0  0  0  0  0
  -24.8060  -11.8010   20.7450 C   0  0  0  0  0  0  0  0  0  0  0  0
  -26.4200  -13.0460   20.0930 N   0  0  0  0  0  0  0  0  0  0  0  0
  -26.0730  -11.7580   20.3490 N   0  0  0  0  0  0  0  0  0  0  0  0
  -24.0800  -10.5410   20.9480 C   0  0  0  0  0  0  0  0  0  0  0  0
  -24.5000   -9.5860   21.8960 C   0  0  0  0  0  3  0  0  0  0  0  0
  -23.7690   -8.3940   22.0780 C   0  0  0  0  0  3  0  0  0  0  0  0
  -22.6050   -8.1450   21.3110 C   0  0  0  0  0  0  0  0  0  0  0  0
  -22.2050   -9.0900   20.3510 C   0  0  0  0  0  3  0  0  0  0  0  0
  -22.9390  -10.2770   20.1670 C   0  0  0  0  0  3  0  0  0  0  0  0
  -21.8510   -7.0030   21.4030 O   0  0  0  0  0  0  0  0  0  0  0  0
  -21.7180   -6.3220   22.5890 C   0  0  0  0  0  0  0  0  0  0  0  0
  -21.1580   -6.9220   23.7370 C   0  0  0  0  0  3  0  0  0  0  0  0
  -20.9710   -6.1610   24.9060 C   0  0  0  0  0  3  0  0  0  0  0  0
  -21.3440   -4.8040   24.9340 C   0  0  0  0  0  0  0  0  0  0  0  0
  -21.9040   -4.2070   23.7910 C   0  0  0  0  0  3  0  0  0  0  0  0
  -22.0860   -4.9630   22.6210 C   0  0  0  0  0  0  0  0  0  0  0  0
  -22.6030   -4.3730   21.5160 F   0  0  0  0  0  0  0  0  0  0  0  0
  -21.1640   -4.0710   26.0590 F   0  0  0  0  0  0  0  0  0  0  0  0
  -22.9840  -13.6350   21.2070 C   0  0  0  0  0  0  0  0  0  0  0  0
  -22.3060  -12.9220   22.1000 N   0  0  0  0  0  0  0  0  0  0  0  0
  -22.5330  -14.6800   20.7480 O   0  0  0  0  0  0  0  0  0  0  0  0
  -22.6960  -12.0780   22.4890 H   0  0  0  0  0  0  0  0  0  0  0  0
  -21.3860  -13.2260   22.3840 H   0  0  0  0  0  0  0  0  0  0  0  0
  -25.5480  -15.2990   20.2490 N   0  0  0  0  0  0  0  0  0  0  0  0
  -24.7240  -15.8820   20.3400 H   0  0  0  0  0  0  0  0  0  0  0  0
  -26.2240  -15.7000   19.6120 H   0  0  0  0  0  0  0  0  0  0  0  0
  -28.6030  -22.2110   21.9250 C   0  0  0  0  0  1  0  0  0  0  0  0
  -30.5330  -22.5840   20.4380 C   0  0  0  0  0  1  0  0  0  0  0  0
  -28.9950  -22.4620   20.4540 C   0  0  1  0  0  0  0  0  0  0  0  0
  -28.3990  -23.9250   19.9800 C   0  0  0  0  0  2  0  0  0  0  0  0
  -29.7710  -25.5620   21.5470 C   0  0  0  0  0  1  0  0  0  0  0  0
  -27.3440  -25.3680   21.9300 C   0  0  0  0  0  1  0  0  0  0  0  0
  -28.4350  -25.3270   20.8190 C   0  0  2  0  0  0  0  0  0  0  0  0
  -28.3880  -26.5590   19.9800 O   0  0  0  0  0  0  0  0  0  0  0  0
  -24.4990  -31.7550   23.0520 C   0  0  0  0  0  0  0  0  0  0  0  0
  -27.2510  -27.3700   19.9390 C   0  0  0  0  0  0  0  0  0  0  0  0
  -23.3480  -30.3770   21.3560 C   0  0  0  0  0  3  0  0  0  0  0  0
  -24.8530  -28.8960   19.9010 C   0  0  0  0  0  0  0  0  0  0  0  0
  -25.8680  -30.7720   21.2020 C   0  0  0  0  0  2  0  0  0  0  0  0
  -25.9910  -29.4110   20.5340 C   0  0  0  0  0  0  0  0  0  0  0  0
  -27.1950  -28.6570   20.5460 C   0  0  0  0  0  3  0  0  0  0  0  0
  -26.1070  -26.9010   19.2610 C   0  0  0  0  0  3  0  0  0  0  0  0
  -24.9110  -27.6450   19.2530 C   0  0  0  0  0  3  0  0  0  0  0  0
  -23.5900  -29.7350   19.9600 C   0  0  0  0  0  2  0  0  0  0  0  0
  -24.5900  -30.9830   21.9300 N   0  0  0  0  0  0  0  0  0  0  0  0
  -23.4050  -31.9880   23.5860 O   0  0  0  0  0  0  0  0  0  0  0  0
  -22.7040  -29.3130   22.2770 C   0  0  0  0  0  0  0  0  0  0  0  0
  -21.3750  -29.1380   22.1650 N   0  0  0  0  0  0  0  0  0  0  0  0
  -23.4000  -28.6470   23.0510 O   0  0  0  0  0  0  0  0  0  0  0  0
  -20.8690  -29.7460   21.5350 H   0  0  0  0  0  0  0  0  0  0  0  0
  -18.0050  -27.9550   22.7100 C   0  0  0  0  0  0  0  0  0  0  0  0
  -20.5750  -28.1570   22.9050 C   0  0  0  0  0  3  0  0  0  0  0  0
  -20.6290  -26.7690   22.2230 C   0  0  0  0  0  2  0  0  0  0  0  0
  -19.4900  -26.5430   21.2290 C   0  0  0  0  0  2  0  0  0  0  0  0
  -18.1350  -26.6580   21.9300 C   0  0  0  0  0  2  0  0  0  0  0  0
  -19.1490  -28.6700   23.1520 C   0  0  0  0  0  0  0  0  0  0  0  0
  -18.9730  -29.8930   23.8340 C   0  0  0  0  0  3  0  0  0  0  0  0
  -17.6850  -30.4050   24.0770 C   0  0  0  0  0  3  0  0  0  0  0  0
  -16.5550  -29.6870   23.6520 C   0  0  0  0  0  3  0  0  0  0  0  0
  -16.7170  -28.4650   22.9750 C   0  0  0  0  0  3  0  0  0  0  0  0
  -25.7590  -32.4020   23.7040 C   0  0  0  0  0  3  0  0  0  0  0  0
  -26.2730  -31.6150   24.9710 C   0  0  1  0  0  0  0  0  0  0  0  0
  -25.1690  -31.3270   26.0140 C   0  0  0  0  0  1  0  0  0  0  0  0
  -26.8890  -30.2590   24.5530 C   0  0  0  0  0  1  0  0  0  0  0  0
  -27.3960  -32.4160   25.6700 C   0  0  0  0  0  1  0  0  0  0  0  0
  -25.4140  -33.7840   24.0640 N   0  0  0  0  0  0  0  0  0  0  0  0
  -25.7360  -34.8650   23.3410 C   0  0  0  0  0  0  0  0  0  0  0  0
  -26.4260  -34.8040   22.3200 O   0  0  0  0  0  0  0  0  0  0  0  0
  -24.7950  -33.9010   24.8530 H   0  0  0  0  0  0  0  0  0  0  0  0
  -23.9840  -36.6380   22.9870 C   0  0  0  0  0  1  0  0  0  0  0  0
  -25.2100  -36.2290   23.8230 C   0  0  0  0  0  3  0  0  0  0  0  0
  -27.2980  -37.1370   24.7450 C   0  0  0  0  0  1  0  0  0  0  0  0
  -26.2240  -37.3050   23.7680 N   0  0  0  0  0  0  0  0  0  0  0  0
  -25.7960  -38.2140   23.9150 H   0  0  0  0  0  0  0  0  0  0  0  0
  3  2  1  6
  3  1  1  0
  3 52  1  0
  4  6  2  0
  4  7  1  0
  5  9  2  0
  6  5  1  0
  7  3  1  0
  7  8  2  0
  8 11  1  0
  9  8  1  0
  9 20  1  0
 10  6  1  0
 12 20  1  0
 13 18  1  0
 14 15  1  0
 14 13  1  0
 16 15  1  0
 16 25  1  0
 16 17  1  0
 18 12  1  0
 18 17  1  0
 19 12  2  0
 20 21  1  0
 22 23  2  0
 23 42  1  0
 24 23  1  0
 24 27  1  0
 25 26  1  0
 25 22  1  0
 26 24  2  0
 27 28  1  0
 28 29  2  0
 30 33  1  0
 30 29  1  0
 31 30  2  0
 32 31  1  0
 32 27  2  0
 33 34  1  0
 34 39  2  0
 34 35  1  0
 35 36  2  0
 36 37  1  0
 37 41  1  0
 38 37  2  0
 39 38  1  0
 40 39  1  0
 42 43  1  0
 43 46  1  0
 43 45  1  0
 44 42  2  0
 47 48  1  0
 47 22  1  0
 49 47  1  0
 52 51  1  1
 52 50  1  0
 53 52  1  0
 53 56  1  0
 56 54  1  1
 56 55  1  0
 57 56  1  0
 58 69  2  0
 59 57  1  0
 59 64  1  0
 60 68  1  0
 60 70  1  0
 61 67  1  0
 61 63  1  0
 62 68  1  0
 63 64  2  0
 63 62  1  0
 65 59  2  0
 66 65  1  0
 66 61  2  0
 67 60  1  0
 68 58  1  0
 70 72  2  0
 71 70  1  0
 73 71  1  0
 74 83  2  0
 74 79  1  0
 75 71  1  0
 75 79  1  0
 76 75  1  0
 77 78  1  0
 77 76  1  0
 78 74  1  0
 79 80  2  0
 80 81  1  0
 82 81  2  0
 83 82  1  0
 84 58  1  0
 84 89  1  0
 84 85  1  0
 85 88  1  1
 85 86  1  0
 87 85  1  0
 89 92  1  0
 90 94  1  0
 90 89  1  0
 91 90  2  0
 94 93  1  0
 96 94  1  0
 96 97  1  0
 96 95  1  0
M  ISO  4  12 100  20 100  56 101  57 101
M  END
>  <TORSDO>  (20) 
F 20

>  <SCORE>  (20) 
-13.403

>  <name>  (20) 
19

>  <ligand_id>  (20) 
19

>  <original_smiles>  (20) 
[H]c1c([H])c([H])c2c(c1[H])C([H])([H])C([H])([H])C([H])([H])C2([H])N([H])C(=O)C1([H])N(C(=O)C([H])(N([H])C(=O)C([H])(N([H])C([H])([H])[H])C([H])([H])[H])C(C([H])([H])[H])(C([H])([H])[H])C([H])([H])[H])C([H])([H])c2c([H])c(OC(C([H])([H])[H])(C([H])([H])[H])C([H])([H])C(C([H])([H])[H])(C([H])([H])[H])C(c3c([H])c(C([H])([H])[H])c([H])c(N([H])C(=O)N4C([H])([H])C([H])([H])C([H])([H])C([H])(n5nc(-c6c([H])c([H])c(Oc7c([H])c([H])c(F)c([H])c7F)c([H])c6[H])c(C(=O)N([H])[H])c5N([H])[H])C4([H])[H])c3C([H])([H])[H])(C([H])([H])[H])C([H])([H])[H])c([H])c([H])c2C1([H])[H]

>  <smiles>  (20) 
[H]c1c([H])c([H])c2c(c1[H])C([H])([H])C([H])([H])C([H])([H])C2([H])N([H])C(=O)C1([H])N(C(=O)C([H])(N([H])C(=O)C([H])(N([H])C([H])([H])[H])C([H])([H])[H])C(C([H])([H])[H])(C([H])([H])[H])C([H])([H])[H])C([H])([H])c2c([H])c(OC(C([H])([H])[H])(C([H])([H])[H])C([H])([H])C(C([H])([H])[H])(C([H])([H])[H])C(c3c([H])c(C([H])([H])[H])c([H])c(N([H])C(=O)N4C([H])([H])C([H])([H])C([H])([H])C([H])(n5nc(-c6c([H])c([H])c(Oc7c([H])c([H])c(F)c([H])c7F)c([H])c6[H])c(C(=O)N([H])[H])c5N([H])[H])C4([H])[H])c3C([H])([H])[H])(C([H])([H])[H])C([H])([H])[H])c([H])c([H])c2C1([H])[H]

$$$$
20:0:0
     RDKit          3D

 96105  0  0  1  0  0  0  0  0999 V2000
  -29.7760  -23.1110   19.0170 C   0  0  0  0  0  0  0  0  0  0  0  0
  -29.9840  -24.4330   18.8200 C   0  0  0  0  0  3  0  0  0  0  0  0
  -30.9170  -22.2230   19.5130 C   0  0  0  0  0  2  0  0  0  0  0  0
  -28.4610  -22.3870   18.6980 C   0  0  0  0  0  2  0  0  0  0  0  0
  -30.4560  -21.1620   20.5210 C   0  0  0  0  0  2  0  0  0  0  0  0
  -28.1470  -21.1540   19.5760 C   0  0  0  0  0  2  0  0  0  0  0  0
  -29.3390  -20.4130   19.9680 N   0  0  0  0  0  0  0  0  0  0  0  0
  -29.8220  -17.3410   17.8750 C   0  0  0  0  0  3  0  0  0  0  0  0
  -29.9110  -16.3690   18.8780 C   0  0  0  0  0  3  0  0  0  0  0  0
  -29.6360  -18.0800   20.5820 C   0  0  0  0  0  3  0  0  0  0  0  0
  -29.6540  -18.6960   18.2080 C   0  0  0  0  0  0  0  0  0  0  0  0
  -29.5390  -19.0770   19.5740 C   0  0  0  0  0  0  0  0  0  0  0  0
  -29.8370  -16.7210   20.2440 C   0  0  0  0  0  0  0  0  0  0  0  0
  -29.6440  -19.6880   17.0600 C   0  0  0  0  0  1  0  0  0  0  0  0
  -30.7330  -14.6520   21.1530 C   0  0  0  0  0  0  0  0  0  0  0  0
  -30.6280  -12.3970   20.1990 C   0  0  0  0  0  2  0  0  0  0  0  0
  -29.8310  -12.4480   18.8770 C   0  0  0  0  0  2  0  0  0  0  0  0
  -28.3110  -12.3680   19.1300 C   0  0  0  0  0  2  0  0  0  0  0  0
  -27.8160  -13.2800   20.2860 C   0  0  0  0  0  3  0  0  0  0  0  0
  -28.7380  -13.1670   21.5220 C   0  0  0  0  0  2  0  0  0  0  0  0
  -30.1150  -13.4450   21.0910 N   0  0  0  0  0  0  0  0  0  0  0  0
  -31.9290  -14.8190   20.8930 O   0  0  0  0  0  0  0  0  0  0  0  0
  -29.9040  -15.7060   21.2470 N   0  0  0  0  0  0  0  0  0  0  0  0
  -29.0260  -15.5050   21.7030 H   0  0  0  0  0  0  0  0  0  0  0  0
  -25.3460  -13.8720   20.7140 C   0  0  0  0  0  0  0  0  0  0  0  0
  -24.2550  -13.0930   20.9880 C   0  0  0  0  0  0  0  0  0  0  0  0
  -24.7350  -11.7480   21.0530 C   0  0  0  0  0  0  0  0  0  0  0  0
  -26.4230  -13.0020   20.6260 N   0  0  0  0  0  0  0  0  0  0  0  0
  -26.0510  -11.7230   20.8880 N   0  0  0  0  0  0  0  0  0  0  0  0
  -24.0120  -10.4800   21.2010 C   0  0  0  0  0  0  0  0  0  0  0  0
  -24.3790   -9.5310   22.1810 C   0  0  0  0  0  3  0  0  0  0  0  0
  -23.6580   -8.3250   22.3160 C   0  0  0  0  0  3  0  0  0  0  0  0
  -22.5570   -8.0600   21.4670 C   0  0  0  0  0  0  0  0  0  0  0  0
  -22.2100   -8.9960   20.4780 C   0  0  0  0  0  3  0  0  0  0  0  0
  -22.9320  -10.1930   20.3420 C   0  0  0  0  0  3  0  0  0  0  0  0
  -21.8140   -6.9040   21.5090 O   0  0  0  0  0  0  0  0  0  0  0  0
  -21.7010   -6.1600   22.6560 C   0  0  0  0  0  0  0  0  0  0  0  0
  -21.1980   -6.7130   23.8550 C   0  0  0  0  0  3  0  0  0  0  0  0
  -21.0330   -5.8980   24.9920 C   0  0  0  0  0  3  0  0  0  0  0  0
  -21.3600   -4.5300   24.9310 C   0  0  0  0  0  0  0  0  0  0  0  0
  -21.8560   -3.9770   23.7380 C   0  0  0  0  0  3  0  0  0  0  0  0
  -22.0210   -4.7890   22.6020 C   0  0  0  0  0  0  0  0  0  0  0  0
  -22.4800   -4.2460   21.4490 F   0  0  0  0  0  0  0  0  0  0  0  0
  -21.1930   -3.7440   26.0200 F   0  0  0  0  0  0  0  0  0  0  0  0
  -22.8280  -13.5530   21.0920 C   0  0  0  0  0  0  0  0  0  0  0  0
  -22.0210  -12.8740   21.8990 N   0  0  0  0  0  0  0  0  0  0  0  0
  -22.4340  -14.5500   20.4900 O   0  0  0  0  0  0  0  0  0  0  0  0
  -22.3500  -12.0680   22.4100 H   0  0  0  0  0  0  0  0  0  0  0  0
  -21.0610  -13.1660   22.0080 H   0  0  0  0  0  0  0  0  0  0  0  0
  -25.5130  -15.2400   20.5160 N   0  0  0  0  0  0  0  0  0  0  0  0
  -24.7340  -15.8900   20.5230 H   0  0  0  0  0  0  0  0  0  0  0  0
  -26.3890  -15.6790   20.2660 H   0  0  0  0  0  0  0  0  0  0  0  0
  -29.0130  -25.3630   18.2110 C   0  0  0  0  0  0  0  0  0  0  0  0
  -28.2530  -25.0530   17.2880 O   0  0  0  0  0  0  0  0  0  0  0  0
  -28.9950  -26.7990   18.7310 C   0  0  0  0  0  2  0  0  0  0  0  0
  -28.3470  -26.8360   19.9960 O   0  0  0  0  0  0  0  0  0  0  0  0
  -24.5370  -31.8920   23.1780 C   0  0  0  0  0  0  0  0  0  0  0  0
  -27.1670  -27.5300   20.0110 C   0  0  0  0  0  0  0  0  0  0  0  0
  -23.3110  -30.5000   21.5370 C   0  0  0  0  0  3  0  0  0  0  0  0
  -24.7530  -28.9820   20.0770 C   0  0  0  0  0  0  0  0  0  0  0  0
  -25.8250  -30.8830   21.3040 C   0  0  0  0  0  2  0  0  0  0  0  0
  -25.9100  -29.5180   20.6580 C   0  0  0  0  0  0  0  0  0  0  0  0
  -27.1160  -28.7910   20.6370 C   0  0  0  0  0  3  0  0  0  0  0  0
  -25.9990  -26.9930   19.4300 C   0  0  0  0  0  3  0  0  0  0  0  0
  -24.7890  -27.7150   19.4650 C   0  0  0  0  0  3  0  0  0  0  0  0
  -23.5030  -29.8310   20.1470 C   0  0  0  0  0  2  0  0  0  0  0  0
  -24.5760  -31.1040   22.0660 N   0  0  0  0  0  0  0  0  0  0  0  0
  -23.4640  -32.1550   23.7390 O   0  0  0  0  0  0  0  0  0  0  0  0
  -22.6780  -29.4690   22.4980 C   0  0  0  0  0  0  0  0  0  0  0  0
  -21.3520  -29.2870   22.3920 N   0  0  0  0  0  0  0  0  0  0  0  0
  -23.3760  -28.8340   23.2930 O   0  0  0  0  0  0  0  0  0  0  0  0
  -20.8480  -29.8530   21.7220 H   0  0  0  0  0  0  0  0  0  0  0  0
  -17.9880  -28.0900   22.9330 C   0  0  0  0  0  0  0  0  0  0  0  0
  -20.5500  -28.3420   23.1660 C   0  0  0  0  0  3  0  0  0  0  0  0
  -20.6410  -26.9160   22.5720 C   0  0  0  0  0  2  0  0  0  0  0  0
  -19.5230  -26.6080   21.5720 C   0  0  0  0  0  2  0  0  0  0  0  0
  -18.1530  -26.7470   22.2400 C   0  0  0  0  0  2  0  0  0  0  0  0
  -19.1140  -28.8450   23.3540 C   0  0  0  0  0  0  0  0  0  0  0  0
  -18.9090  -30.1020   23.9620 C   0  0  0  0  0  3  0  0  0  0  0  0
  -17.6070  -30.6060   24.1520 C   0  0  0  0  0  3  0  0  0  0  0  0
  -16.4950  -29.8470   23.7470 C   0  0  0  0  0  3  0  0  0  0  0  0
  -16.6870  -28.5910   23.1450 C   0  0  0  0  0  3  0  0  0  0  0  0
  -25.8320  -32.5190   23.7820 C   0  0  0  0  0  3  0  0  0  0  0  0
  -26.3830  -31.7270   25.0320 C   0  0  1  0  0  0  0  0  0  0  0  0
  -25.3170  -31.4650   26.1210 C   0  0  0  0  0  1  0  0  0  0  0  0
  -26.9630  -30.3600   24.6000 C   0  0  0  0  0  1  0  0  0  0  0  0
  -27.5470  -32.5140   25.6820 C   0  0  0  0  0  1  0  0  0  0  0  0
  -25.5240  -33.9090   24.1410 N   0  0  0  0  0  0  0  0  0  0  0  0
  -25.8520  -34.9750   23.3990 C   0  0  0  0  0  0  0  0  0  0  0  0
  -26.5170  -34.8920   22.3620 O   0  0  0  0  0  0  0  0  0  0  0  0
  -24.9310  -34.0480   24.9460 H   0  0  0  0  0  0  0  0  0  0  0  0
  -24.1220  -36.7720   23.0770 C   0  0  0  0  0  1  0  0  0  0  0  0
  -25.3620  -36.3540   23.8810 C   0  0  0  0  0  3  0  0  0  0  0  0
  -27.4990  -37.2200   24.7280 C   0  0  0  0  0  1  0  0  0  0  0  0
  -26.3940  -37.4090   23.7900 N   0  0  0  0  0  0  0  0  0  0  0  0
  -25.9890  -38.3260   23.9610 H   0  0  0  0  0  0  0  0  0  0  0  0
  1  3  1  0
  2  1  2  0
  3  5  1  0
  4  1  1  0
  4  6  1  0
  6  7  1  0
  7  5  1  0
  8 11  2  0
  8  9  1  0
  9 13  2  0
 11 12  1  0
 12  7  1  0
 12 10  2  0
 13 10  1  0
 13 23  1  0
 14 11  1  0
 15 23  1  0
 16 21  1  0
 17 18  1  0
 17 16  1  0
 19 18  1  0
 19 28  1  0
 19 20  1  0
 21 15  1  0
 21 20  1  0
 22 15  2  0
 23 24  1  0
 25 26  2  0
 26 27  1  0
 26 45  1  0
 27 30  1  0
 28 25  1  0
 28 29  1  0
 29 27  2  0
 30 31  1  0
 31 32  2  0
 33 36  1  0
 33 32  1  0
 34 33  2  0
 35 34  1  0
 35 30  2  0
 36 37  1  0
 37 38  1  0
 38 39  2  0
 40 39  1  0
 40 44  1  0
 41 40  2  0
 42 37  2  0
 42 41  1  0
 43 42  1  0
 45 46  1  0
 46 49  1  0
 46 48  1  0
 47 45  2  0
 50 51  1  0
 50 25  1  0
 52 50  1  0
 53 55  1  0
 53  2  1  0
 54 53  2  0
 55 56  1  0
 56 58  1  0
 57 68  2  0
 58 63  1  0
 59 67  1  0
 59 69  1  0
 60 66  1  0
 60 62  1  0
 61 67  1  0
 62 61  1  0
 63 62  2  0
 64 65  1  0
 64 58  2  0
 65 60  2  0
 66 59  1  0
 67 57  1  0
 69 71  2  0
 70 69  1  0
 72 70  1  0
 73 82  2  0
 73 78  1  0
 74 70  1  0
 74 78  1  0
 75 74  1  0
 76 77  1  0
 76 75  1  0
 77 73  1  0
 78 79  2  0
 79 80  1  0
 81 80  2  0
 82 81  1  0
 83 57  1  0
 83 88  1  0
 83 84  1  0
 84 87  1  1
 84 85  1  0
 86 84  1  0
 88 91  1  0
 89 93  1  0
 89 88  1  0
 90 89  2  0
 93 92  1  0
 95 93  1  0
 95 96  1  0
 95 94  1  0
M  ISO  4  15 100  23 100  55 101  56 101
M  END
>  <TORSDO>  (21) 
F 19

>  <SCORE>  (21) 
-13.724

>  <name>  (21) 
20

>  <ligand_id>  (21) 
20

>  <original_smiles>  (21) 
[H]C(C(=O)C([H])([H])Oc1c([H])c([H])c2c(c1[H])C([H])([H])N(C(=O)C([H])(N([H])C(=O)C([H])(N([H])C([H])([H])[H])C([H])([H])[H])C(C([H])([H])[H])(C([H])([H])[H])C([H])([H])[H])C([H])(C(=O)N([H])C1([H])c3c([H])c([H])c([H])c([H])c3C([H])([H])C([H])([H])C1([H])[H])C2([H])[H])=C1C([H])([H])C([H])([H])N(c2c([H])c(N([H])C(=O)N3C([H])([H])C([H])([H])C([H])([H])C([H])(n4nc(-c5c([H])c([H])c(Oc6c([H])c([H])c(F)c([H])c6F)c([H])c5[H])c(C(=O)N([H])[H])c4N([H])[H])C3([H])[H])c([H])c([H])c2C([H])([H])[H])C([H])([H])C1([H])[H]

>  <smiles>  (21) 
[H]C(C(=O)C([H])([H])Oc1c([H])c([H])c2c(c1[H])C([H])([H])N(C(=O)C([H])(N([H])C(=O)C([H])(N([H])C([H])([H])[H])C([H])([H])[H])C(C([H])([H])[H])(C([H])([H])[H])C([H])([H])[H])C([H])(C(=O)N([H])C1([H])c3c([H])c([H])c([H])c([H])c3C([H])([H])C([H])([H])C1([H])[H])C2([H])[H])=C1C([H])([H])C([H])([H])N(c2c([H])c(N([H])C(=O)N3C([H])([H])C([H])([H])C([H])([H])C([H])(n4nc(-c5c([H])c([H])c(Oc6c([H])c([H])c(F)c([H])c6F)c([H])c5[H])c(C(=O)N([H])[H])c4N([H])[H])C3([H])[H])c([H])c([H])c2C([H])([H])[H])C([H])([H])C1([H])[H]

$$$$
21:0:0
     RDKit          3D

 94102  0  0  1  0  0  0  0  0999 V2000
  -31.8130  -22.2780   21.4940 C   0  0  0  0  0  1  0  0  0  0  0  0
  -30.7360  -22.3720   20.3850 C   0  0  0  0  0  3  0  0  0  0  0  0
  -31.9940  -22.3160   18.1460 C   0  0  0  0  0  1  0  0  0  0  0  0
  -29.7810  -21.2160   18.2920 C   0  0  0  0  0  1  0  0  0  0  0  0
  -31.0680  -21.5110   19.0960 C   0  0  2  0  0  0  0  0  0  0  0  0
  -31.7950  -20.1450   19.4220 C   0  0  0  0  0  2  0  0  0  0  0  0
  -31.3210  -17.6510   20.0270 C   0  0  0  0  0  3  0  0  0  0  0  0
  -30.1460  -19.2580   21.2050 C   0  0  0  0  0  3  0  0  0  0  0  0
  -31.0730  -19.0580   20.2140 C   0  0  0  0  0  0  0  0  0  0  0  0
  -30.5640  -16.8170   20.8270 C   0  0  0  0  0  0  0  0  0  0  0  0
  -29.5510  -17.7690   21.8760 S   0  0  0  0  0  0  0  0  0  0  0  0
  -31.0630  -14.5270   20.1290 C   0  0  0  0  0  0  0  0  0  0  0  0
  -30.6610  -12.4180   18.9140 C   0  0  0  0  0  2  0  0  0  0  0  0
  -29.6600  -12.7110   17.7770 C   0  0  0  0  0  2  0  0  0  0  0  0
  -28.2090  -12.5750   18.2750 C   0  0  0  0  0  2  0  0  0  0  0  0
  -27.9580  -13.3510   19.5960 C   0  0  0  0  0  3  0  0  0  0  0  0
  -29.0670  -13.0540   20.6310 C   0  0  0  0  0  2  0  0  0  0  0  0
  -30.3720  -13.3560   20.0100 N   0  0  0  0  0  0  0  0  0  0  0  0
  -32.1270  -14.7410   19.5400 O   0  0  0  0  0  0  0  0  0  0  0  0
  -30.4680  -15.4580   20.8950 N   0  0  0  0  0  0  0  0  0  0  0  0
  -29.7000  -15.1140   21.4490 H   0  0  0  0  0  0  0  0  0  0  0  0
  -25.6100  -13.9580   20.4530 C   0  0  0  0  0  0  0  0  0  0  0  0
  -24.5460  -13.1850   20.8390 C   0  0  0  0  0  0  0  0  0  0  0  0
  -24.9800  -11.8300   20.7180 C   0  0  0  0  0  0  0  0  0  0  0  0
  -26.6260  -13.0740   20.1280 N   0  0  0  0  0  0  0  0  0  0  0  0
  -26.2520  -11.7850   20.3400 N   0  0  0  0  0  0  0  0  0  0  0  0
  -24.2410  -10.5720   20.8880 C   0  0  0  0  0  0  0  0  0  0  0  0
  -24.6690   -9.5780   21.7970 C   0  0  0  0  0  3  0  0  0  0  0  0
  -23.9310   -8.3870   21.9550 C   0  0  0  0  0  3  0  0  0  0  0  0
  -22.7500   -8.1800   21.2030 C   0  0  0  0  0  0  0  0  0  0  0  0
  -22.3410   -9.1590   20.2820 C   0  0  0  0  0  3  0  0  0  0  0  0
  -23.0790  -10.3440   20.1220 C   0  0  0  0  0  3  0  0  0  0  0  0
  -21.9830   -7.0430   21.2740 O   0  0  0  0  0  0  0  0  0  0  0  0
  -21.8910   -6.3040   22.4270 C   0  0  0  0  0  0  0  0  0  0  0  0
  -21.4310   -6.8690   23.6370 C   0  0  0  0  0  3  0  0  0  0  0  0
  -21.2860   -6.0600   24.7820 C   0  0  0  0  0  3  0  0  0  0  0  0
  -21.5880   -4.6880   24.7160 C   0  0  0  0  0  0  0  0  0  0  0  0
  -22.0430   -4.1210   23.5110 C   0  0  0  0  0  3  0  0  0  0  0  0
  -22.1900   -4.9270   22.3690 C   0  0  0  0  0  0  0  0  0  0  0  0
  -22.6060   -4.3740   21.2050 F   0  0  0  0  0  0  0  0  0  0  0  0
  -21.4440   -3.9080   25.8140 F   0  0  0  0  0  0  0  0  0  0  0  0
  -23.1760  -13.6710   21.2130 C   0  0  0  0  0  0  0  0  0  0  0  0
  -22.4860  -12.9470   22.0880 N   0  0  0  0  0  0  0  0  0  0  0  0
  -22.7260  -14.7250   20.7690 O   0  0  0  0  0  0  0  0  0  0  0  0
  -22.8650  -12.0900   22.4660 H   0  0  0  0  0  0  0  0  0  0  0  0
  -21.5670  -13.2520   22.3810 H   0  0  0  0  0  0  0  0  0  0  0  0
  -25.7870  -15.3330   20.3380 N   0  0  0  0  0  0  0  0  0  0  0  0
  -25.0390  -15.9940   20.5180 H   0  0  0  0  0  0  0  0  0  0  0  0
  -26.6400  -15.7800   20.0230 H   0  0  0  0  0  0  0  0  0  0  0  0
  -30.3890  -23.8630   20.1320 C   0  0  0  0  0  0  0  0  0  0  0  0
  -31.2600  -24.7370   20.1840 O   0  0  0  0  0  0  0  0  0  0  0  0
  -28.9320  -24.2360   19.8360 C   0  0  0  0  0  2  0  0  0  0  0  0
  -28.4120  -25.4320   20.6640 C   0  0  0  0  0  2  0  0  0  0  0  0
  -28.5060  -26.6850   19.9730 O   0  0  0  0  0  0  0  0  0  0  0  0
  -24.6580  -31.7250   23.1860 C   0  0  0  0  0  0  0  0  0  0  0  0
  -27.3390  -27.4100   19.9830 C   0  0  0  0  0  0  0  0  0  0  0  0
  -23.4590  -30.3540   21.5120 C   0  0  0  0  0  3  0  0  0  0  0  0
  -24.9250  -28.8700   20.0420 C   0  0  0  0  0  0  0  0  0  0  0  0
  -25.9790  -30.7530   21.3100 C   0  0  0  0  0  2  0  0  0  0  0  0
  -26.0790  -29.4020   20.6330 C   0  0  0  0  0  0  0  0  0  0  0  0
  -27.2940  -28.6820   20.5940 C   0  0  0  0  0  3  0  0  0  0  0  0
  -26.1690  -26.8850   19.3910 C   0  0  0  0  0  3  0  0  0  0  0  0
  -24.9620  -27.6110   19.4190 C   0  0  0  0  0  3  0  0  0  0  0  0
  -23.6700  -29.7100   20.1160 C   0  0  0  0  0  2  0  0  0  0  0  0
  -24.7180  -30.9560   22.0630 N   0  0  0  0  0  0  0  0  0  0  0  0
  -23.5760  -31.9720   23.7350 O   0  0  0  0  0  0  0  0  0  0  0  0
  -22.8200  -29.3030   22.4460 C   0  0  0  0  0  0  0  0  0  0  0  0
  -21.4940  -29.1310   22.3290 N   0  0  0  0  0  0  0  0  0  0  0  0
  -23.5120  -28.6480   23.2320 O   0  0  0  0  0  0  0  0  0  0  0  0
  -20.9970  -29.7140   21.6680 H   0  0  0  0  0  0  0  0  0  0  0  0
  -18.1170  -27.9490   22.8390 C   0  0  0  0  0  0  0  0  0  0  0  0
  -20.6820  -28.1690   23.0720 C   0  0  0  0  0  3  0  0  0  0  0  0
  -20.7590  -26.7630   22.4350 C   0  0  0  0  0  2  0  0  0  0  0  0
  -19.6340  -26.4940   21.4320 C   0  0  0  0  0  2  0  0  0  0  0  0
  -18.2660  -26.6270   22.1060 C   0  0  0  0  0  2  0  0  0  0  0  0
  -19.2510  -28.6820   23.2780 C   0  0  0  0  0  0  0  0  0  0  0  0
  -19.0580  -29.9240   23.9210 C   0  0  0  0  0  3  0  0  0  0  0  0
  -17.7620  -30.4320   24.1310 C   0  0  0  0  0  3  0  0  0  0  0  0
  -16.6420  -29.6940   23.7090 C   0  0  0  0  0  3  0  0  0  0  0  0
  -16.8200  -28.4540   23.0710 C   0  0  0  0  0  3  0  0  0  0  0  0
  -25.9370  -32.3520   23.8210 C   0  0  0  0  0  3  0  0  0  0  0  0
  -25.6260  -33.7470   24.1620 N   0  0  0  0  0  0  0  0  0  0  0  0
  -25.9730  -34.8060   23.4170 C   0  0  0  0  0  0  0  0  0  0  0  0
  -26.6580  -34.7120   22.3960 O   0  0  0  0  0  0  0  0  0  0  0  0
  -25.0240  -33.8960   24.9580 H   0  0  0  0  0  0  0  0  0  0  0  0
  -24.2550  -36.6050   23.0510 C   0  0  0  0  0  1  0  0  0  0  0  0
  -25.4790  -36.1890   23.8810 C   0  0  0  0  0  3  0  0  0  0  0  0
  -27.5990  -37.0560   24.7670 C   0  0  0  0  0  1  0  0  0  0  0  0
  -26.5160  -37.2420   23.8040 N   0  0  0  0  0  0  0  0  0  0  0  0
  -26.1080  -38.1600   23.9580 H   0  0  0  0  0  0  0  0  0  0  0  0
  -26.4500  -31.5670   25.0900 C   0  0  1  0  0  0  0  0  0  0  0  0
  -25.3520  -31.3090   26.1490 C   0  0  0  0  0  1  0  0  0  0  0  0
  -27.0420  -30.1990   24.6800 C   0  0  0  0  0  1  0  0  0  0  0  0
  -27.5940  -32.3580   25.7700 C   0  0  0  0  0  1  0  0  0  0  0  0
  2  1  1  0
  5  3  1  6
  4  5  1  0
  5  6  1  0
  5  2  1  0
  6  9  1  0
  7  9  1  0
  7 10  2  0
  8 11  1  0
  9  8  2  0
 10 20  1  0
 10 11  1  0
 12 20  1  0
 13 18  1  0
 14 15  1  0
 14 13  1  0
 16 15  1  0
 16 25  1  0
 16 17  1  0
 18 12  1  0
 18 17  1  0
 19 12  2  0
 20 21  1  0
 22 23  2  0
 23 42  1  0
 24 23  1  0
 24 27  1  0
 25 26  1  0
 25 22  1  0
 26 24  2  0
 27 28  1  0
 28 29  2  0
 30 33  1  0
 30 29  1  0
 31 30  2  0
 32 31  1  0
 32 27  2  0
 33 34  1  0
 34 35  1  0
 35 36  2  0
 37 36  1  0
 37 41  1  0
 38 37  2  0
 39 34  2  0
 39 38  1  0
 40 39  1  0
 42 43  1  0
 43 46  1  0
 43 45  1  0
 44 42  2  0
 47 22  1  0
 47 48  1  0
 49 47  1  0
 50 51  2  0
 50  2  1  0
 52 50  1  0
 52 53  1  0
 54 56  1  0
 54 53  1  0
 55 66  2  0
 56 61  1  0
 57 65  1  0
 57 67  1  0
 58 64  1  0
 58 60  1  0
 59 65  1  0
 60 59  1  0
 61 60  2  0
 62 63  1  0
 62 56  2  0
 63 58  2  0
 64 57  1  0
 65 55  1  0
 67 69  2  0
 68 67  1  0
 70 68  1  0
 71 80  2  0
 71 76  1  0
 72 68  1  0
 72 76  1  0
 73 72  1  0
 74 75  1  0
 74 73  1  0
 75 71  1  0
 76 77  2  0
 77 78  1  0
 79 78  2  0
 80 79  1  0
 81 55  1  0
 81 82  1  0
 81 91  1  0
 82 85  1  0
 83 87  1  0
 83 82  1  0
 84 83  2  0
 87 86  1  0
 89 87  1  0
 89 90  1  0
 89 88  1  0
 91 94  1  1
 91 92  1  0
 93 91  1  0
M  ISO  4  12 100  20 100  53 101  54 101
M  END
>  <TORSDO>  (22) 
F 22

>  <SCORE>  (22) 
-11.808

>  <name>  (22) 
21

>  <ligand_id>  (22) 
21

>  <original_smiles>  (22) 
[H]c1sc(N([H])C(=O)N2C([H])([H])C([H])([H])C([H])([H])C([H])(n3nc(-c4c([H])c([H])c(Oc5c([H])c([H])c(F)c([H])c5F)c([H])c4[H])c(C(=O)N([H])[H])c3N([H])[H])C2([H])[H])c([H])c1C([H])([H])C(C([H])([H])[H])(C([H])([H])[H])C([H])(C(=O)C([H])([H])C([H])([H])Oc1c([H])c([H])c2c(c1[H])C([H])([H])N(C(=O)C([H])(N([H])C(=O)C([H])(N([H])C([H])([H])[H])C([H])([H])[H])C(C([H])([H])[H])(C([H])([H])[H])C([H])([H])[H])C([H])(C(=O)N([H])C1([H])c3c([H])c([H])c([H])c([H])c3C([H])([H])C([H])([H])C1([H])[H])C2([H])[H])C([H])([H])[H]

>  <smiles>  (22) 
[H]c1sc(N([H])C(=O)N2C([H])([H])C([H])([H])C([H])([H])C([H])(n3nc(-c4c([H])c([H])c(Oc5c([H])c([H])c(F)c([H])c5F)c([H])c4[H])c(C(=O)N([H])[H])c3N([H])[H])C2([H])[H])c([H])c1C([H])([H])C(C([H])([H])[H])(C([H])([H])[H])C([H])(C(=O)C([H])([H])C([H])([H])Oc1c([H])c([H])c2c(c1[H])C([H])([H])N(C(=O)C([H])(N([H])C(=O)C([H])(N([H])C([H])([H])[H])C([H])([H])[H])C(C([H])([H])[H])(C([H])([H])[H])C([H])([H])[H])C([H])(C(=O)N([H])C1([H])c3c([H])c([H])c([H])c([H])c3C([H])([H])C([H])([H])C1([H])[H])C2([H])[H])C([H])([H])[H]

$$$$
22:0:0
     RDKit          3D

 96104  0  0  1  0  0  0  0  0999 V2000
  -31.3540  -20.0230   20.7670 N   0  0  0  0  0  0  0  0  0  0  0  0
  -32.0200  -20.6890   21.1570 H   0  0  0  0  0  0  0  0  0  0  0  0
  -30.6770  -16.7520   23.3580 C   0  0  0  0  0  3  0  0  0  0  0  0
  -31.2370  -17.6380   21.1670 C   0  0  0  0  0  3  0  0  0  0  0  0
  -30.4930  -18.0530   23.8600 C   0  0  0  0  0  0  0  0  0  0  0  0
  -30.7070  -19.1790   23.0190 C   0  0  0  0  0  0  0  0  0  0  0  0
  -31.0670  -16.5250   22.0260 C   0  0  0  0  0  0  0  0  0  0  0  0
  -31.0630  -18.9650   21.6500 C   0  0  0  0  0  0  0  0  0  0  0  0
  -30.0960  -18.1970   25.3230 C   0  0  0  0  0  1  0  0  0  0  0  0
  -31.6900  -14.5800   20.5480 C   0  0  0  0  0  0  0  0  0  0  0  0
  -31.2050  -12.6610   19.0500 C   0  0  0  0  0  2  0  0  0  0  0  0
  -30.2530  -13.0880   17.9140 C   0  0  0  0  0  2  0  0  0  0  0  0
  -28.7780  -13.0310   18.3600 C   0  0  0  0  0  2  0  0  0  0  0  0
  -28.5440  -13.7310   19.7210 C   0  0  0  0  0  3  0  0  0  0  0  0
  -29.5730  -13.2360   20.7550 C   0  0  0  0  0  2  0  0  0  0  0  0
  -30.9310  -13.4970   20.2280 N   0  0  0  0  0  0  0  0  0  0  0  0
  -32.7020  -14.9190   19.9210 O   0  0  0  0  0  0  0  0  0  0  0  0
  -31.3020  -15.1580   21.6950 N   0  0  0  0  0  0  0  0  0  0  0  0
  -30.7010  -14.5300   22.2060 H   0  0  0  0  0  0  0  0  0  0  0  0
  -26.2110  -14.4920   20.5130 C   0  0  0  0  0  0  0  0  0  0  0  0
  -25.0840  -13.7880   20.8470 C   0  0  0  0  0  0  0  0  0  0  0  0
  -25.4270  -12.4090   20.7080 C   0  0  0  0  0  0  0  0  0  0  0  0
  -27.1730  -13.5440   20.1960 N   0  0  0  0  0  0  0  0  0  0  0  0
  -26.7030  -12.2820   20.3650 N   0  0  0  0  0  0  0  0  0  0  0  0
  -24.5990  -11.2020   20.8220 C   0  0  0  0  0  0  0  0  0  0  0  0
  -24.9130  -10.1750   21.7400 C   0  0  0  0  0  3  0  0  0  0  0  0
  -24.0930   -9.0310   21.8430 C   0  0  0  0  0  3  0  0  0  0  0  0
  -22.9430   -8.9070   21.0270 C   0  0  0  0  0  0  0  0  0  0  0  0
  -22.6470   -9.9220   20.0990 C   0  0  0  0  0  3  0  0  0  0  0  0
  -23.4680  -11.0570   19.9940 C   0  0  0  0  0  3  0  0  0  0  0  0
  -22.1030   -7.8200   21.0400 O   0  0  0  0  0  0  0  0  0  0  0  0
  -21.8700   -7.1020   22.1860 C   0  0  0  0  0  0  0  0  0  0  0  0
  -21.3890   -7.7160   23.3630 C   0  0  0  0  0  3  0  0  0  0  0  0
  -21.0960   -6.9300   24.4960 C   0  0  0  0  0  3  0  0  0  0  0  0
  -21.2760   -5.5350   24.4520 C   0  0  0  0  0  0  0  0  0  0  0  0
  -21.7500   -4.9220   23.2800 C   0  0  0  0  0  3  0  0  0  0  0  0
  -22.0440   -5.7040   22.1480 C   0  0  0  0  0  0  0  0  0  0  0  0
  -22.4810   -5.1060   21.0130 F   0  0  0  0  0  0  0  0  0  0  0  0
  -20.9870   -4.7810   25.5380 F   0  0  0  0  0  0  0  0  0  0  0  0
  -23.7370  -14.3600   21.1830 C   0  0  0  0  0  0  0  0  0  0  0  0
  -22.9820  -13.6840   22.0430 N   0  0  0  0  0  0  0  0  0  0  0  0
  -23.3670  -15.4400   20.7250 O   0  0  0  0  0  0  0  0  0  0  0  0
  -23.2960  -12.8110   22.4390 H   0  0  0  0  0  0  0  0  0  0  0  0
  -22.0790  -14.0470   22.3110 H   0  0  0  0  0  0  0  0  0  0  0  0
  -26.4930  -15.8540   20.4390 N   0  0  0  0  0  0  0  0  0  0  0  0
  -25.7930  -16.5640   20.6220 H   0  0  0  0  0  0  0  0  0  0  0  0
  -27.3860  -16.2390   20.1580 H   0  0  0  0  0  0  0  0  0  0  0  0
  -32.0050  -21.1620   23.9510 C   0  0  0  0  0  1  0  0  0  0  0  0
  -30.6210  -20.5810   23.6330 C   0  0  0  0  0  2  0  0  0  0  0  0
  -30.2470  -20.8180   20.2150 C   0  0  0  0  0  2  0  0  0  0  0  0
  -30.5100  -22.3310   20.3770 C   0  0  0  0  0  0  0  0  0  0  0  0
  -31.6370  -22.7270   20.6980 O   0  0  0  0  0  0  0  0  0  0  0  0
  -29.3420  -23.3180   20.1960 C   0  0  0  0  0  2  0  0  0  0  0  0
  -29.6100  -24.7160   20.8110 C   0  0  0  0  0  2  0  0  0  0  0  0
  -28.3840  -25.6480   20.8990 C   0  0  0  0  0  2  0  0  0  0  0  0
  -28.2830  -26.5480   19.7960 O   0  0  0  0  0  0  0  0  0  0  0  0
  -24.8000  -31.6760   23.3120 C   0  0  0  0  0  0  0  0  0  0  0  0
  -27.1670  -27.3440   19.8850 C   0  0  0  0  0  0  0  0  0  0  0  0
  -23.4860  -30.4190   21.6330 C   0  0  0  0  0  3  0  0  0  0  0  0
  -24.8320  -28.9170   20.0720 C   0  0  0  0  0  0  0  0  0  0  0  0
  -26.0140  -30.7000   21.3680 C   0  0  0  0  0  2  0  0  0  0  0  0
  -26.0270  -29.3670   20.6490 C   0  0  0  0  0  0  0  0  0  0  0  0
  -27.2010  -28.5860   20.5570 C   0  0  0  0  0  3  0  0  0  0  0  0
  -25.9610  -26.9020   19.3050 C   0  0  0  0  0  3  0  0  0  0  0  0
  -24.7930  -27.6810   19.4000 C   0  0  0  0  0  3  0  0  0  0  0  0
  -23.6220  -29.8130   20.2100 C   0  0  0  0  0  2  0  0  0  0  0  0
  -24.7870  -30.9410   22.1630 N   0  0  0  0  0  0  0  0  0  0  0  0
  -23.7490  -31.9570   23.9040 O   0  0  0  0  0  0  0  0  0  0  0  0
  -22.8270  -29.3690   22.5560 C   0  0  0  0  0  0  0  0  0  0  0  0
  -21.4940  -29.2370   22.4530 N   0  0  0  0  0  0  0  0  0  0  0  0
  -23.5090  -28.6800   23.3180 O   0  0  0  0  0  0  0  0  0  0  0  0
  -21.0070  -29.8440   21.8090 H   0  0  0  0  0  0  0  0  0  0  0  0
  -18.0970  -28.1150   22.9560 C   0  0  0  0  0  0  0  0  0  0  0  0
  -20.6650  -28.2840   23.1910 C   0  0  0  0  0  3  0  0  0  0  0  0
  -20.7170  -26.8820   22.5430 C   0  0  0  0  0  2  0  0  0  0  0  0
  -19.5880  -26.6430   21.5360 C   0  0  0  0  0  2  0  0  0  0  0  0
  -18.2220  -26.7950   22.2130 C   0  0  0  0  0  2  0  0  0  0  0  0
  -19.2450  -28.8220   23.4020 C   0  0  0  0  0  0  0  0  0  0  0  0
  -19.0750  -30.0600   24.0570 C   0  0  0  0  0  3  0  0  0  0  0  0
  -17.7890  -30.5910   24.2710 C   0  0  0  0  0  3  0  0  0  0  0  0
  -16.6560  -29.8800   23.8410 C   0  0  0  0  0  3  0  0  0  0  0  0
  -16.8100  -28.6430   23.1910 C   0  0  0  0  0  3  0  0  0  0  0  0
  -26.1310  -32.2180   23.9230 C   0  0  0  0  0  3  0  0  0  0  0  0
  -25.8730  -33.5810   24.4020 N   0  0  0  0  0  0  0  0  0  0  0  0
  -26.2170  -34.6970   23.7440 C   0  0  0  0  0  0  0  0  0  0  0  0
  -26.8570  -34.6810   22.6890 O   0  0  0  0  0  0  0  0  0  0  0  0
  -25.3050  -33.6700   25.2320 H   0  0  0  0  0  0  0  0  0  0  0  0
  -24.5360  -36.5620   23.6190 C   0  0  0  0  0  1  0  0  0  0  0  0
  -25.7810  -36.0430   24.3530 C   0  0  0  0  0  3  0  0  0  0  0  0
  -27.9620  -36.7760   25.2110 C   0  0  0  0  0  1  0  0  0  0  0  0
  -26.8420  -37.0730   24.3220 N   0  0  0  0  0  0  0  0  0  0  0  0
  -26.4680  -37.9830   24.5770 H   0  0  0  0  0  0  0  0  0  0  0  0
  -26.6970  -31.3130   25.0860 C   0  0  1  0  0  0  0  0  0  0  0  0
  -25.6540  -30.9820   26.1790 C   0  0  0  0  0  1  0  0  0  0  0  0
  -27.2320  -29.9750   24.5220 C   0  0  0  0  0  1  0  0  0  0  0  0
  -27.8950  -32.0190   25.7640 C   0  0  0  0  0  1  0  0  0  0  0  0
  1  2  1  0
  1  8  1  0
  3  5  1  0
  4  8  2  0
  4  7  1  0
  5  9  1  0
  6 49  1  0
  6  5  2  0
  7  3  2  0
  8  6  1  0
 10 18  1  0
 11 16  1  0
 12 13  1  0
 12 11  1  0
 14 13  1  0
 14 23  1  0
 14 15  1  0
 16 10  1  0
 16 15  1  0
 17 10  2  0
 18  7  1  0
 18 19  1  0
 20 21  2  0
 21 40  1  0
 22 25  1  0
 22 21  1  0
 23 24  1  0
 23 20  1  0
 24 22  2  0
 25 26  1  0
 26 27  2  0
 28 31  1  0
 28 27  1  0
 29 28  2  0
 30 29  1  0
 30 25  2  0
 31 32  1  0
 32 33  1  0
 33 34  2  0
 35 34  1  0
 35 39  1  0
 36 35  2  0
 37 32  2  0
 37 36  1  0
 38 37  1  0
 40 41  1  0
 41 44  1  0
 41 43  1  0
 42 40  2  0
 45 20  1  0
 45 46  1  0
 47 45  1  0
 49 48  1  0
 50 51  1  0
 50  1  1  0
 51 52  2  0
 53 51  1  0
 53 54  1  0
 54 55  1  0
 56 58  1  0
 56 55  1  0
 57 68  2  0
 58 63  1  0
 59 67  1  0
 59 69  1  0
 60 66  1  0
 60 62  1  0
 61 67  1  0
 62 61  1  0
 63 62  2  0
 64 65  1  0
 64 58  2  0
 65 60  2  0
 66 59  1  0
 67 57  1  0
 69 71  2  0
 70 69  1  0
 72 70  1  0
 73 82  2  0
 73 78  1  0
 74 70  1  0
 74 78  1  0
 75 74  1  0
 76 77  1  0
 76 75  1  0
 77 73  1  0
 78 79  2  0
 79 80  1  0
 81 80  2  0
 82 81  1  0
 83 57  1  0
 83 84  1  0
 83 93  1  0
 84 87  1  0
 85 89  1  0
 85 84  1  0
 86 85  2  0
 89 88  1  0
 91 89  1  0
 91 92  1  0
 91 90  1  0
 93 96  1  1
 93 94  1  0
 95 93  1  0
M  ISO  4  10 100  18 100  55 101  56 101
M  END
>  <TORSDO>  (23) 
F 23

>  <SCORE>  (23) 
-7.699

>  <name>  (23) 
22

>  <ligand_id>  (23) 
22

>  <original_smiles>  (23) 
[H]c1c([H])c([H])c2c(c1[H])C([H])([H])C([H])([H])C([H])([H])C2([H])N([H])C(=O)C1([H])N(C(=O)C([H])(N([H])C(=O)C([H])(N([H])C([H])([H])[H])C([H])([H])[H])C(C([H])([H])[H])(C([H])([H])[H])C([H])([H])[H])C([H])([H])c2c([H])c(OC([H])([H])C([H])([H])C([H])([H])C(=O)C([H])([H])N([H])c3c([H])c(N([H])C(=O)N4C([H])([H])C([H])([H])C([H])([H])C([H])(n5nc(-c6c([H])c([H])c(Oc7c([H])c([H])c(F)c([H])c7F)c([H])c6[H])c(C(=O)N([H])[H])c5N([H])[H])C4([H])[H])c([H])c(C([H])([H])[H])c3C([H])([H])C([H])([H])[H])c([H])c([H])c2C1([H])[H]

>  <smiles>  (23) 
[H]c1c([H])c([H])c2c(c1[H])C([H])([H])C([H])([H])C([H])([H])C2([H])N([H])C(=O)C1([H])N(C(=O)C([H])(N([H])C(=O)C([H])(N([H])C([H])([H])[H])C([H])([H])[H])C(C([H])([H])[H])(C([H])([H])[H])C([H])([H])[H])C([H])([H])c2c([H])c(OC([H])([H])C([H])([H])C([H])([H])C(=O)C([H])([H])N([H])c3c([H])c(N([H])C(=O)N4C([H])([H])C([H])([H])C([H])([H])C([H])(n5nc(-c6c([H])c([H])c(Oc7c([H])c([H])c(F)c([H])c7F)c([H])c6[H])c(C(=O)N([H])[H])c5N([H])[H])C4([H])[H])c([H])c(C([H])([H])[H])c3C([H])([H])C([H])([H])[H])c([H])c([H])c2C1([H])[H]

$$$$
23:0:0
     RDKit          3D

 98106  0  0  1  0  0  0  0  0999 V2000
  -29.4210  -18.7810   20.1820 C   0  0  0  0  0  3  0  0  0  0  0  0
  -31.1070  -17.2700   18.5350 C   0  0  0  0  0  3  0  0  0  0  0  0
  -29.4890  -17.3700   20.3680 C   0  0  0  0  0  0  0  0  0  0  0  0
  -30.1670  -19.4390   19.1820 C   0  0  0  0  0  0  0  0  0  0  0  0
  -30.3450  -16.5880   19.5190 C   0  0  0  0  0  0  0  0  0  0  0  0
  -31.0170  -18.6670   18.3650 C   0  0  0  0  0  0  0  0  0  0  0  0
  -31.7460  -19.2780   17.3980 F   0  0  0  0  0  0  0  0  0  0  0  0
  -30.8610  -14.1890   18.8200 C   0  0  0  0  0  0  0  0  0  0  0  0
  -30.1790  -12.1370   17.6290 C   0  0  0  0  0  2  0  0  0  0  0  0
  -29.0080  -12.5030   16.6920 C   0  0  0  0  0  2  0  0  0  0  0  0
  -27.6580  -12.4290   17.4360 C   0  0  0  0  0  2  0  0  0  0  0  0
  -27.6860  -13.1720   18.8000 C   0  0  0  0  0  3  0  0  0  0  0  0
  -28.9360  -12.7650   19.6120 C   0  0  0  0  0  2  0  0  0  0  0  0
  -30.1260  -13.0430   18.7870 N   0  0  0  0  0  0  0  0  0  0  0  0
  -31.8500  -14.3620   18.1020 O   0  0  0  0  0  0  0  0  0  0  0  0
  -30.3770  -15.1480   19.6420 N   0  0  0  0  0  0  0  0  0  0  0  0
  -29.7250  -14.7900   20.3300 H   0  0  0  0  0  0  0  0  0  0  0  0
  -25.5690  -13.8830   20.0820 C   0  0  0  0  0  0  0  0  0  0  0  0
  -24.5460  -13.1580   20.6310 C   0  0  0  0  0  0  0  0  0  0  0  0
  -24.8640  -11.7840   20.3950 C   0  0  0  0  0  0  0  0  0  0  0  0
  -26.4540  -12.9540   19.5550 N   0  0  0  0  0  0  0  0  0  0  0  0
  -26.0430  -11.6820   19.7940 N   0  0  0  0  0  0  0  0  0  0  0  0
  -24.0880  -10.5650   20.6550 C   0  0  0  0  0  0  0  0  0  0  0  0
  -24.5050   -9.6140   21.6110 C   0  0  0  0  0  3  0  0  0  0  0  0
  -23.7330   -8.4580   21.8550 C   0  0  0  0  0  3  0  0  0  0  0  0
  -22.5280   -8.2460   21.1430 C   0  0  0  0  0  0  0  0  0  0  0  0
  -22.1300   -9.1830   20.1750 C   0  0  0  0  0  3  0  0  0  0  0  0
  -22.9030  -10.3310   19.9290 C   0  0  0  0  0  3  0  0  0  0  0  0
  -21.7270   -7.1400   21.2950 O   0  0  0  0  0  0  0  0  0  0  0  0
  -21.4900   -6.5870   22.5280 C   0  0  0  0  0  0  0  0  0  0  0  0
  -20.9040   -7.3290   23.5780 C   0  0  0  0  0  3  0  0  0  0  0  0
  -20.6150   -6.7030   24.8060 C   0  0  0  0  0  3  0  0  0  0  0  0
  -20.9000   -5.3350   24.9850 C   0  0  0  0  0  0  0  0  0  0  0  0
  -21.4790   -4.5950   23.9410 C   0  0  0  0  0  3  0  0  0  0  0  0
  -21.7710   -5.2190   22.7150 C   0  0  0  0  0  0  0  0  0  0  0  0
  -22.3070   -4.4950   21.7030 F   0  0  0  0  0  0  0  0  0  0  0  0
  -20.6160   -4.7310   26.1630 F   0  0  0  0  0  0  0  0  0  0  0  0
  -23.2960  -13.7060   21.2550 C   0  0  0  0  0  0  0  0  0  0  0  0
  -22.7550  -13.0120   22.2510 N   0  0  0  0  0  0  0  0  0  0  0  0
  -22.8160  -14.7790   20.8930 O   0  0  0  0  0  0  0  0  0  0  0  0
  -23.1590  -12.1410   22.5610 H   0  0  0  0  0  0  0  0  0  0  0  0
  -21.9260  -13.3570   22.7120 H   0  0  0  0  0  0  0  0  0  0  0  0
  -25.8100  -15.2480   19.9670 N   0  0  0  0  0  0  0  0  0  0  0  0
  -25.1480  -15.9460   20.2900 H   0  0  0  0  0  0  0  0  0  0  0  0
  -26.6120  -15.6470   19.4980 H   0  0  0  0  0  0  0  0  0  0  0  0
  -28.6120  -16.7520   21.4270 C   0  0  0  0  0  0  0  0  0  0  0  0
  -28.0740  -15.6460   21.3050 O   0  0  0  0  0  0  0  0  0  0  0  0
  -27.6910  -16.7290   23.8380 C   0  0  0  0  0  1  0  0  0  0  0  0
  -28.3920  -17.5380   22.7300 C   0  0  0  0  0  2  0  0  0  0  0  0
  -30.0680  -20.8280   18.9510 N   0  0  0  0  0  0  0  0  0  0  0  0
  -30.7790  -21.1560   18.3040 H   0  0  0  0  0  0  0  0  0  0  0  0
  -29.8680  -21.7300   20.0900 C   0  0  0  0  0  2  0  0  0  0  0  0
  -31.9840  -22.8950   19.2620 C   0  0  0  0  0  1  0  0  0  0  0  0
  -30.9290  -23.5960   21.3910 C   0  0  0  0  0  1  0  0  0  0  0  0
  -30.6180  -23.1010   19.9640 C   0  0  2  0  0  0  0  0  0  0  0  0
  -29.8410  -24.2000   19.1520 C   0  0  0  0  0  2  0  0  0  0  0  0
  -28.7000  -25.0110   19.8350 C   0  0  0  0  0  2  0  0  0  0  0  0
  -28.6100  -26.3310   19.2610 O   0  0  0  0  0  0  0  0  0  0  0  0
  -24.7020  -31.2260   22.6930 C   0  0  0  0  0  0  0  0  0  0  0  0
  -27.4030  -26.9880   19.3790 C   0  0  0  0  0  0  0  0  0  0  0  0
  -23.4820  -29.7940   21.0870 C   0  0  0  0  0  3  0  0  0  0  0  0
  -24.9350  -28.3630   19.5510 C   0  0  0  0  0  0  0  0  0  0  0  0
  -25.9700  -30.2950   20.7570 C   0  0  0  0  0  2  0  0  0  0  0  0
  -26.0950  -28.9420   20.0820 C   0  0  0  0  0  0  0  0  0  0  0  0
  -27.3330  -28.2640   19.9860 C   0  0  0  0  0  3  0  0  0  0  0  0
  -26.2250  -26.4250   18.8420 C   0  0  0  0  0  3  0  0  0  0  0  0
  -24.9950  -27.1050   18.9270 C   0  0  0  0  0  3  0  0  0  0  0  0
  -23.6520  -29.1530   19.6820 C   0  0  0  0  0  2  0  0  0  0  0  0
  -24.7390  -30.4530   21.5700 N   0  0  0  0  0  0  0  0  0  0  0  0
  -23.6400  -31.4270   23.2970 O   0  0  0  0  0  0  0  0  0  0  0  0
  -22.9390  -28.7200   22.0570 C   0  0  0  0  0  0  0  0  0  0  0  0
  -21.6230  -28.4630   21.9900 N   0  0  0  0  0  0  0  0  0  0  0  0
  -23.6980  -28.1230   22.8250 O   0  0  0  0  0  0  0  0  0  0  0  0
  -21.0680  -29.0030   21.3390 H   0  0  0  0  0  0  0  0  0  0  0  0
  -18.3450  -27.1000   22.6610 C   0  0  0  0  0  0  0  0  0  0  0  0
  -20.9010  -27.4650   22.7790 C   0  0  0  0  0  3  0  0  0  0  0  0
  -21.0290  -26.0590   22.1490 C   0  0  0  0  0  2  0  0  0  0  0  0
  -19.8790  -25.7190   21.1960 C   0  0  0  0  0  2  0  0  0  0  0  0
  -18.5360  -25.7810   21.9300 C   0  0  0  0  0  2  0  0  0  0  0  0
  -19.4550  -27.8980   23.0450 C   0  0  0  0  0  0  0  0  0  0  0  0
  -19.2200  -29.1330   23.6890 C   0  0  0  0  0  3  0  0  0  0  0  0
  -17.9080  -29.5680   23.9540 C   0  0  0  0  0  3  0  0  0  0  0  0
  -16.8140  -28.7670   23.5850 C   0  0  0  0  0  3  0  0  0  0  0  0
  -17.0330  -27.5350   22.9440 C   0  0  0  0  0  3  0  0  0  0  0  0
  -25.9850  -31.9120   23.2570 C   0  0  0  0  0  3  0  0  0  0  0  0
  -25.6110  -33.2660   23.6880 N   0  0  0  0  0  0  0  0  0  0  0  0
  -25.8400  -34.3790   22.9790 C   0  0  0  0  0  0  0  0  0  0  0  0
  -26.4610  -34.3790   21.9130 O   0  0  0  0  0  0  0  0  0  0  0  0
  -25.0490  -33.3360   24.5240 H   0  0  0  0  0  0  0  0  0  0  0  0
  -24.0040  -36.0880   22.7980 C   0  0  0  0  0  1  0  0  0  0  0  0
  -25.2930  -35.7040   23.5420 C   0  0  0  0  0  3  0  0  0  0  0  0
  -27.3980  -36.6570   24.3730 C   0  0  0  0  0  1  0  0  0  0  0  0
  -26.2610  -36.8200   23.4700 N   0  0  0  0  0  0  0  0  0  0  0  0
  -25.8090  -37.7040   23.6860 H   0  0  0  0  0  0  0  0  0  0  0  0
  -26.6470  -31.1120   24.4450 C   0  0  1  0  0  0  0  0  0  0  0  0
  -25.6480  -30.7020   25.5510 C   0  0  0  0  0  1  0  0  0  0  0  0
  -27.3280  -29.8240   23.9220 C   0  0  0  0  0  1  0  0  0  0  0  0
  -27.7600  -31.9660   25.0970 C   0  0  0  0  0  1  0  0  0  0  0  0
  1  3  1  0
  2  5  1  0
  3 46  1  0
  4  1  2  0
  5 16  1  0
  5  3  2  0
  6  2  2  0
  6  4  1  0
  7  6  1  0
  8 16  1  0
  9 14  1  0
 10 11  1  0
 10  9  1  0
 12 11  1  0
 12 21  1  0
 12 13  1  0
 14  8  1  0
 14 13  1  0
 15  8  2  0
 16 17  1  0
 18 19  2  0
 19 38  1  0
 20 19  1  0
 20 23  1  0
 21 22  1  0
 21 18  1  0
 22 20  2  0
 23 24  1  0
 24 25  2  0
 26 29  1  0
 26 25  1  0
 27 26  2  0
 28 27  1  0
 28 23  2  0
 29 30  1  0
 30 35  2  0
 30 31  1  0
 31 32  2  0
 32 33  1  0
 33 37  1  0
 34 33  2  0
 35 34  1  0
 36 35  1  0
 38 39  1  0
 39 41  1  0
 39 42  1  0
 40 38  2  0
 43 18  1  0
 43 44  1  0
 45 43  1  0
 46 49  1  0
 47 46  2  0
 49 48  1  0
 50  4  1  0
 50 52  1  0
 51 50  1  0
 55 53  1  6
 55 52  1  0
 55 54  1  0
 56 57  1  0
 56 55  1  0
 58 60  1  0
 58 57  1  0
 59 70  2  0
 60 65  1  0
 61 69  1  0
 61 71  1  0
 62 68  1  0
 62 64  1  0
 63 69  1  0
 64 63  1  0
 65 64  2  0
 66 67  1  0
 66 60  2  0
 67 62  2  0
 68 61  1  0
 69 59  1  0
 71 73  2  0
 72 71  1  0
 74 72  1  0
 75 84  2  0
 75 80  1  0
 76 72  1  0
 76 80  1  0
 77 76  1  0
 78 79  1  0
 78 77  1  0
 79 75  1  0
 80 81  2  0
 81 82  1  0
 83 82  2  0
 84 83  1  0
 85 59  1  0
 85 86  1  0
 85 95  1  0
 86 89  1  0
 87 91  1  0
 87 86  1  0
 88 87  2  0
 91 90  1  0
 93 91  1  0
 93 94  1  0
 93 92  1  0
 95 98  1  1
 95 96  1  0
 97 95  1  0
M  ISO  4   8 100  16 100  57 101  58 101
M  END
>  <TORSDO>  (24) 
F 23

>  <SCORE>  (24) 
8.181

>  <name>  (24) 
23

>  <ligand_id>  (24) 
23

>  <original_smiles>  (24) 
[H]c1c([H])c([H])c2c(c1[H])C([H])([H])C([H])([H])C([H])([H])C2([H])N([H])C(=O)C1([H])N(C(=O)C([H])(N([H])C(=O)C([H])(N([H])C([H])([H])[H])C([H])([H])[H])C(C([H])([H])[H])(C([H])([H])[H])C([H])([H])[H])C([H])([H])c2c([H])c(OC([H])([H])C([H])([H])C(C([H])([H])[H])(C([H])([H])[H])C([H])([H])N([H])c3c([H])c(C(=O)C([H])([H])C([H])([H])[H])c(N([H])C(=O)N4C([H])([H])C([H])([H])C([H])([H])C([H])(n5nc(-c6c([H])c([H])c(Oc7c([H])c([H])c(F)c([H])c7F)c([H])c6[H])c(C(=O)N([H])[H])c5N([H])[H])C4([H])[H])c([H])c3F)c([H])c([H])c2C1([H])[H]

>  <smiles>  (24) 
[H]c1c([H])c([H])c2c(c1[H])C([H])([H])C([H])([H])C([H])([H])C2([H])N([H])C(=O)C1([H])N(C(=O)C([H])(N([H])C(=O)C([H])(N([H])C([H])([H])[H])C([H])([H])[H])C(C([H])([H])[H])(C([H])([H])[H])C([H])([H])[H])C([H])([H])c2c([H])c(OC([H])([H])C([H])([H])C(C([H])([H])[H])(C([H])([H])[H])C([H])([H])N([H])c3c([H])c(C(=O)C([H])([H])C([H])([H])[H])c(N([H])C(=O)N4C([H])([H])C([H])([H])C([H])([H])C([H])(n5nc(-c6c([H])c([H])c(Oc7c([H])c([H])c(F)c([H])c7F)c([H])c6[H])c(C(=O)N([H])[H])c5N([H])[H])C4([H])[H])c([H])c3F)c([H])c([H])c2C1([H])[H]

$$$$
24:0:0
     RDKit          3D

 92100  0  0  1  0  0  0  0  0999 V2000
  -29.3830  -22.4510   20.5760 C   0  0  0  0  0  0  0  0  0  0  0  0
  -28.9080  -21.1840   20.2700 N   0  0  0  0  0  0  0  0  0  0  0  0
  -30.4100  -22.5580   21.2510 O   0  0  0  0  0  0  0  0  0  0  0  0
  -28.0090  -21.1910   19.8050 H   0  0  0  0  0  0  0  0  0  0  0  0
  -30.7540  -19.4910   20.7150 C   0  0  0  0  0  3  0  0  0  0  0  0
  -30.9860  -18.0520   20.7710 C   0  0  0  0  0  3  0  0  0  0  0  0
  -29.4550  -19.8990   20.4620 C   0  0  0  0  0  0  0  0  0  0  0  0
  -29.8760  -17.2480   20.5880 C   0  0  0  0  0  0  0  0  0  0  0  0
  -28.5130  -18.3830   20.3220 S   0  0  0  0  0  0  0  0  0  0  0  0
  -30.5480  -14.7670   20.4020 C   0  0  0  0  0  0  0  0  0  0  0  0
  -30.3840  -12.4900   19.3700 C   0  0  0  0  0  2  0  0  0  0  0  0
  -29.4360  -12.5610   18.1500 C   0  0  0  0  0  2  0  0  0  0  0  0
  -27.9660  -12.3820   18.5830 C   0  0  0  0  0  2  0  0  0  0  0  0
  -27.5920  -13.2650   19.8020 C   0  0  0  0  0  3  0  0  0  0  0  0
  -28.6520  -13.1600   20.9210 C   0  0  0  0  0  2  0  0  0  0  0  0
  -29.9480  -13.5270   20.3330 N   0  0  0  0  0  0  0  0  0  0  0  0
  -31.7320  -14.9000   20.0750 O   0  0  0  0  0  0  0  0  0  0  0  0
  -29.7120  -15.8500   20.6320 N   0  0  0  0  0  0  0  0  0  0  0  0
  -28.7580  -15.5560   20.7800 H   0  0  0  0  0  0  0  0  0  0  0  0
  -25.1990  -13.8600   20.5210 C   0  0  0  0  0  0  0  0  0  0  0  0
  -24.1340  -13.0850   20.8910 C   0  0  0  0  0  0  0  0  0  0  0  0
  -24.5980  -11.7340   20.8660 C   0  0  0  0  0  0  0  0  0  0  0  0
  -26.2460  -12.9800   20.2890 N   0  0  0  0  0  0  0  0  0  0  0  0
  -25.8890  -11.6970   20.5600 N   0  0  0  0  0  0  0  0  0  0  0  0
  -23.8710  -10.4720   21.0560 C   0  0  0  0  0  0  0  0  0  0  0  0
  -24.3100   -9.4990   21.9800 C   0  0  0  0  0  3  0  0  0  0  0  0
  -23.5830   -8.3030   22.1610 C   0  0  0  0  0  3  0  0  0  0  0  0
  -22.4020   -8.0710   21.4160 C   0  0  0  0  0  0  0  0  0  0  0  0
  -21.9820   -9.0340   20.4810 C   0  0  0  0  0  3  0  0  0  0  0  0
  -22.7100  -10.2210   20.2980 C   0  0  0  0  0  3  0  0  0  0  0  0
  -21.6480   -6.9260   21.5050 O   0  0  0  0  0  0  0  0  0  0  0  0
  -21.6180   -6.1710   22.6500 C   0  0  0  0  0  0  0  0  0  0  0  0
  -21.2270   -6.7160   23.8920 C   0  0  0  0  0  3  0  0  0  0  0  0
  -21.1440   -5.8880   25.0300 C   0  0  0  0  0  3  0  0  0  0  0  0
  -21.4430   -4.5160   24.9260 C   0  0  0  0  0  0  0  0  0  0  0  0
  -21.8280   -3.9700   23.6890 C   0  0  0  0  0  3  0  0  0  0  0  0
  -21.9130   -4.7960   22.5530 C   0  0  0  0  0  0  0  0  0  0  0  0
  -22.2650   -4.2610   21.3590 F   0  0  0  0  0  0  0  0  0  0  0  0
  -21.3550   -3.7180   26.0160 F   0  0  0  0  0  0  0  0  0  0  0  0
  -22.7350  -13.5640   21.1560 C   0  0  0  0  0  0  0  0  0  0  0  0
  -22.0040  -12.8710   22.0230 N   0  0  0  0  0  0  0  0  0  0  0  0
  -22.3000  -14.5880   20.6320 O   0  0  0  0  0  0  0  0  0  0  0  0
  -22.3690  -12.0440   22.4710 H   0  0  0  0  0  0  0  0  0  0  0  0
  -21.0660  -13.1760   22.2430 H   0  0  0  0  0  0  0  0  0  0  0  0
  -25.3610  -15.2290   20.3370 N   0  0  0  0  0  0  0  0  0  0  0  0
  -24.5820  -15.8730   20.4330 H   0  0  0  0  0  0  0  0  0  0  0  0
  -26.1920  -15.6690   19.9660 H   0  0  0  0  0  0  0  0  0  0  0  0
  -28.6830  -23.7990   20.0250 C   0  0  0  0  0  2  0  0  0  0  0  0
  -29.8820  -25.5300   21.5870 C   0  0  0  0  0  1  0  0  0  0  0  0
  -27.4620  -25.0420   21.9440 C   0  0  0  0  0  1  0  0  0  0  0  0
  -28.5570  -25.1970   20.8710 C   0  0  2  0  0  0  0  0  0  0  0  0
  -28.3880  -26.4820   20.1090 O   0  0  0  0  0  0  0  0  0  0  0  0
  -24.6200  -31.8710   23.2180 C   0  0  0  0  0  0  0  0  0  0  0  0
  -27.2470  -27.3050   20.1730 C   0  0  0  0  0  0  0  0  0  0  0  0
  -23.4170  -30.4660   21.5800 C   0  0  0  0  0  3  0  0  0  0  0  0
  -24.8710  -28.9080   20.1620 C   0  0  0  0  0  0  0  0  0  0  0  0
  -25.9520  -30.7920   21.3870 C   0  0  0  0  0  2  0  0  0  0  0  0
  -26.0400  -29.4070   20.7510 C   0  0  0  0  0  0  0  0  0  0  0  0
  -27.2320  -28.6210   20.7410 C   0  0  0  0  0  3  0  0  0  0  0  0
  -26.0590  -26.8570   19.5630 C   0  0  0  0  0  3  0  0  0  0  0  0
  -24.8830  -27.6370   19.5590 C   0  0  0  0  0  3  0  0  0  0  0  0
  -23.6310  -29.7790   20.2040 C   0  0  0  0  0  2  0  0  0  0  0  0
  -24.6830  -31.0620   22.1190 N   0  0  0  0  0  0  0  0  0  0  0  0
  -23.5390  -32.1430   23.7610 O   0  0  0  0  0  0  0  0  0  0  0  0
  -22.7560  -29.4540   22.5460 C   0  0  0  0  0  0  0  0  0  0  0  0
  -21.4290  -29.2800   22.4270 N   0  0  0  0  0  0  0  0  0  0  0  0
  -23.4380  -28.8290   23.3630 O   0  0  0  0  0  0  0  0  0  0  0  0
  -20.9370  -29.8370   21.7440 H   0  0  0  0  0  0  0  0  0  0  0  0
  -18.0560  -28.0760   22.9380 C   0  0  0  0  0  0  0  0  0  0  0  0
  -20.6140  -28.3430   23.2010 C   0  0  0  0  0  3  0  0  0  0  0  0
  -20.7170  -26.9100   22.6290 C   0  0  0  0  0  2  0  0  0  0  0  0
  -19.6150  -26.5830   21.6180 C   0  0  0  0  0  2  0  0  0  0  0  0
  -18.2340  -26.7270   22.2640 C   0  0  0  0  0  2  0  0  0  0  0  0
  -19.1740  -28.8420   23.3640 C   0  0  0  0  0  0  0  0  0  0  0  0
  -18.9530  -30.1050   23.9550 C   0  0  0  0  0  3  0  0  0  0  0  0
  -17.6480  -30.6040   24.1220 C   0  0  0  0  0  3  0  0  0  0  0  0
  -16.5440  -29.8350   23.7120 C   0  0  0  0  0  3  0  0  0  0  0  0
  -16.7490  -28.5730   23.1270 C   0  0  0  0  0  3  0  0  0  0  0  0
  -25.9030  -32.5130   23.8320 C   0  0  0  0  0  3  0  0  0  0  0  0
  -26.4390  -31.7460   25.1030 C   0  0  1  0  0  0  0  0  0  0  0  0
  -25.3630  -31.5020   26.1840 C   0  0  0  0  0  1  0  0  0  0  0  0
  -27.0260  -30.3700   24.7060 C   0  0  0  0  0  1  0  0  0  0  0  0
  -27.5930  -32.5480   25.7490 C   0  0  0  0  0  1  0  0  0  0  0  0
  -25.5860  -33.9080   24.1670 N   0  0  0  0  0  0  0  0  0  0  0  0
  -25.9170  -34.9660   23.4150 C   0  0  0  0  0  0  0  0  0  0  0  0
  -26.5850  -34.8690   22.3800 O   0  0  0  0  0  0  0  0  0  0  0  0
  -24.9870  -34.0560   24.9660 H   0  0  0  0  0  0  0  0  0  0  0  0
  -24.1800  -36.7550   23.0850 C   0  0  0  0  0  1  0  0  0  0  0  0
  -25.4300  -36.3500   23.8820 C   0  0  0  0  0  3  0  0  0  0  0  0
  -27.5680  -37.2370   24.6990 C   0  0  0  0  0  1  0  0  0  0  0  0
  -26.4590  -37.4070   23.7660 N   0  0  0  0  0  0  0  0  0  0  0  0
  -26.0510  -38.3250   23.9210 H   0  0  0  0  0  0  0  0  0  0  0  0
  1  3  2  0
  2  7  1  0
  2  1  1  0
  4  2  1  0
  5  6  1  0
  7  5  2  0
  8 18  1  0
  8  6  2  0
  9  7  1  0
  9  8  1  0
 10 18  1  0
 11 16  1  0
 12 13  1  0
 12 11  1  0
 14 13  1  0
 14 23  1  0
 14 15  1  0
 16 10  1  0
 16 15  1  0
 17 10  2  0
 18 19  1  0
 20 21  2  0
 21 40  1  0
 22 21  1  0
 22 25  1  0
 23 20  1  0
 23 24  1  0
 24 22  2  0
 25 26  1  0
 26 27  2  0
 28 31  1  0
 28 27  1  0
 29 28  2  0
 30 29  1  0
 30 25  2  0
 31 32  1  0
 32 33  1  0
 33 34  2  0
 35 34  1  0
 35 39  1  0
 36 35  2  0
 37 32  2  0
 37 36  1  0
 38 37  1  0
 40 41  1  0
 41 44  1  0
 41 43  1  0
 42 40  2  0
 45 46  1  0
 45 20  1  0
 47 45  1  0
 48  1  1  0
 48 51  1  0
 51 49  1  1
 51 50  1  0
 52 54  1  0
 52 51  1  0
 53 64  2  0
 54 59  1  0
 55 63  1  0
 55 65  1  0
 56 62  1  0
 56 58  1  0
 57 63  1  0
 58 57  1  0
 59 58  2  0
 60 54  2  0
 61 60  1  0
 61 56  2  0
 62 55  1  0
 63 53  1  0
 65 67  2  0
 66 65  1  0
 68 66  1  0
 69 78  2  0
 69 74  1  0
 70 66  1  0
 70 74  1  0
 71 70  1  0
 72 73  1  0
 72 71  1  0
 73 69  1  0
 74 75  2  0
 75 76  1  0
 77 76  2  0
 78 77  1  0
 79 53  1  0
 79 84  1  0
 79 80  1  0
 80 83  1  1
 80 81  1  0
 82 80  1  0
 84 87  1  0
 85 89  1  0
 85 84  1  0
 86 85  2  0
 89 88  1  0
 91 89  1  0
 91 92  1  0
 91 90  1  0
M  ISO  4  10 100  18 100  51 101  52 101
M  END
>  <TORSDO>  (25) 
F 19

>  <SCORE>  (25) 
-14.470

>  <name>  (25) 
24

>  <ligand_id>  (25) 
24

>  <original_smiles>  (25) 
[H]c1c(N([H])C(=O)N2C([H])([H])C([H])([H])C([H])([H])C([H])(n3nc(-c4c([H])c([H])c(Oc5c([H])c([H])c(F)c([H])c5F)c([H])c4[H])c(C(=O)N([H])[H])c3N([H])[H])C2([H])[H])sc(N([H])C(=O)C([H])([H])C(Oc2c([H])c([H])c3c(c2[H])C([H])([H])N(C(=O)C([H])(N([H])C(=O)C([H])(N([H])C([H])([H])[H])C([H])([H])[H])C(C([H])([H])[H])(C([H])([H])[H])C([H])([H])[H])C([H])(C(=O)N([H])C2([H])c4c([H])c([H])c([H])c([H])c4C([H])([H])C([H])([H])C2([H])[H])C3([H])[H])(C([H])([H])[H])C([H])([H])[H])c1[H]

>  <smiles>  (25) 
[H]c1c(N([H])C(=O)N2C([H])([H])C([H])([H])C([H])([H])C([H])(n3nc(-c4c([H])c([H])c(Oc5c([H])c([H])c(F)c([H])c5F)c([H])c4[H])c(C(=O)N([H])[H])c3N([H])[H])C2([H])[H])sc(N([H])C(=O)C([H])([H])C(Oc2c([H])c([H])c3c(c2[H])C([H])([H])N(C(=O)C([H])(N([H])C(=O)C([H])(N([H])C([H])([H])[H])C([H])([H])[H])C(C([H])([H])[H])(C([H])([H])[H])C([H])([H])[H])C([H])(C(=O)N([H])C2([H])c4c([H])c([H])c([H])c([H])c4C([H])([H])C([H])([H])C2([H])[H])C3([H])[H])(C([H])([H])[H])C([H])([H])[H])c1[H]

$$$$
25:0:0
     RDKit          3D

 97105  0  0  1  0  0  0  0  0999 V2000
  -28.9170  -22.2020   20.5880 C   0  0  0  0  0  0  0  0  0  0  0  0
  -29.8190  -21.1710   20.5970 N   0  0  0  0  0  0  0  0  0  0  0  0
  -27.7340  -21.9890   20.3110 O   0  0  0  0  0  0  0  0  0  0  0  0
  -30.7290  -21.3870   20.9850 H   0  0  0  0  0  0  0  0  0  0  0  0
  -29.8950  -18.6250   20.7050 C   0  0  0  0  0  3  0  0  0  0  0  0
  -29.5130  -17.3010   18.7030 C   0  0  0  0  0  3  0  0  0  0  0  0
  -29.4560  -19.7530   18.5710 C   0  0  0  0  0  0  0  0  0  0  0  0
  -29.8390  -17.3260   20.0770 C   0  0  0  0  0  0  0  0  0  0  0  0
  -29.6880  -19.8540   19.9740 C   0  0  0  0  0  0  0  0  0  0  0  0
  -29.3280  -18.4810   17.9670 C   0  0  0  0  0  0  0  0  0  0  0  0
  -29.3590  -20.9760   17.6570 C   0  0  0  0  0  1  0  0  0  0  0  0
  -29.0240  -18.3840   16.6470 F   0  0  0  0  0  0  0  0  0  0  0  0
  -30.6960  -14.9520   20.3150 C   0  0  0  0  0  0  0  0  0  0  0  0
  -30.5230  -12.6690   19.3550 C   0  0  0  0  0  2  0  0  0  0  0  0
  -29.5870  -12.6790   18.1290 C   0  0  0  0  0  2  0  0  0  0  0  0
  -28.1260  -12.4850   18.5710 C   0  0  0  0  0  2  0  0  0  0  0  0
  -27.7240  -13.4270   19.7390 C   0  0  0  0  0  3  0  0  0  0  0  0
  -28.7740  -13.3960   20.8710 C   0  0  0  0  0  2  0  0  0  0  0  0
  -30.0830  -13.7280   20.2910 N   0  0  0  0  0  0  0  0  0  0  0  0
  -31.8240  -15.0950   19.8340 O   0  0  0  0  0  0  0  0  0  0  0  0
  -29.9950  -16.0410   20.7690 N   0  0  0  0  0  0  0  0  0  0  0  0
  -29.2950  -15.8500   21.4740 H   0  0  0  0  0  0  0  0  0  0  0  0
  -25.3510  -14.0030   20.5480 C   0  0  0  0  0  0  0  0  0  0  0  0
  -24.2960  -13.2170   20.9290 C   0  0  0  0  0  0  0  0  0  0  0  0
  -24.7580  -11.8680   20.8450 C   0  0  0  0  0  0  0  0  0  0  0  0
  -26.3860  -13.1300   20.2520 N   0  0  0  0  0  0  0  0  0  0  0  0
  -26.0380  -11.8410   20.4970 N   0  0  0  0  0  0  0  0  0  0  0  0
  -24.0410  -10.5990   21.0200 C   0  0  0  0  0  0  0  0  0  0  0  0
  -24.4700   -9.6340   21.9570 C   0  0  0  0  0  3  0  0  0  0  0  0
  -23.7540   -8.4290   22.1220 C   0  0  0  0  0  3  0  0  0  0  0  0
  -22.5970   -8.1800   21.3480 C   0  0  0  0  0  0  0  0  0  0  0  0
  -22.1880   -9.1310   20.3990 C   0  0  0  0  0  3  0  0  0  0  0  0
  -22.9010  -10.3300   20.2340 C   0  0  0  0  0  3  0  0  0  0  0  0
  -21.8580   -7.0230   21.4170 O   0  0  0  0  0  0  0  0  0  0  0  0
  -21.7610   -6.2950   22.5770 C   0  0  0  0  0  0  0  0  0  0  0  0
  -21.1940   -6.8360   23.7490 C   0  0  0  0  0  3  0  0  0  0  0  0
  -21.0520   -6.0350   24.9010 C   0  0  0  0  0  3  0  0  0  0  0  0
  -21.4650   -4.6900   24.8770 C   0  0  0  0  0  0  0  0  0  0  0  0
  -22.0220   -4.1450   23.7050 C   0  0  0  0  0  3  0  0  0  0  0  0
  -22.1660   -4.9460   22.5600 C   0  0  0  0  0  0  0  0  0  0  0  0
  -22.6830   -4.4090   21.4270 F   0  0  0  0  0  0  0  0  0  0  0  0
  -21.3220   -3.9160   25.9800 F   0  0  0  0  0  0  0  0  0  0  0  0
  -22.9070  -13.6800   21.2560 C   0  0  0  0  0  0  0  0  0  0  0  0
  -22.1990  -12.9550   22.1180 N   0  0  0  0  0  0  0  0  0  0  0  0
  -22.4500  -14.7200   20.7830 O   0  0  0  0  0  0  0  0  0  0  0  0
  -22.5790  -12.1170   22.5370 H   0  0  0  0  0  0  0  0  0  0  0  0
  -21.2630  -13.2410   22.3620 H   0  0  0  0  0  0  0  0  0  0  0  0
  -25.5120  -15.3790   20.4070 N   0  0  0  0  0  0  0  0  0  0  0  0
  -24.7670  -16.0410   20.5880 H   0  0  0  0  0  0  0  0  0  0  0  0
  -26.3620  -15.8220   20.0770 H   0  0  0  0  0  0  0  0  0  0  0  0
  -29.3810  -23.6820   20.8690 C   0  0  0  0  0  2  0  0  0  0  0  0
  -27.0350  -24.4190   21.8430 C   0  0  0  0  0  1  0  0  0  0  0  0
  -29.0270  -24.2530   23.3070 C   0  0  0  0  0  1  0  0  0  0  0  0
  -28.5720  -24.6370   21.8630 C   0  0  1  0  0  0  0  0  0  0  0  0
  -30.1480  -26.7310   22.1580 C   0  0  0  0  0  1  0  0  0  0  0  0
  -28.8030  -26.2020   21.6060 C   0  0  0  0  0  3  0  0  0  0  0  0
  -28.5520  -26.7240   20.2480 O   0  0  0  0  0  0  0  0  0  0  0  0
  -24.7610  -31.8590   23.3560 C   0  0  0  0  0  0  0  0  0  0  0  0
  -27.4560  -27.5750   20.1310 C   0  0  0  0  0  0  0  0  0  0  0  0
  -23.5820  -30.5510   21.6200 C   0  0  0  0  0  3  0  0  0  0  0  0
  -25.0660  -29.1180   20.1050 C   0  0  0  0  0  0  0  0  0  0  0  0
  -26.0960  -30.9460   21.4540 C   0  0  0  0  0  2  0  0  0  0  0  0
  -26.2060  -29.6020   20.7580 C   0  0  0  0  0  0  0  0  0  0  0  0
  -27.4000  -28.8370   20.7790 C   0  0  0  0  0  3  0  0  0  0  0  0
  -26.3260  -27.1500   19.3990 C   0  0  0  0  0  3  0  0  0  0  0  0
  -25.1250  -27.8920   19.4150 C   0  0  0  0  0  3  0  0  0  0  0  0
  -23.8030  -29.9530   20.2030 C   0  0  0  0  0  2  0  0  0  0  0  0
  -24.8330  -31.1270   22.2070 N   0  0  0  0  0  0  0  0  0  0  0  0
  -23.6750  -32.0860   23.9040 O   0  0  0  0  0  0  0  0  0  0  0  0
  -22.9310  -29.4710   22.5130 C   0  0  0  0  0  0  0  0  0  0  0  0
  -21.6130  -29.2750   22.3480 N   0  0  0  0  0  0  0  0  0  0  0  0
  -23.6050  -28.8150   23.3110 O   0  0  0  0  0  0  0  0  0  0  0  0
  -21.1300  -29.8480   21.6700 H   0  0  0  0  0  0  0  0  0  0  0  0
  -18.2470  -28.0130   22.7100 C   0  0  0  0  0  0  0  0  0  0  0  0
  -20.7950  -28.2830   23.0440 C   0  0  0  0  0  3  0  0  0  0  0  0
  -20.9260  -26.8910   22.3850 C   0  0  0  0  0  2  0  0  0  0  0  0
  -19.8500  -26.6200   21.3300 C   0  0  0  0  0  2  0  0  0  0  0  0
  -18.4520  -26.7120   21.9510 C   0  0  0  0  0  2  0  0  0  0  0  0
  -19.3480  -28.7600   23.2070 C   0  0  0  0  0  0  0  0  0  0  0  0
  -19.1020  -29.9810   23.8690 C   0  0  0  0  0  3  0  0  0  0  0  0
  -17.7880  -30.4570   24.0390 C   0  0  0  0  0  3  0  0  0  0  0  0
  -16.7020  -29.7060   23.5610 C   0  0  0  0  0  3  0  0  0  0  0  0
  -16.9320  -28.4850   22.9030 C   0  0  0  0  0  3  0  0  0  0  0  0
  -26.0350  -32.4610   24.0270 C   0  0  0  0  0  3  0  0  0  0  0  0
  -26.5370  -31.6230   25.2650 C   0  0  1  0  0  0  0  0  0  0  0  0
  -25.4290  -31.3210   26.3020 C   0  0  0  0  0  1  0  0  0  0  0  0
  -27.1250  -30.2740   24.7940 C   0  0  0  0  0  1  0  0  0  0  0  0
  -27.6760  -32.3810   25.9860 C   0  0  0  0  0  1  0  0  0  0  0  0
  -25.7150  -33.8380   24.4250 N   0  0  0  0  0  0  0  0  0  0  0  0
  -26.0760  -34.9300   23.7410 C   0  0  0  0  0  0  0  0  0  0  0  0
  -26.7830  -34.8840   22.7300 O   0  0  0  0  0  0  0  0  0  0  0  0
  -25.0750  -33.9470   25.2000 H   0  0  0  0  0  0  0  0  0  0  0  0
  -24.3890  -36.7670   23.4080 C   0  0  0  0  0  1  0  0  0  0  0  0
  -25.5780  -36.2940   24.2600 C   0  0  0  0  0  3  0  0  0  0  0  0
  -27.6590  -37.0970   25.2850 C   0  0  0  0  0  1  0  0  0  0  0  0
  -26.6280  -37.3350   24.2780 N   0  0  0  0  0  0  0  0  0  0  0  0
  -26.2240  -38.2520   24.4470 H   0  0  0  0  0  0  0  0  0  0  0  0
  1  2  1  0
  1 51  1  0
  2  4  1  0
  3  1  2  0
  6  8  2  0
  7  9  1  0
  8  5  1  0
  8 21  1  0
  9  2  1  0
  9  5  2  0
 10  7  2  0
 10  6  1  0
 11  7  1  0
 12 10  1  0
 13 21  1  0
 14 19  1  0
 15 16  1  0
 15 14  1  0
 17 16  1  0
 17 26  1  0
 17 18  1  0
 19 13  1  0
 19 18  1  0
 20 13  2  0
 21 22  1  0
 23 24  2  0
 24 43  1  0
 25 24  1  0
 25 28  1  0
 26 27  1  0
 26 23  1  0
 27 25  2  0
 28 29  1  0
 29 30  2  0
 31 34  1  0
 31 30  1  0
 32 31  2  0
 33 32  1  0
 33 28  2  0
 34 35  1  0
 35 36  1  0
 36 37  2  0
 38 37  1  0
 38 42  1  0
 39 38  2  0
 40 35  2  0
 40 39  1  0
 41 40  1  0
 43 44  1  0
 44 47  1  0
 44 46  1  0
 45 43  2  0
 48 23  1  0
 48 49  1  0
 50 48  1  0
 51 54  1  0
 54 52  1  1
 54 53  1  0
 56 54  1  0
 56 55  1  0
 57 56  1  0
 58 69  2  0
 59 57  1  0
 59 64  1  0
 60 68  1  0
 60 70  1  0
 61 67  1  0
 61 63  1  0
 62 68  1  0
 63 64  2  0
 63 62  1  0
 65 66  1  0
 65 59  2  0
 66 61  2  0
 67 60  1  0
 68 58  1  0
 70 72  2  0
 71 70  1  0
 73 71  1  0
 74 83  2  0
 74 79  1  0
 75 71  1  0
 75 79  1  0
 76 75  1  0
 77 78  1  0
 77 76  1  0
 78 74  1  0
 79 80  2  0
 80 81  1  0
 82 81  2  0
 83 82  1  0
 84 58  1  0
 84 89  1  0
 84 85  1  0
 85 88  1  1
 85 86  1  0
 87 85  1  0
 89 92  1  0
 90 94  1  0
 90 89  1  0
 91 90  2  0
 94 93  1  0
 94 96  1  0
 96 97  1  0
 96 95  1  0
M  ISO  4  13 100  21 100  56 101  57 101
M  END
>  <TORSDO>  (26) 
F 20

>  <SCORE>  (26) 
-13.744

>  <name>  (26) 
25

>  <ligand_id>  (26) 
25

>  <original_smiles>  (26) 
[H]c1c([H])c([H])c2c(c1[H])C([H])([H])C([H])([H])C([H])([H])C2([H])N([H])C(=O)C1([H])N(C(=O)C([H])(N([H])C(=O)C([H])(N([H])C([H])([H])[H])C([H])([H])[H])C(C([H])([H])[H])(C([H])([H])[H])C([H])([H])[H])C([H])([H])c2c([H])c(OC([H])(C([H])([H])[H])C(C([H])([H])[H])(C([H])([H])[H])C([H])([H])C(=O)N([H])c3c([H])c(N([H])C(=O)N4C([H])([H])C([H])([H])C([H])([H])C([H])(n5nc(-c6c([H])c([H])c(Oc7c([H])c([H])c(F)c([H])c7F)c([H])c6[H])c(C(=O)N([H])[H])c5N([H])[H])C4([H])[H])c([H])c(F)c3C([H])([H])[H])c([H])c([H])c2C1([H])[H]

>  <smiles>  (26) 
[H]c1c([H])c([H])c2c(c1[H])C([H])([H])C([H])([H])C([H])([H])C2([H])N([H])C(=O)C1([H])N(C(=O)C([H])(N([H])C(=O)C([H])(N([H])C([H])([H])[H])C([H])([H])[H])C(C([H])([H])[H])(C([H])([H])[H])C([H])([H])[H])C([H])([H])c2c([H])c(OC([H])(C([H])([H])[H])C(C([H])([H])[H])(C([H])([H])[H])C([H])([H])C(=O)N([H])c3c([H])c(N([H])C(=O)N4C([H])([H])C([H])([H])C([H])([H])C([H])(n5nc(-c6c([H])c([H])c(Oc7c([H])c([H])c(F)c([H])c7F)c([H])c6[H])c(C(=O)N([H])[H])c5N([H])[H])C4([H])[H])c([H])c(F)c3C([H])([H])[H])c([H])c([H])c2C1([H])[H]

$$$$
26:0:0
     RDKit          3D

100108  0  0  1  0  0  0  0  0999 V2000
  -31.5060  -19.8240   20.9680 C   0  0  0  0  0  3  0  0  0  0  0  0
  -32.1260  -17.4680   20.7840 C   0  0  0  0  0  3  0  0  0  0  0  0
  -29.7950  -18.0960   21.1230 C   0  0  0  0  0  3  0  0  0  0  0  0
  -32.4920  -18.8280   20.8020 C   0  0  0  0  0  0  0  0  0  0  0  0
  -30.1450  -19.4690   21.1320 C   0  0  0  0  0  0  0  0  0  0  0  0
  -30.7730  -17.0910   20.9350 C   0  0  0  0  0  0  0  0  0  0  0  0
  -31.0930  -14.6690   20.5000 C   0  0  0  0  0  0  0  0  0  0  0  0
  -30.8380  -12.3820   19.6090 C   0  0  0  0  0  2  0  0  0  0  0  0
  -29.9580  -12.4190   18.3430 C   0  0  0  0  0  2  0  0  0  0  0  0
  -28.4630  -12.3390   18.7120 C   0  0  0  0  0  2  0  0  0  0  0  0
  -28.0670  -13.3420   19.8280 C   0  0  0  0  0  3  0  0  0  0  0  0
  -29.0600  -13.2650   21.0090 C   0  0  0  0  0  2  0  0  0  0  0  0
  -30.4150  -13.4900   20.4770 N   0  0  0  0  0  0  0  0  0  0  0  0
  -32.2280  -14.7970   20.0310 O   0  0  0  0  0  0  0  0  0  0  0  0
  -30.3830  -15.7220   20.9470 N   0  0  0  0  0  0  0  0  0  0  0  0
  -29.4210  -15.5230   21.1750 H   0  0  0  0  0  0  0  0  0  0  0  0
  -25.6850  -14.0720   20.4780 C   0  0  0  0  0  0  0  0  0  0  0  0
  -24.5670  -13.3530   20.8100 C   0  0  0  0  0  0  0  0  0  0  0  0
  -24.9570  -11.9800   20.7730 C   0  0  0  0  0  0  0  0  0  0  0  0
  -26.6880  -13.1380   20.2650 N   0  0  0  0  0  0  0  0  0  0  0  0
  -26.2500  -11.8750   20.4980 N   0  0  0  0  0  0  0  0  0  0  0  0
  -24.1610  -10.7560   20.9280 C   0  0  0  0  0  0  0  0  0  0  0  0
  -24.5430   -9.7340   21.8260 C   0  0  0  0  0  3  0  0  0  0  0  0
  -23.7510   -8.5740   21.9700 C   0  0  0  0  0  3  0  0  0  0  0  0
  -22.5620   -8.4290   21.2160 C   0  0  0  0  0  0  0  0  0  0  0  0
  -22.1990   -9.4380   20.3070 C   0  0  0  0  0  3  0  0  0  0  0  0
  -22.9900  -10.5900   20.1610 C   0  0  0  0  0  3  0  0  0  0  0  0
  -21.7440   -7.3260   21.2710 O   0  0  0  0  0  0  0  0  0  0  0  0
  -21.6670   -6.5430   22.3940 C   0  0  0  0  0  0  0  0  0  0  0  0
  -21.2790   -7.0700   23.6450 C   0  0  0  0  0  3  0  0  0  0  0  0
  -21.1460   -6.2160   24.7590 C   0  0  0  0  0  3  0  0  0  0  0  0
  -21.3900   -4.8370   24.6220 C   0  0  0  0  0  0  0  0  0  0  0  0
  -21.7720   -4.3090   23.3760 C   0  0  0  0  0  3  0  0  0  0  0  0
  -21.9070   -5.1600   22.2650 C   0  0  0  0  0  0  0  0  0  0  0  0
  -22.2550   -4.6430   21.0610 F   0  0  0  0  0  0  0  0  0  0  0  0
  -21.2550   -4.0150   25.6890 F   0  0  0  0  0  0  0  0  0  0  0  0
  -23.1910  -13.9010   21.0520 C   0  0  0  0  0  0  0  0  0  0  0  0
  -22.4160  -13.2530   21.9150 N   0  0  0  0  0  0  0  0  0  0  0  0
  -22.8110  -14.9390   20.5120 O   0  0  0  0  0  0  0  0  0  0  0  0
  -22.7350  -12.4120   22.3740 H   0  0  0  0  0  0  0  0  0  0  0  0
  -21.4920  -13.6020   22.1200 H   0  0  0  0  0  0  0  0  0  0  0  0
  -25.9270  -15.4340   20.3200 N   0  0  0  0  0  0  0  0  0  0  0  0
  -25.1920  -16.1260   20.4150 H   0  0  0  0  0  0  0  0  0  0  0  0
  -26.8020  -15.8280   20.0010 H   0  0  0  0  0  0  0  0  0  0  0  0
  -29.1170  -21.7630   21.3980 C   0  0  0  0  0  0  0  0  0  0  0  0
  -29.0870  -20.4220   21.2570 N   0  0  0  0  0  0  0  0  0  0  0  0
  -30.1420  -22.4290   21.5520 O   0  0  0  0  0  0  0  0  0  0  0  0
  -28.1560  -20.0310   21.2310 H   0  0  0  0  0  0  0  0  0  0  0  0
  -27.7390  -22.4450   21.4000 C   0  0  0  0  0  2  0  0  0  0  0  0
  -27.6410  -23.8870   20.8250 C   0  0  0  0  0  2  0  0  0  0  0  0
  -28.1340  -23.0440   18.4450 C   0  0  0  0  0  1  0  0  0  0  0  0
  -28.3250  -24.1860   19.4620 C   0  0  0  0  0  3  0  0  0  0  0  0
  -27.8430  -25.5140   18.8170 C   0  0  0  0  0  2  0  0  0  0  0  0
  -27.8280  -26.6360   19.7080 O   0  0  0  0  0  0  0  0  0  0  0  0
  -24.5490  -31.8950   23.2100 C   0  0  0  0  0  0  0  0  0  0  0  0
  -26.6810  -27.4000   19.8100 C   0  0  0  0  0  0  0  0  0  0  0  0
  -23.1350  -30.6080   21.6410 C   0  0  0  0  0  3  0  0  0  0  0  0
  -24.3780  -29.0300   20.0700 C   0  0  0  0  0  0  0  0  0  0  0  0
  -25.6530  -30.8270   21.2480 C   0  0  0  0  0  2  0  0  0  0  0  0
  -25.6060  -29.4700   20.5760 C   0  0  0  0  0  0  0  0  0  0  0  0
  -26.7560  -28.6570   20.4540 C   0  0  0  0  0  3  0  0  0  0  0  0
  -25.4260  -26.9690   19.3180 C   0  0  0  0  0  3  0  0  0  0  0  0
  -24.2800  -27.7750   19.4460 C   0  0  0  0  0  3  0  0  0  0  0  0
  -23.1940  -29.9550   20.2340 C   0  0  0  0  0  2  0  0  0  0  0  0
  -24.4700  -31.1220   22.0900 N   0  0  0  0  0  0  0  0  0  0  0  0
  -23.5320  -32.2130   23.8410 O   0  0  0  0  0  0  0  0  0  0  0  0
  -22.5060  -29.5980   22.6280 C   0  0  0  0  0  0  0  0  0  0  0  0
  -21.1950  -29.3520   22.4770 N   0  0  0  0  0  0  0  0  0  0  0  0
  -23.1940  -29.0380   23.4850 O   0  0  0  0  0  0  0  0  0  0  0  0
  -20.6980  -29.8580   21.7550 H   0  0  0  0  0  0  0  0  0  0  0  0
  -17.8910  -27.9390   22.8580 C   0  0  0  0  0  0  0  0  0  0  0  0
  -20.3990  -28.4130   23.2660 C   0  0  0  0  0  3  0  0  0  0  0  0
  -20.6440  -26.9560   22.8080 C   0  0  0  0  0  2  0  0  0  0  0  0
  -19.6380  -26.4760   21.7560 C   0  0  0  0  0  2  0  0  0  0  0  0
  -18.2090  -26.5620   22.3020 C   0  0  0  0  0  2  0  0  0  0  0  0
  -18.9210  -28.8140   23.2950 C   0  0  0  0  0  0  0  0  0  0  0  0
  -18.5730  -30.0980   23.7700 C   0  0  0  0  0  3  0  0  0  0  0  0
  -17.2270  -30.5080   23.8150 C   0  0  0  0  0  3  0  0  0  0  0  0
  -16.2110  -29.6330   23.3930 C   0  0  0  0  0  3  0  0  0  0  0  0
  -16.5440  -28.3510   22.9210 C   0  0  0  0  0  3  0  0  0  0  0  0
  -25.9150  -32.4350   23.7350 C   0  0  0  0  0  3  0  0  0  0  0  0
  -25.6970  -33.8110   24.1970 N   0  0  0  0  0  0  0  0  0  0  0  0
  -26.0080  -34.9080   23.4920 C   0  0  0  0  0  0  0  0  0  0  0  0
  -26.5810  -34.8620   22.4000 O   0  0  0  0  0  0  0  0  0  0  0  0
  -25.1800  -33.9240   25.0570 H   0  0  0  0  0  0  0  0  0  0  0  0
  -24.3300  -36.7810   23.4320 C   0  0  0  0  0  1  0  0  0  0  0  0
  -25.6200  -36.2720   24.0940 C   0  0  0  0  0  3  0  0  0  0  0  0
  -27.8530  -37.0150   24.7940 C   0  0  0  0  0  1  0  0  0  0  0  0
  -26.6820  -37.2940   23.9670 N   0  0  0  0  0  0  0  0  0  0  0  0
  -26.3270  -38.2130   24.2210 H   0  0  0  0  0  0  0  0  0  0  0  0
  -26.5320  -31.5510   24.8880 C   0  0  1  0  0  0  0  0  0  0  0  0
  -25.5390  -31.2360   26.0300 C   0  0  0  0  0  1  0  0  0  0  0  0
  -27.0470  -30.2050   24.3250 C   0  0  0  0  0  1  0  0  0  0  0  0
  -27.7580  -32.2680   25.5010 C   0  0  0  0  0  1  0  0  0  0  0  0
  -33.9500  -19.2220   20.6470 C   0  0  0  0  0  2  0  0  0  0  0  0
  -34.5820  -19.6130   21.9960 C   0  0  0  0  0  2  0  0  0  0  0  0
  -36.9990  -19.3430   21.2300 C   0  0  0  0  0  1  0  0  0  0  0  0
  -36.4690  -20.5170   23.3710 C   0  0  0  0  0  1  0  0  0  0  0  0
  -35.9280  -21.6230   21.1970 C   0  0  0  0  0  1  0  0  0  0  0  0
  -35.9860  -20.2690   21.9310 C   0  0  2  0  0  0  0  0  0  0  0  0
  1  5  1  0
  2  4  1  0
  2  6  2  0
  3  5  2  0
  4  1  2  0
  5 46  1  0
  6 15  1  0
  6  3  1  0
  7 15  1  0
  8 13  1  0
  9 10  1  0
  9  8  1  0
 11 10  1  0
 11 20  1  0
 11 12  1  0
 13  7  1  0
 13 12  1  0
 14  7  2  0
 15 16  1  0
 17 18  2  0
 18 37  1  0
 19 18  1  0
 19 22  1  0
 20 17  1  0
 20 21  1  0
 21 19  2  0
 22 23  1  0
 23 24  2  0
 25 28  1  0
 25 24  1  0
 26 25  2  0
 27 26  1  0
 27 22  2  0
 28 29  1  0
 29 30  1  0
 30 31  2  0
 32 31  1  0
 32 36  1  0
 33 32  2  0
 34 29  2  0
 34 33  1  0
 35 34  1  0
 37 38  1  0
 38 41  1  0
 38 40  1  0
 39 37  2  0
 42 43  1  0
 42 17  1  0
 44 42  1  0
 45 49  1  0
 45 47  2  0
 46 45  1  0
 48 46  1  0
 50 49  1  0
 52 51  1  0
 52 50  1  0
 53 52  1  0
 53 54  1  0
 54 56  1  0
 55 66  2  0
 56 61  1  0
 57 65  1  0
 57 67  1  0
 58 64  1  0
 58 60  1  0
 59 65  1  0
 60 59  1  0
 61 60  2  0
 62 63  1  0
 62 56  2  0
 63 58  2  0
 64 57  1  0
 65 55  1  0
 67 69  2  0
 68 67  1  0
 70 68  1  0
 71 80  2  0
 71 76  1  0
 72 68  1  0
 72 76  1  0
 73 72  1  0
 74 75  1  0
 74 73  1  0
 75 71  1  0
 76 77  2  0
 77 78  1  0
 79 78  2  0
 80 79  1  0
 81 55  1  0
 81 82  1  0
 81 91  1  0
 82 85  1  0
 83 87  1  0
 83 82  1  0
 84 83  2  0
 87 86  1  0
 89 87  1  0
 89 90  1  0
 89 88  1  0
 91 94  1  1
 91 92  1  0
 93 91  1  0
 95  4  1  0
 95 96  1  0
100 97  1  6
 99100  1  0
100 96  1  0
100 98  1  0
M  ISO  4   7 100  15 100  53 101  54 101
M  END
>  <TORSDO>  (27) 
F 24

>  <SCORE>  (27) 
-12.712

>  <name>  (27) 
26

>  <ligand_id>  (27) 
26

>  <original_smiles>  (27) 
[H]c1c([H])c([H])c2c(c1[H])C([H])([H])C([H])([H])C([H])([H])C2([H])N([H])C(=O)C1([H])N(C(=O)C([H])(N([H])C(=O)C([H])(N([H])C([H])([H])[H])C([H])([H])[H])C(C([H])([H])[H])(C([H])([H])[H])C([H])([H])[H])C([H])([H])c2c([H])c(OC([H])([H])C([H])(C([H])([H])[H])C([H])([H])C([H])([H])C(=O)N([H])c3c([H])c(N([H])C(=O)N4C([H])([H])C([H])([H])C([H])([H])C([H])(n5nc(-c6c([H])c([H])c(Oc7c([H])c([H])c(F)c([H])c7F)c([H])c6[H])c(C(=O)N([H])[H])c5N([H])[H])C4([H])[H])c([H])c(C([H])([H])C([H])([H])C(C([H])([H])[H])(C([H])([H])[H])C([H])([H])[H])c3[H])c([H])c([H])c2C1([H])[H]

>  <smiles>  (27) 
[H]c1c([H])c([H])c2c(c1[H])C([H])([H])C([H])([H])C([H])([H])C2([H])N([H])C(=O)C1([H])N(C(=O)C([H])(N([H])C(=O)C([H])(N([H])C([H])([H])[H])C([H])([H])[H])C(C([H])([H])[H])(C([H])([H])[H])C([H])([H])[H])C([H])([H])c2c([H])c(OC([H])([H])C([H])(C([H])([H])[H])C([H])([H])C([H])([H])C(=O)N([H])c3c([H])c(N([H])C(=O)N4C([H])([H])C([H])([H])C([H])([H])C([H])(n5nc(-c6c([H])c([H])c(Oc7c([H])c([H])c(F)c([H])c7F)c([H])c6[H])c(C(=O)N([H])[H])c5N([H])[H])C4([H])[H])c([H])c(C([H])([H])C([H])([H])C(C([H])([H])[H])(C([H])([H])[H])C([H])([H])[H])c3[H])c([H])c([H])c2C1([H])[H]

$$$$
27:0:0
     RDKit          3D

101109  0  0  1  0  0  0  0  0999 V2000
  -29.4300  -21.6550   21.7230 C   0  0  0  0  0  2  0  0  0  0  0  0
  -26.9400  -22.1720   21.8590 C   0  0  0  0  0  1  0  0  0  0  0  0
  -28.6290  -23.7610   22.8060 C   0  0  0  0  0  1  0  0  0  0  0  0
  -28.3470  -22.7720   21.6490 C   0  0  1  0  0  0  0  0  0  0  0  0
  -28.4020  -23.4620   20.2550 C   0  0  0  0  0  0  0  0  0  0  0  0
  -28.7310  -22.8150   19.2570 O   0  0  0  0  0  0  0  0  0  0  0  0
  -27.9630  -24.9360   20.0970 C   0  0  0  0  0  2  0  0  0  0  0  0
  -29.0170  -25.6470   17.8030 C   0  0  0  0  0  1  0  0  0  0  0  0
  -30.3690  -25.7620   19.9030 C   0  0  0  0  0  1  0  0  0  0  0  0
  -28.9420  -25.8820   19.3290 C   0  0  2  0  0  0  0  0  0  0  0  0
  -28.6700  -27.2690   19.6030 O   0  0  0  0  0  0  0  0  0  0  0  0
  -24.5500  -31.8370   23.1260 C   0  0  0  0  0  0  0  0  0  0  0  0
  -27.4070  -27.8300   19.6580 C   0  0  0  0  0  0  0  0  0  0  0  0
  -23.3910  -30.4520   21.4360 C   0  0  0  0  0  3  0  0  0  0  0  0
  -24.8980  -29.1310   19.8630 C   0  0  0  0  0  0  0  0  0  0  0  0
  -25.8720  -31.0220   21.1780 C   0  0  0  0  0  2  0  0  0  0  0  0
  -26.0330  -29.7080   20.4440 C   0  0  0  0  0  0  0  0  0  0  0  0
  -27.2840  -29.0640   20.3380 C   0  0  0  0  0  3  0  0  0  0  0  0
  -26.2460  -27.2670   19.0760 C   0  0  0  0  0  3  0  0  0  0  0  0
  -24.9990  -27.9090   19.1810 C   0  0  0  0  0  3  0  0  0  0  0  0
  -23.5960  -29.8850   20.0070 C   0  0  0  0  0  2  0  0  0  0  0  0
  -24.6240  -31.1160   21.9710 N   0  0  0  0  0  0  0  0  0  0  0  0
  -23.4720  -31.9870   23.7190 O   0  0  0  0  0  0  0  0  0  0  0  0
  -22.8620  -29.3210   22.3460 C   0  0  0  0  0  0  0  0  0  0  0  0
  -21.5620  -29.0090   22.2130 N   0  0  0  0  0  0  0  0  0  0  0  0
  -23.6130  -28.7310   23.1250 O   0  0  0  0  0  0  0  0  0  0  0  0
  -21.0140  -29.5420   21.5530 H   0  0  0  0  0  0  0  0  0  0  0  0
  -18.3410  -27.4240   22.6240 C   0  0  0  0  0  0  0  0  0  0  0  0
  -20.8510  -27.9560   22.9370 C   0  0  0  0  0  3  0  0  0  0  0  0
  -21.1200  -26.5700   22.3080 C   0  0  0  0  0  2  0  0  0  0  0  0
  -20.0700  -26.1650   21.2690 C   0  0  0  0  0  2  0  0  0  0  0  0
  -18.6740  -26.1300   21.9000 C   0  0  0  0  0  2  0  0  0  0  0  0
  -19.3640  -28.2890   23.0970 C   0  0  0  0  0  0  0  0  0  0  0  0
  -18.9990  -29.4970   23.7310 C   0  0  0  0  0  3  0  0  0  0  0  0
  -17.6450  -29.8420   23.8980 C   0  0  0  0  0  3  0  0  0  0  0  0
  -16.6380  -28.9740   23.4430 C   0  0  0  0  0  3  0  0  0  0  0  0
  -16.9860  -27.7670   22.8110 C   0  0  0  0  0  3  0  0  0  0  0  0
  -25.8070  -32.5260   23.7420 C   0  0  0  0  0  3  0  0  0  0  0  0
  -25.4250  -33.8950   24.1100 N   0  0  0  0  0  0  0  0  0  0  0  0
  -25.6910  -34.9820   23.3740 C   0  0  0  0  0  0  0  0  0  0  0  0
  -26.3570  -34.9410   22.3350 O   0  0  0  0  0  0  0  0  0  0  0  0
  -24.8330  -33.9970   24.9210 H   0  0  0  0  0  0  0  0  0  0  0  0
  -23.8640  -36.6810   23.0680 C   0  0  0  0  0  1  0  0  0  0  0  0
  -25.1280  -36.3280   23.8660 C   0  0  0  0  0  3  0  0  0  0  0  0
  -27.2150  -37.3070   24.7130 C   0  0  0  0  0  1  0  0  0  0  0  0
  -26.0990  -37.4400   23.7790 N   0  0  0  0  0  0  0  0  0  0  0  0
  -25.6440  -38.3320   23.9520 H   0  0  0  0  0  0  0  0  0  0  0  0
  -26.3890  -31.7550   24.9910 C   0  0  1  0  0  0  0  0  0  0  0  0
  -25.3260  -31.4100   26.0580 C   0  0  0  0  0  1  0  0  0  0  0  0
  -27.0600  -30.4330   24.5500 C   0  0  0  0  0  1  0  0  0  0  0  0
  -27.4910  -32.6070   25.6650 C   0  0  0  0  0  1  0  0  0  0  0  0
  -29.0440  -20.4390   21.0760 O   0  0  0  0  0  0  0  0  0  0  0  0
  -31.9870  -17.6200   20.0040 C   0  0  0  0  0  3  0  0  0  0  0  0
  -31.3570  -19.9450   20.3720 C   0  0  0  0  0  3  0  0  0  0  0  0
  -29.7220  -18.1740   20.7120 C   0  0  0  0  0  3  0  0  0  0  0  0
  -32.3340  -18.9860   20.0210 C   0  0  0  0  0  0  0  0  0  0  0  0
  -30.6790  -17.2050   20.3380 C   0  0  0  0  0  0  0  0  0  0  0  0
  -30.0430  -19.5500   20.7260 C   0  0  0  0  0  0  0  0  0  0  0  0
  -30.9750  -14.8030   19.7960 C   0  0  0  0  0  0  0  0  0  0  0  0
  -30.7320  -12.4800   19.0060 C   0  0  0  0  0  2  0  0  0  0  0  0
  -29.7410  -12.4260   17.8260 C   0  0  0  0  0  2  0  0  0  0  0  0
  -28.2910  -12.2970   18.3360 C   0  0  0  0  0  2  0  0  0  0  0  0
  -27.9520  -13.3310   19.4430 C   0  0  0  0  0  3  0  0  0  0  0  0
  -29.0490  -13.3470   20.5300 C   0  0  0  0  0  2  0  0  0  0  0  0
  -30.3420  -13.6030   19.8690 N   0  0  0  0  0  0  0  0  0  0  0  0
  -32.0350  -14.9610   19.1810 O   0  0  0  0  0  0  0  0  0  0  0  0
  -30.3120  -15.8310   20.3520 N   0  0  0  0  0  0  0  0  0  0  0  0
  -29.3920  -15.6090   20.7010 H   0  0  0  0  0  0  0  0  0  0  0  0
  -25.6390  -13.9940   20.3610 C   0  0  0  0  0  0  0  0  0  0  0  0
  -24.5740  -13.2450   20.7840 C   0  0  0  0  0  0  0  0  0  0  0  0
  -24.9780  -11.8810   20.6610 C   0  0  0  0  0  0  0  0  0  0  0  0
  -26.6280  -13.0870   20.0130 N   0  0  0  0  0  0  0  0  0  0  0  0
  -26.2380  -11.8080   20.2490 N   0  0  0  0  0  0  0  0  0  0  0  0
  -24.2210  -10.6380   20.8590 C   0  0  0  0  0  0  0  0  0  0  0  0
  -24.6410   -9.6570   21.7830 C   0  0  0  0  0  3  0  0  0  0  0  0
  -23.8880   -8.4770   21.9690 C   0  0  0  0  0  3  0  0  0  0  0  0
  -22.7010   -8.2700   21.2270 C   0  0  0  0  0  0  0  0  0  0  0  0
  -22.2990   -9.2390   20.2900 C   0  0  0  0  0  3  0  0  0  0  0  0
  -23.0520  -10.4110   20.1040 C   0  0  0  0  0  3  0  0  0  0  0  0
  -21.9180   -7.1440   21.3210 O   0  0  0  0  0  0  0  0  0  0  0  0
  -21.8030   -6.4430   22.4950 C   0  0  0  0  0  0  0  0  0  0  0  0
  -21.3390   -7.0510   23.6830 C   0  0  0  0  0  3  0  0  0  0  0  0
  -21.1700   -6.2780   24.8490 C   0  0  0  0  0  3  0  0  0  0  0  0
  -21.4560   -4.8990   24.8280 C   0  0  0  0  0  0  0  0  0  0  0  0
  -21.9130   -4.2920   23.6450 C   0  0  0  0  0  3  0  0  0  0  0  0
  -22.0840   -5.0630   22.4810 C   0  0  0  0  0  0  0  0  0  0  0  0
  -22.5040   -4.4690   21.3380 F   0  0  0  0  0  0  0  0  0  0  0  0
  -21.2860   -4.1540   25.9450 F   0  0  0  0  0  0  0  0  0  0  0  0
  -23.2220  -13.7580   21.1870 C   0  0  0  0  0  0  0  0  0  0  0  0
  -22.5540  -13.0730   22.1090 N   0  0  0  0  0  0  0  0  0  0  0  0
  -22.7690  -14.8020   20.7190 O   0  0  0  0  0  0  0  0  0  0  0  0
  -22.9370  -12.2300   22.5100 H   0  0  0  0  0  0  0  0  0  0  0  0
  -21.6490  -13.3980   22.4200 H   0  0  0  0  0  0  0  0  0  0  0  0
  -25.8430  -15.3630   20.2260 N   0  0  0  0  0  0  0  0  0  0  0  0
  -25.1100  -16.0390   20.4160 H   0  0  0  0  0  0  0  0  0  0  0  0
  -26.6780  -15.7840   19.8380 H   0  0  0  0  0  0  0  0  0  0  0  0
  -33.7180  -19.4070   19.6250 C   0  0  0  0  0  0  0  0  0  0  0  0
  -34.2190  -20.4590   20.2590 N   0  0  0  0  0  0  0  0  0  0  0  0
  -34.3750  -18.7740   18.7990 O   0  0  0  0  0  0  0  0  0  0  0  0
  -33.6750  -20.9280   20.9670 H   0  0  0  0  0  0  0  0  0  0  0  0
  -35.1510  -20.7820   20.0500 H   0  0  0  0  0  0  0  0  0  0  0  0
  4  1  1  0
  4  2  1  1
  4  3  1  0
  5  4  1  0
  6  5  2  0
  7  5  1  0
 10  8  1  6
 10 11  1  0
 10  9  1  0
 10  7  1  0
 11 13  1  0
 12 23  2  0
 13 18  1  0
 14 22  1  0
 14 24  1  0
 15 21  1  0
 15 17  1  0
 16 22  1  0
 17 16  1  0
 18 17  2  0
 19 20  1  0
 19 13  2  0
 20 15  2  0
 21 14  1  0
 22 12  1  0
 24 26  2  0
 25 24  1  0
 27 25  1  0
 28 37  2  0
 28 33  1  0
 29 25  1  0
 29 33  1  0
 30 29  1  0
 31 32  1  0
 31 30  1  0
 32 28  1  0
 33 34  2  0
 34 35  1  0
 36 35  2  0
 37 36  1  0
 38 12  1  0
 38 39  1  0
 38 48  1  0
 39 42  1  0
 40 44  1  0
 40 39  1  0
 41 40  2  0
 44 43  1  0
 46 44  1  0
 46 47  1  0
 46 45  1  0
 48 51  1  1
 48 49  1  0
 50 48  1  0
 52  1  1  0
 53 56  2  0
 53 57  1  0
 54 58  2  0
 55 58  1  0
 56 54  1  0
 57 67  1  0
 57 55  2  0
 58 52  1  0
 59 65  1  0
 59 67  1  0
 60 65  1  0
 61 62  1  0
 61 60  1  0
 63 62  1  0
 63 72  1  0
 63 64  1  0
 65 64  1  0
 66 59  2  0
 67 68  1  0
 69 70  2  0
 70 89  1  0
 71 70  1  0
 71 74  1  0
 72 73  1  0
 72 69  1  0
 73 71  2  0
 74 75  1  0
 75 76  2  0
 77 80  1  0
 77 76  1  0
 78 77  2  0
 79 78  1  0
 79 74  2  0
 80 81  1  0
 81 82  1  0
 82 83  2  0
 84 83  1  0
 84 88  1  0
 85 84  2  0
 86 81  2  0
 86 85  1  0
 87 86  1  0
 89 90  1  0
 90 93  1  0
 90 92  1  0
 91 89  2  0
 94 69  1  0
 94 95  1  0
 96 94  1  0
 97 56  1  0
 97 98  1  0
 98100  1  0
 99 97  2  0
101 98  1  0
M  ISO  4  10 101  11 101  59 100  67 100
M  END
>  <TORSDO>  (28) 
F 23

>  <SCORE>  (28) 
-11.394

>  <name>  (28) 
27

>  <ligand_id>  (28) 
27

>  <original_smiles>  (28) 
[H]c1c([H])c([H])c2c(c1[H])C([H])([H])C([H])([H])C([H])([H])C2([H])N([H])C(=O)C1([H])N(C(=O)C([H])(N([H])C(=O)C([H])(N([H])C([H])([H])[H])C([H])([H])[H])C(C([H])([H])[H])(C([H])([H])[H])C([H])([H])[H])C([H])([H])c2c([H])c(OC(C([H])([H])[H])(C([H])([H])[H])C([H])([H])C(=O)C(C([H])([H])[H])(C([H])([H])[H])C([H])([H])Oc3c([H])c(C(=O)N([H])[H])c([H])c(N([H])C(=O)N4C([H])([H])C([H])([H])C([H])([H])C([H])(n5nc(-c6c([H])c([H])c(Oc7c([H])c([H])c(F)c([H])c7F)c([H])c6[H])c(C(=O)N([H])[H])c5N([H])[H])C4([H])[H])c3[H])c([H])c([H])c2C1([H])[H]

>  <smiles>  (28) 
[H]c1c([H])c([H])c2c(c1[H])C([H])([H])C([H])([H])C([H])([H])C2([H])N([H])C(=O)C1([H])N(C(=O)C([H])(N([H])C(=O)C([H])(N([H])C([H])([H])[H])C([H])([H])[H])C(C([H])([H])[H])(C([H])([H])[H])C([H])([H])[H])C([H])([H])c2c([H])c(OC(C([H])([H])[H])(C([H])([H])[H])C([H])([H])C(=O)C(C([H])([H])[H])(C([H])([H])[H])C([H])([H])Oc3c([H])c(C(=O)N([H])[H])c([H])c(N([H])C(=O)N4C([H])([H])C([H])([H])C([H])([H])C([H])(n5nc(-c6c([H])c([H])c(Oc7c([H])c([H])c(F)c([H])c7F)c([H])c6[H])c(C(=O)N([H])[H])c5N([H])[H])C4([H])[H])c3[H])c([H])c([H])c2C1([H])[H]

$$$$
28:0:0
     RDKit          3D

 98106  0  0  1  0  0  0  0  0999 V2000
  -29.2810  -23.0150   22.9710 C   0  0  0  0  0  1  0  0  0  0  0  0
  -31.4800  -23.8510   22.1960 C   0  0  0  0  0  1  0  0  0  0  0  0
  -30.1870  -23.1300   21.7260 C   0  0  2  0  0  0  0  0  0  0  0  0
  -29.5570  -24.0150   20.6000 C   0  0  0  0  0  0  0  0  0  0  0  0
  -30.2030  -24.2420   19.5720 O   0  0  0  0  0  0  0  0  0  0  0  0
  -28.1220  -24.5920   20.7110 C   0  0  0  0  0  2  0  0  0  0  0  0
  -26.7820  -26.0680   22.2900 C   0  0  0  0  0  1  0  0  0  0  0  0
  -29.1540  -26.7550   21.8050 C   0  0  0  0  0  1  0  0  0  0  0  0
  -27.9060  -26.0670   21.2140 C   0  0  1  0  0  0  0  0  0  0  0  0
  -27.6030  -26.8580   20.0310 O   0  0  0  0  0  0  0  0  0  0  0  0
  -24.4230  -32.2000   23.4860 C   0  0  0  0  0  0  0  0  0  0  0  0
  -26.5370  -27.7270   20.0930 C   0  0  0  0  0  0  0  0  0  0  0  0
  -23.0160  -30.9520   21.8800 C   0  0  0  0  0  3  0  0  0  0  0  0
  -24.2630  -29.3780   20.3060 C   0  0  0  0  0  0  0  0  0  0  0  0
  -25.5380  -31.1570   21.5150 C   0  0  0  0  0  2  0  0  0  0  0  0
  -25.4890  -29.8070   20.8300 C   0  0  0  0  0  0  0  0  0  0  0  0
  -26.6350  -28.9890   20.7220 C   0  0  0  0  0  3  0  0  0  0  0  0
  -25.3060  -27.3210   19.5390 C   0  0  0  0  0  3  0  0  0  0  0  0
  -24.1640  -28.1360   19.6550 C   0  0  0  0  0  3  0  0  0  0  0  0
  -23.0850  -30.3100   20.4680 C   0  0  0  0  0  2  0  0  0  0  0  0
  -24.3500  -31.4470   22.3520 N   0  0  0  0  0  0  0  0  0  0  0  0
  -23.4020  -32.5190   24.1100 O   0  0  0  0  0  0  0  0  0  0  0  0
  -22.3610  -29.9410   22.8460 C   0  0  0  0  0  0  0  0  0  0  0  0
  -21.0440  -29.7260   22.6820 N   0  0  0  0  0  0  0  0  0  0  0  0
  -23.0360  -29.3520   23.6950 O   0  0  0  0  0  0  0  0  0  0  0  0
  -20.5650  -30.2550   21.9640 H   0  0  0  0  0  0  0  0  0  0  0  0
  -17.7220  -28.3450   22.9880 C   0  0  0  0  0  0  0  0  0  0  0  0
  -20.2250  -28.7880   23.4490 C   0  0  0  0  0  3  0  0  0  0  0  0
  -20.4650  -27.3330   22.9830 C   0  0  0  0  0  2  0  0  0  0  0  0
  -19.4750  -26.8760   21.9080 C   0  0  0  0  0  2  0  0  0  0  0  0
  -18.0370  -26.9710   22.4260 C   0  0  0  0  0  2  0  0  0  0  0  0
  -18.7500  -29.2060   23.4530 C   0  0  0  0  0  0  0  0  0  0  0  0
  -18.4060  -30.4910   23.9290 C   0  0  0  0  0  3  0  0  0  0  0  0
  -17.0640  -30.9130   23.9540 C   0  0  0  0  0  3  0  0  0  0  0  0
  -16.0470  -30.0500   23.5090 C   0  0  0  0  0  3  0  0  0  0  0  0
  -16.3780  -28.7690   23.0300 C   0  0  0  0  0  3  0  0  0  0  0  0
  -25.7880  -32.7160   24.0390 C   0  0  0  0  0  3  0  0  0  0  0  0
  -25.6230  -34.1350   24.3810 N   0  0  0  0  0  0  0  0  0  0  0  0
  -26.0400  -35.1510   23.6120 C   0  0  0  0  0  0  0  0  0  0  0  0
  -26.6660  -34.9840   22.5620 O   0  0  0  0  0  0  0  0  0  0  0  0
  -25.0610  -34.3460   25.1940 H   0  0  0  0  0  0  0  0  0  0  0  0
  -24.4740  -37.0890   23.3050 C   0  0  0  0  0  1  0  0  0  0  0  0
  -25.7000  -36.5800   24.0800 C   0  0  0  0  0  3  0  0  0  0  0  0
  -27.9330  -37.2560   24.8420 C   0  0  0  0  0  1  0  0  0  0  0  0
  -26.8230  -37.5320   23.9330 N   0  0  0  0  0  0  0  0  0  0  0  0
  -26.5130  -38.4870   24.0870 H   0  0  0  0  0  0  0  0  0  0  0  0
  -26.3000  -31.8950   25.2860 C   0  0  1  0  0  0  0  0  0  0  0  0
  -25.2270  -31.7110   26.3860 C   0  0  0  0  0  1  0  0  0  0  0  0
  -26.7830  -30.4940   24.8480 C   0  0  0  0  0  1  0  0  0  0  0  0
  -27.5230  -32.6050   25.9130 C   0  0  0  0  0  1  0  0  0  0  0  0
  -30.6300  -21.7140   21.1870 C   0  0  0  0  0  3  0  0  0  0  0  0
  -29.7200  -20.4730   21.4560 C   0  0  0  0  0  3  0  0  0  0  0  0
  -29.7350  -17.9450   20.8040 C   0  0  0  0  0  3  0  0  0  0  0  0
  -30.4030  -19.1200   21.2920 C   0  0  0  0  0  0  0  0  0  0  0  0
  -30.5230  -16.8130   20.7290 C   0  0  0  0  0  0  0  0  0  0  0  0
  -31.7050  -18.8330   21.6510 C   0  0  0  0  0  0  0  0  0  0  0  0
  -32.1460  -17.1910   21.2510 S   0  0  0  0  0  0  0  0  0  0  0  0
  -30.8850  -14.5370   19.9160 C   0  0  0  0  0  0  0  0  0  0  0  0
  -30.6720  -12.2430   19.0140 C   0  0  0  0  0  2  0  0  0  0  0  0
  -29.6800  -12.2170   17.8310 C   0  0  0  0  0  2  0  0  0  0  0  0
  -28.2230  -12.0750   18.3230 C   0  0  0  0  0  2  0  0  0  0  0  0
  -27.8830  -13.0710   19.4640 C   0  0  0  0  0  3  0  0  0  0  0  0
  -28.9720  -13.0290   20.5590 C   0  0  0  0  0  2  0  0  0  0  0  0
  -30.2630  -13.3310   19.9160 N   0  0  0  0  0  0  0  0  0  0  0  0
  -31.9810  -14.7310   19.3740 O   0  0  0  0  0  0  0  0  0  0  0  0
  -30.1340  -15.5520   20.3930 N   0  0  0  0  0  0  0  0  0  0  0  0
  -29.1760  -15.3080   20.5980 H   0  0  0  0  0  0  0  0  0  0  0  0
  -25.5530  -13.7240   20.3420 C   0  0  0  0  0  0  0  0  0  0  0  0
  -24.4900  -12.9680   20.7570 C   0  0  0  0  0  0  0  0  0  0  0  0
  -24.9110  -11.6060   20.6600 C   0  0  0  0  0  0  0  0  0  0  0  0
  -26.5550  -12.8210   20.0200 N   0  0  0  0  0  0  0  0  0  0  0  0
  -26.1760  -11.5430   20.2680 N   0  0  0  0  0  0  0  0  0  0  0  0
  -24.1650  -10.3590   20.8590 C   0  0  0  0  0  0  0  0  0  0  0  0
  -24.5830   -9.3900   21.7970 C   0  0  0  0  0  3  0  0  0  0  0  0
  -23.8360   -8.2060   21.9840 C   0  0  0  0  0  3  0  0  0  0  0  0
  -22.6600   -7.9830   21.2310 C   0  0  0  0  0  0  0  0  0  0  0  0
  -22.2620   -8.9400   20.2800 C   0  0  0  0  0  3  0  0  0  0  0  0
  -23.0090  -10.1150   20.0920 C   0  0  0  0  0  3  0  0  0  0  0  0
  -21.8860   -6.8510   21.3270 O   0  0  0  0  0  0  0  0  0  0  0  0
  -21.7870   -6.1450   22.4990 C   0  0  0  0  0  0  0  0  0  0  0  0
  -21.3250   -6.7420   23.6910 C   0  0  0  0  0  3  0  0  0  0  0  0
  -21.1740   -5.9630   24.8550 C   0  0  0  0  0  3  0  0  0  0  0  0
  -21.4710   -4.5880   24.8260 C   0  0  0  0  0  0  0  0  0  0  0  0
  -21.9250   -3.9890   23.6380 C   0  0  0  0  0  3  0  0  0  0  0  0
  -22.0800   -4.7670   22.4750 C   0  0  0  0  0  0  0  0  0  0  0  0
  -22.4980   -4.1800   21.3280 F   0  0  0  0  0  0  0  0  0  0  0  0
  -21.3180   -3.8390   25.9420 F   0  0  0  0  0  0  0  0  0  0  0  0
  -23.1270  -13.4730   21.1340 C   0  0  0  0  0  0  0  0  0  0  0  0
  -22.4500  -12.7840   22.0470 N   0  0  0  0  0  0  0  0  0  0  0  0
  -22.6760  -14.5140   20.6560 O   0  0  0  0  0  0  0  0  0  0  0  0
  -22.8230  -11.9360   22.4490 H   0  0  0  0  0  0  0  0  0  0  0  0
  -21.5390  -13.1070   22.3440 H   0  0  0  0  0  0  0  0  0  0  0  0
  -25.7460  -15.0950   20.1890 N   0  0  0  0  0  0  0  0  0  0  0  0
  -25.0120  -15.7700   20.3650 H   0  0  0  0  0  0  0  0  0  0  0  0
  -26.5780  -15.5180   19.7970 H   0  0  0  0  0  0  0  0  0  0  0  0
  -33.8260  -20.0160   21.4880 C   0  0  0  0  0  1  0  0  0  0  0  0
  -32.6460  -19.6610   22.2620 N   0  0  0  0  0  0  0  0  0  0  0  0
  -32.8400  -19.4570   23.2410 H   0  0  0  0  0  0  0  0  0  0  0  0
  3  2  1  1
  3  1  1  0
  4  6  1  0
  4  3  1  0
  5  4  2  0
  6  9  1  0
  9  8  1  1
  9  7  1  0
 10 12  1  0
 10  9  1  0
 11 22  2  0
 12 17  1  0
 13 21  1  0
 13 23  1  0
 14 20  1  0
 14 16  1  0
 15 21  1  0
 16 15  1  0
 17 16  2  0
 18 19  1  0
 18 12  2  0
 19 14  2  0
 20 13  1  0
 21 11  1  0
 23 25  2  0
 24 23  1  0
 26 24  1  0
 27 36  2  0
 27 32  1  0
 28 24  1  0
 28 32  1  0
 29 28  1  0
 30 31  1  0
 30 29  1  0
 31 27  1  0
 32 33  2  0
 33 34  1  0
 35 34  2  0
 36 35  1  0
 37 11  1  0
 37 38  1  0
 37 47  1  0
 38 41  1  0
 39 43  1  0
 39 38  1  0
 40 39  2  0
 43 42  1  0
 45 43  1  0
 45 46  1  0
 45 44  1  0
 47 50  1  1
 47 48  1  0
 49 47  1  0
 51 52  2  0
 51  3  1  0
 53 54  1  0
 54 52  1  0
 54 56  2  0
 55 53  2  0
 55 57  1  0
 56 97  1  0
 57 56  1  0
 58 64  1  0
 58 66  1  0
 59 64  1  0
 60 61  1  0
 60 59  1  0
 62 61  1  0
 62 71  1  0
 62 63  1  0
 64 63  1  0
 65 58  2  0
 66 67  1  0
 66 55  1  0
 68 69  2  0
 69 88  1  0
 70 69  1  0
 70 73  1  0
 71 72  1  0
 71 68  1  0
 72 70  2  0
 73 74  1  0
 74 75  2  0
 76 79  1  0
 76 75  1  0
 77 76  2  0
 78 77  1  0
 78 73  2  0
 79 80  1  0
 80 81  1  0
 81 82  2  0
 83 82  1  0
 83 87  1  0
 84 83  2  0
 85 80  2  0
 85 84  1  0
 86 85  1  0
 88 89  1  0
 89 92  1  0
 89 91  1  0
 90 88  2  0
 93 68  1  0
 93 94  1  0
 95 93  1  0
 96 97  1  0
 97 98  1  0
M  ISO  4   9 101  10 101  58 100  66 100
M  END
>  <TORSDO>  (29) 
F 23

>  <SCORE>  (29) 
-9.959

>  <name>  (29) 
28

>  <ligand_id>  (29) 
28

>  <original_smiles>  (29) 
[H]c1c([H])c([H])c2c(c1[H])C([H])([H])C([H])([H])C([H])([H])C2([H])N([H])C(=O)C1([H])N(C(=O)C([H])(N([H])C(=O)C([H])(N([H])C([H])([H])[H])C([H])([H])[H])C(C([H])([H])[H])(C([H])([H])[H])C([H])([H])[H])C([H])([H])c2c([H])c(OC(C([H])([H])[H])(C([H])([H])[H])C([H])([H])C(=O)C(C([H])([H])[H])(C([H])([H])[H])C([H])([H])C([H])([H])c3c(N([H])C([H])([H])[H])sc(N([H])C(=O)N4C([H])([H])C([H])([H])C([H])([H])C([H])(n5nc(-c6c([H])c([H])c(Oc7c([H])c([H])c(F)c([H])c7F)c([H])c6[H])c(C(=O)N([H])[H])c5N([H])[H])C4([H])[H])c3[H])c([H])c([H])c2C1([H])[H]

>  <smiles>  (29) 
[H]c1c([H])c([H])c2c(c1[H])C([H])([H])C([H])([H])C([H])([H])C2([H])N([H])C(=O)C1([H])N(C(=O)C([H])(N([H])C(=O)C([H])(N([H])C([H])([H])[H])C([H])([H])[H])C(C([H])([H])[H])(C([H])([H])[H])C([H])([H])[H])C([H])([H])c2c([H])c(OC(C([H])([H])[H])(C([H])([H])[H])C([H])([H])C(=O)C(C([H])([H])[H])(C([H])([H])[H])C([H])([H])C([H])([H])c3c(N([H])C([H])([H])[H])sc(N([H])C(=O)N4C([H])([H])C([H])([H])C([H])([H])C([H])(n5nc(-c6c([H])c([H])c(Oc7c([H])c([H])c(F)c([H])c7F)c([H])c6[H])c(C(=O)N([H])[H])c5N([H])[H])C4([H])[H])c3[H])c([H])c([H])c2C1([H])[H]

$$$$
29:0:0
     RDKit          3D

 98106  0  0  1  0  0  0  0  0999 V2000
  -28.8610  -20.2520   18.8250 C   0  0  0  0  0  2  0  0  0  0  0  0
  -27.0770  -20.6960   20.6060 C   0  0  0  0  0  1  0  0  0  0  0  0
  -27.8960  -21.3370   19.4690 C   0  0  0  0  0  3  0  0  0  0  0  0
  -28.4540  -22.7850   19.8660 C   0  0  0  0  0  2  0  0  0  0  0  0
  -27.8170  -24.3120   17.9290 C   0  0  0  0  0  1  0  0  0  0  0  0
  -26.1380  -23.8220   19.7910 C   0  0  0  0  0  1  0  0  0  0  0  0
  -27.6280  -24.1010   19.4470 C   0  0  1  0  0  0  0  0  0  0  0  0
  -28.0910  -25.4300   20.2210 C   0  0  0  0  0  2  0  0  0  0  0  0
  -28.1370  -26.7850   19.6130 O   0  0  0  0  0  0  0  0  0  0  0  0
  -24.5780  -31.9660   23.1830 C   0  0  0  0  0  0  0  0  0  0  0  0
  -27.0290  -27.6240   19.7270 C   0  0  0  0  0  0  0  0  0  0  0  0
  -23.2970  -30.6630   21.5180 C   0  0  0  0  0  3  0  0  0  0  0  0
  -24.6780  -29.2260   19.9220 C   0  0  0  0  0  0  0  0  0  0  0  0
  -25.8260  -31.0090   21.2340 C   0  0  0  0  0  2  0  0  0  0  0  0
  -25.8700  -29.6720   20.5080 C   0  0  0  0  0  0  0  0  0  0  0  0
  -27.0490  -28.8800   20.4100 C   0  0  0  0  0  3  0  0  0  0  0  0
  -25.8330  -27.2570   19.0860 C   0  0  0  0  0  3  0  0  0  0  0  0
  -24.6610  -28.0230   19.2020 C   0  0  0  0  0  3  0  0  0  0  0  0
  -23.4420  -30.0840   20.0880 C   0  0  0  0  0  2  0  0  0  0  0  0
  -24.5870  -31.2290   22.0330 N   0  0  0  0  0  0  0  0  0  0  0  0
  -23.5210  -32.2030   23.7820 O   0  0  0  0  0  0  0  0  0  0  0  0
  -22.6870  -29.5770   22.4380 C   0  0  0  0  0  0  0  0  0  0  0  0
  -21.3650  -29.3630   22.3270 N   0  0  0  0  0  0  0  0  0  0  0  0
  -23.4000  -28.9310   23.2100 O   0  0  0  0  0  0  0  0  0  0  0  0
  -20.8420  -29.9400   21.6820 H   0  0  0  0  0  0  0  0  0  0  0  0
  -18.0420  -28.0210   22.7940 C   0  0  0  0  0  0  0  0  0  0  0  0
  -20.5890  -28.3630   23.0640 C   0  0  0  0  0  3  0  0  0  0  0  0
  -20.7410  -26.9600   22.4310 C   0  0  0  0  0  2  0  0  0  0  0  0
  -19.6480  -26.6390   21.4080 C   0  0  0  0  0  2  0  0  0  0  0  0
  -18.2650  -26.7060   22.0640 C   0  0  0  0  0  2  0  0  0  0  0  0
  -19.1340  -28.8060   23.2480 C   0  0  0  0  0  0  0  0  0  0  0  0
  -18.8720  -30.0370   23.8860 C   0  0  0  0  0  3  0  0  0  0  0  0
  -17.5520  -30.4850   24.0760 C   0  0  0  0  0  3  0  0  0  0  0  0
  -16.4730  -29.6930   23.6420 C   0  0  0  0  0  3  0  0  0  0  0  0
  -16.7200  -28.4610   23.0090 C   0  0  0  0  0  3  0  0  0  0  0  0
  -25.8860  -32.5610   23.7870 C   0  0  0  0  0  3  0  0  0  0  0  0
  -25.6110  -33.9560   24.1580 N   0  0  0  0  0  0  0  0  0  0  0  0
  -25.9380  -35.0180   23.4130 C   0  0  0  0  0  0  0  0  0  0  0  0
  -26.5750  -34.9270   22.3600 O   0  0  0  0  0  0  0  0  0  0  0  0
  -25.0510  -34.1060   24.9830 H   0  0  0  0  0  0  0  0  0  0  0  0
  -24.2280  -36.8430   23.1480 C   0  0  0  0  0  1  0  0  0  0  0  0
  -25.4840  -36.4020   23.9150 C   0  0  0  0  0  3  0  0  0  0  0  0
  -27.6500  -37.2400   24.7120 C   0  0  0  0  0  1  0  0  0  0  0  0
  -26.5290  -37.4420   23.7990 N   0  0  0  0  0  0  0  0  0  0  0  0
  -26.1410  -38.3650   23.9750 H   0  0  0  0  0  0  0  0  0  0  0  0
  -26.4240  -31.7530   25.0310 C   0  0  1  0  0  0  0  0  0  0  0  0
  -25.3610  -31.5090   26.1270 C   0  0  0  0  0  1  0  0  0  0  0  0
  -26.9690  -30.3730   24.5920 C   0  0  0  0  0  1  0  0  0  0  0  0
  -27.6020  -32.5150   25.6830 C   0  0  0  0  0  1  0  0  0  0  0  0
  -29.0790  -18.9760   19.5200 O   0  0  0  0  0  0  0  0  0  0  0  0
  -32.8350  -18.4580   21.3890 C   0  0  0  0  0  3  0  0  0  0  0  0
  -32.0820  -17.3230   21.0480 C   0  0  0  0  0  3  0  0  0  0  0  0
  -31.0720  -19.8580   20.5410 C   0  0  0  0  0  3  0  0  0  0  0  0
  -32.3490  -19.7520   21.1320 C   0  0  0  0  0  0  0  0  0  0  0  0
  -30.8220  -17.4100   20.3960 C   0  0  0  0  0  0  0  0  0  0  0  0
  -30.3050  -18.7330   20.1340 C   0  0  0  0  0  0  0  0  0  0  0  0
  -30.7670  -14.9690   19.8090 C   0  0  0  0  0  0  0  0  0  0  0  0
  -30.4000  -12.6730   18.9470 C   0  0  0  0  0  2  0  0  0  0  0  0
  -29.4130  -12.7050   17.7680 C   0  0  0  0  0  2  0  0  0  0  0  0
  -27.9680  -12.5820   18.2810 C   0  0  0  0  0  2  0  0  0  0  0  0
  -27.6610  -13.5560   19.4530 C   0  0  0  0  0  3  0  0  0  0  0  0
  -28.7790  -13.5480   20.5190 C   0  0  0  0  0  2  0  0  0  0  0  0
  -30.0500  -13.8040   19.8300 N   0  0  0  0  0  0  0  0  0  0  0  0
  -31.9120  -14.9840   19.3540 O   0  0  0  0  0  0  0  0  0  0  0  0
  -30.1450  -16.1540   20.0840 N   0  0  0  0  0  0  0  0  0  0  0  0
  -29.1370  -16.1610   20.1190 H   0  0  0  0  0  0  0  0  0  0  0  0
  -25.3500  -14.1870   20.3710 C   0  0  0  0  0  0  0  0  0  0  0  0
  -24.2900  -13.4290   20.7930 C   0  0  0  0  0  0  0  0  0  0  0  0
  -24.7130  -12.0680   20.6910 C   0  0  0  0  0  0  0  0  0  0  0  0
  -26.3500  -13.2900   20.0370 N   0  0  0  0  0  0  0  0  0  0  0  0
  -25.9770  -12.0070   20.2940 N   0  0  0  0  0  0  0  0  0  0  0  0
  -23.9650  -10.8200   20.8950 C   0  0  0  0  0  0  0  0  0  0  0  0
  -24.4020   -9.8360   21.8100 C   0  0  0  0  0  3  0  0  0  0  0  0
  -23.6520   -8.6550   22.0020 C   0  0  0  0  0  3  0  0  0  0  0  0
  -22.4520   -8.4500   21.2820 C   0  0  0  0  0  0  0  0  0  0  0  0
  -22.0370   -9.4190   20.3550 C   0  0  0  0  0  3  0  0  0  0  0  0
  -22.7850  -10.5910   20.1600 C   0  0  0  0  0  3  0  0  0  0  0  0
  -21.6740   -7.3210   21.3850 O   0  0  0  0  0  0  0  0  0  0  0  0
  -21.6150   -6.5940   22.5470 C   0  0  0  0  0  0  0  0  0  0  0  0
  -21.1560   -7.1580   23.7570 C   0  0  0  0  0  3  0  0  0  0  0  0
  -21.0440   -6.3560   24.9110 C   0  0  0  0  0  3  0  0  0  0  0  0
  -21.3780   -4.9890   24.8530 C   0  0  0  0  0  0  0  0  0  0  0  0
  -21.8270   -4.4230   23.6470 C   0  0  0  0  0  3  0  0  0  0  0  0
  -21.9400   -5.2240   22.4960 C   0  0  0  0  0  0  0  0  0  0  0  0
  -22.3550   -4.6710   21.3310 F   0  0  0  0  0  0  0  0  0  0  0  0
  -21.2610   -4.2150   25.9570 F   0  0  0  0  0  0  0  0  0  0  0  0
  -22.9310  -13.9340   21.1740 C   0  0  0  0  0  0  0  0  0  0  0  0
  -22.2470  -13.2360   22.0730 N   0  0  0  0  0  0  0  0  0  0  0  0
  -22.4840  -14.9820   20.7090 O   0  0  0  0  0  0  0  0  0  0  0  0
  -22.6200  -12.3880   22.4720 H   0  0  0  0  0  0  0  0  0  0  0  0
  -21.3370  -13.5570   22.3680 H   0  0  0  0  0  0  0  0  0  0  0  0
  -25.5390  -15.5590   20.2170 N   0  0  0  0  0  0  0  0  0  0  0  0
  -24.8000  -16.2300   20.4000 H   0  0  0  0  0  0  0  0  0  0  0  0
  -26.3760  -15.9880   19.8430 H   0  0  0  0  0  0  0  0  0  0  0  0
  -34.6760  -20.7090   21.6040 C   0  0  0  0  0  1  0  0  0  0  0  0
  -32.6800  -21.4180   22.9570 C   0  0  0  0  0  1  0  0  0  0  0  0
  -32.9810  -22.1820   20.5830 C   0  0  0  0  0  1  0  0  0  0  0  0
  -33.1590  -20.9970   21.5580 C   0  0  2  0  0  0  0  0  0  0  0  0
  1  3  1  0
  1 50  1  0
  3  4  1  0
  3  2  1  0
  7  5  1  6
  7  6  1  0
  7  4  1  0
  7  8  1  0
  9 11  1  0
  9  8  1  0
 10 21  2  0
 11 16  1  0
 12 20  1  0
 12 22  1  0
 13 19  1  0
 13 15  1  0
 14 20  1  0
 15 14  1  0
 16 15  2  0
 17 18  1  0
 17 11  2  0
 18 13  2  0
 19 12  1  0
 20 10  1  0
 22 24  2  0
 23 22  1  0
 25 23  1  0
 26 35  2  0
 26 31  1  0
 27 23  1  0
 27 31  1  0
 28 27  1  0
 29 30  1  0
 29 28  1  0
 30 26  1  0
 31 32  2  0
 32 33  1  0
 34 33  2  0
 35 34  1  0
 36 10  1  0
 36 37  1  0
 36 46  1  0
 37 40  1  0
 38 42  1  0
 38 37  1  0
 39 38  2  0
 42 41  1  0
 44 42  1  0
 44 45  1  0
 44 43  1  0
 46 49  1  1
 46 47  1  0
 48 46  1  0
 50 56  1  0
 52 51  2  0
 53 54  2  0
 54 51  1  0
 54 98  1  0
 55 52  1  0
 56 55  2  0
 56 53  1  0
 57 63  1  0
 57 65  1  0
 58 63  1  0
 59 60  1  0
 59 58  1  0
 61 60  1  0
 61 70  1  0
 61 62  1  0
 63 62  1  0
 64 57  2  0
 65 66  1  0
 65 55  1  0
 67 68  2  0
 68 87  1  0
 69 68  1  0
 69 72  1  0
 70 71  1  0
 70 67  1  0
 71 69  2  0
 72 73  1  0
 73 74  2  0
 75 78  1  0
 75 74  1  0
 76 75  2  0
 77 76  1  0
 77 72  2  0
 78 79  1  0
 79 80  1  0
 80 81  2  0
 82 81  1  0
 82 86  1  0
 83 82  2  0
 84 79  2  0
 84 83  1  0
 85 84  1  0
 87 88  1  0
 88 91  1  0
 88 90  1  0
 89 87  2  0
 92 67  1  0
 92 93  1  0
 94 92  1  0
 98 97  1  6
 98 95  1  0
 98 96  1  0
M  ISO  4   8 101   9 101  57 100  65 100
M  END
>  <TORSDO>  (30) 
F 23

>  <SCORE>  (30) 
-11.087

>  <name>  (30) 
29

>  <ligand_id>  (30) 
29

>  <original_smiles>  (30) 
[H]c1c([H])c([H])c2c(c1[H])C([H])([H])C([H])([H])C([H])([H])C2([H])N([H])C(=O)C1([H])N(C(=O)C([H])(N([H])C(=O)C([H])(N([H])C([H])([H])[H])C([H])([H])[H])C(C([H])([H])[H])(C([H])([H])[H])C([H])([H])[H])C([H])([H])c2c([H])c(OC([H])([H])C(C([H])([H])[H])(C([H])([H])[H])C([H])([H])C([H])(C([H])([H])[H])C([H])([H])Oc3c([H])c(C(C([H])([H])[H])(C([H])([H])[H])C([H])([H])[H])c([H])c([H])c3N([H])C(=O)N3C([H])([H])C([H])([H])C([H])([H])C([H])(n4nc(-c5c([H])c([H])c(Oc6c([H])c([H])c(F)c([H])c6F)c([H])c5[H])c(C(=O)N([H])[H])c4N([H])[H])C3([H])[H])c([H])c([H])c2C1([H])[H]

>  <smiles>  (30) 
[H]c1c([H])c([H])c2c(c1[H])C([H])([H])C([H])([H])C([H])([H])C2([H])N([H])C(=O)C1([H])N(C(=O)C([H])(N([H])C(=O)C([H])(N([H])C([H])([H])[H])C([H])([H])[H])C(C([H])([H])[H])(C([H])([H])[H])C([H])([H])[H])C([H])([H])c2c([H])c(OC([H])([H])C(C([H])([H])[H])(C([H])([H])[H])C([H])([H])C([H])(C([H])([H])[H])C([H])([H])Oc3c([H])c(C(C([H])([H])[H])(C([H])([H])[H])C([H])([H])[H])c([H])c([H])c3N([H])C(=O)N3C([H])([H])C([H])([H])C([H])([H])C([H])(n4nc(-c5c([H])c([H])c(Oc6c([H])c([H])c(F)c([H])c6F)c([H])c5[H])c(C(=O)N([H])[H])c4N([H])[H])C3([H])[H])c([H])c([H])c2C1([H])[H]

$$$$
30:0:0
     RDKit          3D

 99107  0  0  1  0  0  0  0  0999 V2000
  -29.0530  -21.3220   19.4320 C   0  0  0  0  0  2  0  0  0  0  0  0
  -29.0550  -20.9040   20.8390 N   0  0  0  0  0  0  0  0  0  0  0  0
  -29.2860  -21.6940   21.4390 H   0  0  0  0  0  0  0  0  0  0  0  0
  -31.4360  -18.5850   22.5700 C   0  0  0  0  0  3  0  0  0  0  0  0
  -31.0160  -17.3400   22.0790 C   0  0  0  0  0  3  0  0  0  0  0  0
  -29.3040  -18.4520   20.7520 C   0  0  0  0  0  3  0  0  0  0  0  0
  -30.8010  -19.7860   22.1760 C   0  0  0  0  0  0  0  0  0  0  0  0
  -29.9470  -17.2580   21.1670 C   0  0  0  0  0  0  0  0  0  0  0  0
  -29.7290  -19.7250   21.2310 C   0  0  0  0  0  0  0  0  0  0  0  0
  -30.2840  -14.9690   20.2990 C   0  0  0  0  0  0  0  0  0  0  0  0
  -30.1590  -12.7220   19.2900 C   0  0  0  0  0  2  0  0  0  0  0  0
  -29.1930  -12.7500   18.0900 C   0  0  0  0  0  2  0  0  0  0  0  0
  -27.7430  -12.5110   18.5540 C   0  0  0  0  0  2  0  0  0  0  0  0
  -27.3420  -13.4050   19.7580 C   0  0  0  0  0  3  0  0  0  0  0  0
  -28.4220  -13.3670   20.8600 C   0  0  0  0  0  2  0  0  0  0  0  0
  -29.7020  -13.7440   20.2410 N   0  0  0  0  0  0  0  0  0  0  0  0
  -31.3990  -15.2030   19.8190 O   0  0  0  0  0  0  0  0  0  0  0  0
  -29.4990  -15.9740   20.7360 N   0  0  0  0  0  0  0  0  0  0  0  0
  -28.5190  -15.7650   20.8500 H   0  0  0  0  0  0  0  0  0  0  0  0
  -24.9420  -13.8620   20.5630 C   0  0  0  0  0  0  0  0  0  0  0  0
  -23.9320  -13.0220   20.9480 C   0  0  0  0  0  0  0  0  0  0  0  0
  -24.4650  -11.7010   20.8660 C   0  0  0  0  0  0  0  0  0  0  0  0
  -26.0240  -13.0450   20.2770 N   0  0  0  0  0  0  0  0  0  0  0  0
  -25.7450  -11.7400   20.5160 N   0  0  0  0  0  0  0  0  0  0  0  0
  -23.8190  -10.3950   21.0460 C   0  0  0  0  0  0  0  0  0  0  0  0
  -24.2960   -9.4590   21.9910 C   0  0  0  0  0  3  0  0  0  0  0  0
  -23.6470   -8.2170   22.1590 C   0  0  0  0  0  3  0  0  0  0  0  0
  -22.5090   -7.9010   21.3820 C   0  0  0  0  0  0  0  0  0  0  0  0
  -22.0520   -8.8250   20.4260 C   0  0  0  0  0  3  0  0  0  0  0  0
  -22.7000  -10.0590   20.2570 C   0  0  0  0  0  3  0  0  0  0  0  0
  -21.8290   -6.7090   21.4560 O   0  0  0  0  0  0  0  0  0  0  0  0
  -21.7720   -5.9870   22.6210 C   0  0  0  0  0  0  0  0  0  0  0  0
  -21.1920   -6.5120   23.7970 C   0  0  0  0  0  3  0  0  0  0  0  0
  -21.0920   -5.7110   24.9510 C   0  0  0  0  0  3  0  0  0  0  0  0
  -21.5590   -4.3830   24.9310 C   0  0  0  0  0  0  0  0  0  0  0  0
  -22.1320   -3.8570   23.7600 C   0  0  0  0  0  3  0  0  0  0  0  0
  -22.2360   -4.6560   22.6070 C   0  0  0  0  0  0  0  0  0  0  0  0
  -22.7680   -4.1370   21.4760 F   0  0  0  0  0  0  0  0  0  0  0  0
  -21.4560   -3.6110   26.0370 F   0  0  0  0  0  0  0  0  0  0  0  0
  -22.5200  -13.4120   21.2770 C   0  0  0  0  0  0  0  0  0  0  0  0
  -21.8630  -12.6470   22.1430 N   0  0  0  0  0  0  0  0  0  0  0  0
  -22.0100  -14.4270   20.8060 O   0  0  0  0  0  0  0  0  0  0  0  0
  -22.2920  -11.8270   22.5420 H   0  0  0  0  0  0  0  0  0  0  0  0
  -20.9180  -12.8860   22.4080 H   0  0  0  0  0  0  0  0  0  0  0  0
  -25.0270  -15.2440   20.4130 N   0  0  0  0  0  0  0  0  0  0  0  0
  -24.2290  -15.8530   20.5490 H   0  0  0  0  0  0  0  0  0  0  0  0
  -25.8380  -15.7300   20.0490 H   0  0  0  0  0  0  0  0  0  0  0  0
  -31.3370  -21.0660   22.7500 C   0  0  0  0  0  0  0  0  0  0  0  0
  -32.0170  -21.0040   24.1150 C   0  0  0  0  0  1  0  0  0  0  0  0
  -31.2350  -22.1660   22.2020 O   0  0  0  0  0  0  0  0  0  0  0  0
  -29.6320  -22.7400   19.2460 C   0  0  0  0  0  0  0  0  0  0  0  0
  -30.8230  -22.8800   18.9610 O   0  0  0  0  0  0  0  0  0  0  0  0
  -28.7090  -23.9680   19.4420 C   0  0  0  0  0  2  0  0  0  0  0  0
  -29.2720  -24.1100   21.9010 C   0  0  0  0  0  1  0  0  0  0  0  0
  -30.3420  -25.7490   20.3560 C   0  0  0  0  0  1  0  0  0  0  0  0
  -29.0440  -24.9540   20.6180 C   0  0  1  0  0  0  0  0  0  0  0  0
  -27.6570  -26.4630   22.2690 C   0  0  0  0  0  1  0  0  0  0  0  0
  -27.8530  -25.9730   20.8060 C   0  0  0  0  0  3  0  0  0  0  0  0
  -27.9820  -27.1310   19.9350 O   0  0  0  0  0  0  0  0  0  0  0  0
  -24.5020  -32.1920   23.4920 C   0  0  0  0  0  0  0  0  0  0  0  0
  -26.8790  -27.9550   19.9500 C   0  0  0  0  0  0  0  0  0  0  0  0
  -23.1840  -30.9400   21.8110 C   0  0  0  0  0  3  0  0  0  0  0  0
  -24.5300  -29.5000   20.1870 C   0  0  0  0  0  0  0  0  0  0  0  0
  -25.7040  -31.2770   21.5070 C   0  0  0  0  0  2  0  0  0  0  0  0
  -25.7280  -29.9670   20.7430 C   0  0  0  0  0  0  0  0  0  0  0  0
  -26.9120  -29.2050   20.6100 C   0  0  0  0  0  3  0  0  0  0  0  0
  -25.6700  -27.5080   19.3800 C   0  0  0  0  0  3  0  0  0  0  0  0
  -24.4960  -28.2760   19.4960 C   0  0  0  0  0  3  0  0  0  0  0  0
  -23.3030  -30.3610   20.3750 C   0  0  0  0  0  2  0  0  0  0  0  0
  -24.4840  -31.4790   22.3270 N   0  0  0  0  0  0  0  0  0  0  0  0
  -23.4560  -32.4430   24.1050 O   0  0  0  0  0  0  0  0  0  0  0  0
  -22.5610  -29.8600   22.7270 C   0  0  0  0  0  0  0  0  0  0  0  0
  -21.2410  -29.6480   22.5840 N   0  0  0  0  0  0  0  0  0  0  0  0
  -23.2610  -29.2170   23.5120 O   0  0  0  0  0  0  0  0  0  0  0  0
  -20.7390  -30.2320   21.9300 H   0  0  0  0  0  0  0  0  0  0  0  0
  -17.9130  -28.2830   22.9390 C   0  0  0  0  0  0  0  0  0  0  0  0
  -20.4460  -28.6500   23.3020 C   0  0  0  0  0  3  0  0  0  0  0  0
  -20.6330  -27.2420   22.6920 C   0  0  0  0  0  2  0  0  0  0  0  0
  -19.5780  -26.8940   21.6380 C   0  0  0  0  0  2  0  0  0  0  0  0
  -18.1720  -26.9600   22.2410 C   0  0  0  0  0  2  0  0  0  0  0  0
  -18.9810  -29.0850   23.4220 C   0  0  0  0  0  0  0  0  0  0  0  0
  -18.6870  -30.3230   24.0310 C   0  0  0  0  0  3  0  0  0  0  0  0
  -17.3560  -30.7590   24.1690 C   0  0  0  0  0  3  0  0  0  0  0  0
  -16.3010  -29.9520   23.7070 C   0  0  0  0  0  3  0  0  0  0  0  0
  -16.5820  -28.7180   23.0940 C   0  0  0  0  0  3  0  0  0  0  0  0
  -25.8300  -32.7490   24.0890 C   0  0  0  0  0  3  0  0  0  0  0  0
  -25.6070  -34.1640   24.4180 N   0  0  0  0  0  0  0  0  0  0  0  0
  -26.0130  -35.1940   23.6650 C   0  0  0  0  0  0  0  0  0  0  0  0
  -26.6850  -35.0530   22.6390 O   0  0  0  0  0  0  0  0  0  0  0  0
  -25.0170  -34.3540   25.2150 H   0  0  0  0  0  0  0  0  0  0  0  0
  -24.4130  -37.0960   23.2920 C   0  0  0  0  0  1  0  0  0  0  0  0
  -25.6100  -36.6090   24.1220 C   0  0  0  0  0  3  0  0  0  0  0  0
  -27.7760  -37.3570   25.0000 C   0  0  0  0  0  1  0  0  0  0  0  0
  -26.7100  -37.5930   24.0310 N   0  0  0  0  0  0  0  0  0  0  0  0
  -26.3630  -38.5380   24.1640 H   0  0  0  0  0  0  0  0  0  0  0  0
  -26.3240  -31.9500   25.3580 C   0  0  1  0  0  0  0  0  0  0  0  0
  -25.2340  -31.7620   26.4380 C   0  0  0  0  0  1  0  0  0  0  0  0
  -26.8350  -30.5490   24.9510 C   0  0  0  0  0  1  0  0  0  0  0  0
  -27.5240  -32.6850   26.0050 C   0  0  0  0  0  1  0  0  0  0  0  0
  1  2  1  0
  2  9  1  0
  2  3  1  0
  5  4  2  0
  6  8  2  0
  6  9  1  0
  7  4  1  0
  7 48  1  0
  8  5  1  0
  9  7  2  0
 10 18  1  0
 11 16  1  0
 12 13  1  0
 12 11  1  0
 14 13  1  0
 14 23  1  0
 14 15  1  0
 16 10  1  0
 16 15  1  0
 17 10  2  0
 18 19  1  0
 18  8  1  0
 20 21  2  0
 21 40  1  0
 22 21  1  0
 22 25  1  0
 23 24  1  0
 23 20  1  0
 24 22  2  0
 25 26  1  0
 26 27  2  0
 28 31  1  0
 28 27  1  0
 29 28  2  0
 30 29  1  0
 30 25  2  0
 31 32  1  0
 32 33  1  0
 33 34  2  0
 35 34  1  0
 35 39  1  0
 36 35  2  0
 37 32  2  0
 37 36  1  0
 38 37  1  0
 40 41  1  0
 41 44  1  0
 41 43  1  0
 42 40  2  0
 45 46  1  0
 45 20  1  0
 47 45  1  0
 48 49  1  0
 50 48  2  0
 51  1  1  0
 51 53  1  0
 52 51  2  0
 53 56  1  0
 56 55  1  6
 56 58  1  0
 56 54  1  0
 58 57  1  0
 59 61  1  0
 59 58  1  0
 60 71  2  0
 61 66  1  0
 62 70  1  0
 62 72  1  0
 63 69  1  0
 63 65  1  0
 64 70  1  0
 65 64  1  0
 66 65  2  0
 67 68  1  0
 67 61  2  0
 68 63  2  0
 69 62  1  0
 70 60  1  0
 72 74  2  0
 73 72  1  0
 75 73  1  0
 76 85  2  0
 76 81  1  0
 77 73  1  0
 77 81  1  0
 78 77  1  0
 79 80  1  0
 79 78  1  0
 80 76  1  0
 81 82  2  0
 82 83  1  0
 84 83  2  0
 85 84  1  0
 86 60  1  0
 86 87  1  0
 86 96  1  0
 87 90  1  0
 88 92  1  0
 88 87  1  0
 89 88  2  0
 92 91  1  0
 94 92  1  0
 94 95  1  0
 94 93  1  0
 96 99  1  1
 96 97  1  0
 98 96  1  0
M  ISO  4  10 100  18 100  58 101  59 101
M  END
>  <TORSDO>  (31) 
F 23

>  <SCORE>  (31) 
-12.431

>  <name>  (31) 
30

>  <ligand_id>  (31) 
30

>  <original_smiles>  (31) 
[H]c1c([H])c([H])c2c(c1[H])C([H])([H])C([H])([H])C([H])([H])C2([H])N([H])C(=O)C1([H])N(C(=O)C([H])(N([H])C(=O)C([H])(N([H])C([H])([H])[H])C([H])([H])[H])C(C([H])([H])[H])(C([H])([H])[H])C([H])([H])[H])C([H])([H])c2c([H])c(OC([H])(C([H])([H])[H])C(C([H])([H])[H])(C([H])([H])[H])C([H])([H])C(=O)C([H])([H])N([H])c3c([H])c(N([H])C(=O)N4C([H])([H])C([H])([H])C([H])([H])C([H])(n5nc(-c6c([H])c([H])c(Oc7c([H])c([H])c(F)c([H])c7F)c([H])c6[H])c(C(=O)N([H])[H])c5N([H])[H])C4([H])[H])c([H])c([H])c3C(=O)C([H])([H])[H])c([H])c([H])c2C1([H])[H]

>  <smiles>  (31) 
[H]c1c([H])c([H])c2c(c1[H])C([H])([H])C([H])([H])C([H])([H])C2([H])N([H])C(=O)C1([H])N(C(=O)C([H])(N([H])C(=O)C([H])(N([H])C([H])([H])[H])C([H])([H])[H])C(C([H])([H])[H])(C([H])([H])[H])C([H])([H])[H])C([H])([H])c2c([H])c(OC([H])(C([H])([H])[H])C(C([H])([H])[H])(C([H])([H])[H])C([H])([H])C(=O)C([H])([H])N([H])c3c([H])c(N([H])C(=O)N4C([H])([H])C([H])([H])C([H])([H])C([H])(n5nc(-c6c([H])c([H])c(Oc7c([H])c([H])c(F)c([H])c7F)c([H])c6[H])c(C(=O)N([H])[H])c5N([H])[H])C4([H])[H])c([H])c([H])c3C(=O)C([H])([H])[H])c([H])c([H])c2C1([H])[H]

$$$$
31:0:0
     RDKit          3D

 97106  0  0  1  0  0  0  0  0999 V2000
  -28.6680  -20.7950   21.2400 C   0  0  0  0  0  2  0  0  0  0  0  0
  -28.4180  -24.3450   20.1950 C   0  0  0  0  0  3  0  0  0  0  0  0
  -28.7450  -25.5580   19.6430 C   0  0  0  0  0  2  0  0  0  0  0  0
  -27.4170  -24.0510   21.2720 C   0  0  0  0  0  2  0  0  0  0  0  0
  -29.0620  -22.9830   19.8590 C   0  0  0  0  0  2  0  0  0  0  0  0
  -26.9780  -22.6080   20.9360 C   0  0  0  0  0  2  0  0  0  0  0  0
  -28.1400  -21.8940   20.3350 N   0  0  2  0  0  4  0  0  0  0  0  0
  -27.7910  -21.4180   19.5180 H   0  0  0  0  0  0  0  0  0  0  0  0
  -28.5060  -26.8380   20.1490 O   0  0  0  0  0  0  0  0  0  0  0  0
  -24.6610  -31.9710   23.2680 C   0  0  0  0  0  0  0  0  0  0  0  0
  -27.3200  -27.5610   20.0880 C   0  0  0  0  0  0  0  0  0  0  0  0
  -23.4620  -30.5940   21.6000 C   0  0  0  0  0  3  0  0  0  0  0  0
  -24.9180  -29.0890   20.1290 C   0  0  0  0  0  0  0  0  0  0  0  0
  -25.9840  -30.9690   21.3930 C   0  0  0  0  0  2  0  0  0  0  0  0
  -26.0740  -29.6030   20.7260 C   0  0  0  0  0  0  0  0  0  0  0  0
  -27.2730  -28.8440   20.6990 C   0  0  0  0  0  3  0  0  0  0  0  0
  -26.1480  -27.0760   19.4710 C   0  0  0  0  0  3  0  0  0  0  0  0
  -24.9530  -27.8310   19.4970 C   0  0  0  0  0  3  0  0  0  0  0  0
  -23.6690  -29.9450   20.2030 C   0  0  0  0  0  2  0  0  0  0  0  0
  -24.7220  -31.1960   22.1450 N   0  0  0  0  0  0  0  0  0  0  0  0
  -23.5790  -32.2180   23.8200 O   0  0  0  0  0  0  0  0  0  0  0  0
  -22.8230  -29.5470   22.5440 C   0  0  0  0  0  0  0  0  0  0  0  0
  -21.5000  -29.3500   22.4160 N   0  0  0  0  0  0  0  0  0  0  0  0
  -23.5150  -28.9180   23.3500 O   0  0  0  0  0  0  0  0  0  0  0  0
  -21.0010  -29.9160   21.7420 H   0  0  0  0  0  0  0  0  0  0  0  0
  -18.1440  -28.0960   22.9000 C   0  0  0  0  0  0  0  0  0  0  0  0
  -20.6980  -28.3850   23.1680 C   0  0  0  0  0  3  0  0  0  0  0  0
  -20.8180  -26.9680   22.5610 C   0  0  0  0  0  2  0  0  0  0  0  0
  -19.7160  -26.6500   21.5440 C   0  0  0  0  0  2  0  0  0  0  0  0
  -18.3350  -26.7650   22.1930 C   0  0  0  0  0  2  0  0  0  0  0  0
  -19.2530  -28.8630   23.3440 C   0  0  0  0  0  0  0  0  0  0  0  0
  -19.0160  -30.1080   23.9670 C   0  0  0  0  0  3  0  0  0  0  0  0
  -17.7060  -30.5880   24.1460 C   0  0  0  0  0  3  0  0  0  0  0  0
  -16.6110  -29.8180   23.7140 C   0  0  0  0  0  3  0  0  0  0  0  0
  -16.8300  -28.5730   23.1000 C   0  0  0  0  0  3  0  0  0  0  0  0
  -25.9390  -32.6060   23.8980 C   0  0  0  0  0  3  0  0  0  0  0  0
  -26.4470  -31.8360   25.1790 C   0  0  1  0  0  0  0  0  0  0  0  0
  -25.3470  -31.5880   26.2380 C   0  0  0  0  0  1  0  0  0  0  0  0
  -27.0430  -30.4650   24.7870 C   0  0  0  0  0  1  0  0  0  0  0  0
  -27.5890  -32.6350   25.8540 C   0  0  0  0  0  1  0  0  0  0  0  0
  -25.6250  -34.0030   24.2280 N   0  0  0  0  0  0  0  0  0  0  0  0
  -25.9480  -35.0550   23.4630 C   0  0  0  0  0  0  0  0  0  0  0  0
  -26.6110  -34.9510   22.4270 O   0  0  0  0  0  0  0  0  0  0  0  0
  -25.0390  -34.1560   25.0360 H   0  0  0  0  0  0  0  0  0  0  0  0
  -24.2190  -36.8470   23.1030 C   0  0  0  0  0  1  0  0  0  0  0  0
  -25.4580  -36.4420   23.9200 C   0  0  0  0  0  3  0  0  0  0  0  0
  -27.5800  -37.3370   24.7740 C   0  0  0  0  0  1  0  0  0  0  0  0
  -26.4910  -37.4960   23.8130 N   0  0  0  0  0  0  0  0  0  0  0  0
  -26.0810  -38.4150   23.9510 H   0  0  0  0  0  0  0  0  0  0  0  0
  -31.0080  -20.1300   20.4560 C   0  0  0  0  0  3  0  0  0  0  0  0
  -29.4000  -18.3160   20.7220 C   0  0  0  0  0  3  0  0  0  0  0  0
  -31.7100  -17.8090   20.1710 C   0  0  0  0  0  3  0  0  0  0  0  0
  -29.6840  -19.7270   20.7310 C   0  0  0  0  0  0  0  0  0  0  0  0
  -32.0130  -19.1850   20.1700 C   0  0  0  0  0  0  0  0  0  0  0  0
  -30.4080  -17.3250   20.4580 C   0  0  0  0  0  0  0  0  0  0  0  0
  -30.8330  -14.8030   20.1400 C   0  0  0  0  0  0  0  0  0  0  0  0
  -30.5290  -12.6040   19.0450 C   0  0  0  0  0  2  0  0  0  0  0  0
  -29.5430  -12.7730   17.8700 C   0  0  0  0  0  2  0  0  0  0  0  0
  -28.0910  -12.6060   18.3580 C   0  0  0  0  0  2  0  0  0  0  0  0
  -27.7850  -13.4440   19.6280 C   0  0  0  0  0  3  0  0  0  0  0  0
  -28.8880  -13.2800   20.6980 C   0  0  0  0  0  2  0  0  0  0  0  0
  -30.1730  -13.6080   20.0660 N   0  0  0  0  0  0  0  0  0  0  0  0
  -31.9820  -14.9060   19.7090 O   0  0  0  0  0  0  0  0  0  0  0  0
  -30.0980  -15.8960   20.5220 N   0  0  0  0  0  0  0  0  0  0  0  0
  -29.1670  -15.6650   20.8350 H   0  0  0  0  0  0  0  0  0  0  0  0
  -25.4260  -14.0140   20.4670 C   0  0  0  0  0  0  0  0  0  0  0  0
  -24.3810  -13.2270   20.8680 C   0  0  0  0  0  0  0  0  0  0  0  0
  -24.8470  -11.8790   20.7820 C   0  0  0  0  0  0  0  0  0  0  0  0
  -26.4610  -13.1450   20.1650 N   0  0  0  0  0  0  0  0  0  0  0  0
  -26.1220  -11.8540   20.4150 N   0  0  0  0  0  0  0  0  0  0  0  0
  -24.1360  -10.6080   20.9740 C   0  0  0  0  0  0  0  0  0  0  0  0
  -24.5760   -9.6480   21.9130 C   0  0  0  0  0  3  0  0  0  0  0  0
  -23.8630   -8.4420   22.0900 C   0  0  0  0  0  3  0  0  0  0  0  0
  -22.6950   -8.1900   21.3300 C   0  0  0  0  0  0  0  0  0  0  0  0
  -22.2770   -9.1390   20.3810 C   0  0  0  0  0  3  0  0  0  0  0  0
  -22.9910  -10.3350   20.2010 C   0  0  0  0  0  3  0  0  0  0  0  0
  -21.9530   -7.0360   21.4180 O   0  0  0  0  0  0  0  0  0  0  0  0
  -21.8650   -6.3250   22.5890 C   0  0  0  0  0  0  0  0  0  0  0  0
  -21.3040   -6.8830   23.7590 C   0  0  0  0  0  3  0  0  0  0  0  0
  -21.1670   -6.0930   24.9180 C   0  0  0  0  0  3  0  0  0  0  0  0
  -21.5810   -4.7480   24.9090 C   0  0  0  0  0  0  0  0  0  0  0  0
  -22.1330   -4.1890   23.7420 C   0  0  0  0  0  3  0  0  0  0  0  0
  -22.2710   -4.9740   22.5840 C   0  0  0  0  0  0  0  0  0  0  0  0
  -22.7850   -4.4250   21.4580 F   0  0  0  0  0  0  0  0  0  0  0  0
  -21.4420   -3.9880   26.0200 F   0  0  0  0  0  0  0  0  0  0  0  0
  -22.9950  -13.6900   21.2140 C   0  0  0  0  0  0  0  0  0  0  0  0
  -22.3010  -12.9600   22.0810 N   0  0  0  0  0  0  0  0  0  0  0  0
  -22.5350  -14.7330   20.7500 O   0  0  0  0  0  0  0  0  0  0  0  0
  -22.6840  -12.1150   22.4760 H   0  0  0  0  0  0  0  0  0  0  0  0
  -21.3730  -13.2500   22.3500 H   0  0  0  0  0  0  0  0  0  0  0  0
  -25.5780  -15.3890   20.3120 N   0  0  0  0  0  0  0  0  0  0  0  0
  -24.8070  -16.0340   20.4470 H   0  0  0  0  0  0  0  0  0  0  0  0
  -26.3990  -15.8320   19.9200 H   0  0  0  0  0  0  0  0  0  0  0  0
  -33.4440  -19.6280   19.8830 C   0  0  1  0  0  0  0  0  0  0  0  0
  -33.6490  -20.9070   20.2050 F   0  0  0  0  0  0  0  0  0  0  0  0
  -34.3030  -18.8820   20.5790 F   0  0  0  0  0  0  0  0  0  0  0  0
  -33.7000  -19.4730   18.5840 F   0  0  0  0  0  0  0  0  0  0  0  0
  2  3  1  0
  2  4  1  0
  3  9  1  0
  5  2  1  0
  5  7  1  0
  6  4  1  0
  7  6  1  0
  7  1  1  0
  7  8  1  6
 10 21  2  0
 11  9  1  0
 11 16  1  0
 12 20  1  0
 12 22  1  0
 13 19  1  0
 13 15  1  0
 14 20  1  0
 15 14  1  0
 16 15  2  0
 17 18  1  0
 17 11  2  0
 18 13  2  0
 19 12  1  0
 20 10  1  0
 22 24  2  0
 23 22  1  0
 25 23  1  0
 26 35  2  0
 26 31  1  0
 27 23  1  0
 27 31  1  0
 28 27  1  0
 29 30  1  0
 29 28  1  0
 30 26  1  0
 31 32  2  0
 32 33  1  0
 34 33  2  0
 35 34  1  0
 36 10  1  0
 36 41  1  0
 36 37  1  0
 37 40  1  1
 37 38  1  0
 39 37  1  0
 41 44  1  0
 42 46  1  0
 42 41  1  0
 43 42  2  0
 46 45  1  0
 48 46  1  0
 48 49  1  0
 48 47  1  0
 50 53  1  0
 51 53  2  0
 52 55  2  0
 53  1  1  0
 54 52  1  0
 54 50  2  0
 55 64  1  0
 55 51  1  0
 56 64  1  0
 57 62  1  0
 58 59  1  0
 58 57  1  0
 60 59  1  0
 60 69  1  0
 60 61  1  0
 62 56  1  0
 62 61  1  0
 63 56  2  0
 64 65  1  0
 66 67  2  0
 67 86  1  0
 68 67  1  0
 68 71  1  0
 69 70  1  0
 69 66  1  0
 70 68  2  0
 71 72  1  0
 72 73  2  0
 74 77  1  0
 74 73  1  0
 75 74  2  0
 76 75  1  0
 76 71  2  0
 77 78  1  0
 78 79  1  0
 79 80  2  0
 81 80  1  0
 81 85  1  0
 82 81  2  0
 83 78  2  0
 83 82  1  0
 84 83  1  0
 86 87  1  0
 87 90  1  0
 87 89  1  0
 88 86  2  0
 91 92  1  0
 91 66  1  0
 93 91  1  0
 94 54  1  0
 94 95  1  1
 94 96  1  0
 97 94  1  0
M  ISO  4   3 101   9 101  56 100  64 100
M  END
>  <TORSDO>  (32) 
F 19

>  <SCORE>  (32) 
-14.292

>  <name>  (32) 
31

>  <ligand_id>  (32) 
31

>  <original_smiles>  (32) 
[H]C(Oc1c([H])c([H])c2c(c1[H])C([H])([H])N(C(=O)C([H])(N([H])C(=O)C([H])(N([H])C([H])([H])[H])C([H])([H])[H])C(C([H])([H])[H])(C([H])([H])[H])C([H])([H])[H])C([H])(C(=O)N([H])C1([H])c3c([H])c([H])c([H])c([H])c3C([H])([H])C([H])([H])C1([H])[H])C2([H])[H])=C1C([H])([H])C([H])([H])[N+]([H])(C([H])([H])c2c([H])c(N([H])C(=O)N3C([H])([H])C([H])([H])C([H])([H])C([H])(n4nc(-c5c([H])c([H])c(Oc6c([H])c([H])c(F)c([H])c6F)c([H])c5[H])c(C(=O)N([H])[H])c4N([H])[H])C3([H])[H])c([H])c(C(F)(F)F)c2[H])C1([H])[H]

>  <smiles>  (32) 
[H]C(Oc1c([H])c([H])c2c(c1[H])C([H])([H])N(C(=O)C([H])(N([H])C(=O)C([H])(N([H])C([H])([H])[H])C([H])([H])[H])C(C([H])([H])[H])(C([H])([H])[H])C([H])([H])[H])C([H])(C(=O)N([H])C1([H])c3c([H])c([H])c([H])c([H])c3C([H])([H])C([H])([H])C1([H])[H])C2([H])[H])=C1C([H])([H])C([H])([H])[N+]([H])(C([H])([H])c2c([H])c(N([H])C(=O)N3C([H])([H])C([H])([H])C([H])([H])C([H])(n4nc(-c5c([H])c([H])c(Oc6c([H])c([H])c(F)c([H])c6F)c([H])c5[H])c(C(=O)N([H])[H])c4N([H])[H])C3([H])[H])c([H])c(C(F)(F)F)c2[H])C1([H])[H]

$$$$
32:0:0
     RDKit          3D

 97105  0  0  1  0  0  0  0  0999 V2000
  -29.3670  -20.7730   21.4430 C   0  0  0  0  0  2  0  0  0  0  0  0
  -29.6280  -22.2700   21.6650 C   0  0  0  0  0  0  0  0  0  0  0  0
  -30.3370  -22.6320   22.6100 O   0  0  0  0  0  0  0  0  0  0  0  0
  -29.0080  -23.2570   20.6610 C   0  0  0  0  0  2  0  0  0  0  0  0
  -30.5100  -25.2960   21.1310 C   0  0  0  0  0  1  0  0  0  0  0  0
  -28.2390  -25.1020   22.2570 C   0  0  0  0  0  1  0  0  0  0  0  0
  -29.0570  -24.7870   20.9810 C   0  0  2  0  0  0  0  0  0  0  0  0
  -28.4020  -25.5230   19.7850 C   0  0  0  0  0  2  0  0  0  0  0  0
  -28.3590  -26.9420   20.0000 O   0  0  0  0  0  0  0  0  0  0  0  0
  -24.5250  -31.9860   23.2180 C   0  0  0  0  0  0  0  0  0  0  0  0
  -27.1540  -27.6130   20.0210 C   0  0  0  0  0  0  0  0  0  0  0  0
  -23.3080  -30.6060   21.5650 C   0  0  0  0  0  3  0  0  0  0  0  0
  -24.7510  -29.1050   20.0960 C   0  0  0  0  0  0  0  0  0  0  0  0
  -25.8300  -30.9790   21.3490 C   0  0  0  0  0  2  0  0  0  0  0  0
  -25.9120  -29.6210   20.6840 C   0  0  0  0  0  0  0  0  0  0  0  0
  -27.1130  -28.8800   20.6470 C   0  0  0  0  0  3  0  0  0  0  0  0
  -25.9730  -27.1190   19.4170 C   0  0  0  0  0  3  0  0  0  0  0  0
  -24.7740  -27.8520   19.4640 C   0  0  0  0  0  3  0  0  0  0  0  0
  -23.5050  -29.9570   20.1710 C   0  0  0  0  0  2  0  0  0  0  0  0
  -24.5730  -31.2050   22.1020 N   0  0  0  0  0  0  0  0  0  0  0  0
  -23.4480  -32.2450   23.7710 O   0  0  0  0  0  0  0  0  0  0  0  0
  -22.6750  -29.5610   22.5110 C   0  0  0  0  0  0  0  0  0  0  0  0
  -21.3590  -29.3360   22.3580 N   0  0  0  0  0  0  0  0  0  0  0  0
  -23.3650  -28.9560   23.3370 O   0  0  0  0  0  0  0  0  0  0  0  0
  -20.8650  -29.8800   21.6640 H   0  0  0  0  0  0  0  0  0  0  0  0
  -18.0260  -28.0000   22.7490 C   0  0  0  0  0  0  0  0  0  0  0  0
  -20.5560  -28.3720   23.1100 C   0  0  0  0  0  3  0  0  0  0  0  0
  -20.7440  -26.9400   22.5580 C   0  0  0  0  0  2  0  0  0  0  0  0
  -19.6940  -26.5570   21.5080 C   0  0  0  0  0  2  0  0  0  0  0  0
  -18.2850  -26.6510   22.1000 C   0  0  0  0  0  2  0  0  0  0  0  0
  -19.0940  -28.8160   23.2080 C   0  0  0  0  0  0  0  0  0  0  0  0
  -18.8000  -30.0770   23.7700 C   0  0  0  0  0  3  0  0  0  0  0  0
  -17.4710  -30.5250   23.8790 C   0  0  0  0  0  3  0  0  0  0  0  0
  -16.4160  -29.7070   23.4380 C   0  0  0  0  0  3  0  0  0  0  0  0
  -16.6940  -28.4470   22.8780 C   0  0  0  0  0  3  0  0  0  0  0  0
  -25.8160  -32.6110   23.8340 C   0  0  0  0  0  3  0  0  0  0  0  0
  -25.5110  -34.0080   24.1690 N   0  0  0  0  0  0  0  0  0  0  0  0
  -25.8460  -35.0590   23.4080 C   0  0  0  0  0  0  0  0  0  0  0  0
  -26.5150  -34.9550   22.3750 O   0  0  0  0  0  0  0  0  0  0  0  0
  -24.9150  -34.1660   24.9680 H   0  0  0  0  0  0  0  0  0  0  0  0
  -24.1200  -36.8520   23.0590 C   0  0  0  0  0  1  0  0  0  0  0  0
  -25.3630  -36.4470   23.8660 C   0  0  0  0  0  3  0  0  0  0  0  0
  -27.5030  -37.3260   24.6880 C   0  0  0  0  0  1  0  0  0  0  0  0
  -26.3990  -37.4970   23.7470 N   0  0  0  0  0  0  0  0  0  0  0  0
  -25.9960  -38.4180   23.8990 H   0  0  0  0  0  0  0  0  0  0  0  0
  -26.3370  -31.8330   25.1040 C   0  0  1  0  0  0  0  0  0  0  0  0
  -25.2430  -31.5790   26.1680 C   0  0  0  0  0  1  0  0  0  0  0  0
  -26.9320  -30.4640   24.7000 C   0  0  0  0  0  1  0  0  0  0  0  0
  -27.4820  -32.6310   25.7720 C   0  0  0  0  0  1  0  0  0  0  0  0
  -30.3430  -19.9750   22.1790 N   0  0  0  0  0  0  0  0  0  0  0  0
  -31.0950  -20.6060   22.4630 H   0  0  0  0  0  0  0  0  0  0  0  0
  -32.0260  -17.1870   20.6980 C   0  0  0  0  0  3  0  0  0  0  0  0
  -32.0650  -18.5560   21.0840 C   0  0  0  0  0  0  0  0  0  0  0  0
  -30.7590  -16.7400   20.9680 C   0  0  0  0  0  0  0  0  0  0  0  0
  -30.8110  -18.8020   21.5970 C   0  0  0  0  0  0  0  0  0  0  0  0
  -29.9920  -17.7140   21.5340 O   0  0  0  0  0  0  0  0  0  0  0  0
  -30.8330  -14.5230   19.9980 C   0  0  0  0  0  0  0  0  0  0  0  0
  -30.4440  -12.3390   18.9260 C   0  0  0  0  0  2  0  0  0  0  0  0
  -29.4370  -12.4950   17.7710 C   0  0  0  0  0  2  0  0  0  0  0  0
  -27.9930  -12.3730   18.2910 C   0  0  0  0  0  2  0  0  0  0  0  0
  -27.7250  -13.2690   19.5300 C   0  0  0  0  0  3  0  0  0  0  0  0
  -28.8380  -13.0910   20.5860 C   0  0  0  0  0  2  0  0  0  0  0  0
  -30.1320  -13.3620   19.9360 N   0  0  0  0  0  0  0  0  0  0  0  0
  -31.8640  -14.7110   19.3450 O   0  0  0  0  0  0  0  0  0  0  0  0
  -30.2860  -15.4830   20.7650 N   0  0  0  0  0  0  0  0  0  0  0  0
  -29.3850  -15.2660   21.1630 H   0  0  0  0  0  0  0  0  0  0  0  0
  -25.3980  -13.9100   20.4270 C   0  0  0  0  0  0  0  0  0  0  0  0
  -24.3400  -13.1500   20.8470 C   0  0  0  0  0  0  0  0  0  0  0  0
  -24.7640  -11.7900   20.7410 C   0  0  0  0  0  0  0  0  0  0  0  0
  -26.4020  -13.0130   20.0960 N   0  0  0  0  0  0  0  0  0  0  0  0
  -26.0270  -11.7320   20.3390 N   0  0  0  0  0  0  0  0  0  0  0  0
  -24.0230  -10.5390   20.9430 C   0  0  0  0  0  0  0  0  0  0  0  0
  -24.4680   -9.5550   21.8550 C   0  0  0  0  0  3  0  0  0  0  0  0
  -23.7280   -8.3680   22.0440 C   0  0  0  0  0  3  0  0  0  0  0  0
  -22.5290   -8.1560   21.3230 C   0  0  0  0  0  0  0  0  0  0  0  0
  -22.1040   -9.1270   20.4000 C   0  0  0  0  0  3  0  0  0  0  0  0
  -22.8440  -10.3060   20.2080 C   0  0  0  0  0  3  0  0  0  0  0  0
  -21.7590   -7.0230   21.4220 O   0  0  0  0  0  0  0  0  0  0  0  0
  -21.6850   -6.3040   22.5890 C   0  0  0  0  0  0  0  0  0  0  0  0
  -21.2490   -6.8890   23.7980 C   0  0  0  0  0  3  0  0  0  0  0  0
  -21.1210   -6.0970   24.9570 C   0  0  0  0  0  3  0  0  0  0  0  0
  -21.4180   -4.7230   24.9080 C   0  0  0  0  0  0  0  0  0  0  0  0
  -21.8480   -4.1380   23.7030 C   0  0  0  0  0  3  0  0  0  0  0  0
  -21.9770   -4.9260   22.5460 C   0  0  0  0  0  0  0  0  0  0  0  0
  -22.3700   -4.3530   21.3830 F   0  0  0  0  0  0  0  0  0  0  0  0
  -21.2890   -3.9600   26.0180 F   0  0  0  0  0  0  0  0  0  0  0  0
  -22.9780  -13.6480   21.2370 C   0  0  0  0  0  0  0  0  0  0  0  0
  -22.3030  -12.9430   22.1370 N   0  0  0  0  0  0  0  0  0  0  0  0
  -22.5250  -14.6970   20.7780 O   0  0  0  0  0  0  0  0  0  0  0  0
  -22.6820  -12.0930   22.5250 H   0  0  0  0  0  0  0  0  0  0  0  0
  -21.3930  -13.2580   22.4430 H   0  0  0  0  0  0  0  0  0  0  0  0
  -25.5840  -15.2820   20.2790 N   0  0  0  0  0  0  0  0  0  0  0  0
  -24.8430  -15.9500   20.4600 H   0  0  0  0  0  0  0  0  0  0  0  0
  -26.4230  -15.7110   19.9070 H   0  0  0  0  0  0  0  0  0  0  0  0
  -33.1900  -19.5150   20.9620 C   0  0  0  0  0  0  0  0  0  0  0  0
  -34.4200  -19.0140   20.2150 C   0  0  0  0  0  1  0  0  0  0  0  0
  -33.1650  -20.6630   21.4140 O   0  0  0  0  0  0  0  0  0  0  0  0
  1  2  1  0
  1 50  1  0
  2  3  2  0
  4  7  1  0
  4  2  1  0
  7  5  1  1
  7  6  1  0
  8  9  1  0
  8  7  1  0
  9 11  1  0
 10 21  2  0
 11 16  1  0
 12 20  1  0
 12 22  1  0
 13 19  1  0
 13 15  1  0
 14 20  1  0
 15 14  1  0
 16 15  2  0
 17 18  1  0
 17 11  2  0
 18 13  2  0
 19 12  1  0
 20 10  1  0
 22 24  2  0
 23 22  1  0
 25 23  1  0
 26 35  2  0
 26 31  1  0
 27 23  1  0
 27 31  1  0
 28 27  1  0
 29 30  1  0
 29 28  1  0
 30 26  1  0
 31 32  2  0
 32 33  1  0
 34 33  2  0
 35 34  1  0
 36 10  1  0
 36 37  1  0
 36 46  1  0
 37 40  1  0
 38 42  1  0
 38 37  1  0
 39 38  2  0
 42 41  1  0
 44 42  1  0
 44 45  1  0
 44 43  1  0
 46 49  1  1
 46 47  1  0
 48 46  1  0
 50 51  1  0
 52 54  2  0
 52 53  1  0
 53 55  2  0
 54 56  1  0
 55 50  1  0
 56 55  1  0
 57 65  1  0
 58 63  1  0
 59 60  1  0
 59 58  1  0
 61 60  1  0
 61 70  1  0
 61 62  1  0
 63 57  1  0
 63 62  1  0
 64 57  2  0
 65 54  1  0
 65 66  1  0
 67 68  2  0
 68 87  1  0
 69 68  1  0
 69 72  1  0
 70 71  1  0
 70 67  1  0
 71 69  2  0
 72 73  1  0
 73 74  2  0
 75 78  1  0
 75 74  1  0
 76 75  2  0
 77 76  1  0
 77 72  2  0
 78 79  1  0
 79 80  1  0
 80 81  2  0
 82 81  1  0
 82 86  1  0
 83 82  2  0
 84 79  2  0
 84 83  1  0
 85 84  1  0
 87 88  1  0
 88 91  1  0
 88 90  1  0
 89 87  2  0
 92 67  1  0
 92 93  1  0
 94 92  1  0
 95 53  1  0
 95 97  2  0
 96 95  1  0
M  ISO  4   8 101   9 101  57 100  65 100
M  END
>  <TORSDO>  (33) 
F 23

>  <SCORE>  (33) 
-13.184

>  <name>  (33) 
32

>  <ligand_id>  (33) 
32

>  <original_smiles>  (33) 
[H]c1c([H])c([H])c2c(c1[H])C([H])([H])C([H])([H])C([H])([H])C2([H])N([H])C(=O)C1([H])N(C(=O)C([H])(N([H])C(=O)C([H])(N([H])C([H])([H])[H])C([H])([H])[H])C(C([H])([H])[H])(C([H])([H])[H])C([H])([H])[H])C([H])([H])c2c([H])c(OC([H])([H])C(C([H])([H])[H])(C([H])([H])[H])C([H])([H])C(=O)C([H])([H])N([H])c3oc(N([H])C(=O)N4C([H])([H])C([H])([H])C([H])([H])C([H])(n5nc(-c6c([H])c([H])c(Oc7c([H])c([H])c(F)c([H])c7F)c([H])c6[H])c(C(=O)N([H])[H])c5N([H])[H])C4([H])[H])c([H])c3C(=O)C([H])([H])[H])c([H])c([H])c2C1([H])[H]

>  <smiles>  (33) 
[H]c1c([H])c([H])c2c(c1[H])C([H])([H])C([H])([H])C([H])([H])C2([H])N([H])C(=O)C1([H])N(C(=O)C([H])(N([H])C(=O)C([H])(N([H])C([H])([H])[H])C([H])([H])[H])C(C([H])([H])[H])(C([H])([H])[H])C([H])([H])[H])C([H])([H])c2c([H])c(OC([H])([H])C(C([H])([H])[H])(C([H])([H])[H])C([H])([H])C(=O)C([H])([H])N([H])c3oc(N([H])C(=O)N4C([H])([H])C([H])([H])C([H])([H])C([H])(n5nc(-c6c([H])c([H])c(Oc7c([H])c([H])c(F)c([H])c7F)c([H])c6[H])c(C(=O)N([H])[H])c5N([H])[H])C4([H])[H])c([H])c3C(=O)C([H])([H])[H])c([H])c([H])c2C1([H])[H]

$$$$
33:0:0
     RDKit          3D

105114  0  0  1  0  0  0  0  0999 V2000
  -28.9380  -20.6660   20.7710 C   0  0  0  0  0  3  0  0  0  0  0  0
  -30.1820  -22.7260   23.4700 C   0  0  0  0  0  2  0  0  0  0  0  0
  -28.8610  -23.4500   23.1710 C   0  0  0  0  0  2  0  0  0  0  0  0
  -30.5160  -21.9550   22.1960 C   0  0  0  0  0  2  0  0  0  0  0  0
  -28.4490  -23.0980   21.7130 C   0  0  2  0  0  0  0  0  0  0  0  0
  -26.9070  -22.9230   21.6860 C   0  0  0  0  0  1  0  0  0  0  0  0
  -29.2280  -21.8110   21.4800 N   0  0  0  0  0  0  0  0  0  0  0  0
  -27.7450  -20.5260   20.2000 N   0  0  0  0  0  0  0  0  0  0  0  0
  -27.5790  -19.7360   19.5960 H   0  0  0  0  0  0  0  0  0  0  0  0
  -27.0100  -21.1970   20.3400 H   0  0  0  0  0  0  0  0  0  0  0  0
  -31.1770  -19.8450   20.0690 C   0  0  0  0  0  3  0  0  0  0  0  0
  -29.5530  -18.1660   20.7910 C   0  0  0  0  0  3  0  0  0  0  0  0
  -31.7940  -17.4880   20.1340 C   0  0  0  0  0  3  0  0  0  0  0  0
  -29.8950  -19.5400   20.5720 C   0  0  0  0  0  0  0  0  0  0  0  0
  -32.1250  -18.8280   19.8550 C   0  0  0  0  0  0  0  0  0  0  0  0
  -30.4920  -17.1100   20.5540 C   0  0  0  0  0  0  0  0  0  0  0  0
  -30.7490  -14.6070   20.2390 C   0  0  0  0  0  0  0  0  0  0  0  0
  -30.4030  -12.3850   19.2180 C   0  0  0  0  0  2  0  0  0  0  0  0
  -29.4650  -12.5410   18.0060 C   0  0  0  0  0  2  0  0  0  0  0  0
  -27.9940  -12.4210   18.4500 C   0  0  0  0  0  2  0  0  0  0  0  0
  -27.6650  -13.3080   19.6830 C   0  0  0  0  0  3  0  0  0  0  0  0
  -28.7320  -13.1680   20.7920 C   0  0  0  0  0  2  0  0  0  0  0  0
  -30.0460  -13.4350   20.1920 N   0  0  0  0  0  0  0  0  0  0  0  0
  -31.8700  -14.6740   19.7340 O   0  0  0  0  0  0  0  0  0  0  0  0
  -30.1160  -15.7130   20.7270 N   0  0  0  0  0  0  0  0  0  0  0  0
  -29.2060  -15.5420   21.1230 H   0  0  0  0  0  0  0  0  0  0  0  0
  -25.2910  -13.9400   20.4470 C   0  0  0  0  0  0  0  0  0  0  0  0
  -24.2200  -13.1820   20.8340 C   0  0  0  0  0  0  0  0  0  0  0  0
  -24.6590  -11.8220   20.7820 C   0  0  0  0  0  0  0  0  0  0  0  0
  -26.3180  -13.0460   20.1870 N   0  0  0  0  0  0  0  0  0  0  0  0
  -25.9420  -11.7660   20.4470 N   0  0  0  0  0  0  0  0  0  0  0  0
  -23.9160  -10.5700   20.9800 C   0  0  0  0  0  0  0  0  0  0  0  0
  -24.3430   -9.5950   21.9100 C   0  0  0  0  0  3  0  0  0  0  0  0
  -23.6010   -8.4100   22.0980 C   0  0  0  0  0  3  0  0  0  0  0  0
  -22.4160   -8.1890   21.3570 C   0  0  0  0  0  0  0  0  0  0  0  0
  -22.0050   -9.1520   20.4180 C   0  0  0  0  0  3  0  0  0  0  0  0
  -22.7490  -10.3290   20.2280 C   0  0  0  0  0  3  0  0  0  0  0  0
  -21.6500   -7.0500   21.4510 O   0  0  0  0  0  0  0  0  0  0  0  0
  -21.5940   -6.3130   22.6070 C   0  0  0  0  0  0  0  0  0  0  0  0
  -21.1830   -6.8830   23.8330 C   0  0  0  0  0  3  0  0  0  0  0  0
  -21.0670   -6.0760   24.9820 C   0  0  0  0  0  3  0  0  0  0  0  0
  -21.3570   -4.6990   24.9070 C   0  0  0  0  0  0  0  0  0  0  0  0
  -21.7670   -4.1310   23.6880 C   0  0  0  0  0  3  0  0  0  0  0  0
  -21.8800   -4.9350   22.5390 C   0  0  0  0  0  0  0  0  0  0  0  0
  -22.2510   -4.3790   21.3610 F   0  0  0  0  0  0  0  0  0  0  0  0
  -21.2440   -3.9210   26.0090 F   0  0  0  0  0  0  0  0  0  0  0  0
  -22.8360  -13.6770   21.1380 C   0  0  0  0  0  0  0  0  0  0  0  0
  -22.1150  -12.9890   22.0180 N   0  0  0  0  0  0  0  0  0  0  0  0
  -22.3990  -14.7090   20.6310 O   0  0  0  0  0  0  0  0  0  0  0  0
  -22.4750  -12.1520   22.4510 H   0  0  0  0  0  0  0  0  0  0  0  0
  -21.1880  -13.3060   22.2600 H   0  0  0  0  0  0  0  0  0  0  0  0
  -25.4800  -15.3090   20.2700 N   0  0  0  0  0  0  0  0  0  0  0  0
  -24.7350  -15.9860   20.3860 H   0  0  0  0  0  0  0  0  0  0  0  0
  -26.3290  -15.7210   19.9060 H   0  0  0  0  0  0  0  0  0  0  0  0
  -33.4880  -19.1610   19.2690 C   0  0  0  0  0  2  0  0  0  0  0  0
  -34.6190  -19.2860   20.3000 C   0  0  0  0  0  0  0  0  0  0  0  0
  -34.3900  -19.2300   21.5130 O   0  0  0  0  0  0  0  0  0  0  0  0
  -36.1030  -20.6350   18.7540 C   0  0  0  0  0  1  0  0  0  0  0  0
  -36.5200  -18.1660   19.0560 C   0  0  0  0  0  1  0  0  0  0  0  0
  -37.0370  -19.7640   20.9160 C   0  0  0  0  0  1  0  0  0  0  0  0
  -36.0610  -19.4620   19.7580 C   0  0  2  0  0  0  0  0  0  0  0  0
  -28.8250  -24.2660   20.7130 C   0  0  0  0  0  0  0  0  0  0  0  0
  -29.4840  -24.0310   19.6930 O   0  0  0  0  0  0  0  0  0  0  0  0
  -28.3550  -25.7180   21.0470 C   0  0  0  0  0  2  0  0  0  0  0  0
  -28.4360  -26.6740   19.9550 O   0  0  0  0  0  0  0  0  0  0  0  0
  -24.6240  -31.8090   23.1100 C   0  0  0  0  0  0  0  0  0  0  0  0
  -27.3170  -27.4790   19.9110 C   0  0  0  0  0  0  0  0  0  0  0  0
  -23.4290  -30.4190   21.4470 C   0  0  0  0  0  3  0  0  0  0  0  0
  -24.9020  -28.9570   19.9590 C   0  0  0  0  0  0  0  0  0  0  0  0
  -25.9440  -30.8400   21.2280 C   0  0  0  0  0  2  0  0  0  0  0  0
  -26.0570  -29.4860   20.5510 C   0  0  0  0  0  0  0  0  0  0  0  0
  -27.2730  -28.7570   20.5210 C   0  0  0  0  0  3  0  0  0  0  0  0
  -26.1510  -26.9740   19.2980 C   0  0  0  0  0  3  0  0  0  0  0  0
  -24.9460  -27.7030   19.3240 C   0  0  0  0  0  3  0  0  0  0  0  0
  -23.6370  -29.7850   20.0460 C   0  0  0  0  0  2  0  0  0  0  0  0
  -24.6840  -31.0370   21.9870 N   0  0  0  0  0  0  0  0  0  0  0  0
  -23.5430  -32.0410   23.6700 O   0  0  0  0  0  0  0  0  0  0  0  0
  -22.8130  -29.3580   22.3880 C   0  0  0  0  0  0  0  0  0  0  0  0
  -21.4930  -29.1360   22.2620 N   0  0  0  0  0  0  0  0  0  0  0  0
  -23.5180  -28.7380   23.1900 O   0  0  0  0  0  0  0  0  0  0  0  0
  -20.9800  -29.6950   21.5940 H   0  0  0  0  0  0  0  0  0  0  0  0
  -18.1670  -27.8050   22.7210 C   0  0  0  0  0  0  0  0  0  0  0  0
  -20.7100  -28.1580   23.0170 C   0  0  0  0  0  3  0  0  0  0  0  0
  -20.8720  -26.7380   22.4240 C   0  0  0  0  0  2  0  0  0  0  0  0
  -19.7920  -26.3880   21.3940 C   0  0  0  0  0  2  0  0  0  0  0  0
  -18.3990  -26.4720   22.0280 C   0  0  0  0  0  2  0  0  0  0  0  0
  -19.2520  -28.6030   23.1700 C   0  0  0  0  0  0  0  0  0  0  0  0
  -18.9810  -29.8500   23.7730 C   0  0  0  0  0  3  0  0  0  0  0  0
  -17.6570  -30.2980   23.9370 C   0  0  0  0  0  3  0  0  0  0  0  0
  -16.5870  -29.4960   23.5060 C   0  0  0  0  0  3  0  0  0  0  0  0
  -16.8420  -28.2510   22.9050 C   0  0  0  0  0  3  0  0  0  0  0  0
  -25.9020  -32.4520   23.7300 C   0  0  0  0  0  3  0  0  0  0  0  0
  -25.5660  -33.8320   24.1030 N   0  0  0  0  0  0  0  0  0  0  0  0
  -25.8620  -34.9130   23.3690 C   0  0  0  0  0  0  0  0  0  0  0  0
  -26.5220  -34.8550   22.3270 O   0  0  0  0  0  0  0  0  0  0  0  0
  -24.9810  -33.9510   24.9180 H   0  0  0  0  0  0  0  0  0  0  0  0
  -24.0840  -36.6690   23.0850 C   0  0  0  0  0  1  0  0  0  0  0  0
  -25.3460  -36.2750   23.8690 C   0  0  0  0  0  3  0  0  0  0  0  0
  -27.4750  -37.1900   24.6860 C   0  0  0  0  0  1  0  0  0  0  0  0
  -26.3490  -37.3590   23.7730 N   0  0  0  0  0  0  0  0  0  0  0  0
  -25.9200  -38.2610   23.9640 H   0  0  0  0  0  0  0  0  0  0  0  0
  -26.4570  -31.6560   24.9740 C   0  0  1  0  0  0  0  0  0  0  0  0
  -25.3900  -31.3720   26.0570 C   0  0  0  0  0  1  0  0  0  0  0  0
  -27.0580  -30.3000   24.5350 C   0  0  0  0  0  1  0  0  0  0  0  0
  -27.6020  -32.4550   25.6400 C   0  0  0  0  0  1  0  0  0  0  0  0
  1  8  1  0
  1  7  1  0
  3  2  1  0
  4  2  1  0
  5  6  1  1
  5  3  1  0
  7  5  1  0
  7  4  1  0
  8 10  1  0
  9  8  1  0
 11 14  1  0
 13 16  2  0
 14  1  1  0
 14 12  2  0
 15 11  2  0
 15 13  1  0
 16 25  1  0
 16 12  1  0
 17 25  1  0
 18 23  1  0
 19 20  1  0
 19 18  1  0
 21 20  1  0
 21 30  1  0
 21 22  1  0
 23 17  1  0
 23 22  1  0
 24 17  2  0
 25 26  1  0
 27 28  2  0
 28 47  1  0
 29 28  1  0
 29 32  1  0
 30 27  1  0
 30 31  1  0
 31 29  2  0
 32 33  1  0
 33 34  2  0
 35 38  1  0
 35 34  1  0
 36 35  2  0
 37 36  1  0
 37 32  2  0
 38 39  1  0
 39 40  1  0
 40 41  2  0
 42 41  1  0
 42 46  1  0
 43 42  2  0
 44 39  2  0
 44 43  1  0
 45 44  1  0
 47 48  1  0
 48 51  1  0
 48 50  1  0
 49 47  2  0
 52 53  1  0
 52 27  1  0
 54 52  1  0
 55 15  1  0
 55 56  1  0
 56 57  2  0
 61 58  1  6
 59 61  1  0
 61 56  1  0
 61 60  1  0
 62 64  1  0
 62  5  1  0
 63 62  2  0
 65 64  1  0
 66 77  2  0
 67 65  1  0
 67 72  1  0
 68 76  1  0
 68 78  1  0
 69 75  1  0
 69 71  1  0
 70 76  1  0
 71 70  1  0
 72 71  2  0
 73 74  1  0
 73 67  2  0
 74 69  2  0
 75 68  1  0
 76 66  1  0
 78 80  2  0
 79 78  1  0
 81 79  1  0
 82 91  2  0
 82 87  1  0
 83 79  1  0
 83 87  1  0
 84 83  1  0
 85 86  1  0
 85 84  1  0
 86 82  1  0
 87 88  2  0
 88 89  1  0
 90 89  2  0
 91 90  1  0
 92 66  1  0
 92 93  1  0
 92102  1  0
 93 96  1  0
 94 98  1  0
 94 93  1  0
 95 94  2  0
 98 97  1  0
100 98  1  0
100101  1  0
100 99  1  0
102105  1  1
102103  1  0
104102  1  0
M  ISO  4  17 100  25 100  64 101  65 101
M  END
>  <TORSDO>  (34) 
F 22

>  <SCORE>  (34) 
-13.603

>  <name>  (34) 
33

>  <ligand_id>  (34) 
33

>  <original_smiles>  (34) 
[H]c1c([H])c([H])c2c(c1[H])C([H])([H])C([H])([H])C([H])([H])C2([H])N([H])C(=O)C1([H])N(C(=O)C([H])(N([H])C(=O)C([H])(N([H])C([H])([H])[H])C([H])([H])[H])C(C([H])([H])[H])(C([H])([H])[H])C([H])([H])[H])C([H])([H])c2c([H])c(OC([H])([H])C(=O)C3(C([H])([H])[H])N(C(c4c([H])c(N([H])C(=O)N5C([H])([H])C([H])([H])C([H])([H])C([H])(n6nc(-c7c([H])c([H])c(Oc8c([H])c([H])c(F)c([H])c8F)c([H])c7[H])c(C(=O)N([H])[H])c6N([H])[H])C5([H])[H])c([H])c(C([H])([H])C(=O)C(C([H])([H])[H])(C([H])([H])[H])C([H])([H])[H])c4[H])=[N+]([H])[H])C([H])([H])C([H])([H])C3([H])[H])c([H])c([H])c2C1([H])[H]

>  <smiles>  (34) 
[H]c1c([H])c([H])c2c(c1[H])C([H])([H])C([H])([H])C([H])([H])C2([H])N([H])C(=O)C1([H])N(C(=O)C([H])(N([H])C(=O)C([H])(N([H])C([H])([H])[H])C([H])([H])[H])C(C([H])([H])[H])(C([H])([H])[H])C([H])([H])[H])C([H])([H])c2c([H])c(OC([H])([H])C(=O)C3(C([H])([H])[H])N(C(c4c([H])c(N([H])C(=O)N5C([H])([H])C([H])([H])C([H])([H])C([H])(n6nc(-c7c([H])c([H])c(Oc8c([H])c([H])c(F)c([H])c8F)c([H])c7[H])c(C(=O)N([H])[H])c6N([H])[H])C5([H])[H])c([H])c(C([H])([H])C(=O)C(C([H])([H])[H])(C([H])([H])[H])C([H])([H])[H])c4[H])=[N+]([H])[H])C([H])([H])C([H])([H])C3([H])[H])c([H])c([H])c2C1([H])[H]

$$$$
34:0:0
     RDKit          3D

 98106  0  0  1  0  0  0  0  0999 V2000
  -27.8450  -21.0700   21.6170 C   0  0  0  0  0  2  0  0  0  0  0  0
  -28.3670  -22.3550   20.9430 C   0  0  0  0  0  0  0  0  0  0  0  0
  -29.5710  -22.5680   20.7560 O   0  0  0  0  0  0  0  0  0  0  0  0
  -27.2860  -23.3350   20.4940 C   0  0  0  0  0  2  0  0  0  0  0  0
  -28.0360  -24.9430   22.3460 C   0  0  0  0  0  1  0  0  0  0  0  0
  -25.9490  -25.2900   21.0920 C   0  0  0  0  0  1  0  0  0  0  0  0
  -27.4140  -24.8280   20.9270 C   0  0  2  0  0  0  0  0  0  0  0  0
  -28.2710  -25.6170   19.8400 C   0  0  0  0  0  2  0  0  0  0  0  0
  -28.2330  -26.9630   19.2520 O   0  0  0  0  0  0  0  0  0  0  0  0
  -24.6020  -31.6680   23.1070 C   0  0  0  0  0  0  0  0  0  0  0  0
  -27.0810  -27.7330   19.3070 C   0  0  0  0  0  0  0  0  0  0  0  0
  -23.3090  -30.4570   21.3820 C   0  0  0  0  0  3  0  0  0  0  0  0
  -24.6840  -29.1870   19.6450 C   0  0  0  0  0  0  0  0  0  0  0  0
  -25.8080  -30.9070   21.0630 C   0  0  0  0  0  2  0  0  0  0  0  0
  -25.8690  -29.6420   20.2340 C   0  0  0  0  0  0  0  0  0  0  0  0
  -27.0750  -28.9280   20.0580 C   0  0  0  0  0  3  0  0  0  0  0  0
  -25.8960  -27.3380   18.6450 C   0  0  0  0  0  3  0  0  0  0  0  0
  -24.6970  -28.0430   18.8340 C   0  0  0  0  0  3  0  0  0  0  0  0
  -23.4250  -29.9820   19.9070 C   0  0  0  0  0  2  0  0  0  0  0  0
  -24.5960  -31.0180   21.9090 N   0  0  0  0  0  0  0  0  0  0  0  0
  -23.5570  -31.8300   23.7510 O   0  0  0  0  0  0  0  0  0  0  0  0
  -22.7520  -29.2940   22.2380 C   0  0  0  0  0  0  0  0  0  0  0  0
  -21.4300  -29.0710   22.1570 N   0  0  0  0  0  0  0  0  0  0  0  0
  -23.5060  -28.6080   22.9330 O   0  0  0  0  0  0  0  0  0  0  0  0
  -20.8710  -29.7060   21.6080 H   0  0  0  0  0  0  0  0  0  0  0  0
  -18.1560  -27.6020   22.6260 C   0  0  0  0  0  0  0  0  0  0  0  0
  -20.6950  -28.0050   22.8360 C   0  0  0  0  0  3  0  0  0  0  0  0
  -20.8770  -26.6520   22.1080 C   0  0  0  0  0  2  0  0  0  0  0  0
  -19.7450  -26.3150   21.1330 C   0  0  0  0  0  2  0  0  0  0  0  0
  -18.3960  -26.3170   21.8550 C   0  0  0  0  0  2  0  0  0  0  0  0
  -19.2380  -28.3930   23.0880 C   0  0  0  0  0  0  0  0  0  0  0  0
  -18.9580  -29.5770   23.8090 C   0  0  0  0  0  3  0  0  0  0  0  0
  -17.6300  -29.9760   24.0560 C   0  0  0  0  0  3  0  0  0  0  0  0
  -16.5640  -29.1820   23.5920 C   0  0  0  0  0  3  0  0  0  0  0  0
  -16.8310  -27.9960   22.8860 C   0  0  0  0  0  3  0  0  0  0  0  0
  -25.9150  -32.2540   23.7080 C   0  0  0  0  0  3  0  0  0  0  0  0
  -25.6160  -33.6110   24.1790 N   0  0  0  0  0  0  0  0  0  0  0  0
  -25.9190  -34.7320   23.5130 C   0  0  0  0  0  0  0  0  0  0  0  0
  -26.5550  -34.7330   22.4560 O   0  0  0  0  0  0  0  0  0  0  0  0
  -25.0550  -33.6810   25.0130 H   0  0  0  0  0  0  0  0  0  0  0  0
  -24.1750  -36.5400   23.3940 C   0  0  0  0  0  1  0  0  0  0  0  0
  -25.4440  -36.0660   24.1190 C   0  0  0  0  0  3  0  0  0  0  0  0
  -27.6030  -36.8810   24.9630 C   0  0  0  0  0  1  0  0  0  0  0  0
  -26.4690  -37.1310   24.0750 N   0  0  0  0  0  0  0  0  0  0  0  0
  -26.0650  -38.0310   24.3260 H   0  0  0  0  0  0  0  0  0  0  0  0
  -26.5110  -31.3740   24.8750 C   0  0  1  0  0  0  0  0  0  0  0  0
  -25.4770  -31.0270   25.9720 C   0  0  0  0  0  1  0  0  0  0  0  0
  -27.0830  -30.0470   24.3230 C   0  0  0  0  0  1  0  0  0  0  0  0
  -27.6920  -32.1180   25.5390 C   0  0  0  0  0  1  0  0  0  0  0  0
  -28.8680  -20.0960   21.9960 N   0  0  0  0  0  0  0  0  0  0  0  0
  -29.2290  -20.1350   22.9460 H   0  0  0  0  0  0  0  0  0  0  0  0
  -30.7510  -17.5080   19.2440 C   0  0  0  0  0  3  0  0  0  0  0  0
  -29.4140  -19.5000   19.6580 C   0  0  0  0  0  3  0  0  0  0  0  0
  -30.1450  -18.1140   21.5250 C   0  0  0  0  0  3  0  0  0  0  0  0
  -30.0530  -18.6270   18.7460 C   0  0  0  0  0  0  0  0  0  0  0  0
  -30.7750  -17.2250   20.6300 C   0  0  0  0  0  0  0  0  0  0  0  0
  -29.4720  -19.2570   21.0500 C   0  0  0  0  0  0  0  0  0  0  0  0
  -31.8980  -15.0710   20.3890 C   0  0  0  0  0  0  0  0  0  0  0  0
  -31.5280  -12.9290   19.2330 C   0  0  0  0  0  2  0  0  0  0  0  0
  -30.6100  -13.1720   18.0170 C   0  0  0  0  0  2  0  0  0  0  0  0
  -29.1240  -13.1120   18.4220 C   0  0  0  0  0  2  0  0  0  0  0  0
  -28.8080  -13.9630   19.6780 C   0  0  0  0  0  3  0  0  0  0  0  0
  -29.8340  -13.6870   20.8040 C   0  0  0  0  0  2  0  0  0  0  0  0
  -31.1910  -13.9180   20.2670 N   0  0  0  0  0  0  0  0  0  0  0  0
  -32.9630  -15.2900   19.8040 O   0  0  0  0  0  0  0  0  0  0  0  0
  -31.3150  -16.0130   21.1410 N   0  0  0  0  0  0  0  0  0  0  0  0
  -30.7920  -15.6410   21.9210 H   0  0  0  0  0  0  0  0  0  0  0  0
  -26.4300  -14.6780   20.3700 C   0  0  0  0  0  0  0  0  0  0  0  0
  -25.3180  -13.9530   20.7100 C   0  0  0  0  0  0  0  0  0  0  0  0
  -25.7120  -12.5820   20.6520 C   0  0  0  0  0  0  0  0  0  0  0  0
  -27.4350  -13.7500   20.1310 N   0  0  0  0  0  0  0  0  0  0  0  0
  -27.0030  -12.4830   20.3560 N   0  0  0  0  0  0  0  0  0  0  0  0
  -24.9220  -11.3530   20.8080 C   0  0  0  0  0  0  0  0  0  0  0  0
  -25.2260  -10.4000   21.8050 C   0  0  0  0  0  3  0  0  0  0  0  0
  -24.4410   -9.2360   21.9470 C   0  0  0  0  0  3  0  0  0  0  0  0
  -23.3370   -9.0160   21.0890 C   0  0  0  0  0  0  0  0  0  0  0  0
  -23.0510   -9.9570   20.0830 C   0  0  0  0  0  3  0  0  0  0  0  0
  -23.8380  -11.1120   19.9400 C   0  0  0  0  0  3  0  0  0  0  0  0
  -22.5340   -7.9020   21.1340 O   0  0  0  0  0  0  0  0  0  0  0  0
  -22.2310   -7.2790   22.3190 C   0  0  0  0  0  0  0  0  0  0  0  0
  -21.6110   -7.9700   23.3840 C   0  0  0  0  0  3  0  0  0  0  0  0
  -21.2550   -7.2760   24.5590 C   0  0  0  0  0  3  0  0  0  0  0  0
  -21.5100   -5.8960   24.6660 C   0  0  0  0  0  0  0  0  0  0  0  0
  -22.1230   -5.2070   23.6050 C   0  0  0  0  0  3  0  0  0  0  0  0
  -22.4820   -5.8980   22.4340 C   0  0  0  0  0  0  0  0  0  0  0  0
  -23.0520   -5.2250   21.4070 F   0  0  0  0  0  0  0  0  0  0  0  0
  -21.1610   -5.2280   25.7910 F   0  0  0  0  0  0  0  0  0  0  0  0
  -23.9430  -14.4930   20.9810 C   0  0  0  0  0  0  0  0  0  0  0  0
  -23.1850  -13.8340   21.8480 N   0  0  0  0  0  0  0  0  0  0  0  0
  -23.5550  -15.5380   20.4590 O   0  0  0  0  0  0  0  0  0  0  0  0
  -23.5110  -12.9900   22.2920 H   0  0  0  0  0  0  0  0  0  0  0  0
  -22.2650  -14.1820   22.0690 H   0  0  0  0  0  0  0  0  0  0  0  0
  -26.6630  -16.0440   20.2310 N   0  0  0  0  0  0  0  0  0  0  0  0
  -25.9340  -16.7300   20.3890 H   0  0  0  0  0  0  0  0  0  0  0  0
  -27.5510  -16.4580   19.9820 H   0  0  0  0  0  0  0  0  0  0  0  0
  -30.0070  -18.8540   17.2730 C   0  0  0  0  0  0  0  0  0  0  0  0
  -28.9340  -19.7900   16.7320 C   0  0  0  0  0  1  0  0  0  0  0  0
  -30.7660  -18.2910   16.4830 O   0  0  0  0  0  0  0  0  0  0  0  0
  1 50  1  0
  2  1  1  0
  3  2  2  0
  4  7  1  0
  4  2  1  0
  7  6  1  1
  7  5  1  0
  8  7  1  0
  9 11  1  0
  9  8  1  0
 10 21  2  0
 11 16  1  0
 12 20  1  0
 12 22  1  0
 13 19  1  0
 13 15  1  0
 14 20  1  0
 15 14  1  0
 16 15  2  0
 17 18  1  0
 17 11  2  0
 18 13  2  0
 19 12  1  0
 20 10  1  0
 22 24  2  0
 23 22  1  0
 25 23  1  0
 26 35  2  0
 26 31  1  0
 27 23  1  0
 27 31  1  0
 28 27  1  0
 29 30  1  0
 29 28  1  0
 30 26  1  0
 31 32  2  0
 32 33  1  0
 34 33  2  0
 35 34  1  0
 36 10  1  0
 36 37  1  0
 36 46  1  0
 37 40  1  0
 38 42  1  0
 38 37  1  0
 39 38  2  0
 42 41  1  0
 44 42  1  0
 44 45  1  0
 44 43  1  0
 46 49  1  1
 46 47  1  0
 48 46  1  0
 50 51  1  0
 52 56  1  0
 53 57  2  0
 55 52  2  0
 55 53  1  0
 56 66  1  0
 56 54  2  0
 57 54  1  0
 57 50  1  0
 58 66  1  0
 59 64  1  0
 60 61  1  0
 60 59  1  0
 62 61  1  0
 62 71  1  0
 62 63  1  0
 64 58  1  0
 64 63  1  0
 65 58  2  0
 66 67  1  0
 68 69  2  0
 69 88  1  0
 70 69  1  0
 70 73  1  0
 71 72  1  0
 71 68  1  0
 72 70  2  0
 73 74  1  0
 74 75  2  0
 76 79  1  0
 76 75  1  0
 77 76  2  0
 78 77  1  0
 78 73  2  0
 79 80  1  0
 80 85  2  0
 80 81  1  0
 81 82  2  0
 82 83  1  0
 83 87  1  0
 84 83  2  0
 85 84  1  0
 86 85  1  0
 88 89  1  0
 89 92  1  0
 89 91  1  0
 90 88  2  0
 93 68  1  0
 93 94  1  0
 95 93  1  0
 96 55  1  0
 97 96  1  0
 98 96  2  0
M  ISO  4   8 101   9 101  58 100  66 100
M  END
>  <TORSDO>  (35) 
F 23

>  <SCORE>  (35) 
-9.121

>  <name>  (35) 
34

>  <ligand_id>  (35) 
34

>  <original_smiles>  (35) 
[H]c1c([H])c([H])c2c(c1[H])C([H])([H])C([H])([H])C([H])([H])C2([H])N([H])C(=O)C1([H])N(C(=O)C([H])(N([H])C(=O)C([H])(N([H])C([H])([H])[H])C([H])([H])[H])C(C([H])([H])[H])(C([H])([H])[H])C([H])([H])[H])C([H])([H])c2c([H])c(OC([H])([H])C(C([H])([H])[H])(C([H])([H])[H])C([H])([H])C(=O)C([H])([H])N([H])c3c([H])c(C(=O)C([H])([H])[H])c([H])c(N([H])C(=O)N4C([H])([H])C([H])([H])C([H])([H])C([H])(n5nc(-c6c([H])c([H])c(Oc7c([H])c([H])c(F)c([H])c7F)c([H])c6[H])c(C(=O)N([H])[H])c5N([H])[H])C4([H])[H])c3[H])c([H])c([H])c2C1([H])[H]

>  <smiles>  (35) 
[H]c1c([H])c([H])c2c(c1[H])C([H])([H])C([H])([H])C([H])([H])C2([H])N([H])C(=O)C1([H])N(C(=O)C([H])(N([H])C(=O)C([H])(N([H])C([H])([H])[H])C([H])([H])[H])C(C([H])([H])[H])(C([H])([H])[H])C([H])([H])[H])C([H])([H])c2c([H])c(OC([H])([H])C(C([H])([H])[H])(C([H])([H])[H])C([H])([H])C(=O)C([H])([H])N([H])c3c([H])c(C(=O)C([H])([H])[H])c([H])c(N([H])C(=O)N4C([H])([H])C([H])([H])C([H])([H])C([H])(n5nc(-c6c([H])c([H])c(Oc7c([H])c([H])c(F)c([H])c7F)c([H])c6[H])c(C(=O)N([H])[H])c5N([H])[H])C4([H])[H])c3[H])c([H])c([H])c2C1([H])[H]

$$$$
35:0:0
     RDKit          3D

 93101  0  0  1  0  0  0  0  0999 V2000
  -28.4750  -22.7110   18.1590 C   0  0  0  0  0  1  0  0  0  0  0  0
  -27.1900  -22.4970   20.2670 C   0  0  0  0  0  1  0  0  0  0  0  0
  -28.6140  -22.7740   19.7000 C   0  0  2  0  0  0  0  0  0  0  0  0
  -30.4650  -24.6040   19.4100 C   0  0  0  0  0  1  0  0  0  0  0  0
  -29.5030  -24.2070   21.6760 C   0  0  0  0  0  1  0  0  0  0  0  0
  -29.1760  -24.2070   20.1680 C   0  0  2  0  0  0  0  0  0  0  0  0
  -28.1070  -25.3120   19.8980 C   0  0  0  0  0  2  0  0  0  0  0  0
  -28.3590  -26.7040   20.1850 O   0  0  0  0  0  0  0  0  0  0  0  0
  -24.6080  -31.9320   23.2710 C   0  0  0  0  0  0  0  0  0  0  0  0
  -27.2160  -27.4980   20.1410 C   0  0  0  0  0  0  0  0  0  0  0  0
  -23.3880  -30.5540   21.6230 C   0  0  0  0  0  3  0  0  0  0  0  0
  -24.8310  -29.0430   20.1710 C   0  0  0  0  0  0  0  0  0  0  0  0
  -25.9200  -30.9020   21.4200 C   0  0  0  0  0  2  0  0  0  0  0  0
  -25.9990  -29.5390   20.7660 C   0  0  0  0  0  0  0  0  0  0  0  0
  -27.1940  -28.7760   20.7530 C   0  0  0  0  0  3  0  0  0  0  0  0
  -26.0210  -27.0470   19.5170 C   0  0  0  0  0  3  0  0  0  0  0  0
  -24.8400  -27.7940   19.5440 C   0  0  0  0  0  3  0  0  0  0  0  0
  -23.5890  -29.9030   20.2330 C   0  0  0  0  0  2  0  0  0  0  0  0
  -24.6570  -31.1410   22.1630 N   0  0  0  0  0  0  0  0  0  0  0  0
  -23.5290  -32.2020   23.8170 O   0  0  0  0  0  0  0  0  0  0  0  0
  -22.7380  -29.5190   22.5700 C   0  0  0  0  0  0  0  0  0  0  0  0
  -21.4130  -29.3380   22.4400 N   0  0  0  0  0  0  0  0  0  0  0  0
  -23.4230  -28.8860   23.3790 O   0  0  0  0  0  0  0  0  0  0  0  0
  -20.9240  -29.9080   21.7640 H   0  0  0  0  0  0  0  0  0  0  0  0
  -18.0330  -28.1590   22.9380 C   0  0  0  0  0  0  0  0  0  0  0  0
  -20.5930  -28.3970   23.2030 C   0  0  0  0  0  3  0  0  0  0  0  0
  -20.6850  -26.9710   22.6110 C   0  0  0  0  0  2  0  0  0  0  0  0
  -19.5750  -26.6670   21.5980 C   0  0  0  0  0  2  0  0  0  0  0  0
  -18.1970  -26.8140   22.2490 C   0  0  0  0  0  2  0  0  0  0  0  0
  -19.1580  -28.9080   23.3720 C   0  0  0  0  0  0  0  0  0  0  0  0
  -18.9510  -30.1680   23.9750 C   0  0  0  0  0  3  0  0  0  0  0  0
  -17.6520  -30.6780   24.1480 C   0  0  0  0  0  3  0  0  0  0  0  0
  -16.5400  -29.9240   23.7320 C   0  0  0  0  0  3  0  0  0  0  0  0
  -16.7320  -28.6670   23.1330 C   0  0  0  0  0  3  0  0  0  0  0  0
  -25.8970  -32.5540   23.8880 C   0  0  0  0  0  3  0  0  0  0  0  0
  -26.4070  -31.7790   25.1640 C   0  0  1  0  0  0  0  0  0  0  0  0
  -25.3120  -31.5460   26.2300 C   0  0  0  0  0  1  0  0  0  0  0  0
  -26.9830  -30.3990   24.7670 C   0  0  0  0  0  1  0  0  0  0  0  0
  -27.5560  -32.5700   25.8320 C   0  0  0  0  0  1  0  0  0  0  0  0
  -25.6000  -33.9560   24.2130 N   0  0  0  0  0  0  0  0  0  0  0  0
  -25.9180  -35.0000   23.4360 C   0  0  0  0  0  0  0  0  0  0  0  0
  -26.5650  -34.8850   22.3920 O   0  0  0  0  0  0  0  0  0  0  0  0
  -25.0270  -34.1220   25.0270 H   0  0  0  0  0  0  0  0  0  0  0  0
  -24.1810  -36.7900   23.1080 C   0  0  0  0  0  1  0  0  0  0  0  0
  -25.4430  -36.3940   23.8920 C   0  0  0  0  0  3  0  0  0  0  0  0
  -27.5920  -37.2910   24.6640 C   0  0  0  0  0  1  0  0  0  0  0  0
  -26.4710  -37.4450   23.7410 N   0  0  0  0  0  0  0  0  0  0  0  0
  -26.0660  -38.3660   23.8850 H   0  0  0  0  0  0  0  0  0  0  0  0
  -29.1860  -20.3960   20.5810 C   0  0  0  0  0  3  0  0  0  0  0  0
  -29.5440  -21.5860   20.0350 C   0  0  0  0  0  3  0  0  0  0  0  0
  -29.4760  -17.9100   21.0300 C   0  0  0  0  0  3  0  0  0  0  0  0
  -31.3890  -19.1800   20.5750 C   0  0  0  0  0  3  0  0  0  0  0  0
  -30.0350  -19.2030   20.7600 C   0  0  0  0  0  0  0  0  0  0  0  0
  -30.3920  -16.8810   20.9740 C   0  0  0  0  0  0  0  0  0  0  0  0
  -32.0020  -17.5570   20.7200 S   0  0  0  0  0  0  0  0  0  0  0  0
  -30.7190  -14.5260   20.4400 C   0  0  0  0  0  0  0  0  0  0  0  0
  -30.3350  -12.3900   19.2670 C   0  0  0  0  0  2  0  0  0  0  0  0
  -29.3900  -12.6350   18.0740 C   0  0  0  0  0  2  0  0  0  0  0  0
  -27.9210  -12.5010   18.5190 C   0  0  0  0  0  2  0  0  0  0  0  0
  -27.6090  -13.3170   19.8020 C   0  0  0  0  0  3  0  0  0  0  0  0
  -28.6810  -13.0840   20.8940 C   0  0  0  0  0  2  0  0  0  0  0  0
  -30.0030  -13.3730   20.3130 N   0  0  0  0  0  0  0  0  0  0  0  0
  -31.8220  -14.6640   19.9090 O   0  0  0  0  0  0  0  0  0  0  0  0
  -30.1050  -15.5450   21.0810 N   0  0  0  0  0  0  0  0  0  0  0  0
  -29.2140  -15.3130   21.4920 H   0  0  0  0  0  0  0  0  0  0  0  0
  -25.2180  -13.9170   20.5380 C   0  0  0  0  0  0  0  0  0  0  0  0
  -24.1530  -13.1390   20.9090 C   0  0  0  0  0  0  0  0  0  0  0  0
  -24.6100  -11.7880   20.8550 C   0  0  0  0  0  0  0  0  0  0  0  0
  -26.2600  -13.0360   20.2900 N   0  0  0  0  0  0  0  0  0  0  0  0
  -25.8970  -11.7500   20.5340 N   0  0  0  0  0  0  0  0  0  0  0  0
  -23.8820  -10.5240   21.0360 C   0  0  0  0  0  0  0  0  0  0  0  0
  -24.3030   -9.5570   21.9750 C   0  0  0  0  0  3  0  0  0  0  0  0
  -23.5750   -8.3600   22.1430 C   0  0  0  0  0  3  0  0  0  0  0  0
  -22.4130   -8.1220   21.3750 C   0  0  0  0  0  0  0  0  0  0  0  0
  -22.0100   -9.0770   20.4250 C   0  0  0  0  0  3  0  0  0  0  0  0
  -22.7380  -10.2660   20.2540 C   0  0  0  0  0  3  0  0  0  0  0  0
  -21.6580   -6.9770   21.4540 O   0  0  0  0  0  0  0  0  0  0  0  0
  -21.5720   -6.2480   22.6140 C   0  0  0  0  0  0  0  0  0  0  0  0
  -21.0580   -6.8030   23.8050 C   0  0  0  0  0  3  0  0  0  0  0  0
  -20.9230   -6.0010   24.9560 C   0  0  0  0  0  3  0  0  0  0  0  0
  -21.2930   -4.6430   24.9150 C   0  0  0  0  0  0  0  0  0  0  0  0
  -21.7980   -4.0860   23.7270 C   0  0  0  0  0  3  0  0  0  0  0  0
  -21.9340   -4.8870   22.5780 C   0  0  0  0  0  0  0  0  0  0  0  0
  -22.4020   -4.3400   21.4300 F   0  0  0  0  0  0  0  0  0  0  0  0
  -21.1560   -3.8680   26.0160 F   0  0  0  0  0  0  0  0  0  0  0  0
  -22.7600  -13.6160   21.2050 C   0  0  0  0  0  0  0  0  0  0  0  0
  -22.0450  -12.9100   22.0760 N   0  0  0  0  0  0  0  0  0  0  0  0
  -22.3150  -14.6450   20.7010 O   0  0  0  0  0  0  0  0  0  0  0  0
  -22.4180  -12.0740   22.5020 H   0  0  0  0  0  0  0  0  0  0  0  0
  -21.1120  -13.2110   22.3200 H   0  0  0  0  0  0  0  0  0  0  0  0
  -25.3860  -15.2890   20.3700 N   0  0  0  0  0  0  0  0  0  0  0  0
  -24.6270  -15.9530   20.4810 H   0  0  0  0  0  0  0  0  0  0  0  0
  -26.2360  -15.7190   20.0250 H   0  0  0  0  0  0  0  0  0  0  0  0
  3  1  1  6
  3 50  1  0
  3  6  1  0
  3  2  1  0
  6  4  1  6
  6  5  1  0
  7  6  1  0
  7  8  1  0
  9 20  2  0
 10  8  1  0
 10 15  1  0
 11 19  1  0
 11 21  1  0
 12 18  1  0
 12 14  1  0
 13 19  1  0
 14 13  1  0
 15 14  2  0
 16 17  1  0
 16 10  2  0
 17 12  2  0
 18 11  1  0
 19  9  1  0
 21 23  2  0
 22 21  1  0
 24 22  1  0
 25 34  2  0
 25 30  1  0
 26 22  1  0
 26 30  1  0
 27 26  1  0
 28 29  1  0
 28 27  1  0
 29 25  1  0
 30 31  2  0
 31 32  1  0
 33 32  2  0
 34 33  1  0
 35  9  1  0
 35 40  1  0
 35 36  1  0
 36 39  1  1
 36 37  1  0
 38 36  1  0
 40 43  1  0
 41 45  1  0
 41 40  1  0
 42 41  2  0
 45 44  1  0
 47 48  1  0
 47 45  1  0
 47 46  1  0
 49 53  1  0
 50 49  2  0
 52 55  1  0
 52 53  2  0
 53 51  1  0
 54 51  2  0
 54 64  1  0
 55 54  1  0
 56 64  1  0
 57 62  1  0
 58 59  1  0
 58 57  1  0
 60 59  1  0
 60 69  1  0
 60 61  1  0
 62 56  1  0
 62 61  1  0
 63 56  2  0
 64 65  1  0
 66 67  2  0
 67 86  1  0
 68 67  1  0
 68 71  1  0
 69 70  1  0
 69 66  1  0
 70 68  2  0
 71 72  1  0
 72 73  2  0
 74 77  1  0
 74 73  1  0
 75 74  2  0
 76 75  1  0
 76 71  2  0
 77 78  1  0
 78 79  1  0
 79 80  2  0
 81 80  1  0
 81 85  1  0
 82 81  2  0
 83 78  2  0
 83 82  1  0
 84 83  1  0
 86 87  1  0
 87 90  1  0
 87 89  1  0
 88 86  2  0
 91 92  1  0
 91 66  1  0
 93 91  1  0
M  ISO  4   7 101   8 101  56 100  64 100
M  END
>  <TORSDO>  (36) 
F 20

>  <SCORE>  (36) 
-14.023

>  <name>  (36) 
35

>  <ligand_id>  (36) 
35

>  <original_smiles>  (36) 
[H]C(=C([H])C(C([H])([H])[H])(C([H])([H])[H])C(C([H])([H])[H])(C([H])([H])[H])C([H])([H])Oc1c([H])c([H])c2c(c1[H])C([H])([H])N(C(=O)C([H])(N([H])C(=O)C([H])(N([H])C([H])([H])[H])C([H])([H])[H])C(C([H])([H])[H])(C([H])([H])[H])C([H])([H])[H])C([H])(C(=O)N([H])C1([H])c3c([H])c([H])c([H])c([H])c3C([H])([H])C([H])([H])C1([H])[H])C2([H])[H])c1c([H])sc(N([H])C(=O)N2C([H])([H])C([H])([H])C([H])([H])C([H])(n3nc(-c4c([H])c([H])c(Oc5c([H])c([H])c(F)c([H])c5F)c([H])c4[H])c(C(=O)N([H])[H])c3N([H])[H])C2([H])[H])c1[H]

>  <smiles>  (36) 
[H]C(=C([H])C(C([H])([H])[H])(C([H])([H])[H])C(C([H])([H])[H])(C([H])([H])[H])C([H])([H])Oc1c([H])c([H])c2c(c1[H])C([H])([H])N(C(=O)C([H])(N([H])C(=O)C([H])(N([H])C([H])([H])[H])C([H])([H])[H])C(C([H])([H])[H])(C([H])([H])[H])C([H])([H])[H])C([H])(C(=O)N([H])C1([H])c3c([H])c([H])c([H])c([H])c3C([H])([H])C([H])([H])C1([H])[H])C2([H])[H])c1c([H])sc(N([H])C(=O)N2C([H])([H])C([H])([H])C([H])([H])C([H])(n3nc(-c4c([H])c([H])c(Oc5c([H])c([H])c(F)c([H])c5F)c([H])c4[H])c(C(=O)N([H])[H])c3N([H])[H])C2([H])[H])c1[H]

$$$$
36:0:0
     RDKit          3D

 99107  0  0  1  0  0  0  0  0999 V2000
  -27.4960  -20.2840   20.5370 C   0  0  0  0  0  1  0  0  0  0  0  0
  -28.8230  -20.6950   19.8580 C   0  0  0  0  0  3  0  0  0  0  0  0
  -30.3900  -19.5520   18.2190 C   0  0  0  0  0  3  0  0  0  0  0  0
  -31.0890  -17.2290   18.4170 C   0  0  0  0  0  3  0  0  0  0  0  0
  -29.6140  -18.1980   20.0940 C   0  0  0  0  0  3  0  0  0  0  0  0
  -31.1280  -18.4580   17.7310 C   0  0  0  0  0  0  0  0  0  0  0  0
  -29.6360  -19.4510   19.4090 C   0  0  0  0  0  0  0  0  0  0  0  0
  -30.3360  -17.0700   19.6090 C   0  0  0  0  0  0  0  0  0  0  0  0
  -30.9890  -14.6860   20.0510 C   0  0  0  0  0  0  0  0  0  0  0  0
  -30.6600  -12.4750   19.0400 C   0  0  0  0  0  2  0  0  0  0  0  0
  -29.6800  -12.6500   17.8610 C   0  0  0  0  0  2  0  0  0  0  0  0
  -28.2230  -12.5260   18.3480 C   0  0  0  0  0  2  0  0  0  0  0  0
  -27.9270  -13.3930   19.6000 C   0  0  0  0  0  3  0  0  0  0  0  0
  -29.0260  -13.2270   20.6750 C   0  0  0  0  0  2  0  0  0  0  0  0
  -30.3240  -13.4980   20.0430 N   0  0  0  0  0  0  0  0  0  0  0  0
  -32.1620  -14.7810   19.6850 O   0  0  0  0  0  0  0  0  0  0  0  0
  -30.2300  -15.7900   20.2710 N   0  0  0  0  0  0  0  0  0  0  0  0
  -29.3610  -15.6210   20.7560 H   0  0  0  0  0  0  0  0  0  0  0  0
  -25.5790  -14.0130   20.4460 C   0  0  0  0  0  0  0  0  0  0  0  0
  -24.5160  -13.2490   20.8440 C   0  0  0  0  0  0  0  0  0  0  0  0
  -24.9510  -11.8910   20.7540 C   0  0  0  0  0  0  0  0  0  0  0  0
  -26.5960  -13.1230   20.1380 N   0  0  0  0  0  0  0  0  0  0  0  0
  -26.2240  -11.8400   20.3840 N   0  0  0  0  0  0  0  0  0  0  0  0
  -24.2130  -10.6350   20.9430 C   0  0  0  0  0  0  0  0  0  0  0  0
  -24.6290   -9.6690   21.8850 C   0  0  0  0  0  3  0  0  0  0  0  0
  -23.8930   -8.4770   22.0610 C   0  0  0  0  0  3  0  0  0  0  0  0
  -22.7260   -8.2440   21.2970 C   0  0  0  0  0  0  0  0  0  0  0  0
  -22.3280   -9.1990   20.3460 C   0  0  0  0  0  3  0  0  0  0  0  0
  -23.0650  -10.3810   20.1670 C   0  0  0  0  0  3  0  0  0  0  0  0
  -21.9630   -7.1040   21.3820 O   0  0  0  0  0  0  0  0  0  0  0  0
  -21.8540   -6.3980   22.5520 C   0  0  0  0  0  0  0  0  0  0  0  0
  -21.2680   -6.9570   23.7080 C   0  0  0  0  0  3  0  0  0  0  0  0
  -21.1120   -6.1730   24.8690 C   0  0  0  0  0  3  0  0  0  0  0  0
  -21.5320   -4.8290   24.8730 C   0  0  0  0  0  0  0  0  0  0  0  0
  -22.1100   -4.2680   23.7200 C   0  0  0  0  0  3  0  0  0  0  0  0
  -22.2680   -5.0500   22.5620 C   0  0  0  0  0  0  0  0  0  0  0  0
  -22.8070   -4.4990   21.4490 F   0  0  0  0  0  0  0  0  0  0  0  0
  -21.3740   -4.0740   25.9860 F   0  0  0  0  0  0  0  0  0  0  0  0
  -23.1410  -13.7400   21.1950 C   0  0  0  0  0  0  0  0  0  0  0  0
  -22.4360  -13.0240   22.0640 N   0  0  0  0  0  0  0  0  0  0  0  0
  -22.7020  -14.7940   20.7350 O   0  0  0  0  0  0  0  0  0  0  0  0
  -22.8050  -12.1730   22.4600 H   0  0  0  0  0  0  0  0  0  0  0  0
  -21.5150  -13.3320   22.3390 H   0  0  0  0  0  0  0  0  0  0  0  0
  -25.7640  -15.3860   20.2990 N   0  0  0  0  0  0  0  0  0  0  0  0
  -25.0220  -16.0560   20.4680 H   0  0  0  0  0  0  0  0  0  0  0  0
  -26.6010  -15.8120   19.9220 H   0  0  0  0  0  0  0  0  0  0  0  0
  -31.9470  -18.6000   16.4560 C   0  0  0  0  0  2  0  0  0  0  0  0
  -33.3410  -18.9560   16.7500 N   0  0  0  0  0  4  0  0  0  0  0  0
  -33.3870  -19.8660   17.1690 H   0  0  0  0  0  0  0  0  0  0  0  0
  -33.8720  -18.9730   15.8960 H   0  0  0  0  0  0  0  0  0  0  0  0
  -33.7540  -18.2850   17.3700 H   0  0  0  0  0  0  0  0  0  0  0  0
  -30.9100  -22.2250   19.8050 C   0  0  0  0  0  1  0  0  0  0  0  0
  -30.1750  -21.2320   21.9550 C   0  0  0  0  0  1  0  0  0  0  0  0
  -29.6560  -21.8120   20.6150 C   0  0  2  0  0  0  0  0  0  0  0  0
  -28.8060  -23.0930   20.9380 C   0  0  0  0  0  0  0  0  0  0  0  0
  -28.0780  -23.1040   21.9350 O   0  0  0  0  0  0  0  0  0  0  0  0
  -28.8470  -24.3500   20.0260 C   0  0  0  0  0  2  0  0  0  0  0  0
  -28.4680  -25.6580   20.7750 C   0  0  0  0  0  2  0  0  0  0  0  0
  -28.5500  -26.8560   19.9740 O   0  0  0  0  0  0  0  0  0  0  0  0
  -24.5560  -31.7990   23.2000 C   0  0  0  0  0  0  0  0  0  0  0  0
  -27.3880  -27.5940   19.9660 C   0  0  0  0  0  0  0  0  0  0  0  0
  -23.4240  -30.4450   21.4690 C   0  0  0  0  0  3  0  0  0  0  0  0
  -24.9510  -29.0250   19.9960 C   0  0  0  0  0  0  0  0  0  0  0  0
  -25.9410  -30.8900   21.3370 C   0  0  0  0  0  2  0  0  0  0  0  0
  -26.0830  -29.5560   20.6310 C   0  0  0  0  0  0  0  0  0  0  0  0
  -27.3080  -28.8500   20.6100 C   0  0  0  0  0  3  0  0  0  0  0  0
  -26.2450  -27.0770   19.3220 C   0  0  0  0  0  3  0  0  0  0  0  0
  -25.0290  -27.7860   19.3350 C   0  0  0  0  0  3  0  0  0  0  0  0
  -23.6790  -29.8400   20.0610 C   0  0  0  0  0  2  0  0  0  0  0  0
  -24.6570  -31.0560   22.0610 N   0  0  0  0  0  0  0  0  0  0  0  0
  -23.4570  -32.0100   23.7320 O   0  0  0  0  0  0  0  0  0  0  0  0
  -22.7880  -29.3570   22.3650 C   0  0  0  0  0  0  0  0  0  0  0  0
  -21.4710  -29.1440   22.2050 N   0  0  0  0  0  0  0  0  0  0  0  0
  -23.4760  -28.7110   23.1600 O   0  0  0  0  0  0  0  0  0  0  0  0
  -20.9770  -29.7200   21.5380 H   0  0  0  0  0  0  0  0  0  0  0  0
  -18.1160  -27.8680   22.6210 C   0  0  0  0  0  0  0  0  0  0  0  0
  -20.6690  -28.1470   22.9130 C   0  0  0  0  0  3  0  0  0  0  0  0
  -20.7940  -26.7570   22.2470 C   0  0  0  0  0  2  0  0  0  0  0  0
  -19.6990  -26.4840   21.2130 C   0  0  0  0  0  2  0  0  0  0  0  0
  -18.3130  -26.5680   21.8610 C   0  0  0  0  0  2  0  0  0  0  0  0
  -19.2230  -28.6180   23.1010 C   0  0  0  0  0  0  0  0  0  0  0  0
  -18.9840  -29.8380   23.7710 C   0  0  0  0  0  3  0  0  0  0  0  0
  -17.6720  -30.3080   23.9640 C   0  0  0  0  0  3  0  0  0  0  0  0
  -16.5800  -29.5540   23.4990 C   0  0  0  0  0  3  0  0  0  0  0  0
  -16.8030  -28.3360   22.8350 C   0  0  0  0  0  3  0  0  0  0  0  0
  -25.8110  -32.4350   23.8760 C   0  0  0  0  0  3  0  0  0  0  0  0
  -26.2630  -31.6810   25.1860 C   0  0  1  0  0  0  0  0  0  0  0  0
  -25.1190  -31.4550   26.2010 C   0  0  0  0  0  1  0  0  0  0  0  0
  -26.8660  -30.2990   24.8390 C   0  0  0  0  0  1  0  0  0  0  0  0
  -27.3800  -32.4840   25.8930 C   0  0  0  0  0  1  0  0  0  0  0  0
  -25.4910  -33.8390   24.1690 N   0  0  0  0  0  0  0  0  0  0  0  0
  -25.8680  -34.8780   23.4120 C   0  0  0  0  0  0  0  0  0  0  0  0
  -26.5920  -34.7560   22.4190 O   0  0  0  0  0  0  0  0  0  0  0  0
  -24.8560  -34.0080   24.9360 H   0  0  0  0  0  0  0  0  0  0  0  0
  -24.1890  -36.6820   22.9130 C   0  0  0  0  0  1  0  0  0  0  0  0
  -25.3610  -36.2740   23.8200 C   0  0  0  0  0  3  0  0  0  0  0  0
  -27.4210  -37.1600   24.8180 C   0  0  0  0  0  1  0  0  0  0  0  0
  -26.4100  -37.3160   23.7770 N   0  0  0  0  0  0  0  0  0  0  0  0
  -26.0010  -38.2430   23.8680 H   0  0  0  0  0  0  0  0  0  0  0  0
  2  1  1  0
  2 54  1  0
  3  7  1  0
  4  8  2  0
  6  3  2  0
  6  4  1  0
  7  2  1  0
  7  5  2  0
  8  5  1  0
  8 17  1  0
  9 17  1  0
 10 15  1  0
 11 12  1  0
 11 10  1  0
 13 12  1  0
 13 22  1  0
 13 14  1  0
 15  9  1  0
 15 14  1  0
 16  9  2  0
 17 18  1  0
 19 20  2  0
 20 39  1  0
 21 20  1  0
 21 24  1  0
 22 23  1  0
 22 19  1  0
 23 21  2  0
 24 25  1  0
 25 26  2  0
 27 30  1  0
 27 26  1  0
 28 27  2  0
 29 28  1  0
 29 24  2  0
 30 31  1  0
 31 36  2  0
 31 32  1  0
 32 33  2  0
 33 34  1  0
 34 38  1  0
 35 34  2  0
 36 35  1  0
 37 36  1  0
 39 40  1  0
 40 43  1  0
 40 42  1  0
 41 39  2  0
 44 19  1  0
 44 45  1  0
 46 44  1  0
 47 48  1  0
 47  6  1  0
 48 49  1  0
 48 51  1  0
 50 48  1  0
 54 52  1  6
 54 55  1  0
 54 53  1  0
 55 56  2  0
 57 58  1  0
 57 55  1  0
 59 58  1  0
 60 71  2  0
 61 59  1  0
 61 66  1  0
 62 70  1  0
 62 72  1  0
 63 69  1  0
 63 65  1  0
 64 70  1  0
 65 64  1  0
 66 65  2  0
 67 68  1  0
 67 61  2  0
 68 63  2  0
 69 62  1  0
 70 60  1  0
 72 74  2  0
 73 72  1  0
 75 73  1  0
 76 85  2  0
 76 81  1  0
 77 73  1  0
 77 81  1  0
 78 77  1  0
 79 80  1  0
 79 78  1  0
 80 76  1  0
 81 82  2  0
 82 83  1  0
 84 83  2  0
 85 84  1  0
 86 60  1  0
 86 91  1  0
 86 87  1  0
 87 90  1  1
 87 88  1  0
 89 87  1  0
 91 94  1  0
 92 96  1  0
 92 91  1  0
 93 92  2  0
 96 95  1  0
 98 96  1  0
 98 99  1  0
 98 97  1  0
M  ISO  4   9 100  17 100  58 101  59 101
M  END
>  <TORSDO>  (37) 
F 23

>  <SCORE>  (37) 
-12.522

>  <name>  (37) 
36

>  <ligand_id>  (37) 
36

>  <original_smiles>  (37) 
[H]c1c([H])c([H])c2c(c1[H])C([H])([H])C([H])([H])C([H])([H])C2([H])N([H])C(=O)C1([H])N(C(=O)C([H])(N([H])C(=O)C([H])(N([H])C([H])([H])[H])C([H])([H])[H])C(C([H])([H])[H])(C([H])([H])[H])C([H])([H])[H])C([H])([H])c2c([H])c(OC([H])([H])C([H])([H])C(=O)C(C([H])([H])[H])(C([H])([H])[H])C([H])(c3c([H])c(N([H])C(=O)N4C([H])([H])C([H])([H])C([H])([H])C([H])(n5nc(-c6c([H])c([H])c(Oc7c([H])c([H])c(F)c([H])c7F)c([H])c6[H])c(C(=O)N([H])[H])c5N([H])[H])C4([H])[H])c([H])c(C([H])([H])[N+]([H])([H])[H])c3[H])C([H])([H])[H])c([H])c([H])c2C1([H])[H]

>  <smiles>  (37) 
[H]c1c([H])c([H])c2c(c1[H])C([H])([H])C([H])([H])C([H])([H])C2([H])N([H])C(=O)C1([H])N(C(=O)C([H])(N([H])C(=O)C([H])(N([H])C([H])([H])[H])C([H])([H])[H])C(C([H])([H])[H])(C([H])([H])[H])C([H])([H])[H])C([H])([H])c2c([H])c(OC([H])([H])C([H])([H])C(=O)C(C([H])([H])[H])(C([H])([H])[H])C([H])(c3c([H])c(N([H])C(=O)N4C([H])([H])C([H])([H])C([H])([H])C([H])(n5nc(-c6c([H])c([H])c(Oc7c([H])c([H])c(F)c([H])c7F)c([H])c6[H])c(C(=O)N([H])[H])c5N([H])[H])C4([H])[H])c([H])c(C([H])([H])[N+]([H])([H])[H])c3[H])C([H])([H])[H])c([H])c([H])c2C1([H])[H]

$$$$
37:0:0
     RDKit          3D

 94103  0  0  1  0  0  0  0  0999 V2000
  -28.6880  -20.4780   20.9770 C   0  0  0  0  0  0  0  0  0  0  0  0
  -30.4120  -23.7640   20.3340 C   0  0  0  0  0  2  0  0  0  0  0  0
  -30.4570  -22.2120   20.3450 C   0  0  0  0  0  2  0  0  0  0  0  0
  -28.3490  -22.9580   21.1340 C   0  0  0  0  0  2  0  0  0  0  0  0
  -28.9240  -24.1480   20.3120 C   0  0  2  0  0  0  0  0  0  0  0  0
  -28.3740  -24.0650   18.8770 C   0  0  0  0  0  1  0  0  0  0  0  0
  -29.1350  -21.7570   20.7830 N   0  0  0  0  0  0  0  0  0  0  0  0
  -27.6970  -20.2720   21.6850 O   0  0  0  0  0  0  0  0  0  0  0  0
  -29.6420  -18.0560   21.0260 C   0  0  0  0  0  3  0  0  0  0  0  0
  -29.3610  -19.2800   20.3100 C   0  0  0  0  0  0  0  0  0  0  0  0
  -29.5890  -19.1190   18.9560 C   0  0  0  0  0  0  0  0  0  0  0  0
  -30.1190  -17.0040   20.2650 C   0  0  0  0  0  0  0  0  0  0  0  0
  -29.2610  -20.0220   17.8040 C   0  0  0  0  0  1  0  0  0  0  0  0
  -30.2730  -17.5430   18.6070 S   0  0  0  0  0  0  0  0  0  0  0  0
  -30.9930  -14.7220   20.0130 C   0  0  0  0  0  0  0  0  0  0  0  0
  -30.6950  -12.5210   18.9250 C   0  0  0  0  0  2  0  0  0  0  0  0
  -29.6910  -12.6920   17.7620 C   0  0  0  0  0  2  0  0  0  0  0  0
  -28.2410  -12.5490   18.2660 C   0  0  0  0  0  2  0  0  0  0  0  0
  -27.9570  -13.4080   19.5270 C   0  0  0  0  0  3  0  0  0  0  0  0
  -29.0640  -13.2050   20.5870 C   0  0  0  0  0  2  0  0  0  0  0  0
  -30.3610  -13.5150   19.9610 N   0  0  0  0  0  0  0  0  0  0  0  0
  -32.0730  -14.9280   19.4510 O   0  0  0  0  0  0  0  0  0  0  0  0
  -30.3260  -15.7070   20.6680 N   0  0  0  0  0  0  0  0  0  0  0  0
  -29.6540  -15.3610   21.3340 H   0  0  0  0  0  0  0  0  0  0  0  0
  -25.6220  -14.0310   20.4100 C   0  0  0  0  0  0  0  0  0  0  0  0
  -24.5620  -13.2650   20.8130 C   0  0  0  0  0  0  0  0  0  0  0  0
  -24.9900  -11.9060   20.6970 C   0  0  0  0  0  0  0  0  0  0  0  0
  -26.6300  -13.1400   20.0760 N   0  0  0  0  0  0  0  0  0  0  0  0
  -26.2570  -11.8550   20.3070 N   0  0  0  0  0  0  0  0  0  0  0  0
  -24.2500  -10.6520   20.8820 C   0  0  0  0  0  0  0  0  0  0  0  0
  -24.6510   -9.6900   21.8350 C   0  0  0  0  0  3  0  0  0  0  0  0
  -23.9120   -8.4990   22.0030 C   0  0  0  0  0  3  0  0  0  0  0  0
  -22.7600   -8.2620   21.2190 C   0  0  0  0  0  0  0  0  0  0  0  0
  -22.3770   -9.2120   20.2550 C   0  0  0  0  0  3  0  0  0  0  0  0
  -23.1160  -10.3950   20.0850 C   0  0  0  0  0  3  0  0  0  0  0  0
  -21.9940   -7.1240   21.2980 O   0  0  0  0  0  0  0  0  0  0  0  0
  -21.8190   -6.4530   22.4820 C   0  0  0  0  0  0  0  0  0  0  0  0
  -21.2200   -7.0650   23.6040 C   0  0  0  0  0  3  0  0  0  0  0  0
  -20.9950   -6.3180   24.7770 C   0  0  0  0  0  3  0  0  0  0  0  0
  -21.3620   -4.9610   24.8300 C   0  0  0  0  0  0  0  0  0  0  0  0
  -21.9540   -4.3470   23.7120 C   0  0  0  0  0  3  0  0  0  0  0  0
  -22.1790   -5.0910   22.5400 C   0  0  0  0  0  0  0  0  0  0  0  0
  -22.7320   -4.4890   21.4590 F   0  0  0  0  0  0  0  0  0  0  0  0
  -21.1380   -4.2400   25.9530 F   0  0  0  0  0  0  0  0  0  0  0  0
  -23.1940  -13.7570   21.1920 C   0  0  0  0  0  0  0  0  0  0  0  0
  -22.5070  -13.0450   22.0790 N   0  0  0  0  0  0  0  0  0  0  0  0
  -22.7450  -14.8080   20.7350 O   0  0  0  0  0  0  0  0  0  0  0  0
  -22.8820  -12.1960   22.4740 H   0  0  0  0  0  0  0  0  0  0  0  0
  -21.5930  -13.3590   22.3710 H   0  0  0  0  0  0  0  0  0  0  0  0
  -25.8070  -15.4060   20.2840 N   0  0  0  0  0  0  0  0  0  0  0  0
  -25.0740  -16.0730   20.5080 H   0  0  0  0  0  0  0  0  0  0  0  0
  -26.6490  -15.8430   19.9330 H   0  0  0  0  0  0  0  0  0  0  0  0
  -28.5840  -25.5610   20.9270 C   0  0  0  0  0  2  0  0  0  0  0  0
  -28.7170  -26.7420   20.0730 O   0  0  0  0  0  0  0  0  0  0  0  0
  -24.7220  -31.7500   23.2250 C   0  0  0  0  0  0  0  0  0  0  0  0
  -27.5780  -27.5290   20.0150 C   0  0  0  0  0  0  0  0  0  0  0  0
  -23.6020  -30.3900   21.4910 C   0  0  0  0  0  3  0  0  0  0  0  0
  -25.1410  -28.9840   20.0160 C   0  0  0  0  0  0  0  0  0  0  0  0
  -26.1190  -30.8490   21.3600 C   0  0  0  0  0  2  0  0  0  0  0  0
  -26.2710  -29.5150   20.6530 C   0  0  0  0  0  0  0  0  0  0  0  0
  -27.4970  -28.7980   20.6440 C   0  0  0  0  0  3  0  0  0  0  0  0
  -26.4340  -27.0340   19.3540 C   0  0  0  0  0  3  0  0  0  0  0  0
  -25.2210  -27.7460   19.3570 C   0  0  0  0  0  3  0  0  0  0  0  0
  -23.8630  -29.7910   20.0840 C   0  0  0  0  0  2  0  0  0  0  0  0
  -24.8310  -31.0090   22.0850 N   0  0  0  0  0  0  0  0  0  0  0  0
  -23.6210  -31.9530   23.7570 O   0  0  0  0  0  0  0  0  0  0  0  0
  -22.9740  -29.2960   22.3880 C   0  0  0  0  0  0  0  0  0  0  0  0
  -21.6610  -29.0670   22.2250 N   0  0  0  0  0  0  0  0  0  0  0  0
  -23.6660  -28.6590   23.1850 O   0  0  0  0  0  0  0  0  0  0  0  0
  -21.1620  -29.6360   21.5550 H   0  0  0  0  0  0  0  0  0  0  0  0
  -18.3230  -27.7370   22.6210 C   0  0  0  0  0  0  0  0  0  0  0  0
  -20.8690  -28.0610   22.9320 C   0  0  0  0  0  3  0  0  0  0  0  0
  -21.0200  -26.6690   22.2740 C   0  0  0  0  0  2  0  0  0  0  0  0
  -19.9380  -26.3730   21.2310 C   0  0  0  0  0  2  0  0  0  0  0  0
  -18.5470  -26.4370   21.8670 C   0  0  0  0  0  2  0  0  0  0  0  0
  -19.4130  -28.5080   23.1070 C   0  0  0  0  0  0  0  0  0  0  0  0
  -19.1490  -29.7260   23.7690 C   0  0  0  0  0  3  0  0  0  0  0  0
  -17.8270  -30.1730   23.9530 C   0  0  0  0  0  3  0  0  0  0  0  0
  -16.7520  -29.4000   23.4820 C   0  0  0  0  0  3  0  0  0  0  0  0
  -17.0000  -28.1840   22.8230 C   0  0  0  0  0  3  0  0  0  0  0  0
  -25.9700  -32.3980   23.9000 C   0  0  0  0  0  3  0  0  0  0  0  0
  -25.6130  -33.7760   24.2620 N   0  0  0  0  0  0  0  0  0  0  0  0
  -25.9280  -34.8590   23.5400 C   0  0  0  0  0  0  0  0  0  0  0  0
  -26.6220  -34.8050   22.5200 O   0  0  0  0  0  0  0  0  0  0  0  0
  -24.9950  -33.8900   25.0530 H   0  0  0  0  0  0  0  0  0  0  0  0
  -24.1510  -36.6050   23.1970 C   0  0  0  0  0  1  0  0  0  0  0  0
  -25.3870  -36.2180   24.0240 C   0  0  0  0  0  3  0  0  0  0  0  0
  -27.4720  -37.1490   24.9280 C   0  0  0  0  0  1  0  0  0  0  0  0
  -26.3880  -37.3050   23.9620 N   0  0  0  0  0  0  0  0  0  0  0  0
  -25.9490  -38.2080   24.1230 H   0  0  0  0  0  0  0  0  0  0  0  0
  -26.4770  -31.6020   25.1640 C   0  0  1  0  0  0  0  0  0  0  0  0
  -25.3640  -31.3020   26.1960 C   0  0  0  0  0  1  0  0  0  0  0  0
  -27.1090  -30.2550   24.7460 C   0  0  0  0  0  1  0  0  0  0  0  0
  -27.5850  -32.4100   25.8810 C   0  0  0  0  0  1  0  0  0  0  0  0
  1  8  2  0
  2  3  1  0
  3  7  1  0
  5  6  1  6
  5  2  1  0
  5 53  1  0
  5  4  1  0
  7  1  1  0
  7  4  1  0
 10  1  1  0
 10  9  1  0
 11 10  2  0
 12 23  1  0
 12  9  2  0
 13 11  1  0
 14 11  1  0
 14 12  1  0
 15 23  1  0
 16 21  1  0
 17 18  1  0
 17 16  1  0
 19 18  1  0
 19 28  1  0
 19 20  1  0
 21 15  1  0
 21 20  1  0
 22 15  2  0
 23 24  1  0
 25 26  2  0
 26 45  1  0
 27 26  1  0
 27 30  1  0
 28 29  1  0
 28 25  1  0
 29 27  2  0
 30 31  1  0
 31 32  2  0
 33 36  1  0
 33 32  1  0
 34 33  2  0
 35 34  1  0
 35 30  2  0
 36 37  1  0
 37 42  2  0
 37 38  1  0
 38 39  2  0
 39 40  1  0
 40 44  1  0
 41 40  2  0
 42 41  1  0
 43 42  1  0
 45 46  1  0
 46 49  1  0
 46 48  1  0
 47 45  2  0
 50 25  1  0
 50 51  1  0
 52 50  1  0
 54 53  1  0
 55 66  2  0
 56 54  1  0
 56 61  1  0
 57 65  1  0
 57 67  1  0
 58 64  1  0
 58 60  1  0
 59 65  1  0
 60 59  1  0
 61 60  2  0
 62 63  1  0
 62 56  2  0
 63 58  2  0
 64 57  1  0
 65 55  1  0
 67 69  2  0
 68 67  1  0
 70 68  1  0
 71 80  2  0
 71 76  1  0
 72 68  1  0
 72 76  1  0
 73 72  1  0
 74 75  1  0
 74 73  1  0
 75 71  1  0
 76 77  2  0
 77 78  1  0
 79 78  2  0
 80 79  1  0
 81 55  1  0
 81 82  1  0
 81 91  1  0
 82 85  1  0
 83 87  1  0
 83 82  1  0
 84 83  2  0
 87 86  1  0
 89 87  1  0
 89 90  1  0
 89 88  1  0
 91 94  1  1
 91 92  1  0
 93 91  1  0
M  ISO  4  15 100  23 100  53 101  54 101
M  END
>  <TORSDO>  (38) 
F 18

>  <SCORE>  (38) 
-12.800

>  <name>  (38) 
37

>  <ligand_id>  (38) 
37

>  <original_smiles>  (38) 
[H]c1c([H])c([H])c2c(c1[H])C([H])([H])C([H])([H])C([H])([H])C2([H])N([H])C(=O)C1([H])N(C(=O)C([H])(N([H])C(=O)C([H])(N([H])C([H])([H])[H])C([H])([H])[H])C(C([H])([H])[H])(C([H])([H])[H])C([H])([H])[H])C([H])([H])c2c([H])c(OC([H])([H])C3(C([H])([H])[H])C([H])([H])N(C(=O)c4c(C([H])([H])[H])sc(N([H])C(=O)N5C([H])([H])C([H])([H])C([H])([H])C([H])(n6nc(-c7c([H])c([H])c(Oc8c([H])c([H])c(F)c([H])c8F)c([H])c7[H])c(C(=O)N([H])[H])c6N([H])[H])C5([H])[H])c4[H])C([H])([H])C3([H])[H])c([H])c([H])c2C1([H])[H]

>  <smiles>  (38) 
[H]c1c([H])c([H])c2c(c1[H])C([H])([H])C([H])([H])C([H])([H])C2([H])N([H])C(=O)C1([H])N(C(=O)C([H])(N([H])C(=O)C([H])(N([H])C([H])([H])[H])C([H])([H])[H])C(C([H])([H])[H])(C([H])([H])[H])C([H])([H])[H])C([H])([H])c2c([H])c(OC([H])([H])C3(C([H])([H])[H])C([H])([H])N(C(=O)c4c(C([H])([H])[H])sc(N([H])C(=O)N5C([H])([H])C([H])([H])C([H])([H])C([H])(n6nc(-c7c([H])c([H])c(Oc8c([H])c([H])c(F)c([H])c8F)c([H])c7[H])c(C(=O)N([H])[H])c6N([H])[H])C5([H])[H])c4[H])C([H])([H])C3([H])[H])c([H])c([H])c2C1([H])[H]

$$$$
38:0:0
     RDKit          3D

 94102  0  0  1  0  0  0  0  0999 V2000
  -30.0550  -22.0170   22.2360 C   0  0  0  0  0  1  0  0  0  0  0  0
  -29.3500  -21.9810   20.8560 C   0  0  2  0  0  0  0  0  0  0  0  0
  -31.1160  -19.5280   18.2380 C   0  0  0  0  0  3  0  0  0  0  0  0
  -30.6010  -20.6610   18.9120 C   0  0  0  0  0  3  0  0  0  0  0  0
  -31.0420  -18.2100   18.7560 C   0  0  0  0  0  3  0  0  0  0  0  0
  -29.9020  -19.1500   20.6710 C   0  0  0  0  0  3  0  0  0  0  0  0
  -29.9410  -20.5660   20.1590 C   0  0  0  0  0  0  0  0  0  0  0  0
  -30.4400  -17.9210   20.0040 C   0  0  0  0  0  0  0  0  0  0  0  0
  -31.0050  -15.2300   19.9850 C   0  0  0  0  0  0  0  0  0  0  0  0
  -30.7510  -12.9090   18.9760 C   0  0  0  0  0  2  0  0  0  0  0  0
  -29.7530  -12.9400   17.7940 C   0  0  0  0  0  2  0  0  0  0  0  0
  -28.3170  -12.7370   18.3030 C   0  0  0  0  0  2  0  0  0  0  0  0
  -28.0050  -13.6200   19.5360 C   0  0  0  0  0  3  0  0  0  0  0  0
  -29.1190  -13.5750   20.6060 C   0  0  0  0  0  2  0  0  0  0  0  0
  -30.3720  -13.9810   19.9520 N   0  0  0  0  0  0  0  0  0  0  0  0
  -32.1560  -15.2620   19.5360 O   0  0  0  0  0  0  0  0  0  0  0  0
  -30.3470  -16.4290   20.4150 N   0  0  0  0  0  0  0  0  0  0  0  0
  -29.5650  -16.2290   21.0210 H   0  0  0  0  0  0  0  0  0  0  0  0
  -25.6990  -14.2390   20.4390 C   0  0  0  0  0  0  0  0  0  0  0  0
  -24.6180  -13.4890   20.8170 C   0  0  0  0  0  0  0  0  0  0  0  0
  -25.0170  -12.1240   20.6770 C   0  0  0  0  0  0  0  0  0  0  0  0
  -26.6830  -13.3370   20.0820 N   0  0  0  0  0  0  0  0  0  0  0  0
  -26.2850  -12.0520   20.2830 N   0  0  0  0  0  0  0  0  0  0  0  0
  -24.2430  -10.8840   20.8350 C   0  0  0  0  0  0  0  0  0  0  0  0
  -24.6390   -9.8760   21.7410 C   0  0  0  0  0  3  0  0  0  0  0  0
  -23.8730   -8.6990   21.8860 C   0  0  0  0  0  3  0  0  0  0  0  0
  -22.6950   -8.5220   21.1210 C   0  0  0  0  0  0  0  0  0  0  0  0
  -22.3140   -9.5180   20.2040 C   0  0  0  0  0  3  0  0  0  0  0  0
  -23.0830  -10.6850   20.0610 C   0  0  0  0  0  3  0  0  0  0  0  0
  -21.9050   -7.3990   21.1780 O   0  0  0  0  0  0  0  0  0  0  0  0
  -21.7620   -6.6750   22.3350 C   0  0  0  0  0  0  0  0  0  0  0  0
  -21.2850   -7.2620   23.5270 C   0  0  0  0  0  3  0  0  0  0  0  0
  -21.0860   -6.4670   24.6710 C   0  0  0  0  0  3  0  0  0  0  0  0
  -21.3530   -5.0860   24.6290 C   0  0  0  0  0  0  0  0  0  0  0  0
  -21.8190   -4.4970   23.4410 C   0  0  0  0  0  3  0  0  0  0  0  0
  -22.0210   -5.2890   22.2960 C   0  0  0  0  0  0  0  0  0  0  0  0
  -22.4520   -4.7120   21.1490 F   0  0  0  0  0  0  0  0  0  0  0  0
  -21.1550   -4.3230   25.7280 F   0  0  0  0  0  0  0  0  0  0  0  0
  -23.2650  -14.0090   21.1970 C   0  0  0  0  0  0  0  0  0  0  0  0
  -22.5540  -13.3060   22.0710 N   0  0  0  0  0  0  0  0  0  0  0  0
  -22.8450  -15.0790   20.7500 O   0  0  0  0  0  0  0  0  0  0  0  0
  -22.9000  -12.4400   22.4510 H   0  0  0  0  0  0  0  0  0  0  0  0
  -21.6490  -13.6480   22.3620 H   0  0  0  0  0  0  0  0  0  0  0  0
  -25.9270  -15.6070   20.3430 N   0  0  0  0  0  0  0  0  0  0  0  0
  -25.2470  -16.2990   20.6350 H   0  0  0  0  0  0  0  0  0  0  0  0
  -26.7680  -16.0100   19.9550 H   0  0  0  0  0  0  0  0  0  0  0  0
  -30.9990  -23.9970   20.2470 C   0  0  0  0  0  1  0  0  0  0  0  0
  -29.5150  -23.5840   20.1870 C   0  0  1  0  0  0  0  0  0  0  0  0
  -29.2170  -23.4360   18.8960 F   0  0  0  0  0  0  0  0  0  0  0  0
  -28.8670  -25.4440   22.0460 C   0  0  0  0  0  1  0  0  0  0  0  0
  -28.6140  -25.0020   20.5890 C   0  0  0  0  0  3  0  0  0  0  0  0
  -28.6370  -26.3910   19.8710 O   0  0  0  0  0  0  0  0  0  0  0  0
  -24.7150  -31.7750   23.0150 C   0  0  0  0  0  0  0  0  0  0  0  0
  -27.5110  -27.2980   19.8710 C   0  0  0  0  0  0  0  0  0  0  0  0
  -23.5710  -30.3870   21.3240 C   0  0  0  0  0  3  0  0  0  0  0  0
  -25.0940  -28.9220   19.8580 C   0  0  0  0  0  0  0  0  0  0  0  0
  -26.1080  -30.7810   21.1700 C   0  0  0  0  0  2  0  0  0  0  0  0
  -26.2480  -29.4150   20.4780 C   0  0  0  0  0  0  0  0  0  0  0  0
  -27.4580  -28.6250   20.4590 C   0  0  0  0  0  3  0  0  0  0  0  0
  -26.3280  -26.8990   19.2120 C   0  0  0  0  0  3  0  0  0  0  0  0
  -25.1450  -27.6760   19.2070 C   0  0  0  0  0  3  0  0  0  0  0  0
  -23.8250  -29.7620   19.9250 C   0  0  0  0  0  2  0  0  0  0  0  0
  -24.8150  -30.9990   21.8950 N   0  0  0  0  0  0  0  0  0  0  0  0
  -23.6200  -31.9960   23.5550 O   0  0  0  0  0  0  0  0  0  0  0  0
  -22.9340  -29.3230   22.2540 C   0  0  0  0  0  0  0  0  0  0  0  0
  -21.6110  -29.1160   22.1350 N   0  0  0  0  0  0  0  0  0  0  0  0
  -23.6330  -28.6870   23.0460 O   0  0  0  0  0  0  0  0  0  0  0  0
  -21.0970  -29.6820   21.4740 H   0  0  0  0  0  0  0  0  0  0  0  0
  -18.2670  -27.8330   22.6720 C   0  0  0  0  0  0  0  0  0  0  0  0
  -20.8280  -28.1230   22.8770 C   0  0  0  0  0  3  0  0  0  0  0  0
  -20.9330  -26.7250   22.2210 C   0  0  0  0  0  2  0  0  0  0  0  0
  -19.8060  -26.4410   21.2240 C   0  0  0  0  0  2  0  0  0  0  0  0
  -18.4430  -26.5270   21.9160 C   0  0  0  0  0  2  0  0  0  0  0  0
  -19.3850  -28.5890   23.1110 C   0  0  0  0  0  0  0  0  0  0  0  0
  -19.1650  -29.8130   23.7810 C   0  0  0  0  0  3  0  0  0  0  0  0
  -17.8560  -30.2790   24.0150 C   0  0  0  0  0  3  0  0  0  0  0  0
  -16.7540  -29.5190   23.5890 C   0  0  0  0  0  3  0  0  0  0  0  0
  -16.9590  -28.2970   22.9240 C   0  0  0  0  0  3  0  0  0  0  0  0
  -25.9700  -32.4380   23.6640 C   0  0  0  0  0  3  0  0  0  0  0  0
  -26.5100  -31.6480   24.9190 C   0  0  1  0  0  0  0  0  0  0  0  0
  -25.4250  -31.3430   25.9770 C   0  0  0  0  0  1  0  0  0  0  0  0
  -27.1400  -30.3000   24.4950 C   0  0  0  0  0  1  0  0  0  0  0  0
  -27.6310  -32.4610   25.6070 C   0  0  0  0  0  1  0  0  0  0  0  0
  -25.6040  -33.8120   24.0420 N   0  0  0  0  0  0  0  0  0  0  0  0
  -25.8940  -34.9040   23.3200 C   0  0  0  0  0  0  0  0  0  0  0  0
  -26.5640  -34.8610   22.2850 O   0  0  0  0  0  0  0  0  0  0  0  0
  -25.0030  -33.9150   24.8450 H   0  0  0  0  0  0  0  0  0  0  0  0
  -24.0960  -36.6410   23.0390 C   0  0  0  0  0  1  0  0  0  0  0  0
  -25.3580  -36.2570   23.8270 C   0  0  0  0  0  3  0  0  0  0  0  0
  -27.4640  -37.1990   24.6710 C   0  0  0  0  0  1  0  0  0  0  0  0
  -26.3480  -37.3530   23.7420 N   0  0  0  0  0  0  0  0  0  0  0  0
  -25.9070  -38.2510   23.9180 H   0  0  0  0  0  0  0  0  0  0  0  0
  -27.2980  -21.0580   22.2800 C   0  0  0  0  0  1  0  0  0  0  0  0
  -27.8110  -21.8050   21.0380 C   0  0  0  0  0  2  0  0  0  0  0  0
  2 94  1  0
  2  1  1  1
  3  5  2  0
  3  4  1  0
  4  7  2  0
  5  8  1  0
  7  6  1  0
  7  2  1  0
  8 17  1  0
  8  6  2  0
  9 17  1  0
 10 15  1  0
 11 12  1  0
 11 10  1  0
 13 12  1  0
 13 22  1  0
 13 14  1  0
 15  9  1  0
 15 14  1  0
 16  9  2  0
 17 18  1  0
 19 20  2  0
 20 39  1  0
 21 20  1  0
 21 24  1  0
 22 23  1  0
 22 19  1  0
 23 21  2  0
 24 25  1  0
 25 26  2  0
 27 30  1  0
 27 26  1  0
 28 27  2  0
 29 28  1  0
 29 24  2  0
 30 31  1  0
 31 32  1  0
 32 33  2  0
 34 33  1  0
 34 38  1  0
 35 34  2  0
 36 31  2  0
 36 35  1  0
 37 36  1  0
 39 40  1  0
 40 43  1  0
 40 42  1  0
 41 39  2  0
 44 19  1  0
 44 45  1  0
 46 44  1  0
 48 47  1  6
 48 51  1  0
 48  2  1  0
 49 48  1  0
 51 50  1  0
 52 54  1  0
 52 51  1  0
 53 64  2  0
 54 59  1  0
 55 63  1  0
 55 65  1  0
 56 62  1  0
 56 58  1  0
 57 63  1  0
 58 57  1  0
 59 58  2  0
 60 54  2  0
 61 60  1  0
 61 56  2  0
 62 55  1  0
 63 53  1  0
 65 67  2  0
 66 65  1  0
 68 66  1  0
 69 78  2  0
 69 74  1  0
 70 66  1  0
 70 74  1  0
 71 70  1  0
 72 73  1  0
 72 71  1  0
 73 69  1  0
 74 75  2  0
 75 76  1  0
 77 76  2  0
 78 77  1  0
 79 53  1  0
 79 84  1  0
 79 80  1  0
 80 83  1  1
 80 81  1  0
 82 80  1  0
 84 87  1  0
 85 89  1  0
 85 84  1  0
 86 85  2  0
 89 88  1  0
 91 89  1  0
 91 92  1  0
 91 90  1  0
 94 93  1  0
M  ISO  4   9 100  17 100  51 101  52 101
M  END
>  <TORSDO>  (39) 
F 20

>  <SCORE>  (39) 
-10.652

>  <name>  (39) 
38

>  <ligand_id>  (39) 
38

>  <original_smiles>  (39) 
[H]c1c([H])c([H])c2c(c1[H])C([H])([H])C([H])([H])C([H])([H])C2([H])N([H])C(=O)C1([H])N(C(=O)C([H])(N([H])C(=O)C([H])(N([H])C([H])([H])[H])C([H])([H])[H])C(C([H])([H])[H])(C([H])([H])[H])C([H])([H])[H])C([H])([H])c2c([H])c(OC([H])(C([H])([H])[H])C(F)(C([H])([H])[H])C(c3c([H])c([H])c([H])c(N([H])C(=O)N4C([H])([H])C([H])([H])C([H])([H])C([H])(n5nc(-c6c([H])c([H])c(Oc7c([H])c([H])c(F)c([H])c7F)c([H])c6[H])c(C(=O)N([H])[H])c5N([H])[H])C4([H])[H])c3[H])(C([H])([H])[H])C([H])([H])C([H])([H])[H])c([H])c([H])c2C1([H])[H]

>  <smiles>  (39) 
[H]c1c([H])c([H])c2c(c1[H])C([H])([H])C([H])([H])C([H])([H])C2([H])N([H])C(=O)C1([H])N(C(=O)C([H])(N([H])C(=O)C([H])(N([H])C([H])([H])[H])C([H])([H])[H])C(C([H])([H])[H])(C([H])([H])[H])C([H])([H])[H])C([H])([H])c2c([H])c(OC([H])(C([H])([H])[H])C(F)(C([H])([H])[H])C(c3c([H])c([H])c([H])c(N([H])C(=O)N4C([H])([H])C([H])([H])C([H])([H])C([H])(n5nc(-c6c([H])c([H])c(Oc7c([H])c([H])c(F)c([H])c7F)c([H])c6[H])c(C(=O)N([H])[H])c5N([H])[H])C4([H])[H])c3[H])(C([H])([H])[H])C([H])([H])C([H])([H])[H])c([H])c([H])c2C1([H])[H]

$$$$
39:0:0
     RDKit          3D

 95104  0  0  1  0  0  0  0  0999 V2000
  -28.5930  -24.4020   20.1660 C   0  0  0  0  0  0  0  0  0  0  0  0
  -28.4070  -25.4370   19.2950 C   0  0  0  0  0  3  0  0  0  0  0  0
  -29.5200  -20.9310   21.4470 C   0  0  0  0  0  3  0  0  0  0  0  0
  -28.5370  -24.5460   21.6600 C   0  0  0  0  0  2  0  0  0  0  0  0
  -28.9310  -22.9260   19.8290 C   0  0  0  0  0  2  0  0  0  0  0  0
  -28.5880  -23.1200   22.2190 C   0  0  0  0  0  2  0  0  0  0  0  0
  -29.0600  -22.2060   21.1430 N   0  0  0  0  0  0  0  0  0  0  0  0
  -29.4020  -20.5580   22.7230 N   0  0  0  0  0  0  0  0  0  0  0  0
  -29.8040  -19.6770   23.0040 H   0  0  0  0  0  0  0  0  0  0  0  0
  -28.9420  -21.1190   23.4170 H   0  0  0  0  0  0  0  0  0  0  0  0
  -31.9660  -19.3060   19.0030 C   0  0  0  0  0  3  0  0  0  0  0  0
  -31.2280  -20.2820   19.6990 C   0  0  0  0  0  3  0  0  0  0  0  0
  -31.7220  -17.9310   19.1940 C   0  0  0  0  0  3  0  0  0  0  0  0
  -29.9440  -18.4960   20.7460 C   0  0  0  0  0  3  0  0  0  0  0  0
  -30.1930  -19.9050   20.5790 C   0  0  0  0  0  0  0  0  0  0  0  0
  -30.7230  -17.4810   20.0960 C   0  0  0  0  0  0  0  0  0  0  0  0
  -31.2220  -14.9630   20.0160 C   0  0  0  0  0  0  0  0  0  0  0  0
  -30.9220  -12.7370   18.9810 C   0  0  0  0  0  2  0  0  0  0  0  0
  -29.9540  -12.8930   17.7880 C   0  0  0  0  0  2  0  0  0  0  0  0
  -28.4900  -12.7650   18.2560 C   0  0  0  0  0  2  0  0  0  0  0  0
  -28.1790  -13.6310   19.5070 C   0  0  0  0  0  3  0  0  0  0  0  0
  -29.2660  -13.4670   20.5930 C   0  0  0  0  0  2  0  0  0  0  0  0
  -30.5650  -13.7660   19.9750 N   0  0  0  0  0  0  0  0  0  0  0  0
  -32.3850  -15.0560   19.6150 O   0  0  0  0  0  0  0  0  0  0  0  0
  -30.4790  -16.0630   20.3510 N   0  0  0  0  0  0  0  0  0  0  0  0
  -29.5810  -15.8420   20.7560 H   0  0  0  0  0  0  0  0  0  0  0  0
  -25.8250  -14.2590   20.3220 C   0  0  0  0  0  0  0  0  0  0  0  0
  -24.7560  -13.4970   20.7090 C   0  0  0  0  0  0  0  0  0  0  0  0
  -25.1890  -12.1380   20.6290 C   0  0  0  0  0  0  0  0  0  0  0  0
  -26.8430  -13.3650   20.0300 N   0  0  0  0  0  0  0  0  0  0  0  0
  -26.4670  -12.0830   20.2760 N   0  0  0  0  0  0  0  0  0  0  0  0
  -24.4450  -10.8860   20.8130 C   0  0  0  0  0  0  0  0  0  0  0  0
  -24.8160   -9.9440   21.7970 C   0  0  0  0  0  3  0  0  0  0  0  0
  -24.0710   -8.7560   21.9680 C   0  0  0  0  0  3  0  0  0  0  0  0
  -22.9420   -8.5030   21.1530 C   0  0  0  0  0  0  0  0  0  0  0  0
  -22.5910   -9.4330   20.1590 C   0  0  0  0  0  3  0  0  0  0  0  0
  -23.3360  -10.6120   19.9880 C   0  0  0  0  0  3  0  0  0  0  0  0
  -22.1750   -7.3650   21.2290 O   0  0  0  0  0  0  0  0  0  0  0  0
  -21.9490   -6.7290   22.4240 C   0  0  0  0  0  0  0  0  0  0  0  0
  -21.3360   -7.3870   23.5130 C   0  0  0  0  0  3  0  0  0  0  0  0
  -21.0580   -6.6760   24.6980 C   0  0  0  0  0  3  0  0  0  0  0  0
  -21.3800   -5.3090   24.7920 C   0  0  0  0  0  0  0  0  0  0  0  0
  -21.9850   -4.6520   23.7060 C   0  0  0  0  0  3  0  0  0  0  0  0
  -22.2650   -5.3590   22.5250 C   0  0  0  0  0  0  0  0  0  0  0  0
  -22.8270   -4.7150   21.4730 F   0  0  0  0  0  0  0  0  0  0  0  0
  -21.1060   -4.6250   25.9280 F   0  0  0  0  0  0  0  0  0  0  0  0
  -23.3780  -13.9940   21.0380 C   0  0  0  0  0  0  0  0  0  0  0  0
  -22.6730  -13.3020   21.9250 N   0  0  0  0  0  0  0  0  0  0  0  0
  -22.9380  -15.0320   20.5450 O   0  0  0  0  0  0  0  0  0  0  0  0
  -23.0430  -12.4620   22.3460 H   0  0  0  0  0  0  0  0  0  0  0  0
  -21.7490  -13.6150   22.1870 H   0  0  0  0  0  0  0  0  0  0  0  0
  -26.0090  -15.6300   20.1700 N   0  0  0  0  0  0  0  0  0  0  0  0
  -25.2500  -16.2880   20.3050 H   0  0  0  0  0  0  0  0  0  0  0  0
  -26.8380  -16.0580   19.7770 H   0  0  0  0  0  0  0  0  0  0  0  0
  -28.3330  -26.7910   19.6380 O   0  0  0  0  0  0  0  0  0  0  0  0
  -24.5020  -31.7690   23.0680 C   0  0  0  0  0  0  0  0  0  0  0  0
  -27.1430  -27.5140   19.6690 C   0  0  0  0  0  0  0  0  0  0  0  0
  -23.2740  -30.4050   21.4130 C   0  0  0  0  0  3  0  0  0  0  0  0
  -24.7120  -28.9850   19.8470 C   0  0  0  0  0  0  0  0  0  0  0  0
  -25.7810  -30.8450   21.1290 C   0  0  0  0  0  2  0  0  0  0  0  0
  -25.8800  -29.5070   20.4140 C   0  0  0  0  0  0  0  0  0  0  0  0
  -27.0950  -28.7780   20.3210 C   0  0  0  0  0  3  0  0  0  0  0  0
  -25.9530  -27.0240   19.0880 C   0  0  0  0  0  3  0  0  0  0  0  0
  -24.7470  -27.7480   19.1770 C   0  0  0  0  0  3  0  0  0  0  0  0
  -23.4460  -29.8050   19.9930 C   0  0  0  0  0  2  0  0  0  0  0  0
  -24.5400  -31.0210   21.9280 N   0  0  0  0  0  0  0  0  0  0  0  0
  -23.4350  -31.9780   23.6660 O   0  0  0  0  0  0  0  0  0  0  0  0
  -22.6980  -29.3190   22.3500 C   0  0  0  0  0  0  0  0  0  0  0  0
  -21.3820  -29.0630   22.2380 N   0  0  0  0  0  0  0  0  0  0  0  0
  -23.4290  -28.7080   23.1340 O   0  0  0  0  0  0  0  0  0  0  0  0
  -20.8470  -29.6070   21.5770 H   0  0  0  0  0  0  0  0  0  0  0  0
  -18.1070  -27.6110   22.7100 C   0  0  0  0  0  0  0  0  0  0  0  0
  -20.6390  -28.0550   22.9910 C   0  0  0  0  0  3  0  0  0  0  0  0
  -20.8480  -26.6450   22.3900 C   0  0  0  0  0  2  0  0  0  0  0  0
  -19.7730  -26.2610   21.3660 C   0  0  0  0  0  2  0  0  0  0  0  0
  -18.3840  -26.2920   22.0080 C   0  0  0  0  0  2  0  0  0  0  0  0
  -19.1650  -28.4450   23.1570 C   0  0  0  0  0  0  0  0  0  0  0  0
  -18.8510  -29.6780   23.7710 C   0  0  0  0  0  3  0  0  0  0  0  0
  -17.5130  -30.0760   23.9430 C   0  0  0  0  0  3  0  0  0  0  0  0
  -16.4700  -29.2400   23.5110 C   0  0  0  0  0  3  0  0  0  0  0  0
  -16.7670  -28.0100   22.8990 C   0  0  0  0  0  3  0  0  0  0  0  0
  -25.7900  -32.4180   23.6640 C   0  0  0  0  0  3  0  0  0  0  0  0
  -25.4430  -33.7780   24.0970 N   0  0  0  0  0  0  0  0  0  0  0  0
  -25.7040  -34.8900   23.3940 C   0  0  0  0  0  0  0  0  0  0  0  0
  -26.3340  -34.8770   22.3330 O   0  0  0  0  0  0  0  0  0  0  0  0
  -24.8770  -33.8580   24.9290 H   0  0  0  0  0  0  0  0  0  0  0  0
  -23.9000  -36.6310   23.2160 C   0  0  0  0  0  1  0  0  0  0  0  0
  -25.1840  -36.2250   23.9580 C   0  0  0  0  0  3  0  0  0  0  0  0
  -27.3120  -37.1370   24.7770 C   0  0  0  0  0  1  0  0  0  0  0  0
  -26.1730  -37.3220   23.8810 N   0  0  0  0  0  0  0  0  0  0  0  0
  -25.7390  -38.2150   24.0990 H   0  0  0  0  0  0  0  0  0  0  0  0
  -26.4020  -31.5950   24.8640 C   0  0  1  0  0  0  0  0  0  0  0  0
  -25.3770  -31.2500   25.9690 C   0  0  0  0  0  1  0  0  0  0  0  0
  -27.0160  -30.2690   24.3580 C   0  0  0  0  0  1  0  0  0  0  0  0
  -27.5560  -32.3950   25.5130 C   0  0  0  0  0  1  0  0  0  0  0  0
  1  4  1  0
  2 55  1  0
  2  1  2  0
  3  8  1  0
  4  6  1  0
  5  1  1  0
  5  7  1  0
  7  3  1  0
  7  6  1  0
  8  9  1  0
  8 10  1  0
 11 13  2  0
 11 12  1  0
 12 15  2  0
 13 16  1  0
 15 14  1  0
 15  3  1  0
 16 25  1  0
 16 14  2  0
 17 25  1  0
 18 23  1  0
 19 20  1  0
 19 18  1  0
 21 20  1  0
 21 30  1  0
 21 22  1  0
 23 17  1  0
 23 22  1  0
 24 17  2  0
 25 26  1  0
 27 28  2  0
 28 47  1  0
 29 28  1  0
 29 32  1  0
 30 31  1  0
 30 27  1  0
 31 29  2  0
 32 33  1  0
 33 34  2  0
 35 38  1  0
 35 34  1  0
 36 35  2  0
 37 36  1  0
 37 32  2  0
 38 39  1  0
 39 44  2  0
 39 40  1  0
 40 41  2  0
 41 42  1  0
 42 46  1  0
 43 42  2  0
 44 43  1  0
 45 44  1  0
 47 48  1  0
 48 51  1  0
 48 50  1  0
 49 47  2  0
 52 53  1  0
 52 27  1  0
 54 52  1  0
 55 57  1  0
 56 67  2  0
 57 62  1  0
 58 66  1  0
 58 68  1  0
 59 65  1  0
 59 61  1  0
 60 66  1  0
 61 60  1  0
 62 61  2  0
 63 64  1  0
 63 57  2  0
 64 59  2  0
 65 58  1  0
 66 56  1  0
 68 70  2  0
 69 68  1  0
 71 69  1  0
 72 81  2  0
 72 77  1  0
 73 69  1  0
 73 77  1  0
 74 73  1  0
 75 76  1  0
 75 74  1  0
 76 72  1  0
 77 78  2  0
 78 79  1  0
 80 79  2  0
 81 80  1  0
 82 56  1  0
 82 83  1  0
 82 92  1  0
 83 86  1  0
 84 88  1  0
 84 83  1  0
 85 84  2  0
 88 87  1  0
 90 88  1  0
 90 91  1  0
 90 89  1  0
 92 95  1  1
 92 93  1  0
 94 92  1  0
M  ISO  4   2 101  17 100  25 100  55 101
M  END
>  <TORSDO>  (40) 
F 17

>  <SCORE>  (40) 
-13.481

>  <name>  (40) 
39

>  <ligand_id>  (40) 
39

>  <original_smiles>  (40) 
[H]C(Oc1c([H])c([H])c2c(c1[H])C([H])([H])N(C(=O)C([H])(N([H])C(=O)C([H])(N([H])C([H])([H])[H])C([H])([H])[H])C(C([H])([H])[H])(C([H])([H])[H])C([H])([H])[H])C([H])(C(=O)N([H])C1([H])c3c([H])c([H])c([H])c([H])c3C([H])([H])C([H])([H])C1([H])[H])C2([H])[H])=C1C([H])([H])N(C(c2c([H])c([H])c([H])c(N([H])C(=O)N3C([H])([H])C([H])([H])C([H])([H])C([H])(n4nc(-c5c([H])c([H])c(Oc6c([H])c([H])c(F)c([H])c6F)c([H])c5[H])c(C(=O)N([H])[H])c4N([H])[H])C3([H])[H])c2[H])=[N+]([H])[H])C([H])([H])C1([H])[H]

>  <smiles>  (40) 
[H]C(Oc1c([H])c([H])c2c(c1[H])C([H])([H])N(C(=O)C([H])(N([H])C(=O)C([H])(N([H])C([H])([H])[H])C([H])([H])[H])C(C([H])([H])[H])(C([H])([H])[H])C([H])([H])[H])C([H])(C(=O)N([H])C1([H])c3c([H])c([H])c([H])c([H])c3C([H])([H])C([H])([H])C1([H])[H])C2([H])[H])=C1C([H])([H])N(C(c2c([H])c([H])c([H])c(N([H])C(=O)N3C([H])([H])C([H])([H])C([H])([H])C([H])(n4nc(-c5c([H])c([H])c(Oc6c([H])c([H])c(F)c([H])c6F)c([H])c5[H])c(C(=O)N([H])[H])c4N([H])[H])C3([H])[H])c2[H])=[N+]([H])[H])C([H])([H])C1([H])[H]

$$$$
40:0:0
     RDKit          3D

 95103  0  0  1  0  0  0  0  0999 V2000
  -29.0360  -22.7600   20.5660 C   0  0  0  0  0  2  0  0  0  0  0  0
  -29.1210  -21.2540   20.8760 C   0  0  0  0  0  0  0  0  0  0  0  0
  -29.7280  -20.5260   19.9280 N   0  0  0  0  0  0  0  0  0  0  0  0
  -28.7030  -20.7950   21.9420 O   0  0  0  0  0  0  0  0  0  0  0  0
  -30.0550  -21.0550   19.1320 H   0  0  0  0  0  0  0  0  0  0  0  0
  -29.6330  -18.1840   20.6890 C   0  0  0  0  0  3  0  0  0  0  0  0
  -31.2500  -17.5070   19.2660 C   0  0  0  0  0  3  0  0  0  0  0  0
  -30.3850  -17.0600   20.2340 C   0  0  0  0  0  0  0  0  0  0  0  0
  -30.1150  -19.2290   19.9360 C   0  0  0  0  0  0  0  0  0  0  0  0
  -31.0840  -18.8370   19.0690 O   0  0  0  0  0  0  0  0  0  0  0  0
  -30.9190  -14.6580   20.2270 C   0  0  0  0  0  0  0  0  0  0  0  0
  -30.5760  -12.5030   19.1160 C   0  0  0  0  0  2  0  0  0  0  0  0
  -29.6010  -12.7300   17.9420 C   0  0  0  0  0  2  0  0  0  0  0  0
  -28.1420  -12.5880   18.4150 C   0  0  0  0  0  2  0  0  0  0  0  0
  -27.8440  -13.4150   19.6950 C   0  0  0  0  0  3  0  0  0  0  0  0
  -28.9350  -13.2000   20.7690 C   0  0  0  0  0  2  0  0  0  0  0  0
  -30.2410  -13.4850   20.1570 N   0  0  0  0  0  0  0  0  0  0  0  0
  -32.0520  -14.8000   19.7620 O   0  0  0  0  0  0  0  0  0  0  0  0
  -30.2130  -15.7130   20.6760 N   0  0  0  0  0  0  0  0  0  0  0  0
  -29.3550  -15.4970   21.1570 H   0  0  0  0  0  0  0  0  0  0  0  0
  -25.4740  -14.0000   20.5130 C   0  0  0  0  0  0  0  0  0  0  0  0
  -24.4170  -13.2140   20.8930 C   0  0  0  0  0  0  0  0  0  0  0  0
  -24.8770  -11.8650   20.8020 C   0  0  0  0  0  0  0  0  0  0  0  0
  -26.5080  -13.1280   20.2140 N   0  0  0  0  0  0  0  0  0  0  0  0
  -26.1540  -11.8370   20.4460 N   0  0  0  0  0  0  0  0  0  0  0  0
  -24.1570  -10.5960   20.9820 C   0  0  0  0  0  0  0  0  0  0  0  0
  -24.5670   -9.6450   21.9410 C   0  0  0  0  0  3  0  0  0  0  0  0
  -23.8500   -8.4380   22.1100 C   0  0  0  0  0  3  0  0  0  0  0  0
  -22.7090   -8.1780   21.3140 C   0  0  0  0  0  0  0  0  0  0  0  0
  -22.3170   -9.1200   20.3460 C   0  0  0  0  0  3  0  0  0  0  0  0
  -23.0340  -10.3160   20.1770 C   0  0  0  0  0  3  0  0  0  0  0  0
  -21.9680   -7.0230   21.3860 O   0  0  0  0  0  0  0  0  0  0  0  0
  -21.8210   -6.3320   22.5610 C   0  0  0  0  0  0  0  0  0  0  0  0
  -21.2080   -6.9120   23.6930 C   0  0  0  0  0  3  0  0  0  0  0  0
  -21.0180   -6.1460   24.8600 C   0  0  0  0  0  3  0  0  0  0  0  0
  -21.4290   -4.8000   24.8950 C   0  0  0  0  0  0  0  0  0  0  0  0
  -22.0320   -4.2180   23.7650 C   0  0  0  0  0  3  0  0  0  0  0  0
  -22.2260   -4.9830   22.6010 C   0  0  0  0  0  0  0  0  0  0  0  0
  -22.7890   -4.4120   21.5090 F   0  0  0  0  0  0  0  0  0  0  0  0
  -21.2390   -4.0600   26.0120 F   0  0  0  0  0  0  0  0  0  0  0  0
  -23.0320  -13.6820   21.2360 C   0  0  0  0  0  0  0  0  0  0  0  0
  -22.3310  -12.9520   22.0950 N   0  0  0  0  0  0  0  0  0  0  0  0
  -22.5800  -14.7300   20.7770 O   0  0  0  0  0  0  0  0  0  0  0  0
  -22.7060  -12.1020   22.4920 H   0  0  0  0  0  0  0  0  0  0  0  0
  -21.4040  -13.2540   22.3630 H   0  0  0  0  0  0  0  0  0  0  0  0
  -25.6350  -15.3740   20.3810 N   0  0  0  0  0  0  0  0  0  0  0  0
  -24.8870  -16.0260   20.5940 H   0  0  0  0  0  0  0  0  0  0  0  0
  -26.4830  -15.8330   20.0730 H   0  0  0  0  0  0  0  0  0  0  0  0
  -27.8190  -24.9260   21.2450 C   0  0  0  0  0  3  0  0  0  0  0  0
  -27.8120  -23.6000   20.9540 C   0  0  0  0  0  0  0  0  0  0  0  0
  -26.4820  -22.8610   20.9820 C   0  0  0  0  0  1  0  0  0  0  0  0
  -30.3360  -25.5670   20.8960 C   0  0  0  0  0  1  0  0  0  0  0  0
  -28.9530  -26.6730   22.6560 C   0  0  0  0  0  1  0  0  0  0  0  0
  -28.9110  -26.0160   21.2610 C   0  0  2  0  0  0  0  0  0  0  0  0
  -28.6590  -26.9980   20.2420 O   0  0  0  0  0  0  0  0  0  0  0  0
  -24.6000  -31.9760   23.3040 C   0  0  0  0  0  0  0  0  0  0  0  0
  -27.4660  -27.6780   20.2610 C   0  0  0  0  0  0  0  0  0  0  0  0
  -23.4870  -30.5680   21.5990 C   0  0  0  0  0  3  0  0  0  0  0  0
  -25.0280  -29.0910   20.2070 C   0  0  0  0  0  0  0  0  0  0  0  0
  -26.0020  -31.0060   21.4900 C   0  0  0  0  0  2  0  0  0  0  0  0
  -26.1470  -29.6480   20.8400 C   0  0  0  0  0  0  0  0  0  0  0  0
  -27.3710  -28.9510   20.8620 C   0  0  0  0  0  3  0  0  0  0  0  0
  -26.3410  -27.1310   19.6130 C   0  0  0  0  0  3  0  0  0  0  0  0
  -25.1180  -27.8290   19.5910 C   0  0  0  0  0  3  0  0  0  0  0  0
  -23.7600  -29.9110   20.2200 C   0  0  0  0  0  2  0  0  0  0  0  0
  -24.7120  -31.1970   22.1920 N   0  0  0  0  0  0  0  0  0  0  0  0
  -23.4950  -32.2110   23.8110 O   0  0  0  0  0  0  0  0  0  0  0  0
  -22.8320  -29.5150   22.5220 C   0  0  0  0  0  0  0  0  0  0  0  0
  -21.5120  -29.3230   22.3660 N   0  0  0  0  0  0  0  0  0  0  0  0
  -23.5090  -28.8760   23.3330 O   0  0  0  0  0  0  0  0  0  0  0  0
  -21.0300  -29.8910   21.6840 H   0  0  0  0  0  0  0  0  0  0  0  0
  -18.1310  -28.1370   22.8200 C   0  0  0  0  0  0  0  0  0  0  0  0
  -20.6910  -28.3580   23.0960 C   0  0  0  0  0  3  0  0  0  0  0  0
  -20.7800  -26.9550   22.4530 C   0  0  0  0  0  2  0  0  0  0  0  0
  -19.6720  -26.6890   21.4290 C   0  0  0  0  0  2  0  0  0  0  0  0
  -18.2940  -26.8180   22.0840 C   0  0  0  0  0  2  0  0  0  0  0  0
  -19.2580  -28.8680   23.2810 C   0  0  0  0  0  0  0  0  0  0  0  0
  -19.0540  -30.1060   23.9280 C   0  0  0  0  0  3  0  0  0  0  0  0
  -17.7550  -30.6130   24.1190 C   0  0  0  0  0  3  0  0  0  0  0  0
  -16.6420  -29.8780   23.6760 C   0  0  0  0  0  3  0  0  0  0  0  0
  -16.8310  -28.6410   23.0320 C   0  0  0  0  0  3  0  0  0  0  0  0
  -25.8490  -32.6280   23.9770 C   0  0  0  0  0  3  0  0  0  0  0  0
  -26.3050  -31.8840   25.2930 C   0  0  1  0  0  0  0  0  0  0  0  0
  -25.1570  -31.6480   26.3010 C   0  0  0  0  0  1  0  0  0  0  0  0
  -26.9290  -30.5100   24.9550 C   0  0  0  0  0  1  0  0  0  0  0  0
  -27.4060  -32.7070   26.0040 C   0  0  0  0  0  1  0  0  0  0  0  0
  -25.5170  -34.0300   24.2580 N   0  0  0  0  0  0  0  0  0  0  0  0
  -25.8850  -35.0660   23.4920 C   0  0  0  0  0  0  0  0  0  0  0  0
  -26.6090  -34.9430   22.5000 O   0  0  0  0  0  0  0  0  0  0  0  0
  -24.8820  -34.2000   25.0240 H   0  0  0  0  0  0  0  0  0  0  0  0
  -24.1800  -36.8430   22.9860 C   0  0  0  0  0  1  0  0  0  0  0  0
  -25.3650  -36.4610   23.8880 C   0  0  0  0  0  3  0  0  0  0  0  0
  -27.4310  -37.3740   24.8500 C   0  0  0  0  0  1  0  0  0  0  0  0
  -26.4010  -37.5140   23.8240 N   0  0  0  0  0  0  0  0  0  0  0  0
  -25.9840  -38.4370   23.9180 H   0  0  0  0  0  0  0  0  0  0  0  0
  1  2  1  0
  1 50  1  0
  2  4  2  0
  3  9  1  0
  3  2  1  0
  5  3  1  0
  7  8  2  0
  8 19  1  0
  8  6  1  0
  9  6  2  0
 10  7  1  0
 10  9  1  0
 11 19  1  0
 12 17  1  0
 13 14  1  0
 13 12  1  0
 15 14  1  0
 15 24  1  0
 15 16  1  0
 17 11  1  0
 17 16  1  0
 18 11  2  0
 19 20  1  0
 21 22  2  0
 22 41  1  0
 23 22  1  0
 23 26  1  0
 24 25  1  0
 24 21  1  0
 25 23  2  0
 26 27  1  0
 27 28  2  0
 29 32  1  0
 29 28  1  0
 30 29  2  0
 31 30  1  0
 31 26  2  0
 32 33  1  0
 33 38  2  0
 33 34  1  0
 34 35  2  0
 35 36  1  0
 36 40  1  0
 37 36  2  0
 38 37  1  0
 39 38  1  0
 41 42  1  0
 42 45  1  0
 42 44  1  0
 43 41  2  0
 46 21  1  0
 46 47  1  0
 48 46  1  0
 49 54  1  0
 50 51  1  0
 50 49  2  0
 54 52  1  6
 54 53  1  0
 55 57  1  0
 55 54  1  0
 56 67  2  0
 57 62  1  0
 58 66  1  0
 58 68  1  0
 59 65  1  0
 59 61  1  0
 60 66  1  0
 61 62  2  0
 61 60  1  0
 63 57  2  0
 64 63  1  0
 64 59  2  0
 65 58  1  0
 66 56  1  0
 68 70  2  0
 69 68  1  0
 71 69  1  0
 72 81  2  0
 72 77  1  0
 73 69  1  0
 73 77  1  0
 74 73  1  0
 75 76  1  0
 75 74  1  0
 76 72  1  0
 77 78  2  0
 78 79  1  0
 80 79  2  0
 81 80  1  0
 82 56  1  0
 82 87  1  0
 82 83  1  0
 83 86  1  1
 83 84  1  0
 85 83  1  0
 87 90  1  0
 88 92  1  0
 88 87  1  0
 89 88  2  0
 92 91  1  0
 94 92  1  0
 94 95  1  0
 94 93  1  0
M  ISO  4  11 100  19 100  54 101  55 101
M  END
>  <TORSDO>  (41) 
F 20

>  <SCORE>  (41) 
-13.518

>  <name>  (41) 
40

>  <ligand_id>  (41) 
40

>  <original_smiles>  (41) 
[H]C(=C(C([H])([H])[H])C([H])([H])C(=O)N([H])c1oc([H])c(N([H])C(=O)N2C([H])([H])C([H])([H])C([H])([H])C([H])(n3nc(-c4c([H])c([H])c(Oc5c([H])c([H])c(F)c([H])c5F)c([H])c4[H])c(C(=O)N([H])[H])c3N([H])[H])C2([H])[H])c1[H])C(Oc1c([H])c([H])c2c(c1[H])C([H])([H])N(C(=O)C([H])(N([H])C(=O)C([H])(N([H])C([H])([H])[H])C([H])([H])[H])C(C([H])([H])[H])(C([H])([H])[H])C([H])([H])[H])C([H])(C(=O)N([H])C1([H])c3c([H])c([H])c([H])c([H])c3C([H])([H])C([H])([H])C1([H])[H])C2([H])[H])(C([H])([H])[H])C([H])([H])[H]

>  <smiles>  (41) 
[H]C(=C(C([H])([H])[H])C([H])([H])C(=O)N([H])c1oc([H])c(N([H])C(=O)N2C([H])([H])C([H])([H])C([H])([H])C([H])(n3nc(-c4c([H])c([H])c(Oc5c([H])c([H])c(F)c([H])c5F)c([H])c4[H])c(C(=O)N([H])[H])c3N([H])[H])C2([H])[H])c1[H])C(Oc1c([H])c([H])c2c(c1[H])C([H])([H])N(C(=O)C([H])(N([H])C(=O)C([H])(N([H])C([H])([H])[H])C([H])([H])[H])C(C([H])([H])[H])(C([H])([H])[H])C([H])([H])[H])C([H])(C(=O)N([H])C1([H])c3c([H])c([H])c([H])c([H])c3C([H])([H])C([H])([H])C1([H])[H])C2([H])[H])(C([H])([H])[H])C([H])([H])[H]

$$$$
41:0:0
     RDKit          3D

 99109  0  0  1  0  0  0  0  0999 V2000
  -29.1920  -24.0190   22.8790 C   0  0  0  0  0  3  0  0  0  0  0  0
  -29.1430  -25.2140   22.1040 C   0  0  0  0  0  0  0  0  0  0  0  0
  -30.4870  -23.5830   22.8680 C   0  0  0  0  0  0  0  0  0  0  0  0
  -30.4460  -25.4710   21.7650 C   0  0  0  0  0  0  0  0  0  0  0  0
  -31.1190  -26.5500   20.9830 C   0  0  0  0  0  1  0  0  0  0  0  0
  -31.2650  -24.4770   22.2060 O   0  0  0  0  0  0  0  0  0  0  0  0
  -31.0790  -17.3680   20.2760 C   0  0  0  0  0  3  0  0  0  0  0  0
  -30.6970  -16.4530   21.2370 C   0  0  0  0  0  0  0  0  0  0  0  0
  -31.0560  -18.7540   22.0690 C   0  0  0  0  0  0  0  0  0  0  0  0
  -30.4540  -21.5550   24.4290 C   0  0  0  0  0  2  0  0  0  0  0  0
  -30.9670  -20.1330   24.2230 C   0  0  0  0  0  2  0  0  0  0  0  0
  -31.2450  -21.2800   22.1990 C   0  0  0  0  0  2  0  0  0  0  0  0
  -31.1590  -22.3250   23.3200 C   0  0  0  0  0  3  0  0  0  0  0  0
  -31.2680  -18.6670   20.7590 N   0  0  0  0  0  0  0  0  0  0  0  0
  -31.1270  -19.9460   22.7850 N   0  0  0  0  0  0  0  0  0  0  0  0
  -30.6150  -17.2200   22.8070 S   0  0  0  0  0  0  0  0  0  0  0  0
  -30.8780  -14.2300   20.2630 C   0  0  0  0  0  0  0  0  0  0  0  0
  -30.6350  -11.9230   19.4160 C   0  0  0  0  0  2  0  0  0  0  0  0
  -29.7310  -11.8680   18.1710 C   0  0  0  0  0  2  0  0  0  0  0  0
  -28.2470  -11.7690   18.5690 C   0  0  0  0  0  2  0  0  0  0  0  0
  -27.8450  -12.8290   19.6280 C   0  0  0  0  0  3  0  0  0  0  0  0
  -28.8500  -12.8300   20.8000 C   0  0  0  0  0  2  0  0  0  0  0  0
  -30.2060  -13.0500   20.2570 N   0  0  0  0  0  0  0  0  0  0  0  0
  -31.8960  -14.4320   19.5910 O   0  0  0  0  0  0  0  0  0  0  0  0
  -30.3830  -15.1360   21.1200 N   0  0  0  0  0  0  0  0  0  0  0  0
  -29.6130  -14.8090   21.6830 H   0  0  0  0  0  0  0  0  0  0  0  0
  -25.4740  -13.5540   20.3280 C   0  0  0  0  0  0  0  0  0  0  0  0
  -24.3670  -12.8320   20.6880 C   0  0  0  0  0  0  0  0  0  0  0  0
  -24.7600  -11.4590   20.6470 C   0  0  0  0  0  0  0  0  0  0  0  0
  -26.4760  -12.6230   20.0950 N   0  0  0  0  0  0  0  0  0  0  0  0
  -26.0470  -11.3580   20.3410 N   0  0  0  0  0  0  0  0  0  0  0  0
  -23.9730  -10.2320   20.8260 C   0  0  0  0  0  0  0  0  0  0  0  0
  -24.2510   -9.3250   21.8720 C   0  0  0  0  0  3  0  0  0  0  0  0
  -23.4700   -8.1600   22.0340 C   0  0  0  0  0  3  0  0  0  0  0  0
  -22.3970   -7.8970   21.1500 C   0  0  0  0  0  0  0  0  0  0  0  0
  -22.1380   -8.7930   20.0970 C   0  0  0  0  0  3  0  0  0  0  0  0
  -22.9200   -9.9490   19.9340 C   0  0  0  0  0  3  0  0  0  0  0  0
  -21.6000   -6.7780   21.2150 O   0  0  0  0  0  0  0  0  0  0  0  0
  -21.2390   -6.2210   22.4150 C   0  0  0  0  0  0  0  0  0  0  0  0
  -20.5400   -6.9560   23.3980 C   0  0  0  0  0  3  0  0  0  0  0  0
  -20.1280   -6.3250   24.5880 C   0  0  0  0  0  3  0  0  0  0  0  0
  -20.4030   -4.9600   24.7930 C   0  0  0  0  0  0  0  0  0  0  0  0
  -21.0930   -4.2240   23.8140 C   0  0  0  0  0  3  0  0  0  0  0  0
  -21.5070   -4.8540   22.6260 C   0  0  0  0  0  0  0  0  0  0  0  0
  -22.1530   -4.1360   21.6760 F   0  0  0  0  0  0  0  0  0  0  0  0
  -19.9990   -4.3500   25.9330 F   0  0  0  0  0  0  0  0  0  0  0  0
  -22.9930  -13.3750   20.9630 C   0  0  0  0  0  0  0  0  0  0  0  0
  -22.2440  -12.7290   21.8510 N   0  0  0  0  0  0  0  0  0  0  0  0
  -22.5930  -14.4060   20.4250 O   0  0  0  0  0  0  0  0  0  0  0  0
  -22.5820  -11.8950   22.3090 H   0  0  0  0  0  0  0  0  0  0  0  0
  -21.3240  -13.0760   22.0780 H   0  0  0  0  0  0  0  0  0  0  0  0
  -25.7080  -14.9160   20.1630 N   0  0  0  0  0  0  0  0  0  0  0  0
  -24.9810  -15.6120   20.2830 H   0  0  0  0  0  0  0  0  0  0  0  0
  -26.5890  -15.3120   19.8590 H   0  0  0  0  0  0  0  0  0  0  0  0
  -27.8990  -25.9840   21.7000 C   0  0  0  0  0  2  0  0  0  0  0  0
  -26.0380  -24.5510   20.6750 C   0  0  0  0  0  1  0  0  0  0  0  0
  -28.2510  -24.6840   19.5140 C   0  0  0  0  0  1  0  0  0  0  0  0
  -27.2470  -25.4670   20.3860 C   0  0  2  0  0  0  0  0  0  0  0  0
  -26.9100  -26.5770   19.5420 O   0  0  0  0  0  0  0  0  0  0  0  0
  -24.4590  -31.9200   23.5840 C   0  0  0  0  0  0  0  0  0  0  0  0
  -25.8750  -27.4200   19.8720 C   0  0  0  0  0  0  0  0  0  0  0  0
  -22.8260  -30.9010   22.0290 C   0  0  0  0  0  3  0  0  0  0  0  0
  -23.7940  -29.2760   20.3220 C   0  0  0  0  0  0  0  0  0  0  0  0
  -25.3270  -30.8520   21.5110 C   0  0  0  0  0  2  0  0  0  0  0  0
  -25.0880  -29.5470   20.7840 C   0  0  0  0  0  0  0  0  0  0  0  0
  -26.1320  -28.6230   20.5620 C   0  0  0  0  0  3  0  0  0  0  0  0
  -24.5710  -27.1670   19.3950 C   0  0  0  0  0  3  0  0  0  0  0  0
  -23.5270  -28.0810   19.6290 C   0  0  0  0  0  3  0  0  0  0  0  0
  -22.7380  -30.3230   20.5910 C   0  0  0  0  0  2  0  0  0  0  0  0
  -24.2310  -31.2310   22.4310 N   0  0  0  0  0  0  0  0  0  0  0  0
  -23.5210  -32.3190   24.2870 O   0  0  0  0  0  0  0  0  0  0  0  0
  -22.1280  -29.9190   22.9970 C   0  0  0  0  0  0  0  0  0  0  0  0
  -20.8120  -29.7310   22.8090 N   0  0  0  0  0  0  0  0  0  0  0  0
  -22.7690  -29.3270   23.8690 O   0  0  0  0  0  0  0  0  0  0  0  0
  -20.3580  -30.2600   22.0780 H   0  0  0  0  0  0  0  0  0  0  0  0
  -17.5060  -28.2830   22.9510 C   0  0  0  0  0  0  0  0  0  0  0  0
  -19.9550  -28.8240   23.5720 C   0  0  0  0  0  3  0  0  0  0  0  0
  -20.2630  -27.3490   23.2300 C   0  0  0  0  0  2  0  0  0  0  0  0
  -19.3710  -26.7900   22.1160 C   0  0  0  0  0  2  0  0  0  0  0  0
  -17.8950  -26.8800   22.5130 C   0  0  0  0  0  2  0  0  0  0  0  0
  -18.4770  -29.2000   23.4340 C   0  0  0  0  0  0  0  0  0  0  0  0
  -18.0680  -30.5020   23.7930 C   0  0  0  0  0  3  0  0  0  0  0  0
  -16.7200  -30.8920   23.6820 C   0  0  0  0  0  3  0  0  0  0  0  0
  -15.7610  -29.9740   23.2200 C   0  0  0  0  0  3  0  0  0  0  0  0
  -16.1540  -28.6720   22.8590 C   0  0  0  0  0  3  0  0  0  0  0  0
  -25.9060  -32.2620   24.0600 C   0  0  0  0  0  3  0  0  0  0  0  0
  -26.4260  -31.3080   25.2040 C   0  0  1  0  0  0  0  0  0  0  0  0
  -25.4290  -31.1420   26.3750 C   0  0  0  0  0  1  0  0  0  0  0  0
  -26.7350  -29.9010   24.6400 C   0  0  0  0  0  1  0  0  0  0  0  0
  -27.7530  -31.8560   25.7800 C   0  0  0  0  0  1  0  0  0  0  0  0
  -25.9060  -33.6610   24.5080 N   0  0  0  0  0  0  0  0  0  0  0  0
  -26.3740  -34.6880   23.7890 C   0  0  0  0  0  0  0  0  0  0  0  0
  -26.9250  -34.5440   22.6940 O   0  0  0  0  0  0  0  0  0  0  0  0
  -25.4200  -33.8590   25.3720 H   0  0  0  0  0  0  0  0  0  0  0  0
  -25.0200  -36.8050   23.6960 C   0  0  0  0  0  1  0  0  0  0  0  0
  -26.2040  -36.1020   24.3780 C   0  0  0  0  0  3  0  0  0  0  0  0
  -28.5180  -36.4840   25.1030 C   0  0  0  0  0  1  0  0  0  0  0  0
  -27.4170  -36.9380   24.2570 N   0  0  0  0  0  0  0  0  0  0  0  0
  -27.2130  -37.9060   24.4960 H   0  0  0  0  0  0  0  0  0  0  0  0
  2  1  1  0
  3  1  2  0
  4  2  2  0
  4  6  1  0
  5  4  1  0
  6  3  1  0
  7 14  1  0
  7  8  2  0
  8 16  1  0
  9 15  1  0
  9 16  1  0
 11 10  1  0
 12 15  1  0
 12 13  1  0
 13  3  1  0
 13 10  1  0
 14  9  2  0
 15 11  1  0
 17 25  1  0
 18 23  1  0
 19 20  1  0
 19 18  1  0
 21 20  1  0
 21 30  1  0
 21 22  1  0
 23 17  1  0
 23 22  1  0
 24 17  2  0
 25  8  1  0
 25 26  1  0
 27 28  2  0
 28 47  1  0
 29 28  1  0
 29 32  1  0
 30 27  1  0
 30 31  1  0
 31 29  2  0
 32 33  1  0
 33 34  2  0
 35 38  1  0
 35 34  1  0
 36 35  2  0
 37 36  1  0
 37 32  2  0
 38 39  1  0
 39 44  2  0
 39 40  1  0
 40 41  2  0
 41 42  1  0
 42 46  1  0
 43 42  2  0
 44 43  1  0
 45 44  1  0
 47 48  1  0
 48 51  1  0
 48 50  1  0
 49 47  2  0
 52 53  1  0
 52 27  1  0
 54 52  1  0
 55  2  1  0
 58 57  1  6
 58 56  1  0
 58 55  1  0
 59 61  1  0
 59 58  1  0
 60 71  2  0
 61 66  1  0
 62 70  1  0
 62 72  1  0
 63 69  1  0
 63 65  1  0
 64 70  1  0
 65 64  1  0
 66 65  2  0
 67 68  1  0
 67 61  2  0
 68 63  2  0
 69 62  1  0
 70 60  1  0
 72 74  2  0
 73 72  1  0
 75 73  1  0
 76 81  1  0
 77 73  1  0
 78 77  1  0
 79 80  1  0
 79 78  1  0
 80 76  1  0
 81 77  1  0
 81 82  2  0
 83 82  1  0
 84 83  2  0
 85 76  2  0
 85 84  1  0
 86 60  1  0
 86 91  1  0
 86 87  1  0
 87 90  1  1
 87 88  1  0
 89 87  1  0
 91 94  1  0
 92 96  1  0
 92 91  1  0
 93 92  2  0
 96 95  1  0
 98 96  1  0
 98 99  1  0
 98 97  1  0
M  ISO  4  17 100  25 100  58 101  59 101
M  END
>  <TORSDO>  (42) 
F 19

>  <SCORE>  (42) 
-10.047

>  <name>  (42) 
41

>  <ligand_id>  (42) 
41

>  <original_smiles>  (42) 
[H]c1nc(N2C([H])([H])C([H])([H])C([H])(c3oc(C([H])([H])[H])c(C([H])([H])C(Oc4c([H])c([H])c5c(c4[H])C([H])([H])N(C(=O)C([H])(N([H])C(=O)C([H])(N([H])C([H])([H])[H])C([H])([H])[H])C(C([H])([H])[H])(C([H])([H])[H])C([H])([H])[H])C([H])(C(=O)N([H])C4([H])c6c([H])c([H])c([H])c([H])c6C([H])([H])C([H])([H])C4([H])[H])C5([H])[H])(C([H])([H])[H])C([H])([H])[H])c3[H])C2([H])[H])sc1N([H])C(=O)N1C([H])([H])C([H])([H])C([H])([H])C([H])(n2nc(-c3c([H])c([H])c(Oc4c([H])c([H])c(F)c([H])c4F)c([H])c3[H])c(C(=O)N([H])[H])c2N([H])[H])C1([H])[H]

>  <smiles>  (42) 
[H]c1nc(N2C([H])([H])C([H])([H])C([H])(c3oc(C([H])([H])[H])c(C([H])([H])C(Oc4c([H])c([H])c5c(c4[H])C([H])([H])N(C(=O)C([H])(N([H])C(=O)C([H])(N([H])C([H])([H])[H])C([H])([H])[H])C(C([H])([H])[H])(C([H])([H])[H])C([H])([H])[H])C([H])(C(=O)N([H])C4([H])c6c([H])c([H])c([H])c([H])c6C([H])([H])C([H])([H])C4([H])[H])C5([H])[H])(C([H])([H])[H])C([H])([H])[H])c3[H])C2([H])[H])sc1N([H])C(=O)N1C([H])([H])C([H])([H])C([H])([H])C([H])(n2nc(-c3c([H])c([H])c(Oc4c([H])c([H])c(F)c([H])c4F)c([H])c3[H])c(C(=O)N([H])[H])c2N([H])[H])C1([H])[H]

$$$$
42:0:0
     RDKit          3D

 95103  0  0  1  0  0  0  0  0999 V2000
  -28.3890  -21.4650   20.4760 C   0  0  0  0  0  0  0  0  0  0  0  0
  -29.2490  -20.5290   20.9340 N   0  0  0  0  0  0  0  0  0  0  0  0
  -27.5630  -21.1960   19.6000 O   0  0  0  0  0  0  0  0  0  0  0  0
  -29.7410  -20.7250   21.7970 H   0  0  0  0  0  0  0  0  0  0  0  0
  -29.6440  -18.0610   20.9140 C   0  0  0  0  0  3  0  0  0  0  0  0
  -29.9510  -19.3850   18.8820 C   0  0  0  0  0  3  0  0  0  0  0  0
  -30.3660  -16.9880   18.8430 C   0  0  0  0  0  3  0  0  0  0  0  0
  -29.5950  -19.3200   20.2480 C   0  0  0  0  0  0  0  0  0  0  0  0
  -30.0250  -16.8790   20.2160 C   0  0  0  0  0  0  0  0  0  0  0  0
  -30.3390  -18.2300   18.1860 C   0  0  0  0  0  0  0  0  0  0  0  0
  -30.6790  -18.3110   16.8770 F   0  0  0  0  0  0  0  0  0  0  0  0
  -30.7420  -14.5220   20.4890 C   0  0  0  0  0  0  0  0  0  0  0  0
  -30.4430  -12.3520   19.3740 C   0  0  0  0  0  2  0  0  0  0  0  0
  -29.5210  -12.5830   18.1570 C   0  0  0  0  0  2  0  0  0  0  0  0
  -28.0410  -12.4640   18.5660 C   0  0  0  0  0  2  0  0  0  0  0  0
  -27.6990  -13.2910   19.8360 C   0  0  0  0  0  3  0  0  0  0  0  0
  -28.7420  -13.0610   20.9560 C   0  0  0  0  0  2  0  0  0  0  0  0
  -30.0750  -13.3390   20.4020 N   0  0  0  0  0  0  0  0  0  0  0  0
  -31.9000  -14.6670   20.0850 O   0  0  0  0  0  0  0  0  0  0  0  0
  -30.0010  -15.5910   20.8570 N   0  0  0  0  0  0  0  0  0  0  0  0
  -29.1640  -15.3750   21.3780 H   0  0  0  0  0  0  0  0  0  0  0  0
  -25.2970  -13.9120   20.5080 C   0  0  0  0  0  0  0  0  0  0  0  0
  -24.2180  -13.1450   20.8640 C   0  0  0  0  0  0  0  0  0  0  0  0
  -24.6730  -11.7910   20.8470 C   0  0  0  0  0  0  0  0  0  0  0  0
  -26.3390  -13.0250   20.2960 N   0  0  0  0  0  0  0  0  0  0  0  0
  -25.9670  -11.7440   20.5570 N   0  0  0  0  0  0  0  0  0  0  0  0
  -23.9370  -10.5340   21.0320 C   0  0  0  0  0  0  0  0  0  0  0  0
  -24.3470   -9.5730   21.9830 C   0  0  0  0  0  3  0  0  0  0  0  0
  -23.6150   -8.3810   22.1570 C   0  0  0  0  0  3  0  0  0  0  0  0
  -22.4560   -8.1390   21.3800 C   0  0  0  0  0  0  0  0  0  0  0  0
  -22.0640   -9.0890   20.4200 C   0  0  0  0  0  3  0  0  0  0  0  0
  -22.7980  -10.2740   20.2450 C   0  0  0  0  0  3  0  0  0  0  0  0
  -21.6980   -6.9960   21.4600 O   0  0  0  0  0  0  0  0  0  0  0  0
  -21.6140   -6.2670   22.6190 C   0  0  0  0  0  0  0  0  0  0  0  0
  -21.1390   -6.8340   23.8210 C   0  0  0  0  0  3  0  0  0  0  0  0
  -21.0040   -6.0320   24.9720 C   0  0  0  0  0  3  0  0  0  0  0  0
  -21.3330   -4.6640   24.9210 C   0  0  0  0  0  0  0  0  0  0  0  0
  -21.8020   -4.0970   23.7220 C   0  0  0  0  0  3  0  0  0  0  0  0
  -21.9380   -4.8960   22.5730 C   0  0  0  0  0  0  0  0  0  0  0  0
  -22.3700   -4.3410   21.4150 F   0  0  0  0  0  0  0  0  0  0  0  0
  -21.1970   -3.8890   26.0220 F   0  0  0  0  0  0  0  0  0  0  0  0
  -22.8200  -13.6310   21.1160 C   0  0  0  0  0  0  0  0  0  0  0  0
  -22.0770  -12.9390   21.9700 N   0  0  0  0  0  0  0  0  0  0  0  0
  -22.3950  -14.6580   20.5880 O   0  0  0  0  0  0  0  0  0  0  0  0
  -22.4350  -12.1050   22.4150 H   0  0  0  0  0  0  0  0  0  0  0  0
  -21.1390  -13.2450   22.1830 H   0  0  0  0  0  0  0  0  0  0  0  0
  -25.4700  -15.2800   20.3270 N   0  0  0  0  0  0  0  0  0  0  0  0
  -24.7030  -15.9370   20.4150 H   0  0  0  0  0  0  0  0  0  0  0  0
  -26.3280  -15.7160   20.0120 H   0  0  0  0  0  0  0  0  0  0  0  0
  -28.3560  -22.8690   21.1380 C   0  0  0  0  0  2  0  0  0  0  0  0
  -30.1920  -24.2170   19.9840 C   0  0  0  0  0  1  0  0  0  0  0  0
  -27.9720  -24.0700   18.8640 C   0  0  0  0  0  1  0  0  0  0  0  0
  -28.6750  -24.1290   20.2360 C   0  0  1  0  0  0  0  0  0  0  0  0
  -28.2040  -25.4190   20.9820 C   0  0  0  0  0  2  0  0  0  0  0  0
  -28.3620  -26.6620   20.2560 O   0  0  0  0  0  0  0  0  0  0  0  0
  -24.5480  -31.9000   23.2330 C   0  0  0  0  0  0  0  0  0  0  0  0
  -27.2220  -27.4390   20.2080 C   0  0  0  0  0  0  0  0  0  0  0  0
  -23.3610  -30.4900   21.5840 C   0  0  0  0  0  3  0  0  0  0  0  0
  -24.8340  -28.9550   20.1750 C   0  0  0  0  0  0  0  0  0  0  0  0
  -25.8900  -30.8510   21.4110 C   0  0  0  0  0  2  0  0  0  0  0  0
  -25.9850  -29.4770   20.7770 C   0  0  0  0  0  0  0  0  0  0  0  0
  -27.1870  -28.7290   20.7870 C   0  0  0  0  0  3  0  0  0  0  0  0
  -26.0570  -26.9420   19.5830 C   0  0  0  0  0  3  0  0  0  0  0  0
  -24.8670  -27.6890   19.5670 C   0  0  0  0  0  3  0  0  0  0  0  0
  -23.5870  -29.8070   20.2090 C   0  0  0  0  0  2  0  0  0  0  0  0
  -24.6170  -31.0960   22.1340 N   0  0  0  0  0  0  0  0  0  0  0  0
  -23.4610  -32.1700   23.7610 O   0  0  0  0  0  0  0  0  0  0  0  0
  -22.7000  -29.4710   22.5400 C   0  0  0  0  0  0  0  0  0  0  0  0
  -21.3760  -29.2940   22.4070 N   0  0  0  0  0  0  0  0  0  0  0  0
  -23.3780  -28.8420   23.3580 O   0  0  0  0  0  0  0  0  0  0  0  0
  -20.8910  -29.8550   21.7210 H   0  0  0  0  0  0  0  0  0  0  0  0
  -17.9900  -28.1340   22.9050 C   0  0  0  0  0  0  0  0  0  0  0  0
  -20.5510  -28.3610   23.1730 C   0  0  0  0  0  3  0  0  0  0  0  0
  -20.6340  -26.9320   22.5860 C   0  0  0  0  0  2  0  0  0  0  0  0
  -19.5250  -26.6300   21.5710 C   0  0  0  0  0  2  0  0  0  0  0  0
  -18.1480  -26.7880   22.2200 C   0  0  0  0  0  2  0  0  0  0  0  0
  -19.1170  -28.8790   23.3400 C   0  0  0  0  0  0  0  0  0  0  0  0
  -18.9160  -30.1410   23.9390 C   0  0  0  0  0  3  0  0  0  0  0  0
  -17.6180  -30.6590   24.1090 C   0  0  0  0  0  3  0  0  0  0  0  0
  -16.5030  -29.9100   23.6940 C   0  0  0  0  0  3  0  0  0  0  0  0
  -16.6900  -28.6500   23.0960 C   0  0  0  0  0  3  0  0  0  0  0  0
  -25.8260  -32.5330   23.8650 C   0  0  0  0  0  3  0  0  0  0  0  0
  -26.3280  -31.7720   25.1540 C   0  0  1  0  0  0  0  0  0  0  0  0
  -25.2220  -31.5420   26.2110 C   0  0  0  0  0  1  0  0  0  0  0  0
  -26.9140  -30.3910   24.7790 C   0  0  0  0  0  1  0  0  0  0  0  0
  -27.4730  -32.5700   25.8220 C   0  0  0  0  0  1  0  0  0  0  0  0
  -25.5210  -33.9360   24.1760 N   0  0  0  0  0  0  0  0  0  0  0  0
  -25.8790  -34.9770   23.4110 C   0  0  0  0  0  0  0  0  0  0  0  0
  -26.5720  -34.8580   22.3980 O   0  0  0  0  0  0  0  0  0  0  0  0
  -24.9090  -34.1060   24.9600 H   0  0  0  0  0  0  0  0  0  0  0  0
  -24.1830  -36.7830   22.9810 C   0  0  0  0  0  1  0  0  0  0  0  0
  -25.3880  -36.3720   23.8430 C   0  0  0  0  0  3  0  0  0  0  0  0
  -27.4980  -37.2410   24.7510 C   0  0  0  0  0  1  0  0  0  0  0  0
  -26.4370  -37.4130   23.7630 N   0  0  0  0  0  0  0  0  0  0  0  0
  -26.0350  -38.3390   23.8890 H   0  0  0  0  0  0  0  0  0  0  0  0
  1  2  1  0
  1 50  1  0
  2  4  1  0
  3  1  2  0
  6  8  2  0
  7  9  1  0
  8  5  1  0
  8  2  1  0
  9 20  1  0
  9  5  2  0
 10  7  2  0
 10  6  1  0
 11 10  1  0
 12 20  1  0
 13 18  1  0
 14 15  1  0
 14 13  1  0
 16 15  1  0
 16 25  1  0
 16 17  1  0
 18 12  1  0
 18 17  1  0
 19 12  2  0
 20 21  1  0
 22 23  2  0
 23 42  1  0
 24 23  1  0
 24 27  1  0
 25 22  1  0
 25 26  1  0
 26 24  2  0
 27 28  1  0
 28 29  2  0
 30 33  1  0
 30 29  1  0
 31 30  2  0
 32 31  1  0
 32 27  2  0
 33 34  1  0
 34 35  1  0
 35 36  2  0
 37 36  1  0
 37 41  1  0
 38 37  2  0
 39 34  2  0
 39 38  1  0
 40 39  1  0
 42 43  1  0
 43 46  1  0
 43 45  1  0
 44 42  2  0
 47 48  1  0
 47 22  1  0
 49 47  1  0
 53 51  1  6
 52 53  1  0
 53 54  1  0
 53 50  1  0
 55 54  1  0
 56 67  2  0
 57 55  1  0
 57 62  1  0
 58 66  1  0
 58 68  1  0
 59 65  1  0
 59 61  1  0
 60 66  1  0
 61 62  2  0
 61 60  1  0
 63 57  2  0
 64 63  1  0
 64 59  2  0
 65 58  1  0
 66 56  1  0
 68 70  2  0
 69 68  1  0
 71 69  1  0
 72 81  2  0
 72 77  1  0
 73 69  1  0
 73 77  1  0
 74 73  1  0
 75 76  1  0
 75 74  1  0
 76 72  1  0
 77 78  2  0
 78 79  1  0
 80 79  2  0
 81 80  1  0
 82 56  1  0
 82 87  1  0
 82 83  1  0
 83 86  1  1
 83 84  1  0
 85 83  1  0
 87 90  1  0
 88 92  1  0
 88 87  1  0
 89 88  2  0
 92 91  1  0
 94 92  1  0
 94 95  1  0
 94 93  1  0
M  ISO  4  12 100  20 100  54 101  55 101
M  END
>  <TORSDO>  (43) 
F 20

>  <SCORE>  (43) 
-14.246

>  <name>  (43) 
42

>  <ligand_id>  (43) 
42

>  <original_smiles>  (43) 
[H]c1c([H])c([H])c2c(c1[H])C([H])([H])C([H])([H])C([H])([H])C2([H])N([H])C(=O)C1([H])N(C(=O)C([H])(N([H])C(=O)C([H])(N([H])C([H])([H])[H])C([H])([H])[H])C(C([H])([H])[H])(C([H])([H])[H])C([H])([H])[H])C([H])([H])c2c([H])c(OC([H])([H])C(C([H])([H])[H])(C([H])([H])[H])C([H])([H])C(=O)N([H])c3c([H])c(F)c([H])c(N([H])C(=O)N4C([H])([H])C([H])([H])C([H])([H])C([H])(n5nc(-c6c([H])c([H])c(Oc7c([H])c([H])c(F)c([H])c7F)c([H])c6[H])c(C(=O)N([H])[H])c5N([H])[H])C4([H])[H])c3[H])c([H])c([H])c2C1([H])[H]

>  <smiles>  (43) 
[H]c1c([H])c([H])c2c(c1[H])C([H])([H])C([H])([H])C([H])([H])C2([H])N([H])C(=O)C1([H])N(C(=O)C([H])(N([H])C(=O)C([H])(N([H])C([H])([H])[H])C([H])([H])[H])C(C([H])([H])[H])(C([H])([H])[H])C([H])([H])[H])C([H])([H])c2c([H])c(OC([H])([H])C(C([H])([H])[H])(C([H])([H])[H])C([H])([H])C(=O)N([H])c3c([H])c(F)c([H])c(N([H])C(=O)N4C([H])([H])C([H])([H])C([H])([H])C([H])(n5nc(-c6c([H])c([H])c(Oc7c([H])c([H])c(F)c([H])c7F)c([H])c6[H])c(C(=O)N([H])[H])c5N([H])[H])C4([H])[H])c3[H])c([H])c([H])c2C1([H])[H]

$$$$
43:0:0
     RDKit          3D

 96104  0  0  1  0  0  0  0  0999 V2000
  -30.1790  -21.7320   19.9600 C   0  0  0  0  0  0  0  0  0  0  0  0
  -29.4730  -20.5810   20.0400 N   0  0  0  0  0  0  0  0  0  0  0  0
  -31.4120  -21.7340   19.8880 O   0  0  0  0  0  0  0  0  0  0  0  0
  -28.5070  -20.6480   20.3290 H   0  0  0  0  0  0  0  0  0  0  0  0
  -29.6950  -18.1070   20.3080 C   0  0  0  0  0  3  0  0  0  0  0  0
  -30.5410  -19.2240   18.3040 C   0  0  0  0  0  3  0  0  0  0  0  0
  -30.7570  -16.8170   18.5310 C   0  0  0  0  0  3  0  0  0  0  0  0
  -29.9210  -19.3050   19.5710 C   0  0  0  0  0  0  0  0  0  0  0  0
  -30.1420  -16.8500   19.8090 C   0  0  0  0  0  0  0  0  0  0  0  0
  -30.9570  -17.9900   17.7860 C   0  0  0  0  0  0  0  0  0  0  0  0
  -31.5460  -17.9280   16.5690 F   0  0  0  0  0  0  0  0  0  0  0  0
  -30.6780  -14.5120   20.4200 C   0  0  0  0  0  0  0  0  0  0  0  0
  -30.3640  -12.3200   19.3780 C   0  0  0  0  0  2  0  0  0  0  0  0
  -29.4470  -12.5270   18.1540 C   0  0  0  0  0  2  0  0  0  0  0  0
  -27.9640  -12.4160   18.5660 C   0  0  0  0  0  2  0  0  0  0  0  0
  -27.6180  -13.2620   19.8240 C   0  0  0  0  0  3  0  0  0  0  0  0
  -28.6680  -13.0780   20.9440 C   0  0  0  0  0  2  0  0  0  0  0  0
  -29.9950  -13.3390   20.3710 N   0  0  0  0  0  0  0  0  0  0  0  0
  -31.8710  -14.5960   20.1190 O   0  0  0  0  0  0  0  0  0  0  0  0
  -29.9300  -15.6310   20.5510 N   0  0  0  0  0  0  0  0  0  0  0  0
  -29.0300  -15.5240   20.9920 H   0  0  0  0  0  0  0  0  0  0  0  0
  -25.2210  -13.8690   20.5300 C   0  0  0  0  0  0  0  0  0  0  0  0
  -24.1490  -13.0990   20.8970 C   0  0  0  0  0  0  0  0  0  0  0  0
  -24.6090  -11.7460   20.8730 C   0  0  0  0  0  0  0  0  0  0  0  0
  -26.2640  -12.9870   20.3030 N   0  0  0  0  0  0  0  0  0  0  0  0
  -25.9010  -11.7060   20.5680 N   0  0  0  0  0  0  0  0  0  0  0  0
  -23.8800  -10.4860   21.0630 C   0  0  0  0  0  0  0  0  0  0  0  0
  -24.3170   -9.5130   21.9880 C   0  0  0  0  0  3  0  0  0  0  0  0
  -23.5890   -8.3160   22.1660 C   0  0  0  0  0  3  0  0  0  0  0  0
  -22.4100   -8.0850   21.4200 C   0  0  0  0  0  0  0  0  0  0  0  0
  -21.9910   -9.0480   20.4840 C   0  0  0  0  0  3  0  0  0  0  0  0
  -22.7190  -10.2360   20.3040 C   0  0  0  0  0  3  0  0  0  0  0  0
  -21.6520   -6.9450   21.5090 O   0  0  0  0  0  0  0  0  0  0  0  0
  -21.6210   -6.1860   22.6510 C   0  0  0  0  0  0  0  0  0  0  0  0
  -21.2280   -6.7280   23.8950 C   0  0  0  0  0  3  0  0  0  0  0  0
  -21.1430   -5.8970   25.0290 C   0  0  0  0  0  3  0  0  0  0  0  0
  -21.4430   -4.5260   24.9230 C   0  0  0  0  0  0  0  0  0  0  0  0
  -21.8300   -3.9830   23.6860 C   0  0  0  0  0  3  0  0  0  0  0  0
  -21.9160   -4.8120   22.5520 C   0  0  0  0  0  0  0  0  0  0  0  0
  -22.2690   -4.2800   21.3570 F   0  0  0  0  0  0  0  0  0  0  0  0
  -21.3560   -3.7250   26.0130 F   0  0  0  0  0  0  0  0  0  0  0  0
  -22.7510  -13.5800   21.1610 C   0  0  0  0  0  0  0  0  0  0  0  0
  -22.0160  -12.8880   22.0250 N   0  0  0  0  0  0  0  0  0  0  0  0
  -22.3180  -14.6050   20.6360 O   0  0  0  0  0  0  0  0  0  0  0  0
  -22.3800  -12.0630   22.4780 H   0  0  0  0  0  0  0  0  0  0  0  0
  -21.0770  -13.1920   22.2390 H   0  0  0  0  0  0  0  0  0  0  0  0
  -25.3880  -15.2390   20.3500 N   0  0  0  0  0  0  0  0  0  0  0  0
  -24.6250  -15.8980   20.4570 H   0  0  0  0  0  0  0  0  0  0  0  0
  -26.2360  -15.6710   20.0030 H   0  0  0  0  0  0  0  0  0  0  0  0
  -29.4130  -23.0760   19.9810 C   0  0  0  0  0  2  0  0  0  0  0  0
  -30.1490  -24.2290   19.2110 C   0  0  0  0  0  2  0  0  0  0  0  0
  -30.2230  -25.5290   17.0640 C   0  0  0  0  0  1  0  0  0  0  0  0
  -28.0270  -24.6650   17.7860 C   0  0  0  0  0  1  0  0  0  0  0  0
  -29.3530  -25.2480   18.3130 C   0  0  1  0  0  0  0  0  0  0  0  0
  -29.1370  -26.6520   18.9700 C   0  0  0  0  0  2  0  0  0  0  0  0
  -28.3840  -26.6840   20.1790 O   0  0  0  0  0  0  0  0  0  0  0  0
  -24.5920  -31.8950   23.2320 C   0  0  0  0  0  0  0  0  0  0  0  0
  -27.2430  -27.4540   20.1550 C   0  0  0  0  0  0  0  0  0  0  0  0
  -23.3880  -30.4880   21.5910 C   0  0  0  0  0  3  0  0  0  0  0  0
  -24.8460  -28.9540   20.1690 C   0  0  0  0  0  0  0  0  0  0  0  0
  -25.9140  -30.8520   21.3940 C   0  0  0  0  0  2  0  0  0  0  0  0
  -26.0030  -29.4800   20.7580 C   0  0  0  0  0  0  0  0  0  0  0  0
  -27.2040  -28.7330   20.7590 C   0  0  0  0  0  3  0  0  0  0  0  0
  -26.0670  -26.9410   19.5720 C   0  0  0  0  0  3  0  0  0  0  0  0
  -24.8720  -27.6820   19.5760 C   0  0  0  0  0  3  0  0  0  0  0  0
  -23.5990  -29.8070   20.2130 C   0  0  0  0  0  2  0  0  0  0  0  0
  -24.6500  -31.0930   22.1310 N   0  0  0  0  0  0  0  0  0  0  0  0
  -23.5090  -32.1630   23.7720 O   0  0  0  0  0  0  0  0  0  0  0  0
  -22.7410  -29.4650   22.5540 C   0  0  0  0  0  0  0  0  0  0  0  0
  -21.4170  -29.2800   22.4280 N   0  0  0  0  0  0  0  0  0  0  0  0
  -23.4270  -28.8420   23.3690 O   0  0  0  0  0  0  0  0  0  0  0  0
  -20.9260  -29.8340   21.7410 H   0  0  0  0  0  0  0  0  0  0  0  0
  -18.0450  -28.0790   22.9210 C   0  0  0  0  0  0  0  0  0  0  0  0
  -20.6010  -28.3410   23.1980 C   0  0  0  0  0  3  0  0  0  0  0  0
  -20.7070  -26.9090   22.6220 C   0  0  0  0  0  2  0  0  0  0  0  0
  -19.6070  -26.5840   21.6070 C   0  0  0  0  0  2  0  0  0  0  0  0
  -18.2240  -26.7290   22.2490 C   0  0  0  0  0  2  0  0  0  0  0  0
  -19.1610  -28.8430   23.3520 C   0  0  0  0  0  0  0  0  0  0  0  0
  -18.9420  -30.1070   23.9380 C   0  0  0  0  0  3  0  0  0  0  0  0
  -17.6360  -30.6090   24.1020 C   0  0  0  0  0  3  0  0  0  0  0  0
  -16.5330  -29.8410   23.6870 C   0  0  0  0  0  3  0  0  0  0  0  0
  -16.7380  -28.5790   23.1040 C   0  0  0  0  0  3  0  0  0  0  0  0
  -25.8770  -32.5300   23.8490 C   0  0  0  0  0  3  0  0  0  0  0  0
  -25.5650  -33.9260   24.1810 N   0  0  0  0  0  0  0  0  0  0  0  0
  -25.8950  -34.9790   23.4210 C   0  0  0  0  0  0  0  0  0  0  0  0
  -26.5660  -34.8770   22.3890 O   0  0  0  0  0  0  0  0  0  0  0  0
  -24.9690  -34.0790   24.9810 H   0  0  0  0  0  0  0  0  0  0  0  0
  -24.1640  -36.7660   23.0560 C   0  0  0  0  0  1  0  0  0  0  0  0
  -25.4020  -36.3660   23.8750 C   0  0  0  0  0  3  0  0  0  0  0  0
  -27.5330  -37.2520   24.7150 C   0  0  0  0  0  1  0  0  0  0  0  0
  -26.4340  -37.4220   23.7670 N   0  0  0  0  0  0  0  0  0  0  0  0
  -26.0260  -38.3410   23.9160 H   0  0  0  0  0  0  0  0  0  0  0  0
  -26.4010  -31.7590   25.1210 C   0  0  1  0  0  0  0  0  0  0  0  0
  -25.3130  -31.5140   26.1940 C   0  0  0  0  0  1  0  0  0  0  0  0
  -26.9870  -30.3840   24.7220 C   0  0  0  0  0  1  0  0  0  0  0  0
  -27.5520  -32.5540   25.7790 C   0  0  0  0  0  1  0  0  0  0  0  0
  1 50  1  0
  1  2  1  0
  2  4  1  0
  3  1  2  0
  6  8  1  0
  7  9  2  0
  8  2  1  0
  8  5  2  0
  9  5  1  0
  9 20  1  0
 10  6  2  0
 10  7  1  0
 11 10  1  0
 12 20  1  0
 13 18  1  0
 14 15  1  0
 14 13  1  0
 16 15  1  0
 16 25  1  0
 16 17  1  0
 18 12  1  0
 18 17  1  0
 19 12  2  0
 20 21  1  0
 22 23  2  0
 23 42  1  0
 24 23  1  0
 24 27  1  0
 25 22  1  0
 25 26  1  0
 26 24  2  0
 27 28  1  0
 28 29  2  0
 30 33  1  0
 30 29  1  0
 31 30  2  0
 32 31  1  0
 32 27  2  0
 33 34  1  0
 34 35  1  0
 35 36  2  0
 37 36  1  0
 37 41  1  0
 38 37  2  0
 39 34  2  0
 39 38  1  0
 40 39  1  0
 42 43  1  0
 43 46  1  0
 43 45  1  0
 44 42  2  0
 47 48  1  0
 47 22  1  0
 49 47  1  0
 51 50  1  0
 54 52  1  6
 53 54  1  0
 54 55  1  0
 54 51  1  0
 55 56  1  0
 57 68  2  0
 58 56  1  0
 58 63  1  0
 59 67  1  0
 59 69  1  0
 60 66  1  0
 60 62  1  0
 61 67  1  0
 62 63  2  0
 62 61  1  0
 64 65  1  0
 64 58  2  0
 65 60  2  0
 66 59  1  0
 67 57  1  0
 69 71  2  0
 70 69  1  0
 72 70  1  0
 73 82  2  0
 73 78  1  0
 74 70  1  0
 74 78  1  0
 75 74  1  0
 76 77  1  0
 76 75  1  0
 77 73  1  0
 78 79  2  0
 79 80  1  0
 81 80  2  0
 82 81  1  0
 83 57  1  0
 83 84  1  0
 83 93  1  0
 84 87  1  0
 85 89  1  0
 85 84  1  0
 86 85  2  0
 89 88  1  0
 91 89  1  0
 91 92  1  0
 91 90  1  0
 93 96  1  1
 93 94  1  0
 95 93  1  0
M  ISO  4  12 100  20 100  55 101  56 101
M  END
>  <TORSDO>  (44) 
F 21

>  <SCORE>  (44) 
-13.573

>  <name>  (44) 
43

>  <ligand_id>  (44) 
43

>  <original_smiles>  (44) 
[H]c1c([H])c([H])c2c(c1[H])C([H])([H])C([H])([H])C([H])([H])C2([H])N([H])C(=O)C1([H])N(C(=O)C([H])(N([H])C(=O)C([H])(N([H])C([H])([H])[H])C([H])([H])[H])C(C([H])([H])[H])(C([H])([H])[H])C([H])([H])[H])C([H])([H])c2c([H])c(OC([H])([H])C(C([H])([H])[H])(C([H])([H])[H])C([H])([H])C([H])([H])C(=O)N([H])c3c([H])c(F)c([H])c(N([H])C(=O)N4C([H])([H])C([H])([H])C([H])([H])C([H])(n5nc(-c6c([H])c([H])c(Oc7c([H])c([H])c(F)c([H])c7F)c([H])c6[H])c(C(=O)N([H])[H])c5N([H])[H])C4([H])[H])c3[H])c([H])c([H])c2C1([H])[H]

>  <smiles>  (44) 
[H]c1c([H])c([H])c2c(c1[H])C([H])([H])C([H])([H])C([H])([H])C2([H])N([H])C(=O)C1([H])N(C(=O)C([H])(N([H])C(=O)C([H])(N([H])C([H])([H])[H])C([H])([H])[H])C(C([H])([H])[H])(C([H])([H])[H])C([H])([H])[H])C([H])([H])c2c([H])c(OC([H])([H])C(C([H])([H])[H])(C([H])([H])[H])C([H])([H])C([H])([H])C(=O)N([H])c3c([H])c(F)c([H])c(N([H])C(=O)N4C([H])([H])C([H])([H])C([H])([H])C([H])(n5nc(-c6c([H])c([H])c(Oc7c([H])c([H])c(F)c([H])c7F)c([H])c6[H])c(C(=O)N([H])[H])c5N([H])[H])C4([H])[H])c3[H])c([H])c([H])c2C1([H])[H]

$$$$
44:0:0
     RDKit          3D

 97105  0  0  1  0  0  0  0  0999 V2000
  -31.7210  -23.5990   18.9440 C   0  0  0  0  0  1  0  0  0  0  0  0
  -31.2500  -22.3170   21.0840 C   0  0  0  0  0  1  0  0  0  0  0  0
  -30.6330  -22.8800   19.7800 C   0  0  1  0  0  0  0  0  0  0  0  0
  -29.5530  -23.9380   20.1330 C   0  0  0  0  0  0  0  0  0  0  0  0
  -28.3900  -23.8020   19.7390 O   0  0  0  0  0  0  0  0  0  0  0  0
  -29.9830  -25.1850   20.9420 C   0  0  0  0  0  2  0  0  0  0  0  0
  -27.8030  -25.6190   22.2510 C   0  0  0  0  0  1  0  0  0  0  0  0
  -28.8730  -26.2020   21.2940 C   0  0  0  0  0  3  0  0  0  0  0  0
  -28.3610  -26.6970   20.0550 O   0  0  0  0  0  0  0  0  0  0  0  0
  -24.6090  -31.8740   23.2220 C   0  0  0  0  0  0  0  0  0  0  0  0
  -27.2220  -27.4570   20.1130 C   0  0  0  0  0  0  0  0  0  0  0  0
  -23.3870  -30.4730   21.5910 C   0  0  0  0  0  3  0  0  0  0  0  0
  -24.8280  -28.9390   20.1540 C   0  0  0  0  0  0  0  0  0  0  0  0
  -25.9090  -30.8370   21.3690 C   0  0  0  0  0  2  0  0  0  0  0  0
  -25.9900  -29.4680   20.7340 C   0  0  0  0  0  0  0  0  0  0  0  0
  -27.1940  -28.7310   20.7190 C   0  0  0  0  0  3  0  0  0  0  0  0
  -26.0540  -26.9360   19.5280 C   0  0  0  0  0  3  0  0  0  0  0  0
  -24.8540  -27.6680   19.5520 C   0  0  0  0  0  3  0  0  0  0  0  0
  -23.5820  -29.7920   20.2110 C   0  0  0  0  0  2  0  0  0  0  0  0
  -24.6540  -31.0740   22.1200 N   0  0  0  0  0  0  0  0  0  0  0  0
  -23.5320  -32.1480   23.7710 O   0  0  0  0  0  0  0  0  0  0  0  0
  -22.7450  -29.4510   22.5550 C   0  0  0  0  0  0  0  0  0  0  0  0
  -21.4190  -29.2670   22.4360 N   0  0  0  0  0  0  0  0  0  0  0  0
  -23.4350  -28.8250   23.3650 O   0  0  0  0  0  0  0  0  0  0  0  0
  -20.9250  -29.8230   21.7540 H   0  0  0  0  0  0  0  0  0  0  0  0
  -18.0510  -28.0710   22.9460 C   0  0  0  0  0  0  0  0  0  0  0  0
  -20.6080  -28.3320   23.2120 C   0  0  0  0  0  3  0  0  0  0  0  0
  -20.7110  -26.8990   22.6410 C   0  0  0  0  0  2  0  0  0  0  0  0
  -19.6070  -26.5710   21.6300 C   0  0  0  0  0  2  0  0  0  0  0  0
  -18.2270  -26.7190   22.2770 C   0  0  0  0  0  2  0  0  0  0  0  0
  -19.1680  -28.8360   23.3710 C   0  0  0  0  0  0  0  0  0  0  0  0
  -18.9510  -30.1030   23.9540 C   0  0  0  0  0  3  0  0  0  0  0  0
  -17.6460  -30.6050   24.1200 C   0  0  0  0  0  3  0  0  0  0  0  0
  -16.5410  -29.8370   23.7120 C   0  0  0  0  0  3  0  0  0  0  0  0
  -16.7450  -28.5720   23.1300 C   0  0  0  0  0  3  0  0  0  0  0  0
  -25.9020  -32.5020   23.8300 C   0  0  0  0  0  3  0  0  0  0  0  0
  -25.5930  -33.8970   24.1730 N   0  0  0  0  0  0  0  0  0  0  0  0
  -25.9180  -34.9550   23.4170 C   0  0  0  0  0  0  0  0  0  0  0  0
  -26.5790  -34.8580   22.3800 O   0  0  0  0  0  0  0  0  0  0  0  0
  -25.0000  -34.0450   24.9760 H   0  0  0  0  0  0  0  0  0  0  0  0
  -24.1810  -36.7450   23.0930 C   0  0  0  0  0  1  0  0  0  0  0  0
  -25.4320  -36.3390   23.8880 C   0  0  0  0  0  3  0  0  0  0  0  0
  -27.5760  -37.2170   24.6990 C   0  0  0  0  0  1  0  0  0  0  0  0
  -26.4630  -37.3940   23.7710 N   0  0  0  0  0  0  0  0  0  0  0  0
  -26.0570  -38.3120   23.9350 H   0  0  0  0  0  0  0  0  0  0  0  0
  -26.4400  -31.7210   25.0910 C   0  0  1  0  0  0  0  0  0  0  0  0
  -25.3630  -31.4730   26.1720 C   0  0  0  0  0  1  0  0  0  0  0  0
  -27.0220  -30.3490   24.6750 C   0  0  0  0  0  1  0  0  0  0  0  0
  -27.6000  -32.5110   25.7420 C   0  0  0  0  0  1  0  0  0  0  0  0
  -29.9580  -21.7130   18.9750 C   0  0  0  0  0  2  0  0  0  0  0  0
  -30.8360  -20.5130   18.6260 C   0  0  0  0  0  0  0  0  0  0  0  0
  -31.7470  -20.5920   17.7520 N   0  0  0  0  0  0  0  0  0  0  0  0
  -32.2260  -19.7040   17.6460 H   0  0  0  0  0  0  0  0  0  0  0  0
  -29.3320  -18.5900   19.2460 C   0  0  0  0  0  3  0  0  0  0  0  0
  -31.6020  -18.6650   20.1200 C   0  0  0  0  0  3  0  0  0  0  0  0
  -29.1320  -17.3370   19.8600 C   0  0  0  0  0  3  0  0  0  0  0  0
  -31.4090  -17.4150   20.7340 C   0  0  0  0  0  3  0  0  0  0  0  0
  -30.5770  -19.2510   19.3490 C   0  0  0  0  0  0  0  0  0  0  0  0
  -30.1860  -16.7290   20.5710 C   0  0  0  0  0  0  0  0  0  0  0  0
  -30.7030  -14.3850   20.5230 C   0  0  0  0  0  0  0  0  0  0  0  0
  -30.3610  -12.2540   19.3610 C   0  0  0  0  0  2  0  0  0  0  0  0
  -29.4370  -12.5110   18.1530 C   0  0  0  0  0  2  0  0  0  0  0  0
  -27.9580  -12.3970   18.5700 C   0  0  0  0  0  2  0  0  0  0  0  0
  -27.6230  -13.2230   19.8430 C   0  0  0  0  0  3  0  0  0  0  0  0
  -28.6670  -12.9620   20.9530 C   0  0  0  0  0  2  0  0  0  0  0  0
  -30.0080  -13.2280   20.4030 N   0  0  0  0  0  0  0  0  0  0  0  0
  -31.8360  -14.5390   20.0550 O   0  0  0  0  0  0  0  0  0  0  0  0
  -30.0200  -15.4080   21.0530 N   0  0  0  0  0  0  0  0  0  0  0  0
  -29.1030  -15.1600   21.3920 H   0  0  0  0  0  0  0  0  0  0  0  0
  -25.2150  -13.8420   20.5250 C   0  0  0  0  0  0  0  0  0  0  0  0
  -24.1440  -13.0730   20.8930 C   0  0  0  0  0  0  0  0  0  0  0  0
  -24.6030  -11.7210   20.8730 C   0  0  0  0  0  0  0  0  0  0  0  0
  -26.2630  -12.9570   20.3090 N   0  0  0  0  0  0  0  0  0  0  0  0
  -25.8950  -11.6770   20.5740 N   0  0  0  0  0  0  0  0  0  0  0  0
  -23.8730  -10.4600   21.0640 C   0  0  0  0  0  0  0  0  0  0  0  0
  -24.3100   -9.4880   21.9900 C   0  0  0  0  0  3  0  0  0  0  0  0
  -23.5820   -8.2920   22.1720 C   0  0  0  0  0  3  0  0  0  0  0  0
  -22.4010   -8.0590   21.4280 C   0  0  0  0  0  0  0  0  0  0  0  0
  -21.9830   -9.0220   20.4930 C   0  0  0  0  0  3  0  0  0  0  0  0
  -22.7100  -10.2090   20.3070 C   0  0  0  0  0  3  0  0  0  0  0  0
  -21.6450   -6.9160   21.5160 O   0  0  0  0  0  0  0  0  0  0  0  0
  -21.6240   -6.1540   22.6570 C   0  0  0  0  0  0  0  0  0  0  0  0
  -21.2510   -6.6960   23.9070 C   0  0  0  0  0  3  0  0  0  0  0  0
  -21.1720   -5.8620   25.0410 C   0  0  0  0  0  3  0  0  0  0  0  0
  -21.4570   -4.4890   24.9270 C   0  0  0  0  0  0  0  0  0  0  0  0
  -21.8240   -3.9470   23.6820 C   0  0  0  0  0  3  0  0  0  0  0  0
  -21.9040   -4.7770   22.5510 C   0  0  0  0  0  0  0  0  0  0  0  0
  -22.2340   -4.2450   21.3500 F   0  0  0  0  0  0  0  0  0  0  0  0
  -21.3760   -3.6870   26.0140 F   0  0  0  0  0  0  0  0  0  0  0  0
  -22.7450  -13.5540   21.1490 C   0  0  0  0  0  0  0  0  0  0  0  0
  -22.0100  -12.8680   22.0170 N   0  0  0  0  0  0  0  0  0  0  0  0
  -22.3110  -14.5730   20.6130 O   0  0  0  0  0  0  0  0  0  0  0  0
  -22.3740  -12.0460   22.4750 H   0  0  0  0  0  0  0  0  0  0  0  0
  -21.0690  -13.1700   22.2270 H   0  0  0  0  0  0  0  0  0  0  0  0
  -25.3830  -15.2110   20.3350 N   0  0  0  0  0  0  0  0  0  0  0  0
  -24.6100  -15.8620   20.4140 H   0  0  0  0  0  0  0  0  0  0  0  0
  -26.2250  -15.6400   19.9780 H   0  0  0  0  0  0  0  0  0  0  0  0
  3  1  1  6
  3  4  1  0
  3  2  1  0
  4  6  1  0
  5  4  2  0
  6  8  1  0
  8  7  1  0
  9 11  1  0
  9  8  1  0
 10 21  2  0
 11 16  1  0
 12 20  1  0
 12 22  1  0
 13 19  1  0
 13 15  1  0
 14 20  1  0
 15 14  1  0
 16 15  2  0
 17 18  1  0
 17 11  2  0
 18 13  2  0
 19 12  1  0
 20 10  1  0
 22 24  2  0
 23 22  1  0
 25 23  1  0
 26 35  2  0
 26 31  1  0
 27 23  1  0
 27 31  1  0
 28 27  1  0
 29 30  1  0
 29 28  1  0
 30 26  1  0
 31 32  2  0
 32 33  1  0
 34 33  2  0
 35 34  1  0
 36 10  1  0
 36 37  1  0
 36 46  1  0
 37 40  1  0
 38 42  1  0
 38 37  1  0
 39 38  2  0
 42 41  1  0
 44 42  1  0
 44 45  1  0
 44 43  1  0
 46 49  1  1
 46 47  1  0
 48 46  1  0
 50  3  1  0
 51 50  1  0
 51 58  1  0
 52 51  2  0
 53 52  1  0
 54 58  2  0
 54 56  1  0
 55 57  2  0
 56 59  2  0
 58 55  1  0
 59 57  1  0
 59 68  1  0
 60 68  1  0
 61 66  1  0
 62 63  1  0
 62 61  1  0
 64 63  1  0
 64 73  1  0
 64 65  1  0
 66 60  1  0
 66 65  1  0
 67 60  2  0
 68 69  1  0
 70 71  2  0
 71 90  1  0
 72 71  1  0
 72 75  1  0
 73 70  1  0
 73 74  1  0
 74 72  2  0
 75 76  1  0
 76 77  2  0
 78 81  1  0
 78 77  1  0
 79 78  2  0
 80 79  1  0
 80 75  2  0
 81 82  1  0
 82 83  1  0
 83 84  2  0
 85 84  1  0
 85 89  1  0
 86 85  2  0
 87 82  2  0
 87 86  1  0
 88 87  1  0
 90 91  1  0
 91 94  1  0
 91 93  1  0
 92 90  2  0
 95 96  1  0
 95 70  1  0
 97 95  1  0
M  ISO  4   8 101   9 101  60 100  68 100
M  END
>  <TORSDO>  (45) 
F 22

>  <SCORE>  (45) 
-13.409

>  <name>  (45) 
44

>  <ligand_id>  (45) 
44

>  <original_smiles>  (45) 
[H]N=C(c1c([H])c([H])c(N([H])C(=O)N2C([H])([H])C([H])([H])C([H])([H])C([H])(n3nc(-c4c([H])c([H])c(Oc5c([H])c([H])c(F)c([H])c5F)c([H])c4[H])c(C(=O)N([H])[H])c3N([H])[H])C2([H])[H])c([H])c1[H])C([H])([H])C(C(=O)C([H])([H])C([H])(Oc1c([H])c([H])c2c(c1[H])C([H])([H])N(C(=O)C([H])(N([H])C(=O)C([H])(N([H])C([H])([H])[H])C([H])([H])[H])C(C([H])([H])[H])(C([H])([H])[H])C([H])([H])[H])C([H])(C(=O)N([H])C1([H])c3c([H])c([H])c([H])c([H])c3C([H])([H])C([H])([H])C1([H])[H])C2([H])[H])C([H])([H])[H])(C([H])([H])[H])C([H])([H])[H]

>  <smiles>  (45) 
[H]N=C(c1c([H])c([H])c(N([H])C(=O)N2C([H])([H])C([H])([H])C([H])([H])C([H])(n3nc(-c4c([H])c([H])c(Oc5c([H])c([H])c(F)c([H])c5F)c([H])c4[H])c(C(=O)N([H])[H])c3N([H])[H])C2([H])[H])c([H])c1[H])C([H])([H])C(C(=O)C([H])([H])C([H])(Oc1c([H])c([H])c2c(c1[H])C([H])([H])N(C(=O)C([H])(N([H])C(=O)C([H])(N([H])C([H])([H])[H])C([H])([H])[H])C(C([H])([H])[H])(C([H])([H])[H])C([H])([H])[H])C([H])(C(=O)N([H])C1([H])c3c([H])c([H])c([H])c([H])c3C([H])([H])C([H])([H])C1([H])[H])C2([H])[H])C([H])([H])[H])(C([H])([H])[H])C([H])([H])[H]

$$$$
45:0:0
     RDKit          3D

 96104  0  0  1  0  0  0  0  0999 V2000
  -29.1650  -22.4140   19.9070 C   0  0  0  0  0  0  0  0  0  0  0  0
  -29.0220  -21.1270   20.4190 N   0  0  0  0  0  0  0  0  0  0  0  0
  -29.8280  -22.5940   18.8830 O   0  0  0  0  0  0  0  0  0  0  0  0
  -28.3040  -21.0350   21.1260 H   0  0  0  0  0  0  0  0  0  0  0  0
  -31.2150  -20.1060   19.8730 C   0  0  0  0  0  3  0  0  0  0  0  0
  -31.6650  -17.7050   19.8410 C   0  0  0  0  0  3  0  0  0  0  0  0
  -29.4250  -18.5130   20.3480 C   0  0  0  0  0  0  0  0  0  0  0  0
  -29.8530  -19.9080   20.1920 C   0  0  0  0  0  0  0  0  0  0  0  0
  -30.3300  -17.3700   20.1810 C   0  0  0  0  0  0  0  0  0  0  0  0
  -32.0960  -19.0310   19.6890 C   0  0  0  0  0  0  0  0  0  0  0  0
  -33.3890  -19.2790   19.3680 F   0  0  0  0  0  0  0  0  0  0  0  0
  -30.6410  -14.7500   20.0540 C   0  0  0  0  0  0  0  0  0  0  0  0
  -30.3100  -12.5340   18.9650 C   0  0  0  0  0  2  0  0  0  0  0  0
  -29.3140  -12.6850   17.7960 C   0  0  0  0  0  2  0  0  0  0  0  0
  -27.8700  -12.5070   18.3000 C   0  0  0  0  0  2  0  0  0  0  0  0
  -27.5730  -13.3430   19.5740 C   0  0  0  0  0  3  0  0  0  0  0  0
  -28.6920  -13.2090   20.6310 C   0  0  0  0  0  2  0  0  0  0  0  0
  -29.9570  -13.5580   19.9760 N   0  0  0  0  0  0  0  0  0  0  0  0
  -31.8210  -14.7650   19.7020 O   0  0  0  0  0  0  0  0  0  0  0  0
  -29.9410  -15.9260   20.3210 N   0  0  0  0  0  0  0  0  0  0  0  0
  -28.9840  -15.7660   20.5890 H   0  0  0  0  0  0  0  0  0  0  0  0
  -25.2200  -13.9020   20.4250 C   0  0  0  0  0  0  0  0  0  0  0  0
  -24.1780  -13.1160   20.8310 C   0  0  0  0  0  0  0  0  0  0  0  0
  -24.6480  -11.7680   20.7570 C   0  0  0  0  0  0  0  0  0  0  0  0
  -26.2590  -13.0360   20.1260 N   0  0  0  0  0  0  0  0  0  0  0  0
  -25.9240  -11.7460   20.3910 N   0  0  0  0  0  0  0  0  0  0  0  0
  -23.9390  -10.4990   20.9590 C   0  0  0  0  0  0  0  0  0  0  0  0
  -24.3970   -9.5350   21.8830 C   0  0  0  0  0  3  0  0  0  0  0  0
  -23.6860   -8.3300   22.0720 C   0  0  0  0  0  3  0  0  0  0  0  0
  -22.5020   -8.0820   21.3370 C   0  0  0  0  0  0  0  0  0  0  0  0
  -22.0620   -9.0350   20.4020 C   0  0  0  0  0  3  0  0  0  0  0  0
  -22.7740  -10.2300   20.2110 C   0  0  0  0  0  3  0  0  0  0  0  0
  -21.7590   -6.9300   21.4380 O   0  0  0  0  0  0  0  0  0  0  0  0
  -21.7120   -6.2030   22.6010 C   0  0  0  0  0  0  0  0  0  0  0  0
  -21.2660   -6.7680   23.8150 C   0  0  0  0  0  3  0  0  0  0  0  0
  -21.1680   -5.9680   24.9700 C   0  0  0  0  0  3  0  0  0  0  0  0
  -21.5050   -4.6020   24.9120 C   0  0  0  0  0  0  0  0  0  0  0  0
  -21.9440   -4.0360   23.7030 C   0  0  0  0  0  3  0  0  0  0  0  0
  -22.0450   -4.8350   22.5490 C   0  0  0  0  0  0  0  0  0  0  0  0
  -22.4480   -4.2790   21.3810 F   0  0  0  0  0  0  0  0  0  0  0  0
  -21.4030   -3.8310   26.0190 F   0  0  0  0  0  0  0  0  0  0  0  0
  -22.7910  -13.5800   21.1700 C   0  0  0  0  0  0  0  0  0  0  0  0
  -22.1050  -12.8660   22.0540 N   0  0  0  0  0  0  0  0  0  0  0  0
  -22.3260  -14.6110   20.6850 O   0  0  0  0  0  0  0  0  0  0  0  0
  -22.4950  -12.0320   22.4680 H   0  0  0  0  0  0  0  0  0  0  0  0
  -21.1770  -13.1580   22.3240 H   0  0  0  0  0  0  0  0  0  0  0  0
  -25.3640  -15.2750   20.2590 N   0  0  0  0  0  0  0  0  0  0  0  0
  -24.5870  -15.9120   20.3990 H   0  0  0  0  0  0  0  0  0  0  0  0
  -26.1740  -15.7190   19.8490 H   0  0  0  0  0  0  0  0  0  0  0  0
  -27.1230  -18.1410   19.3770 C   0  0  0  0  0  1  0  0  0  0  0  0
  -27.9620  -18.2410   20.6580 C   0  0  0  0  0  2  0  0  0  0  0  0
  -29.3180  -24.0350   21.8340 C   0  0  0  0  0  1  0  0  0  0  0  0
  -27.0380  -23.3860   20.9820 C   0  0  0  0  0  1  0  0  0  0  0  0
  -28.4880  -23.7200   20.5740 C   0  0  2  0  0  0  0  0  0  0  0  0
  -28.4680  -25.0730   19.6650 C   0  0  0  0  0  2  0  0  0  0  0  0
  -28.3620  -26.4560   20.2440 O   0  0  0  0  0  0  0  0  0  0  0  0
  -24.6120  -31.8730   23.2210 C   0  0  0  0  0  0  0  0  0  0  0  0
  -27.2270  -27.2910   20.1630 C   0  0  0  0  0  0  0  0  0  0  0  0
  -23.4130  -30.4780   21.5730 C   0  0  0  0  0  3  0  0  0  0  0  0
  -24.8660  -28.9270   20.1440 C   0  0  0  0  0  0  0  0  0  0  0  0
  -25.9540  -30.7900   21.3970 C   0  0  0  0  0  2  0  0  0  0  0  0
  -26.0340  -29.4100   20.7470 C   0  0  0  0  0  0  0  0  0  0  0  0
  -27.2140  -28.6030   20.7450 C   0  0  0  0  0  3  0  0  0  0  0  0
  -26.0310  -26.8640   19.5450 C   0  0  0  0  0  3  0  0  0  0  0  0
  -24.8700  -27.6630   19.5330 C   0  0  0  0  0  3  0  0  0  0  0  0
  -23.6310  -29.8030   20.1910 C   0  0  0  0  0  2  0  0  0  0  0  0
  -24.6790  -31.0650   22.1210 N   0  0  0  0  0  0  0  0  0  0  0  0
  -23.5270  -32.1500   23.7510 O   0  0  0  0  0  0  0  0  0  0  0  0
  -22.7470  -29.4590   22.5290 C   0  0  0  0  0  0  0  0  0  0  0  0
  -21.4190  -29.2900   22.4050 N   0  0  0  0  0  0  0  0  0  0  0  0
  -23.4240  -28.8250   23.3420 O   0  0  0  0  0  0  0  0  0  0  0  0
  -20.9340  -29.8590   21.7260 H   0  0  0  0  0  0  0  0  0  0  0  0
  -18.0340  -28.1150   22.9080 C   0  0  0  0  0  0  0  0  0  0  0  0
  -20.5960  -28.3500   23.1690 C   0  0  0  0  0  3  0  0  0  0  0  0
  -20.6840  -26.9250   22.5780 C   0  0  0  0  0  2  0  0  0  0  0  0
  -19.5750  -26.6220   21.5660 C   0  0  0  0  0  2  0  0  0  0  0  0
  -18.1960  -26.7710   22.2180 C   0  0  0  0  0  2  0  0  0  0  0  0
  -19.1610  -28.8640   23.3390 C   0  0  0  0  0  0  0  0  0  0  0  0
  -18.9560  -30.1230   23.9440 C   0  0  0  0  0  3  0  0  0  0  0  0
  -17.6560  -30.6320   24.1230 C   0  0  0  0  0  3  0  0  0  0  0  0
  -16.5430  -29.8790   23.7080 C   0  0  0  0  0  3  0  0  0  0  0  0
  -16.7340  -28.6240   23.1050 C   0  0  0  0  0  3  0  0  0  0  0  0
  -25.8910  -32.5040   23.8510 C   0  0  0  0  0  3  0  0  0  0  0  0
  -26.3990  -31.7320   25.1320 C   0  0  1  0  0  0  0  0  0  0  0  0
  -25.2990  -31.4980   26.1930 C   0  0  0  0  0  1  0  0  0  0  0  0
  -26.9840  -30.3550   24.7420 C   0  0  0  0  0  1  0  0  0  0  0  0
  -27.5460  -32.5250   25.8010 C   0  0  0  0  0  1  0  0  0  0  0  0
  -25.5810  -33.9020   24.1820 N   0  0  0  0  0  0  0  0  0  0  0  0
  -25.9100  -34.9570   23.4230 C   0  0  0  0  0  0  0  0  0  0  0  0
  -26.5750  -34.8530   22.3890 O   0  0  0  0  0  0  0  0  0  0  0  0
  -24.9920  -34.0540   24.9870 H   0  0  0  0  0  0  0  0  0  0  0  0
  -24.1800  -36.7510   23.0780 C   0  0  0  0  0  1  0  0  0  0  0  0
  -25.4220  -36.3440   23.8860 C   0  0  0  0  0  3  0  0  0  0  0  0
  -27.5580  -37.2310   24.7120 C   0  0  0  0  0  1  0  0  0  0  0  0
  -26.4530  -37.3980   23.7720 N   0  0  0  0  0  0  0  0  0  0  0  0
  -26.0470  -38.3180   23.9200 H   0  0  0  0  0  0  0  0  0  0  0  0
  1  2  1  0
  1 54  1  0
  2  4  1  0
  3  1  2  0
  5  8  1  0
  6  9  2  0
  7 51  1  0
  8  7  2  0
  8  2  1  0
  9 20  1  0
  9  7  1  0
 10  6  1  0
 10  5  2  0
 11 10  1  0
 12 20  1  0
 13 18  1  0
 14 15  1  0
 14 13  1  0
 16 15  1  0
 16 25  1  0
 16 17  1  0
 18 12  1  0
 18 17  1  0
 19 12  2  0
 20 21  1  0
 22 23  2  0
 23 42  1  0
 24 23  1  0
 24 27  1  0
 25 26  1  0
 25 22  1  0
 26 24  2  0
 27 28  1  0
 28 29  2  0
 30 33  1  0
 30 29  1  0
 31 30  2  0
 32 31  1  0
 32 27  2  0
 33 34  1  0
 34 35  1  0
 35 36  2  0
 37 36  1  0
 37 41  1  0
 38 37  2  0
 39 34  2  0
 39 38  1  0
 40 39  1  0
 42 43  1  0
 43 46  1  0
 43 45  1  0
 44 42  2  0
 47 48  1  0
 47 22  1  0
 49 47  1  0
 50 51  1  0
 54 53  1  1
 54 52  1  0
 55 56  1  0
 55 54  1  0
 57 68  2  0
 58 56  1  0
 58 63  1  0
 59 67  1  0
 59 69  1  0
 60 66  1  0
 60 62  1  0
 61 67  1  0
 62 61  1  0
 63 62  2  0
 64 58  2  0
 65 64  1  0
 65 60  2  0
 66 59  1  0
 67 57  1  0
 69 71  2  0
 70 69  1  0
 72 70  1  0
 73 82  2  0
 73 78  1  0
 74 70  1  0
 74 78  1  0
 75 74  1  0
 76 77  1  0
 76 75  1  0
 77 73  1  0
 78 79  2  0
 79 80  1  0
 81 80  2  0
 82 81  1  0
 83 57  1  0
 83 88  1  0
 83 84  1  0
 84 87  1  1
 84 85  1  0
 86 84  1  0
 88 91  1  0
 89 93  1  0
 89 88  1  0
 90 89  2  0
 93 92  1  0
 95 93  1  0
 95 96  1  0
 95 94  1  0
M  ISO  4  12 100  20 100  55 101  56 101
M  END
>  <TORSDO>  (46) 
F 20

>  <SCORE>  (46) 
-14.037

>  <name>  (46) 
45

>  <ligand_id>  (46) 
45

>  <original_smiles>  (46) 
[H]c1c([H])c([H])c2c(c1[H])C([H])([H])C([H])([H])C([H])([H])C2([H])N([H])C(=O)C1([H])N(C(=O)C([H])(N([H])C(=O)C([H])(N([H])C([H])([H])[H])C([H])([H])[H])C(C([H])([H])[H])(C([H])([H])[H])C([H])([H])[H])C([H])([H])c2c([H])c(OC([H])([H])C(C(=O)N([H])c3c([H])c(F)c([H])c(N([H])C(=O)N4C([H])([H])C([H])([H])C([H])([H])C([H])(n5nc(-c6c([H])c([H])c(Oc7c([H])c([H])c(F)c([H])c7F)c([H])c6[H])c(C(=O)N([H])[H])c5N([H])[H])C4([H])[H])c3C([H])([H])C([H])([H])[H])(C([H])([H])[H])C([H])([H])[H])c([H])c([H])c2C1([H])[H]

>  <smiles>  (46) 
[H]c1c([H])c([H])c2c(c1[H])C([H])([H])C([H])([H])C([H])([H])C2([H])N([H])C(=O)C1([H])N(C(=O)C([H])(N([H])C(=O)C([H])(N([H])C([H])([H])[H])C([H])([H])[H])C(C([H])([H])[H])(C([H])([H])[H])C([H])([H])[H])C([H])([H])c2c([H])c(OC([H])([H])C(C(=O)N([H])c3c([H])c(F)c([H])c(N([H])C(=O)N4C([H])([H])C([H])([H])C([H])([H])C([H])(n5nc(-c6c([H])c([H])c(Oc7c([H])c([H])c(F)c([H])c7F)c([H])c6[H])c(C(=O)N([H])[H])c5N([H])[H])C4([H])[H])c3C([H])([H])C([H])([H])[H])(C([H])([H])[H])C([H])([H])[H])c([H])c([H])c2C1([H])[H]

$$$$
46:0:0
     RDKit          3D

 97105  0  0  1  0  0  0  0  0999 V2000
  -28.8730  -20.5330   20.6880 C   0  0  0  0  0  0  0  0  0  0  0  0
  -27.8220  -20.3830   21.3740 N   0  0  0  0  0  0  0  0  0  0  0  0
  -27.8520  -19.5180   21.9020 H   0  0  0  0  0  0  0  0  0  0  0  0
  -31.3010  -19.8510   20.7840 C   0  0  0  0  0  3  0  0  0  0  0  0
  -29.6060  -18.1060   20.6380 C   0  0  0  0  0  3  0  0  0  0  0  0
  -31.9610  -17.4970   20.7700 C   0  0  0  0  0  3  0  0  0  0  0  0
  -29.9400  -19.4870   20.6860 C   0  0  0  0  0  0  0  0  0  0  0  0
  -32.3040  -18.8630   20.8400 C   0  0  0  0  0  0  0  0  0  0  0  0
  -30.6080  -17.1000   20.6570 C   0  0  0  0  0  0  0  0  0  0  0  0
  -30.9240  -14.6840   20.0820 C   0  0  0  0  0  0  0  0  0  0  0  0
  -30.6380  -12.4360   19.0930 C   0  0  0  0  0  2  0  0  0  0  0  0
  -29.6660  -12.5230   17.8990 C   0  0  0  0  0  2  0  0  0  0  0  0
  -28.2040  -12.3830   18.3690 C   0  0  0  0  0  2  0  0  0  0  0  0
  -27.8750  -13.3030   19.5760 C   0  0  0  0  0  3  0  0  0  0  0  0
  -28.9610  -13.2020   20.6710 C   0  0  0  0  0  2  0  0  0  0  0  0
  -30.2640  -13.4920   20.0480 N   0  0  0  0  0  0  0  0  0  0  0  0
  -32.0260  -14.8450   19.5470 O   0  0  0  0  0  0  0  0  0  0  0  0
  -30.2290  -15.7160   20.6110 N   0  0  0  0  0  0  0  0  0  0  0  0
  -29.2900  -15.4870   20.9000 H   0  0  0  0  0  0  0  0  0  0  0  0
  -25.5170  -13.9290   20.3990 C   0  0  0  0  0  0  0  0  0  0  0  0
  -24.4560  -13.1650   20.8000 C   0  0  0  0  0  0  0  0  0  0  0  0
  -24.8940  -11.8070   20.7220 C   0  0  0  0  0  0  0  0  0  0  0  0
  -26.5390  -13.0380   20.1080 N   0  0  0  0  0  0  0  0  0  0  0  0
  -26.1690  -11.7550   20.3560 N   0  0  0  0  0  0  0  0  0  0  0  0
  -24.1560  -10.5520   20.9170 C   0  0  0  0  0  0  0  0  0  0  0  0
  -24.5600   -9.6020   21.8800 C   0  0  0  0  0  3  0  0  0  0  0  0
  -23.8240   -8.4110   22.0630 C   0  0  0  0  0  3  0  0  0  0  0  0
  -22.6700   -8.1640   21.2810 C   0  0  0  0  0  0  0  0  0  0  0  0
  -22.2850   -9.1040   20.3090 C   0  0  0  0  0  3  0  0  0  0  0  0
  -23.0230  -10.2850   20.1240 C   0  0  0  0  0  3  0  0  0  0  0  0
  -21.9100   -7.0230   21.3720 O   0  0  0  0  0  0  0  0  0  0  0  0
  -21.7610   -6.3450   22.5570 C   0  0  0  0  0  0  0  0  0  0  0  0
  -21.1950   -6.9570   23.6960 C   0  0  0  0  0  3  0  0  0  0  0  0
  -20.9960   -6.2070   24.8730 C   0  0  0  0  0  3  0  0  0  0  0  0
  -21.3520   -4.8460   24.9100 C   0  0  0  0  0  0  0  0  0  0  0  0
  -21.9140   -4.2340   23.7750 C   0  0  0  0  0  3  0  0  0  0  0  0
  -22.1140   -4.9810   22.6010 C   0  0  0  0  0  0  0  0  0  0  0  0
  -22.6340   -4.3800   21.5020 F   0  0  0  0  0  0  0  0  0  0  0  0
  -21.1550   -4.1240   26.0380 F   0  0  0  0  0  0  0  0  0  0  0  0
  -23.0780  -13.6570   21.1470 C   0  0  0  0  0  0  0  0  0  0  0  0
  -22.3760  -12.9500   22.0250 N   0  0  0  0  0  0  0  0  0  0  0  0
  -22.6370  -14.7020   20.6740 O   0  0  0  0  0  0  0  0  0  0  0  0
  -22.7440  -12.1040   22.4310 H   0  0  0  0  0  0  0  0  0  0  0  0
  -21.4530  -13.2610   22.2980 H   0  0  0  0  0  0  0  0  0  0  0  0
  -25.6890  -15.3010   20.2380 N   0  0  0  0  0  0  0  0  0  0  0  0
  -24.9250  -15.9530   20.3860 H   0  0  0  0  0  0  0  0  0  0  0  0
  -26.5070  -15.7390   19.8320 H   0  0  0  0  0  0  0  0  0  0  0  0
  -33.6430  -19.2380   20.9780 N   0  0  0  0  0  0  0  0  0  0  0  0
  -33.8640  -20.1720   21.3110 H   0  0  0  0  0  0  0  0  0  0  0  0
  -34.3170  -18.5410   21.2810 H   0  0  0  0  0  0  0  0  0  0  0  0
  -29.0150  -21.7780   19.7950 C   0  0  0  0  0  2  0  0  0  0  0  0
  -28.9130  -23.1620   20.5300 C   0  0  0  0  0  2  0  0  0  0  0  0
  -28.4570  -24.4620   18.3700 C   0  0  0  0  0  1  0  0  0  0  0  0
  -26.5670  -23.8180   19.9400 C   0  0  0  0  0  1  0  0  0  0  0  0
  -28.0450  -24.2830   19.8490 C   0  0  1  0  0  0  0  0  0  0  0  0
  -28.2460  -25.6460   20.6160 C   0  0  0  0  0  2  0  0  0  0  0  0
  -28.1880  -26.8760   19.8560 O   0  0  0  0  0  0  0  0  0  0  0  0
  -24.5420  -31.9870   23.2910 C   0  0  0  0  0  0  0  0  0  0  0  0
  -27.0370  -27.6290   19.9650 C   0  0  0  0  0  0  0  0  0  0  0  0
  -23.2640  -30.6490   21.6520 C   0  0  0  0  0  3  0  0  0  0  0  0
  -24.6560  -29.1550   20.1230 C   0  0  0  0  0  0  0  0  0  0  0  0
  -25.7870  -30.9990   21.3730 C   0  0  0  0  0  2  0  0  0  0  0  0
  -25.8430  -29.6500   20.6830 C   0  0  0  0  0  0  0  0  0  0  0  0
  -27.0390  -28.8940   20.6000 C   0  0  0  0  0  3  0  0  0  0  0  0
  -25.8420  -27.1740   19.3780 C   0  0  0  0  0  3  0  0  0  0  0  0
  -24.6520  -27.9150   19.4670 C   0  0  0  0  0  3  0  0  0  0  0  0
  -23.4200  -30.0180   20.2420 C   0  0  0  0  0  2  0  0  0  0  0  0
  -24.5500  -31.2250   22.1610 N   0  0  0  0  0  0  0  0  0  0  0  0
  -23.4830  -32.2450   23.8810 O   0  0  0  0  0  0  0  0  0  0  0  0
  -22.6490  -29.5960   22.6010 C   0  0  0  0  0  0  0  0  0  0  0  0
  -21.3300  -29.3760   22.4800 N   0  0  0  0  0  0  0  0  0  0  0  0
  -23.3540  -28.9800   23.4050 O   0  0  0  0  0  0  0  0  0  0  0  0
  -20.8220  -29.9370   21.8100 H   0  0  0  0  0  0  0  0  0  0  0  0
  -18.0070  -28.0160   22.9080 C   0  0  0  0  0  0  0  0  0  0  0  0
  -20.5420  -28.4020   23.2360 C   0  0  0  0  0  3  0  0  0  0  0  0
  -20.7270  -26.9730   22.6720 C   0  0  0  0  0  2  0  0  0  0  0  0
  -19.6690  -26.5960   21.6310 C   0  0  0  0  0  2  0  0  0  0  0  0
  -18.2690  -26.6750   22.2440 C   0  0  0  0  0  2  0  0  0  0  0  0
  -19.0770  -28.8350   23.3590 C   0  0  0  0  0  0  0  0  0  0  0  0
  -18.7830  -30.0900   23.9360 C   0  0  0  0  0  3  0  0  0  0  0  0
  -17.4530  -30.5310   24.0620 C   0  0  0  0  0  3  0  0  0  0  0  0
  -16.3970  -29.7090   23.6310 C   0  0  0  0  0  3  0  0  0  0  0  0
  -16.6750  -28.4540   23.0620 C   0  0  0  0  0  3  0  0  0  0  0  0
  -25.8530  -32.5920   23.8810 C   0  0  0  0  0  3  0  0  0  0  0  0
  -25.5790  -33.9940   24.2190 N   0  0  0  0  0  0  0  0  0  0  0  0
  -25.9060  -35.0410   23.4490 C   0  0  0  0  0  0  0  0  0  0  0  0
  -26.5480  -34.9270   22.3990 O   0  0  0  0  0  0  0  0  0  0  0  0
  -25.0080  -34.1560   25.0360 H   0  0  0  0  0  0  0  0  0  0  0  0
  -24.1970  -36.8580   23.1440 C   0  0  0  0  0  1  0  0  0  0  0  0
  -25.4560  -36.4360   23.9180 C   0  0  0  0  0  3  0  0  0  0  0  0
  -27.6270  -37.2920   24.6840 C   0  0  0  0  0  1  0  0  0  0  0  0
  -26.5020  -37.4720   23.7690 N   0  0  0  0  0  0  0  0  0  0  0  0
  -26.1150  -38.3990   23.9220 H   0  0  0  0  0  0  0  0  0  0  0  0
  -26.3900  -31.8070   25.1400 C   0  0  1  0  0  0  0  0  0  0  0  0
  -25.3150  -31.5660   26.2240 C   0  0  0  0  0  1  0  0  0  0  0  0
  -26.9600  -30.4300   24.7280 C   0  0  0  0  0  1  0  0  0  0  0  0
  -27.5550  -32.5910   25.7910 C   0  0  0  0  0  1  0  0  0  0  0  0
  1  2  2  0
  2  3  1  0
  4  8  1  0
  5  9  2  0
  5  7  1  0
  6  8  2  0
  7  1  1  0
  7  4  2  0
  8 48  1  0
  9  6  1  0
 10 18  1  0
 11 16  1  0
 12 13  1  0
 12 11  1  0
 14 13  1  0
 14 23  1  0
 14 15  1  0
 16 10  1  0
 16 15  1  0
 17 10  2  0
 18  9  1  0
 18 19  1  0
 20 21  2  0
 21 40  1  0
 22 21  1  0
 22 25  1  0
 23 24  1  0
 23 20  1  0
 24 22  2  0
 25 26  1  0
 26 27  2  0
 28 31  1  0
 28 27  1  0
 29 28  2  0
 30 29  1  0
 30 25  2  0
 31 32  1  0
 32 37  2  0
 32 33  1  0
 33 34  2  0
 34 35  1  0
 35 39  1  0
 36 35  2  0
 37 36  1  0
 38 37  1  0
 40 41  1  0
 41 44  1  0
 41 43  1  0
 42 40  2  0
 45 46  1  0
 45 20  1  0
 47 45  1  0
 48 50  1  0
 48 49  1  0
 51 52  1  0
 51  1  1  0
 55 53  1  6
 55 54  1  0
 55 52  1  0
 55 56  1  0
 57 59  1  0
 57 56  1  0
 58 69  2  0
 59 64  1  0
 60 68  1  0
 60 70  1  0
 61 67  1  0
 61 63  1  0
 62 68  1  0
 63 62  1  0
 64 63  2  0
 65 66  1  0
 65 59  2  0
 66 61  2  0
 67 60  1  0
 68 58  1  0
 70 72  2  0
 71 70  1  0
 73 71  1  0
 74 83  2  0
 74 79  1  0
 75 71  1  0
 75 79  1  0
 76 75  1  0
 77 78  1  0
 77 76  1  0
 78 74  1  0
 79 80  2  0
 80 81  1  0
 82 81  2  0
 83 82  1  0
 84 58  1  0
 84 85  1  0
 84 94  1  0
 85 88  1  0
 86 90  1  0
 86 85  1  0
 87 86  2  0
 90 89  1  0
 92 90  1  0
 92 93  1  0
 92 91  1  0
 94 97  1  1
 94 95  1  0
 96 94  1  0
M  ISO  4  10 100  18 100  56 101  57 101
M  END
>  <TORSDO>  (47) 
F 22

>  <SCORE>  (47) 
-13.185

>  <name>  (47) 
46

>  <ligand_id>  (47) 
46

>  <original_smiles>  (47) 
[H]N=C(c1c([H])c(N([H])[H])c([H])c(N([H])C(=O)N2C([H])([H])C([H])([H])C([H])([H])C([H])(n3nc(-c4c([H])c([H])c(Oc5c([H])c([H])c(F)c([H])c5F)c([H])c4[H])c(C(=O)N([H])[H])c3N([H])[H])C2([H])[H])c1[H])C([H])([H])C([H])([H])C(C([H])([H])[H])(C([H])([H])[H])C([H])([H])Oc1c([H])c([H])c2c(c1[H])C([H])([H])N(C(=O)C([H])(N([H])C(=O)C([H])(N([H])C([H])([H])[H])C([H])([H])[H])C(C([H])([H])[H])(C([H])([H])[H])C([H])([H])[H])C([H])(C(=O)N([H])C1([H])c3c([H])c([H])c([H])c([H])c3C([H])([H])C([H])([H])C1([H])[H])C2([H])[H]

>  <smiles>  (47) 
[H]N=C(c1c([H])c(N([H])[H])c([H])c(N([H])C(=O)N2C([H])([H])C([H])([H])C([H])([H])C([H])(n3nc(-c4c([H])c([H])c(Oc5c([H])c([H])c(F)c([H])c5F)c([H])c4[H])c(C(=O)N([H])[H])c3N([H])[H])C2([H])[H])c1[H])C([H])([H])C([H])([H])C(C([H])([H])[H])(C([H])([H])[H])C([H])([H])Oc1c([H])c([H])c2c(c1[H])C([H])([H])N(C(=O)C([H])(N([H])C(=O)C([H])(N([H])C([H])([H])[H])C([H])([H])[H])C(C([H])([H])[H])(C([H])([H])[H])C([H])([H])[H])C([H])(C(=O)N([H])C1([H])c3c([H])c([H])c([H])c([H])c3C([H])([H])C([H])([H])C1([H])[H])C2([H])[H]

$$$$
47:0:0
     RDKit          3D

 96104  0  0  1  0  0  0  0  0999 V2000
  -28.6750  -21.7140   20.9660 C   0  0  0  0  0  3  0  0  0  0  0  0
  -28.4980  -20.3190   20.3510 C   0  0  0  0  0  0  0  0  0  0  0  0
  -27.3550  -19.9850   19.9280 N   0  0  0  0  0  0  0  0  0  0  0  0
  -27.3630  -19.0390   19.5640 H   0  0  0  0  0  0  0  0  0  0  0  0
  -31.9440  -18.8560   19.6730 C   0  0  0  0  0  3  0  0  0  0  0  0
  -30.9020  -19.7840   19.8550 C   0  0  0  0  0  3  0  0  0  0  0  0
  -31.7490  -17.4970   19.9750 C   0  0  0  0  0  3  0  0  0  0  0  0
  -29.4620  -17.9800   20.6350 C   0  0  0  0  0  3  0  0  0  0  0  0
  -29.6380  -19.3550   20.3130 C   0  0  0  0  0  0  0  0  0  0  0  0
  -30.5110  -17.0290   20.4850 C   0  0  0  0  0  0  0  0  0  0  0  0
  -30.9870  -14.5470   20.5140 C   0  0  0  0  0  0  0  0  0  0  0  0
  -30.6620  -12.3910   19.3870 C   0  0  0  0  0  2  0  0  0  0  0  0
  -29.7590  -12.6380   18.1590 C   0  0  0  0  0  2  0  0  0  0  0  0
  -28.2680  -12.5600   18.5410 C   0  0  0  0  0  2  0  0  0  0  0  0
  -27.9190  -13.3700   19.8200 C   0  0  0  0  0  3  0  0  0  0  0  0
  -28.9460  -13.1230   20.9470 C   0  0  0  0  0  2  0  0  0  0  0  0
  -30.2880  -13.3850   20.4060 N   0  0  0  0  0  0  0  0  0  0  0  0
  -32.1730  -14.6170   20.1890 O   0  0  0  0  0  0  0  0  0  0  0  0
  -30.2540  -15.6470   20.8130 N   0  0  0  0  0  0  0  0  0  0  0  0
  -29.3320  -15.4390   21.1640 H   0  0  0  0  0  0  0  0  0  0  0  0
  -25.5070  -13.9940   20.4620 C   0  0  0  0  0  0  0  0  0  0  0  0
  -24.4230  -13.2320   20.8080 C   0  0  0  0  0  0  0  0  0  0  0  0
  -24.8760  -11.8770   20.8040 C   0  0  0  0  0  0  0  0  0  0  0  0
  -26.5510  -13.1050   20.2650 N   0  0  0  0  0  0  0  0  0  0  0  0
  -26.1750  -11.8280   20.5300 N   0  0  0  0  0  0  0  0  0  0  0  0
  -24.1370  -10.6210   20.9930 C   0  0  0  0  0  0  0  0  0  0  0  0
  -24.5180   -9.6760   21.9710 C   0  0  0  0  0  3  0  0  0  0  0  0
  -23.7790   -8.4850   22.1420 C   0  0  0  0  0  3  0  0  0  0  0  0
  -22.6440   -8.2310   21.3350 C   0  0  0  0  0  0  0  0  0  0  0  0
  -22.2840   -9.1660   20.3500 C   0  0  0  0  0  3  0  0  0  0  0  0
  -23.0240  -10.3470   20.1760 C   0  0  0  0  0  3  0  0  0  0  0  0
  -21.8810   -7.0910   21.4120 O   0  0  0  0  0  0  0  0  0  0  0  0
  -21.7510   -6.3910   22.5840 C   0  0  0  0  0  0  0  0  0  0  0  0
  -21.2020   -6.9780   23.7450 C   0  0  0  0  0  3  0  0  0  0  0  0
  -21.0190   -6.2000   24.9060 C   0  0  0  0  0  3  0  0  0  0  0  0
  -21.3810   -4.8390   24.9090 C   0  0  0  0  0  0  0  0  0  0  0  0
  -21.9230   -4.2540   23.7510 C   0  0  0  0  0  3  0  0  0  0  0  0
  -22.1050   -5.0260   22.5910 C   0  0  0  0  0  0  0  0  0  0  0  0
  -22.6090   -4.4530   21.4730 F   0  0  0  0  0  0  0  0  0  0  0  0
  -21.1980   -4.0900   26.0220 F   0  0  0  0  0  0  0  0  0  0  0  0
  -23.0200  -13.7220   21.0310 C   0  0  0  0  0  0  0  0  0  0  0  0
  -22.2610  -13.0420   21.8840 N   0  0  0  0  0  0  0  0  0  0  0  0
  -22.6050  -14.7400   20.4800 O   0  0  0  0  0  0  0  0  0  0  0  0
  -22.6080  -12.2170   22.3470 H   0  0  0  0  0  0  0  0  0  0  0  0
  -21.3190  -13.3520   22.0730 H   0  0  0  0  0  0  0  0  0  0  0  0
  -25.6900  -15.3610   20.2760 N   0  0  0  0  0  0  0  0  0  0  0  0
  -24.9390  -16.0340   20.3940 H   0  0  0  0  0  0  0  0  0  0  0  0
  -26.5430  -15.7780   19.9250 H   0  0  0  0  0  0  0  0  0  0  0  0
  -28.5720  -22.9090   19.9700 C   0  0  0  0  0  3  0  0  0  0  0  0
  -28.9730  -24.4490   22.0160 C   0  0  0  0  0  1  0  0  0  0  0  0
  -28.3830  -24.3400   20.5920 C   0  0  2  0  0  0  0  0  0  0  0  0
  -27.0660  -24.4680   20.7550 F   0  0  0  0  0  0  0  0  0  0  0  0
  -30.4300  -25.5920   19.6700 C   0  0  0  0  0  1  0  0  0  0  0  0
  -28.4840  -25.3990   18.1890 C   0  0  0  0  0  1  0  0  0  0  0  0
  -28.8860  -25.5300   19.6800 C   0  0  1  0  0  0  0  0  0  0  0  0
  -28.5890  -26.8250   20.2680 O   0  0  0  0  0  0  0  0  0  0  0  0
  -24.5430  -31.8950   23.2560 C   0  0  0  0  0  0  0  0  0  0  0  0
  -27.3610  -27.4720   20.2540 C   0  0  0  0  0  0  0  0  0  0  0  0
  -23.4200  -30.4850   21.5670 C   0  0  0  0  0  3  0  0  0  0  0  0
  -24.9420  -28.9630   20.2070 C   0  0  0  0  0  0  0  0  0  0  0  0
  -25.9510  -30.8610   21.4740 C   0  0  0  0  0  2  0  0  0  0  0  0
  -26.0750  -29.4920   20.8340 C   0  0  0  0  0  0  0  0  0  0  0  0
  -27.2830  -28.7540   20.8530 C   0  0  0  0  0  3  0  0  0  0  0  0
  -26.1880  -26.9510   19.6660 C   0  0  0  0  0  3  0  0  0  0  0  0
  -24.9930  -27.6880   19.6260 C   0  0  0  0  0  3  0  0  0  0  0  0
  -23.6920  -29.8110   20.1970 C   0  0  0  0  0  2  0  0  0  0  0  0
  -24.6540  -31.0970   22.1580 N   0  0  0  0  0  0  0  0  0  0  0  0
  -23.4370  -32.1580   23.7500 O   0  0  0  0  0  0  0  0  0  0  0  0
  -22.7420  -29.4520   22.4960 C   0  0  0  0  0  0  0  0  0  0  0  0
  -21.4210  -29.2700   22.3270 N   0  0  0  0  0  0  0  0  0  0  0  0
  -23.4020  -28.8160   23.3220 O   0  0  0  0  0  0  0  0  0  0  0  0
  -20.9530  -29.8340   21.6310 H   0  0  0  0  0  0  0  0  0  0  0  0
  -18.0230  -28.1180   22.7490 C   0  0  0  0  0  0  0  0  0  0  0  0
  -20.5820  -28.3260   23.0600 C   0  0  0  0  0  3  0  0  0  0  0  0
  -20.6690  -26.9100   22.4480 C   0  0  0  0  0  2  0  0  0  0  0  0
  -19.5760  -26.6320   21.4110 C   0  0  0  0  0  2  0  0  0  0  0  0
  -18.1870  -26.7830   22.0410 C   0  0  0  0  0  2  0  0  0  0  0  0
  -19.1480  -28.8490   23.2130 C   0  0  0  0  0  0  0  0  0  0  0  0
  -18.9430  -30.1010   23.8340 C   0  0  0  0  0  3  0  0  0  0  0  0
  -17.6460  -30.6210   23.9940 C   0  0  0  0  0  3  0  0  0  0  0  0
  -16.5350  -29.8840   23.5470 C   0  0  0  0  0  3  0  0  0  0  0  0
  -16.7240  -28.6350   22.9310 C   0  0  0  0  0  3  0  0  0  0  0  0
  -25.7960  -32.5350   23.9320 C   0  0  0  0  0  3  0  0  0  0  0  0
  -25.4740  -33.9390   24.2220 N   0  0  0  0  0  0  0  0  0  0  0  0
  -25.8420  -34.9740   23.4560 C   0  0  0  0  0  0  0  0  0  0  0  0
  -26.5590  -34.8510   22.4600 O   0  0  0  0  0  0  0  0  0  0  0  0
  -24.8470  -34.1130   24.9940 H   0  0  0  0  0  0  0  0  0  0  0  0
  -24.1380  -36.7610   22.9720 C   0  0  0  0  0  1  0  0  0  0  0  0
  -25.3300  -36.3700   23.8600 C   0  0  0  0  0  3  0  0  0  0  0  0
  -27.4110  -37.2760   24.8010 C   0  0  0  0  0  1  0  0  0  0  0  0
  -26.3710  -37.4210   23.7850 N   0  0  0  0  0  0  0  0  0  0  0  0
  -25.9560  -38.3450   23.8830 H   0  0  0  0  0  0  0  0  0  0  0  0
  -26.2490  -31.7830   25.2440 C   0  0  1  0  0  0  0  0  0  0  0  0
  -25.1000  -31.5540   26.2550 C   0  0  0  0  0  1  0  0  0  0  0  0
  -26.8590  -30.4030   24.9010 C   0  0  0  0  0  1  0  0  0  0  0  0
  -27.3590  -32.5920   25.9560 C   0  0  0  0  0  1  0  0  0  0  0  0
  2  1  1  0
  3  2  2  0
  4  3  1  0
  5  6  2  0
  5  7  1  0
  6  9  1  0
  7 10  2  0
  9  2  1  0
  9  8  2  0
 10  8  1  0
 10 19  1  0
 11 19  1  0
 12 17  1  0
 13 14  1  0
 13 12  1  0
 15 14  1  0
 15 24  1  0
 15 16  1  0
 17 11  1  0
 17 16  1  0
 18 11  2  0
 19 20  1  0
 21 22  2  0
 22 41  1  0
 23 22  1  0
 23 26  1  0
 24 21  1  0
 24 25  1  0
 25 23  2  0
 26 27  1  0
 27 28  2  0
 29 32  1  0
 29 28  1  0
 30 29  2  0
 31 30  1  0
 31 26  2  0
 32 33  1  0
 33 38  2  0
 33 34  1  0
 34 35  2  0
 35 36  1  0
 36 40  1  0
 37 36  2  0
 38 37  1  0
 39 38  1  0
 41 42  1  0
 42 45  1  0
 42 44  1  0
 43 41  2  0
 46 47  1  0
 46 21  1  0
 48 46  1  0
 49 51  1  0
 49  1  2  0
 51 52  1  0
 51 50  1  1
 55 53  1  6
 54 55  1  0
 55 56  1  0
 55 51  1  0
 57 68  2  0
 58 56  1  0
 58 63  1  0
 59 67  1  0
 59 69  1  0
 60 62  1  0
 61 67  1  0
 62 63  2  0
 62 61  1  0
 64 58  2  0
 65 64  1  0
 65 60  2  0
 66 60  1  0
 66 59  1  0
 67 57  1  0
 69 71  2  0
 70 69  1  0
 72 70  1  0
 73 82  2  0
 73 78  1  0
 74 70  1  0
 74 78  1  0
 75 74  1  0
 76 77  1  0
 76 75  1  0
 77 73  1  0
 78 79  2  0
 79 80  1  0
 81 80  2  0
 82 81  1  0
 83 57  1  0
 83 84  1  0
 83 93  1  0
 84 87  1  0
 85 89  1  0
 85 84  1  0
 86 85  2  0
 89 88  1  0
 91 89  1  0
 91 92  1  0
 91 90  1  0
 93 96  1  1
 93 94  1  0
 95 93  1  0
M  ISO  4  11 100  19 100  55 101  56 101
M  END
>  <TORSDO>  (48) 
F 21

>  <SCORE>  (48) 
-13.855

>  <name>  (48) 
47

>  <ligand_id>  (48) 
47

>  <original_smiles>  (48) 
[H]N=C(c1c([H])c([H])c([H])c(N([H])C(=O)N2C([H])([H])C([H])([H])C([H])([H])C([H])(n3nc(-c4c([H])c([H])c(Oc5c([H])c([H])c(F)c([H])c5F)c([H])c4[H])c(C(=O)N([H])[H])c3N([H])[H])C2([H])[H])c1[H])C([H])([H])C([H])([H])C(F)(C([H])([H])[H])C(Oc1c([H])c([H])c2c(c1[H])C([H])([H])N(C(=O)C([H])(N([H])C(=O)C([H])(N([H])C([H])([H])[H])C([H])([H])[H])C(C([H])([H])[H])(C([H])([H])[H])C([H])([H])[H])C([H])(C(=O)N([H])C1([H])c3c([H])c([H])c([H])c([H])c3C([H])([H])C([H])([H])C1([H])[H])C2([H])[H])(C([H])([H])[H])C([H])([H])[H]

>  <smiles>  (48) 
[H]N=C(c1c([H])c([H])c([H])c(N([H])C(=O)N2C([H])([H])C([H])([H])C([H])([H])C([H])(n3nc(-c4c([H])c([H])c(Oc5c([H])c([H])c(F)c([H])c5F)c([H])c4[H])c(C(=O)N([H])[H])c3N([H])[H])C2([H])[H])c1[H])C([H])([H])C([H])([H])C(F)(C([H])([H])[H])C(Oc1c([H])c([H])c2c(c1[H])C([H])([H])N(C(=O)C([H])(N([H])C(=O)C([H])(N([H])C([H])([H])[H])C([H])([H])[H])C(C([H])([H])[H])(C([H])([H])[H])C([H])([H])[H])C([H])(C(=O)N([H])C1([H])c3c([H])c([H])c([H])c([H])c3C([H])([H])C([H])([H])C1([H])[H])C2([H])[H])(C([H])([H])[H])C([H])([H])[H]

$$$$
48:0:0
     RDKit          3D

 93101  0  0  1  0  0  0  0  0999 V2000
  -29.6200  -21.7980   20.1990 C   0  0  0  0  0  0  0  0  0  0  0  0
  -29.3590  -20.5510   20.6680 N   0  0  0  0  0  0  0  0  0  0  0  0
  -30.2760  -22.0160   19.1760 O   0  0  0  0  0  0  0  0  0  0  0  0
  -29.0130  -20.5070   21.6130 H   0  0  0  0  0  0  0  0  0  0  0  0
  -29.5600  -16.7330   18.7430 C   0  0  0  0  0  3  0  0  0  0  0  0
  -29.2790  -17.8830   17.9950 C   0  0  0  0  0  3  0  0  0  0  0  0
  -29.7190  -18.0970   20.7600 C   0  0  0  0  0  3  0  0  0  0  0  0
  -29.7610  -16.8160   20.1380 C   0  0  0  0  0  0  0  0  0  0  0  0
  -29.4600  -19.2780   20.0040 C   0  0  0  0  0  0  0  0  0  0  0  0
  -29.2000  -19.1390   18.6170 C   0  0  0  0  0  0  0  0  0  0  0  0
  -28.8000  -20.1860   17.8620 F   0  0  0  0  0  0  0  0  0  0  0  0
  -30.6610  -14.5650   20.5180 C   0  0  0  0  0  0  0  0  0  0  0  0
  -30.4120  -12.3860   19.4040 C   0  0  0  0  0  2  0  0  0  0  0  0
  -29.4860  -12.5770   18.1820 C   0  0  0  0  0  2  0  0  0  0  0  0
  -28.0040  -12.4260   18.5930 C   0  0  0  0  0  2  0  0  0  0  0  0
  -27.6400  -13.2550   19.8520 C   0  0  0  0  0  3  0  0  0  0  0  0
  -28.6860  -13.0670   20.9760 C   0  0  0  0  0  2  0  0  0  0  0  0
  -30.0150  -13.3720   20.4190 N   0  0  0  0  0  0  0  0  0  0  0  0
  -31.8150  -14.7450   20.1270 O   0  0  0  0  0  0  0  0  0  0  0  0
  -29.8830  -15.6040   20.8900 N   0  0  0  0  0  0  0  0  0  0  0  0
  -29.0270  -15.3000   21.3280 H   0  0  0  0  0  0  0  0  0  0  0  0
  -25.2250  -13.8240   20.5430 C   0  0  0  0  0  0  0  0  0  0  0  0
  -24.1650  -13.0370   20.9090 C   0  0  0  0  0  0  0  0  0  0  0  0
  -24.6510  -11.6940   20.8890 C   0  0  0  0  0  0  0  0  0  0  0  0
  -26.2860  -12.9620   20.3200 N   0  0  0  0  0  0  0  0  0  0  0  0
  -25.9450  -11.6760   20.5900 N   0  0  0  0  0  0  0  0  0  0  0  0
  -23.9480  -10.4170   21.0810 C   0  0  0  0  0  0  0  0  0  0  0  0
  -24.3900   -9.4640   22.0270 C   0  0  0  0  0  3  0  0  0  0  0  0
  -23.6840   -8.2540   22.2060 C   0  0  0  0  0  3  0  0  0  0  0  0
  -22.5250   -7.9890   21.4380 C   0  0  0  0  0  0  0  0  0  0  0  0
  -22.1030   -8.9310   20.4840 C   0  0  0  0  0  3  0  0  0  0  0  0
  -22.8080  -10.1330   20.3040 C   0  0  0  0  0  3  0  0  0  0  0  0
  -21.7930   -6.8300   21.5230 O   0  0  0  0  0  0  0  0  0  0  0  0
  -21.7460   -6.0930   22.6790 C   0  0  0  0  0  0  0  0  0  0  0  0
  -21.2600   -6.6370   23.8880 C   0  0  0  0  0  3  0  0  0  0  0  0
  -21.1620   -5.8270   25.0360 C   0  0  0  0  0  3  0  0  0  0  0  0
  -21.5370   -4.4710   24.9760 C   0  0  0  0  0  0  0  0  0  0  0  0
  -22.0140   -3.9250   23.7710 C   0  0  0  0  0  3  0  0  0  0  0  0
  -22.1140   -4.7330   22.6250 C   0  0  0  0  0  0  0  0  0  0  0  0
  -22.5540   -4.1980   21.4610 F   0  0  0  0  0  0  0  0  0  0  0  0
  -21.4350   -3.6900   26.0750 F   0  0  0  0  0  0  0  0  0  0  0  0
  -22.7560  -13.4900   21.1640 C   0  0  0  0  0  0  0  0  0  0  0  0
  -22.0290  -12.7840   22.0220 N   0  0  0  0  0  0  0  0  0  0  0  0
  -22.3050  -14.5080   20.6370 O   0  0  0  0  0  0  0  0  0  0  0  0
  -22.4060  -11.9650   22.4760 H   0  0  0  0  0  0  0  0  0  0  0  0
  -21.0820  -13.0680   22.2280 H   0  0  0  0  0  0  0  0  0  0  0  0
  -25.3640  -15.1960   20.3580 N   0  0  0  0  0  0  0  0  0  0  0  0
  -24.5830  -15.8350   20.4530 H   0  0  0  0  0  0  0  0  0  0  0  0
  -26.2060  -15.6460   20.0240 H   0  0  0  0  0  0  0  0  0  0  0  0
  -29.1230  -22.9810   21.0610 C   0  0  0  0  0  2  0  0  0  0  0  0
  -29.4470  -24.4440   20.5950 C   0  0  0  0  0  2  0  0  0  0  0  0
  -28.2050  -25.2650   20.1580 C   0  0  0  0  0  2  0  0  0  0  0  0
  -28.3830  -26.7020   20.2280 O   0  0  0  0  0  0  0  0  0  0  0  0
  -24.5770  -31.9290   23.2960 C   0  0  0  0  0  0  0  0  0  0  0  0
  -27.2230  -27.4640   20.2040 C   0  0  0  0  0  0  0  0  0  0  0  0
  -23.3770  -30.5320   21.6450 C   0  0  0  0  0  3  0  0  0  0  0  0
  -24.8360  -29.0000   20.2190 C   0  0  0  0  0  0  0  0  0  0  0  0
  -25.9080  -30.8770   21.4660 C   0  0  0  0  0  2  0  0  0  0  0  0
  -25.9950  -29.5060   20.8190 C   0  0  0  0  0  0  0  0  0  0  0  0
  -27.1930  -28.7460   20.8090 C   0  0  0  0  0  3  0  0  0  0  0  0
  -26.0380  -26.9860   19.5930 C   0  0  0  0  0  3  0  0  0  0  0  0
  -24.8550  -27.7390   19.6030 C   0  0  0  0  0  3  0  0  0  0  0  0
  -23.5930  -29.8610   20.2630 C   0  0  0  0  0  2  0  0  0  0  0  0
  -24.6370  -31.1280   22.1920 N   0  0  0  0  0  0  0  0  0  0  0  0
  -23.4910  -32.2040   23.8270 O   0  0  0  0  0  0  0  0  0  0  0  0
  -22.7180  -29.5060   22.5990 C   0  0  0  0  0  0  0  0  0  0  0  0
  -21.3970  -29.3090   22.4490 N   0  0  0  0  0  0  0  0  0  0  0  0
  -23.3960  -28.8920   23.4270 O   0  0  0  0  0  0  0  0  0  0  0  0
  -20.9130  -29.8600   21.7550 H   0  0  0  0  0  0  0  0  0  0  0  0
  -18.0290  -28.0790   22.8840 C   0  0  0  0  0  0  0  0  0  0  0  0
  -20.5750  -28.3650   23.2070 C   0  0  0  0  0  3  0  0  0  0  0  0
  -20.7090  -26.9340   22.6370 C   0  0  0  0  0  2  0  0  0  0  0  0
  -19.6300  -26.5910   21.6070 C   0  0  0  0  0  2  0  0  0  0  0  0
  -18.2340  -26.7260   22.2220 C   0  0  0  0  0  2  0  0  0  0  0  0
  -19.1290  -28.8560   23.3320 C   0  0  0  0  0  0  0  0  0  0  0  0
  -18.8840  -30.1190   23.9130 C   0  0  0  0  0  3  0  0  0  0  0  0
  -17.5710  -30.6060   24.0480 C   0  0  0  0  0  3  0  0  0  0  0  0
  -16.4830  -29.8270   23.6130 C   0  0  0  0  0  3  0  0  0  0  0  0
  -16.7130  -28.5650   23.0370 C   0  0  0  0  0  3  0  0  0  0  0  0
  -25.8590  -32.5550   23.9220 C   0  0  0  0  0  3  0  0  0  0  0  0
  -26.3510  -31.8030   25.2190 C   0  0  1  0  0  0  0  0  0  0  0  0
  -25.2360  -31.5970   26.2690 C   0  0  0  0  0  1  0  0  0  0  0  0
  -26.9280  -30.4150   24.8590 C   0  0  0  0  0  1  0  0  0  0  0  0
  -27.4990  -32.5970   25.8850 C   0  0  0  0  0  1  0  0  0  0  0  0
  -25.5630  -33.9640   24.2220 N   0  0  0  0  0  0  0  0  0  0  0  0
  -25.9170  -34.9970   23.4470 C   0  0  0  0  0  0  0  0  0  0  0  0
  -26.5990  -34.8680   22.4270 O   0  0  0  0  0  0  0  0  0  0  0  0
  -24.9700  -34.1430   25.0190 H   0  0  0  0  0  0  0  0  0  0  0  0
  -24.2230  -36.8060   23.0200 C   0  0  0  0  0  1  0  0  0  0  0  0
  -25.4350  -36.4000   23.8710 C   0  0  0  0  0  3  0  0  0  0  0  0
  -27.5560  -37.2690   24.7520 C   0  0  0  0  0  1  0  0  0  0  0  0
  -26.4870  -37.4360   23.7710 N   0  0  0  0  0  0  0  0  0  0  0  0
  -26.0890  -38.3640   23.8880 H   0  0  0  0  0  0  0  0  0  0  0  0
  1  2  1  0
  1 50  1  0
  2  4  1  0
  3  1  2  0
  5  8  1  0
  6 10  1  0
  6  5  2  0
  8  7  2  0
  8 20  1  0
  9  2  1  0
  9  7  1  0
 10  9  2  0
 11 10  1  0
 12 20  1  0
 13 18  1  0
 14 15  1  0
 14 13  1  0
 16 15  1  0
 16 25  1  0
 16 17  1  0
 18 12  1  0
 18 17  1  0
 19 12  2  0
 20 21  1  0
 22 23  2  0
 23 42  1  0
 24 23  1  0
 24 27  1  0
 25 22  1  0
 25 26  1  0
 26 24  2  0
 27 28  1  0
 28 29  2  0
 30 33  1  0
 30 29  1  0
 31 30  2  0
 32 31  1  0
 32 27  2  0
 33 34  1  0
 34 35  1  0
 35 36  2  0
 37 36  1  0
 37 41  1  0
 38 37  2  0
 39 34  2  0
 39 38  1  0
 40 39  1  0
 42 43  1  0
 43 46  1  0
 43 45  1  0
 44 42  2  0
 47 48  1  0
 47 22  1  0
 49 47  1  0
 51 50  1  0
 52 53  1  0
 52 51  1  0
 54 65  2  0
 55 53  1  0
 55 60  1  0
 56 64  1  0
 56 66  1  0
 57 63  1  0
 57 59  1  0
 58 64  1  0
 59 58  1  0
 60 59  2  0
 61 62  1  0
 61 55  2  0
 62 57  2  0
 63 56  1  0
 64 54  1  0
 66 68  2  0
 67 66  1  0
 69 67  1  0
 70 79  2  0
 70 75  1  0
 71 67  1  0
 71 75  1  0
 72 71  1  0
 73 74  1  0
 73 72  1  0
 74 70  1  0
 75 76  2  0
 76 77  1  0
 78 77  2  0
 79 78  1  0
 80 54  1  0
 80 85  1  0
 80 81  1  0
 81 84  1  1
 81 82  1  0
 83 81  1  0
 85 88  1  0
 86 90  1  0
 86 85  1  0
 87 86  2  0
 90 89  1  0
 92 90  1  0
 92 93  1  0
 92 91  1  0
M  ISO  4  12 100  20 100  52 101  53 101
M  END
>  <TORSDO>  (49) 
F 20

>  <SCORE>  (49) 
-13.795

>  <name>  (49) 
48

>  <ligand_id>  (49) 
48

>  <original_smiles>  (49) 
[H]c1c([H])c([H])c2c(c1[H])C([H])([H])C([H])([H])C([H])([H])C2([H])N([H])C(=O)C1([H])N(C(=O)C([H])(N([H])C(=O)C([H])(N([H])C([H])([H])[H])C([H])([H])[H])C(C([H])([H])[H])(C([H])([H])[H])C([H])([H])[H])C([H])([H])c2c([H])c(OC([H])([H])C([H])([H])C([H])([H])C(=O)N([H])c3c([H])c(N([H])C(=O)N4C([H])([H])C([H])([H])C([H])([H])C([H])(n5nc(-c6c([H])c([H])c(Oc7c([H])c([H])c(F)c([H])c7F)c([H])c6[H])c(C(=O)N([H])[H])c5N([H])[H])C4([H])[H])c([H])c([H])c3F)c([H])c([H])c2C1([H])[H]

>  <smiles>  (49) 
[H]c1c([H])c([H])c2c(c1[H])C([H])([H])C([H])([H])C([H])([H])C2([H])N([H])C(=O)C1([H])N(C(=O)C([H])(N([H])C(=O)C([H])(N([H])C([H])([H])[H])C([H])([H])[H])C(C([H])([H])[H])(C([H])([H])[H])C([H])([H])[H])C([H])([H])c2c([H])c(OC([H])([H])C([H])([H])C([H])([H])C(=O)N([H])c3c([H])c(N([H])C(=O)N4C([H])([H])C([H])([H])C([H])([H])C([H])(n5nc(-c6c([H])c([H])c(Oc7c([H])c([H])c(F)c([H])c7F)c([H])c6[H])c(C(=O)N([H])[H])c5N([H])[H])C4([H])[H])c([H])c([H])c3F)c([H])c([H])c2C1([H])[H]

$$$$
49:0:0
     RDKit          3D

 98106  0  0  1  0  0  0  0  0999 V2000
  -29.4760  -20.9050   20.5550 C   0  0  0  0  0  2  0  0  0  0  0  0
  -29.1610  -22.3510   20.1650 C   0  0  0  0  0  0  0  0  0  0  0  0
  -28.5650  -22.5860   19.1110 O   0  0  0  0  0  0  0  0  0  0  0  0
  -29.6730  -23.4540   21.1060 C   0  0  0  0  0  2  0  0  0  0  0  0
  -30.6040  -25.0070   19.2950 C   0  0  0  0  0  1  0  0  0  0  0  0
  -30.4620  -25.7520   21.6730 C   0  0  0  0  0  1  0  0  0  0  0  0
  -29.7520  -24.9210   20.5810 C   0  0  2  0  0  0  0  0  0  0  0  0
  -28.3360  -25.5100   20.3350 C   0  0  0  0  0  2  0  0  0  0  0  0
  -28.3910  -26.9320   20.1890 O   0  0  0  0  0  0  0  0  0  0  0  0
  -24.5130  -31.9930   23.3230 C   0  0  0  0  0  0  0  0  0  0  0  0
  -27.1940  -27.6100   20.2020 C   0  0  0  0  0  0  0  0  0  0  0  0
  -23.3140  -30.5960   21.6710 C   0  0  0  0  0  3  0  0  0  0  0  0
  -24.7780  -29.0780   20.2390 C   0  0  0  0  0  0  0  0  0  0  0  0
  -25.8360  -30.9820   21.4690 C   0  0  0  0  0  2  0  0  0  0  0  0
  -25.9340  -29.6190   20.8160 C   0  0  0  0  0  0  0  0  0  0  0  0
  -27.1460  -28.8970   20.7830 C   0  0  0  0  0  3  0  0  0  0  0  0
  -26.0170  -27.0760   19.6270 C   0  0  0  0  0  3  0  0  0  0  0  0
  -24.8130  -27.8060   19.6450 C   0  0  0  0  0  3  0  0  0  0  0  0
  -23.5260  -29.9230   20.2910 C   0  0  0  0  0  2  0  0  0  0  0  0
  -24.5730  -31.2020   22.2150 N   0  0  0  0  0  0  0  0  0  0  0  0
  -23.4330  -32.2560   23.8670 O   0  0  0  0  0  0  0  0  0  0  0  0
  -22.6710  -29.5640   22.6260 C   0  0  0  0  0  0  0  0  0  0  0  0
  -21.3510  -29.3630   22.4870 N   0  0  0  0  0  0  0  0  0  0  0  0
  -23.3580  -28.9450   23.4430 O   0  0  0  0  0  0  0  0  0  0  0  0
  -20.8580  -29.9130   21.7960 H   0  0  0  0  0  0  0  0  0  0  0  0
  -17.9920  -28.1190   22.9460 C   0  0  0  0  0  0  0  0  0  0  0  0
  -20.5410  -28.4140   23.2490 C   0  0  0  0  0  3  0  0  0  0  0  0
  -20.6710  -26.9850   22.6750 C   0  0  0  0  0  2  0  0  0  0  0  0
  -19.5870  -26.6440   21.6480 C   0  0  0  0  0  2  0  0  0  0  0  0
  -18.1960  -26.7700   22.2760 C   0  0  0  0  0  2  0  0  0  0  0  0
  -19.0930  -28.8970   23.3900 C   0  0  0  0  0  0  0  0  0  0  0  0
  -18.8510  -30.1580   23.9760 C   0  0  0  0  0  3  0  0  0  0  0  0
  -17.5390  -30.6420   24.1240 C   0  0  0  0  0  3  0  0  0  0  0  0
  -16.4500  -29.8600   23.6990 C   0  0  0  0  0  3  0  0  0  0  0  0
  -16.6770  -28.6010   23.1160 C   0  0  0  0  0  3  0  0  0  0  0  0
  -25.7960  -32.6280   23.9470 C   0  0  0  0  0  3  0  0  0  0  0  0
  -25.4940  -34.0360   24.2410 N   0  0  0  0  0  0  0  0  0  0  0  0
  -25.8570  -35.0670   23.4670 C   0  0  0  0  0  0  0  0  0  0  0  0
  -26.5490  -34.9350   22.4550 O   0  0  0  0  0  0  0  0  0  0  0  0
  -24.8780  -34.2120   25.0210 H   0  0  0  0  0  0  0  0  0  0  0  0
  -24.1640  -36.8730   23.0220 C   0  0  0  0  0  1  0  0  0  0  0  0
  -25.3700  -36.4680   23.8840 C   0  0  0  0  0  3  0  0  0  0  0  0
  -27.4840  -37.3400   24.7780 C   0  0  0  0  0  1  0  0  0  0  0  0
  -26.4190  -37.5070   23.7920 N   0  0  0  0  0  0  0  0  0  0  0  0
  -26.0190  -38.4340   23.9120 H   0  0  0  0  0  0  0  0  0  0  0  0
  -26.2960  -31.8780   25.2420 C   0  0  1  0  0  0  0  0  0  0  0  0
  -25.1900  -31.6650   26.3010 C   0  0  0  0  0  1  0  0  0  0  0  0
  -26.8780  -30.4920   24.8820 C   0  0  0  0  0  1  0  0  0  0  0  0
  -27.4430  -32.6790   25.9010 C   0  0  0  0  0  1  0  0  0  0  0  0
  -30.4220  -20.3020   19.6170 N   0  0  0  0  0  0  0  0  0  0  0  0
  -30.5500  -20.9360   18.8340 H   0  0  0  0  0  0  0  0  0  0  0  0
  -29.1660  -17.3360   17.7150 C   0  0  0  0  0  3  0  0  0  0  0  0
  -29.1890  -16.3680   18.7250 C   0  0  0  0  0  3  0  0  0  0  0  0
  -30.1410  -17.9900   20.2660 C   0  0  0  0  0  3  0  0  0  0  0  0
  -29.6750  -18.6330   17.9410 C   0  0  0  0  0  0  0  0  0  0  0  0
  -29.7250  -16.6710   19.9950 C   0  0  0  0  0  0  0  0  0  0  0  0
  -30.0930  -18.9860   19.2580 C   0  0  0  0  0  0  0  0  0  0  0  0
  -30.6660  -14.6570   20.9140 C   0  0  0  0  0  0  0  0  0  0  0  0
  -30.5550  -12.4270   19.9160 C   0  0  0  0  0  2  0  0  0  0  0  0
  -29.7050  -12.5550   18.6330 C   0  0  0  0  0  2  0  0  0  0  0  0
  -28.1960  -12.4280   18.9530 C   0  0  0  0  0  2  0  0  0  0  0  0
  -27.7400  -13.2890   20.1650 C   0  0  0  0  0  3  0  0  0  0  0  0
  -28.7180  -13.1300   21.3500 C   0  0  0  0  0  2  0  0  0  0  0  0
  -30.0770  -13.4370   20.8650 N   0  0  0  0  0  0  0  0  0  0  0  0
  -31.8570  -14.8600   20.6490 O   0  0  0  0  0  0  0  0  0  0  0  0
  -29.7860  -15.6660   20.9990 N   0  0  0  0  0  0  0  0  0  0  0  0
  -28.8820  -15.3450   21.3100 H   0  0  0  0  0  0  0  0  0  0  0  0
  -25.2940  -13.8920   20.6780 C   0  0  0  0  0  0  0  0  0  0  0  0
  -24.2080  -13.1140   20.9800 C   0  0  0  0  0  0  0  0  0  0  0  0
  -24.6850  -11.7670   21.0040 C   0  0  0  0  0  0  0  0  0  0  0  0
  -26.3600  -13.0150   20.5400 N   0  0  0  0  0  0  0  0  0  0  0  0
  -25.9930  -11.7340   20.7930 N   0  0  0  0  0  0  0  0  0  0  0  0
  -23.9650  -10.5000   21.1590 C   0  0  0  0  0  0  0  0  0  0  0  0
  -24.3470   -9.5510   22.1340 C   0  0  0  0  0  3  0  0  0  0  0  0
  -23.6300   -8.3430   22.2750 C   0  0  0  0  0  3  0  0  0  0  0  0
  -22.5180   -8.0780   21.4400 C   0  0  0  0  0  0  0  0  0  0  0  0
  -22.1560   -9.0150   20.4560 C   0  0  0  0  0  3  0  0  0  0  0  0
  -22.8750  -10.2150   20.3140 C   0  0  0  0  0  3  0  0  0  0  0  0
  -21.7800   -6.9210   21.4840 O   0  0  0  0  0  0  0  0  0  0  0  0
  -21.6590   -6.1940   22.6400 C   0  0  0  0  0  0  0  0  0  0  0  0
  -21.1090   -6.7470   23.8170 C   0  0  0  0  0  3  0  0  0  0  0  0
  -20.9430   -5.9410   24.9620 C   0  0  0  0  0  3  0  0  0  0  0  0
  -21.3120   -4.5830   24.9280 C   0  0  0  0  0  0  0  0  0  0  0  0
  -21.8550   -4.0320   23.7550 C   0  0  0  0  0  3  0  0  0  0  0  0
  -22.0260   -4.8340   22.6140 C   0  0  0  0  0  0  0  0  0  0  0  0
  -22.5300   -4.2930   21.4790 F   0  0  0  0  0  0  0  0  0  0  0  0
  -21.1450   -3.8080   26.0240 F   0  0  0  0  0  0  0  0  0  0  0  0
  -22.7890  -13.5780   21.1390 C   0  0  0  0  0  0  0  0  0  0  0  0
  -22.0040  -12.8870   21.9590 N   0  0  0  0  0  0  0  0  0  0  0  0
  -22.3790  -14.5930   20.5760 O   0  0  0  0  0  0  0  0  0  0  0  0
  -22.3430  -12.0710   22.4450 H   0  0  0  0  0  0  0  0  0  0  0  0
  -21.0490  -13.1820   22.1040 H   0  0  0  0  0  0  0  0  0  0  0  0
  -25.4570  -15.2620   20.4970 N   0  0  0  0  0  0  0  0  0  0  0  0
  -24.6730  -15.9050   20.5430 H   0  0  0  0  0  0  0  0  0  0  0  0
  -26.3180  -15.7090   20.2140 H   0  0  0  0  0  0  0  0  0  0  0  0
  -29.6990  -19.5400   16.7540 C   0  0  0  0  0  0  0  0  0  0  0  0
  -30.9550  -20.3810   16.5400 C   0  0  0  0  0  1  0  0  0  0  0  0
  -28.8230  -19.5480   15.8830 O   0  0  0  0  0  0  0  0  0  0  0  0
  2  1  1  0
  2  4  1  0
  3  2  2  0
  7  5  1  6
  7  4  1  0
  7  6  1  0
  8  7  1  0
  9 11  1  0
  9  8  1  0
 10 21  2  0
 11 16  1  0
 12 20  1  0
 12 22  1  0
 13 19  1  0
 13 15  1  0
 14 20  1  0
 15 14  1  0
 16 15  2  0
 17 18  1  0
 17 11  2  0
 18 13  2  0
 19 12  1  0
 20 10  1  0
 22 24  2  0
 23 22  1  0
 25 23  1  0
 26 35  2  0
 26 31  1  0
 27 23  1  0
 27 31  1  0
 28 27  1  0
 29 30  1  0
 29 28  1  0
 30 26  1  0
 31 32  2  0
 32 33  1  0
 34 33  2  0
 35 34  1  0
 36 10  1  0
 36 37  1  0
 36 46  1  0
 37 40  1  0
 38 42  1  0
 38 37  1  0
 39 38  2  0
 42 41  1  0
 44 42  1  0
 44 45  1  0
 44 43  1  0
 46 49  1  1
 46 47  1  0
 48 46  1  0
 50  1  1  0
 51 50  1  0
 52 55  2  0
 52 53  1  0
 53 56  2  0
 55 57  1  0
 56 54  1  0
 56 66  1  0
 57 50  1  0
 57 54  2  0
 58 66  1  0
 59 64  1  0
 60 61  1  0
 60 59  1  0
 62 61  1  0
 62 71  1  0
 62 63  1  0
 64 58  1  0
 64 63  1  0
 65 58  2  0
 66 67  1  0
 68 69  2  0
 69 70  1  0
 69 88  1  0
 70 73  1  0
 71 68  1  0
 71 72  1  0
 72 70  2  0
 73 74  1  0
 74 75  2  0
 76 79  1  0
 76 75  1  0
 77 76  2  0
 78 77  1  0
 78 73  2  0
 79 80  1  0
 80 81  1  0
 81 82  2  0
 83 82  1  0
 83 87  1  0
 84 83  2  0
 85 80  2  0
 85 84  1  0
 86 85  1  0
 88 89  1  0
 89 92  1  0
 89 91  1  0
 90 88  2  0
 93 94  1  0
 93 68  1  0
 95 93  1  0
 96 55  1  0
 97 96  1  0
 98 96  2  0
M  ISO  4   8 101   9 101  58 100  66 100
M  END
>  <TORSDO>  (50) 
F 23

>  <SCORE>  (50) 
-12.294

>  <name>  (50) 
49

>  <ligand_id>  (50) 
49

>  <original_smiles>  (50) 
[H]c1c([H])c([H])c2c(c1[H])C([H])([H])C([H])([H])C([H])([H])C2([H])N([H])C(=O)C1([H])N(C(=O)C([H])(N([H])C(=O)C([H])(N([H])C([H])([H])[H])C([H])([H])[H])C(C([H])([H])[H])(C([H])([H])[H])C([H])([H])[H])C([H])([H])c2c([H])c(OC([H])([H])C(C([H])([H])[H])(C([H])([H])[H])C([H])([H])C(=O)C([H])([H])N([H])c3c([H])c(N([H])C(=O)N4C([H])([H])C([H])([H])C([H])([H])C([H])(n5nc(-c6c([H])c([H])c(Oc7c([H])c([H])c(F)c([H])c7F)c([H])c6[H])c(C(=O)N([H])[H])c5N([H])[H])C4([H])[H])c([H])c([H])c3C(=O)C([H])([H])[H])c([H])c([H])c2C1([H])[H]

>  <smiles>  (50) 
[H]c1c([H])c([H])c2c(c1[H])C([H])([H])C([H])([H])C([H])([H])C2([H])N([H])C(=O)C1([H])N(C(=O)C([H])(N([H])C(=O)C([H])(N([H])C([H])([H])[H])C([H])([H])[H])C(C([H])([H])[H])(C([H])([H])[H])C([H])([H])[H])C([H])([H])c2c([H])c(OC([H])([H])C(C([H])([H])[H])(C([H])([H])[H])C([H])([H])C(=O)C([H])([H])N([H])c3c([H])c(N([H])C(=O)N4C([H])([H])C([H])([H])C([H])([H])C([H])(n5nc(-c6c([H])c([H])c(Oc7c([H])c([H])c(F)c([H])c7F)c([H])c6[H])c(C(=O)N([H])[H])c5N([H])[H])C4([H])[H])c([H])c([H])c3C(=O)C([H])([H])[H])c([H])c([H])c2C1([H])[H]

$$$$
50:0:0
     RDKit          3D

 97105  0  0  1  0  0  0  0  0999 V2000
  -29.5920  -20.0000   19.8300 C   0  0  0  0  0  0  0  0  0  0  0  0
  -30.4520  -19.9280   18.8070 N   0  0  0  0  0  4  0  0  0  0  0  0
  -29.1150  -21.2570   20.1920 N   0  0  0  0  0  0  0  0  0  0  0  0
  -30.6520  -19.0410   18.3680 H   0  0  0  0  0  0  0  0  0  0  0  0
  -30.9420  -20.7260   18.4420 H   0  0  0  0  0  0  0  0  0  0  0  0
  -28.5170  -21.2020   21.0060 H   0  0  0  0  0  0  0  0  0  0  0  0
  -27.6440  -18.7320   20.2780 C   0  0  0  0  0  2  0  0  0  0  0  0
  -27.0340  -17.8910   19.3250 C   0  0  0  0  0  3  0  0  0  0  0  0
  -29.1650  -16.7700   18.9350 C   0  0  0  0  0  2  0  0  0  0  0  0
  -29.0480  -18.6710   20.4030 C   0  0  0  0  0  3  0  0  0  0  0  0
  -29.6090  -17.3350   20.1540 C   0  0  0  0  0  3  0  0  0  0  0  0
  -27.8140  -16.9830   18.5800 C   0  0  0  0  0  0  0  0  0  0  0  0
  -27.2530  -16.2550   17.5870 F   0  0  0  0  0  0  0  0  0  0  0  0
  -30.4470  -15.1630   21.2700 C   0  0  0  0  0  0  0  0  0  0  0  0
  -30.5310  -12.8090   20.5120 C   0  0  0  0  0  2  0  0  0  0  0  0
  -29.7500  -12.6860   19.1890 C   0  0  0  0  0  2  0  0  0  0  0  0
  -28.2660  -12.3950   19.4820 C   0  0  0  0  0  2  0  0  0  0  0  0
  -27.6610  -13.3670   20.5300 C   0  0  0  0  0  3  0  0  0  0  0  0
  -28.5740  -13.5080   21.7700 C   0  0  0  0  0  2  0  0  0  0  0  0
  -29.9090  -13.8960   21.2980 N   0  0  0  0  0  0  0  0  0  0  0  0
  -31.6570  -15.3150   21.0930 O   0  0  0  0  0  0  0  0  0  0  0  0
  -29.5950  -16.2560   21.1810 N   0  0  0  0  0  0  0  0  0  0  0  0
  -28.6980  -16.1240   21.6310 H   0  0  0  0  0  0  0  0  0  0  0  0
  -25.1820  -13.8080   21.0120 C   0  0  0  0  0  0  0  0  0  0  0  0
  -24.1270  -12.9650   21.2540 C   0  0  0  0  0  0  0  0  0  0  0  0
  -24.6710  -11.6460   21.2570 C   0  0  0  0  0  0  0  0  0  0  0  0
  -26.2940  -12.9930   20.8770 N   0  0  0  0  0  0  0  0  0  0  0  0
  -25.9880  -11.6870   21.0900 N   0  0  0  0  0  0  0  0  0  0  0  0
  -24.0040  -10.3400   21.3520 C   0  0  0  0  0  0  0  0  0  0  0  0
  -24.3810   -9.3850   22.3210 C   0  0  0  0  0  3  0  0  0  0  0  0
  -23.7120   -8.1440   22.4060 C   0  0  0  0  0  3  0  0  0  0  0  0
  -22.6510   -7.8490   21.5170 C   0  0  0  0  0  0  0  0  0  0  0  0
  -22.2930   -8.7930   20.5390 C   0  0  0  0  0  3  0  0  0  0  0  0
  -22.9640  -10.0240   20.4550 C   0  0  0  0  0  3  0  0  0  0  0  0
  -21.9610   -6.6610   21.5130 O   0  0  0  0  0  0  0  0  0  0  0  0
  -21.8090   -5.9070   22.6490 C   0  0  0  0  0  0  0  0  0  0  0  0
  -21.1680   -6.4200   23.7970 C   0  0  0  0  0  3  0  0  0  0  0  0
  -20.9710   -5.5930   24.9220 C   0  0  0  0  0  3  0  0  0  0  0  0
  -21.4040   -4.2540   24.8960 C   0  0  0  0  0  0  0  0  0  0  0  0
  -22.0360   -3.7380   23.7510 C   0  0  0  0  0  3  0  0  0  0  0  0
  -22.2340   -4.5630   22.6280 C   0  0  0  0  0  0  0  0  0  0  0  0
  -22.8220   -4.0600   21.5170 F   0  0  0  0  0  0  0  0  0  0  0  0
  -21.2100   -3.4550   25.9710 F   0  0  0  0  0  0  0  0  0  0  0  0
  -22.6860  -13.3550   21.3770 C   0  0  0  0  0  0  0  0  0  0  0  0
  -21.9150  -12.6150   22.1670 N   0  0  0  0  0  0  0  0  0  0  0  0
  -22.2440  -14.3510   20.8110 O   0  0  0  0  0  0  0  0  0  0  0  0
  -22.2810  -11.8080   22.6530 H   0  0  0  0  0  0  0  0  0  0  0  0
  -20.9410  -12.8600   22.2890 H   0  0  0  0  0  0  0  0  0  0  0  0
  -25.2850  -15.1870   20.8800 N   0  0  0  0  0  0  0  0  0  0  0  0
  -24.4780  -15.7960   20.9510 H   0  0  0  0  0  0  0  0  0  0  0  0
  -26.1490  -15.6920   20.7380 H   0  0  0  0  0  0  0  0  0  0  0  0
  -28.9600  -22.6130   19.4510 C   0  0  0  0  0  2  0  0  0  0  0  0
  -30.8630  -23.9740   20.2980 C   0  0  0  0  0  1  0  0  0  0  0  0
  -28.6810  -24.0140   21.5840 C   0  0  0  0  0  1  0  0  0  0  0  0
  -29.3260  -24.0160   20.1900 C   0  0  2  0  0  0  0  0  0  0  0  0
  -28.8790  -25.4190   19.4630 C   0  0  0  0  0  2  0  0  0  0  0  0
  -28.7480  -26.7620   20.1730 O   0  0  0  0  0  0  0  0  0  0  0  0
  -24.7550  -31.9920   23.3680 C   0  0  0  0  0  0  0  0  0  0  0  0
  -27.5830  -27.5830   20.1700 C   0  0  0  0  0  0  0  0  0  0  0  0
  -23.6290  -30.6150   21.6650 C   0  0  0  0  0  3  0  0  0  0  0  0
  -25.1520  -29.1470   20.2180 C   0  0  0  0  0  0  0  0  0  0  0  0
  -26.1670  -31.0000   21.5410 C   0  0  0  0  0  2  0  0  0  0  0  0
  -26.3020  -29.6410   20.8480 C   0  0  0  0  0  0  0  0  0  0  0  0
  -27.5140  -28.8740   20.8110 C   0  0  0  0  0  3  0  0  0  0  0  0
  -26.3860  -27.1430   19.5600 C   0  0  0  0  0  3  0  0  0  0  0  0
  -25.2010  -27.9070   19.5660 C   0  0  0  0  0  3  0  0  0  0  0  0
  -23.8870  -29.9900   20.2700 C   0  0  0  0  0  2  0  0  0  0  0  0
  -24.8690  -31.2200   22.2470 N   0  0  0  0  0  0  0  0  0  0  0  0
  -23.6490  -32.2130   23.8900 O   0  0  0  0  0  0  0  0  0  0  0  0
  -22.9780  -29.5480   22.5740 C   0  0  0  0  0  0  0  0  0  0  0  0
  -21.6640  -29.3240   22.4090 N   0  0  0  0  0  0  0  0  0  0  0  0
  -23.6590  -28.9190   23.3890 O   0  0  0  0  0  0  0  0  0  0  0  0
  -21.1640  -29.8780   21.7270 H   0  0  0  0  0  0  0  0  0  0  0  0
  -18.3180  -28.0230   22.8440 C   0  0  0  0  0  0  0  0  0  0  0  0
  -20.8670  -28.3350   23.1410 C   0  0  0  0  0  3  0  0  0  0  0  0
  -21.0070  -26.9300   22.5090 C   0  0  0  0  0  2  0  0  0  0  0  0
  -19.9210  -26.6210   21.4740 C   0  0  0  0  0  2  0  0  0  0  0  0
  -18.5300  -26.7100   22.1120 C   0  0  0  0  0  2  0  0  0  0  0  0
  -19.4170  -28.7920   23.3120 C   0  0  0  0  0  0  0  0  0  0  0  0
  -19.1670  -30.0260   23.9500 C   0  0  0  0  0  3  0  0  0  0  0  0
  -17.8510  -30.4940   24.1190 C   0  0  0  0  0  3  0  0  0  0  0  0
  -16.7650  -29.7220   23.6660 C   0  0  0  0  0  3  0  0  0  0  0  0
  -17.0010  -28.4860   23.0370 C   0  0  0  0  0  3  0  0  0  0  0  0
  -26.0000  -32.6490   24.0370 C   0  0  0  0  0  3  0  0  0  0  0  0
  -26.4900  -31.8790   25.3260 C   0  0  1  0  0  0  0  0  0  0  0  0
  -25.3700  -31.6080   26.3560 C   0  0  0  0  0  1  0  0  0  0  0  0
  -27.1150  -30.5160   24.9480 C   0  0  0  0  0  1  0  0  0  0  0  0
  -27.6000  -32.6920   26.0330 C   0  0  0  0  0  1  0  0  0  0  0  0
  -25.6430  -34.0380   24.3680 N   0  0  0  0  0  0  0  0  0  0  0  0
  -25.9780  -35.1060   23.6340 C   0  0  0  0  0  0  0  0  0  0  0  0
  -26.6890  -35.0300   22.6290 O   0  0  0  0  0  0  0  0  0  0  0  0
  -25.0110  -34.1670   25.1440 H   0  0  0  0  0  0  0  0  0  0  0  0
  -24.2220  -36.8690   23.2450 C   0  0  0  0  0  1  0  0  0  0  0  0
  -25.4440  -36.4780   24.0920 C   0  0  0  0  0  3  0  0  0  0  0  0
  -27.5260  -37.4080   25.0050 C   0  0  0  0  0  1  0  0  0  0  0  0
  -26.4540  -37.5560   24.0240 N   0  0  0  0  0  0  0  0  0  0  0  0
  -26.0200  -38.4650   24.1640 H   0  0  0  0  0  0  0  0  0  0  0  0
  1  3  1  0
  2  1  2  0
  3  6  1  0
  4  2  1  0
  5  2  1  0
  7 10  1  0
  8  7  1  0
  9 11  1  0
 10  1  1  0
 11 10  1  0
 11 22  1  0
 12  9  1  0
 12  8  2  0
 13 12  1  0
 14 20  1  0
 15 20  1  0
 16 17  1  0
 16 15  1  0
 18 17  1  0
 18 27  1  0
 18 19  1  0
 20 19  1  0
 21 14  2  0
 22 14  1  0
 22 23  1  0
 24 25  2  0
 25 26  1  0
 25 44  1  0
 26 29  1  0
 27 24  1  0
 27 28  1  0
 28 26  2  0
 29 30  1  0
 30 31  2  0
 32 31  1  0
 33 32  2  0
 34 33  1  0
 34 29  2  0
 35 32  1  0
 35 36  1  0
 36 37  1  0
 37 38  2  0
 39 38  1  0
 39 43  1  0
 40 39  2  0
 41 36  2  0
 41 40  1  0
 42 41  1  0
 44 45  1  0
 45 48  1  0
 45 47  1  0
 46 44  2  0
 49 50  1  0
 49 24  1  0
 51 49  1  0
 52 55  1  0
 52  3  1  0
 55 53  1  1
 55 54  1  0
 56 57  1  0
 56 55  1  0
 58 69  2  0
 59 57  1  0
 59 64  1  0
 60 68  1  0
 60 70  1  0
 61 67  1  0
 61 63  1  0
 62 68  1  0
 63 62  1  0
 64 63  2  0
 65 66  1  0
 65 59  2  0
 66 61  2  0
 67 60  1  0
 68 58  1  0
 70 72  2  0
 71 70  1  0
 73 71  1  0
 74 83  2  0
 74 79  1  0
 75 71  1  0
 75 79  1  0
 76 75  1  0
 77 78  1  0
 77 76  1  0
 78 74  1  0
 79 80  2  0
 80 81  1  0
 82 81  2  0
 83 82  1  0
 84 58  1  0
 84 89  1  0
 84 85  1  0
 85 88  1  1
 85 86  1  0
 87 85  1  0
 89 92  1  0
 90 94  1  0
 90 89  1  0
 91 90  2  0
 94 93  1  0
 96 94  1  0
 96 97  1  0
 96 95  1  0
M  ISO  4  14 100  22 100  56 101  57 101
M  END
>  <TORSDO>  (51) 
F 20

>  <SCORE>  (51) 
-11.459

>  <name>  (51) 
50

>  <ligand_id>  (51) 
50

>  <original_smiles>  (51) 
[H]c1c([H])c([H])c2c(c1[H])C([H])([H])C([H])([H])C([H])([H])C2([H])N([H])C(=O)C1([H])N(C(=O)C([H])(N([H])C(=O)C([H])(N([H])C([H])([H])[H])C([H])([H])[H])C(C([H])([H])[H])(C([H])([H])[H])C([H])([H])[H])C([H])([H])c2c([H])c(OC([H])([H])C(C([H])([H])[H])(C([H])([H])[H])C([H])([H])[N+]([H])=C(c3c([H])c([H])c(F)c([H])c3N([H])C(=O)N3C([H])([H])C([H])([H])C([H])([H])C([H])(n4nc(-c5c([H])c([H])c(Oc6c([H])c([H])c(F)c([H])c6F)c([H])c5[H])c(C(=O)N([H])[H])c4N([H])[H])C3([H])[H])N([H])[H])c([H])c([H])c2C1([H])[H]

>  <smiles>  (51) 
[H]c1c([H])c([H])c2c(c1[H])C([H])([H])C([H])([H])C([H])([H])C2([H])N([H])C(=O)C1([H])N(C(=O)C([H])(N([H])C(=O)C([H])(N([H])C([H])([H])[H])C([H])([H])[H])C(C([H])([H])[H])(C([H])([H])[H])C([H])([H])[H])C([H])([H])c2c([H])c(OC([H])([H])C(C([H])([H])[H])(C([H])([H])[H])C([H])([H])[N+]([H])=C(c3c([H])c([H])c(F)c([H])c3N([H])C(=O)N3C([H])([H])C([H])([H])C([H])([H])C([H])(n4nc(-c5c([H])c([H])c(Oc6c([H])c([H])c(F)c([H])c6F)c([H])c5[H])c(C(=O)N([H])[H])c4N([H])[H])C3([H])[H])N([H])[H])c([H])c([H])c2C1([H])[H]

$$$$
51:0:0
     RDKit          3D

 92100  0  0  1  0  0  0  0  0999 V2000
  -29.4390  -22.6570   20.9590 C   0  0  0  0  0  0  0  0  0  0  0  0
  -29.3100  -21.3130   21.0600 N   0  0  0  0  0  0  0  0  0  0  0  0
  -30.4300  -23.2120   20.4780 O   0  0  0  0  0  0  0  0  0  0  0  0
  -28.3710  -20.9680   21.2020 H   0  0  0  0  0  0  0  0  0  0  0  0
  -30.1620  -19.0060   21.1810 C   0  0  0  0  0  3  0  0  0  0  0  0
  -31.4120  -18.3040   21.2040 C   0  0  0  0  0  0  0  0  0  0  0  0
  -32.5080  -19.1390   21.2290 C   0  0  0  0  0  0  0  0  0  0  0  0
  -30.3080  -20.3780   21.1290 C   0  0  0  0  0  0  0  0  0  0  0  0
  -33.9640  -18.8010   21.1360 C   0  0  0  0  0  1  0  0  0  0  0  0
  -32.0070  -20.8030   21.2570 S   0  0  0  0  0  0  0  0  0  0  0  0
  -31.5860  -16.8480   21.0030 C   0  0  0  0  0  2  0  0  0  0  0  0
  -30.6860  -15.9020   20.6300 C   0  0  0  0  0  2  0  0  0  0  0  0
  -31.2330  -14.6580   20.0840 C   0  0  0  0  0  0  0  0  0  0  0  0
  -30.7310  -12.5190   18.9650 C   0  0  0  0  0  2  0  0  0  0  0  0
  -29.7810  -12.7330   17.7730 C   0  0  0  0  0  2  0  0  0  0  0  0
  -28.3170  -12.6410   18.2430 C   0  0  0  0  0  2  0  0  0  0  0  0
  -28.0290  -13.5050   19.5030 C   0  0  0  0  0  3  0  0  0  0  0  0
  -29.1190  -13.3410   20.5900 C   0  0  0  0  0  2  0  0  0  0  0  0
  -30.4300  -13.5580   19.9700 N   0  0  0  0  0  0  0  0  0  0  0  0
  -32.3420  -14.6840   19.5520 O   0  0  0  0  0  0  0  0  0  0  0  0
  -25.6800  -14.1370   20.3380 C   0  0  0  0  0  0  0  0  0  0  0  0
  -24.6100  -13.3810   20.7350 C   0  0  0  0  0  0  0  0  0  0  0  0
  -25.0350  -12.0200   20.6510 C   0  0  0  0  0  0  0  0  0  0  0  0
  -26.6930  -13.2420   20.0360 N   0  0  0  0  0  0  0  0  0  0  0  0
  -26.3120  -11.9620   20.2870 N   0  0  0  0  0  0  0  0  0  0  0  0
  -24.2850  -10.7730   20.8410 C   0  0  0  0  0  0  0  0  0  0  0  0
  -24.6410   -9.8450   21.8440 C   0  0  0  0  0  3  0  0  0  0  0  0
  -23.8950   -8.6600   22.0220 C   0  0  0  0  0  3  0  0  0  0  0  0
  -22.7780   -8.3950   21.1950 C   0  0  0  0  0  0  0  0  0  0  0  0
  -22.4410   -9.3110   20.1840 C   0  0  0  0  0  3  0  0  0  0  0  0
  -23.1880  -10.4860   20.0040 C   0  0  0  0  0  3  0  0  0  0  0  0
  -22.0070   -7.2600   21.2790 O   0  0  0  0  0  0  0  0  0  0  0  0
  -21.7450   -6.6540   22.4810 C   0  0  0  0  0  0  0  0  0  0  0  0
  -21.0870   -7.3320   23.5300 C   0  0  0  0  0  3  0  0  0  0  0  0
  -20.7740   -6.6480   24.7230 C   0  0  0  0  0  3  0  0  0  0  0  0
  -21.1060   -5.2890   24.8660 C   0  0  0  0  0  0  0  0  0  0  0  0
  -21.7550   -4.6100   23.8210 C   0  0  0  0  0  3  0  0  0  0  0  0
  -22.0700   -5.2900   22.6300 C   0  0  0  0  0  0  0  0  0  0  0  0
  -22.6750   -4.6260   21.6170 F   0  0  0  0  0  0  0  0  0  0  0  0
  -20.8010   -4.6320   26.0090 F   0  0  0  0  0  0  0  0  0  0  0  0
  -23.2380  -13.8900   21.0700 C   0  0  0  0  0  0  0  0  0  0  0  0
  -22.5230  -13.1970   21.9510 N   0  0  0  0  0  0  0  0  0  0  0  0
  -22.8080  -14.9360   20.5830 O   0  0  0  0  0  0  0  0  0  0  0  0
  -22.8840  -12.3550   22.3770 H   0  0  0  0  0  0  0  0  0  0  0  0
  -21.6010  -13.5160   22.2070 H   0  0  0  0  0  0  0  0  0  0  0  0
  -25.8660  -15.5090   20.1890 N   0  0  0  0  0  0  0  0  0  0  0  0
  -25.1160  -16.1740   20.3470 H   0  0  0  0  0  0  0  0  0  0  0  0
  -26.7150  -15.9480   19.8580 H   0  0  0  0  0  0  0  0  0  0  0  0
  -28.2770  -23.5220   21.4750 C   0  0  0  0  0  2  0  0  0  0  0  0
  -27.3450  -24.1610   20.4120 C   0  0  0  0  0  2  0  0  0  0  0  0
  -27.9080  -25.3250   19.5380 C   0  0  0  0  0  2  0  0  0  0  0  0
  -27.9520  -26.6480   20.1260 O   0  0  0  0  0  0  0  0  0  0  0  0
  -24.5390  -31.9910   23.4020 C   0  0  0  0  0  0  0  0  0  0  0  0
  -26.8240  -27.4580   20.1370 C   0  0  0  0  0  0  0  0  0  0  0  0
  -23.2060  -30.6880   21.7800 C   0  0  0  0  0  3  0  0  0  0  0  0
  -24.5230  -29.1140   20.2670 C   0  0  0  0  0  0  0  0  0  0  0  0
  -25.7430  -30.9140   21.5020 C   0  0  0  0  0  2  0  0  0  0  0  0
  -25.7310  -29.5560   20.8250 C   0  0  0  0  0  0  0  0  0  0  0  0
  -26.8820  -28.7300   20.7590 C   0  0  0  0  0  3  0  0  0  0  0  0
  -25.5940  -27.0500   19.5690 C   0  0  0  0  0  3  0  0  0  0  0  0
  -24.4500  -27.8640   19.6390 C   0  0  0  0  0  3  0  0  0  0  0  0
  -23.3340  -30.0360   20.3780 C   0  0  0  0  0  2  0  0  0  0  0  0
  -24.5160  -31.2130   22.2840 N   0  0  0  0  0  0  0  0  0  0  0  0
  -23.4900  -32.3010   23.9880 O   0  0  0  0  0  0  0  0  0  0  0  0
  -22.5410  -29.6790   22.7410 C   0  0  0  0  0  0  0  0  0  0  0  0
  -21.2220  -29.4770   22.5840 N   0  0  0  0  0  0  0  0  0  0  0  0
  -23.2090  -29.0790   23.5880 O   0  0  0  0  0  0  0  0  0  0  0  0
  -20.7450  -30.0010   21.8630 H   0  0  0  0  0  0  0  0  0  0  0  0
  -17.8780  -28.1540   22.9440 C   0  0  0  0  0  0  0  0  0  0  0  0
  -20.4000  -28.5470   23.3570 C   0  0  0  0  0  3  0  0  0  0  0  0
  -20.6040  -27.0950   22.8710 C   0  0  0  0  0  2  0  0  0  0  0  0
  -19.5830  -26.6650   21.8110 C   0  0  0  0  0  2  0  0  0  0  0  0
  -18.1570  -26.7810   22.3560 C   0  0  0  0  0  2  0  0  0  0  0  0
  -18.9320  -28.9890   23.4010 C   0  0  0  0  0  0  0  0  0  0  0  0
  -18.6240  -30.2690   23.9090 C   0  0  0  0  0  3  0  0  0  0  0  0
  -17.2920  -30.7180   23.9680 C   0  0  0  0  0  3  0  0  0  0  0  0
  -16.2490  -29.8830   23.5280 C   0  0  0  0  0  3  0  0  0  0  0  0
  -16.5430  -28.6040   23.0230 C   0  0  0  0  0  3  0  0  0  0  0  0
  -25.8750  -32.5480   23.9830 C   0  0  0  0  0  3  0  0  0  0  0  0
  -25.6460  -33.9550   24.3380 N   0  0  0  0  0  0  0  0  0  0  0  0
  -25.9930  -35.0020   23.5740 C   0  0  0  0  0  0  0  0  0  0  0  0
  -26.6140  -34.8780   22.5140 O   0  0  0  0  0  0  0  0  0  0  0  0
  -25.1010  -34.1280   25.1700 H   0  0  0  0  0  0  0  0  0  0  0  0
  -24.3360  -36.8740   23.3170 C   0  0  0  0  0  1  0  0  0  0  0  0
  -25.5940  -36.4060   24.0650 C   0  0  0  0  0  3  0  0  0  0  0  0
  -27.8010  -37.1870   24.7990 C   0  0  0  0  0  1  0  0  0  0  0  0
  -26.6650  -37.4130   23.9100 N   0  0  0  0  0  0  0  0  0  0  0  0
  -26.3070  -38.3480   24.0850 H   0  0  0  0  0  0  0  0  0  0  0  0
  -26.3990  -31.7390   25.2330 C   0  0  1  0  0  0  0  0  0  0  0  0
  -25.3270  -31.5270   26.3250 C   0  0  0  0  0  1  0  0  0  0  0  0
  -26.9240  -30.3480   24.8080 C   0  0  0  0  0  1  0  0  0  0  0  0
  -27.5880  -32.4880   25.8790 C   0  0  0  0  0  1  0  0  0  0  0  0
  1  2  1  0
  1 49  1  0
  2  8  1  0
  2  4  1  0
  3  1  2  0
  5  6  1  0
  6  7  2  0
  7 10  1  0
  8  5  2  0
  8 10  1  0
  9  7  1  0
 11  6  1  0
 12 11  1  0
 13 12  1  0
 14 19  1  0
 15 16  1  0
 15 14  1  0
 17 16  1  0
 17 24  1  0
 17 18  1  0
 19 13  1  0
 19 18  1  0
 20 13  2  0
 21 22  2  0
 22 41  1  0
 23 22  1  0
 23 26  1  0
 24 25  1  0
 24 21  1  0
 25 23  2  0
 26 27  1  0
 27 28  2  0
 29 32  1  0
 29 28  1  0
 30 29  2  0
 31 30  1  0
 31 26  2  0
 32 33  1  0
 33 38  2  0
 33 34  1  0
 34 35  2  0
 35 36  1  0
 36 40  1  0
 37 36  2  0
 38 37  1  0
 39 38  1  0
 41 42  1  0
 42 45  1  0
 42 44  1  0
 43 41  2  0
 46 21  1  0
 46 47  1  0
 48 46  1  0
 50 49  1  0
 51 52  1  0
 51 50  1  0
 52 54  1  0
 53 64  2  0
 54 59  1  0
 55 63  1  0
 55 65  1  0
 56 62  1  0
 56 58  1  0
 57 63  1  0
 58 57  1  0
 59 58  2  0
 60 61  1  0
 60 54  2  0
 61 56  2  0
 62 55  1  0
 63 53  1  0
 65 67  2  0
 66 65  1  0
 68 66  1  0
 69 78  2  0
 69 74  1  0
 70 66  1  0
 70 74  1  0
 71 70  1  0
 72 73  1  0
 72 71  1  0
 73 69  1  0
 74 75  2  0
 75 76  1  0
 77 76  2  0
 78 77  1  0
 79 53  1  0
 79 80  1  0
 79 89  1  0
 80 83  1  0
 81 85  1  0
 81 80  1  0
 82 81  2  0
 85 84  1  0
 87 85  1  0
 87 88  1  0
 87 86  1  0
 89 92  1  1
 89 90  1  0
 91 89  1  0
M  ISO  4  12 100  13 100  51 101  52 101
M  END
>  <TORSDO>  (52) 
F 21

>  <SCORE>  (52) 
-12.700

>  <name>  (52) 
51

>  <ligand_id>  (52) 
51

>  <original_smiles>  (52) 
[H]C(C(=O)N1C([H])([H])C([H])([H])C([H])([H])C([H])(n2nc(-c3c([H])c([H])c(Oc4c([H])c([H])c(F)c([H])c4F)c([H])c3[H])c(C(=O)N([H])[H])c2N([H])[H])C1([H])[H])=C([H])c1c(C([H])([H])[H])sc(N([H])C(=O)C([H])([H])C([H])([H])C([H])([H])Oc2c([H])c([H])c3c(c2[H])C([H])([H])N(C(=O)C([H])(N([H])C(=O)C([H])(N([H])C([H])([H])[H])C([H])([H])[H])C(C([H])([H])[H])(C([H])([H])[H])C([H])([H])[H])C([H])(C(=O)N([H])C2([H])c4c([H])c([H])c([H])c([H])c4C([H])([H])C([H])([H])C2([H])[H])C3([H])[H])c1[H]

>  <smiles>  (52) 
[H]C(C(=O)N1C([H])([H])C([H])([H])C([H])([H])C([H])(n2nc(-c3c([H])c([H])c(Oc4c([H])c([H])c(F)c([H])c4F)c([H])c3[H])c(C(=O)N([H])[H])c2N([H])[H])C1([H])[H])=C([H])c1c(C([H])([H])[H])sc(N([H])C(=O)C([H])([H])C([H])([H])C([H])([H])Oc2c([H])c([H])c3c(c2[H])C([H])([H])N(C(=O)C([H])(N([H])C(=O)C([H])(N([H])C([H])([H])[H])C([H])([H])[H])C(C([H])([H])[H])(C([H])([H])[H])C([H])([H])[H])C([H])(C(=O)N([H])C2([H])c4c([H])c([H])c([H])c([H])c4C([H])([H])C([H])([H])C2([H])[H])C3([H])[H])c1[H]

$$$$
52:0:0
     RDKit          3D

 97105  0  0  1  0  0  0  0  0999 V2000
  -30.3970  -21.3220   20.7840 C   0  0  0  0  0  0  0  0  0  0  0  0
  -30.8270  -20.0600   20.5330 N   0  0  0  0  0  0  0  0  0  0  0  0
  -29.9230  -21.6630   21.8680 O   0  0  0  0  0  0  0  0  0  0  0  0
  -31.1630  -19.8920   19.5930 H   0  0  0  0  0  0  0  0  0  0  0  0
  -30.8310  -17.6100   20.8630 C   0  0  0  0  0  3  0  0  0  0  0  0
  -30.8780  -19.0540   22.8280 C   0  0  0  0  0  3  0  0  0  0  0  0
  -30.8630  -16.6460   23.1130 C   0  0  0  0  0  3  0  0  0  0  0  0
  -30.8330  -18.9230   21.4140 C   0  0  0  0  0  0  0  0  0  0  0  0
  -30.8390  -16.4720   21.7190 C   0  0  0  0  0  0  0  0  0  0  0  0
  -30.8950  -17.9310   23.6700 C   0  0  0  0  0  0  0  0  0  0  0  0
  -31.0640  -14.5340   20.1430 C   0  0  0  0  0  0  0  0  0  0  0  0
  -30.6360  -12.5170   18.7830 C   0  0  0  0  0  2  0  0  0  0  0  0
  -29.6360  -12.8110   17.6480 C   0  0  0  0  0  2  0  0  0  0  0  0
  -28.1790  -12.7060   18.1340 C   0  0  0  0  0  2  0  0  0  0  0  0
  -27.9290  -13.4760   19.4520 C   0  0  0  0  0  3  0  0  0  0  0  0
  -29.0120  -13.1270   20.4950 C   0  0  0  0  0  2  0  0  0  0  0  0
  -30.3440  -13.4080   19.9120 N   0  0  0  0  0  0  0  0  0  0  0  0
  -32.0080  -14.9070   19.4440 O   0  0  0  0  0  0  0  0  0  0  0  0
  -30.7360  -15.1240   21.2970 N   0  0  0  0  0  0  0  0  0  0  0  0
  -30.1690  -14.5330   21.8850 H   0  0  0  0  0  0  0  0  0  0  0  0
  -25.5580  -14.1360   20.2190 C   0  0  0  0  0  0  0  0  0  0  0  0
  -24.4850  -13.3860   20.6270 C   0  0  0  0  0  0  0  0  0  0  0  0
  -24.9190  -12.0270   20.5890 C   0  0  0  0  0  0  0  0  0  0  0  0
  -26.5810  -13.2330   19.9690 N   0  0  0  0  0  0  0  0  0  0  0  0
  -26.2000  -11.9590   20.2480 N   0  0  0  0  0  0  0  0  0  0  0  0
  -24.1780  -10.7800   20.8100 C   0  0  0  0  0  0  0  0  0  0  0  0
  -24.5820   -9.8430   21.7850 C   0  0  0  0  0  3  0  0  0  0  0  0
  -23.8430   -8.6590   21.9920 C   0  0  0  0  0  3  0  0  0  0  0  0
  -22.6850   -8.4030   21.2200 C   0  0  0  0  0  0  0  0  0  0  0  0
  -22.2990   -9.3280   20.2340 C   0  0  0  0  0  3  0  0  0  0  0  0
  -23.0390  -10.5040   20.0270 C   0  0  0  0  0  3  0  0  0  0  0  0
  -21.9200   -7.2670   21.3330 O   0  0  0  0  0  0  0  0  0  0  0  0
  -21.7720   -6.6120   22.5280 C   0  0  0  0  0  0  0  0  0  0  0  0
  -21.2630   -7.2600   23.6750 C   0  0  0  0  0  3  0  0  0  0  0  0
  -21.0640   -6.5320   24.8650 C   0  0  0  0  0  3  0  0  0  0  0  0
  -21.3650   -5.1580   24.9100 C   0  0  0  0  0  0  0  0  0  0  0  0
  -21.8670   -4.5100   23.7680 C   0  0  0  0  0  3  0  0  0  0  0  0
  -22.0700   -5.2350   22.5800 C   0  0  0  0  0  0  0  0  0  0  0  0
  -22.5350   -4.6000   21.4760 F   0  0  0  0  0  0  0  0  0  0  0  0
  -21.1670   -4.4550   26.0490 F   0  0  0  0  0  0  0  0  0  0  0  0
  -23.1050  -13.8920   20.9350 C   0  0  0  0  0  0  0  0  0  0  0  0
  -22.3990  -13.2280   21.8420 N   0  0  0  0  0  0  0  0  0  0  0  0
  -22.6630  -14.9130   20.4110 O   0  0  0  0  0  0  0  0  0  0  0  0
  -22.7720  -12.4020   22.2850 H   0  0  0  0  0  0  0  0  0  0  0  0
  -21.4740  -13.5490   22.0940 H   0  0  0  0  0  0  0  0  0  0  0  0
  -25.7440  -15.5020   20.0280 N   0  0  0  0  0  0  0  0  0  0  0  0
  -24.9960  -16.1760   20.1620 H   0  0  0  0  0  0  0  0  0  0  0  0
  -26.6050  -15.9220   19.6920 H   0  0  0  0  0  0  0  0  0  0  0  0
  -30.9400  -18.0780   25.0260 O   0  0  0  0  0  0  0  0  0  0  0  0
  -30.9150  -18.9880   25.3110 H   0  0  0  0  0  0  0  0  0  0  0  0
  -30.5090  -22.3820   19.6660 C   0  0  0  0  0  2  0  0  0  0  0  0
  -30.0550  -23.8250   20.0700 C   0  0  0  0  0  2  0  0  0  0  0  0
  -28.5070  -24.6670   18.2410 C   0  0  0  0  0  1  0  0  0  0  0  0
  -27.5460  -23.1500   19.9550 C   0  0  0  0  0  1  0  0  0  0  0  0
  -28.5890  -24.2790   19.7370 C   0  0  1  0  0  0  0  0  0  0  0  0
  -28.1900  -25.4850   20.6640 C   0  0  0  0  0  2  0  0  0  0  0  0
  -28.2900  -26.7960   20.0840 O   0  0  0  0  0  0  0  0  0  0  0  0
  -24.5470  -31.9660   23.2590 C   0  0  0  0  0  0  0  0  0  0  0  0
  -27.1280  -27.5340   20.1150 C   0  0  0  0  0  0  0  0  0  0  0  0
  -23.3210  -30.5670   21.6310 C   0  0  0  0  0  3  0  0  0  0  0  0
  -24.7470  -29.0430   20.1810 C   0  0  0  0  0  0  0  0  0  0  0  0
  -25.8420  -30.9320   21.3990 C   0  0  0  0  0  2  0  0  0  0  0  0
  -25.9170  -29.5680   20.7400 C   0  0  0  0  0  0  0  0  0  0  0  0
  -27.1200  -28.8240   20.6860 C   0  0  0  0  0  3  0  0  0  0  0  0
  -25.9350  -27.0090   19.5740 C   0  0  0  0  0  3  0  0  0  0  0  0
  -24.7480  -27.7660   19.5940 C   0  0  0  0  0  3  0  0  0  0  0  0
  -23.5090  -29.9010   20.2430 C   0  0  0  0  0  2  0  0  0  0  0  0
  -24.5900  -31.1660   22.1560 N   0  0  0  0  0  0  0  0  0  0  0  0
  -23.4720  -32.2410   23.8080 O   0  0  0  0  0  0  0  0  0  0  0  0
  -22.6760  -29.5460   22.5980 C   0  0  0  0  0  0  0  0  0  0  0  0
  -21.3530  -29.3520   22.4760 N   0  0  0  0  0  0  0  0  0  0  0  0
  -23.3670  -28.9310   23.4160 O   0  0  0  0  0  0  0  0  0  0  0  0
  -20.8580  -29.9080   21.7930 H   0  0  0  0  0  0  0  0  0  0  0  0
  -17.9960  -28.0970   22.9550 C   0  0  0  0  0  0  0  0  0  0  0  0
  -20.5440  -28.4100   23.2520 C   0  0  0  0  0  3  0  0  0  0  0  0
  -20.6800  -26.9740   22.6960 C   0  0  0  0  0  2  0  0  0  0  0  0
  -19.6000  -26.6140   21.6730 C   0  0  0  0  0  2  0  0  0  0  0  0
  -18.2090  -26.7410   22.3030 C   0  0  0  0  0  2  0  0  0  0  0  0
  -19.0930  -28.8880   23.3870 C   0  0  0  0  0  0  0  0  0  0  0  0
  -18.8410  -30.1550   23.9590 C   0  0  0  0  0  3  0  0  0  0  0  0
  -17.5250  -30.6320   24.1010 C   0  0  0  0  0  3  0  0  0  0  0  0
  -16.4410  -29.8380   23.6860 C   0  0  0  0  0  3  0  0  0  0  0  0
  -16.6770  -28.5720   23.1220 C   0  0  0  0  0  3  0  0  0  0  0  0
  -25.8440  -32.5920   23.8650 C   0  0  0  0  0  3  0  0  0  0  0  0
  -25.5470  -33.9920   24.1990 N   0  0  0  0  0  0  0  0  0  0  0  0
  -25.8810  -35.0420   23.4370 C   0  0  0  0  0  0  0  0  0  0  0  0
  -26.5390  -34.9340   22.3990 O   0  0  0  0  0  0  0  0  0  0  0  0
  -24.9540  -34.1540   25.0020 H   0  0  0  0  0  0  0  0  0  0  0  0
  -24.1610  -36.8480   23.1000 C   0  0  0  0  0  1  0  0  0  0  0  0
  -25.4080  -36.4330   23.8990 C   0  0  0  0  0  3  0  0  0  0  0  0
  -27.5570  -37.3040   24.7080 C   0  0  0  0  0  1  0  0  0  0  0  0
  -26.4470  -37.4780   23.7760 N   0  0  0  0  0  0  0  0  0  0  0  0
  -26.0480  -38.4010   23.9270 H   0  0  0  0  0  0  0  0  0  0  0  0
  -26.3840  -31.8180   25.1300 C   0  0  1  0  0  0  0  0  0  0  0  0
  -25.3080  -31.5740   26.2130 C   0  0  0  0  0  1  0  0  0  0  0  0
  -26.9590  -30.4400   24.7270 C   0  0  0  0  0  1  0  0  0  0  0  0
  -27.5480  -32.6100   25.7790 C   0  0  0  0  0  1  0  0  0  0  0  0
  1  3  2  0
  2  1  1  0
  2  8  1  0
  4  2  1  0
  5  8  2  0
  5  9  1  0
  6 10  2  0
  7 10  1  0
  8  6  1  0
  9  7  2  0
 10 49  1  0
 11 19  1  0
 12 17  1  0
 13 14  1  0
 13 12  1  0
 15 14  1  0
 15 24  1  0
 15 16  1  0
 17 11  1  0
 17 16  1  0
 18 11  2  0
 19  9  1  0
 19 20  1  0
 21 22  2  0
 22 41  1  0
 23 22  1  0
 23 26  1  0
 24 21  1  0
 24 25  1  0
 25 23  2  0
 26 27  1  0
 27 28  2  0
 29 32  1  0
 29 28  1  0
 30 29  2  0
 31 30  1  0
 31 26  2  0
 32 33  1  0
 33 38  2  0
 33 34  1  0
 34 35  2  0
 35 36  1  0
 36 40  1  0
 37 36  2  0
 38 37  1  0
 39 38  1  0
 41 42  1  0
 42 45  1  0
 42 44  1  0
 43 41  2  0
 46 47  1  0
 46 21  1  0
 48 46  1  0
 49 50  1  0
 51 52  1  0
 51  1  1  0
 55 53  1  6
 55 54  1  0
 55 52  1  0
 55 56  1  0
 57 59  1  0
 57 56  1  0
 58 69  2  0
 59 64  1  0
 60 68  1  0
 60 70  1  0
 61 67  1  0
 61 63  1  0
 62 68  1  0
 63 62  1  0
 64 63  2  0
 65 66  1  0
 65 59  2  0
 66 61  2  0
 67 60  1  0
 68 58  1  0
 70 72  2  0
 71 70  1  0
 73 71  1  0
 74 83  2  0
 74 79  1  0
 75 71  1  0
 75 79  1  0
 76 75  1  0
 77 78  1  0
 77 76  1  0
 78 74  1  0
 79 80  2  0
 80 81  1  0
 82 81  2  0
 83 82  1  0
 84 58  1  0
 84 85  1  0
 84 94  1  0
 85 88  1  0
 86 90  1  0
 86 85  1  0
 87 86  2  0
 90 89  1  0
 92 90  1  0
 92 93  1  0
 92 91  1  0
 94 97  1  1
 94 95  1  0
 96 94  1  0
M  ISO  4  11 100  19 100  56 101  57 101
M  END
>  <TORSDO>  (53) 
F 22

>  <SCORE>  (53) 
-11.193

>  <name>  (53) 
52

>  <ligand_id>  (53) 
52

>  <original_smiles>  (53) 
[H]Oc1c([H])c(N([H])C(=O)N2C([H])([H])C([H])([H])C([H])([H])C([H])(n3nc(-c4c([H])c([H])c(Oc5c([H])c([H])c(F)c([H])c5F)c([H])c4[H])c(C(=O)N([H])[H])c3N([H])[H])C2([H])[H])c([H])c(N([H])C(=O)C([H])([H])C([H])([H])C(C([H])([H])[H])(C([H])([H])[H])C([H])([H])Oc2c([H])c([H])c3c(c2[H])C([H])([H])N(C(=O)C([H])(N([H])C(=O)C([H])(N([H])C([H])([H])[H])C([H])([H])[H])C(C([H])([H])[H])(C([H])([H])[H])C([H])([H])[H])C([H])(C(=O)N([H])C2([H])c4c([H])c([H])c([H])c([H])c4C([H])([H])C([H])([H])C2([H])[H])C3([H])[H])c1[H]

>  <smiles>  (53) 
[H]Oc1c([H])c(N([H])C(=O)N2C([H])([H])C([H])([H])C([H])([H])C([H])(n3nc(-c4c([H])c([H])c(Oc5c([H])c([H])c(F)c([H])c5F)c([H])c4[H])c(C(=O)N([H])[H])c3N([H])[H])C2([H])[H])c([H])c(N([H])C(=O)C([H])([H])C([H])([H])C(C([H])([H])[H])(C([H])([H])[H])C([H])([H])Oc2c([H])c([H])c3c(c2[H])C([H])([H])N(C(=O)C([H])(N([H])C(=O)C([H])(N([H])C([H])([H])[H])C([H])([H])[H])C(C([H])([H])[H])(C([H])([H])[H])C([H])([H])[H])C([H])(C(=O)N([H])C2([H])c4c([H])c([H])c([H])c([H])c4C([H])([H])C([H])([H])C2([H])[H])C3([H])[H])c1[H]

$$$$
53:0:0
     RDKit          3D

 97105  0  0  1  0  0  0  0  0999 V2000
  -28.6810  -21.3890   20.9250 C   0  0  0  0  0  0  0  0  0  0  0  0
  -29.6130  -20.5080   21.3330 N   0  0  0  0  0  0  0  0  0  0  0  0
  -27.9940  -21.2160   19.9150 O   0  0  0  0  0  0  0  0  0  0  0  0
  -29.9860  -20.6260   22.2650 H   0  0  0  0  0  0  0  0  0  0  0  0
  -31.4000  -18.5870   18.6440 C   0  0  0  0  0  3  0  0  0  0  0  0
  -31.1110  -17.2690   19.0320 C   0  0  0  0  0  3  0  0  0  0  0  0
  -29.8920  -18.0970   20.9680 C   0  0  0  0  0  3  0  0  0  0  0  0
  -30.9490  -19.6750   19.4140 C   0  0  0  0  0  0  0  0  0  0  0  0
  -30.3960  -17.0020   20.2240 C   0  0  0  0  0  0  0  0  0  0  0  0
  -30.1350  -19.4340   20.5570 C   0  0  0  0  0  0  0  0  0  0  0  0
  -31.3900  -21.0690   18.9870 C   0  0  0  0  0  1  0  0  0  0  0  0
  -30.8850  -14.5740   20.3480 C   0  0  0  0  0  0  0  0  0  0  0  0
  -30.5780  -12.3890   19.2780 C   0  0  0  0  0  2  0  0  0  0  0  0
  -29.6550  -12.6110   18.0600 C   0  0  0  0  0  2  0  0  0  0  0  0
  -28.1760  -12.4920   18.4770 C   0  0  0  0  0  2  0  0  0  0  0  0
  -27.8340  -13.3400   19.7330 C   0  0  0  0  0  3  0  0  0  0  0  0
  -28.8800  -13.1300   20.8520 C   0  0  0  0  0  2  0  0  0  0  0  0
  -30.2110  -13.3960   20.2860 N   0  0  0  0  0  0  0  0  0  0  0  0
  -32.0560  -14.6870   19.9820 O   0  0  0  0  0  0  0  0  0  0  0  0
  -30.1370  -15.6570   20.6460 N   0  0  0  0  0  0  0  0  0  0  0  0
  -29.2340  -15.4770   21.0570 H   0  0  0  0  0  0  0  0  0  0  0  0
  -25.4350  -13.9650   20.4200 C   0  0  0  0  0  0  0  0  0  0  0  0
  -24.3580  -13.2010   20.7870 C   0  0  0  0  0  0  0  0  0  0  0  0
  -24.8140  -11.8460   20.7710 C   0  0  0  0  0  0  0  0  0  0  0  0
  -26.4760  -13.0760   20.2050 N   0  0  0  0  0  0  0  0  0  0  0  0
  -26.1050  -11.7980   20.4710 N   0  0  0  0  0  0  0  0  0  0  0  0
  -24.0790  -10.5900   20.9660 C   0  0  0  0  0  0  0  0  0  0  0  0
  -24.4860   -9.6370   21.9260 C   0  0  0  0  0  3  0  0  0  0  0  0
  -23.7540   -8.4440   22.1070 C   0  0  0  0  0  3  0  0  0  0  0  0
  -22.6000   -8.1950   21.3270 C   0  0  0  0  0  0  0  0  0  0  0  0
  -22.2100   -9.1360   20.3580 C   0  0  0  0  0  3  0  0  0  0  0  0
  -22.9440  -10.3200   20.1750 C   0  0  0  0  0  3  0  0  0  0  0  0
  -21.8410   -7.0530   21.4160 O   0  0  0  0  0  0  0  0  0  0  0  0
  -21.7370   -6.3470   22.5880 C   0  0  0  0  0  0  0  0  0  0  0  0
  -21.2190   -6.9290   23.7650 C   0  0  0  0  0  3  0  0  0  0  0  0
  -21.0650   -6.1470   24.9280 C   0  0  0  0  0  3  0  0  0  0  0  0
  -21.4210   -4.7850   24.9130 C   0  0  0  0  0  0  0  0  0  0  0  0
  -21.9330   -4.2030   23.7400 C   0  0  0  0  0  3  0  0  0  0  0  0
  -22.0880   -4.9820   22.5810 C   0  0  0  0  0  0  0  0  0  0  0  0
  -22.5620   -4.4110   21.4470 F   0  0  0  0  0  0  0  0  0  0  0  0
  -21.2650   -4.0320   26.0270 F   0  0  0  0  0  0  0  0  0  0  0  0
  -22.9620  -13.6880   21.0430 C   0  0  0  0  0  0  0  0  0  0  0  0
  -22.2240  -13.0030   21.9100 N   0  0  0  0  0  0  0  0  0  0  0  0
  -22.5330  -14.7100   20.5090 O   0  0  0  0  0  0  0  0  0  0  0  0
  -22.5820  -12.1780   22.3640 H   0  0  0  0  0  0  0  0  0  0  0  0
  -21.2860  -13.3130   22.1220 H   0  0  0  0  0  0  0  0  0  0  0  0
  -25.6100  -15.3330   20.2330 N   0  0  0  0  0  0  0  0  0  0  0  0
  -24.8430  -15.9900   20.3250 H   0  0  0  0  0  0  0  0  0  0  0  0
  -26.4580  -15.7640   19.8860 H   0  0  0  0  0  0  0  0  0  0  0  0
  -28.4680  -22.6470   21.7760 C   0  0  0  0  0  2  0  0  0  0  0  0
  -28.5630  -23.9460   20.9250 C   0  0  0  0  0  2  0  0  0  0  0  0
  -26.5540  -25.2050   21.8100 C   0  0  0  0  0  1  0  0  0  0  0  0
  -28.0820  -25.2680   21.5930 C   0  0  1  0  0  0  0  0  0  0  0  0
  -30.2420  -25.7290   23.0170 C   0  0  0  0  0  1  0  0  0  0  0  0
  -28.7260  -25.4740   22.9910 C   0  0  0  0  0  2  0  0  0  0  0  0
  -28.4420  -26.4910   20.6890 C   0  0  0  0  0  2  0  0  0  0  0  0
  -27.5660  -26.6810   19.5710 O   0  0  0  0  0  0  0  0  0  0  0  0
  -24.4620  -31.9520   23.2500 C   0  0  0  0  0  0  0  0  0  0  0  0
  -26.4940  -27.5260   19.7440 C   0  0  0  0  0  0  0  0  0  0  0  0
  -23.0000  -30.6920   21.6990 C   0  0  0  0  0  3  0  0  0  0  0  0
  -24.1990  -29.1390   20.0700 C   0  0  0  0  0  0  0  0  0  0  0  0
  -25.5010  -30.9280   21.2340 C   0  0  0  0  0  2  0  0  0  0  0  0
  -25.4380  -29.5810   20.5470 C   0  0  0  0  0  0  0  0  0  0  0  0
  -26.5890  -28.7830   20.3860 C   0  0  0  0  0  3  0  0  0  0  0  0
  -25.2450  -27.1060   19.2430 C   0  0  0  0  0  3  0  0  0  0  0  0
  -24.0950  -27.8980   19.4180 C   0  0  0  0  0  3  0  0  0  0  0  0
  -23.0180  -30.0590   20.2810 C   0  0  0  0  0  2  0  0  0  0  0  0
  -24.3460  -31.2000   22.1200 N   0  0  0  0  0  0  0  0  0  0  0  0
  -23.4650  -32.2600   23.9190 O   0  0  0  0  0  0  0  0  0  0  0  0
  -22.3990  -29.6680   22.6870 C   0  0  0  0  0  0  0  0  0  0  0  0
  -21.0850  -29.4180   22.5610 N   0  0  0  0  0  0  0  0  0  0  0  0
  -23.1090  -29.1020   23.5220 O   0  0  0  0  0  0  0  0  0  0  0  0
  -20.5700  -29.9280   21.8580 H   0  0  0  0  0  0  0  0  0  0  0  0
  -17.8310  -27.8960   22.9210 C   0  0  0  0  0  0  0  0  0  0  0  0
  -20.3140  -28.4660   23.3570 C   0  0  0  0  0  3  0  0  0  0  0  0
  -20.6160  -27.0110   22.9300 C   0  0  0  0  0  2  0  0  0  0  0  0
  -19.6450  -26.4780   21.8710 C   0  0  0  0  0  2  0  0  0  0  0  0
  -18.2060  -26.5210   22.3940 C   0  0  0  0  0  2  0  0  0  0  0  0
  -18.8220  -28.8150   23.3590 C   0  0  0  0  0  0  0  0  0  0  0  0
  -18.4230  -30.0940   23.8060 C   0  0  0  0  0  3  0  0  0  0  0  0
  -17.0640  -30.4580   23.8230 C   0  0  0  0  0  3  0  0  0  0  0  0
  -16.0860  -29.5410   23.4030 C   0  0  0  0  0  3  0  0  0  0  0  0
  -16.4700  -28.2620   22.9580 C   0  0  0  0  0  3  0  0  0  0  0  0
  -25.8440  -32.4800   23.7440 C   0  0  0  0  0  3  0  0  0  0  0  0
  -25.6670  -33.8830   24.1370 N   0  0  0  0  0  0  0  0  0  0  0  0
  -26.0320  -34.9330   23.3880 C   0  0  0  0  0  0  0  0  0  0  0  0
  -26.6280  -34.8160   22.3140 O   0  0  0  0  0  0  0  0  0  0  0  0
  -25.1350  -34.0540   24.9780 H   0  0  0  0  0  0  0  0  0  0  0  0
  -24.4450  -36.8700   23.1710 C   0  0  0  0  0  1  0  0  0  0  0  0
  -25.6780  -36.3360   23.9160 C   0  0  0  0  0  3  0  0  0  0  0  0
  -27.9060  -37.0170   24.6950 C   0  0  0  0  0  1  0  0  0  0  0  0
  -26.7890  -37.3060   23.7970 N   0  0  0  0  0  0  0  0  0  0  0  0
  -26.4650  -38.2510   23.9880 H   0  0  0  0  0  0  0  0  0  0  0  0
  -26.4440  -31.6360   24.9350 C   0  0  1  0  0  0  0  0  0  0  0  0
  -25.4520  -31.4180   26.1020 C   0  0  0  0  0  1  0  0  0  0  0  0
  -26.9050  -30.2450   24.4420 C   0  0  0  0  0  1  0  0  0  0  0  0
  -27.6970  -32.3450   25.5030 C   0  0  0  0  0  1  0  0  0  0  0  0
  1  2  1  0
  1 50  1  0
  2  4  1  0
  3  1  2  0
  5  6  2  0
  5  8  1  0
  6  9  1  0
  8 10  2  0
  9 20  1  0
  9  7  2  0
 10  7  1  0
 10  2  1  0
 11  8  1  0
 12 20  1  0
 13 18  1  0
 14 15  1  0
 14 13  1  0
 16 15  1  0
 16 25  1  0
 16 17  1  0
 18 12  1  0
 18 17  1  0
 19 12  2  0
 20 21  1  0
 22 23  2  0
 23 42  1  0
 24 23  1  0
 24 27  1  0
 25 22  1  0
 25 26  1  0
 26 24  2  0
 27 28  1  0
 28 29  2  0
 30 33  1  0
 30 29  1  0
 31 30  2  0
 32 31  1  0
 32 27  2  0
 33 34  1  0
 34 35  1  0
 35 36  2  0
 37 36  1  0
 37 41  1  0
 38 37  2  0
 39 34  2  0
 39 38  1  0
 40 39  1  0
 42 43  1  0
 43 46  1  0
 43 45  1  0
 44 42  2  0
 47 48  1  0
 47 22  1  0
 49 47  1  0
 51 53  1  0
 51 50  1  0
 53 52  1  1
 53 55  1  0
 55 54  1  0
 56 53  1  0
 57 59  1  0
 57 56  1  0
 58 69  2  0
 59 64  1  0
 60 68  1  0
 60 70  1  0
 61 67  1  0
 61 63  1  0
 62 68  1  0
 63 62  1  0
 64 63  2  0
 65 66  1  0
 65 59  2  0
 66 61  2  0
 67 60  1  0
 68 58  1  0
 70 72  2  0
 71 70  1  0
 73 71  1  0
 74 83  2  0
 74 79  1  0
 75 71  1  0
 75 79  1  0
 76 75  1  0
 77 78  1  0
 77 76  1  0
 78 74  1  0
 79 80  2  0
 80 81  1  0
 82 81  2  0
 83 82  1  0
 84 58  1  0
 84 85  1  0
 84 94  1  0
 85 88  1  0
 86 90  1  0
 86 85  1  0
 87 86  2  0
 90 89  1  0
 92 90  1  0
 92 93  1  0
 92 91  1  0
 94 97  1  1
 94 95  1  0
 96 94  1  0
M  ISO  4  12 100  20 100  56 101  57 101
M  END
>  <TORSDO>  (54) 
F 22

>  <SCORE>  (54) 
-12.847

>  <name>  (54) 
53

>  <ligand_id>  (54) 
53

>  <original_smiles>  (54) 
[H]c1c([H])c([H])c2c(c1[H])C([H])([H])C([H])([H])C([H])([H])C2([H])N([H])C(=O)C1([H])N(C(=O)C([H])(N([H])C(=O)C([H])(N([H])C([H])([H])[H])C([H])([H])[H])C(C([H])([H])[H])(C([H])([H])[H])C([H])([H])[H])C([H])([H])c2c([H])c(OC([H])([H])C(C([H])([H])[H])(C([H])([H])C([H])([H])[H])C([H])([H])C([H])([H])C(=O)N([H])c3c([H])c(N([H])C(=O)N4C([H])([H])C([H])([H])C([H])([H])C([H])(n5nc(-c6c([H])c([H])c(Oc7c([H])c([H])c(F)c([H])c7F)c([H])c6[H])c(C(=O)N([H])[H])c5N([H])[H])C4([H])[H])c([H])c([H])c3C([H])([H])[H])c([H])c([H])c2C1([H])[H]

>  <smiles>  (54) 
[H]c1c([H])c([H])c2c(c1[H])C([H])([H])C([H])([H])C([H])([H])C2([H])N([H])C(=O)C1([H])N(C(=O)C([H])(N([H])C(=O)C([H])(N([H])C([H])([H])[H])C([H])([H])[H])C(C([H])([H])[H])(C([H])([H])[H])C([H])([H])[H])C([H])([H])c2c([H])c(OC([H])([H])C(C([H])([H])[H])(C([H])([H])C([H])([H])[H])C([H])([H])C([H])([H])C(=O)N([H])c3c([H])c(N([H])C(=O)N4C([H])([H])C([H])([H])C([H])([H])C([H])(n5nc(-c6c([H])c([H])c(Oc7c([H])c([H])c(F)c([H])c7F)c([H])c6[H])c(C(=O)N([H])[H])c5N([H])[H])C4([H])[H])c([H])c([H])c3C([H])([H])[H])c([H])c([H])c2C1([H])[H]

$$$$
54:0:0
     RDKit          3D

 94102  0  0  1  0  0  0  0  0999 V2000
  -29.0510  -22.2710   19.6520 C   0  0  0  0  0  0  0  0  0  0  0  0
  -29.8440  -21.1790   20.0200 N   0  0  0  0  0  0  0  0  0  0  0  0
  -28.2460  -22.1020   18.7340 O   0  0  0  0  0  0  0  0  0  0  0  0
  -30.6580  -21.4150   20.5710 H   0  0  0  0  0  0  0  0  0  0  0  0
  -30.4570  -18.5360   20.1250 C   0  0  0  0  0  3  0  0  0  0  0  0
  -29.5510  -19.7100   19.9200 C   0  0  0  0  0  0  0  0  0  0  0  0
  -28.2510  -19.2820   19.7660 C   0  0  0  0  0  0  0  0  0  0  0  0
  -29.8390  -17.2570   20.0820 C   0  0  0  0  0  0  0  0  0  0  0  0
  -26.9760  -20.0620   19.6490 C   0  0  0  0  0  1  0  0  0  0  0  0
  -28.1380  -17.5400   19.7830 S   0  0  0  0  0  0  0  0  0  0  0  0
  -30.9340  -14.8520   19.7900 C   0  0  0  0  0  0  0  0  0  0  0  0
  -30.7670  -12.4890   18.9370 C   0  0  0  0  0  2  0  0  0  0  0  0
  -29.7520  -12.4480   17.7680 C   0  0  0  0  0  2  0  0  0  0  0  0
  -28.3060  -12.3050   18.2870 C   0  0  0  0  0  2  0  0  0  0  0  0
  -27.9930  -13.2800   19.4520 C   0  0  0  0  0  3  0  0  0  0  0  0
  -29.1090  -13.2390   20.5190 C   0  0  0  0  0  2  0  0  0  0  0  0
  -30.3770  -13.5870   19.8520 N   0  0  0  0  0  0  0  0  0  0  0  0
  -32.0530  -15.0180   19.2960 O   0  0  0  0  0  0  0  0  0  0  0  0
  -30.1070  -15.8750   20.2330 N   0  0  0  0  0  0  0  0  0  0  0  0
  -29.3340  -15.4300   20.7030 H   0  0  0  0  0  0  0  0  0  0  0  0
  -25.6970  -13.9660   20.3830 C   0  0  0  0  0  0  0  0  0  0  0  0
  -24.6210  -13.2350   20.8080 C   0  0  0  0  0  0  0  0  0  0  0  0
  -25.0020  -11.8650   20.6820 C   0  0  0  0  0  0  0  0  0  0  0  0
  -26.6720  -13.0440   20.0300 N   0  0  0  0  0  0  0  0  0  0  0  0
  -26.2620  -11.7720   20.2700 N   0  0  0  0  0  0  0  0  0  0  0  0
  -24.2210  -10.6360   20.8780 C   0  0  0  0  0  0  0  0  0  0  0  0
  -24.6350   -9.6360   21.7870 C   0  0  0  0  0  3  0  0  0  0  0  0
  -23.8580   -8.4720   21.9700 C   0  0  0  0  0  3  0  0  0  0  0  0
  -22.6550   -8.3000   21.2450 C   0  0  0  0  0  0  0  0  0  0  0  0
  -22.2580   -9.2910   20.3300 C   0  0  0  0  0  3  0  0  0  0  0  0
  -23.0340  -10.4460   20.1430 C   0  0  0  0  0  3  0  0  0  0  0  0
  -21.8500   -7.1910   21.3390 O   0  0  0  0  0  0  0  0  0  0  0  0
  -21.7460   -6.4740   22.5030 C   0  0  0  0  0  0  0  0  0  0  0  0
  -21.3020   -7.0680   23.7060 C   0  0  0  0  0  3  0  0  0  0  0  0
  -21.1410   -6.2790   24.8620 C   0  0  0  0  0  3  0  0  0  0  0  0
  -21.4150   -4.9000   24.8180 C   0  0  0  0  0  0  0  0  0  0  0  0
  -21.8520   -4.3050   23.6210 C   0  0  0  0  0  3  0  0  0  0  0  0
  -22.0140   -5.0910   22.4670 C   0  0  0  0  0  0  0  0  0  0  0  0
  -22.4140   -4.5090   21.3090 F   0  0  0  0  0  0  0  0  0  0  0  0
  -21.2540   -4.1400   25.9280 F   0  0  0  0  0  0  0  0  0  0  0  0
  -23.2780  -13.7770   21.2100 C   0  0  0  0  0  0  0  0  0  0  0  0
  -22.5870  -13.0970   22.1190 N   0  0  0  0  0  0  0  0  0  0  0  0
  -22.8530  -14.8370   20.7530 O   0  0  0  0  0  0  0  0  0  0  0  0
  -22.9440  -12.2390   22.5110 H   0  0  0  0  0  0  0  0  0  0  0  0
  -21.6900  -13.4440   22.4270 H   0  0  0  0  0  0  0  0  0  0  0  0
  -25.9170  -15.3320   20.2450 N   0  0  0  0  0  0  0  0  0  0  0  0
  -25.1930  -16.0120   20.4470 H   0  0  0  0  0  0  0  0  0  0  0  0
  -26.7460  -15.7430   19.8370 H   0  0  0  0  0  0  0  0  0  0  0  0
  -27.8180  -23.7590   21.2760 C   0  0  0  0  0  1  0  0  0  0  0  0
  -30.3150  -23.8310   21.2940 C   0  0  0  0  0  1  0  0  0  0  0  0
  -29.0720  -23.7430   20.3770 C   0  0  1  0  0  0  0  0  0  0  0  0
  -28.5380  -25.0080   18.0550 C   0  0  0  0  0  1  0  0  0  0  0  0
  -28.9890  -25.1570   19.5190 C   0  0  0  0  0  3  0  0  0  0  0  0
  -28.6620  -26.5040   20.1660 O   0  0  0  0  0  0  0  0  0  0  0  0
  -24.5830  -31.7500   23.1490 C   0  0  0  0  0  0  0  0  0  0  0  0
  -27.4660  -27.2800   20.1090 C   0  0  0  0  0  0  0  0  0  0  0  0
  -23.4800  -30.3250   21.4640 C   0  0  0  0  0  3  0  0  0  0  0  0
  -25.0280  -28.8390   20.0680 C   0  0  0  0  0  0  0  0  0  0  0  0
  -26.0140  -30.7350   21.3490 C   0  0  0  0  0  2  0  0  0  0  0  0
  -26.1670  -29.3590   20.6900 C   0  0  0  0  0  0  0  0  0  0  0  0
  -27.3800  -28.5930   20.6970 C   0  0  0  0  0  3  0  0  0  0  0  0
  -26.2770  -26.8160   19.5000 C   0  0  0  0  0  3  0  0  0  0  0  0
  -25.0870  -27.5720   19.4680 C   0  0  0  0  0  3  0  0  0  0  0  0
  -23.7610  -29.6720   20.0850 C   0  0  0  0  0  2  0  0  0  0  0  0
  -24.7100  -30.9550   22.0450 N   0  0  0  0  0  0  0  0  0  0  0  0
  -23.4740  -31.9780   23.6570 O   0  0  0  0  0  0  0  0  0  0  0  0
  -22.8290  -29.2740   22.3970 C   0  0  0  0  0  0  0  0  0  0  0  0
  -21.5110  -29.0570   22.2450 N   0  0  0  0  0  0  0  0  0  0  0  0
  -23.5110  -28.6580   23.2200 O   0  0  0  0  0  0  0  0  0  0  0  0
  -21.0130  -29.6120   21.5620 H   0  0  0  0  0  0  0  0  0  0  0  0
  -18.1600  -27.7650   22.7020 C   0  0  0  0  0  0  0  0  0  0  0  0
  -20.7110  -28.0790   22.9880 C   0  0  0  0  0  3  0  0  0  0  0  0
  -20.8490  -26.6650   22.3750 C   0  0  0  0  0  2  0  0  0  0  0  0
  -19.7580  -26.3440   21.3480 C   0  0  0  0  0  2  0  0  0  0  0  0
  -18.3720  -26.4390   21.9900 C   0  0  0  0  0  2  0  0  0  0  0  0
  -19.2590  -28.5410   23.1570 C   0  0  0  0  0  0  0  0  0  0  0  0
  -19.0070  -29.7800   23.7830 C   0  0  0  0  0  3  0  0  0  0  0  0
  -17.6900  -30.2460   23.9560 C   0  0  0  0  0  3  0  0  0  0  0  0
  -16.6060  -29.4670   23.5160 C   0  0  0  0  0  3  0  0  0  0  0  0
  -16.8420  -28.2270   22.8960 C   0  0  0  0  0  3  0  0  0  0  0  0
  -25.8200  -32.4300   23.8140 C   0  0  0  0  0  3  0  0  0  0  0  0
  -26.3030  -31.6950   25.1230 C   0  0  1  0  0  0  0  0  0  0  0  0
  -25.1750  -31.4380   26.1470 C   0  0  0  0  0  1  0  0  0  0  0  0
  -26.9470  -30.3300   24.7800 C   0  0  0  0  0  1  0  0  0  0  0  0
  -27.3980  -32.5350   25.8240 C   0  0  0  0  0  1  0  0  0  0  0  0
  -25.4570  -33.8250   24.1090 N   0  0  0  0  0  0  0  0  0  0  0  0
  -25.7820  -34.8740   23.3440 C   0  0  0  0  0  0  0  0  0  0  0  0
  -26.4860  -34.7740   22.3350 O   0  0  0  0  0  0  0  0  0  0  0  0
  -24.8320  -33.9750   24.8870 H   0  0  0  0  0  0  0  0  0  0  0  0
  -24.0160  -36.6140   22.9100 C   0  0  0  0  0  1  0  0  0  0  0  0
  -25.2430  -36.2550   23.7630 C   0  0  0  0  0  3  0  0  0  0  0  0
  -27.3230  -37.2200   24.6440 C   0  0  0  0  0  1  0  0  0  0  0  0
  -26.2470  -37.3360   23.6630 N   0  0  0  0  0  0  0  0  0  0  0  0
  -25.8090  -38.2460   23.7820 H   0  0  0  0  0  0  0  0  0  0  0  0
  1  2  1  0
  1 51  1  0
  2  4  1  0
  3  1  2  0
  6  2  1  0
  6  5  1  0
  7 10  1  0
  7  6  2  0
  8  5  2  0
  8 19  1  0
  9  7  1  0
 10  8  1  0
 11 17  1  0
 11 19  1  0
 12 17  1  0
 13 14  1  0
 13 12  1  0
 15 14  1  0
 15 24  1  0
 15 16  1  0
 17 16  1  0
 18 11  2  0
 19 20  1  0
 21 22  2  0
 22 41  1  0
 23 22  1  0
 23 26  1  0
 24 25  1  0
 24 21  1  0
 25 23  2  0
 26 27  1  0
 27 28  2  0
 29 32  1  0
 29 28  1  0
 30 29  2  0
 31 30  1  0
 31 26  2  0
 32 33  1  0
 33 34  1  0
 34 35  2  0
 36 35  1  0
 36 40  1  0
 37 36  2  0
 38 33  2  0
 38 37  1  0
 39 38  1  0
 41 42  1  0
 42 45  1  0
 42 44  1  0
 43 41  2  0
 46 21  1  0
 46 47  1  0
 48 46  1  0
 51 49  1  1
 51 50  1  0
 53 52  1  0
 53 54  1  0
 53 51  1  0
 55 66  2  0
 56 54  1  0
 56 61  1  0
 57 65  1  0
 57 67  1  0
 58 64  1  0
 58 60  1  0
 59 65  1  0
 60 61  2  0
 60 59  1  0
 62 56  2  0
 63 62  1  0
 63 58  2  0
 64 57  1  0
 65 55  1  0
 67 69  2  0
 68 67  1  0
 70 68  1  0
 71 80  2  0
 71 76  1  0
 72 68  1  0
 72 76  1  0
 73 72  1  0
 74 75  1  0
 74 73  1  0
 75 71  1  0
 76 77  2  0
 77 78  1  0
 79 78  2  0
 80 79  1  0
 81 55  1  0
 81 86  1  0
 81 82  1  0
 82 85  1  1
 82 83  1  0
 84 82  1  0
 86 89  1  0
 87 91  1  0
 87 86  1  0
 88 87  2  0
 91 90  1  0
 93 91  1  0
 93 94  1  0
 93 92  1  0
M  ISO  4  11 100  19 100  53 101  54 101
M  END
>  <TORSDO>  (55) 
F 19

>  <SCORE>  (55) 
-13.699

>  <name>  (55) 
54

>  <ligand_id>  (55) 
54

>  <original_smiles>  (55) 
[H]c1c([H])c([H])c2c(c1[H])C([H])([H])C([H])([H])C([H])([H])C2([H])N([H])C(=O)C1([H])N(C(=O)C([H])(N([H])C(=O)C([H])(N([H])C([H])([H])[H])C([H])([H])[H])C(C([H])([H])[H])(C([H])([H])[H])C([H])([H])[H])C([H])([H])c2c([H])c(OC([H])(C([H])([H])[H])C(C(=O)N([H])c3c(C([H])([H])[H])sc(N([H])C(=O)N4C([H])([H])C([H])([H])C([H])([H])C([H])(n5nc(-c6c([H])c([H])c(Oc7c([H])c([H])c(F)c([H])c7F)c([H])c6[H])c(C(=O)N([H])[H])c5N([H])[H])C4([H])[H])c3[H])(C([H])([H])[H])C([H])([H])[H])c([H])c([H])c2C1([H])[H]

>  <smiles>  (55) 
[H]c1c([H])c([H])c2c(c1[H])C([H])([H])C([H])([H])C([H])([H])C2([H])N([H])C(=O)C1([H])N(C(=O)C([H])(N([H])C(=O)C([H])(N([H])C([H])([H])[H])C([H])([H])[H])C(C([H])([H])[H])(C([H])([H])[H])C([H])([H])[H])C([H])([H])c2c([H])c(OC([H])(C([H])([H])[H])C(C(=O)N([H])c3c(C([H])([H])[H])sc(N([H])C(=O)N4C([H])([H])C([H])([H])C([H])([H])C([H])(n5nc(-c6c([H])c([H])c(Oc7c([H])c([H])c(F)c([H])c7F)c([H])c6[H])c(C(=O)N([H])[H])c5N([H])[H])C4([H])[H])c3[H])(C([H])([H])[H])C([H])([H])[H])c([H])c([H])c2C1([H])[H]

$$$$
55:0:0
     RDKit          3D

 92101  0  0  1  0  0  0  0  0999 V2000
  -31.1440  -23.2690   18.5780 C   0  0  0  0  0  2  0  0  0  0  0  0
  -30.7330  -21.7940   18.7090 C   0  0  0  0  0  2  0  0  0  0  0  0
  -29.9580  -24.2120   18.8260 C   0  0  0  0  0  2  0  0  0  0  0  0
  -28.9690  -22.4680   20.4100 C   0  0  0  0  0  2  0  0  0  0  0  0
  -30.1560  -21.4670   20.1030 C   0  0  0  0  0  3  0  0  0  0  0  0
  -29.3310  -24.0120   20.2190 C   0  0  0  0  0  3  0  0  0  0  0  0
  -30.3150  -19.2790   21.5120 C   0  0  0  0  0  3  0  0  0  0  0  0
  -29.5860  -19.0490   19.2290 C   0  0  0  0  0  3  0  0  0  0  0  0
  -30.3250  -17.8600   21.6480 C   0  0  0  0  0  3  0  0  0  0  0  0
  -29.6130  -17.6300   19.3570 C   0  0  0  0  0  3  0  0  0  0  0  0
  -29.9610  -19.9150   20.2940 C   0  0  0  0  0  0  0  0  0  0  0  0
  -30.0060  -17.0010   20.5640 C   0  0  0  0  0  0  0  0  0  0  0  0
  -30.6230  -14.5680   20.1160 C   0  0  0  0  0  0  0  0  0  0  0  0
  -30.3120  -12.3970   18.9530 C   0  0  0  0  0  2  0  0  0  0  0  0
  -29.3030  -12.6140   17.8030 C   0  0  0  0  0  2  0  0  0  0  0  0
  -27.8550  -12.4520   18.3070 C   0  0  0  0  0  2  0  0  0  0  0  0
  -27.5860  -13.2500   19.6110 C   0  0  0  0  0  3  0  0  0  0  0  0
  -28.7020  -13.0100   20.6540 C   0  0  0  0  0  2  0  0  0  0  0  0
  -29.9860  -13.3590   20.0240 N   0  0  0  0  0  0  0  0  0  0  0  0
  -31.7190  -14.7660   19.5840 O   0  0  0  0  0  0  0  0  0  0  0  0
  -29.9350  -15.5630   20.7470 N   0  0  0  0  0  0  0  0  0  0  0  0
  -29.1450  -15.2400   21.2830 H   0  0  0  0  0  0  0  0  0  0  0  0
  -25.2360  -13.8380   20.4710 C   0  0  0  0  0  0  0  0  0  0  0  0
  -24.1840  -13.0600   20.8740 C   0  0  0  0  0  0  0  0  0  0  0  0
  -24.6360  -11.7070   20.7780 C   0  0  0  0  0  0  0  0  0  0  0  0
  -26.2600  -12.9610   20.1560 N   0  0  0  0  0  0  0  0  0  0  0  0
  -25.9070  -11.6720   20.3980 N   0  0  0  0  0  0  0  0  0  0  0  0
  -23.9120  -10.4430   20.9700 C   0  0  0  0  0  0  0  0  0  0  0  0
  -24.3560   -9.4730   21.8970 C   0  0  0  0  0  3  0  0  0  0  0  0
  -23.6340   -8.2730   22.0760 C   0  0  0  0  0  3  0  0  0  0  0  0
  -22.4560   -8.0360   21.3310 C   0  0  0  0  0  0  0  0  0  0  0  0
  -22.0320   -8.9950   20.3950 C   0  0  0  0  0  3  0  0  0  0  0  0
  -22.7530  -10.1860   20.2130 C   0  0  0  0  0  3  0  0  0  0  0  0
  -21.7040   -6.8890   21.4210 O   0  0  0  0  0  0  0  0  0  0  0  0
  -21.6170   -6.1770   22.5900 C   0  0  0  0  0  0  0  0  0  0  0  0
  -21.1160   -6.7530   23.7790 C   0  0  0  0  0  3  0  0  0  0  0  0
  -20.9790   -5.9640   24.9390 C   0  0  0  0  0  3  0  0  0  0  0  0
  -21.3310   -4.6020   24.9110 C   0  0  0  0  0  0  0  0  0  0  0  0
  -21.8250   -4.0250   23.7270 C   0  0  0  0  0  3  0  0  0  0  0  0
  -21.9640   -4.8110   22.5700 C   0  0  0  0  0  0  0  0  0  0  0  0
  -22.4200   -4.2450   21.4260 F   0  0  0  0  0  0  0  0  0  0  0  0
  -21.1900   -3.8420   26.0230 F   0  0  0  0  0  0  0  0  0  0  0  0
  -22.8070  -13.5350   21.2400 C   0  0  0  0  0  0  0  0  0  0  0  0
  -22.1290  -12.8200   22.1300 N   0  0  0  0  0  0  0  0  0  0  0  0
  -22.3450  -14.5750   20.7720 O   0  0  0  0  0  0  0  0  0  0  0  0
  -22.5170  -11.9790   22.5300 H   0  0  0  0  0  0  0  0  0  0  0  0
  -21.2090  -13.1210   22.4210 H   0  0  0  0  0  0  0  0  0  0  0  0
  -25.3980  -15.2130   20.3270 N   0  0  0  0  0  0  0  0  0  0  0  0
  -24.6410  -15.8660   20.5000 H   0  0  0  0  0  0  0  0  0  0  0  0
  -26.2310  -15.6600   19.9650 H   0  0  0  0  0  0  0  0  0  0  0  0
  -28.1360  -25.0290   20.4020 C   0  0  0  0  0  2  0  0  0  0  0  0
  -28.3890  -26.4790   20.2520 O   0  0  0  0  0  0  0  0  0  0  0  0
  -24.6420  -31.8650   23.2430 C   0  0  0  0  0  0  0  0  0  0  0  0
  -27.2690  -27.3190   20.2020 C   0  0  0  0  0  0  0  0  0  0  0  0
  -23.4490  -30.4720   21.5920 C   0  0  0  0  0  3  0  0  0  0  0  0
  -24.9070  -28.9280   20.1770 C   0  0  0  0  0  0  0  0  0  0  0  0
  -25.9910  -30.7880   21.4330 C   0  0  0  0  0  2  0  0  0  0  0  0
  -26.0720  -29.4130   20.7830 C   0  0  0  0  0  0  0  0  0  0  0  0
  -27.2570  -28.6210   20.7880 C   0  0  0  0  0  3  0  0  0  0  0  0
  -26.0820  -26.8930   19.5610 C   0  0  0  0  0  3  0  0  0  0  0  0
  -24.9130  -27.6710   19.5580 C   0  0  0  0  0  3  0  0  0  0  0  0
  -23.6700  -29.7990   20.2130 C   0  0  0  0  0  2  0  0  0  0  0  0
  -24.7120  -31.0580   22.1450 N   0  0  0  0  0  0  0  0  0  0  0  0
  -23.5540  -32.1440   23.7670 O   0  0  0  0  0  0  0  0  0  0  0  0
  -22.7780  -29.4530   22.5410 C   0  0  0  0  0  0  0  0  0  0  0  0
  -21.4520  -29.2830   22.4060 N   0  0  0  0  0  0  0  0  0  0  0  0
  -23.4490  -28.8180   23.3600 O   0  0  0  0  0  0  0  0  0  0  0  0
  -20.9700  -29.8440   21.7170 H   0  0  0  0  0  0  0  0  0  0  0  0
  -18.0570  -28.1460   22.9170 C   0  0  0  0  0  0  0  0  0  0  0  0
  -20.6220  -28.3500   23.1680 C   0  0  0  0  0  3  0  0  0  0  0  0
  -20.6910  -26.9250   22.5700 C   0  0  0  0  0  2  0  0  0  0  0  0
  -19.5730  -26.6410   21.5610 C   0  0  0  0  0  2  0  0  0  0  0  0
  -18.2000  -26.8040   22.2190 C   0  0  0  0  0  2  0  0  0  0  0  0
  -19.1950  -28.8780   23.3490 C   0  0  0  0  0  0  0  0  0  0  0  0
  -19.0070  -30.1360   23.9610 C   0  0  0  0  0  3  0  0  0  0  0  0
  -17.7150  -30.6620   24.1450 C   0  0  0  0  0  3  0  0  0  0  0  0
  -16.5910  -29.9260   23.7300 C   0  0  0  0  0  3  0  0  0  0  0  0
  -16.7640  -28.6690   23.1220 C   0  0  0  0  0  3  0  0  0  0  0  0
  -25.9200  -32.4930   23.8770 C   0  0  0  0  0  3  0  0  0  0  0  0
  -25.6050  -33.8870   24.2150 N   0  0  0  0  0  0  0  0  0  0  0  0
  -25.9130  -34.9450   23.4510 C   0  0  0  0  0  0  0  0  0  0  0  0
  -26.5630  -34.8480   22.4070 O   0  0  0  0  0  0  0  0  0  0  0  0
  -25.0240  -34.0350   25.0270 H   0  0  0  0  0  0  0  0  0  0  0  0
  -24.1560  -36.7170   23.1470 C   0  0  0  0  0  1  0  0  0  0  0  0
  -25.4250  -36.3280   23.9210 C   0  0  0  0  0  3  0  0  0  0  0  0
  -27.5710  -37.2420   24.6890 C   0  0  0  0  0  1  0  0  0  0  0  0
  -26.4420  -37.3920   23.7740 N   0  0  0  0  0  0  0  0  0  0  0  0
  -26.0290  -38.3090   23.9260 H   0  0  0  0  0  0  0  0  0  0  0  0
  -26.4280  -31.7120   25.1520 C   0  0  1  0  0  0  0  0  0  0  0  0
  -25.3270  -31.4640   26.2090 C   0  0  0  0  0  1  0  0  0  0  0  0
  -27.0190  -30.3390   24.7560 C   0  0  0  0  0  1  0  0  0  0  0  0
  -27.5710  -32.5060   25.8290 C   0  0  0  0  0  1  0  0  0  0  0  0
  1  2  1  0
  1  3  1  0
  2  5  1  0
  3  6  1  0
  5 11  1  0
  5  4  1  0
  6 51  1  0
  6  4  1  0
  7  9  1  0
  8 10  2  0
  8 11  1  0
 10 12  1  0
 11  7  2  0
 12 21  1  0
 12  9  2  0
 13 21  1  0
 14 19  1  0
 15 16  1  0
 15 14  1  0
 17 16  1  0
 17 26  1  0
 17 18  1  0
 19 13  1  0
 19 18  1  0
 20 13  2  0
 21 22  1  0
 23 24  2  0
 24 43  1  0
 25 24  1  0
 25 28  1  0
 26 27  1  0
 26 23  1  0
 27 25  2  0
 28 29  1  0
 29 30  2  0
 31 34  1  0
 31 30  1  0
 32 31  2  0
 33 32  1  0
 33 28  2  0
 34 35  1  0
 35 36  1  0
 36 37  2  0
 38 37  1  0
 38 42  1  0
 39 38  2  0
 40 35  2  0
 40 39  1  0
 41 40  1  0
 43 44  1  0
 44 47  1  0
 44 46  1  0
 45 43  2  0
 48 23  1  0
 48 49  1  0
 50 48  1  0
 52 51  1  0
 53 64  2  0
 54 52  1  0
 54 59  1  0
 55 63  1  0
 55 65  1  0
 56 62  1  0
 56 58  1  0
 57 63  1  0
 58 59  2  0
 58 57  1  0
 60 54  2  0
 61 60  1  0
 61 56  2  0
 62 55  1  0
 63 53  1  0
 65 67  2  0
 66 65  1  0
 68 66  1  0
 69 78  2  0
 69 74  1  0
 70 66  1  0
 70 74  1  0
 71 70  1  0
 72 73  1  0
 72 71  1  0
 73 69  1  0
 74 75  2  0
 75 76  1  0
 77 76  2  0
 78 77  1  0
 79 53  1  0
 79 80  1  0
 79 89  1  0
 80 83  1  0
 81 85  1  0
 81 80  1  0
 82 81  2  0
 85 84  1  0
 87 85  1  0
 87 88  1  0
 87 86  1  0
 89 92  1  1
 89 90  1  0
 91 89  1  0
M  ISO  4  13 100  21 100  51 101  52 101
M  END
>  <TORSDO>  (56) 
F 18

>  <SCORE>  (56) 
-14.472

>  <name>  (56) 
55

>  <ligand_id>  (56) 
55

>  <original_smiles>  (56) 
[H]c1c([H])c([H])c2c(c1[H])C([H])([H])C([H])([H])C([H])([H])C2([H])N([H])C(=O)C1([H])N(C(=O)C([H])(N([H])C(=O)C([H])(N([H])C([H])([H])[H])C([H])([H])[H])C(C([H])([H])[H])(C([H])([H])[H])C([H])([H])[H])C([H])([H])c2c([H])c(OC([H])([H])C3([H])C([H])([H])C([H])([H])C([H])([H])C([H])(c4c([H])c([H])c(N([H])C(=O)N5C([H])([H])C([H])([H])C([H])([H])C([H])(n6nc(-c7c([H])c([H])c(Oc8c([H])c([H])c(F)c([H])c8F)c([H])c7[H])c(C(=O)N([H])[H])c6N([H])[H])C5([H])[H])c([H])c4[H])C3([H])[H])c([H])c([H])c2C1([H])[H]

>  <smiles>  (56) 
[H]c1c([H])c([H])c2c(c1[H])C([H])([H])C([H])([H])C([H])([H])C2([H])N([H])C(=O)C1([H])N(C(=O)C([H])(N([H])C(=O)C([H])(N([H])C([H])([H])[H])C([H])([H])[H])C(C([H])([H])[H])(C([H])([H])[H])C([H])([H])[H])C([H])([H])c2c([H])c(OC([H])([H])C3([H])C([H])([H])C([H])([H])C([H])([H])C([H])(c4c([H])c([H])c(N([H])C(=O)N5C([H])([H])C([H])([H])C([H])([H])C([H])(n6nc(-c7c([H])c([H])c(Oc8c([H])c([H])c(F)c([H])c8F)c([H])c7[H])c(C(=O)N([H])[H])c6N([H])[H])C5([H])[H])c([H])c4[H])C3([H])[H])c([H])c([H])c2C1([H])[H]

$$$$
56:0:0
     RDKit          3D

 97106  0  0  1  0  0  0  0  0999 V2000
  -29.8500  -23.4000   21.5000 C   0  0  0  0  0  0  0  0  0  0  0  0
  -29.2140  -24.5440   21.0930 C   0  0  0  0  0  3  0  0  0  0  0  0
  -29.1350  -21.2030   20.4510 C   0  0  0  0  0  3  0  0  0  0  0  0
  -30.6910  -23.4680   22.7580 C   0  0  0  0  0  2  0  0  0  0  0  0
  -31.8720  -22.5490   22.4790 C   0  0  0  0  0  2  0  0  0  0  0  0
  -31.3070  -21.5180   21.5070 C   0  0  0  0  0  2  0  0  0  0  0  0
  -30.0450  -22.0870   20.9760 N   0  0  0  0  0  0  0  0  0  0  0  0
  -27.9330  -21.6690   20.1160 N   0  0  0  0  0  0  0  0  0  0  0  0
  -27.2560  -21.0490   19.7000 H   0  0  0  0  0  0  0  0  0  0  0  0
  -27.6840  -22.6180   20.3260 H   0  0  0  0  0  0  0  0  0  0  0  0
  -30.4300  -19.0950   19.6420 C   0  0  0  0  0  3  0  0  0  0  0  0
  -28.4720  -18.8470   21.0320 C   0  0  0  0  0  3  0  0  0  0  0  0
  -30.6160  -17.6770   19.6490 C   0  0  0  0  0  3  0  0  0  0  0  0
  -28.6540  -17.4430   21.0360 C   0  0  0  0  0  3  0  0  0  0  0  0
  -29.3600  -19.7140   20.3490 C   0  0  0  0  0  0  0  0  0  0  0  0
  -29.7290  -16.8220   20.3560 C   0  0  0  0  0  0  0  0  0  0  0  0
  -30.4790  -14.4360   19.7270 C   0  0  0  0  0  0  0  0  0  0  0  0
  -30.1090  -12.2730   18.5680 C   0  0  0  0  0  2  0  0  0  0  0  0
  -29.0210  -12.4880   17.4910 C   0  0  0  0  0  2  0  0  0  0  0  0
  -27.6060  -12.3410   18.0870 C   0  0  0  0  0  2  0  0  0  0  0  0
  -27.4270  -13.1450   19.4020 C   0  0  0  0  0  3  0  0  0  0  0  0
  -28.6020  -12.8740   20.3670 C   0  0  0  0  0  2  0  0  0  0  0  0
  -29.8510  -13.2240   19.6640 N   0  0  0  0  0  0  0  0  0  0  0  0
  -31.5340  -14.6660   19.1270 O   0  0  0  0  0  0  0  0  0  0  0  0
  -29.7940  -15.3780   20.4240 N   0  0  0  0  0  0  0  0  0  0  0  0
  -29.0540  -14.9660   20.9680 H   0  0  0  0  0  0  0  0  0  0  0  0
  -25.1300  -13.7630   20.3840 C   0  0  0  0  0  0  0  0  0  0  0  0
  -24.1050  -12.9950   20.8680 C   0  0  0  0  0  0  0  0  0  0  0  0
  -24.5480  -11.6410   20.7740 C   0  0  0  0  0  0  0  0  0  0  0  0
  -26.1340  -12.8760   20.0280 N   0  0  0  0  0  0  0  0  0  0  0  0
  -25.7940  -11.5950   20.3180 N   0  0  0  0  0  0  0  0  0  0  0  0
  -23.8410  -10.3820   21.0370 C   0  0  0  0  0  0  0  0  0  0  0  0
  -24.3270   -9.4430   21.9730 C   0  0  0  0  0  3  0  0  0  0  0  0
  -23.6180   -8.2470   22.2220 C   0  0  0  0  0  3  0  0  0  0  0  0
  -22.4090   -7.9830   21.5350 C   0  0  0  0  0  0  0  0  0  0  0  0
  -21.9410   -8.9110   20.5880 C   0  0  0  0  0  3  0  0  0  0  0  0
  -22.6510  -10.0970   20.3370 C   0  0  0  0  0  3  0  0  0  0  0  0
  -21.6680   -6.8380   21.6930 O   0  0  0  0  0  0  0  0  0  0  0  0
  -21.6310   -6.1630   22.8880 C   0  0  0  0  0  0  0  0  0  0  0  0
  -21.1970   -6.7830   24.0800 C   0  0  0  0  0  3  0  0  0  0  0  0
  -21.1080   -6.0340   25.2710 C   0  0  0  0  0  3  0  0  0  0  0  0
  -21.4430   -4.6660   25.2700 C   0  0  0  0  0  0  0  0  0  0  0  0
  -21.8700   -4.0460   24.0820 C   0  0  0  0  0  3  0  0  0  0  0  0
  -21.9600   -4.7920   22.8930 C   0  0  0  0  0  0  0  0  0  0  0  0
  -22.3520   -4.1860   21.7470 F   0  0  0  0  0  0  0  0  0  0  0  0
  -21.3500   -3.9440   26.4100 F   0  0  0  0  0  0  0  0  0  0  0  0
  -22.7520  -13.4800   21.3030 C   0  0  0  0  0  0  0  0  0  0  0  0
  -22.1320  -12.7920   22.2560 N   0  0  0  0  0  0  0  0  0  0  0  0
  -22.2560  -14.5020   20.8310 O   0  0  0  0  0  0  0  0  0  0  0  0
  -22.5470  -11.9640   22.6570 H   0  0  0  0  0  0  0  0  0  0  0  0
  -21.2280  -13.0980   22.5900 H   0  0  0  0  0  0  0  0  0  0  0  0
  -25.2840  -15.1340   20.1980 N   0  0  0  0  0  0  0  0  0  0  0  0
  -24.5320  -15.7880   20.3870 H   0  0  0  0  0  0  0  0  0  0  0  0
  -26.0790  -15.5660   19.7440 H   0  0  0  0  0  0  0  0  0  0  0  0
  -29.1010  -24.6330   18.5350 C   0  0  0  0  0  1  0  0  0  0  0  0
  -28.4630  -25.0730   19.8590 C   0  0  0  0  0  3  0  0  0  0  0  0
  -28.4740  -26.5370   19.8940 O   0  0  0  0  0  0  0  0  0  0  0  0
  -24.5590  -31.6090   23.0920 C   0  0  0  0  0  0  0  0  0  0  0  0
  -27.2860  -27.2630   19.8940 C   0  0  0  0  0  0  0  0  0  0  0  0
  -23.3850  -30.2410   21.4010 C   0  0  0  0  0  3  0  0  0  0  0  0
  -24.8690  -28.7660   19.9340 C   0  0  0  0  0  0  0  0  0  0  0  0
  -25.9090  -30.6350   21.2270 C   0  0  0  0  0  2  0  0  0  0  0  0
  -26.0200  -29.2830   20.5420 C   0  0  0  0  0  0  0  0  0  0  0  0
  -27.2300  -28.5420   20.5110 C   0  0  0  0  0  3  0  0  0  0  0  0
  -26.1140  -26.7750   19.2720 C   0  0  0  0  0  3  0  0  0  0  0  0
  -24.9150  -27.5160   19.2940 C   0  0  0  0  0  3  0  0  0  0  0  0
  -23.6130  -29.6070   20.0020 C   0  0  0  0  0  2  0  0  0  0  0  0
  -24.6360  -30.8430   21.9660 N   0  0  0  0  0  0  0  0  0  0  0  0
  -23.4710  -31.8460   23.6340 O   0  0  0  0  0  0  0  0  0  0  0  0
  -22.7450  -29.1800   22.3270 C   0  0  0  0  0  0  0  0  0  0  0  0
  -21.4230  -28.9810   22.1910 N   0  0  0  0  0  0  0  0  0  0  0  0
  -23.4350  -28.5410   23.1260 O   0  0  0  0  0  0  0  0  0  0  0  0
  -20.9250  -29.5510   21.5210 H   0  0  0  0  0  0  0  0  0  0  0  0
  -18.0650  -27.7270   22.6510 C   0  0  0  0  0  0  0  0  0  0  0  0
  -20.6190  -28.0050   22.9270 C   0  0  0  0  0  3  0  0  0  0  0  0
  -20.7380  -26.5980   22.2970 C   0  0  0  0  0  2  0  0  0  0  0  0
  -19.6380  -26.3020   21.2740 C   0  0  0  0  0  2  0  0  0  0  0  0
  -18.2550  -26.4060   21.9260 C   0  0  0  0  0  2  0  0  0  0  0  0
  -19.1750  -28.4850   23.1080 C   0  0  0  0  0  0  0  0  0  0  0  0
  -18.9420  -29.7230   23.7460 C   0  0  0  0  0  3  0  0  0  0  0  0
  -17.6330  -30.2030   23.9330 C   0  0  0  0  0  3  0  0  0  0  0  0
  -16.5370  -29.4410   23.4930 C   0  0  0  0  0  3  0  0  0  0  0  0
  -16.7540  -28.2050   22.8580 C   0  0  0  0  0  3  0  0  0  0  0  0
  -25.8320  -32.2440   23.7370 C   0  0  0  0  0  3  0  0  0  0  0  0
  -25.4980  -33.6260   24.1080 N   0  0  0  0  0  0  0  0  0  0  0  0
  -25.8200  -34.7060   23.3840 C   0  0  0  0  0  0  0  0  0  0  0  0
  -26.4990  -34.6450   22.3550 O   0  0  0  0  0  0  0  0  0  0  0  0
  -24.8950  -33.7470   24.9090 H   0  0  0  0  0  0  0  0  0  0  0  0
  -24.0600  -36.4760   23.0780 C   0  0  0  0  0  1  0  0  0  0  0  0
  -25.3080  -36.0730   23.8800 C   0  0  0  0  0  3  0  0  0  0  0  0
  -27.4230  -36.9750   24.7410 C   0  0  0  0  0  1  0  0  0  0  0  0
  -26.3220  -37.1470   23.7970 N   0  0  0  0  0  0  0  0  0  0  0  0
  -25.8980  -38.0550   23.9670 H   0  0  0  0  0  0  0  0  0  0  0  0
  -26.3580  -31.4430   24.9910 C   0  0  1  0  0  0  0  0  0  0  0  0
  -25.2650  -31.1490   26.0450 C   0  0  0  0  0  1  0  0  0  0  0  0
  -26.9700  -30.0900   24.5560 C   0  0  0  0  0  1  0  0  0  0  0  0
  -27.4890  -32.2380   25.6840 C   0  0  0  0  0  1  0  0  0  0  0  0
  1  4  1  0
  2  1  2  0
  3  8  1  0
  3  7  1  0
  5  4  1  0
  6  5  1  0
  7  1  1  0
  7  6  1  0
  8 10  1  0
  9  8  1  0
 11 13  2  0
 11 15  1  0
 12 14  1  0
 13 16  1  0
 15  3  1  0
 15 12  2  0
 16 25  1  0
 16 14  2  0
 17 25  1  0
 18 23  1  0
 19 20  1  0
 19 18  1  0
 21 20  1  0
 21 30  1  0
 21 22  1  0
 23 17  1  0
 23 22  1  0
 24 17  2  0
 25 26  1  0
 27 28  2  0
 28 47  1  0
 29 28  1  0
 29 32  1  0
 30 31  1  0
 30 27  1  0
 31 29  2  0
 32 33  1  0
 33 34  2  0
 35 38  1  0
 35 34  1  0
 36 35  2  0
 37 36  1  0
 37 32  2  0
 38 39  1  0
 39 44  2  0
 39 40  1  0
 40 41  2  0
 42 41  1  0
 42 46  1  0
 43 42  2  0
 44 43  1  0
 45 44  1  0
 47 48  1  0
 48 51  1  0
 48 50  1  0
 49 47  2  0
 52 27  1  0
 52 53  1  0
 54 52  1  0
 56 55  1  0
 56 57  1  0
 56  2  1  0
 58 69  2  0
 59 57  1  0
 59 64  1  0
 60 68  1  0
 60 70  1  0
 61 67  1  0
 61 63  1  0
 62 68  1  0
 63 62  1  0
 64 63  2  0
 65 66  1  0
 65 59  2  0
 66 61  2  0
 67 60  1  0
 68 58  1  0
 70 72  2  0
 71 70  1  0
 73 71  1  0
 74 83  2  0
 74 79  1  0
 75 71  1  0
 75 79  1  0
 76 75  1  0
 77 78  1  0
 77 76  1  0
 78 74  1  0
 79 80  2  0
 80 81  1  0
 82 81  2  0
 83 82  1  0
 84 58  1  0
 84 85  1  0
 84 94  1  0
 85 88  1  0
 86 90  1  0
 86 85  1  0
 87 86  2  0
 90 89  1  0
 92 90  1  0
 92 93  1  0
 92 91  1  0
 94 97  1  1
 94 95  1  0
 96 94  1  0
M  ISO  4  17 100  25 100  56 101  57 101
M  END
>  <TORSDO>  (57) 
F 18

>  <SCORE>  (57) 
-11.464

>  <name>  (57) 
56

>  <ligand_id>  (57) 
56

>  <original_smiles>  (57) 
[H]C(=C1N(C(c2c([H])c([H])c(N([H])C(=O)N3C([H])([H])C([H])([H])C([H])([H])C([H])(n4nc(-c5c([H])c([H])c(Oc6c([H])c([H])c(F)c([H])c6F)c([H])c5[H])c(C(=O)N([H])[H])c4N([H])[H])C3([H])[H])c([H])c2[H])=[N+]([H])[H])C([H])([H])C([H])([H])C1([H])[H])C([H])(Oc1c([H])c([H])c2c(c1[H])C([H])([H])N(C(=O)C([H])(N([H])C(=O)C([H])(N([H])C([H])([H])[H])C([H])([H])[H])C(C([H])([H])[H])(C([H])([H])[H])C([H])([H])[H])C([H])(C(=O)N([H])C1([H])c3c([H])c([H])c([H])c([H])c3C([H])([H])C([H])([H])C1([H])[H])C2([H])[H])C([H])([H])[H]

>  <smiles>  (57) 
[H]C(=C1N(C(c2c([H])c([H])c(N([H])C(=O)N3C([H])([H])C([H])([H])C([H])([H])C([H])(n4nc(-c5c([H])c([H])c(Oc6c([H])c([H])c(F)c([H])c6F)c([H])c5[H])c(C(=O)N([H])[H])c4N([H])[H])C3([H])[H])c([H])c2[H])=[N+]([H])[H])C([H])([H])C([H])([H])C1([H])[H])C([H])(Oc1c([H])c([H])c2c(c1[H])C([H])([H])N(C(=O)C([H])(N([H])C(=O)C([H])(N([H])C([H])([H])[H])C([H])([H])[H])C(C([H])([H])[H])(C([H])([H])[H])C([H])([H])[H])C([H])(C(=O)N([H])C1([H])c3c([H])c([H])c([H])c([H])c3C([H])([H])C([H])([H])C1([H])[H])C2([H])[H])C([H])([H])[H]

$$$$
57:0:0
     RDKit          3D

100108  0  0  1  0  0  0  0  0999 V2000
  -30.7130  -20.4700   19.1720 C   0  0  0  0  0  0  0  0  0  0  0  0
  -29.6170  -22.5560   19.9720 C   0  0  0  0  0  0  0  0  0  0  0  0
  -29.7130  -21.1290   19.7930 N   0  0  0  0  0  0  0  0  0  0  0  0
  -31.8050  -21.0920   18.7140 N   0  0  0  0  0  4  0  0  0  0  0  0
  -30.4400  -23.3390   19.4820 O   0  0  0  0  0  0  0  0  0  0  0  0
  -28.9970  -20.5020   20.1310 H   0  0  0  0  0  0  0  0  0  0  0  0
  -31.8720  -22.0960   18.8110 H   0  0  0  0  0  0  0  0  0  0  0  0
  -32.5680  -20.5610   18.3200 H   0  0  0  0  0  0  0  0  0  0  0  0
  -30.3630  -18.0890   19.9380 C   0  0  0  0  0  3  0  0  0  0  0  0
  -31.0700  -18.6090   17.6410 C   0  0  0  0  0  3  0  0  0  0  0  0
  -31.0370  -16.3240   18.4000 C   0  0  0  0  0  3  0  0  0  0  0  0
  -30.6620  -19.0340   18.9240 C   0  0  0  0  0  0  0  0  0  0  0  0
  -30.5970  -16.7140   19.6900 C   0  0  0  0  0  0  0  0  0  0  0  0
  -31.2660  -17.2420   17.3660 C   0  0  0  0  0  0  0  0  0  0  0  0
  -31.1850  -14.6050   20.7200 C   0  0  0  0  0  0  0  0  0  0  0  0
  -30.9110  -12.3940   19.7160 C   0  0  0  0  0  2  0  0  0  0  0  0
  -30.0540  -12.5030   18.4350 C   0  0  0  0  0  2  0  0  0  0  0  0
  -28.5490  -12.4920   18.7590 C   0  0  0  0  0  2  0  0  0  0  0  0
  -28.1510  -13.4040   19.9510 C   0  0  0  0  0  3  0  0  0  0  0  0
  -29.1190  -13.2320   21.1450 C   0  0  0  0  0  2  0  0  0  0  0  0
  -30.4870  -13.4460   20.6520 N   0  0  0  0  0  0  0  0  0  0  0  0
  -32.3930  -14.6840   20.4910 O   0  0  0  0  0  0  0  0  0  0  0  0
  -30.4310  -15.7230   20.7090 N   0  0  0  0  0  0  0  0  0  0  0  0
  -29.4960  -15.6210   21.0690 H   0  0  0  0  0  0  0  0  0  0  0  0
  -25.7380  -14.0990   20.5000 C   0  0  0  0  0  0  0  0  0  0  0  0
  -24.6240  -13.3670   20.8030 C   0  0  0  0  0  0  0  0  0  0  0  0
  -25.0400  -11.9990   20.8130 C   0  0  0  0  0  0  0  0  0  0  0  0
  -26.7650  -13.1810   20.3460 N   0  0  0  0  0  0  0  0  0  0  0  0
  -26.3460  -11.9150   20.5960 N   0  0  0  0  0  0  0  0  0  0  0  0
  -24.2640  -10.7640   20.9640 C   0  0  0  0  0  0  0  0  0  0  0  0
  -24.6100   -9.7880   21.9220 C   0  0  0  0  0  3  0  0  0  0  0  0
  -23.8400   -8.6140   22.0570 C   0  0  0  0  0  3  0  0  0  0  0  0
  -22.7090   -8.4070   21.2320 C   0  0  0  0  0  0  0  0  0  0  0  0
  -22.3810   -9.3730   20.2640 C   0  0  0  0  0  3  0  0  0  0  0  0
  -23.1530  -10.5400   20.1280 C   0  0  0  0  0  3  0  0  0  0  0  0
  -21.9170   -7.2860   21.2750 O   0  0  0  0  0  0  0  0  0  0  0  0
  -21.7610   -6.5580   22.4270 C   0  0  0  0  0  0  0  0  0  0  0  0
  -21.2630   -7.1390   23.6130 C   0  0  0  0  0  3  0  0  0  0  0  0
  -21.0500   -6.3390   24.7520 C   0  0  0  0  0  3  0  0  0  0  0  0
  -21.3290   -4.9600   24.7080 C   0  0  0  0  0  0  0  0  0  0  0  0
  -21.8230   -4.3790   23.5280 C   0  0  0  0  0  3  0  0  0  0  0  0
  -22.0360   -5.1760   22.3890 C   0  0  0  0  0  0  0  0  0  0  0  0
  -22.4890   -4.6070   21.2460 F   0  0  0  0  0  0  0  0  0  0  0  0
  -21.1210   -4.1890   25.8010 F   0  0  0  0  0  0  0  0  0  0  0  0
  -23.2280  -13.8910   20.9780 C   0  0  0  0  0  0  0  0  0  0  0  0
  -22.4260  -13.2400   21.8120 N   0  0  0  0  0  0  0  0  0  0  0  0
  -22.8540  -14.9150   20.4020 O   0  0  0  0  0  0  0  0  0  0  0  0
  -22.7370  -12.4130   22.2990 H   0  0  0  0  0  0  0  0  0  0  0  0
  -21.4870  -13.5770   21.9670 H   0  0  0  0  0  0  0  0  0  0  0  0
  -25.9560  -15.4640   20.3210 N   0  0  0  0  0  0  0  0  0  0  0  0
  -25.1940  -16.1330   20.3720 H   0  0  0  0  0  0  0  0  0  0  0  0
  -26.8300  -15.8850   20.0350 H   0  0  0  0  0  0  0  0  0  0  0  0
  -32.1400  -17.6650   15.1710 C   0  0  0  0  0  1  0  0  0  0  0  0
  -31.7090  -16.7410   16.1600 O   0  0  0  0  0  0  0  0  0  0  0  0
  -28.4120  -23.0380   20.7880 C   0  0  0  0  0  2  0  0  0  0  0  0
  -27.8580  -24.4130   20.3490 C   0  0  0  0  0  2  0  0  0  0  0  0
  -27.8300  -25.9630   22.4090 C   0  0  0  0  0  1  0  0  0  0  0  0
  -29.9580  -25.7660   21.1100 C   0  0  0  0  0  1  0  0  0  0  0  0
  -28.4230  -25.7010   21.0070 C   0  0  1  0  0  0  0  0  0  0  0  0
  -28.1370  -26.7700   20.1080 O   0  0  0  0  0  0  0  0  0  0  0  0
  -24.5120  -31.9820   23.2660 C   0  0  0  0  0  0  0  0  0  0  0  0
  -26.9450  -27.4430   20.2060 C   0  0  0  0  0  0  0  0  0  0  0  0
  -23.2150  -30.5920   21.6770 C   0  0  0  0  0  3  0  0  0  0  0  0
  -24.5820  -28.9770   20.2540 C   0  0  0  0  0  0  0  0  0  0  0  0
  -25.7340  -30.8820   21.3970 C   0  0  0  0  0  2  0  0  0  0  0  0
  -25.7630  -29.4920   20.8000 C   0  0  0  0  0  0  0  0  0  0  0  0
  -26.9480  -28.7320   20.7740 C   0  0  0  0  0  3  0  0  0  0  0  0
  -25.7510  -26.9200   19.6630 C   0  0  0  0  0  3  0  0  0  0  0  0
  -24.5690  -27.6870   19.6840 C   0  0  0  0  0  3  0  0  0  0  0  0
  -23.3670  -29.8740   20.3090 C   0  0  0  0  0  2  0  0  0  0  0  0
  -24.5080  -31.1650   22.1740 N   0  0  0  0  0  0  0  0  0  0  0  0
  -23.4540  -32.2970   23.8290 O   0  0  0  0  0  0  0  0  0  0  0  0
  -22.5560  -29.6090   22.6700 C   0  0  0  0  0  0  0  0  0  0  0  0
  -21.2360  -29.4090   22.5250 N   0  0  0  0  0  0  0  0  0  0  0  0
  -23.2280  -29.0250   23.5240 O   0  0  0  0  0  0  0  0  0  0  0  0
  -20.7550  -29.9310   21.8050 H   0  0  0  0  0  0  0  0  0  0  0  0
  -17.8730  -28.1800   22.9660 C   0  0  0  0  0  0  0  0  0  0  0  0
  -20.4120  -28.5010   23.3200 C   0  0  0  0  0  3  0  0  0  0  0  0
  -20.5650  -27.0420   22.8300 C   0  0  0  0  0  2  0  0  0  0  0  0
  -19.5060  -26.6410   21.7970 C   0  0  0  0  0  2  0  0  0  0  0  0
  -18.0980  -26.7970   22.3780 C   0  0  0  0  0  2  0  0  0  0  0  0
  -18.9620  -28.9860   23.3950 C   0  0  0  0  0  0  0  0  0  0  0  0
  -18.6990  -30.2790   23.8960 C   0  0  0  0  0  3  0  0  0  0  0  0
  -17.3810  -30.7680   23.9810 C   0  0  0  0  0  3  0  0  0  0  0  0
  -16.3060  -29.9570   23.5740 C   0  0  0  0  0  3  0  0  0  0  0  0
  -16.5530  -28.6660   23.0740 C   0  0  0  0  0  3  0  0  0  0  0  0
  -25.8380  -32.5740   23.8440 C   0  0  0  0  0  3  0  0  0  0  0  0
  -25.5930  -33.9810   24.1830 N   0  0  0  0  0  0  0  0  0  0  0  0
  -25.9300  -35.0170   23.4070 C   0  0  0  0  0  0  0  0  0  0  0  0
  -26.5640  -34.8900   22.3550 O   0  0  0  0  0  0  0  0  0  0  0  0
  -25.0550  -34.1590   25.0170 H   0  0  0  0  0  0  0  0  0  0  0  0
  -24.2580  -36.8630   23.0740 C   0  0  0  0  0  1  0  0  0  0  0  0
  -25.4940  -36.4210   23.8730 C   0  0  0  0  0  3  0  0  0  0  0  0
  -27.6610  -37.2340   24.6860 C   0  0  0  0  0  1  0  0  0  0  0  0
  -26.5580  -37.4410   23.7520 N   0  0  0  0  0  0  0  0  0  0  0  0
  -26.1830  -38.3730   23.9100 H   0  0  0  0  0  0  0  0  0  0  0  0
  -26.3760  -31.7830   25.0980 C   0  0  1  0  0  0  0  0  0  0  0  0
  -25.3130  -31.5620   26.1990 C   0  0  0  0  0  1  0  0  0  0  0  0
  -26.9120  -30.3970   24.6670 C   0  0  0  0  0  1  0  0  0  0  0  0
  -27.5640  -32.5450   25.7340 C   0  0  0  0  0  1  0  0  0  0  0  0
  1  3  1  0
  2 55  1  0
  3  2  1  0
  3  6  1  0
  4  7  1  0
  4  1  2  0
  5  2  2  0
  8  4  1  0
 10 12  1  0
 11 13  2  0
 12  1  1  0
 12  9  2  0
 13  9  1  0
 13 23  1  0
 14 10  2  0
 14 11  1  0
 16 21  1  0
 17 18  1  0
 17 16  1  0
 19 18  1  0
 19 28  1  0
 19 20  1  0
 21 15  1  0
 21 20  1  0
 22 15  2  0
 23 15  1  0
 23 24  1  0
 25 26  2  0
 26 27  1  0
 26 45  1  0
 27 30  1  0
 28 25  1  0
 28 29  1  0
 29 27  2  0
 30 31  1  0
 31 32  2  0
 33 36  1  0
 33 32  1  0
 34 33  2  0
 35 34  1  0
 35 30  2  0
 36 37  1  0
 37 38  1  0
 38 39  2  0
 40 39  1  0
 40 44  1  0
 41 40  2  0
 42 37  2  0
 42 41  1  0
 43 42  1  0
 45 46  1  0
 46 49  1  0
 46 48  1  0
 47 45  2  0
 50 51  1  0
 50 25  1  0
 52 50  1  0
 53 54  1  0
 54 14  1  0
 56 55  1  0
 56 59  1  0
 59 58  1  1
 59 57  1  0
 60 62  1  0
 60 59  1  0
 61 72  2  0
 62 67  1  0
 63 71  1  0
 63 73  1  0
 64 70  1  0
 64 66  1  0
 65 71  1  0
 66 65  1  0
 67 66  2  0
 68 69  1  0
 68 62  2  0
 69 64  2  0
 70 63  1  0
 71 61  1  0
 73 75  2  0
 74 73  1  0
 76 74  1  0
 77 86  2  0
 77 82  1  0
 78 74  1  0
 78 82  1  0
 79 78  1  0
 80 81  1  0
 80 79  1  0
 81 77  1  0
 82 83  2  0
 83 84  1  0
 85 84  2  0
 86 85  1  0
 87 61  1  0
 87 88  1  0
 87 97  1  0
 88 91  1  0
 89 93  1  0
 89 88  1  0
 90 89  2  0
 93 92  1  0
 95 93  1  0
 95 96  1  0
 95 94  1  0
 97100  1  1
 97 98  1  0
 99 97  1  0
M  ISO  4  15 100  23 100  59 101  60 101
M  END
>  <TORSDO>  (58) 
F 21

>  <SCORE>  (58) 
-12.975

>  <name>  (58) 
57

>  <ligand_id>  (58) 
57

>  <original_smiles>  (58) 
[H]c1c([H])c([H])c2c(c1[H])C([H])([H])C([H])([H])C([H])([H])C2([H])N([H])C(=O)C1([H])N(C(=O)C([H])(N([H])C(=O)C([H])(N([H])C([H])([H])[H])C([H])([H])[H])C(C([H])([H])[H])(C([H])([H])[H])C([H])([H])[H])C([H])([H])c2c([H])c(OC(C([H])([H])[H])(C([H])([H])[H])C([H])([H])C([H])([H])C(=O)N([H])C(c3c([H])c(OC([H])([H])[H])c([H])c(N([H])C(=O)N4C([H])([H])C([H])([H])C([H])([H])C([H])(n5nc(-c6c([H])c([H])c(Oc7c([H])c([H])c(F)c([H])c7F)c([H])c6[H])c(C(=O)N([H])[H])c5N([H])[H])C4([H])[H])c3[H])=[N+]([H])[H])c([H])c([H])c2C1([H])[H]

>  <smiles>  (58) 
[H]c1c([H])c([H])c2c(c1[H])C([H])([H])C([H])([H])C([H])([H])C2([H])N([H])C(=O)C1([H])N(C(=O)C([H])(N([H])C(=O)C([H])(N([H])C([H])([H])[H])C([H])([H])[H])C(C([H])([H])[H])(C([H])([H])[H])C([H])([H])[H])C([H])([H])c2c([H])c(OC(C([H])([H])[H])(C([H])([H])[H])C([H])([H])C([H])([H])C(=O)N([H])C(c3c([H])c(OC([H])([H])[H])c([H])c(N([H])C(=O)N4C([H])([H])C([H])([H])C([H])([H])C([H])(n5nc(-c6c([H])c([H])c(Oc7c([H])c([H])c(F)c([H])c7F)c([H])c6[H])c(C(=O)N([H])[H])c5N([H])[H])C4([H])[H])c3[H])=[N+]([H])[H])c([H])c([H])c2C1([H])[H]

$$$$
58:0:0
     RDKit          3D

 93102  0  0  1  0  0  0  0  0999 V2000
  -30.2870  -23.9230   20.8000 C   0  0  0  0  0  3  0  0  0  0  0  0
  -29.0070  -23.6820   20.4730 C   0  0  0  0  0  0  0  0  0  0  0  0
  -31.2750  -22.8330   21.2150 C   0  0  0  0  0  2  0  0  0  0  0  0
  -28.5260  -22.1630   20.5040 C   0  0  0  0  0  2  0  0  0  0  0  0
  -30.6320  -21.4880   21.6450 C   0  0  0  0  0  2  0  0  0  0  0  0
  -29.5490  -21.0650   20.7590 N   0  0  0  0  0  0  0  0  0  0  0  0
  -29.7950  -18.4490   21.0930 C   0  0  0  0  0  3  0  0  0  0  0  0
  -29.5700  -19.6670   20.2750 C   0  0  0  0  0  0  0  0  0  0  0  0
  -29.4650  -19.2950   18.9520 C   0  0  0  0  0  0  0  0  0  0  0  0
  -29.8650  -17.2060   20.4200 C   0  0  0  0  0  0  0  0  0  0  0  0
  -29.6560  -17.5540   18.7210 S   0  0  0  0  0  0  0  0  0  0  0  0
  -30.6070  -14.7710   20.3750 C   0  0  0  0  0  0  0  0  0  0  0  0
  -30.3950  -12.4910   19.3590 C   0  0  0  0  0  2  0  0  0  0  0  0
  -29.4560  -12.5610   18.1320 C   0  0  0  0  0  2  0  0  0  0  0  0
  -27.9870  -12.3850   18.5570 C   0  0  0  0  0  2  0  0  0  0  0  0
  -27.6130  -13.2760   19.7710 C   0  0  0  0  0  3  0  0  0  0  0  0
  -28.6690  -13.1900   20.8960 C   0  0  0  0  0  2  0  0  0  0  0  0
  -29.9760  -13.5410   20.3230 N   0  0  0  0  0  0  0  0  0  0  0  0
  -31.7470  -14.8890   19.9150 O   0  0  0  0  0  0  0  0  0  0  0  0
  -29.9240  -15.8720   20.8780 N   0  0  0  0  0  0  0  0  0  0  0  0
  -29.1630  -15.6130   21.4870 H   0  0  0  0  0  0  0  0  0  0  0  0
  -25.2220  -13.8700   20.4890 C   0  0  0  0  0  0  0  0  0  0  0  0
  -24.1560  -13.0990   20.8630 C   0  0  0  0  0  0  0  0  0  0  0  0
  -24.6190  -11.7470   20.8390 C   0  0  0  0  0  0  0  0  0  0  0  0
  -26.2670  -12.9890   20.2580 N   0  0  0  0  0  0  0  0  0  0  0  0
  -25.9090  -11.7070   20.5300 N   0  0  0  0  0  0  0  0  0  0  0  0
  -23.8920  -10.4880   21.0360 C   0  0  0  0  0  0  0  0  0  0  0  0
  -24.3350   -9.5140   21.9580 C   0  0  0  0  0  3  0  0  0  0  0  0
  -23.6080   -8.3170   22.1420 C   0  0  0  0  0  3  0  0  0  0  0  0
  -22.4240   -8.0870   21.4030 C   0  0  0  0  0  0  0  0  0  0  0  0
  -22.0000   -9.0470   20.4680 C   0  0  0  0  0  3  0  0  0  0  0  0
  -22.7270  -10.2360   20.2820 C   0  0  0  0  0  3  0  0  0  0  0  0
  -21.6670   -6.9440   21.4990 O   0  0  0  0  0  0  0  0  0  0  0  0
  -21.6450   -6.1880   22.6440 C   0  0  0  0  0  0  0  0  0  0  0  0
  -21.2580   -6.7330   23.8880 C   0  0  0  0  0  3  0  0  0  0  0  0
  -21.1810   -5.9050   25.0250 C   0  0  0  0  0  3  0  0  0  0  0  0
  -21.4770   -4.5340   24.9200 C   0  0  0  0  0  0  0  0  0  0  0  0
  -21.8550   -3.9870   23.6830 C   0  0  0  0  0  3  0  0  0  0  0  0
  -21.9360   -4.8120   22.5460 C   0  0  0  0  0  0  0  0  0  0  0  0
  -22.2810   -4.2750   21.3510 F   0  0  0  0  0  0  0  0  0  0  0  0
  -21.3950   -3.7370   26.0110 F   0  0  0  0  0  0  0  0  0  0  0  0
  -22.7590  -13.5790   21.1340 C   0  0  0  0  0  0  0  0  0  0  0  0
  -22.0290  -12.8920   22.0050 N   0  0  0  0  0  0  0  0  0  0  0  0
  -22.3230  -14.6000   20.6060 O   0  0  0  0  0  0  0  0  0  0  0  0
  -22.3940  -12.0690   22.4610 H   0  0  0  0  0  0  0  0  0  0  0  0
  -21.0910  -13.1970   22.2230 H   0  0  0  0  0  0  0  0  0  0  0  0
  -25.3860  -15.2420   20.3080 N   0  0  0  0  0  0  0  0  0  0  0  0
  -24.6170  -15.8940   20.4180 H   0  0  0  0  0  0  0  0  0  0  0  0
  -26.2330  -15.6870   19.9770 H   0  0  0  0  0  0  0  0  0  0  0  0
  -30.4160  -20.1540   16.7590 C   0  0  0  0  0  1  0  0  0  0  0  0
  -29.2490  -20.1660   17.7490 C   0  0  0  0  0  2  0  0  0  0  0  0
  -28.0060  -24.8500   20.0280 C   0  0  0  0  0  2  0  0  0  0  0  0
  -28.2730  -26.3230   20.2800 O   0  0  0  0  0  0  0  0  0  0  0  0
  -24.6110  -31.8790   23.2430 C   0  0  0  0  0  0  0  0  0  0  0  0
  -27.1880  -27.2440   20.2000 C   0  0  0  0  0  0  0  0  0  0  0  0
  -23.3990  -30.4830   21.6100 C   0  0  0  0  0  3  0  0  0  0  0  0
  -24.8370  -28.9180   20.1830 C   0  0  0  0  0  0  0  0  0  0  0  0
  -25.9470  -30.7720   21.4260 C   0  0  0  0  0  2  0  0  0  0  0  0
  -26.0170  -29.3880   20.7770 C   0  0  0  0  0  0  0  0  0  0  0  0
  -27.1950  -28.5660   20.7710 C   0  0  0  0  0  3  0  0  0  0  0  0
  -25.9810  -26.8530   19.5720 C   0  0  0  0  0  3  0  0  0  0  0  0
  -24.8260  -27.6590   19.5700 C   0  0  0  0  0  3  0  0  0  0  0  0
  -23.6080  -29.8070   20.2310 C   0  0  0  0  0  2  0  0  0  0  0  0
  -24.6710  -31.0650   22.1470 N   0  0  0  0  0  0  0  0  0  0  0  0
  -23.5280  -32.1640   23.7780 O   0  0  0  0  0  0  0  0  0  0  0  0
  -22.7300  -29.4730   22.5750 C   0  0  0  0  0  0  0  0  0  0  0  0
  -21.4030  -29.3020   22.4510 N   0  0  0  0  0  0  0  0  0  0  0  0
  -23.4060  -28.8470   23.3950 O   0  0  0  0  0  0  0  0  0  0  0  0
  -20.9170  -29.8580   21.7610 H   0  0  0  0  0  0  0  0  0  0  0  0
  -18.0220  -28.1080   22.9620 C   0  0  0  0  0  0  0  0  0  0  0  0
  -20.5820  -28.3680   23.2260 C   0  0  0  0  0  3  0  0  0  0  0  0
  -20.6820  -26.9340   22.6580 C   0  0  0  0  0  2  0  0  0  0  0  0
  -19.5780  -26.6070   21.6480 C   0  0  0  0  0  2  0  0  0  0  0  0
  -18.1970  -26.7560   22.2920 C   0  0  0  0  0  2  0  0  0  0  0  0
  -19.1420  -28.8720   23.3870 C   0  0  0  0  0  0  0  0  0  0  0  0
  -18.9240  -30.1360   23.9750 C   0  0  0  0  0  3  0  0  0  0  0  0
  -17.6200  -30.6380   24.1420 C   0  0  0  0  0  3  0  0  0  0  0  0
  -16.5150  -29.8720   23.7310 C   0  0  0  0  0  3  0  0  0  0  0  0
  -16.7170  -28.6090   23.1470 C   0  0  0  0  0  3  0  0  0  0  0  0
  -25.8950  -32.5090   23.8630 C   0  0  0  0  0  3  0  0  0  0  0  0
  -26.4140  -31.7380   25.1380 C   0  0  1  0  0  0  0  0  0  0  0  0
  -25.3240  -31.5100   26.2110 C   0  0  0  0  0  1  0  0  0  0  0  0
  -26.9910  -30.3550   24.7520 C   0  0  0  0  0  1  0  0  0  0  0  0
  -27.5700  -32.5300   25.7940 C   0  0  0  0  0  1  0  0  0  0  0  0
  -25.5860  -33.9070   24.1970 N   0  0  0  0  0  0  0  0  0  0  0  0
  -25.9070  -34.9610   23.4360 C   0  0  0  0  0  0  0  0  0  0  0  0
  -26.5650  -34.8610   22.3960 O   0  0  0  0  0  0  0  0  0  0  0  0
  -24.9970  -34.0590   25.0020 H   0  0  0  0  0  0  0  0  0  0  0  0
  -24.1670  -36.7520   23.1210 C   0  0  0  0  0  1  0  0  0  0  0  0
  -25.4270  -36.3500   23.9050 C   0  0  0  0  0  3  0  0  0  0  0  0
  -27.5800  -37.2360   24.6850 C   0  0  0  0  0  1  0  0  0  0  0  0
  -26.4540  -37.4060   23.7700 N   0  0  0  0  0  0  0  0  0  0  0  0
  -26.0470  -38.3230   23.9320 H   0  0  0  0  0  0  0  0  0  0  0  0
  1  3  1  0
  2  4  1  0
  2  1  2  0
  3  5  1  0
  4  6  1  0
  6  5  1  0
  8  6  1  0
  8  7  1  0
  9  8  2  0
 10 20  1  0
 10  7  2  0
 11  9  1  0
 11 10  1  0
 12 20  1  0
 13 18  1  0
 14 15  1  0
 14 13  1  0
 16 15  1  0
 16 25  1  0
 16 17  1  0
 18 12  1  0
 18 17  1  0
 19 12  2  0
 20 21  1  0
 22 23  2  0
 23 42  1  0
 24 23  1  0
 24 27  1  0
 25 22  1  0
 25 26  1  0
 26 24  2  0
 27 28  1  0
 28 29  2  0
 30 33  1  0
 30 29  1  0
 31 30  2  0
 32 31  1  0
 32 27  2  0
 33 34  1  0
 34 35  1  0
 35 36  2  0
 37 36  1  0
 37 41  1  0
 38 37  2  0
 39 34  2  0
 39 38  1  0
 40 39  1  0
 42 43  1  0
 43 46  1  0
 43 45  1  0
 44 42  2  0
 47 48  1  0
 47 22  1  0
 49 47  1  0
 50 51  1  0
 51  9  1  0
 52 53  1  0
 52  2  1  0
 54 65  2  0
 55 53  1  0
 55 60  1  0
 56 64  1  0
 56 66  1  0
 57 63  1  0
 57 59  1  0
 58 64  1  0
 59 58  1  0
 60 59  2  0
 61 55  2  0
 62 61  1  0
 62 57  2  0
 63 56  1  0
 64 54  1  0
 66 68  2  0
 67 66  1  0
 69 67  1  0
 70 79  2  0
 70 75  1  0
 71 67  1  0
 71 75  1  0
 72 71  1  0
 73 74  1  0
 73 72  1  0
 74 70  1  0
 75 76  2  0
 76 77  1  0
 78 77  2  0
 79 78  1  0
 80 54  1  0
 80 85  1  0
 80 81  1  0
 81 84  1  1
 81 82  1  0
 83 81  1  0
 85 88  1  0
 86 90  1  0
 86 85  1  0
 87 86  2  0
 90 89  1  0
 92 90  1  0
 92 93  1  0
 92 91  1  0
M  ISO  4  12 100  20 100  52 101  53 101
M  END
>  <TORSDO>  (59) 
F 19

>  <SCORE>  (59) 
-14.309

>  <name>  (59) 
58

>  <ligand_id>  (59) 
58

>  <original_smiles>  (59) 
[H]C1=C(C([H])([H])Oc2c([H])c([H])c3c(c2[H])C([H])([H])N(C(=O)C([H])(N([H])C(=O)C([H])(N([H])C([H])([H])[H])C([H])([H])[H])C(C([H])([H])[H])(C([H])([H])[H])C([H])([H])[H])C([H])(C(=O)N([H])C2([H])c4c([H])c([H])c([H])c([H])c4C([H])([H])C([H])([H])C2([H])[H])C3([H])[H])C([H])([H])N(c2c(C([H])([H])C([H])([H])[H])sc(N([H])C(=O)N3C([H])([H])C([H])([H])C([H])([H])C([H])(n4nc(-c5c([H])c([H])c(Oc6c([H])c([H])c(F)c([H])c6F)c([H])c5[H])c(C(=O)N([H])[H])c4N([H])[H])C3([H])[H])c2[H])C([H])([H])C1([H])[H]

>  <smiles>  (59) 
[H]C1=C(C([H])([H])Oc2c([H])c([H])c3c(c2[H])C([H])([H])N(C(=O)C([H])(N([H])C(=O)C([H])(N([H])C([H])([H])[H])C([H])([H])[H])C(C([H])([H])[H])(C([H])([H])[H])C([H])([H])[H])C([H])(C(=O)N([H])C2([H])c4c([H])c([H])c([H])c([H])c4C([H])([H])C([H])([H])C2([H])[H])C3([H])[H])C([H])([H])N(c2c(C([H])([H])C([H])([H])[H])sc(N([H])C(=O)N3C([H])([H])C([H])([H])C([H])([H])C([H])(n4nc(-c5c([H])c([H])c(Oc6c([H])c([H])c(F)c([H])c6F)c([H])c5[H])c(C(=O)N([H])[H])c4N([H])[H])C3([H])[H])c2[H])C([H])([H])C1([H])[H]

$$$$
59:0:0
     RDKit          3D

 99107  0  0  1  0  0  0  0  0999 V2000
  -32.0780  -23.1010   22.7910 C   0  0  0  0  0  1  0  0  0  0  0  0
  -30.7000  -22.6140   22.2500 C   0  0  1  0  0  0  0  0  0  0  0  0
  -30.8570  -21.1120   21.7880 C   0  0  0  0  0  0  0  0  0  0  0  0
  -30.0940  -20.6650   20.7740 N   0  0  0  0  0  0  0  0  0  0  0  0
  -31.6670  -20.3750   22.3600 O   0  0  0  0  0  0  0  0  0  0  0  0
  -29.6040  -21.4020   20.2880 H   0  0  0  0  0  0  0  0  0  0  0  0
  -29.2150  -19.3040   19.0140 C   0  0  0  0  0  3  0  0  0  0  0  0
  -29.0930  -16.8770   19.0930 C   0  0  0  0  0  3  0  0  0  0  0  0
  -30.1020  -18.1030   20.9520 C   0  0  0  0  0  3  0  0  0  0  0  0
  -28.8260  -18.0850   18.4320 C   0  0  0  0  0  0  0  0  0  0  0  0
  -29.8500  -19.3400   20.2720 C   0  0  0  0  0  0  0  0  0  0  0  0
  -29.7340  -16.8580   20.3500 C   0  0  0  0  0  0  0  0  0  0  0  0
  -28.0990  -18.0430   17.1040 C   0  0  0  0  0  1  0  0  0  0  0  0
  -30.5490  -14.5590   20.3670 C   0  0  0  0  0  0  0  0  0  0  0  0
  -30.2280  -12.4280   19.1680 C   0  0  0  0  0  2  0  0  0  0  0  0
  -29.2430  -12.6290   17.9960 C   0  0  0  0  0  2  0  0  0  0  0  0
  -27.7810  -12.4740   18.4550 C   0  0  0  0  0  2  0  0  0  0  0  0
  -27.4730  -13.2490   19.7630 C   0  0  0  0  0  3  0  0  0  0  0  0
  -28.5740  -13.0270   20.8310 C   0  0  0  0  0  2  0  0  0  0  0  0
  -29.8740  -13.3780   20.2370 N   0  0  0  0  0  0  0  0  0  0  0  0
  -31.6460  -14.7540   19.8410 O   0  0  0  0  0  0  0  0  0  0  0  0
  -29.9000  -15.5770   20.9790 N   0  0  0  0  0  0  0  0  0  0  0  0
  -29.1280  -15.2780   21.5570 H   0  0  0  0  0  0  0  0  0  0  0  0
  -25.0730  -13.7750   20.5190 C   0  0  0  0  0  0  0  0  0  0  0  0
  -24.0360  -12.9710   20.9070 C   0  0  0  0  0  0  0  0  0  0  0  0
  -24.5330  -11.6310   20.8560 C   0  0  0  0  0  0  0  0  0  0  0  0
  -26.1390  -12.9260   20.2680 N   0  0  0  0  0  0  0  0  0  0  0  0
  -25.8180  -11.6310   20.5240 N   0  0  0  0  0  0  0  0  0  0  0  0
  -23.8470  -10.3470   21.0540 C   0  0  0  0  0  0  0  0  0  0  0  0
  -24.3150   -9.4010   21.9920 C   0  0  0  0  0  3  0  0  0  0  0  0
  -23.6290   -8.1820   22.1820 C   0  0  0  0  0  3  0  0  0  0  0  0
  -22.4610   -7.9000   21.4340 C   0  0  0  0  0  0  0  0  0  0  0  0
  -22.0090   -8.8360   20.4870 C   0  0  0  0  0  3  0  0  0  0  0  0
  -22.6950  -10.0460   20.2970 C   0  0  0  0  0  3  0  0  0  0  0  0
  -21.7490   -6.7300   21.5300 O   0  0  0  0  0  0  0  0  0  0  0  0
  -21.7200   -5.9980   22.6890 C   0  0  0  0  0  0  0  0  0  0  0  0
  -21.2620   -6.5490   23.9050 C   0  0  0  0  0  3  0  0  0  0  0  0
  -21.1830   -5.7440   25.0570 C   0  0  0  0  0  3  0  0  0  0  0  0
  -21.5530   -4.3870   24.9960 C   0  0  0  0  0  0  0  0  0  0  0  0
  -22.0070   -3.8350   23.7850 C   0  0  0  0  0  3  0  0  0  0  0  0
  -22.0840   -4.6370   22.6340 C   0  0  0  0  0  0  0  0  0  0  0  0
  -22.4970   -4.0950   21.4630 F   0  0  0  0  0  0  0  0  0  0  0  0
  -21.4720   -3.6110   26.1030 F   0  0  0  0  0  0  0  0  0  0  0  0
  -22.6330  -13.4040   21.2150 C   0  0  0  0  0  0  0  0  0  0  0  0
  -21.9510  -12.6840   22.0970 N   0  0  0  0  0  0  0  0  0  0  0  0
  -22.1530  -14.4190   20.7110 O   0  0  0  0  0  0  0  0  0  0  0  0
  -22.3570  -11.8610   22.5220 H   0  0  0  0  0  0  0  0  0  0  0  0
  -21.0070  -12.9490   22.3430 H   0  0  0  0  0  0  0  0  0  0  0  0
  -25.1990  -15.1490   20.3370 N   0  0  0  0  0  0  0  0  0  0  0  0
  -24.4260  -15.7910   20.4750 H   0  0  0  0  0  0  0  0  0  0  0  0
  -26.0330  -15.6050   19.9880 H   0  0  0  0  0  0  0  0  0  0  0  0
  -29.7930  -21.6130   24.5590 C   0  0  0  0  0  1  0  0  0  0  0  0
  -29.6700  -22.6570   23.4290 C   0  0  0  0  0  2  0  0  0  0  0  0
  -31.2540  -23.8930   20.0180 C   0  0  0  0  0  1  0  0  0  0  0  0
  -30.1880  -23.5940   21.0940 C   0  0  0  0  0  3  0  0  0  0  0  0
  -29.5740  -24.9660   21.5140 C   0  0  0  0  0  0  0  0  0  0  0  0
  -30.1520  -25.7040   22.3180 O   0  0  0  0  0  0  0  0  0  0  0  0
  -28.2370  -25.4120   20.8710 C   0  0  0  0  0  2  0  0  0  0  0  0
  -28.3270  -26.7640   20.3790 O   0  0  0  0  0  0  0  0  0  0  0  0
  -24.5420  -31.9800   23.3320 C   0  0  0  0  0  0  0  0  0  0  0  0
  -27.1470  -27.4790   20.3330 C   0  0  0  0  0  0  0  0  0  0  0  0
  -23.3150  -30.5720   21.7080 C   0  0  0  0  0  3  0  0  0  0  0  0
  -24.7530  -28.9950   20.3020 C   0  0  0  0  0  0  0  0  0  0  0  0
  -25.8410  -30.9070   21.4950 C   0  0  0  0  0  2  0  0  0  0  0  0
  -25.9130  -29.5270   20.8760 C   0  0  0  0  0  0  0  0  0  0  0  0
  -27.1130  -28.7820   20.8770 C   0  0  0  0  0  3  0  0  0  0  0  0
  -25.9720  -26.9570   19.7440 C   0  0  0  0  0  3  0  0  0  0  0  0
  -24.7780  -27.7100   19.7250 C   0  0  0  0  0  3  0  0  0  0  0  0
  -23.5130  -29.8630   20.3400 C   0  0  0  0  0  2  0  0  0  0  0  0
  -24.5840  -31.1680   22.2370 N   0  0  0  0  0  0  0  0  0  0  0  0
  -23.4660  -32.2710   23.8750 O   0  0  0  0  0  0  0  0  0  0  0  0
  -22.6530  -29.5740   22.6860 C   0  0  0  0  0  0  0  0  0  0  0  0
  -21.3310  -29.3800   22.5420 N   0  0  0  0  0  0  0  0  0  0  0  0
  -23.3270  -28.9720   23.5270 O   0  0  0  0  0  0  0  0  0  0  0  0
  -20.8490  -29.9150   21.8340 H   0  0  0  0  0  0  0  0  0  0  0  0
  -17.9600  -28.1570   23.0060 C   0  0  0  0  0  0  0  0  0  0  0  0
  -20.5080  -28.4560   23.3240 C   0  0  0  0  0  3  0  0  0  0  0  0
  -20.6410  -27.0090   22.7950 C   0  0  0  0  0  2  0  0  0  0  0  0
  -19.5660  -26.6400   21.7690 C   0  0  0  0  0  2  0  0  0  0  0  0
  -18.1680  -26.7900   22.3760 C   0  0  0  0  0  2  0  0  0  0  0  0
  -19.0610  -28.9460   23.4360 C   0  0  0  0  0  0  0  0  0  0  0  0
  -18.8150  -30.2250   23.9800 C   0  0  0  0  0  3  0  0  0  0  0  0
  -17.5010  -30.7170   24.0970 C   0  0  0  0  0  3  0  0  0  0  0  0
  -16.4150  -29.9250   23.6850 C   0  0  0  0  0  3  0  0  0  0  0  0
  -16.6460  -28.6470   23.1460 C   0  0  0  0  0  3  0  0  0  0  0  0
  -25.8380  -32.6060   23.9410 C   0  0  0  0  0  3  0  0  0  0  0  0
  -25.5470  -34.0080   24.2650 N   0  0  0  0  0  0  0  0  0  0  0  0
  -25.8940  -35.0510   23.5000 C   0  0  0  0  0  0  0  0  0  0  0  0
  -26.5650  -34.9330   22.4700 O   0  0  0  0  0  0  0  0  0  0  0  0
  -24.9600  -34.1750   25.0690 H   0  0  0  0  0  0  0  0  0  0  0  0
  -24.1940  -36.8640   23.1150 C   0  0  0  0  0  1  0  0  0  0  0  0
  -25.4210  -36.4490   23.9440 C   0  0  0  0  0  3  0  0  0  0  0  0
  -27.5590  -37.3000   24.7970 C   0  0  0  0  0  1  0  0  0  0  0  0
  -26.4700  -37.4870   23.8400 N   0  0  0  0  0  0  0  0  0  0  0  0
  -26.0780  -38.4120   23.9860 H   0  0  0  0  0  0  0  0  0  0  0  0
  -26.3600  -31.8350   25.2170 C   0  0  1  0  0  0  0  0  0  0  0  0
  -25.2740  -31.5950   26.2910 C   0  0  0  0  0  1  0  0  0  0  0  0
  -26.9420  -30.4580   24.8220 C   0  0  0  0  0  1  0  0  0  0  0  0
  -27.5200  -32.6250   25.8690 C   0  0  0  0  0  1  0  0  0  0  0  0
  2  1  1  1
  2 53  1  0
  3  2  1  0
  3  5  2  0
  4  3  1  0
  6  4  1  0
  7 11  1  0
  8 12  2  0
 10  7  2  0
 10  8  1  0
 11  4  1  0
 11  9  2  0
 12  9  1  0
 12 22  1  0
 13 10  1  0
 14 22  1  0
 15 20  1  0
 16 17  1  0
 16 15  1  0
 18 17  1  0
 18 27  1  0
 18 19  1  0
 20 14  1  0
 20 19  1  0
 21 14  2  0
 22 23  1  0
 24 25  2  0
 25 44  1  0
 26 25  1  0
 26 29  1  0
 27 24  1  0
 27 28  1  0
 28 26  2  0
 29 30  1  0
 30 31  2  0
 32 35  1  0
 32 31  1  0
 33 32  2  0
 34 33  1  0
 34 29  2  0
 35 36  1  0
 36 37  1  0
 37 38  2  0
 39 38  1  0
 39 43  1  0
 40 39  2  0
 41 36  2  0
 41 40  1  0
 42 41  1  0
 44 45  1  0
 45 48  1  0
 45 47  1  0
 46 44  2  0
 49 50  1  0
 49 24  1  0
 51 49  1  0
 53 52  1  0
 55 54  1  0
 55 56  1  0
 55  2  1  0
 56 57  2  0
 58 56  1  0
 59 58  1  0
 60 71  2  0
 61 59  1  0
 61 66  1  0
 62 70  1  0
 62 72  1  0
 63 69  1  0
 63 65  1  0
 64 70  1  0
 65 66  2  0
 65 64  1  0
 67 61  2  0
 68 67  1  0
 68 63  2  0
 69 62  1  0
 70 60  1  0
 72 74  2  0
 73 72  1  0
 75 73  1  0
 76 85  2  0
 76 81  1  0
 77 73  1  0
 77 81  1  0
 78 77  1  0
 79 80  1  0
 79 78  1  0
 80 76  1  0
 81 82  2  0
 82 83  1  0
 84 83  2  0
 85 84  1  0
 86 60  1  0
 86 87  1  0
 86 96  1  0
 87 90  1  0
 88 92  1  0
 88 87  1  0
 89 88  2  0
 92 91  1  0
 94 92  1  0
 94 95  1  0
 94 93  1  0
 96 99  1  1
 96 97  1  0
 98 96  1  0
M  ISO  4  14 100  22 100  58 101  59 101
M  END
>  <TORSDO>  (60) 
F 22

>  <SCORE>  (60) 
-10.767

>  <name>  (60) 
59

>  <ligand_id>  (60) 
59

>  <original_smiles>  (60) 
[H]c1c([H])c([H])c2c(c1[H])C([H])([H])C([H])([H])C([H])([H])C2([H])N([H])C(=O)C1([H])N(C(=O)C([H])(N([H])C(=O)C([H])(N([H])C([H])([H])[H])C([H])([H])[H])C(C([H])([H])[H])(C([H])([H])[H])C([H])([H])[H])C([H])([H])c2c([H])c(OC([H])([H])C(=O)C([H])(C([H])([H])[H])C(C(=O)N([H])c3c([H])c(N([H])C(=O)N4C([H])([H])C([H])([H])C([H])([H])C([H])(n5nc(-c6c([H])c([H])c(Oc7c([H])c([H])c(F)c([H])c7F)c([H])c6[H])c(C(=O)N([H])[H])c5N([H])[H])C4([H])[H])c([H])c(C([H])([H])[H])c3[H])(C([H])([H])[H])C([H])([H])C([H])([H])[H])c([H])c([H])c2C1([H])[H]

>  <smiles>  (60) 
[H]c1c([H])c([H])c2c(c1[H])C([H])([H])C([H])([H])C([H])([H])C2([H])N([H])C(=O)C1([H])N(C(=O)C([H])(N([H])C(=O)C([H])(N([H])C([H])([H])[H])C([H])([H])[H])C(C([H])([H])[H])(C([H])([H])[H])C([H])([H])[H])C([H])([H])c2c([H])c(OC([H])([H])C(=O)C([H])(C([H])([H])[H])C(C(=O)N([H])c3c([H])c(N([H])C(=O)N4C([H])([H])C([H])([H])C([H])([H])C([H])(n5nc(-c6c([H])c([H])c(Oc7c([H])c([H])c(F)c([H])c7F)c([H])c6[H])c(C(=O)N([H])[H])c5N([H])[H])C4([H])[H])c([H])c(C([H])([H])[H])c3[H])(C([H])([H])[H])C([H])([H])C([H])([H])[H])c([H])c([H])c2C1([H])[H]

$$$$
60:0:0
     RDKit          3D

 97105  0  0  1  0  0  0  0  0999 V2000
  -28.1600  -21.1350   20.3060 C   0  0  0  0  0  3  0  0  0  0  0  0
  -28.1690  -19.9850   19.5870 C   0  0  0  0  0  0  0  0  0  0  0  0
  -30.6170  -19.5910   19.1890 C   0  0  0  0  0  3  0  0  0  0  0  0
  -29.3050  -17.8810   20.3330 C   0  0  0  0  0  3  0  0  0  0  0  0
  -31.6960  -17.5720   20.0230 C   0  0  0  0  0  3  0  0  0  0  0  0
  -29.3760  -19.1390   19.6880 C   0  0  0  0  0  0  0  0  0  0  0  0
  -31.7790  -18.8140   19.3640 C   0  0  0  0  0  0  0  0  0  0  0  0
  -30.4550  -17.0720   20.4980 C   0  0  0  0  0  0  0  0  0  0  0  0
  -33.1230  -19.3110   18.8630 C   0  0  0  0  0  1  0  0  0  0  0  0
  -31.0560  -14.6910   20.9420 C   0  0  0  0  0  0  0  0  0  0  0  0
  -30.8110  -12.4810   19.9320 C   0  0  0  0  0  2  0  0  0  0  0  0
  -30.0030  -12.6770   18.6310 C   0  0  0  0  0  2  0  0  0  0  0  0
  -28.4910  -12.5900   18.9130 C   0  0  0  0  0  2  0  0  0  0  0  0
  -28.0480  -13.4670   20.1140 C   0  0  0  0  0  3  0  0  0  0  0  0
  -28.9900  -13.2890   21.3260 C   0  0  0  0  0  2  0  0  0  0  0  0
  -30.3720  -13.5210   20.8720 N   0  0  0  0  0  0  0  0  0  0  0  0
  -32.2610  -14.7610   20.6880 O   0  0  0  0  0  0  0  0  0  0  0  0
  -30.2960  -15.7880   21.1200 N   0  0  0  0  0  0  0  0  0  0  0  0
  -29.3690  -15.5840   21.4560 H   0  0  0  0  0  0  0  0  0  0  0  0
  -25.6040  -14.1280   20.5830 C   0  0  0  0  0  0  0  0  0  0  0  0
  -24.4950  -13.3830   20.8670 C   0  0  0  0  0  0  0  0  0  0  0  0
  -24.9300  -12.0220   20.9110 C   0  0  0  0  0  0  0  0  0  0  0  0
  -26.6520  -13.2250   20.4710 N   0  0  0  0  0  0  0  0  0  0  0  0
  -26.2440  -11.9550   20.7240 N   0  0  0  0  0  0  0  0  0  0  0  0
  -24.1670  -10.7770   21.0610 C   0  0  0  0  0  0  0  0  0  0  0  0
  -24.5080   -9.8150   22.0380 C   0  0  0  0  0  3  0  0  0  0  0  0
  -23.7470   -8.6350   22.1760 C   0  0  0  0  0  3  0  0  0  0  0  0
  -22.6290   -8.4090   21.3370 C   0  0  0  0  0  0  0  0  0  0  0  0
  -22.3070   -9.3590   20.3520 C   0  0  0  0  0  3  0  0  0  0  0  0
  -23.0690  -10.5310   20.2130 C   0  0  0  0  0  3  0  0  0  0  0  0
  -21.8480   -7.2790   21.3820 O   0  0  0  0  0  0  0  0  0  0  0  0
  -21.7150   -6.5400   22.5300 C   0  0  0  0  0  0  0  0  0  0  0  0
  -21.2050   -7.0990   23.7220 C   0  0  0  0  0  3  0  0  0  0  0  0
  -21.0210   -6.2870   24.8600 C   0  0  0  0  0  3  0  0  0  0  0  0
  -21.3350   -4.9160   24.8040 C   0  0  0  0  0  0  0  0  0  0  0  0
  -21.8320   -4.3550   23.6150 C   0  0  0  0  0  3  0  0  0  0  0  0
  -22.0190   -5.1640   22.4810 C   0  0  0  0  0  0  0  0  0  0  0  0
  -22.4820   -4.6150   21.3330 F   0  0  0  0  0  0  0  0  0  0  0  0
  -21.1500   -4.1350   25.8920 F   0  0  0  0  0  0  0  0  0  0  0  0
  -23.0860  -13.8890   20.9990 C   0  0  0  0  0  0  0  0  0  0  0  0
  -22.2700  -13.2290   21.8110 N   0  0  0  0  0  0  0  0  0  0  0  0
  -22.7150  -14.9070   20.4150 O   0  0  0  0  0  0  0  0  0  0  0  0
  -22.5780  -12.4090   22.3120 H   0  0  0  0  0  0  0  0  0  0  0  0
  -21.3230  -13.5540   21.9410 H   0  0  0  0  0  0  0  0  0  0  0  0
  -25.8060  -15.4950   20.3920 N   0  0  0  0  0  0  0  0  0  0  0  0
  -25.0350  -16.1550   20.4020 H   0  0  0  0  0  0  0  0  0  0  0  0
  -26.6870  -15.9200   20.1270 H   0  0  0  0  0  0  0  0  0  0  0  0
  -26.0600  -20.3910   18.0430 C   0  0  0  0  0  1  0  0  0  0  0  0
  -27.0740  -19.4180   18.6660 C   0  0  0  0  0  2  0  0  0  0  0  0
  -27.0310  -22.1460   20.5210 C   0  0  0  0  0  2  0  0  0  0  0  0
  -28.4020  -23.3570   22.3180 C   0  0  0  0  0  1  0  0  0  0  0  0
  -26.0950  -24.1330   21.7240 C   0  0  0  0  0  1  0  0  0  0  0  0
  -27.4020  -23.5320   21.1510 C   0  0  2  0  0  0  0  0  0  0  0  0
  -27.9780  -24.5150   20.0890 C   0  0  0  0  0  0  0  0  0  0  0  0
  -28.0870  -24.1910   18.9030 O   0  0  0  0  0  0  0  0  0  0  0  0
  -28.4120  -25.9240   20.5500 C   0  0  0  0  0  2  0  0  0  0  0  0
  -28.2230  -26.9130   19.5310 O   0  0  0  0  0  0  0  0  0  0  0  0
  -24.5250  -31.8500   23.1040 C   0  0  0  0  0  0  0  0  0  0  0  0
  -27.0590  -27.6270   19.6550 C   0  0  0  0  0  0  0  0  0  0  0  0
  -23.2580  -30.5360   21.4330 C   0  0  0  0  0  3  0  0  0  0  0  0
  -24.6590  -29.0910   19.8640 C   0  0  0  0  0  0  0  0  0  0  0  0
  -25.7710  -30.9280   21.1510 C   0  0  0  0  0  2  0  0  0  0  0  0
  -25.8360  -29.5970   20.4310 C   0  0  0  0  0  0  0  0  0  0  0  0
  -27.0430  -28.8690   20.3240 C   0  0  0  0  0  3  0  0  0  0  0  0
  -25.8650  -27.1260   19.0940 C   0  0  0  0  0  3  0  0  0  0  0  0
  -24.6650  -27.8530   19.1990 C   0  0  0  0  0  3  0  0  0  0  0  0
  -23.4150  -29.9370   20.0090 C   0  0  0  0  0  2  0  0  0  0  0  0
  -24.5380  -31.1160   21.9540 N   0  0  0  0  0  0  0  0  0  0  0  0
  -23.4670  -32.0870   23.7030 O   0  0  0  0  0  0  0  0  0  0  0  0
  -22.6560  -29.4560   22.3590 C   0  0  0  0  0  0  0  0  0  0  0  0
  -21.3290  -29.2660   22.2730 N   0  0  0  0  0  0  0  0  0  0  0  0
  -23.3790  -28.7920   23.1080 O   0  0  0  0  0  0  0  0  0  0  0  0
  -20.8080  -29.8550   21.6370 H   0  0  0  0  0  0  0  0  0  0  0  0
  -17.9900  -28.0020   22.8190 C   0  0  0  0  0  0  0  0  0  0  0  0
  -20.5530  -28.2770   23.0190 C   0  0  0  0  0  3  0  0  0  0  0  0
  -20.6500  -26.8820   22.3590 C   0  0  0  0  0  2  0  0  0  0  0  0
  -19.5140  -26.5970   21.3700 C   0  0  0  0  0  2  0  0  0  0  0  0
  -18.1550  -26.6940   22.0690 C   0  0  0  0  0  2  0  0  0  0  0  0
  -19.1130  -28.7560   23.2510 C   0  0  0  0  0  0  0  0  0  0  0  0
  -18.8970  -29.9890   23.9080 C   0  0  0  0  0  3  0  0  0  0  0  0
  -17.5920  -30.4610   24.1460 C   0  0  0  0  0  3  0  0  0  0  0  0
  -16.4850  -29.7020   23.7260 C   0  0  0  0  0  3  0  0  0  0  0  0
  -16.6850  -28.4760   23.0680 C   0  0  0  0  0  3  0  0  0  0  0  0
  -25.8320  -32.4520   23.7060 C   0  0  0  0  0  3  0  0  0  0  0  0
  -25.5470  -33.8410   24.0910 N   0  0  0  0  0  0  0  0  0  0  0  0
  -25.8830  -34.9150   23.3630 C   0  0  0  0  0  0  0  0  0  0  0  0
  -26.5410  -34.8410   22.3210 O   0  0  0  0  0  0  0  0  0  0  0  0
  -24.9670  -33.9740   24.9070 H   0  0  0  0  0  0  0  0  0  0  0  0
  -24.1830  -36.7410   23.0750 C   0  0  0  0  0  1  0  0  0  0  0  0
  -25.4160  -36.2900   23.8740 C   0  0  0  0  0  3  0  0  0  0  0  0
  -27.5570  -37.1100   24.7450 C   0  0  0  0  0  1  0  0  0  0  0  0
  -26.4640  -37.3300   23.8020 N   0  0  0  0  0  0  0  0  0  0  0  0
  -26.0710  -38.2490   23.9870 H   0  0  0  0  0  0  0  0  0  0  0  0
  -26.3850  -31.6350   24.9380 C   0  0  1  0  0  0  0  0  0  0  0  0
  -25.3260  -31.3650   26.0320 C   0  0  0  0  0  1  0  0  0  0  0  0
  -26.9470  -30.2730   24.4720 C   0  0  0  0  0  1  0  0  0  0  0  0
  -27.5660  -32.3980   25.5830 C   0  0  0  0  0  1  0  0  0  0  0  0
  1 50  1  0
  2  6  1  0
  2  1  2  0
  3  7  2  0
  3  6  1  0
  4  8  1  0
  5  8  2  0
  6  4  2  0
  7  5  1  0
  8 18  1  0
  9  7  1  0
 10 18  1  0
 11 16  1  0
 12 13  1  0
 12 11  1  0
 14 13  1  0
 14 23  1  0
 14 15  1  0
 16 10  1  0
 16 15  1  0
 17 10  2  0
 18 19  1  0
 20 21  2  0
 21 22  1  0
 21 40  1  0
 22 25  1  0
 23 20  1  0
 23 24  1  0
 24 22  2  0
 25 26  1  0
 26 27  2  0
 28 31  1  0
 28 27  1  0
 29 28  2  0
 30 29  1  0
 30 25  2  0
 31 32  1  0
 32 33  1  0
 33 34  2  0
 35 34  1  0
 35 39  1  0
 36 35  2  0
 37 32  2  0
 37 36  1  0
 38 37  1  0
 40 41  1  0
 41 44  1  0
 41 43  1  0
 42 40  2  0
 45 46  1  0
 45 20  1  0
 47 45  1  0
 48 49  1  0
 49  2  1  0
 50 53  1  0
 53 52  1  1
 53 51  1  0
 54 56  1  0
 54 53  1  0
 55 54  2  0
 57 59  1  0
 57 56  1  0
 58 69  2  0
 59 64  1  0
 60 68  1  0
 60 70  1  0
 61 67  1  0
 61 63  1  0
 62 68  1  0
 63 62  1  0
 64 63  2  0
 65 66  1  0
 65 59  2  0
 66 61  2  0
 67 60  1  0
 68 58  1  0
 70 72  2  0
 71 70  1  0
 73 71  1  0
 74 83  2  0
 74 79  1  0
 75 71  1  0
 75 79  1  0
 76 75  1  0
 77 78  1  0
 77 76  1  0
 78 74  1  0
 79 80  2  0
 80 81  1  0
 82 81  2  0
 83 82  1  0
 84 58  1  0
 84 85  1  0
 84 94  1  0
 85 88  1  0
 86 90  1  0
 86 85  1  0
 87 86  2  0
 90 89  1  0
 92 90  1  0
 92 93  1  0
 92 91  1  0
 94 97  1  1
 94 95  1  0
 96 94  1  0
M  ISO  4  10 100  18 100  56 101  57 101
M  END
>  <TORSDO>  (61) 
F 22

>  <SCORE>  (61) 
-12.804

>  <name>  (61) 
60

>  <ligand_id>  (61) 
60

>  <original_smiles>  (61) 
[H]C(=C(c1c([H])c(N([H])C(=O)N2C([H])([H])C([H])([H])C([H])([H])C([H])(n3nc(-c4c([H])c([H])c(Oc5c([H])c([H])c(F)c([H])c5F)c([H])c4[H])c(C(=O)N([H])[H])c3N([H])[H])C2([H])[H])c([H])c(C([H])([H])[H])c1[H])C([H])([H])C([H])([H])[H])C([H])([H])C(C(=O)C([H])([H])Oc1c([H])c([H])c2c(c1[H])C([H])([H])N(C(=O)C([H])(N([H])C(=O)C([H])(N([H])C([H])([H])[H])C([H])([H])[H])C(C([H])([H])[H])(C([H])([H])[H])C([H])([H])[H])C([H])(C(=O)N([H])C1([H])c3c([H])c([H])c([H])c([H])c3C([H])([H])C([H])([H])C1([H])[H])C2([H])[H])(C([H])([H])[H])C([H])([H])[H]

>  <smiles>  (61) 
[H]C(=C(c1c([H])c(N([H])C(=O)N2C([H])([H])C([H])([H])C([H])([H])C([H])(n3nc(-c4c([H])c([H])c(Oc5c([H])c([H])c(F)c([H])c5F)c([H])c4[H])c(C(=O)N([H])[H])c3N([H])[H])C2([H])[H])c([H])c(C([H])([H])[H])c1[H])C([H])([H])C([H])([H])[H])C([H])([H])C(C(=O)C([H])([H])Oc1c([H])c([H])c2c(c1[H])C([H])([H])N(C(=O)C([H])(N([H])C(=O)C([H])(N([H])C([H])([H])[H])C([H])([H])[H])C(C([H])([H])[H])(C([H])([H])[H])C([H])([H])[H])C([H])(C(=O)N([H])C1([H])c3c([H])c([H])c([H])c([H])c3C([H])([H])C([H])([H])C1([H])[H])C2([H])[H])(C([H])([H])[H])C([H])([H])[H]

$$$$
61:0:0
     RDKit          3D

 94102  0  0  1  0  0  0  0  0999 V2000
  -28.7460  -23.5230   23.2910 C   0  0  0  0  0  1  0  0  0  0  0  0
  -27.3100  -21.9700   21.9730 C   0  0  0  0  0  1  0  0  0  0  0  0
  -28.5550  -22.8920   21.8960 C   0  0  1  0  0  0  0  0  0  0  0  0
  -29.3620  -24.8280   20.4160 C   0  0  0  0  0  3  0  0  0  0  0  0
  -28.3460  -24.0930   20.9360 C   0  0  0  0  0  0  0  0  0  0  0  0
  -26.8900  -24.4560   20.6790 C   0  0  0  0  0  1  0  0  0  0  0  0
  -29.2600  -26.0510   19.4900 C   0  0  0  0  0  2  0  0  0  0  0  0
  -28.9800  -27.2950   20.1780 O   0  0  0  0  0  0  0  0  0  0  0  0
  -24.5880  -31.9490   23.3330 C   0  0  0  0  0  0  0  0  0  0  0  0
  -27.7310  -27.9030   20.1320 C   0  0  0  0  0  0  0  0  0  0  0  0
  -23.5680  -30.5290   21.5850 C   0  0  0  0  0  3  0  0  0  0  0  0
  -25.2030  -29.2110   20.1350 C   0  0  0  0  0  0  0  0  0  0  0  0
  -26.0590  -31.1130   21.5000 C   0  0  0  0  0  2  0  0  0  0  0  0
  -26.2900  -29.7850   20.8050 C   0  0  0  0  0  0  0  0  0  0  0  0
  -27.5470  -29.1320   20.8180 C   0  0  0  0  0  3  0  0  0  0  0  0
  -26.6260  -27.3770   19.4190 C   0  0  0  0  0  3  0  0  0  0  0  0
  -25.3690  -28.0060   19.4380 C   0  0  0  0  0  3  0  0  0  0  0  0
  -23.8830  -29.9440   20.1830 C   0  0  0  0  0  2  0  0  0  0  0  0
  -24.7540  -31.2090   22.2000 N   0  0  0  0  0  0  0  0  0  0  0  0
  -23.4700  -32.0950   23.8460 O   0  0  0  0  0  0  0  0  0  0  0  0
  -22.9830  -29.4050   22.4710 C   0  0  0  0  0  0  0  0  0  0  0  0
  -21.6910  -29.0970   22.2720 N   0  0  0  0  0  0  0  0  0  0  0  0
  -23.6890  -28.8200   23.2980 O   0  0  0  0  0  0  0  0  0  0  0  0
  -21.1800  -29.6310   21.5830 H   0  0  0  0  0  0  0  0  0  0  0  0
  -18.4420  -27.5370   22.5430 C   0  0  0  0  0  0  0  0  0  0  0  0
  -20.9410  -28.0510   22.9660 C   0  0  0  0  0  3  0  0  0  0  0  0
  -21.2250  -26.6600   22.3530 C   0  0  0  0  0  2  0  0  0  0  0  0
  -20.2190  -26.2620   21.2700 C   0  0  0  0  0  2  0  0  0  0  0  0
  -18.7970  -26.2380   21.8370 C   0  0  0  0  0  2  0  0  0  0  0  0
  -19.4490  -28.3950   23.0590 C   0  0  0  0  0  0  0  0  0  0  0  0
  -19.0660  -29.6060   23.6760 C   0  0  0  0  0  3  0  0  0  0  0  0
  -17.7080  -29.9630   23.7830 C   0  0  0  0  0  3  0  0  0  0  0  0
  -16.7150  -29.1010   23.2830 C   0  0  0  0  0  3  0  0  0  0  0  0
  -17.0830  -27.8920   22.6680 C   0  0  0  0  0  3  0  0  0  0  0  0
  -25.7880  -32.6660   24.0240 C   0  0  0  0  0  3  0  0  0  0  0  0
  -25.3820  -34.0520   24.2880 N   0  0  0  0  0  0  0  0  0  0  0  0
  -25.7150  -35.1020   23.5230 C   0  0  0  0  0  0  0  0  0  0  0  0
  -26.4650  -35.0070   22.5450 O   0  0  0  0  0  0  0  0  0  0  0  0
  -24.7170  -34.1930   25.0350 H   0  0  0  0  0  0  0  0  0  0  0  0
  -23.9290  -36.7930   22.9910 C   0  0  0  0  0  1  0  0  0  0  0  0
  -25.1250  -36.4730   23.9020 C   0  0  0  0  0  3  0  0  0  0  0  0
  -27.1470  -37.4920   24.8560 C   0  0  0  0  0  1  0  0  0  0  0  0
  -26.1080  -37.5770   23.8310 N   0  0  0  0  0  0  0  0  0  0  0  0
  -25.6470  -38.4780   23.9240 H   0  0  0  0  0  0  0  0  0  0  0  0
  -26.2540  -31.9550   25.3540 C   0  0  1  0  0  0  0  0  0  0  0  0
  -25.0970  -31.6620   26.3390 C   0  0  0  0  0  1  0  0  0  0  0  0
  -26.9600  -30.6140   25.0380 C   0  0  0  0  0  1  0  0  0  0  0  0
  -27.2890  -32.8420   26.0840 C   0  0  0  0  0  1  0  0  0  0  0  0
  -29.8030  -21.9860   21.6160 C   0  0  0  0  0  2  0  0  0  0  0  0
  -29.7380  -20.9390   20.4660 C   0  0  0  0  0  2  0  0  0  0  0  0
  -32.9040  -18.8670   21.1930 C   0  0  0  0  0  3  0  0  0  0  0  0
  -32.0420  -19.9590   20.9780 C   0  0  0  0  0  3  0  0  0  0  0  0
  -32.4280  -17.5460   21.0740 C   0  0  0  0  0  3  0  0  0  0  0  0
  -30.2140  -18.4070   20.5390 C   0  0  0  0  0  3  0  0  0  0  0  0
  -30.6820  -19.7420   20.6630 C   0  0  0  0  0  0  0  0  0  0  0  0
  -31.0780  -17.2960   20.7320 C   0  0  0  0  0  0  0  0  0  0  0  0
  -31.2080  -14.8780   20.1380 C   0  0  0  0  0  0  0  0  0  0  0  0
  -30.8740  -12.6380   19.1530 C   0  0  0  0  0  2  0  0  0  0  0  0
  -29.9290  -12.7200   17.9420 C   0  0  0  0  0  2  0  0  0  0  0  0
  -28.4590  -12.6080   18.3920 C   0  0  0  0  0  2  0  0  0  0  0  0
  -28.1180  -13.5630   19.5650 C   0  0  0  0  0  3  0  0  0  0  0  0
  -29.1770  -13.4700   20.6880 C   0  0  0  0  0  2  0  0  0  0  0  0
  -30.5000  -13.7140   20.0870 N   0  0  0  0  0  0  0  0  0  0  0  0
  -32.3320  -14.9810   19.6360 O   0  0  0  0  0  0  0  0  0  0  0  0
  -30.5640  -15.9600   20.6260 N   0  0  0  0  0  0  0  0  0  0  0  0
  -29.5920  -15.8270   20.8600 H   0  0  0  0  0  0  0  0  0  0  0  0
  -25.7450  -14.2260   20.3080 C   0  0  0  0  0  0  0  0  0  0  0  0
  -24.6670  -13.4800   20.7040 C   0  0  0  0  0  0  0  0  0  0  0  0
  -25.0980  -12.1170   20.6740 C   0  0  0  0  0  0  0  0  0  0  0  0
  -26.7670  -13.3200   20.0700 N   0  0  0  0  0  0  0  0  0  0  0  0
  -26.3840  -12.0490   20.3500 N   0  0  0  0  0  0  0  0  0  0  0  0
  -24.3460  -10.8730   20.8850 C   0  0  0  0  0  0  0  0  0  0  0  0
  -24.7390   -9.9340   21.8620 C   0  0  0  0  0  3  0  0  0  0  0  0
  -23.9930   -8.7520   22.0600 C   0  0  0  0  0  3  0  0  0  0  0  0
  -22.8370   -8.5030   21.2810 C   0  0  0  0  0  0  0  0  0  0  0  0
  -22.4620   -9.4340   20.2940 C   0  0  0  0  0  3  0  0  0  0  0  0
  -23.2100  -10.6080   20.0950 C   0  0  0  0  0  3  0  0  0  0  0  0
  -22.0660   -7.3700   21.3820 O   0  0  0  0  0  0  0  0  0  0  0  0
  -21.9320   -6.6970   22.5710 C   0  0  0  0  0  0  0  0  0  0  0  0
  -21.4360   -7.3270   23.7330 C   0  0  0  0  0  3  0  0  0  0  0  0
  -21.2500   -6.5800   24.9140 C   0  0  0  0  0  3  0  0  0  0  0  0
  -21.5500   -5.2050   24.9330 C   0  0  0  0  0  0  0  0  0  0  0  0
  -22.0400   -4.5740   23.7750 C   0  0  0  0  0  3  0  0  0  0  0  0
  -22.2280   -5.3180   22.5960 C   0  0  0  0  0  0  0  0  0  0  0  0
  -22.6780   -4.7040   21.4770 F   0  0  0  0  0  0  0  0  0  0  0  0
  -21.3650   -4.4860   26.0630 F   0  0  0  0  0  0  0  0  0  0  0  0
  -23.2870  -13.9940   20.9980 C   0  0  0  0  0  0  0  0  0  0  0  0
  -22.5610  -13.3220   21.8860 N   0  0  0  0  0  0  0  0  0  0  0  0
  -22.8630  -15.0210   20.4710 O   0  0  0  0  0  0  0  0  0  0  0  0
  -22.9210  -12.4970   22.3380 H   0  0  0  0  0  0  0  0  0  0  0  0
  -21.6320  -13.6450   22.1170 H   0  0  0  0  0  0  0  0  0  0  0  0
  -25.9410  -15.5890   20.1130 N   0  0  0  0  0  0  0  0  0  0  0  0
  -26.8020  -15.9970   19.7720 H   0  0  0  0  0  0  0  0  0  0  0  0
  -25.1880  -16.2640   20.1900 H   0  0  0  0  0  0  0  0  0  0  0  0
  3  2  1  1
  3  1  1  0
  4  5  2  0
  5  3  1  0
  6  5  1  0
  7  8  1  0
  7  4  1  0
  9 20  2  0
 10  8  1  0
 10 15  1  0
 11 19  1  0
 11 21  1  0
 12 18  1  0
 12 14  1  0
 13 19  1  0
 14 15  2  0
 14 13  1  0
 16 17  1  0
 16 10  2  0
 17 12  2  0
 18 11  1  0
 19  9  1  0
 21 23  2  0
 22 21  1  0
 24 22  1  0
 25 34  2  0
 25 30  1  0
 26 22  1  0
 26 30  1  0
 27 26  1  0
 28 29  1  0
 28 27  1  0
 29 25  1  0
 30 31  2  0
 31 32  1  0
 33 32  2  0
 34 33  1  0
 35  9  1  0
 35 36  1  0
 35 45  1  0
 36 39  1  0
 37 41  1  0
 37 36  1  0
 38 37  2  0
 41 40  1  0
 43 41  1  0
 43 44  1  0
 43 42  1  0
 45 48  1  1
 45 46  1  0
 47 45  1  0
 49  3  1  0
 50 55  1  0
 50 49  1  0
 52 51  2  0
 53 51  1  0
 54 55  2  0
 54 56  1  0
 55 52  1  0
 56 53  2  0
 57 65  1  0
 58 63  1  0
 59 60  1  0
 59 58  1  0
 61 60  1  0
 61 70  1  0
 61 62  1  0
 63 57  1  0
 63 62  1  0
 64 57  2  0
 65 56  1  0
 65 66  1  0
 67 68  2  0
 68 87  1  0
 69 68  1  0
 69 72  1  0
 70 67  1  0
 70 71  1  0
 71 69  2  0
 72 73  1  0
 73 74  2  0
 75 78  1  0
 75 74  1  0
 76 75  2  0
 77 76  1  0
 77 72  2  0
 78 79  1  0
 79 84  2  0
 79 80  1  0
 80 81  2  0
 81 82  1  0
 82 86  1  0
 83 82  2  0
 84 83  1  0
 85 84  1  0
 87 88  1  0
 88 91  1  0
 88 90  1  0
 89 87  2  0
 92 94  1  0
 92 67  1  0
 93 92  1  0
M  ISO  4   7 101   8 101  57 100  65 100
M  END
>  <TORSDO>  (62) 
F 21

>  <SCORE>  (62) 
-11.004

>  <name>  (62) 
61

>  <ligand_id>  (62) 
61

>  <original_smiles>  (62) 
[H]C(=C(C([H])([H])[H])C(C([H])([H])[H])(C([H])([H])[H])C([H])([H])C([H])([H])c1c([H])c([H])c([H])c(N([H])C(=O)N2C([H])([H])C([H])([H])C([H])([H])C([H])(n3nc(-c4c([H])c([H])c(Oc5c([H])c([H])c(F)c([H])c5F)c([H])c4[H])c(C(=O)N([H])[H])c3N([H])[H])C2([H])[H])c1[H])C([H])([H])Oc1c([H])c([H])c2c(c1[H])C([H])([H])N(C(=O)C([H])(N([H])C(=O)C([H])(N([H])C([H])([H])[H])C([H])([H])[H])C(C([H])([H])[H])(C([H])([H])[H])C([H])([H])[H])C([H])(C(=O)N([H])C1([H])c3c([H])c([H])c([H])c([H])c3C([H])([H])C([H])([H])C1([H])[H])C2([H])[H]

>  <smiles>  (62) 
[H]C(=C(C([H])([H])[H])C(C([H])([H])[H])(C([H])([H])[H])C([H])([H])C([H])([H])c1c([H])c([H])c([H])c(N([H])C(=O)N2C([H])([H])C([H])([H])C([H])([H])C([H])(n3nc(-c4c([H])c([H])c(Oc5c([H])c([H])c(F)c([H])c5F)c([H])c4[H])c(C(=O)N([H])[H])c3N([H])[H])C2([H])[H])c1[H])C([H])([H])Oc1c([H])c([H])c2c(c1[H])C([H])([H])N(C(=O)C([H])(N([H])C(=O)C([H])(N([H])C([H])([H])[H])C([H])([H])[H])C(C([H])([H])[H])(C([H])([H])[H])C([H])([H])[H])C([H])(C(=O)N([H])C1([H])c3c([H])c([H])c([H])c([H])c3C([H])([H])C([H])([H])C1([H])[H])C2([H])[H]

$$$$
62:0:0
     RDKit          3D

 93101  0  0  1  0  0  0  0  0999 V2000
  -29.3520  -22.7480   20.8610 C   0  0  0  0  0  2  0  0  0  0  0  0
  -31.7340  -23.5710   20.6530 C   0  0  0  0  0  1  0  0  0  0  0  0
  -30.3600  -24.2250   22.6470 C   0  0  0  0  0  1  0  0  0  0  0  0
  -30.3120  -23.9260   21.1350 C   0  0  2  0  0  0  0  0  0  0  0  0
  -29.8510  -25.1810   20.3560 C   0  0  0  0  0  2  0  0  0  0  0  0
  -28.3810  -25.6040   20.5330 C   0  0  0  0  0  2  0  0  0  0  0  0
  -28.2870  -26.8840   19.9390 O   0  0  0  0  0  0  0  0  0  0  0  0
  -24.5080  -31.9250   23.1920 C   0  0  0  0  0  0  0  0  0  0  0  0
  -27.0820  -27.5250   20.0410 C   0  0  0  0  0  0  0  0  0  0  0  0
  -23.2640  -30.5450   21.5560 C   0  0  0  0  0  3  0  0  0  0  0  0
  -24.6830  -28.9990   20.1100 C   0  0  0  0  0  0  0  0  0  0  0  0
  -25.7820  -30.8970   21.3190 C   0  0  0  0  0  2  0  0  0  0  0  0
  -25.8490  -29.5290   20.6780 C   0  0  0  0  0  0  0  0  0  0  0  0
  -27.0500  -28.7980   20.6400 C   0  0  0  0  0  3  0  0  0  0  0  0
  -25.9020  -26.9850   19.4860 C   0  0  0  0  0  3  0  0  0  0  0  0
  -24.7010  -27.7220   19.5180 C   0  0  0  0  0  3  0  0  0  0  0  0
  -23.4460  -29.8650   20.1710 C   0  0  0  0  0  2  0  0  0  0  0  0
  -24.5360  -31.1360   22.0810 N   0  0  0  0  0  0  0  0  0  0  0  0
  -23.4370  -32.2020   23.7500 O   0  0  0  0  0  0  0  0  0  0  0  0
  -22.6190  -29.5250   22.5190 C   0  0  0  0  0  0  0  0  0  0  0  0
  -21.2920  -29.3570   22.4080 N   0  0  0  0  0  0  0  0  0  0  0  0
  -23.3080  -28.8840   23.3170 O   0  0  0  0  0  0  0  0  0  0  0  0
  -20.7970  -29.9240   21.7320 H   0  0  0  0  0  0  0  0  0  0  0  0
  -17.9130  -28.1980   22.9360 C   0  0  0  0  0  0  0  0  0  0  0  0
  -20.4760  -28.4220   23.1800 C   0  0  0  0  0  3  0  0  0  0  0  0
  -20.5550  -26.9960   22.5910 C   0  0  0  0  0  2  0  0  0  0  0  0
  -19.4380  -26.6940   21.5870 C   0  0  0  0  0  2  0  0  0  0  0  0
  -18.0650  -26.8520   22.2480 C   0  0  0  0  0  2  0  0  0  0  0  0
  -19.0450  -28.9430   23.3590 C   0  0  0  0  0  0  0  0  0  0  0  0
  -18.8490  -30.2060   23.9590 C   0  0  0  0  0  3  0  0  0  0  0  0
  -17.5540  -30.7230   24.1430 C   0  0  0  0  0  3  0  0  0  0  0  0
  -16.4350  -29.9740   23.7360 C   0  0  0  0  0  3  0  0  0  0  0  0
  -16.6150  -28.7140   23.1390 C   0  0  0  0  0  3  0  0  0  0  0  0
  -25.8100  -32.5370   23.7980 C   0  0  0  0  0  3  0  0  0  0  0  0
  -25.5240  -33.9370   24.1370 N   0  0  0  0  0  0  0  0  0  0  0  0
  -25.8780  -34.9870   23.3860 C   0  0  0  0  0  0  0  0  0  0  0  0
  -26.5530  -34.8790   22.3570 O   0  0  0  0  0  0  0  0  0  0  0  0
  -24.9270  -34.0950   24.9350 H   0  0  0  0  0  0  0  0  0  0  0  0
  -24.1950  -36.8190   23.0160 C   0  0  0  0  0  1  0  0  0  0  0  0
  -25.4100  -36.3800   23.8480 C   0  0  0  0  0  3  0  0  0  0  0  0
  -27.5450  -37.2110   24.7330 C   0  0  0  0  0  1  0  0  0  0  0  0
  -26.4660  -37.4120   23.7680 N   0  0  0  0  0  0  0  0  0  0  0  0
  -26.0770  -38.3390   23.9190 H   0  0  0  0  0  0  0  0  0  0  0  0
  -26.3370  -31.7510   25.0610 C   0  0  1  0  0  0  0  0  0  0  0  0
  -25.2580  -31.5160   26.1430 C   0  0  0  0  0  1  0  0  0  0  0  0
  -26.9010  -30.3720   24.6470 C   0  0  0  0  0  1  0  0  0  0  0  0
  -27.5060  -32.5280   25.7120 C   0  0  0  0  0  1  0  0  0  0  0  0
  -29.9100  -21.5270   21.3450 O   0  0  0  0  0  0  0  0  0  0  0  0
  -29.7840  -19.2590   18.3900 C   0  0  0  0  0  3  0  0  0  0  0  0
  -29.8950  -20.4490   19.1260 C   0  0  0  0  0  3  0  0  0  0  0  0
  -29.7950  -19.1650   21.1810 C   0  0  0  0  0  3  0  0  0  0  0  0
  -29.6940  -17.9530   20.4640 C   0  0  0  0  0  0  0  0  0  0  0  0
  -29.6590  -18.0130   19.0380 C   0  0  0  0  0  0  0  0  0  0  0  0
  -29.8580  -20.4130   20.5380 C   0  0  0  0  0  0  0  0  0  0  0  0
  -29.4430  -16.7990   18.1480 C   0  0  0  0  0  1  0  0  0  0  0  0
  -29.6680  -16.7190   21.3130 C   0  0  0  0  0  3  0  0  0  0  0  0
  -30.0890  -15.4360   21.1470 C   0  0  0  0  0  3  0  0  0  0  0  0
  -30.8250  -14.4660   20.3370 C   0  0  0  0  0  0  0  0  0  0  0  0
  -30.4820  -12.3820   19.0640 C   0  0  0  0  0  2  0  0  0  0  0  0
  -29.5150  -12.6740   17.8980 C   0  0  0  0  0  2  0  0  0  0  0  0
  -28.0450  -12.5400   18.3500 C   0  0  0  0  0  2  0  0  0  0  0  0
  -27.7520  -13.3040   19.6700 C   0  0  0  0  0  3  0  0  0  0  0  0
  -28.8240  -12.9780   20.7300 C   0  0  0  0  0  2  0  0  0  0  0  0
  -30.1460  -13.3000   20.1590 N   0  0  0  0  0  0  0  0  0  0  0  0
  -31.9350  -14.6700   19.8160 O   0  0  0  0  0  0  0  0  0  0  0  0
  -25.3600  -13.9180   20.4040 C   0  0  0  0  0  0  0  0  0  0  0  0
  -24.2970  -13.1460   20.7900 C   0  0  0  0  0  0  0  0  0  0  0  0
  -24.7580  -11.7950   20.7550 C   0  0  0  0  0  0  0  0  0  0  0  0
  -26.4020  -13.0360   20.1630 N   0  0  0  0  0  0  0  0  0  0  0  0
  -26.0430  -11.7540   20.4260 N   0  0  0  0  0  0  0  0  0  0  0  0
  -24.0380  -10.5320   20.9580 C   0  0  0  0  0  0  0  0  0  0  0  0
  -24.4800   -9.5770   21.9000 C   0  0  0  0  0  3  0  0  0  0  0  0
  -23.7620   -8.3750   22.0890 C   0  0  0  0  0  3  0  0  0  0  0  0
  -22.5900   -8.1230   21.3380 C   0  0  0  0  0  0  0  0  0  0  0  0
  -22.1680   -9.0680   20.3870 C   0  0  0  0  0  3  0  0  0  0  0  0
  -22.8870  -10.2600   20.1940 C   0  0  0  0  0  3  0  0  0  0  0  0
  -21.8420   -6.9750   21.4380 O   0  0  0  0  0  0  0  0  0  0  0  0
  -21.7850   -6.2530   22.6030 C   0  0  0  0  0  0  0  0  0  0  0  0
  -21.3290   -6.8230   23.8110 C   0  0  0  0  0  3  0  0  0  0  0  0
  -21.2170   -6.0260   24.9680 C   0  0  0  0  0  3  0  0  0  0  0  0
  -21.5530   -4.6600   24.9180 C   0  0  0  0  0  0  0  0  0  0  0  0
  -22.0010   -4.0890   23.7140 C   0  0  0  0  0  3  0  0  0  0  0  0
  -22.1130   -4.8830   22.5590 C   0  0  0  0  0  0  0  0  0  0  0  0
  -22.5260   -4.3230   21.3960 F   0  0  0  0  0  0  0  0  0  0  0  0
  -21.4390   -3.8920   26.0270 F   0  0  0  0  0  0  0  0  0  0  0  0
  -22.9030  -13.6220   21.0830 C   0  0  0  0  0  0  0  0  0  0  0  0
  -22.1880  -12.9260   21.9610 N   0  0  0  0  0  0  0  0  0  0  0  0
  -22.4550  -14.6460   20.5690 O   0  0  0  0  0  0  0  0  0  0  0  0
  -22.5640  -12.1000   22.4020 H   0  0  0  0  0  0  0  0  0  0  0  0
  -21.2520  -13.2250   22.1950 H   0  0  0  0  0  0  0  0  0  0  0  0
  -25.5250  -15.2890   20.2240 N   0  0  0  0  0  0  0  0  0  0  0  0
  -24.7690  -15.9520   20.3560 H   0  0  0  0  0  0  0  0  0  0  0  0
  -26.3920  -15.7280   19.9400 H   0  0  0  0  0  0  0  0  0  0  0  0
  1  4  1  0
  1 48  1  0
  4  2  1  6
  4  3  1  0
  5  6  1  0
  5  4  1  0
  7  9  1  0
  7  6  1  0
  8 19  2  0
  9 14  1  0
 10 18  1  0
 10 20  1  0
 11 17  1  0
 11 13  1  0
 12 18  1  0
 13 12  1  0
 14 13  2  0
 15 16  1  0
 15  9  2  0
 16 11  2  0
 17 10  1  0
 18  8  1  0
 20 22  2  0
 21 20  1  0
 23 21  1  0
 24 33  2  0
 24 29  1  0
 25 21  1  0
 25 29  1  0
 26 25  1  0
 27 28  1  0
 27 26  1  0
 28 24  1  0
 29 30  2  0
 30 31  1  0
 32 31  2  0
 33 32  1  0
 34  8  1  0
 34 35  1  0
 34 44  1  0
 35 38  1  0
 36 40  1  0
 36 35  1  0
 37 36  2  0
 40 39  1  0
 42 40  1  0
 42 43  1  0
 42 41  1  0
 44 47  1  1
 44 45  1  0
 46 44  1  0
 49 53  2  0
 49 50  1  0
 50 54  2  0
 52 51  2  0
 52 56  1  0
 53 52  1  0
 54 51  1  0
 54 48  1  0
 55 53  1  0
 57 56  2  0
 58 57  1  0
 59 64  1  0
 60 61  1  0
 60 59  1  0
 62 61  1  0
 62 69  1  0
 62 63  1  0
 64 58  1  0
 64 63  1  0
 65 58  2  0
 66 67  2  0
 67 86  1  0
 68 67  1  0
 68 71  1  0
 69 66  1  0
 69 70  1  0
 70 68  2  0
 71 72  1  0
 72 73  2  0
 74 77  1  0
 74 73  1  0
 75 74  2  0
 76 75  1  0
 76 71  2  0
 77 78  1  0
 78 79  1  0
 79 80  2  0
 81 80  1  0
 81 85  1  0
 82 81  2  0
 83 78  2  0
 83 82  1  0
 84 83  1  0
 86 87  1  0
 87 90  1  0
 87 89  1  0
 88 86  2  0
 91 92  1  0
 91 66  1  0
 93 91  1  0
M  ISO  4   6 101   7 101  57 100  58 100
M  END
>  <TORSDO>  (63) 
F 22

>  <SCORE>  (63) 
-12.360

>  <name>  (63) 
62

>  <ligand_id>  (63) 
62

>  <original_smiles>  (63) 
[H]C(C(=O)N1C([H])([H])C([H])([H])C([H])([H])C([H])(n2nc(-c3c([H])c([H])c(Oc4c([H])c([H])c(F)c([H])c4F)c([H])c3[H])c(C(=O)N([H])[H])c2N([H])[H])C1([H])[H])=C([H])c1c([H])c(OC([H])([H])C(C([H])([H])[H])(C([H])([H])[H])C([H])([H])C([H])([H])Oc2c([H])c([H])c3c(c2[H])C([H])([H])N(C(=O)C([H])(N([H])C(=O)C([H])(N([H])C([H])([H])[H])C([H])([H])[H])C(C([H])([H])[H])(C([H])([H])[H])C([H])([H])[H])C([H])(C(=O)N([H])C2([H])c4c([H])c([H])c([H])c([H])c4C([H])([H])C([H])([H])C2([H])[H])C3([H])[H])c([H])c([H])c1C([H])([H])[H]

>  <smiles>  (63) 
[H]C(C(=O)N1C([H])([H])C([H])([H])C([H])([H])C([H])(n2nc(-c3c([H])c([H])c(Oc4c([H])c([H])c(F)c([H])c4F)c([H])c3[H])c(C(=O)N([H])[H])c2N([H])[H])C1([H])[H])=C([H])c1c([H])c(OC([H])([H])C(C([H])([H])[H])(C([H])([H])[H])C([H])([H])C([H])([H])Oc2c([H])c([H])c3c(c2[H])C([H])([H])N(C(=O)C([H])(N([H])C(=O)C([H])(N([H])C([H])([H])[H])C([H])([H])[H])C(C([H])([H])[H])(C([H])([H])[H])C([H])([H])[H])C([H])(C(=O)N([H])C2([H])c4c([H])c([H])c([H])c([H])c4C([H])([H])C([H])([H])C2([H])[H])C3([H])[H])c([H])c([H])c1C([H])([H])[H]

$$$$
63:0:0
     RDKit          3D

 94102  0  0  1  0  0  0  0  0999 V2000
  -28.7800  -21.0970   19.3680 C   0  0  0  0  0  0  0  0  0  0  0  0
  -28.3730  -20.1920   18.5750 N   0  0  0  0  0  0  0  0  0  0  0  0
  -28.1210  -20.6080   17.6860 H   0  0  0  0  0  0  0  0  0  0  0  0
  -28.8220  -22.5850   18.9080 C   0  0  0  0  0  0  0  0  0  0  0  0
  -29.1840  -22.8120   17.7470 O   0  0  0  0  0  0  0  0  0  0  0  0
  -28.3440  -23.8030   19.7760 C   0  0  0  0  0  2  0  0  0  0  0  0
  -28.3260  -25.1780   18.9780 C   0  0  0  0  0  2  0  0  0  0  0  0
  -28.2890  -26.4680   19.6710 O   0  0  0  0  0  0  0  0  0  0  0  0
  -24.8100  -31.6680   23.1460 C   0  0  0  0  0  0  0  0  0  0  0  0
  -27.1520  -27.2740   19.7050 C   0  0  0  0  0  0  0  0  0  0  0  0
  -23.4930  -30.4050   21.4850 C   0  0  0  0  0  3  0  0  0  0  0  0
  -24.8280  -28.9110   19.9040 C   0  0  0  0  0  0  0  0  0  0  0  0
  -26.0250  -30.6800   21.1980 C   0  0  0  0  0  2  0  0  0  0  0  0
  -26.0330  -29.3460   20.4680 C   0  0  0  0  0  0  0  0  0  0  0  0
  -27.1960  -28.5380   20.3590 C   0  0  0  0  0  3  0  0  0  0  0  0
  -25.9190  -26.8670   19.1480 C   0  0  0  0  0  3  0  0  0  0  0  0
  -24.7700  -27.6740   19.2410 C   0  0  0  0  0  3  0  0  0  0  0  0
  -23.6220  -29.8110   20.0580 C   0  0  0  0  0  2  0  0  0  0  0  0
  -24.7990  -30.9320   21.9980 N   0  0  0  0  0  0  0  0  0  0  0  0
  -23.7620  -31.9410   23.7530 O   0  0  0  0  0  0  0  0  0  0  0  0
  -22.8520  -29.3450   22.4150 C   0  0  0  0  0  0  0  0  0  0  0  0
  -21.5190  -29.1960   22.3300 N   0  0  0  0  0  0  0  0  0  0  0  0
  -23.5510  -28.6630   23.1700 O   0  0  0  0  0  0  0  0  0  0  0  0
  -21.0150  -29.8090   21.7010 H   0  0  0  0  0  0  0  0  0  0  0  0
  -18.1520  -27.9780   22.8220 C   0  0  0  0  0  0  0  0  0  0  0  0
  -20.7110  -28.2250   23.0680 C   0  0  0  0  0  3  0  0  0  0  0  0
  -20.8070  -26.8160   22.4370 C   0  0  0  0  0  2  0  0  0  0  0  0
  -19.6900  -26.5320   21.4250 C   0  0  0  0  0  2  0  0  0  0  0  0
  -18.3150  -26.6570   22.0920 C   0  0  0  0  0  2  0  0  0  0  0  0
  -19.2760  -28.7230   23.2650 C   0  0  0  0  0  0  0  0  0  0  0  0
  -19.0700  -29.9650   23.9040 C   0  0  0  0  0  3  0  0  0  0  0  0
  -17.7680  -30.4640   24.1040 C   0  0  0  0  0  3  0  0  0  0  0  0
  -16.6580  -29.7120   23.6800 C   0  0  0  0  0  3  0  0  0  0  0  0
  -16.8500  -28.4720   23.0450 C   0  0  0  0  0  3  0  0  0  0  0  0
  -26.1400  -32.2290   23.7440 C   0  0  0  0  0  3  0  0  0  0  0  0
  -25.8680  -33.5860   24.2380 N   0  0  0  0  0  0  0  0  0  0  0  0
  -26.1730  -34.7120   23.5760 C   0  0  0  0  0  0  0  0  0  0  0  0
  -26.7810  -34.7150   22.5020 O   0  0  0  0  0  0  0  0  0  0  0  0
  -25.3210  -33.6590   25.0830 H   0  0  0  0  0  0  0  0  0  0  0  0
  -24.4460  -36.5410   23.5170 C   0  0  0  0  0  1  0  0  0  0  0  0
  -25.7290  -36.0480   24.2060 C   0  0  0  0  0  3  0  0  0  0  0  0
  -27.9200  -36.8260   24.9960 C   0  0  0  0  0  1  0  0  0  0  0  0
  -26.7670  -37.1000   24.1440 N   0  0  0  0  0  0  0  0  0  0  0  0
  -26.3820  -38.0010   24.4100 H   0  0  0  0  0  0  0  0  0  0  0  0
  -26.7340  -31.3270   24.8940 C   0  0  1  0  0  0  0  0  0  0  0  0
  -25.7100  -30.9770   26.0010 C   0  0  0  0  0  1  0  0  0  0  0  0
  -27.2810  -29.9970   24.3220 C   0  0  0  0  0  1  0  0  0  0  0  0
  -27.9330  -32.0450   25.5600 C   0  0  0  0  0  1  0  0  0  0  0  0
  -29.2720  -20.6790   20.7710 C   0  0  0  0  0  2  0  0  0  0  0  0
  -30.1540  -18.9990   22.4310 C   0  0  0  0  0  3  0  0  0  0  0  0
  -31.2940  -16.8950   21.9130 C   0  0  0  0  0  3  0  0  0  0  0  0
  -30.4070  -18.3060   20.1210 C   0  0  0  0  0  3  0  0  0  0  0  0
  -30.8020  -17.8210   22.8530 C   0  0  0  0  0  0  0  0  0  0  0  0
  -29.9570  -19.2920   21.0640 C   0  0  0  0  0  0  0  0  0  0  0  0
  -31.0610  -17.0880   20.5310 C   0  0  0  0  0  0  0  0  0  0  0  0
  -30.9280  -17.5490   24.3390 C   0  0  0  0  0  1  0  0  0  0  0  0
  -32.0580  -14.8800   19.6930 C   0  0  0  0  0  0  0  0  0  0  0  0
  -31.5150  -12.7300   18.5960 C   0  0  0  0  0  2  0  0  0  0  0  0
  -30.4900  -13.0040   17.4730 C   0  0  0  0  0  2  0  0  0  0  0  0
  -29.0500  -12.9870   18.0250 C   0  0  0  0  0  2  0  0  0  0  0  0
  -28.8910  -13.8290   19.3180 C   0  0  0  0  0  3  0  0  0  0  0  0
  -30.0180  -13.5270   20.3230 C   0  0  0  0  0  2  0  0  0  0  0  0
  -31.2920  -13.7530   19.6320 N   0  0  0  0  0  0  0  0  0  0  0  0
  -33.2360  -14.8690   19.3290 O   0  0  0  0  0  0  0  0  0  0  0  0
  -31.3800  -16.0560   19.5670 N   0  0  0  0  0  0  0  0  0  0  0  0
  -31.6000  -16.4650   18.6660 H   0  0  0  0  0  0  0  0  0  0  0  0
  -26.6740  -14.6370   20.3290 C   0  0  0  0  0  0  0  0  0  0  0  0
  -25.5580  -13.9610   20.7480 C   0  0  0  0  0  0  0  0  0  0  0  0
  -25.8490  -12.5740   20.5740 C   0  0  0  0  0  0  0  0  0  0  0  0
  -27.5740  -13.6660   19.9250 N   0  0  0  0  0  0  0  0  0  0  0  0
  -27.0890  -12.4140   20.1270 N   0  0  0  0  0  0  0  0  0  0  0  0
  -24.9950  -11.3900   20.7440 C   0  0  0  0  0  0  0  0  0  0  0  0
  -25.3520  -10.3440   21.6210 C   0  0  0  0  0  3  0  0  0  0  0  0
  -24.5050   -9.2260   21.7830 C   0  0  0  0  0  3  0  0  0  0  0  0
  -23.2870   -9.1480   21.0670 C   0  0  0  0  0  0  0  0  0  0  0  0
  -22.9500  -10.1820   20.1750 C   0  0  0  0  0  3  0  0  0  0  0  0
  -23.7970  -11.2910   20.0120 C   0  0  0  0  0  3  0  0  0  0  0  0
  -22.4160   -8.0890   21.1380 O   0  0  0  0  0  0  0  0  0  0  0  0
  -22.2340   -7.3860   22.3020 C   0  0  0  0  0  0  0  0  0  0  0  0
  -21.8690   -8.0210   23.5100 C   0  0  0  0  0  3  0  0  0  0  0  0
  -21.6250   -7.2520   24.6650 C   0  0  0  0  0  3  0  0  0  0  0  0
  -21.7370   -5.8500   24.6140 C   0  0  0  0  0  0  0  0  0  0  0  0
  -22.0960   -5.2140   23.4120 C   0  0  0  0  0  3  0  0  0  0  0  0
  -22.3400   -5.9810   22.2600 C   0  0  0  0  0  0  0  0  0  0  0  0
  -22.6640   -5.3630   21.0980 F   0  0  0  0  0  0  0  0  0  0  0  0
  -21.4940   -5.1090   25.7210 F   0  0  0  0  0  0  0  0  0  0  0  0
  -24.2610  -14.5700   21.1970 C   0  0  0  0  0  0  0  0  0  0  0  0
  -23.5810  -13.9290   22.1410 N   0  0  0  0  0  0  0  0  0  0  0  0
  -23.8690  -15.6470   20.7480 O   0  0  0  0  0  0  0  0  0  0  0  0
  -23.9140  -13.0550   22.5240 H   0  0  0  0  0  0  0  0  0  0  0  0
  -22.7130  -14.3160   22.4870 H   0  0  0  0  0  0  0  0  0  0  0  0
  -26.9870  -15.9900   20.2380 N   0  0  0  0  0  0  0  0  0  0  0  0
  -26.3370  -16.7210   20.4990 H   0  0  0  0  0  0  0  0  0  0  0  0
  -27.8790  -16.3470   19.9190 H   0  0  0  0  0  0  0  0  0  0  0  0
  1 49  1  0
  2  1  2  0
  3  2  1  0
  4  1  1  0
  4  6  1  0
  5  4  2  0
  7  8  1  0
  7  6  1  0
  8 10  1  0
  9 20  2  0
 10 15  1  0
 11 19  1  0
 11 21  1  0
 12 18  1  0
 12 14  1  0
 13 19  1  0
 14 13  1  0
 15 14  2  0
 16 17  1  0
 16 10  2  0
 17 12  2  0
 18 11  1  0
 19  9  1  0
 21 23  2  0
 22 21  1  0
 24 22  1  0
 25 34  2  0
 25 30  1  0
 26 22  1  0
 26 30  1  0
 27 26  1  0
 28 29  1  0
 28 27  1  0
 29 25  1  0
 30 31  2  0
 31 32  1  0
 33 32  2  0
 34 33  1  0
 35  9  1  0
 35 36  1  0
 35 45  1  0
 36 39  1  0
 37 41  1  0
 37 36  1  0
 38 37  2  0
 41 40  1  0
 43 41  1  0
 43 44  1  0
 43 42  1  0
 45 48  1  1
 45 46  1  0
 47 45  1  0
 49 54  1  0
 50 53  1  0
 51 53  2  0
 52 55  2  0
 52 54  1  0
 53 56  1  0
 54 50  2  0
 55 51  1  0
 58 63  1  0
 59 60  1  0
 59 58  1  0
 61 60  1  0
 61 70  1  0
 61 62  1  0
 63 57  1  0
 63 62  1  0
 64 57  2  0
 65 57  1  0
 65 55  1  0
 66 65  1  0
 67 68  2  0
 68 87  1  0
 69 72  1  0
 69 68  1  0
 70 71  1  0
 70 67  1  0
 71 69  2  0
 72 73  1  0
 73 74  2  0
 75 78  1  0
 75 74  1  0
 76 75  2  0
 77 76  1  0
 77 72  2  0
 78 79  1  0
 79 80  1  0
 80 81  2  0
 82 81  1  0
 82 86  1  0
 83 82  2  0
 84 79  2  0
 84 83  1  0
 85 84  1  0
 87 88  1  0
 88 91  1  0
 88 90  1  0
 89 87  2  0
 92 67  1  0
 92 93  1  0
 94 92  1  0
M  ISO  4   7 101   8 101  57 100  65 100
M  END
>  <TORSDO>  (64) 
F 21

>  <SCORE>  (64) 
-8.390

>  <name>  (64) 
63

>  <ligand_id>  (64) 
63

>  <original_smiles>  (64) 
[H]N=C(C(=O)C([H])([H])C([H])([H])Oc1c([H])c([H])c2c(c1[H])C([H])([H])N(C(=O)C([H])(N([H])C(=O)C([H])(N([H])C([H])([H])[H])C([H])([H])[H])C(C([H])([H])[H])(C([H])([H])[H])C([H])([H])[H])C([H])(C(=O)N([H])C1([H])c3c([H])c([H])c([H])c([H])c3C([H])([H])C([H])([H])C1([H])[H])C2([H])[H])C([H])([H])c1c([H])c(N([H])C(=O)N2C([H])([H])C([H])([H])C([H])([H])C([H])(n3nc(-c4c([H])c([H])c(Oc5c([H])c([H])c(F)c([H])c5F)c([H])c4[H])c(C(=O)N([H])[H])c3N([H])[H])C2([H])[H])c([H])c(C([H])([H])[H])c1[H]

>  <smiles>  (64) 
[H]N=C(C(=O)C([H])([H])C([H])([H])Oc1c([H])c([H])c2c(c1[H])C([H])([H])N(C(=O)C([H])(N([H])C(=O)C([H])(N([H])C([H])([H])[H])C([H])([H])[H])C(C([H])([H])[H])(C([H])([H])[H])C([H])([H])[H])C([H])(C(=O)N([H])C1([H])c3c([H])c([H])c([H])c([H])c3C([H])([H])C([H])([H])C1([H])[H])C2([H])[H])C([H])([H])c1c([H])c(N([H])C(=O)N2C([H])([H])C([H])([H])C([H])([H])C([H])(n3nc(-c4c([H])c([H])c(Oc5c([H])c([H])c(F)c([H])c5F)c([H])c4[H])c(C(=O)N([H])[H])c3N([H])[H])C2([H])[H])c([H])c(C([H])([H])[H])c1[H]

$$$$
64:0:0
     RDKit          3D

 96104  0  0  1  0  0  0  0  0999 V2000
  -27.0130  -21.7760   20.8360 C   0  0  0  0  0  1  0  0  0  0  0  0
  -28.0260  -22.9380   20.5460 C   0  0  1  0  0  0  0  0  0  0  0  0
  -28.0030  -23.4490   17.9930 C   0  0  0  0  0  1  0  0  0  0  0  0
  -25.9770  -24.0300   19.3390 C   0  0  0  0  0  1  0  0  0  0  0  0
  -27.5400  -23.9740   19.3720 C   0  0  1  0  0  0  0  0  0  0  0  0
  -28.0980  -25.4820   19.4960 C   0  0  0  0  0  2  0  0  0  0  0  0
  -27.7980  -26.5480   18.5170 O   0  0  0  0  0  0  0  0  0  0  0  0
  -24.6580  -31.4040   22.8200 C   0  0  0  0  0  0  0  0  0  0  0  0
  -26.7390  -27.4090   18.7820 C   0  0  0  0  0  0  0  0  0  0  0  0
  -23.2230  -30.2940   21.1450 C   0  0  0  0  0  3  0  0  0  0  0  0
  -24.4440  -28.9970   19.3190 C   0  0  0  0  0  0  0  0  0  0  0  0
  -25.7270  -30.6250   20.7030 C   0  0  0  0  0  2  0  0  0  0  0  0
  -25.6870  -29.3670   19.8530 C   0  0  0  0  0  0  0  0  0  0  0  0
  -26.8390  -28.5730   19.5940 C   0  0  0  0  0  3  0  0  0  0  0  0
  -25.5050  -27.1510   18.1660 C   0  0  0  0  0  3  0  0  0  0  0  0
  -24.3500  -27.8880   18.4700 C   0  0  0  0  0  3  0  0  0  0  0  0
  -23.2450  -29.8550   19.6590 C   0  0  0  0  0  2  0  0  0  0  0  0
  -24.5590  -30.7860   21.6090 N   0  0  0  0  0  0  0  0  0  0  0  0
  -23.6600  -31.5960   23.5270 O   0  0  0  0  0  0  0  0  0  0  0  0
  -22.6650  -29.1350   22.0050 C   0  0  0  0  0  0  0  0  0  0  0  0
  -21.3360  -28.9480   21.9800 N   0  0  0  0  0  0  0  0  0  0  0  0
  -23.4240  -28.4160   22.6610 O   0  0  0  0  0  0  0  0  0  0  0  0
  -20.7780  -29.5810   21.4230 H   0  0  0  0  0  0  0  0  0  0  0  0
  -18.0360  -27.6030   22.5820 C   0  0  0  0  0  0  0  0  0  0  0  0
  -20.6000  -27.9030   22.6930 C   0  0  0  0  0  3  0  0  0  0  0  0
  -20.6880  -26.5540   21.9380 C   0  0  0  0  0  2  0  0  0  0  0  0
  -19.5180  -26.3210   20.9780 C   0  0  0  0  0  2  0  0  0  0  0  0
  -18.1880  -26.3480   21.7360 C   0  0  0  0  0  2  0  0  0  0  0  0
  -19.1670  -28.3400   23.0190 C   0  0  0  0  0  0  0  0  0  0  0  0
  -18.9670  -29.5170   23.7730 C   0  0  0  0  0  3  0  0  0  0  0  0
  -17.6710  -29.9550   24.0950 C   0  0  0  0  0  3  0  0  0  0  0  0
  -16.5540  -29.2080   23.6790 C   0  0  0  0  0  3  0  0  0  0  0  0
  -16.7370  -28.0360   22.9250 C   0  0  0  0  0  3  0  0  0  0  0  0
  -26.0280  -31.9220   23.3600 C   0  0  0  0  0  3  0  0  0  0  0  0
  -25.7870  -33.2270   23.9890 N   0  0  0  0  0  0  0  0  0  0  0  0
  -26.0790  -34.4080   23.4270 C   0  0  0  0  0  0  0  0  0  0  0  0
  -26.6520  -34.5080   22.3390 O   0  0  0  0  0  0  0  0  0  0  0  0
  -25.2640  -33.2220   24.8530 H   0  0  0  0  0  0  0  0  0  0  0  0
  -24.3810  -36.2570   23.5910 C   0  0  0  0  0  1  0  0  0  0  0  0
  -25.6710  -35.6800   24.1950 C   0  0  0  0  0  3  0  0  0  0  0  0
  -27.8880  -36.3500   25.0080 C   0  0  0  0  0  1  0  0  0  0  0  0
  -26.7220  -36.7200   24.2110 N   0  0  0  0  0  0  0  0  0  0  0  0
  -26.3550  -37.5980   24.5700 H   0  0  0  0  0  0  0  0  0  0  0  0
  -26.7080  -30.9290   24.3800 C   0  0  1  0  0  0  0  0  0  0  0  0
  -25.7780  -30.4860   25.5340 C   0  0  0  0  0  1  0  0  0  0  0  0
  -27.2020  -29.6540   23.6580 C   0  0  0  0  0  1  0  0  0  0  0  0
  -27.9570  -31.5950   25.0010 C   0  0  0  0  0  1  0  0  0  0  0  0
  -27.0870  -24.6490   22.3690 C   0  0  0  0  0  1  0  0  0  0  0  0
  -28.2080  -23.6980   21.9000 C   0  0  0  0  0  2  0  0  0  0  0  0
  -29.4190  -22.1930   20.2830 C   0  0  0  0  0  2  0  0  0  0  0  0
  -29.3360  -20.8140   19.7250 N   0  0  0  0  0  0  0  0  0  0  0  0
  -28.4070  -20.5660   19.3960 H   0  0  0  0  0  0  0  0  0  0  0  0
  -32.1270  -18.9210   21.3690 C   0  0  0  0  0  3  0  0  0  0  0  0
  -31.7280  -17.5830   21.1730 C   0  0  0  0  0  3  0  0  0  0  0  0
  -31.3350  -19.9860   20.8940 C   0  0  0  0  0  3  0  0  0  0  0  0
  -29.7240  -18.3740   20.0370 C   0  0  0  0  0  3  0  0  0  0  0  0
  -30.5260  -17.2790   20.4970 C   0  0  0  0  0  0  0  0  0  0  0  0
  -30.1200  -19.7370   20.2210 C   0  0  0  0  0  0  0  0  0  0  0  0
  -30.8630  -14.8080   20.0770 C   0  0  0  0  0  0  0  0  0  0  0  0
  -30.6170  -12.5210   19.1520 C   0  0  0  0  0  2  0  0  0  0  0  0
  -29.6560  -12.5590   17.9470 C   0  0  0  0  0  2  0  0  0  0  0  0
  -28.1960  -12.4040   18.4150 C   0  0  0  0  0  2  0  0  0  0  0  0
  -27.8420  -13.3570   19.5880 C   0  0  0  0  0  3  0  0  0  0  0  0
  -28.9170  -13.3210   20.6950 C   0  0  0  0  0  2  0  0  0  0  0  0
  -30.2150  -13.6060   20.0660 N   0  0  0  0  0  0  0  0  0  0  0  0
  -32.0160  -14.9270   19.6540 O   0  0  0  0  0  0  0  0  0  0  0  0
  -30.1010  -15.9020   20.3560 N   0  0  0  0  0  0  0  0  0  0  0  0
  -29.1150  -15.7250   20.4560 H   0  0  0  0  0  0  0  0  0  0  0  0
  -25.4850  -13.9810   20.4040 C   0  0  0  0  0  0  0  0  0  0  0  0
  -24.4220  -13.2160   20.8040 C   0  0  0  0  0  0  0  0  0  0  0  0
  -24.8650  -11.8610   20.7370 C   0  0  0  0  0  0  0  0  0  0  0  0
  -26.5090  -13.0910   20.1210 N   0  0  0  0  0  0  0  0  0  0  0  0
  -26.1420  -11.8090   20.3800 N   0  0  0  0  0  0  0  0  0  0  0  0
  -24.1300  -10.6040   20.9350 C   0  0  0  0  0  0  0  0  0  0  0  0
  -24.5410   -9.6510   21.8910 C   0  0  0  0  0  3  0  0  0  0  0  0
  -23.8060   -8.4600   22.0780 C   0  0  0  0  0  3  0  0  0  0  0  0
  -22.6450   -8.2150   21.3040 C   0  0  0  0  0  0  0  0  0  0  0  0
  -22.2550   -9.1580   20.3380 C   0  0  0  0  0  3  0  0  0  0  0  0
  -22.9890  -10.3400   20.1510 C   0  0  0  0  0  3  0  0  0  0  0  0
  -21.8860   -7.0750   21.3940 O   0  0  0  0  0  0  0  0  0  0  0  0
  -21.7700   -6.3790   22.5700 C   0  0  0  0  0  0  0  0  0  0  0  0
  -21.2440   -6.9700   23.7400 C   0  0  0  0  0  3  0  0  0  0  0  0
  -21.0810   -6.1990   24.9070 C   0  0  0  0  0  3  0  0  0  0  0  0
  -21.4340   -4.8350   24.9040 C   0  0  0  0  0  0  0  0  0  0  0  0
  -21.9530   -4.2430   23.7390 C   0  0  0  0  0  3  0  0  0  0  0  0
  -22.1180   -5.0130   22.5750 C   0  0  0  0  0  0  0  0  0  0  0  0
  -22.5990   -4.4320   21.4480 F   0  0  0  0  0  0  0  0  0  0  0  0
  -21.2700   -4.0910   26.0230 F   0  0  0  0  0  0  0  0  0  0  0  0
  -23.0420  -13.7080   21.1330 C   0  0  0  0  0  0  0  0  0  0  0  0
  -22.3320  -13.0070   22.0080 N   0  0  0  0  0  0  0  0  0  0  0  0
  -22.6020  -14.7490   20.6450 O   0  0  0  0  0  0  0  0  0  0  0  0
  -22.6980  -12.1620   22.4220 H   0  0  0  0  0  0  0  0  0  0  0  0
  -21.4090  -13.3240   22.2700 H   0  0  0  0  0  0  0  0  0  0  0  0
  -25.6610  -15.3520   20.2350 N   0  0  0  0  0  0  0  0  0  0  0  0
  -24.9010  -16.0090   20.3720 H   0  0  0  0  0  0  0  0  0  0  0  0
  -26.4930  -15.7840   19.8560 H   0  0  0  0  0  0  0  0  0  0  0  0
  2  1  1  1
  2 49  1  0
  5  3  1  6
  4  5  1  0
  5  6  1  0
  5  2  1  0
  7  9  1  0
  7  6  1  0
  8 19  2  0
  9 14  1  0
 10 18  1  0
 10 20  1  0
 11 17  1  0
 11 13  1  0
 12 18  1  0
 13 12  1  0
 14 13  2  0
 15 16  1  0
 15  9  2  0
 16 11  2  0
 17 10  1  0
 18  8  1  0
 20 22  2  0
 21 20  1  0
 23 21  1  0
 24 33  2  0
 24 29  1  0
 25 21  1  0
 25 29  1  0
 26 25  1  0
 27 28  1  0
 27 26  1  0
 28 24  1  0
 29 30  2  0
 30 31  1  0
 32 31  2  0
 33 32  1  0
 34  8  1  0
 34 35  1  0
 34 44  1  0
 35 38  1  0
 36 35  1  0
 36 40  1  0
 37 36  2  0
 40 39  1  0
 40 42  1  0
 42 43  1  0
 42 41  1  0
 44 47  1  1
 44 45  1  0
 46 44  1  0
 49 48  1  0
 50  2  1  0
 51 58  1  0
 51 50  1  0
 52 51  1  0
 54 53  1  0
 55 53  2  0
 56 58  2  0
 56 57  1  0
 57 54  2  0
 58 55  1  0
 59 67  1  0
 60 65  1  0
 61 62  1  0
 61 60  1  0
 63 62  1  0
 63 72  1  0
 63 64  1  0
 65 59  1  0
 65 64  1  0
 66 59  2  0
 67 68  1  0
 67 57  1  0
 69 70  2  0
 70 89  1  0
 71 70  1  0
 71 74  1  0
 72 73  1  0
 72 69  1  0
 73 71  2  0
 74 75  1  0
 75 76  2  0
 77 80  1  0
 77 76  1  0
 78 77  2  0
 79 78  1  0
 79 74  2  0
 80 81  1  0
 81 86  2  0
 81 82  1  0
 82 83  2  0
 84 83  1  0
 84 88  1  0
 85 84  2  0
 86 85  1  0
 87 86  1  0
 89 90  1  0
 90 93  1  0
 90 92  1  0
 91 89  2  0
 94 95  1  0
 94 69  1  0
 96 94  1  0
M  ISO  4   6 101   7 101  59 100  67 100
M  END
>  <TORSDO>  (65) 
F 22

>  <SCORE>  (65) 
-11.219

>  <name>  (65) 
64

>  <ligand_id>  (65) 
64

>  <original_smiles>  (65) 
[H]c1c([H])c(N([H])C(=O)N2C([H])([H])C([H])([H])C([H])([H])C([H])(n3nc(-c4c([H])c([H])c(Oc5c([H])c([H])c(F)c([H])c5F)c([H])c4[H])c(C(=O)N([H])[H])c3N([H])[H])C2([H])[H])c([H])c(N([H])C([H])([H])C(C([H])([H])[H])(C([H])([H])C([H])([H])[H])C(C([H])([H])[H])(C([H])([H])[H])C([H])([H])Oc2c([H])c([H])c3c(c2[H])C([H])([H])N(C(=O)C([H])(N([H])C(=O)C([H])(N([H])C([H])([H])[H])C([H])([H])[H])C(C([H])([H])[H])(C([H])([H])[H])C([H])([H])[H])C([H])(C(=O)N([H])C2([H])c4c([H])c([H])c([H])c([H])c4C([H])([H])C([H])([H])C2([H])[H])C3([H])[H])c1[H]

>  <smiles>  (65) 
[H]c1c([H])c(N([H])C(=O)N2C([H])([H])C([H])([H])C([H])([H])C([H])(n3nc(-c4c([H])c([H])c(Oc5c([H])c([H])c(F)c([H])c5F)c([H])c4[H])c(C(=O)N([H])[H])c3N([H])[H])C2([H])[H])c([H])c(N([H])C([H])([H])C(C([H])([H])[H])(C([H])([H])C([H])([H])[H])C(C([H])([H])[H])(C([H])([H])[H])C([H])([H])Oc2c([H])c([H])c3c(c2[H])C([H])([H])N(C(=O)C([H])(N([H])C(=O)C([H])(N([H])C([H])([H])[H])C([H])([H])[H])C(C([H])([H])[H])(C([H])([H])[H])C([H])([H])[H])C([H])(C(=O)N([H])C2([H])c4c([H])c([H])c([H])c([H])c4C([H])([H])C([H])([H])C2([H])[H])C3([H])[H])c1[H]

$$$$
65:0:0
     RDKit          3D

103112  0  0  1  0  0  0  0  0999 V2000
  -28.4940  -20.8040   17.9170 C   0  0  0  0  0  3  0  0  0  0  0  0
  -29.4630  -19.9810   18.5200 C   0  0  0  0  0  3  0  0  0  0  0  0
  -28.6540  -22.2000   17.9190 C   0  0  0  0  0  3  0  0  0  0  0  0
  -30.7090  -21.9460   19.2000 C   0  0  0  0  0  3  0  0  0  0  0  0
  -30.5840  -20.5390   19.1900 C   0  0  0  0  0  0  0  0  0  0  0  0
  -29.7850  -22.7730   18.5330 C   0  0  0  0  0  0  0  0  0  0  0  0
  -31.0780  -24.8920   18.6200 C   0  0  0  0  0  0  0  0  0  0  0  0
  -29.9460  -24.1770   18.4790 N   0  0  0  0  0  0  0  0  0  0  0  0
  -32.1990  -24.3940   18.7500 O   0  0  0  0  0  0  0  0  0  0  0  0
  -29.1140  -24.7070   18.2590 H   0  0  0  0  0  0  0  0  0  0  0  0
  -30.9720  -26.4170   18.5670 C   0  0  0  0  0  2  0  0  0  0  0  0
  -29.6180  -28.4800   18.1020 C   0  0  0  0  0  1  0  0  0  0  0  0
  -29.5440  -26.9910   18.5130 C   0  0  0  0  0  3  0  0  0  0  0  0
  -28.9210  -26.7760   19.7940 O   0  0  0  0  0  0  0  0  0  0  0  0
  -24.8010  -31.5770   23.0330 C   0  0  0  0  0  0  0  0  0  0  0  0
  -27.6860  -27.3510   19.9130 C   0  0  0  0  0  0  0  0  0  0  0  0
  -23.6790  -30.1680   21.3340 C   0  0  0  0  0  3  0  0  0  0  0  0
  -25.2210  -28.7070   19.9260 C   0  0  0  0  0  0  0  0  0  0  0  0
  -26.1890  -30.6270   21.2070 C   0  0  0  0  0  2  0  0  0  0  0  0
  -26.3350  -29.2700   20.5590 C   0  0  0  0  0  0  0  0  0  0  0  0
  -27.5640  -28.5860   20.5760 C   0  0  0  0  0  3  0  0  0  0  0  0
  -26.5580  -26.7690   19.3000 C   0  0  0  0  0  3  0  0  0  0  0  0
  -25.3220  -27.4450   19.3060 C   0  0  0  0  0  3  0  0  0  0  0  0
  -23.9460  -29.5160   19.9490 C   0  0  0  0  0  2  0  0  0  0  0  0
  -24.9060  -30.8050   21.9180 N   0  0  0  0  0  0  0  0  0  0  0  0
  -23.7000  -31.8030   23.5530 O   0  0  0  0  0  0  0  0  0  0  0  0
  -23.0490  -29.1060   22.2600 C   0  0  0  0  0  0  0  0  0  0  0  0
  -21.7250  -28.9220   22.1350 N   0  0  0  0  0  0  0  0  0  0  0  0
  -23.7440  -28.4490   23.0400 O   0  0  0  0  0  0  0  0  0  0  0  0
  -21.2260  -29.5010   21.4740 H   0  0  0  0  0  0  0  0  0  0  0  0
  -18.3520  -27.7430   22.6530 C   0  0  0  0  0  0  0  0  0  0  0  0
  -20.9170  -27.9510   22.8720 C   0  0  0  0  0  3  0  0  0  0  0  0
  -20.9860  -26.5550   22.2100 C   0  0  0  0  0  2  0  0  0  0  0  0
  -19.8540  -26.3060   21.2080 C   0  0  0  0  0  2  0  0  0  0  0  0
  -18.4910  -26.4330   21.8960 C   0  0  0  0  0  2  0  0  0  0  0  0
  -19.4920  -28.4630   23.0960 C   0  0  0  0  0  0  0  0  0  0  0  0
  -19.3100  -29.6940   23.7610 C   0  0  0  0  0  3  0  0  0  0  0  0
  -18.0180  -30.2050   23.9900 C   0  0  0  0  0  3  0  0  0  0  0  0
  -16.8920  -29.4800   23.5630 C   0  0  0  0  0  3  0  0  0  0  0  0
  -17.0600  -28.2500   22.9000 C   0  0  0  0  0  3  0  0  0  0  0  0
  -26.0550  -32.2340   23.6950 C   0  0  0  0  0  3  0  0  0  0  0  0
  -26.5950  -31.4300   24.9410 C   0  0  1  0  0  0  0  0  0  0  0  0
  -25.5050  -31.1110   25.9890 C   0  0  0  0  0  1  0  0  0  0  0  0
  -27.2350  -30.0940   24.4980 C   0  0  0  0  0  1  0  0  0  0  0  0
  -27.7130  -32.2390   25.6410 C   0  0  0  0  0  1  0  0  0  0  0  0
  -25.6840  -33.6020   24.0740 N   0  0  0  0  0  0  0  0  0  0  0  0
  -25.9730  -34.6950   23.3560 C   0  0  0  0  0  0  0  0  0  0  0  0
  -26.6510  -34.6620   22.3250 O   0  0  0  0  0  0  0  0  0  0  0  0
  -25.0680  -33.7000   24.8670 H   0  0  0  0  0  0  0  0  0  0  0  0
  -24.1560  -36.4110   23.0670 C   0  0  0  0  0  1  0  0  0  0  0  0
  -25.4190  -36.0400   23.8620 C   0  0  0  0  0  3  0  0  0  0  0  0
  -27.5100  -36.9990   24.7180 C   0  0  0  0  0  1  0  0  0  0  0  0
  -26.3970  -37.1470   23.7840 N   0  0  0  0  0  0  0  0  0  0  0  0
  -25.9450  -38.0400   23.9630 H   0  0  0  0  0  0  0  0  0  0  0  0
  -31.6920  -19.6270   19.7750 C   0  0  2  0  0  0  0  0  0  0  0  0
  -31.4970  -17.0960   20.4340 C   0  0  0  0  0  3  0  0  0  0  0  0
  -29.9010  -18.5410   21.2640 C   0  0  0  0  0  3  0  0  0  0  0  0
  -31.0340  -18.4470   20.4900 C   0  0  0  0  0  0  0  0  0  0  0  0
  -30.6930  -16.1970   21.0830 C   0  0  0  0  0  0  0  0  0  0  0  0
  -29.3830  -17.0080   21.8880 S   0  0  0  0  0  0  0  0  0  0  0  0
  -31.2230  -14.0850   20.1250 C   0  0  0  0  0  0  0  0  0  0  0  0
  -30.7760  -12.0100   18.8730 C   0  0  0  0  0  2  0  0  0  0  0  0
  -29.7920  -12.2840   17.7180 C   0  0  0  0  0  2  0  0  0  0  0  0
  -28.3320  -12.2030   18.2060 C   0  0  0  0  0  2  0  0  0  0  0  0
  -28.0880  -13.0430   19.4860 C   0  0  0  0  0  3  0  0  0  0  0  0
  -29.1600  -12.7150   20.5460 C   0  0  0  0  0  2  0  0  0  0  0  0
  -30.4900  -12.9600   19.9530 N   0  0  0  0  0  0  0  0  0  0  0  0
  -32.2260  -14.3560   19.4530 O   0  0  0  0  0  0  0  0  0  0  0  0
  -30.7900  -14.8530   21.1300 N   0  0  0  0  0  0  0  0  0  0  0  0
  -30.0700  -14.4010   21.6750 H   0  0  0  0  0  0  0  0  0  0  0  0
  -25.7370  -13.7690   20.2650 C   0  0  0  0  0  0  0  0  0  0  0  0
  -24.6500  -13.0480   20.6810 C   0  0  0  0  0  0  0  0  0  0  0  0
  -25.0490  -11.6760   20.6450 C   0  0  0  0  0  0  0  0  0  0  0  0
  -26.7350  -12.8400   20.0070 N   0  0  0  0  0  0  0  0  0  0  0  0
  -26.3240  -11.5770   20.2890 N   0  0  0  0  0  0  0  0  0  0  0  0
  -24.2780  -10.4480   20.8790 C   0  0  0  0  0  0  0  0  0  0  0  0
  -24.6670   -9.5090   21.8600 C   0  0  0  0  0  3  0  0  0  0  0  0
  -23.9030   -8.3430   22.0760 C   0  0  0  0  0  3  0  0  0  0  0  0
  -22.7350   -8.1070   21.3110 C   0  0  0  0  0  0  0  0  0  0  0  0
  -22.3660   -9.0350   20.3200 C   0  0  0  0  0  3  0  0  0  0  0  0
  -23.1310  -10.1920   20.1020 C   0  0  0  0  0  3  0  0  0  0  0  0
  -21.9430   -6.9910   21.4330 O   0  0  0  0  0  0  0  0  0  0  0  0
  -21.7980   -6.3410   22.6330 C   0  0  0  0  0  0  0  0  0  0  0  0
  -21.3130   -7.0000   23.7840 C   0  0  0  0  0  3  0  0  0  0  0  0
  -21.1120   -6.2770   24.9760 C   0  0  0  0  0  3  0  0  0  0  0  0
  -21.3860   -4.8960   25.0180 C   0  0  0  0  0  0  0  0  0  0  0  0
  -21.8640   -4.2380   23.8720 C   0  0  0  0  0  3  0  0  0  0  0  0
  -22.0680   -4.9590   22.6810 C   0  0  0  0  0  0  0  0  0  0  0  0
  -22.5080   -4.3150   21.5730 F   0  0  0  0  0  0  0  0  0  0  0  0
  -21.1880   -4.1980   26.1630 F   0  0  0  0  0  0  0  0  0  0  0  0
  -23.2830  -13.5880   21.0030 C   0  0  0  0  0  0  0  0  0  0  0  0
  -22.5730  -12.9440   21.9220 N   0  0  0  0  0  0  0  0  0  0  0  0
  -22.8580  -14.6140   20.4750 O   0  0  0  0  0  0  0  0  0  0  0  0
  -22.9320  -12.1160   22.3710 H   0  0  0  0  0  0  0  0  0  0  0  0
  -21.6590  -13.2860   22.1840 H   0  0  0  0  0  0  0  0  0  0  0  0
  -25.9530  -15.1300   20.0720 N   0  0  0  0  0  0  0  0  0  0  0  0
  -25.2260  -15.8230   20.2180 H   0  0  0  0  0  0  0  0  0  0  0  0
  -26.8240  -15.5300   19.7450 H   0  0  0  0  0  0  0  0  0  0  0  0
  -33.8500  -19.5100   21.2760 C   0  0  0  0  0  1  0  0  0  0  0  0
  -31.9450  -20.9470   22.0420 C   0  0  0  0  0  1  0  0  0  0  0  0
  -32.6530  -20.3610   20.7970 C   0  0  0  0  0  3  0  0  0  0  0  0
  -33.1490  -20.2040   17.6410 C   0  0  0  0  0  1  0  0  0  0  0  0
  -32.5140  -19.1250   18.5420 C   0  0  0  0  0  2  0  0  0  0  0  0
  1  3  2  0
  1  2  1  0
  2  5  2  0
  3  6  1  0
  5  4  1  0
  5 55  1  0
  6  4  2  0
  7  9  2  0
  8  6  1  0
  8  7  1  0
 10  8  1  0
 11  7  1  0
 13 12  1  0
 13 11  1  0
 13 14  1  0
 14 16  1  0
 15 26  2  0
 16 21  1  0
 17 25  1  0
 17 27  1  0
 18 24  1  0
 18 20  1  0
 19 25  1  0
 20 21  2  0
 20 19  1  0
 22 23  1  0
 22 16  2  0
 23 18  2  0
 24 17  1  0
 25 15  1  0
 27 29  2  0
 28 27  1  0
 30 28  1  0
 31 40  2  0
 31 36  1  0
 32 28  1  0
 32 36  1  0
 33 32  1  0
 34 35  1  0
 34 33  1  0
 35 31  1  0
 36 37  2  0
 37 38  1  0
 39 38  2  0
 40 39  1  0
 41 15  1  0
 41 46  1  0
 41 42  1  0
 42 45  1  1
 42 43  1  0
 44 42  1  0
 46 49  1  0
 47 51  1  0
 47 46  1  0
 48 47  2  0
 51 50  1  0
 53 51  1  0
 53 54  1  0
 53 52  1  0
 55103  1  6
 55 58  1  0
 55101  1  0
 56 58  1  0
 56 59  2  0
 57 60  1  0
 58 57  2  0
 59 69  1  0
 59 60  1  0
 61 69  1  0
 62 67  1  0
 63 64  1  0
 63 62  1  0
 65 64  1  0
 65 74  1  0
 65 66  1  0
 67 61  1  0
 67 66  1  0
 68 61  2  0
 69 70  1  0
 71 72  2  0
 72 91  1  0
 73 72  1  0
 73 76  1  0
 74 71  1  0
 74 75  1  0
 75 73  2  0
 76 77  1  0
 77 78  2  0
 79 82  1  0
 79 78  1  0
 80 79  2  0
 81 80  1  0
 81 76  2  0
 82 83  1  0
 83 88  2  0
 83 84  1  0
 84 85  2  0
 85 86  1  0
 86 90  1  0
 87 86  2  0
 88 87  1  0
 89 88  1  0
 91 92  1  0
 92 95  1  0
 92 94  1  0
 93 91  2  0
 96 97  1  0
 96 71  1  0
 98 96  1  0
101 99  1  0
101100  1  0
102103  1  0
M  ISO  4  13 101  14 101  61 100  69 100
M  END
>  <TORSDO>  (66) 
F 23

>  <SCORE>  (66) 
-11.059

>  <name>  (66) 
65

>  <ligand_id>  (66) 
65

>  <original_smiles>  (66) 
[H]c1sc(N([H])C(=O)N2C([H])([H])C([H])([H])C([H])([H])C([H])(n3nc(-c4c([H])c([H])c(Oc5c([H])c([H])c(F)c([H])c5F)c([H])c4[H])c(C(=O)N([H])[H])c3N([H])[H])C2([H])[H])c([H])c1C(c1c([H])c([H])c([H])c(N([H])C(=O)C([H])([H])C([H])(Oc2c([H])c([H])c3c(c2[H])C([H])([H])N(C(=O)C([H])(N([H])C(=O)C([H])(N([H])C([H])([H])[H])C([H])([H])[H])C(C([H])([H])[H])(C([H])([H])[H])C([H])([H])[H])C([H])(C(=O)N([H])C2([H])c4c([H])c([H])c([H])c([H])c4C([H])([H])C([H])([H])C2([H])[H])C3([H])[H])C([H])([H])[H])c1[H])(C([H])([H])C([H])([H])[H])C([H])(C([H])([H])[H])C([H])([H])[H]

>  <smiles>  (66) 
[H]c1sc(N([H])C(=O)N2C([H])([H])C([H])([H])C([H])([H])C([H])(n3nc(-c4c([H])c([H])c(Oc5c([H])c([H])c(F)c([H])c5F)c([H])c4[H])c(C(=O)N([H])[H])c3N([H])[H])C2([H])[H])c([H])c1C(c1c([H])c([H])c([H])c(N([H])C(=O)C([H])([H])C([H])(Oc2c([H])c([H])c3c(c2[H])C([H])([H])N(C(=O)C([H])(N([H])C(=O)C([H])(N([H])C([H])([H])[H])C([H])([H])[H])C(C([H])([H])[H])(C([H])([H])[H])C([H])([H])[H])C([H])(C(=O)N([H])C2([H])c4c([H])c([H])c([H])c([H])c4C([H])([H])C([H])([H])C2([H])[H])C3([H])[H])C([H])([H])[H])c1[H])(C([H])([H])C([H])([H])[H])C([H])(C([H])([H])[H])C([H])([H])[H]

$$$$
66:0:0
     RDKit          3D

 95103  0  0  1  0  0  0  0  0999 V2000
  -28.9070  -20.7480   20.8260 C   0  0  0  0  0  0  0  0  0  0  0  0
  -30.0630  -20.2580   21.3020 N   0  0  0  0  0  0  0  0  0  0  0  0
  -28.1890  -20.1620   20.0110 O   0  0  0  0  0  0  0  0  0  0  0  0
  -30.6170  -20.8920   21.8610 H   0  0  0  0  0  0  0  0  0  0  0  0
  -31.9500  -17.2760   21.1800 C   0  0  0  0  0  3  0  0  0  0  0  0
  -31.8770  -18.6820   21.4140 C   0  0  0  0  0  0  0  0  0  0  0  0
  -30.6910  -16.8840   20.8190 C   0  0  0  0  0  0  0  0  0  0  0  0
  -30.5680  -19.0090   21.1490 C   0  0  0  0  0  0  0  0  0  0  0  0
  -33.0080  -19.5680   21.8720 C   0  0  0  0  0  1  0  0  0  0  0  0
  -29.8140  -17.9230   20.8110 O   0  0  0  0  0  0  0  0  0  0  0  0
  -30.8940  -14.6610   19.9010 C   0  0  0  0  0  0  0  0  0  0  0  0
  -30.5590  -12.4480   18.8630 C   0  0  0  0  0  2  0  0  0  0  0  0
  -29.5130  -12.5400   17.7330 C   0  0  0  0  0  2  0  0  0  0  0  0
  -28.0830  -12.3990   18.2890 C   0  0  0  0  0  2  0  0  0  0  0  0
  -27.8240  -13.3160   19.5130 C   0  0  0  0  0  3  0  0  0  0  0  0
  -28.9630  -13.1750   20.5470 C   0  0  0  0  0  2  0  0  0  0  0  0
  -30.2340  -13.4730   19.8620 N   0  0  0  0  0  0  0  0  0  0  0  0
  -31.9240  -14.8830   19.2540 O   0  0  0  0  0  0  0  0  0  0  0  0
  -30.2890  -15.6050   20.6370 N   0  0  0  0  0  0  0  0  0  0  0  0
  -29.3890  -15.3580   21.0210 H   0  0  0  0  0  0  0  0  0  0  0  0
  -25.5340  -13.9490   20.5030 C   0  0  0  0  0  0  0  0  0  0  0  0
  -24.4820  -13.1860   20.9320 C   0  0  0  0  0  0  0  0  0  0  0  0
  -24.8870  -11.8260   20.7670 C   0  0  0  0  0  0  0  0  0  0  0  0
  -26.5170  -13.0540   20.1100 N   0  0  0  0  0  0  0  0  0  0  0  0
  -26.1350  -11.7680   20.3200 N   0  0  0  0  0  0  0  0  0  0  0  0
  -24.1390  -10.5750   20.9520 C   0  0  0  0  0  0  0  0  0  0  0  0
  -24.5630   -9.5930   21.8730 C   0  0  0  0  0  3  0  0  0  0  0  0
  -23.8180   -8.4060   22.0460 C   0  0  0  0  0  3  0  0  0  0  0  0
  -22.6370   -8.1930   21.2960 C   0  0  0  0  0  0  0  0  0  0  0  0
  -22.2320   -9.1650   20.3630 C   0  0  0  0  0  3  0  0  0  0  0  0
  -22.9770  -10.3440   20.1890 C   0  0  0  0  0  3  0  0  0  0  0  0
  -21.8650   -7.0610   21.3790 O   0  0  0  0  0  0  0  0  0  0  0  0
  -21.7390   -6.3600   22.5510 C   0  0  0  0  0  0  0  0  0  0  0  0
  -21.1850   -6.9440   23.7120 C   0  0  0  0  0  3  0  0  0  0  0  0
  -21.0090   -6.1670   24.8750 C   0  0  0  0  0  3  0  0  0  0  0  0
  -21.3760   -4.8080   24.8770 C   0  0  0  0  0  0  0  0  0  0  0  0
  -21.9210   -4.2240   23.7210 C   0  0  0  0  0  3  0  0  0  0  0  0
  -22.0980   -4.9980   22.5600 C   0  0  0  0  0  0  0  0  0  0  0  0
  -22.6050   -4.4240   21.4420 F   0  0  0  0  0  0  0  0  0  0  0  0
  -21.1990   -4.0600   25.9910 F   0  0  0  0  0  0  0  0  0  0  0  0
  -23.1390  -13.6830   21.3850 C   0  0  0  0  0  0  0  0  0  0  0  0
  -22.4770  -12.9460   22.2690 N   0  0  0  0  0  0  0  0  0  0  0  0
  -22.6890  -14.7590   20.9910 O   0  0  0  0  0  0  0  0  0  0  0  0
  -22.8560  -12.0730   22.6070 H   0  0  0  0  0  0  0  0  0  0  0  0
  -21.5810  -13.2570   22.6140 H   0  0  0  0  0  0  0  0  0  0  0  0
  -25.7320  -15.3220   20.3980 N   0  0  0  0  0  0  0  0  0  0  0  0
  -25.0120  -15.9970   20.6280 H   0  0  0  0  0  0  0  0  0  0  0  0
  -26.5650  -15.7510   20.0120 H   0  0  0  0  0  0  0  0  0  0  0  0
  -28.4990  -22.1360   21.3380 C   0  0  0  0  0  2  0  0  0  0  0  0
  -28.3560  -23.2050   20.2230 C   0  0  0  0  0  2  0  0  0  0  0  0
  -27.0600  -24.8730   21.6420 C   0  0  0  0  0  1  0  0  0  0  0  0
  -29.5720  -25.0540   21.4530 C   0  0  0  0  0  1  0  0  0  0  0  0
  -28.2730  -24.6850   20.7040 C   0  0  1  0  0  0  0  0  0  0  0  0
  -28.1400  -25.6110   19.4580 C   0  0  0  0  0  2  0  0  0  0  0  0
  -28.0780  -27.0060   19.7880 O   0  0  0  0  0  0  0  0  0  0  0  0
  -24.4890  -32.0230   23.2970 C   0  0  0  0  0  0  0  0  0  0  0  0
  -26.8750  -27.6810   19.8810 C   0  0  0  0  0  0  0  0  0  0  0  0
  -23.1610  -30.7020   21.6850 C   0  0  0  0  0  3  0  0  0  0  0  0
  -24.4990  -29.2080   20.1100 C   0  0  0  0  0  0  0  0  0  0  0  0
  -25.6730  -31.0390   21.3390 C   0  0  0  0  0  2  0  0  0  0  0  0
  -25.6970  -29.6970   20.6380 C   0  0  0  0  0  0  0  0  0  0  0  0
  -26.8840  -28.9430   20.5190 C   0  0  0  0  0  3  0  0  0  0  0  0
  -25.6490  -27.1960   19.3640 C   0  0  0  0  0  3  0  0  0  0  0  0
  -24.4660  -27.9560   19.4740 C   0  0  0  0  0  3  0  0  0  0  0  0
  -23.2770  -30.0850   20.2670 C   0  0  0  0  0  2  0  0  0  0  0  0
  -24.4630  -31.2650   22.1660 N   0  0  0  0  0  0  0  0  0  0  0  0
  -23.4480  -32.2850   23.9170 O   0  0  0  0  0  0  0  0  0  0  0  0
  -22.5590  -29.6470   22.6410 C   0  0  0  0  0  0  0  0  0  0  0  0
  -21.2440  -29.4060   22.5140 N   0  0  0  0  0  0  0  0  0  0  0  0
  -23.2710  -29.0500   23.4530 O   0  0  0  0  0  0  0  0  0  0  0  0
  -20.7290  -29.9350   21.8250 H   0  0  0  0  0  0  0  0  0  0  0  0
  -17.9390  -28.0210   22.9560 C   0  0  0  0  0  0  0  0  0  0  0  0
  -20.4690  -28.4350   23.2840 C   0  0  0  0  0  3  0  0  0  0  0  0
  -20.6780  -27.0050   22.7340 C   0  0  0  0  0  2  0  0  0  0  0  0
  -19.6210  -26.6010   21.7020 C   0  0  0  0  0  2  0  0  0  0  0  0
  -18.2160  -26.6740   22.3090 C   0  0  0  0  0  2  0  0  0  0  0  0
  -18.9990  -28.8550   23.3990 C   0  0  0  0  0  0  0  0  0  0  0  0
  -18.6910  -30.1150   23.9600 C   0  0  0  0  0  3  0  0  0  0  0  0
  -17.3540  -30.5370   24.0910 C   0  0  0  0  0  3  0  0  0  0  0  0
  -16.3090  -29.6970   23.6700 C   0  0  0  0  0  3  0  0  0  0  0  0
  -16.6010  -28.4440   23.1020 C   0  0  0  0  0  3  0  0  0  0  0  0
  -25.8190  -32.6150   23.8560 C   0  0  0  0  0  3  0  0  0  0  0  0
  -25.5690  -34.0220   24.1910 N   0  0  0  0  0  0  0  0  0  0  0  0
  -25.9040  -35.0590   23.4110 C   0  0  0  0  0  0  0  0  0  0  0  0
  -26.5270  -34.9300   22.3530 O   0  0  0  0  0  0  0  0  0  0  0  0
  -25.0180  -34.2000   25.0180 H   0  0  0  0  0  0  0  0  0  0  0  0
  -24.2230  -36.9050   23.1200 C   0  0  0  0  0  1  0  0  0  0  0  0
  -25.4800  -36.4620   23.8830 C   0  0  0  0  0  3  0  0  0  0  0  0
  -27.6650  -37.2920   24.6360 C   0  0  0  0  0  1  0  0  0  0  0  0
  -26.5390  -37.4830   23.7250 N   0  0  0  0  0  0  0  0  0  0  0  0
  -26.1650  -38.4140   23.8790 H   0  0  0  0  0  0  0  0  0  0  0  0
  -26.3720  -31.8300   25.1080 C   0  0  1  0  0  0  0  0  0  0  0  0
  -25.3130  -31.5960   26.2100 C   0  0  0  0  0  1  0  0  0  0  0  0
  -26.9270  -30.4500   24.6850 C   0  0  0  0  0  1  0  0  0  0  0  0
  -27.5510  -32.6080   25.7380 C   0  0  0  0  0  1  0  0  0  0  0  0
  1  2  1  0
  1 49  1  0
  2  4  1  0
  3  1  2  0
  5  6  1  0
  6  9  1  0
  7  5  2  0
  8  2  1  0
  8  6  2  0
 10  7  1  0
 10  8  1  0
 11 19  1  0
 12 17  1  0
 13 14  1  0
 13 12  1  0
 15 14  1  0
 15 24  1  0
 15 16  1  0
 17 11  1  0
 17 16  1  0
 18 11  2  0
 19  7  1  0
 19 20  1  0
 21 22  2  0
 22 41  1  0
 23 22  1  0
 23 26  1  0
 24 25  1  0
 24 21  1  0
 25 23  2  0
 26 27  1  0
 27 28  2  0
 29 32  1  0
 29 28  1  0
 30 29  2  0
 31 30  1  0
 31 26  2  0
 32 33  1  0
 33 38  2  0
 33 34  1  0
 34 35  2  0
 35 36  1  0
 36 40  1  0
 37 36  2  0
 38 37  1  0
 39 38  1  0
 41 42  1  0
 42 44  1  0
 42 45  1  0
 43 41  2  0
 46 21  1  0
 46 47  1  0
 48 46  1  0
 50 53  1  0
 50 49  1  0
 53 52  1  1
 53 51  1  0
 54 55  1  0
 54 53  1  0
 55 57  1  0
 56 67  2  0
 57 62  1  0
 58 66  1  0
 58 68  1  0
 59 65  1  0
 59 61  1  0
 60 66  1  0
 61 60  1  0
 62 61  2  0
 63 64  1  0
 63 57  2  0
 64 59  2  0
 65 58  1  0
 66 56  1  0
 68 70  2  0
 69 68  1  0
 71 69  1  0
 72 81  2  0
 72 77  1  0
 73 69  1  0
 73 77  1  0
 74 73  1  0
 75 76  1  0
 75 74  1  0
 76 72  1  0
 77 78  2  0
 78 79  1  0
 80 79  2  0
 81 80  1  0
 82 56  1  0
 82 83  1  0
 82 92  1  0
 83 86  1  0
 84 88  1  0
 84 83  1  0
 85 84  2  0
 88 87  1  0
 90 91  1  0
 90 88  1  0
 90 89  1  0
 92 95  1  1
 92 93  1  0
 94 92  1  0
M  ISO  4  11 100  19 100  54 101  55 101
M  END
>  <TORSDO>  (67) 
F 21

>  <SCORE>  (67) 
-13.267

>  <name>  (67) 
66

>  <ligand_id>  (67) 
66

>  <original_smiles>  (67) 
[H]c1c([H])c([H])c2c(c1[H])C([H])([H])C([H])([H])C([H])([H])C2([H])N([H])C(=O)C1([H])N(C(=O)C([H])(N([H])C(=O)C([H])(N([H])C([H])([H])[H])C([H])([H])[H])C(C([H])([H])[H])(C([H])([H])[H])C([H])([H])[H])C([H])([H])c2c([H])c(OC([H])([H])C(C([H])([H])[H])(C([H])([H])[H])C([H])([H])C([H])([H])C(=O)N([H])c3oc(N([H])C(=O)N4C([H])([H])C([H])([H])C([H])([H])C([H])(n5nc(-c6c([H])c([H])c(Oc7c([H])c([H])c(F)c([H])c7F)c([H])c6[H])c(C(=O)N([H])[H])c5N([H])[H])C4([H])[H])c([H])c3C([H])([H])[H])c([H])c([H])c2C1([H])[H]

>  <smiles>  (67) 
[H]c1c([H])c([H])c2c(c1[H])C([H])([H])C([H])([H])C([H])([H])C2([H])N([H])C(=O)C1([H])N(C(=O)C([H])(N([H])C(=O)C([H])(N([H])C([H])([H])[H])C([H])([H])[H])C(C([H])([H])[H])(C([H])([H])[H])C([H])([H])[H])C([H])([H])c2c([H])c(OC([H])([H])C(C([H])([H])[H])(C([H])([H])[H])C([H])([H])C([H])([H])C(=O)N([H])c3oc(N([H])C(=O)N4C([H])([H])C([H])([H])C([H])([H])C([H])(n5nc(-c6c([H])c([H])c(Oc7c([H])c([H])c(F)c([H])c7F)c([H])c6[H])c(C(=O)N([H])[H])c5N([H])[H])C4([H])[H])c([H])c3C([H])([H])[H])c([H])c([H])c2C1([H])[H]

$$$$
67:0:0
     RDKit          3D

 95103  0  0  1  0  0  0  0  0999 V2000
  -30.0070  -22.6610   18.6540 C   0  0  0  0  0  1  0  0  0  0  0  0
  -27.8800  -22.2270   19.7410 C   0  0  0  0  0  1  0  0  0  0  0  0
  -29.3530  -22.6010   20.0590 C   0  0  1  0  0  0  0  0  0  0  0  0
  -28.9530  -20.9070   22.0550 C   0  0  0  0  0  1  0  0  0  0  0  0
  -31.2510  -21.7530   21.7120 C   0  0  0  0  0  1  0  0  0  0  0  0
  -29.9720  -21.3210   20.9560 C   0  0  2  0  0  0  0  0  0  0  0  0
  -32.0730  -18.8940   18.6960 C   0  0  0  0  0  3  0  0  0  0  0  0
  -31.5430  -20.0330   19.3200 C   0  0  0  0  0  3  0  0  0  0  0  0
  -31.6110  -17.6130   19.0260 C   0  0  0  0  0  3  0  0  0  0  0  0
  -30.0250  -18.6210   20.5680 C   0  0  0  0  0  3  0  0  0  0  0  0
  -30.4560  -19.9710   20.2260 C   0  0  0  0  0  0  0  0  0  0  0  0
  -30.6250  -17.4210   20.0220 C   0  0  0  0  0  0  0  0  0  0  0  0
  -30.9640  -14.8820   20.2540 C   0  0  0  0  0  0  0  0  0  0  0  0
  -30.6780  -12.6400   19.2460 C   0  0  0  0  0  2  0  0  0  0  0  0
  -29.7590  -12.7690   18.0130 C   0  0  0  0  0  2  0  0  0  0  0  0
  -28.2830  -12.6320   18.4310 C   0  0  0  0  0  2  0  0  0  0  0  0
  -27.9180  -13.5170   19.6540 C   0  0  0  0  0  3  0  0  0  0  0  0
  -28.9660  -13.4040   20.7830 C   0  0  0  0  0  2  0  0  0  0  0  0
  -30.2810  -13.6960   20.2000 N   0  0  0  0  0  0  0  0  0  0  0  0
  -32.1660  -14.9060   19.9800 O   0  0  0  0  0  0  0  0  0  0  0  0
  -30.2470  -16.0490   20.4170 N   0  0  0  0  0  0  0  0  0  0  0  0
  -29.3070  -15.9320   20.7630 H   0  0  0  0  0  0  0  0  0  0  0  0
  -25.5270  -14.1300   20.3570 C   0  0  0  0  0  0  0  0  0  0  0  0
  -24.4530  -13.3640   20.7210 C   0  0  0  0  0  0  0  0  0  0  0  0
  -24.9070  -12.0110   20.7010 C   0  0  0  0  0  0  0  0  0  0  0  0
  -26.5680  -13.2420   20.1340 N   0  0  0  0  0  0  0  0  0  0  0  0
  -26.2010  -11.9620   20.4040 N   0  0  0  0  0  0  0  0  0  0  0  0
  -24.1700  -10.7540   20.8890 C   0  0  0  0  0  0  0  0  0  0  0  0
  -24.5690   -9.8000   21.8510 C   0  0  0  0  0  3  0  0  0  0  0  0
  -23.8320   -8.6080   22.0260 C   0  0  0  0  0  3  0  0  0  0  0  0
  -22.6820   -8.3630   21.2380 C   0  0  0  0  0  0  0  0  0  0  0  0
  -22.3030   -9.3050   20.2650 C   0  0  0  0  0  3  0  0  0  0  0  0
  -23.0410  -10.4880   20.0890 C   0  0  0  0  0  3  0  0  0  0  0  0
  -21.9190   -7.2230   21.3210 O   0  0  0  0  0  0  0  0  0  0  0  0
  -21.8110   -6.5120   22.4900 C   0  0  0  0  0  0  0  0  0  0  0  0
  -21.2870   -7.0890   23.6680 C   0  0  0  0  0  3  0  0  0  0  0  0
  -21.1290   -6.3040   24.8270 C   0  0  0  0  0  3  0  0  0  0  0  0
  -21.4850   -4.9430   24.8100 C   0  0  0  0  0  0  0  0  0  0  0  0
  -22.0000   -4.3640   23.6350 C   0  0  0  0  0  3  0  0  0  0  0  0
  -22.1620   -5.1470   22.4790 C   0  0  0  0  0  0  0  0  0  0  0  0
  -22.6400   -4.5800   21.3460 F   0  0  0  0  0  0  0  0  0  0  0  0
  -21.3260   -4.1850   25.9200 F   0  0  0  0  0  0  0  0  0  0  0  0
  -23.0570  -13.8530   20.9770 C   0  0  0  0  0  0  0  0  0  0  0  0
  -22.3160  -13.1660   21.8390 N   0  0  0  0  0  0  0  0  0  0  0  0
  -22.6310  -14.8770   20.4440 O   0  0  0  0  0  0  0  0  0  0  0  0
  -22.6730  -12.3370   22.2910 H   0  0  0  0  0  0  0  0  0  0  0  0
  -21.3770  -13.4760   22.0510 H   0  0  0  0  0  0  0  0  0  0  0  0
  -25.7020  -15.4990   20.1740 N   0  0  0  0  0  0  0  0  0  0  0  0
  -24.9320  -16.1530   20.2690 H   0  0  0  0  0  0  0  0  0  0  0  0
  -26.5490  -15.9330   19.8330 H   0  0  0  0  0  0  0  0  0  0  0  0
  -28.8570  -24.2890   22.0820 C   0  0  0  0  0  1  0  0  0  0  0  0
  -30.7880  -24.8000   20.5730 C   0  0  0  0  0  1  0  0  0  0  0  0
  -29.3700  -24.1710   20.6260 C   0  0  1  0  0  0  0  0  0  0  0  0
  -28.4410  -25.2220   19.8350 C   0  0  0  0  0  2  0  0  0  0  0  0
  -28.5440  -26.6720   20.1410 O   0  0  0  0  0  0  0  0  0  0  0  0
  -24.7220  -31.9470   23.2100 C   0  0  0  0  0  0  0  0  0  0  0  0
  -27.4070  -27.4920   20.0710 C   0  0  0  0  0  0  0  0  0  0  0  0
  -23.5380  -30.5480   21.5580 C   0  0  0  0  0  3  0  0  0  0  0  0
  -25.0110  -29.0550   20.0950 C   0  0  0  0  0  0  0  0  0  0  0  0
  -26.0690  -30.9200   21.3680 C   0  0  0  0  0  2  0  0  0  0  0  0
  -26.1700  -29.5550   20.7010 C   0  0  0  0  0  0  0  0  0  0  0  0
  -27.3680  -28.7810   20.6860 C   0  0  0  0  0  3  0  0  0  0  0  0
  -26.2300  -27.0610   19.4140 C   0  0  0  0  0  3  0  0  0  0  0  0
  -25.0420  -27.8140   19.4430 C   0  0  0  0  0  3  0  0  0  0  0  0
  -23.7570  -29.9010   20.1660 C   0  0  0  0  0  2  0  0  0  0  0  0
  -24.7950  -31.1560   22.1020 N   0  0  0  0  0  0  0  0  0  0  0  0
  -23.6360  -32.1950   23.7540 O   0  0  0  0  0  0  0  0  0  0  0  0
  -22.9050  -29.5010   22.5050 C   0  0  0  0  0  0  0  0  0  0  0  0
  -21.5840  -29.2920   22.3770 N   0  0  0  0  0  0  0  0  0  0  0  0
  -23.6000  -28.8810   23.3140 O   0  0  0  0  0  0  0  0  0  0  0  0
  -21.0800  -29.8470   21.6990 H   0  0  0  0  0  0  0  0  0  0  0  0
  -18.2370  -28.0160   22.8730 C   0  0  0  0  0  0  0  0  0  0  0  0
  -20.7900  -28.3280   23.1400 C   0  0  0  0  0  3  0  0  0  0  0  0
  -20.9220  -26.9070   22.5450 C   0  0  0  0  0  2  0  0  0  0  0  0
  -19.8250  -26.5740   21.5300 C   0  0  0  0  0  2  0  0  0  0  0  0
  -18.4420  -26.6790   22.1790 C   0  0  0  0  0  2  0  0  0  0  0  0
  -19.3400  -28.7970   23.3100 C   0  0  0  0  0  0  0  0  0  0  0  0
  -19.0940  -30.0480   23.9180 C   0  0  0  0  0  3  0  0  0  0  0  0
  -17.7790  -30.5180   24.0910 C   0  0  0  0  0  3  0  0  0  0  0  0
  -16.6900  -29.7340   23.6710 C   0  0  0  0  0  3  0  0  0  0  0  0
  -16.9210  -28.4830   23.0670 C   0  0  0  0  0  3  0  0  0  0  0  0
  -25.9970  -32.5970   23.8350 C   0  0  0  0  0  3  0  0  0  0  0  0
  -26.5170  -31.8360   25.1160 C   0  0  1  0  0  0  0  0  0  0  0  0
  -25.4210  -31.5840   26.1780 C   0  0  0  0  0  1  0  0  0  0  0  0
  -27.1240  -30.4670   24.7300 C   0  0  0  0  0  1  0  0  0  0  0  0
  -27.6550  -32.6490   25.7800 C   0  0  0  0  0  1  0  0  0  0  0  0
  -25.6680  -33.9920   24.1590 N   0  0  0  0  0  0  0  0  0  0  0  0
  -25.9860  -35.0460   23.3950 C   0  0  0  0  0  0  0  0  0  0  0  0
  -26.6580  -34.9470   22.3640 O   0  0  0  0  0  0  0  0  0  0  0  0
  -25.0680  -34.1410   24.9560 H   0  0  0  0  0  0  0  0  0  0  0  0
  -24.2440  -36.8210   23.0270 C   0  0  0  0  0  1  0  0  0  0  0  0
  -25.4840  -36.4290   23.8470 C   0  0  0  0  0  3  0  0  0  0  0  0
  -27.5980  -37.3420   24.7000 C   0  0  0  0  0  1  0  0  0  0  0  0
  -26.5070  -37.4920   23.7400 N   0  0  0  0  0  0  0  0  0  0  0  0
  -26.0900  -38.4090   23.8780 H   0  0  0  0  0  0  0  0  0  0  0  0
  3  1  1  6
  2  3  1  0
  3 53  1  0
  3  6  1  0
  6  5  1  1
  6  4  1  0
  7  9  2  0
  7  8  1  0
  8 11  2  0
  9 12  1  0
 11 10  1  0
 11  6  1  0
 12 21  1  0
 12 10  2  0
 13 21  1  0
 14 19  1  0
 15 16  1  0
 15 14  1  0
 17 16  1  0
 17 26  1  0
 17 18  1  0
 19 13  1  0
 19 18  1  0
 20 13  2  0
 21 22  1  0
 23 24  2  0
 24 43  1  0
 25 24  1  0
 25 28  1  0
 26 23  1  0
 26 27  1  0
 27 25  2  0
 28 29  1  0
 29 30  2  0
 31 34  1  0
 31 30  1  0
 32 31  2  0
 33 32  1  0
 33 28  2  0
 34 35  1  0
 35 36  1  0
 36 37  2  0
 38 37  1  0
 38 42  1  0
 39 38  2  0
 40 35  2  0
 40 39  1  0
 41 40  1  0
 43 44  1  0
 44 47  1  0
 44 46  1  0
 45 43  2  0
 48 49  1  0
 48 23  1  0
 50 48  1  0
 53 52  1  1
 53 51  1  0
 54 55  1  0
 54 53  1  0
 56 67  2  0
 57 55  1  0
 57 62  1  0
 58 66  1  0
 58 68  1  0
 59 65  1  0
 59 61  1  0
 60 66  1  0
 61 60  1  0
 62 61  2  0
 63 64  1  0
 63 57  2  0
 64 59  2  0
 65 58  1  0
 66 56  1  0
 68 70  2  0
 69 68  1  0
 71 69  1  0
 72 81  2  0
 72 77  1  0
 73 69  1  0
 73 77  1  0
 74 73  1  0
 75 76  1  0
 75 74  1  0
 76 72  1  0
 77 78  2  0
 78 79  1  0
 80 79  2  0
 81 80  1  0
 82 56  1  0
 82 87  1  0
 82 83  1  0
 83 86  1  1
 83 84  1  0
 85 83  1  0
 87 90  1  0
 88 92  1  0
 88 87  1  0
 89 88  2  0
 92 91  1  0
 94 92  1  0
 94 95  1  0
 94 93  1  0
M  ISO  4  13 100  21 100  54 101  55 101
M  END
>  <TORSDO>  (68) 
F 20

>  <SCORE>  (68) 
-13.448

>  <name>  (68) 
67

>  <ligand_id>  (68) 
67

>  <original_smiles>  (68) 
[H]c1c([H])c([H])c2c(c1[H])C([H])([H])C([H])([H])C([H])([H])C2([H])N([H])C(=O)C1([H])N(C(=O)C([H])(N([H])C(=O)C([H])(N([H])C([H])([H])[H])C([H])([H])[H])C(C([H])([H])[H])(C([H])([H])[H])C([H])([H])[H])C([H])([H])c2c([H])c(OC([H])([H])C(C([H])([H])[H])(C([H])([H])[H])C(C([H])([H])[H])(C([H])([H])[H])C(c3c([H])c([H])c([H])c(N([H])C(=O)N4C([H])([H])C([H])([H])C([H])([H])C([H])(n5nc(-c6c([H])c([H])c(Oc7c([H])c([H])c(F)c([H])c7F)c([H])c6[H])c(C(=O)N([H])[H])c5N([H])[H])C4([H])[H])c3[H])(C([H])([H])[H])C([H])([H])[H])c([H])c([H])c2C1([H])[H]

>  <smiles>  (68) 
[H]c1c([H])c([H])c2c(c1[H])C([H])([H])C([H])([H])C([H])([H])C2([H])N([H])C(=O)C1([H])N(C(=O)C([H])(N([H])C(=O)C([H])(N([H])C([H])([H])[H])C([H])([H])[H])C(C([H])([H])[H])(C([H])([H])[H])C([H])([H])[H])C([H])([H])c2c([H])c(OC([H])([H])C(C([H])([H])[H])(C([H])([H])[H])C(C([H])([H])[H])(C([H])([H])[H])C(c3c([H])c([H])c([H])c(N([H])C(=O)N4C([H])([H])C([H])([H])C([H])([H])C([H])(n5nc(-c6c([H])c([H])c(Oc7c([H])c([H])c(F)c([H])c7F)c([H])c6[H])c(C(=O)N([H])[H])c5N([H])[H])C4([H])[H])c3[H])(C([H])([H])[H])C([H])([H])[H])c([H])c([H])c2C1([H])[H]

$$$$
68:0:0
     RDKit          3D

 95103  0  0  1  0  0  0  0  0999 V2000
  -29.3710  -22.8950   19.8590 C   0  0  0  0  0  0  0  0  0  0  0  0
  -29.3210  -21.6840   20.4890 N   0  0  0  0  0  0  0  0  0  0  0  0
  -29.8700  -23.0340   18.7410 O   0  0  0  0  0  0  0  0  0  0  0  0
  -28.9810  -21.7210   21.4420 H   0  0  0  0  0  0  0  0  0  0  0  0
  -30.4880  -17.7540   19.1450 C   0  0  0  0  0  3  0  0  0  0  0  0
  -29.8470  -19.2740   20.9300 C   0  0  0  0  0  3  0  0  0  0  0  0
  -29.9610  -20.0940   18.6520 C   0  0  0  0  0  3  0  0  0  0  0  0
  -30.2200  -17.9580   20.5120 C   0  0  0  0  0  0  0  0  0  0  0  0
  -30.3540  -18.8070   18.2090 C   0  0  0  0  0  0  0  0  0  0  0  0
  -29.7260  -20.3680   20.0200 C   0  0  0  0  0  0  0  0  0  0  0  0
  -30.5930  -18.5270   16.7630 C   0  0  0  0  0  0  0  0  0  0  0  0
  -30.4440  -19.6790   15.7750 C   0  0  0  0  0  1  0  0  0  0  0  0
  -30.9050  -17.4130   16.3330 O   0  0  0  0  0  0  0  0  0  0  0  0
  -30.2660  -16.8430   21.5140 C   0  0  0  0  0  3  0  0  0  0  0  0
  -30.5530  -15.5060   21.5040 C   0  0  0  0  0  3  0  0  0  0  0  0
  -31.0660  -14.6320   20.4390 C   0  0  0  0  0  0  0  0  0  0  0  0
  -30.7410  -12.5120   19.1760 C   0  0  0  0  0  2  0  0  0  0  0  0
  -29.7960  -12.7530   17.9800 C   0  0  0  0  0  2  0  0  0  0  0  0
  -28.3220  -12.6120   18.4080 C   0  0  0  0  0  2  0  0  0  0  0  0
  -28.0060  -13.4210   19.6930 C   0  0  0  0  0  3  0  0  0  0  0  0
  -29.0520  -13.1370   20.7920 C   0  0  0  0  0  2  0  0  0  0  0  0
  -30.3810  -13.4640   20.2420 N   0  0  0  0  0  0  0  0  0  0  0  0
  -32.1070  -14.8800   19.8220 O   0  0  0  0  0  0  0  0  0  0  0  0
  -25.6140  -14.0700   20.3850 C   0  0  0  0  0  0  0  0  0  0  0  0
  -24.5310  -13.3170   20.7490 C   0  0  0  0  0  0  0  0  0  0  0  0
  -24.9690  -11.9560   20.7240 C   0  0  0  0  0  0  0  0  0  0  0  0
  -26.6450  -13.1700   20.1620 N   0  0  0  0  0  0  0  0  0  0  0  0
  -26.2600  -11.8950   20.4220 N   0  0  0  0  0  0  0  0  0  0  0  0
  -24.2180  -10.7090   20.9140 C   0  0  0  0  0  0  0  0  0  0  0  0
  -24.6040   -9.7580   21.8860 C   0  0  0  0  0  3  0  0  0  0  0  0
  -23.8580   -8.5740   22.0620 C   0  0  0  0  0  3  0  0  0  0  0  0
  -22.7120   -8.3310   21.2680 C   0  0  0  0  0  0  0  0  0  0  0  0
  -22.3460   -9.2690   20.2870 C   0  0  0  0  0  3  0  0  0  0  0  0
  -23.0930  -10.4450   20.1080 C   0  0  0  0  0  3  0  0  0  0  0  0
  -21.9420   -7.1970   21.3520 O   0  0  0  0  0  0  0  0  0  0  0  0
  -21.7910   -6.5160   22.5340 C   0  0  0  0  0  0  0  0  0  0  0  0
  -21.2750   -7.1360   23.6940 C   0  0  0  0  0  3  0  0  0  0  0  0
  -21.0710   -6.3800   24.8650 C   0  0  0  0  0  3  0  0  0  0  0  0
  -21.3740   -5.0040   24.8780 C   0  0  0  0  0  0  0  0  0  0  0  0
  -21.8840   -4.3840   23.7230 C   0  0  0  0  0  3  0  0  0  0  0  0
  -22.0890   -5.1370   22.5540 C   0  0  0  0  0  0  0  0  0  0  0  0
  -22.5600   -4.5300   21.4390 F   0  0  0  0  0  0  0  0  0  0  0  0
  -21.1710   -4.2770   26.0000 F   0  0  0  0  0  0  0  0  0  0  0  0
  -23.1410  -13.8180   21.0170 C   0  0  0  0  0  0  0  0  0  0  0  0
  -22.4050  -13.1470   21.8950 N   0  0  0  0  0  0  0  0  0  0  0  0
  -22.7160  -14.8400   20.4810 O   0  0  0  0  0  0  0  0  0  0  0  0
  -22.7610  -12.3200   22.3540 H   0  0  0  0  0  0  0  0  0  0  0  0
  -21.4720  -13.4640   22.1150 H   0  0  0  0  0  0  0  0  0  0  0  0
  -25.8050  -15.4380   20.2080 N   0  0  0  0  0  0  0  0  0  0  0  0
  -25.0510  -16.1080   20.3130 H   0  0  0  0  0  0  0  0  0  0  0  0
  -26.6800  -15.8660   19.9330 H   0  0  0  0  0  0  0  0  0  0  0  0
  -29.8170  -24.6490   21.6450 C   0  0  0  0  0  1  0  0  0  0  0  0
  -28.8100  -24.1720   20.5800 C   0  0  0  0  0  3  0  0  0  0  0  0
  -28.4730  -25.3560   19.5910 C   0  0  0  0  0  2  0  0  0  0  0  0
  -28.3270  -26.6840   20.1840 O   0  0  0  0  0  0  0  0  0  0  0  0
  -24.5280  -31.9390   23.1920 C   0  0  0  0  0  0  0  0  0  0  0  0
  -27.1420  -27.4180   20.1410 C   0  0  0  0  0  0  0  0  0  0  0  0
  -23.3090  -30.5220   21.5760 C   0  0  0  0  0  3  0  0  0  0  0  0
  -24.7480  -28.9670   20.1570 C   0  0  0  0  0  0  0  0  0  0  0  0
  -25.8390  -30.8640   21.3590 C   0  0  0  0  0  2  0  0  0  0  0  0
  -25.9160  -29.4850   20.7260 C   0  0  0  0  0  0  0  0  0  0  0  0
  -27.1110  -28.7190   20.7130 C   0  0  0  0  0  3  0  0  0  0  0  0
  -25.9430  -26.9280   19.5710 C   0  0  0  0  0  3  0  0  0  0  0  0
  -24.7590  -27.6880   19.5810 C   0  0  0  0  0  3  0  0  0  0  0  0
  -23.5090  -29.8320   20.2020 C   0  0  0  0  0  2  0  0  0  0  0  0
  -24.5770  -31.1260   22.0990 N   0  0  0  0  0  0  0  0  0  0  0  0
  -23.4510  -32.2170   23.7390 O   0  0  0  0  0  0  0  0  0  0  0  0
  -22.6620  -29.5120   22.5520 C   0  0  0  0  0  0  0  0  0  0  0  0
  -21.3390  -29.3140   22.4280 N   0  0  0  0  0  0  0  0  0  0  0  0
  -23.3510  -28.9080   23.3790 O   0  0  0  0  0  0  0  0  0  0  0  0
  -20.8410  -29.8560   21.7360 H   0  0  0  0  0  0  0  0  0  0  0  0
  -17.9820  -28.0790   22.9410 C   0  0  0  0  0  0  0  0  0  0  0  0
  -20.5340  -28.3800   23.2160 C   0  0  0  0  0  3  0  0  0  0  0  0
  -20.6600  -26.9380   22.6710 C   0  0  0  0  0  2  0  0  0  0  0  0
  -19.5670  -26.5790   21.6600 C   0  0  0  0  0  2  0  0  0  0  0  0
  -18.1800  -26.7190   22.2930 C   0  0  0  0  0  2  0  0  0  0  0  0
  -19.0870  -28.8670   23.3590 C   0  0  0  0  0  0  0  0  0  0  0  0
  -18.8480  -30.1400   23.9210 C   0  0  0  0  0  3  0  0  0  0  0  0
  -17.5350  -30.6250   24.0690 C   0  0  0  0  0  3  0  0  0  0  0  0
  -16.4440  -29.8360   23.6670 C   0  0  0  0  0  3  0  0  0  0  0  0
  -16.6690  -28.5660   23.1070 C   0  0  0  0  0  3  0  0  0  0  0  0
  -25.8170  -32.5800   23.7920 C   0  0  0  0  0  3  0  0  0  0  0  0
  -25.4960  -33.9690   24.1500 N   0  0  0  0  0  0  0  0  0  0  0  0
  -25.7920  -35.0390   23.4000 C   0  0  0  0  0  0  0  0  0  0  0  0
  -26.4390  -34.9630   22.3520 O   0  0  0  0  0  0  0  0  0  0  0  0
  -24.9200  -34.1010   24.9690 H   0  0  0  0  0  0  0  0  0  0  0  0
  -24.0270  -36.8090   23.1160 C   0  0  0  0  0  1  0  0  0  0  0  0
  -25.2940  -36.4120   23.8920 C   0  0  0  0  0  3  0  0  0  0  0  0
  -27.4320  -37.3200   24.6850 C   0  0  0  0  0  1  0  0  0  0  0  0
  -26.3070  -37.4840   23.7710 N   0  0  0  0  0  0  0  0  0  0  0  0
  -25.8880  -38.3940   23.9410 H   0  0  0  0  0  0  0  0  0  0  0  0
  -26.3760  -31.7980   25.0440 C   0  0  1  0  0  0  0  0  0  0  0  0
  -25.3100  -31.5200   26.1280 C   0  0  0  0  0  1  0  0  0  0  0  0
  -26.9810  -30.4420   24.6160 C   0  0  0  0  0  1  0  0  0  0  0  0
  -27.5180  -32.6080   25.7010 C   0  0  0  0  0  1  0  0  0  0  0  0
  1  2  1  0
  1 53  1  0
  2  4  1  0
  3  1  2  0
  5  8  1  0
  7 10  2  0
  8  6  2  0
  8 14  1  0
  9  7  1  0
  9  5  2  0
 10  2  1  0
 10  6  1  0
 11  9  1  0
 12 11  1  0
 13 11  2  0
 15 14  2  0
 16 15  1  0
 17 22  1  0
 18 19  1  0
 18 17  1  0
 20 19  1  0
 20 27  1  0
 20 21  1  0
 22 16  1  0
 22 21  1  0
 23 16  2  0
 24 25  2  0
 25 44  1  0
 26 25  1  0
 26 29  1  0
 27 24  1  0
 27 28  1  0
 28 26  2  0
 29 30  1  0
 30 31  2  0
 32 35  1  0
 32 31  1  0
 33 32  2  0
 34 33  1  0
 34 29  2  0
 35 36  1  0
 36 41  2  0
 36 37  1  0
 37 38  2  0
 38 39  1  0
 39 43  1  0
 40 39  2  0
 41 40  1  0
 42 41  1  0
 44 45  1  0
 45 48  1  0
 45 47  1  0
 46 44  2  0
 49 50  1  0
 49 24  1  0
 51 49  1  0
 53 52  1  0
 54 55  1  0
 54 53  1  0
 56 67  2  0
 57 55  1  0
 57 62  1  0
 58 66  1  0
 58 68  1  0
 59 65  1  0
 59 61  1  0
 60 66  1  0
 61 60  1  0
 62 61  2  0
 63 64  1  0
 63 57  2  0
 64 59  2  0
 65 58  1  0
 66 56  1  0
 68 70  2  0
 69 68  1  0
 71 69  1  0
 72 81  2  0
 72 77  1  0
 73 69  1  0
 73 77  1  0
 74 73  1  0
 75 76  1  0
 75 74  1  0
 76 72  1  0
 77 78  2  0
 78 79  1  0
 80 79  2  0
 81 80  1  0
 82 56  1  0
 82 83  1  0
 82 92  1  0
 83 86  1  0
 84 88  1  0
 84 83  1  0
 85 84  2  0
 88 87  1  0
 90 88  1  0
 90 91  1  0
 90 89  1  0
 92 95  1  1
 92 93  1  0
 94 92  1  0
M  ISO  4  15 100  16 100  54 101  55 101
M  END
>  <TORSDO>  (69) 
F 21

>  <SCORE>  (69) 
-13.425

>  <name>  (69) 
68

>  <ligand_id>  (69) 
68

>  <original_smiles>  (69) 
[H]C(C(=O)N1C([H])([H])C([H])([H])C([H])([H])C([H])(n2nc(-c3c([H])c([H])c(Oc4c([H])c([H])c(F)c([H])c4F)c([H])c3[H])c(C(=O)N([H])[H])c2N([H])[H])C1([H])[H])=C([H])c1c([H])c(C(=O)C([H])([H])[H])c([H])c(N([H])C(=O)C([H])(C([H])([H])[H])C([H])([H])Oc2c([H])c([H])c3c(c2[H])C([H])([H])N(C(=O)C([H])(N([H])C(=O)C([H])(N([H])C([H])([H])[H])C([H])([H])[H])C(C([H])([H])[H])(C([H])([H])[H])C([H])([H])[H])C([H])(C(=O)N([H])C2([H])c4c([H])c([H])c([H])c([H])c4C([H])([H])C([H])([H])C2([H])[H])C3([H])[H])c1[H]

>  <smiles>  (69) 
[H]C(C(=O)N1C([H])([H])C([H])([H])C([H])([H])C([H])(n2nc(-c3c([H])c([H])c(Oc4c([H])c([H])c(F)c([H])c4F)c([H])c3[H])c(C(=O)N([H])[H])c2N([H])[H])C1([H])[H])=C([H])c1c([H])c(C(=O)C([H])([H])[H])c([H])c(N([H])C(=O)C([H])(C([H])([H])[H])C([H])([H])Oc2c([H])c([H])c3c(c2[H])C([H])([H])N(C(=O)C([H])(N([H])C(=O)C([H])(N([H])C([H])([H])[H])C([H])([H])[H])C(C([H])([H])[H])(C([H])([H])[H])C([H])([H])[H])C([H])(C(=O)N([H])C2([H])c4c([H])c([H])c([H])c([H])c4C([H])([H])C([H])([H])C2([H])[H])C3([H])[H])c1[H]

$$$$
69:0:0
     RDKit          3D

 96104  0  0  1  0  0  0  0  0999 V2000
  -29.3570  -20.6160   21.0950 C   0  0  0  0  0  0  0  0  0  0  0  0
  -29.8670  -20.7370   22.3220 N   0  0  0  0  0  4  0  0  0  0  0  0
  -28.7010  -21.6640   20.5570 N   0  0  0  0  0  0  0  0  0  0  0  0
  -30.4370  -19.9980   22.7010 H   0  0  0  0  0  0  0  0  0  0  0  0
  -29.7580  -21.5780   22.8630 H   0  0  0  0  0  0  0  0  0  0  0  0
  -28.2280  -21.4720   19.6840 H   0  0  0  0  0  0  0  0  0  0  0  0
  -29.9360  -18.2720   18.1750 C   0  0  0  0  0  3  0  0  0  0  0  0
  -29.6980  -19.4360   18.9310 C   0  0  0  0  0  3  0  0  0  0  0  0
  -30.0450  -17.0230   18.8140 C   0  0  0  0  0  3  0  0  0  0  0  0
  -29.6140  -18.0890   20.9650 C   0  0  0  0  0  3  0  0  0  0  0  0
  -29.5500  -19.3630   20.3330 C   0  0  0  0  0  0  0  0  0  0  0  0
  -29.8880  -16.9100   20.2170 C   0  0  0  0  0  0  0  0  0  0  0  0
  -30.6600  -14.5610   20.4410 C   0  0  0  0  0  0  0  0  0  0  0  0
  -30.3880  -12.3750   19.3510 C   0  0  0  0  0  2  0  0  0  0  0  0
  -29.4660  -12.5810   18.1310 C   0  0  0  0  0  2  0  0  0  0  0  0
  -27.9830  -12.4610   18.5360 C   0  0  0  0  0  2  0  0  0  0  0  0
  -27.6330  -13.2960   19.8000 C   0  0  0  0  0  3  0  0  0  0  0  0
  -28.6740  -13.0780   20.9220 C   0  0  0  0  0  2  0  0  0  0  0  0
  -30.0080  -13.3680   20.3690 N   0  0  0  0  0  0  0  0  0  0  0  0
  -31.8020  -14.7220   20.0040 O   0  0  0  0  0  0  0  0  0  0  0  0
  -29.9200  -15.6190   20.8520 N   0  0  0  0  0  0  0  0  0  0  0  0
  -29.1240  -15.3980   21.4280 H   0  0  0  0  0  0  0  0  0  0  0  0
  -25.2280  -13.9060   20.4860 C   0  0  0  0  0  0  0  0  0  0  0  0
  -24.1570  -13.1370   20.8560 C   0  0  0  0  0  0  0  0  0  0  0  0
  -24.6150  -11.7840   20.8340 C   0  0  0  0  0  0  0  0  0  0  0  0
  -26.2740  -13.0210   20.2660 N   0  0  0  0  0  0  0  0  0  0  0  0
  -25.9070  -11.7400   20.5330 N   0  0  0  0  0  0  0  0  0  0  0  0
  -23.8820  -10.5260   21.0260 C   0  0  0  0  0  0  0  0  0  0  0  0
  -24.3080   -9.5630   21.9670 C   0  0  0  0  0  3  0  0  0  0  0  0
  -23.5810   -8.3660   22.1450 C   0  0  0  0  0  3  0  0  0  0  0  0
  -22.4130   -8.1230   21.3830 C   0  0  0  0  0  0  0  0  0  0  0  0
  -22.0060   -9.0760   20.4310 C   0  0  0  0  0  3  0  0  0  0  0  0
  -22.7340  -10.2640   20.2510 C   0  0  0  0  0  3  0  0  0  0  0  0
  -21.6550   -6.9810   21.4730 O   0  0  0  0  0  0  0  0  0  0  0  0
  -21.6000   -6.2430   22.6280 C   0  0  0  0  0  0  0  0  0  0  0  0
  -21.1680   -6.8020   23.8500 C   0  0  0  0  0  3  0  0  0  0  0  0
  -21.0620   -5.9910   24.9970 C   0  0  0  0  0  3  0  0  0  0  0  0
  -21.3730   -4.6200   24.9230 C   0  0  0  0  0  0  0  0  0  0  0  0
  -21.7970   -4.0590   23.7060 C   0  0  0  0  0  3  0  0  0  0  0  0
  -21.9090   -4.8690   22.5620 C   0  0  0  0  0  0  0  0  0  0  0  0
  -22.2970   -4.3190   21.3850 F   0  0  0  0  0  0  0  0  0  0  0  0
  -21.2640   -3.8380   26.0220 F   0  0  0  0  0  0  0  0  0  0  0  0
  -22.7580  -13.6180   21.1100 C   0  0  0  0  0  0  0  0  0  0  0  0
  -22.0180  -12.9290   21.9720 N   0  0  0  0  0  0  0  0  0  0  0  0
  -22.3280  -14.6410   20.5790 O   0  0  0  0  0  0  0  0  0  0  0  0
  -22.3750  -12.1020   22.4290 H   0  0  0  0  0  0  0  0  0  0  0  0
  -21.0750  -13.2300   22.1760 H   0  0  0  0  0  0  0  0  0  0  0  0
  -25.3970  -15.2740   20.3030 N   0  0  0  0  0  0  0  0  0  0  0  0
  -24.6330  -15.9270   20.4310 H   0  0  0  0  0  0  0  0  0  0  0  0
  -26.2300  -15.7090   19.9240 H   0  0  0  0  0  0  0  0  0  0  0  0
  -28.4110  -22.9950   21.1500 C   0  0  0  0  0  2  0  0  0  0  0  0
  -30.1370  -24.2600   19.7800 C   0  0  0  0  0  1  0  0  0  0  0  0
  -27.7890  -24.0090   18.9130 C   0  0  0  0  0  1  0  0  0  0  0  0
  -28.6500  -24.1910   20.1770 C   0  0  1  0  0  0  0  0  0  0  0  0
  -28.2390  -25.4980   20.9220 C   0  0  0  0  0  2  0  0  0  0  0  0
  -28.3620  -26.7150   20.1610 O   0  0  0  0  0  0  0  0  0  0  0  0
  -24.5720  -31.9120   23.2440 C   0  0  0  0  0  0  0  0  0  0  0  0
  -27.2190  -27.4830   20.1490 C   0  0  0  0  0  0  0  0  0  0  0  0
  -23.3730  -30.5150   21.5910 C   0  0  0  0  0  3  0  0  0  0  0  0
  -24.8330  -28.9910   20.1590 C   0  0  0  0  0  0  0  0  0  0  0  0
  -25.9010  -30.8730   21.4090 C   0  0  0  0  0  2  0  0  0  0  0  0
  -25.9880  -29.5050   20.7630 C   0  0  0  0  0  0  0  0  0  0  0  0
  -27.1880  -28.7580   20.7570 C   0  0  0  0  0  3  0  0  0  0  0  0
  -26.0520  -26.9880   19.5300 C   0  0  0  0  0  3  0  0  0  0  0  0
  -24.8590  -27.7340   19.5350 C   0  0  0  0  0  3  0  0  0  0  0  0
  -23.5920  -29.8510   20.2050 C   0  0  0  0  0  2  0  0  0  0  0  0
  -24.6320  -31.1140   22.1390 N   0  0  0  0  0  0  0  0  0  0  0  0
  -23.4870  -32.1810   23.7790 O   0  0  0  0  0  0  0  0  0  0  0  0
  -22.7220  -29.4850   22.5420 C   0  0  0  0  0  0  0  0  0  0  0  0
  -21.3970  -29.3060   22.4110 N   0  0  0  0  0  0  0  0  0  0  0  0
  -23.4040  -28.8540   23.3540 O   0  0  0  0  0  0  0  0  0  0  0  0
  -20.9090  -29.8670   21.7270 H   0  0  0  0  0  0  0  0  0  0  0  0
  -18.0210  -28.1140   22.8970 C   0  0  0  0  0  0  0  0  0  0  0  0
  -20.5790  -28.3640   23.1750 C   0  0  0  0  0  3  0  0  0  0  0  0
  -20.6790  -26.9360   22.5890 C   0  0  0  0  0  2  0  0  0  0  0  0
  -19.5790  -26.6220   21.5710 C   0  0  0  0  0  2  0  0  0  0  0  0
  -18.1970  -26.7670   22.2140 C   0  0  0  0  0  2  0  0  0  0  0  0
  -19.1410  -28.8700   23.3330 C   0  0  0  0  0  0  0  0  0  0  0  0
  -18.9250  -30.1300   23.9320 C   0  0  0  0  0  3  0  0  0  0  0  0
  -17.6220  -30.6340   24.1000 C   0  0  0  0  0  3  0  0  0  0  0  0
  -16.5160  -29.8750   23.6800 C   0  0  0  0  0  3  0  0  0  0  0  0
  -16.7160  -28.6160   23.0840 C   0  0  0  0  0  3  0  0  0  0  0  0
  -25.8540  -32.5420   23.8680 C   0  0  0  0  0  3  0  0  0  0  0  0
  -26.3660  -31.7730   25.1490 C   0  0  1  0  0  0  0  0  0  0  0  0
  -25.2700  -31.5360   26.2130 C   0  0  0  0  0  1  0  0  0  0  0  0
  -26.9490  -30.3940   24.7610 C   0  0  0  0  0  1  0  0  0  0  0  0
  -27.5130  -32.5690   25.8160 C   0  0  0  0  0  1  0  0  0  0  0  0
  -25.5470  -33.9420   24.1870 N   0  0  0  0  0  0  0  0  0  0  0  0
  -25.8920  -34.9890   23.4250 C   0  0  0  0  0  0  0  0  0  0  0  0
  -26.5730  -34.8790   22.4030 O   0  0  0  0  0  0  0  0  0  0  0  0
  -24.9450  -34.1030   24.9820 H   0  0  0  0  0  0  0  0  0  0  0  0
  -24.1790  -36.7900   23.0310 C   0  0  0  0  0  1  0  0  0  0  0  0
  -25.4020  -36.3820   23.8680 C   0  0  0  0  0  3  0  0  0  0  0  0
  -27.5250  -37.2590   24.7390 C   0  0  0  0  0  1  0  0  0  0  0  0
  -26.4420  -37.4310   23.7730 N   0  0  0  0  0  0  0  0  0  0  0  0
  -26.0360  -38.3530   23.9140 H   0  0  0  0  0  0  0  0  0  0  0  0
  1  2  2  0
  2  4  1  0
  2  5  1  0
  3  1  1  0
  3 51  1  0
  6  3  1  0
  7  9  2  0
  7  8  1  0
  8 11  2  0
  9 12  1  0
 11 10  1  0
 11  1  1  0
 12 21  1  0
 12 10  2  0
 13 21  1  0
 14 19  1  0
 15 16  1  0
 15 14  1  0
 17 16  1  0
 17 26  1  0
 17 18  1  0
 19 13  1  0
 19 18  1  0
 20 13  2  0
 21 22  1  0
 23 24  2  0
 24 43  1  0
 25 24  1  0
 25 28  1  0
 26 23  1  0
 26 27  1  0
 27 25  2  0
 28 29  1  0
 29 30  2  0
 31 34  1  0
 31 30  1  0
 32 31  2  0
 33 32  1  0
 33 28  2  0
 34 35  1  0
 35 36  1  0
 36 37  2  0
 38 37  1  0
 38 42  1  0
 39 38  2  0
 40 35  2  0
 40 39  1  0
 41 40  1  0
 43 44  1  0
 44 47  1  0
 44 46  1  0
 45 43  2  0
 48 49  1  0
 48 23  1  0
 50 48  1  0
 54 52  1  6
 53 54  1  0
 54 55  1  0
 54 51  1  0
 56 55  1  0
 57 68  2  0
 58 56  1  0
 58 63  1  0
 59 67  1  0
 59 69  1  0
 60 66  1  0
 60 62  1  0
 61 67  1  0
 62 61  1  0
 63 62  2  0
 64 65  1  0
 64 58  2  0
 65 60  2  0
 66 59  1  0
 67 57  1  0
 69 71  2  0
 70 69  1  0
 72 70  1  0
 73 82  2  0
 73 78  1  0
 74 70  1  0
 74 78  1  0
 75 74  1  0
 76 77  1  0
 76 75  1  0
 77 73  1  0
 78 79  2  0
 79 80  1  0
 81 80  2  0
 82 81  1  0
 83 57  1  0
 83 88  1  0
 83 84  1  0
 84 87  1  1
 84 85  1  0
 86 84  1  0
 88 91  1  0
 89 93  1  0
 89 88  1  0
 90 89  2  0
 93 92  1  0
 95 93  1  0
 95 96  1  0
 95 94  1  0
M  ISO  4  13 100  21 100  55 101  56 101
M  END
>  <TORSDO>  (70) 
F 20

>  <SCORE>  (70) 
-14.212

>  <name>  (70) 
69

>  <ligand_id>  (70) 
69

>  <original_smiles>  (70) 
[H]c1c([H])c(C(N([H])[H])=[N+]([H])C([H])([H])C(C([H])([H])[H])(C([H])([H])[H])C([H])([H])Oc2c([H])c([H])c3c(c2[H])C([H])([H])N(C(=O)C([H])(N([H])C(=O)C([H])(N([H])C([H])([H])[H])C([H])([H])[H])C(C([H])([H])[H])(C([H])([H])[H])C([H])([H])[H])C([H])(C(=O)N([H])C2([H])c4c([H])c([H])c([H])c([H])c4C([H])([H])C([H])([H])C2([H])[H])C3([H])[H])c([H])c(N([H])C(=O)N2C([H])([H])C([H])([H])C([H])([H])C([H])(n3nc(-c4c([H])c([H])c(Oc5c([H])c([H])c(F)c([H])c5F)c([H])c4[H])c(C(=O)N([H])[H])c3N([H])[H])C2([H])[H])c1[H]

>  <smiles>  (70) 
[H]c1c([H])c(C(N([H])[H])=[N+]([H])C([H])([H])C(C([H])([H])[H])(C([H])([H])[H])C([H])([H])Oc2c([H])c([H])c3c(c2[H])C([H])([H])N(C(=O)C([H])(N([H])C(=O)C([H])(N([H])C([H])([H])[H])C([H])([H])[H])C(C([H])([H])[H])(C([H])([H])[H])C([H])([H])[H])C([H])(C(=O)N([H])C2([H])c4c([H])c([H])c([H])c([H])c4C([H])([H])C([H])([H])C2([H])[H])C3([H])[H])c([H])c(N([H])C(=O)N2C([H])([H])C([H])([H])C([H])([H])C([H])(n3nc(-c4c([H])c([H])c(Oc5c([H])c([H])c(F)c([H])c5F)c([H])c4[H])c(C(=O)N([H])[H])c3N([H])[H])C2([H])[H])c1[H]

$$$$
70:0:0
     RDKit          3D

 97105  0  0  1  0  0  0  0  0999 V2000
  -28.8360  -22.3960   20.2100 C   0  0  0  0  0  0  0  0  0  0  0  0
  -29.6410  -21.3660   20.6950 N   0  0  0  0  0  0  0  0  0  0  0  0
  -27.8330  -22.1010   19.5550 O   0  0  0  0  0  0  0  0  0  0  0  0
  -30.3130  -21.6370   21.4020 H   0  0  0  0  0  0  0  0  0  0  0  0
  -29.6000  -19.7310   18.8240 C   0  0  0  0  0  3  0  0  0  0  0  0
  -30.0780  -18.7740   21.0070 C   0  0  0  0  0  3  0  0  0  0  0  0
  -29.7340  -18.4500   18.2430 C   0  0  0  0  0  0  0  0  0  0  0  0
  -29.7510  -19.9550   20.2120 C   0  0  0  0  0  0  0  0  0  0  0  0
  -30.2400  -17.4380   20.4350 C   0  0  0  0  0  0  0  0  0  0  0  0
  -30.0660  -17.3290   19.0360 C   0  0  0  0  0  0  0  0  0  0  0  0
  -30.1420  -16.1060   18.4570 F   0  0  0  0  0  0  0  0  0  0  0  0
  -31.1270  -15.0380   20.8370 C   0  0  0  0  0  0  0  0  0  0  0  0
  -30.9730  -12.7430   19.8630 C   0  0  0  0  0  2  0  0  0  0  0  0
  -30.1430  -12.8110   18.5610 C   0  0  0  0  0  2  0  0  0  0  0  0
  -28.6350  -12.6950   18.8620 C   0  0  0  0  0  2  0  0  0  0  0  0
  -28.1830  -13.5910   20.0470 C   0  0  0  0  0  3  0  0  0  0  0  0
  -29.1460  -13.4910   21.2510 C   0  0  0  0  0  2  0  0  0  0  0  0
  -30.4970  -13.8140   20.7710 N   0  0  0  0  0  0  0  0  0  0  0  0
  -32.3140  -15.1380   20.5090 O   0  0  0  0  0  0  0  0  0  0  0  0
  -30.3920  -16.1610   21.1810 N   0  0  0  0  0  0  0  0  0  0  0  0
  -29.5570  -15.9150   21.6910 H   0  0  0  0  0  0  0  0  0  0  0  0
  -25.7630  -14.2320   20.6060 C   0  0  0  0  0  0  0  0  0  0  0  0
  -24.6520  -13.4810   20.8760 C   0  0  0  0  0  0  0  0  0  0  0  0
  -25.0800  -12.1170   20.8420 C   0  0  0  0  0  0  0  0  0  0  0  0
  -26.7980  -13.3300   20.4250 N   0  0  0  0  0  0  0  0  0  0  0  0
  -26.3890  -12.0510   20.6310 N   0  0  0  0  0  0  0  0  0  0  0  0
  -24.3080  -10.8720   20.9450 C   0  0  0  0  0  0  0  0  0  0  0  0
  -24.6510   -9.8670   21.8740 C   0  0  0  0  0  3  0  0  0  0  0  0
  -23.8810   -8.6880   21.9680 C   0  0  0  0  0  3  0  0  0  0  0  0
  -22.7540   -8.5050   21.1330 C   0  0  0  0  0  0  0  0  0  0  0  0
  -22.4300   -9.5000   20.1940 C   0  0  0  0  0  3  0  0  0  0  0  0
  -23.1990  -10.6720   20.0970 C   0  0  0  0  0  3  0  0  0  0  0  0
  -21.9630   -7.3820   21.1380 O   0  0  0  0  0  0  0  0  0  0  0  0
  -21.7940   -6.6250   22.2690 C   0  0  0  0  0  0  0  0  0  0  0  0
  -21.2710   -7.1720   23.4620 C   0  0  0  0  0  3  0  0  0  0  0  0
  -21.0490   -6.3430   24.5790 C   0  0  0  0  0  3  0  0  0  0  0  0
  -21.3390   -4.9680   24.5040 C   0  0  0  0  0  0  0  0  0  0  0  0
  -21.8550   -4.4200   23.3160 C   0  0  0  0  0  3  0  0  0  0  0  0
  -22.0790   -5.2460   22.2020 C   0  0  0  0  0  0  0  0  0  0  0  0
  -22.5550   -4.7100   21.0520 F   0  0  0  0  0  0  0  0  0  0  0  0
  -21.1190   -4.1690   25.5750 F   0  0  0  0  0  0  0  0  0  0  0  0
  -23.2520  -13.9910   21.0570 C   0  0  0  0  0  0  0  0  0  0  0  0
  -22.4500  -13.3040   21.8620 N   0  0  0  0  0  0  0  0  0  0  0  0
  -22.8770  -15.0330   20.5200 O   0  0  0  0  0  0  0  0  0  0  0  0
  -22.7640  -12.4600   22.3200 H   0  0  0  0  0  0  0  0  0  0  0  0
  -21.5070  -13.6250   22.0260 H   0  0  0  0  0  0  0  0  0  0  0  0
  -25.9770  -15.6020   20.4760 N   0  0  0  0  0  0  0  0  0  0  0  0
  -25.2210  -16.2750   20.5460 H   0  0  0  0  0  0  0  0  0  0  0  0
  -26.8590  -16.0200   20.2120 H   0  0  0  0  0  0  0  0  0  0  0  0
  -29.5320  -18.2920   16.7780 C   0  0  0  0  0  0  0  0  0  0  0  0
  -28.2670  -18.9110   16.1910 C   0  0  0  0  0  1  0  0  0  0  0  0
  -30.2950  -17.6730   16.0310 O   0  0  0  0  0  0  0  0  0  0  0  0
  -29.1520  -23.9720   20.3840 C   0  0  0  0  0  2  0  0  0  0  0  0
  -28.3810  -25.3820   22.3710 C   0  0  0  0  0  1  0  0  0  0  0  0
  -26.6410  -24.5410   20.8520 C   0  0  0  0  0  1  0  0  0  0  0  0
  -28.0820  -25.1140   20.8840 C   0  0  2  0  0  0  0  0  0  0  0  0
  -28.2040  -26.5160   20.2920 O   0  0  0  0  0  0  0  0  0  0  0  0
  -24.5470  -32.0260   23.3530 C   0  0  0  0  0  0  0  0  0  0  0  0
  -27.1240  -27.4350   20.2740 C   0  0  0  0  0  0  0  0  0  0  0  0
  -23.3370  -30.6340   21.7160 C   0  0  0  0  0  3  0  0  0  0  0  0
  -24.7790  -29.0950   20.2620 C   0  0  0  0  0  0  0  0  0  0  0  0
  -25.8780  -30.9390   21.5260 C   0  0  0  0  0  2  0  0  0  0  0  0
  -25.9510  -29.5590   20.8740 C   0  0  0  0  0  0  0  0  0  0  0  0
  -27.1270  -28.7400   20.8750 C   0  0  0  0  0  3  0  0  0  0  0  0
  -25.9520  -27.0750   19.5760 C   0  0  0  0  0  3  0  0  0  0  0  0
  -24.7850  -27.8610   19.5990 C   0  0  0  0  0  3  0  0  0  0  0  0
  -23.5430  -29.9720   20.3290 C   0  0  0  0  0  2  0  0  0  0  0  0
  -24.6070  -31.2190   22.2540 N   0  0  0  0  0  0  0  0  0  0  0  0
  -23.4670  -32.3000   23.8960 O   0  0  0  0  0  0  0  0  0  0  0  0
  -22.6810  -29.6110   22.6750 C   0  0  0  0  0  0  0  0  0  0  0  0
  -21.3650  -29.3830   22.5130 N   0  0  0  0  0  0  0  0  0  0  0  0
  -23.3550  -29.0270   23.5270 O   0  0  0  0  0  0  0  0  0  0  0  0
  -20.8790  -29.9080   21.8000 H   0  0  0  0  0  0  0  0  0  0  0  0
  -18.0320  -28.0270   22.9010 C   0  0  0  0  0  0  0  0  0  0  0  0
  -20.5580  -28.4310   23.2790 C   0  0  0  0  0  3  0  0  0  0  0  0
  -20.7610  -26.9880   22.7630 C   0  0  0  0  0  2  0  0  0  0  0  0
  -19.7270  -26.5730   21.7110 C   0  0  0  0  0  2  0  0  0  0  0  0
  -18.3100  -26.6680   22.2830 C   0  0  0  0  0  2  0  0  0  0  0  0
  -19.0880  -28.8620   23.3550 C   0  0  0  0  0  0  0  0  0  0  0  0
  -18.7770  -30.1310   23.8900 C   0  0  0  0  0  3  0  0  0  0  0  0
  -17.4400  -30.5660   23.9780 C   0  0  0  0  0  3  0  0  0  0  0  0
  -16.3980  -29.7310   23.5400 C   0  0  0  0  0  3  0  0  0  0  0  0
  -16.6950  -28.4640   23.0070 C   0  0  0  0  0  3  0  0  0  0  0  0
  -25.8340  -32.6580   23.9680 C   0  0  0  0  0  3  0  0  0  0  0  0
  -26.3270  -31.9170   25.2710 C   0  0  1  0  0  0  0  0  0  0  0  0
  -25.2070  -31.6740   26.3100 C   0  0  0  0  0  1  0  0  0  0  0  0
  -26.9480  -30.5440   24.9190 C   0  0  0  0  0  1  0  0  0  0  0  0
  -27.4430  -32.7430   25.9530 C   0  0  0  0  0  1  0  0  0  0  0  0
  -25.5400  -34.0690   24.2590 N   0  0  0  0  0  0  0  0  0  0  0  0
  -25.8800  -35.0980   23.4690 C   0  0  0  0  0  0  0  0  0  0  0  0
  -26.5450  -34.9590   22.4390 O   0  0  0  0  0  0  0  0  0  0  0  0
  -24.9490  -34.2510   25.0570 H   0  0  0  0  0  0  0  0  0  0  0  0
  -24.1570  -36.8920   23.0900 C   0  0  0  0  0  1  0  0  0  0  0  0
  -25.4100  -36.5040   23.8910 C   0  0  0  0  0  3  0  0  0  0  0  0
  -27.5650  -37.4020   24.6560 C   0  0  0  0  0  1  0  0  0  0  0  0
  -26.4490  -37.5450   23.7250 N   0  0  0  0  0  0  0  0  0  0  0  0
  -26.0510  -38.4730   23.8480 H   0  0  0  0  0  0  0  0  0  0  0  0
  1 53  1  0
  1  2  1  0
  2  4  1  0
  3  1  2  0
  5  8  1  0
  7  5  2  0
  7 10  1  0
  8  2  1  0
  8  6  2  0
  9  6  1  0
  9 20  1  0
 10  9  2  0
 11 10  1  0
 12 20  1  0
 13 18  1  0
 14 15  1  0
 14 13  1  0
 16 15  1  0
 16 25  1  0
 16 17  1  0
 18 12  1  0
 18 17  1  0
 19 12  2  0
 20 21  1  0
 22 23  2  0
 23 42  1  0
 24 23  1  0
 24 27  1  0
 25 22  1  0
 25 26  1  0
 26 24  2  0
 27 28  1  0
 28 29  2  0
 30 33  1  0
 30 29  1  0
 31 30  2  0
 32 31  1  0
 32 27  2  0
 33 34  1  0
 34 35  1  0
 35 36  2  0
 37 36  1  0
 37 41  1  0
 38 37  2  0
 39 34  2  0
 39 38  1  0
 40 39  1  0
 42 43  1  0
 43 46  1  0
 43 45  1  0
 44 42  2  0
 47 48  1  0
 47 22  1  0
 49 47  1  0
 50  7  1  0
 51 50  1  0
 52 50  2  0
 53 56  1  0
 56 55  1  1
 56 54  1  0
 57 56  1  0
 58 69  2  0
 59 57  1  0
 59 64  1  0
 60 68  1  0
 60 70  1  0
 61 67  1  0
 61 63  1  0
 62 68  1  0
 63 64  2  0
 63 62  1  0
 65 66  1  0
 65 59  2  0
 66 61  2  0
 67 60  1  0
 68 58  1  0
 70 72  2  0
 71 70  1  0
 73 71  1  0
 74 83  2  0
 74 79  1  0
 75 71  1  0
 75 79  1  0
 76 75  1  0
 77 78  1  0
 77 76  1  0
 78 74  1  0
 79 80  2  0
 80 81  1  0
 82 81  2  0
 83 82  1  0
 84 58  1  0
 84 89  1  0
 84 85  1  0
 85 88  1  1
 85 86  1  0
 87 85  1  0
 89 92  1  0
 90 94  1  0
 90 89  1  0
 91 90  2  0
 94 93  1  0
 96 97  1  0
 96 94  1  0
 96 95  1  0
M  ISO  4  12 100  20 100  56 101  57 101
M  END
>  <TORSDO>  (71) 
F 20

>  <SCORE>  (71) 
-13.108

>  <name>  (71) 
70

>  <ligand_id>  (71) 
70

>  <original_smiles>  (71) 
[H]c1c([H])c([H])c2c(c1[H])C([H])([H])C([H])([H])C([H])([H])C2([H])N([H])C(=O)C1([H])N(C(=O)C([H])(N([H])C(=O)C([H])(N([H])C([H])([H])[H])C([H])([H])[H])C(C([H])([H])[H])(C([H])([H])[H])C([H])([H])[H])C([H])([H])c2c([H])c(OC(C([H])([H])[H])(C([H])([H])[H])C([H])([H])C(=O)N([H])c3c([H])c(C(=O)C([H])([H])[H])c(F)c(N([H])C(=O)N4C([H])([H])C([H])([H])C([H])([H])C([H])(n5nc(-c6c([H])c([H])c(Oc7c([H])c([H])c(F)c([H])c7F)c([H])c6[H])c(C(=O)N([H])[H])c5N([H])[H])C4([H])[H])c3[H])c([H])c([H])c2C1([H])[H]

>  <smiles>  (71) 
[H]c1c([H])c([H])c2c(c1[H])C([H])([H])C([H])([H])C([H])([H])C2([H])N([H])C(=O)C1([H])N(C(=O)C([H])(N([H])C(=O)C([H])(N([H])C([H])([H])[H])C([H])([H])[H])C(C([H])([H])[H])(C([H])([H])[H])C([H])([H])[H])C([H])([H])c2c([H])c(OC(C([H])([H])[H])(C([H])([H])[H])C([H])([H])C(=O)N([H])c3c([H])c(C(=O)C([H])([H])[H])c(F)c(N([H])C(=O)N4C([H])([H])C([H])([H])C([H])([H])C([H])(n5nc(-c6c([H])c([H])c(Oc7c([H])c([H])c(F)c([H])c7F)c([H])c6[H])c(C(=O)N([H])[H])c5N([H])[H])C4([H])[H])c3[H])c([H])c([H])c2C1([H])[H]

$$$$
71:0:0
     RDKit          3D

 95104  0  0  1  0  0  0  0  0999 V2000
  -29.3480  -21.1090   20.4350 C   0  0  0  0  0  2  0  0  0  0  0  0
  -32.9030  -18.9030   20.5160 C   0  0  0  0  0  3  0  0  0  0  0  0
  -32.6090  -18.2190   19.3180 C   0  0  0  0  0  3  0  0  0  0  0  0
  -31.8490  -19.0850   21.4230 C   0  0  0  0  0  3  0  0  0  0  0  0
  -31.3770  -17.5420   19.1480 C   0  0  0  0  0  3  0  0  0  0  0  0
  -30.4830  -18.6240   21.1490 C   0  0  0  0  0  3  0  0  0  0  0  0
  -30.4320  -17.4950   20.2150 C   0  0  0  0  0  3  0  0  0  0  0  0
  -31.3370  -20.4020   21.7980 C   0  0  0  0  0  2  0  0  0  0  0  0
  -31.1710  -16.7410   17.8700 C   0  0  0  0  0  1  0  0  0  0  0  0
  -29.9830  -20.0220   21.3230 N   0  0  0  0  0  0  0  0  0  0  0  0
  -30.8020  -14.9130   20.5430 C   0  0  0  0  0  0  0  0  0  0  0  0
  -30.6330  -12.6150   19.5760 C   0  0  0  0  0  2  0  0  0  0  0  0
  -29.7550  -12.6630   18.3050 C   0  0  0  0  0  2  0  0  0  0  0  0
  -28.2690  -12.4910   18.6710 C   0  0  0  0  0  2  0  0  0  0  0  0
  -27.8390  -13.3780   19.8730 C   0  0  0  0  0  3  0  0  0  0  0  0
  -28.8520  -13.3330   21.0340 C   0  0  0  0  0  2  0  0  0  0  0  0
  -30.1610  -13.6920   20.4810 N   0  0  0  0  0  0  0  0  0  0  0  0
  -32.0160  -14.9410   20.3310 O   0  0  0  0  0  0  0  0  0  0  0  0
  -30.0590  -16.1000   20.6370 N   0  0  0  0  0  0  0  0  0  0  0  0
  -29.1170  -15.9880   20.9780 H   0  0  0  0  0  0  0  0  0  0  0  0
  -25.4200  -13.9410   20.5050 C   0  0  0  0  0  0  0  0  0  0  0  0
  -24.3520  -13.1580   20.8470 C   0  0  0  0  0  0  0  0  0  0  0  0
  -24.8320  -11.8130   20.8490 C   0  0  0  0  0  0  0  0  0  0  0  0
  -26.4830  -13.0720   20.3170 N   0  0  0  0  0  0  0  0  0  0  0  0
  -26.1340  -11.7870   20.5850 N   0  0  0  0  0  0  0  0  0  0  0  0
  -24.1110  -10.5450   21.0270 C   0  0  0  0  0  0  0  0  0  0  0  0
  -24.4960   -9.6070   22.0090 C   0  0  0  0  0  3  0  0  0  0  0  0
  -23.7750   -8.4050   22.1760 C   0  0  0  0  0  3  0  0  0  0  0  0
  -22.6530   -8.1320   21.3590 C   0  0  0  0  0  0  0  0  0  0  0  0
  -22.2850   -9.0590   20.3670 C   0  0  0  0  0  3  0  0  0  0  0  0
  -23.0070  -10.2510   20.1990 C   0  0  0  0  0  3  0  0  0  0  0  0
  -21.9080   -6.9790   21.4320 O   0  0  0  0  0  0  0  0  0  0  0  0
  -21.7700   -6.2840   22.6060 C   0  0  0  0  0  0  0  0  0  0  0  0
  -21.1880   -6.8650   23.7540 C   0  0  0  0  0  3  0  0  0  0  0  0
  -20.9990   -6.0920   24.9160 C   0  0  0  0  0  3  0  0  0  0  0  0
  -21.3860   -4.7390   24.9340 C   0  0  0  0  0  0  0  0  0  0  0  0
  -21.9640   -4.1570   23.7930 C   0  0  0  0  0  3  0  0  0  0  0  0
  -22.1520   -4.9270   22.6320 C   0  0  0  0  0  0  0  0  0  0  0  0
  -22.6880   -4.3550   21.5260 F   0  0  0  0  0  0  0  0  0  0  0  0
  -21.2000   -3.9950   26.0500 F   0  0  0  0  0  0  0  0  0  0  0  0
  -22.9410  -13.6250   21.0600 C   0  0  0  0  0  0  0  0  0  0  0  0
  -22.1880  -12.9320   21.9060 N   0  0  0  0  0  0  0  0  0  0  0  0
  -22.5150  -14.6390   20.5090 O   0  0  0  0  0  0  0  0  0  0  0  0
  -22.5480  -12.1170   22.3810 H   0  0  0  0  0  0  0  0  0  0  0  0
  -21.2380  -13.2220   22.0860 H   0  0  0  0  0  0  0  0  0  0  0  0
  -25.5710  -15.3090   20.3130 N   0  0  0  0  0  0  0  0  0  0  0  0
  -24.7780  -15.9410   20.3740 H   0  0  0  0  0  0  0  0  0  0  0  0
  -26.4100  -15.7600   19.9750 H   0  0  0  0  0  0  0  0  0  0  0  0
  -28.8610  -22.5710   22.4830 C   0  0  0  0  0  1  0  0  0  0  0  0
  -30.6710  -23.3780   20.9800 C   0  0  0  0  0  1  0  0  0  0  0  0
  -29.2820  -22.6890   20.9950 C   0  0  1  0  0  0  0  0  0  0  0  0
  -28.2170  -23.7690   20.3830 C   0  0  0  0  0  0  0  0  0  0  0  0
  -27.0150  -23.5040   20.4910 O   0  0  0  0  0  0  0  0  0  0  0  0
  -28.5800  -25.1470   19.6160 C   0  0  0  0  0  2  0  0  0  0  0  0
  -28.3920  -26.4970   20.2670 O   0  0  0  0  0  0  0  0  0  0  0  0
  -24.5870  -31.8940   23.2260 C   0  0  0  0  0  0  0  0  0  0  0  0
  -27.2680  -27.3490   20.1420 C   0  0  0  0  0  0  0  0  0  0  0  0
  -23.4110  -30.5030   21.5570 C   0  0  0  0  0  3  0  0  0  0  0  0
  -24.8900  -28.9780   20.1140 C   0  0  0  0  0  0  0  0  0  0  0  0
  -25.9510  -30.8320   21.4040 C   0  0  0  0  0  2  0  0  0  0  0  0
  -26.0470  -29.4600   20.7360 C   0  0  0  0  0  0  0  0  0  0  0  0
  -27.2310  -28.6550   20.7420 C   0  0  0  0  0  3  0  0  0  0  0  0
  -26.0890  -26.9330   19.4890 C   0  0  0  0  0  3  0  0  0  0  0  0
  -24.9150  -27.7210   19.4810 C   0  0  0  0  0  3  0  0  0  0  0  0
  -23.6450  -29.8460   20.1670 C   0  0  0  0  0  2  0  0  0  0  0  0
  -24.6680  -31.0960   22.1190 N   0  0  0  0  0  0  0  0  0  0  0  0
  -23.4970  -32.1540   23.7570 O   0  0  0  0  0  0  0  0  0  0  0  0
  -22.7460  -29.4720   22.5000 C   0  0  0  0  0  0  0  0  0  0  0  0
  -21.4190  -29.2960   22.3730 N   0  0  0  0  0  0  0  0  0  0  0  0
  -23.4260  -28.8350   23.3090 O   0  0  0  0  0  0  0  0  0  0  0  0
  -20.9290  -29.8630   21.6950 H   0  0  0  0  0  0  0  0  0  0  0  0
  -18.0430  -28.0980   22.8740 C   0  0  0  0  0  0  0  0  0  0  0  0
  -20.6040  -28.3430   23.1280 C   0  0  0  0  0  3  0  0  0  0  0  0
  -20.6980  -26.9260   22.5170 C   0  0  0  0  0  2  0  0  0  0  0  0
  -19.5870  -26.6330   21.5030 C   0  0  0  0  0  2  0  0  0  0  0  0
  -18.2100  -26.7660   22.1620 C   0  0  0  0  0  2  0  0  0  0  0  0
  -19.1670  -28.8460   23.3130 C   0  0  0  0  0  0  0  0  0  0  0  0
  -18.9580  -30.0940   23.9400 C   0  0  0  0  0  3  0  0  0  0  0  0
  -17.6550  -30.5920   24.1330 C   0  0  0  0  0  3  0  0  0  0  0  0
  -16.5460  -29.8410   23.7090 C   0  0  0  0  0  3  0  0  0  0  0  0
  -16.7410  -28.5960   23.0850 C   0  0  0  0  0  3  0  0  0  0  0  0
  -25.8560  -32.5340   23.8670 C   0  0  0  0  0  3  0  0  0  0  0  0
  -26.3480  -31.7770   25.1610 C   0  0  1  0  0  0  0  0  0  0  0  0
  -25.2330  -31.5520   26.2100 C   0  0  0  0  0  1  0  0  0  0  0  0
  -26.9420  -30.3940   24.8020 C   0  0  0  0  0  1  0  0  0  0  0  0
  -27.4820  -32.5800   25.8410 C   0  0  0  0  0  1  0  0  0  0  0  0
  -25.5400  -33.9350   24.1800 N   0  0  0  0  0  0  0  0  0  0  0  0
  -25.8860  -34.9840   23.4210 C   0  0  0  0  0  0  0  0  0  0  0  0
  -26.5700  -34.8730   22.4000 O   0  0  0  0  0  0  0  0  0  0  0  0
  -24.9360  -34.0960   24.9710 H   0  0  0  0  0  0  0  0  0  0  0  0
  -24.1760  -36.7850   23.0210 C   0  0  0  0  0  1  0  0  0  0  0  0
  -25.3940  -36.3760   23.8630 C   0  0  0  0  0  3  0  0  0  0  0  0
  -27.5040  -37.2600   24.7530 C   0  0  0  0  0  1  0  0  0  0  0  0
  -26.4340  -37.4230   23.7730 N   0  0  0  0  0  0  0  0  0  0  0  0
  -26.0280  -38.3460   23.9020 H   0  0  0  0  0  0  0  0  0  0  0  0
  1 51  1  0
  1 10  1  0
  3  2  2  0
  4  2  1  0
  4  8  1  0
  5  9  1  0
  5  3  1  0
  5  7  1  0
  6 10  1  0
  6  4  1  0
  7 19  1  0
  7  6  1  0
 10  8  1  0
 11 19  1  0
 12 17  1  0
 13 14  1  0
 13 12  1  0
 15 14  1  0
 15 24  1  0
 15 16  1  0
 17 11  1  0
 17 16  1  0
 18 11  2  0
 19 20  1  0
 21 22  2  0
 22 23  1  0
 22 41  1  0
 23 26  1  0
 24 21  1  0
 24 25  1  0
 25 23  2  0
 26 27  1  0
 27 28  2  0
 29 32  1  0
 29 28  1  0
 30 29  2  0
 31 30  1  0
 31 26  2  0
 32 33  1  0
 33 38  2  0
 33 34  1  0
 34 35  2  0
 35 36  1  0
 36 40  1  0
 37 36  2  0
 38 37  1  0
 39 38  1  0
 41 42  1  0
 42 45  1  0
 42 44  1  0
 43 41  2  0
 46 47  1  0
 46 21  1  0
 48 46  1  0
 51 50  1  1
 51 49  1  0
 52 53  2  0
 52 51  1  0
 54 55  1  0
 54 52  1  0
 56 67  2  0
 57 55  1  0
 57 62  1  0
 58 66  1  0
 58 68  1  0
 59 65  1  0
 59 61  1  0
 60 66  1  0
 61 62  2  0
 61 60  1  0
 63 57  2  0
 64 63  1  0
 64 59  2  0
 65 58  1  0
 66 56  1  0
 68 70  2  0
 69 68  1  0
 71 69  1  0
 72 81  2  0
 72 77  1  0
 73 69  1  0
 73 77  1  0
 74 73  1  0
 75 76  1  0
 75 74  1  0
 76 72  1  0
 77 78  2  0
 78 79  1  0
 80 79  2  0
 81 80  1  0
 82 56  1  0
 82 87  1  0
 82 83  1  0
 83 86  1  1
 83 84  1  0
 85 83  1  0
 87 90  1  0
 88 92  1  0
 88 87  1  0
 89 88  2  0
 92 91  1  0
 94 92  1  0
 94 95  1  0
 94 93  1  0
M  ISO  4  11 100  19 100  54 101  55 101
M  END
>  <TORSDO>  (72) 
F 20

>  <SCORE>  (72) 
-13.999

>  <name>  (72) 
71

>  <ligand_id>  (72) 
71

>  <original_smiles>  (72) 
[H]c1c([H])c([H])c2c(c1[H])C([H])([H])C([H])([H])C([H])([H])C2([H])N([H])C(=O)C1([H])N(C(=O)C([H])(N([H])C(=O)C([H])(N([H])C([H])([H])[H])C([H])([H])[H])C(C([H])([H])[H])(C([H])([H])[H])C([H])([H])[H])C([H])([H])c2c([H])c(OC([H])([H])C(=O)C(C([H])([H])[H])(C([H])([H])[H])C([H])([H])N3c4c(N([H])C(=O)N5C([H])([H])C([H])([H])C([H])([H])C([H])(n6nc(-c7c([H])c([H])c(Oc8c([H])c([H])c(F)c([H])c8F)c([H])c7[H])c(C(=O)N([H])[H])c6N([H])[H])C5([H])[H])c(C([H])([H])[H])c([H])c([H])c4C3([H])[H])c([H])c([H])c2C1([H])[H]

>  <smiles>  (72) 
[H]c1c([H])c([H])c2c(c1[H])C([H])([H])C([H])([H])C([H])([H])C2([H])N([H])C(=O)C1([H])N(C(=O)C([H])(N([H])C(=O)C([H])(N([H])C([H])([H])[H])C([H])([H])[H])C(C([H])([H])[H])(C([H])([H])[H])C([H])([H])[H])C([H])([H])c2c([H])c(OC([H])([H])C(=O)C(C([H])([H])[H])(C([H])([H])[H])C([H])([H])N3c4c(N([H])C(=O)N5C([H])([H])C([H])([H])C([H])([H])C([H])(n6nc(-c7c([H])c([H])c(Oc8c([H])c([H])c(F)c([H])c8F)c([H])c7[H])c(C(=O)N([H])[H])c6N([H])[H])C5([H])[H])c(C([H])([H])[H])c([H])c([H])c4C3([H])[H])c([H])c([H])c2C1([H])[H]

$$$$
72:0:0
     RDKit          3D

 95103  0  0  1  0  0  0  0  0999 V2000
  -29.1520  -21.9920   20.5740 C   0  0  0  0  0  2  0  0  0  0  0  0
  -29.3880  -22.5600   23.0280 C   0  0  0  0  0  1  0  0  0  0  0  0
  -28.7460  -23.0280   21.6920 C   0  0  0  0  0  3  0  0  0  0  0  0
  -30.4850  -24.9250   21.4390 C   0  0  0  0  0  1  0  0  0  0  0  0
  -28.3110  -25.4010   22.5700 C   0  0  0  0  0  1  0  0  0  0  0  0
  -28.9790  -24.5950   21.4250 C   0  0  2  0  0  0  0  0  0  0  0  0
  -28.3530  -25.1360   20.0840 C   0  0  0  0  0  2  0  0  0  0  0  0
  -28.4100  -26.5940   19.9090 O   0  0  0  0  0  0  0  0  0  0  0  0
  -24.5390  -31.7370   23.0510 C   0  0  0  0  0  0  0  0  0  0  0  0
  -27.2370  -27.3420   19.8910 C   0  0  0  0  0  0  0  0  0  0  0  0
  -23.3530  -30.3410   21.3930 C   0  0  0  0  0  3  0  0  0  0  0  0
  -24.8240  -28.8550   19.9320 C   0  0  0  0  0  0  0  0  0  0  0  0
  -25.8770  -30.7340   21.1960 C   0  0  0  0  0  2  0  0  0  0  0  0
  -25.9820  -29.3730   20.5270 C   0  0  0  0  0  0  0  0  0  0  0  0
  -27.1900  -28.6280   20.4970 C   0  0  0  0  0  3  0  0  0  0  0  0
  -26.0600  -26.8660   19.2670 C   0  0  0  0  0  3  0  0  0  0  0  0
  -24.8630  -27.6050   19.2950 C   0  0  0  0  0  3  0  0  0  0  0  0
  -23.5680  -29.6950   20.0000 C   0  0  0  0  0  2  0  0  0  0  0  0
  -24.6070  -30.9530   21.9360 N   0  0  0  0  0  0  0  0  0  0  0  0
  -23.4540  -31.9800   23.5980 O   0  0  0  0  0  0  0  0  0  0  0  0
  -22.7250  -29.2920   22.3380 C   0  0  0  0  0  0  0  0  0  0  0  0
  -21.4030  -29.0880   22.2120 N   0  0  0  0  0  0  0  0  0  0  0  0
  -23.4240  -28.6660   23.1380 O   0  0  0  0  0  0  0  0  0  0  0  0
  -20.9000  -29.6400   21.5340 H   0  0  0  0  0  0  0  0  0  0  0  0
  -18.0530  -27.8300   22.7160 C   0  0  0  0  0  0  0  0  0  0  0  0
  -20.6090  -28.1210   22.9700 C   0  0  0  0  0  3  0  0  0  0  0  0
  -20.7310  -26.7060   22.3600 C   0  0  0  0  0  2  0  0  0  0  0  0
  -19.6250  -26.3890   21.3490 C   0  0  0  0  0  2  0  0  0  0  0  0
  -18.2460  -26.4980   22.0080 C   0  0  0  0  0  2  0  0  0  0  0  0
  -19.1640  -28.6000   23.1520 C   0  0  0  0  0  0  0  0  0  0  0  0
  -18.9310  -29.8460   23.7730 C   0  0  0  0  0  3  0  0  0  0  0  0
  -17.6200  -30.3210   23.9630 C   0  0  0  0  0  3  0  0  0  0  0  0
  -16.5250  -29.5480   23.5430 C   0  0  0  0  0  3  0  0  0  0  0  0
  -16.7420  -28.3050   22.9240 C   0  0  0  0  0  3  0  0  0  0  0  0
  -25.8120  -32.3850   23.6750 C   0  0  0  0  0  3  0  0  0  0  0  0
  -25.4710  -33.7660   24.0460 N   0  0  0  0  0  0  0  0  0  0  0  0
  -25.7860  -34.8470   23.3210 C   0  0  0  0  0  0  0  0  0  0  0  0
  -26.4640  -34.7890   22.2910 O   0  0  0  0  0  0  0  0  0  0  0  0
  -24.8650  -33.8840   24.8460 H   0  0  0  0  0  0  0  0  0  0  0  0
  -24.0390  -36.6270   22.9920 C   0  0  0  0  0  1  0  0  0  0  0  0
  -25.2660  -36.2110   23.8160 C   0  0  0  0  0  3  0  0  0  0  0  0
  -27.3590  -37.1020   24.7400 C   0  0  0  0  0  1  0  0  0  0  0  0
  -26.2850  -37.2820   23.7680 N   0  0  0  0  0  0  0  0  0  0  0  0
  -25.8600  -38.1910   23.9300 H   0  0  0  0  0  0  0  0  0  0  0  0
  -26.3620  -31.5930   24.9250 C   0  0  1  0  0  0  0  0  0  0  0  0
  -25.2850  -31.2940   25.9940 C   0  0  0  0  0  1  0  0  0  0  0  0
  -26.9760  -30.2430   24.4880 C   0  0  0  0  0  1  0  0  0  0  0  0
  -27.5010  -32.3980   25.5970 C   0  0  0  0  0  1  0  0  0  0  0  0
  -28.8620  -20.5780   20.9370 N   0  0  0  0  0  0  0  0  0  0  0  0
  -28.6960  -20.4100   21.9270 H   0  0  0  0  0  0  0  0  0  0  0  0
  -29.4000  -18.1530   20.7120 C   0  0  0  0  0  3  0  0  0  0  0  0
  -30.0640  -17.2510   18.5540 C   0  0  0  0  0  3  0  0  0  0  0  0
  -29.5250  -19.6290   18.7730 C   0  0  0  0  0  3  0  0  0  0  0  0
  -29.8220  -17.0280   19.9320 C   0  0  0  0  0  0  0  0  0  0  0  0
  -29.2680  -19.4660   20.1510 C   0  0  0  0  0  0  0  0  0  0  0  0
  -29.9050  -18.5290   17.9830 C   0  0  0  0  0  0  0  0  0  0  0  0
  -30.1100  -18.6980   16.6550 F   0  0  0  0  0  0  0  0  0  0  0  0
  -30.6590  -14.6360   20.0370 C   0  0  0  0  0  0  0  0  0  0  0  0
  -30.3790  -12.4240   18.9750 C   0  0  0  0  0  2  0  0  0  0  0  0
  -29.3770  -12.5940   17.8130 C   0  0  0  0  0  2  0  0  0  0  0  0
  -27.9270  -12.4420   18.3140 C   0  0  0  0  0  2  0  0  0  0  0  0
  -27.6400  -13.2890   19.5840 C   0  0  0  0  0  3  0  0  0  0  0  0
  -28.7510  -13.0970   20.6430 C   0  0  0  0  0  2  0  0  0  0  0  0
  -30.0380  -13.4190   20.0100 N   0  0  0  0  0  0  0  0  0  0  0  0
  -31.7790  -14.8060   19.5470 O   0  0  0  0  0  0  0  0  0  0  0  0
  -29.9170  -15.6860   20.4930 N   0  0  0  0  0  0  0  0  0  0  0  0
  -29.1870  -15.4330   21.1440 H   0  0  0  0  0  0  0  0  0  0  0  0
  -25.2930  -13.8800   20.4500 C   0  0  0  0  0  0  0  0  0  0  0  0
  -24.2450  -13.1000   20.8580 C   0  0  0  0  0  0  0  0  0  0  0  0
  -24.6970  -11.7490   20.7640 C   0  0  0  0  0  0  0  0  0  0  0  0
  -26.3180  -13.0020   20.1310 N   0  0  0  0  0  0  0  0  0  0  0  0
  -25.9690  -11.7150   20.3820 N   0  0  0  0  0  0  0  0  0  0  0  0
  -23.9790  -10.4860   20.9630 C   0  0  0  0  0  0  0  0  0  0  0  0
  -24.4230   -9.5180   21.8910 C   0  0  0  0  0  3  0  0  0  0  0  0
  -23.7010   -8.3190   22.0730 C   0  0  0  0  0  3  0  0  0  0  0  0
  -22.5230   -8.0770   21.3270 C   0  0  0  0  0  0  0  0  0  0  0  0
  -22.1020   -9.0320   20.3870 C   0  0  0  0  0  3  0  0  0  0  0  0
  -22.8230  -10.2230   20.2020 C   0  0  0  0  0  3  0  0  0  0  0  0
  -21.7690   -6.9330   21.4230 O   0  0  0  0  0  0  0  0  0  0  0  0
  -21.6970   -6.2150   22.5900 C   0  0  0  0  0  0  0  0  0  0  0  0
  -21.1770   -6.7740   23.7780 C   0  0  0  0  0  3  0  0  0  0  0  0
  -21.0540   -5.9770   24.9360 C   0  0  0  0  0  3  0  0  0  0  0  0
  -21.4420   -4.6250   24.9060 C   0  0  0  0  0  0  0  0  0  0  0  0
  -21.9550   -4.0660   23.7220 C   0  0  0  0  0  3  0  0  0  0  0  0
  -22.0790   -4.8580   22.5670 C   0  0  0  0  0  0  0  0  0  0  0  0
  -22.5540   -4.3080   21.4240 F   0  0  0  0  0  0  0  0  0  0  0  0
  -21.3170   -3.8580   26.0150 F   0  0  0  0  0  0  0  0  0  0  0  0
  -22.8700  -13.5740   21.2260 C   0  0  0  0  0  0  0  0  0  0  0  0
  -22.1850  -12.8470   22.1020 N   0  0  0  0  0  0  0  0  0  0  0  0
  -22.4160  -14.6230   20.7730 O   0  0  0  0  0  0  0  0  0  0  0  0
  -22.5720  -11.9970   22.4890 H   0  0  0  0  0  0  0  0  0  0  0  0
  -21.2630  -13.1430   22.3920 H   0  0  0  0  0  0  0  0  0  0  0  0
  -25.4590  -15.2530   20.2990 N   0  0  0  0  0  0  0  0  0  0  0  0
  -24.7060  -15.9130   20.4690 H   0  0  0  0  0  0  0  0  0  0  0  0
  -26.2930  -15.6930   19.9250 H   0  0  0  0  0  0  0  0  0  0  0  0
  1 49  1  0
  1  3  1  0
  3  2  1  0
  6  4  1  6
  6  3  1  0
  6  5  1  0
  7  6  1  0
  8  7  1  0
  9 20  2  0
 10  8  1  0
 10 15  1  0
 11 19  1  0
 11 21  1  0
 12 18  1  0
 12 14  1  0
 13 19  1  0
 14 13  1  0
 15 14  2  0
 16 17  1  0
 16 10  2  0
 17 12  2  0
 18 11  1  0
 19  9  1  0
 21 23  2  0
 22 21  1  0
 24 22  1  0
 25 34  2  0
 25 30  1  0
 26 22  1  0
 26 30  1  0
 27 26  1  0
 28 29  1  0
 28 27  1  0
 29 25  1  0
 30 31  2  0
 31 32  1  0
 33 32  2  0
 34 33  1  0
 35  9  1  0
 35 36  1  0
 35 45  1  0
 36 39  1  0
 37 41  1  0
 37 36  1  0
 38 37  2  0
 41 40  1  0
 43 41  1  0
 43 44  1  0
 43 42  1  0
 45 48  1  1
 45 46  1  0
 47 45  1  0
 49 50  1  0
 52 54  1  0
 53 55  2  0
 54 66  1  0
 54 51  2  0
 55 51  1  0
 55 49  1  0
 56 52  2  0
 56 53  1  0
 57 56  1  0
 58 66  1  0
 59 64  1  0
 60 61  1  0
 60 59  1  0
 62 61  1  0
 62 71  1  0
 62 63  1  0
 64 58  1  0
 64 63  1  0
 65 58  2  0
 66 67  1  0
 68 69  2  0
 69 88  1  0
 70 69  1  0
 70 73  1  0
 71 72  1  0
 71 68  1  0
 72 70  2  0
 73 74  1  0
 74 75  2  0
 76 79  1  0
 76 75  1  0
 77 76  2  0
 78 77  1  0
 78 73  2  0
 79 80  1  0
 80 81  1  0
 81 82  2  0
 83 82  1  0
 83 87  1  0
 84 83  2  0
 85 80  2  0
 85 84  1  0
 86 85  1  0
 88 89  1  0
 89 92  1  0
 89 91  1  0
 90 88  2  0
 93 68  1  0
 93 94  1  0
 95 93  1  0
M  ISO  4   7 101   8 101  58 100  66 100
M  END
>  <TORSDO>  (73) 
F 21

>  <SCORE>  (73) 
-13.618

>  <name>  (73) 
72

>  <ligand_id>  (73) 
72

>  <original_smiles>  (73) 
[H]c1c([H])c([H])c2c(c1[H])C([H])([H])C([H])([H])C([H])([H])C2([H])N([H])C(=O)C1([H])N(C(=O)C([H])(N([H])C(=O)C([H])(N([H])C([H])([H])[H])C([H])([H])[H])C(C([H])([H])[H])(C([H])([H])[H])C([H])([H])[H])C([H])([H])c2c([H])c(OC([H])([H])C(C([H])([H])[H])(C([H])([H])[H])C([H])(C([H])([H])[H])C([H])([H])N([H])c3c([H])c(F)c([H])c(N([H])C(=O)N4C([H])([H])C([H])([H])C([H])([H])C([H])(n5nc(-c6c([H])c([H])c(Oc7c([H])c([H])c(F)c([H])c7F)c([H])c6[H])c(C(=O)N([H])[H])c5N([H])[H])C4([H])[H])c3[H])c([H])c([H])c2C1([H])[H]

>  <smiles>  (73) 
[H]c1c([H])c([H])c2c(c1[H])C([H])([H])C([H])([H])C([H])([H])C2([H])N([H])C(=O)C1([H])N(C(=O)C([H])(N([H])C(=O)C([H])(N([H])C([H])([H])[H])C([H])([H])[H])C(C([H])([H])[H])(C([H])([H])[H])C([H])([H])[H])C([H])([H])c2c([H])c(OC([H])([H])C(C([H])([H])[H])(C([H])([H])[H])C([H])(C([H])([H])[H])C([H])([H])N([H])c3c([H])c(F)c([H])c(N([H])C(=O)N4C([H])([H])C([H])([H])C([H])([H])C([H])(n5nc(-c6c([H])c([H])c(Oc7c([H])c([H])c(F)c([H])c7F)c([H])c6[H])c(C(=O)N([H])[H])c5N([H])[H])C4([H])[H])c3[H])c([H])c([H])c2C1([H])[H]

$$$$
73:0:0
     RDKit          3D

 96105  0  0  1  0  0  0  0  0999 V2000
  -29.4980  -20.7730   21.1090 C   0  0  0  0  0  3  0  0  0  0  0  0
  -27.6160  -22.0270   18.2390 C   0  0  0  0  0  2  0  0  0  0  0  0
  -27.0070  -22.6850   19.4880 C   0  0  0  0  0  2  0  0  0  0  0  0
  -28.8210  -21.2290   18.7570 C   0  0  0  0  0  2  0  0  0  0  0  0
  -28.2020  -22.8590   20.4370 C   0  0  0  0  0  3  0  0  0  0  0  0
  -28.9750  -21.6160   20.1680 N   0  0  0  0  0  0  0  0  0  0  0  0
  -29.5050  -21.1380   22.4010 N   0  0  0  0  0  0  0  0  0  0  0  0
  -29.9030  -20.5210   23.0930 H   0  0  0  0  0  0  0  0  0  0  0  0
  -29.1770  -22.0390   22.7120 H   0  0  0  0  0  0  0  0  0  0  0  0
  -31.2960  -17.6650   19.9790 C   0  0  0  0  0  3  0  0  0  0  0  0
  -31.1280  -19.0870   20.0550 C   0  0  0  0  0  0  0  0  0  0  0  0
  -30.0260  -19.4490   20.7930 C   0  0  0  0  0  0  0  0  0  0  0  0
  -30.3470  -16.9270   20.6560 C   0  0  0  0  0  0  0  0  0  0  0  0
  -32.0790  -20.0510   19.4100 C   0  0  0  0  0  1  0  0  0  0  0  0
  -29.2270  -18.0260   21.4370 S   0  0  0  0  0  0  0  0  0  0  0  0
  -30.8480  -14.5820   20.1280 C   0  0  0  0  0  0  0  0  0  0  0  0
  -30.4950  -12.4540   18.9330 C   0  0  0  0  0  2  0  0  0  0  0  0
  -29.4980  -12.7000   17.7820 C   0  0  0  0  0  2  0  0  0  0  0  0
  -28.0460  -12.5440   18.2750 C   0  0  0  0  0  2  0  0  0  0  0  0
  -27.7700  -13.3350   19.5820 C   0  0  0  0  0  3  0  0  0  0  0  0
  -28.8770  -13.0820   20.6300 C   0  0  0  0  0  2  0  0  0  0  0  0
  -30.1750  -13.4030   20.0110 N   0  0  0  0  0  0  0  0  0  0  0  0
  -31.9490  -14.7670   19.6010 O   0  0  0  0  0  0  0  0  0  0  0  0
  -30.1790  -15.5710   20.7620 N   0  0  0  0  0  0  0  0  0  0  0  0
  -29.3400  -15.2690   21.2350 H   0  0  0  0  0  0  0  0  0  0  0  0
  -25.4030  -13.9150   20.4130 C   0  0  0  0  0  0  0  0  0  0  0  0
  -24.3560  -13.1300   20.8140 C   0  0  0  0  0  0  0  0  0  0  0  0
  -24.8190  -11.7810   20.7310 C   0  0  0  0  0  0  0  0  0  0  0  0
  -26.4400  -13.0440   20.1150 N   0  0  0  0  0  0  0  0  0  0  0  0
  -26.0940  -11.7540   20.3630 N   0  0  0  0  0  0  0  0  0  0  0  0
  -24.1080  -10.5110   20.9290 C   0  0  0  0  0  0  0  0  0  0  0  0
  -24.5500   -9.5560   21.8700 C   0  0  0  0  0  3  0  0  0  0  0  0
  -23.8390   -8.3510   22.0560 C   0  0  0  0  0  3  0  0  0  0  0  0
  -22.6710   -8.0930   21.2990 C   0  0  0  0  0  0  0  0  0  0  0  0
  -22.2480   -9.0360   20.3490 C   0  0  0  0  0  3  0  0  0  0  0  0
  -22.9590  -10.2330   20.1610 C   0  0  0  0  0  3  0  0  0  0  0  0
  -21.9320   -6.9380   21.3930 O   0  0  0  0  0  0  0  0  0  0  0  0
  -21.8390   -6.2350   22.5670 C   0  0  0  0  0  0  0  0  0  0  0  0
  -21.3220   -6.8190   23.7440 C   0  0  0  0  0  3  0  0  0  0  0  0
  -21.1770   -6.0410   24.9110 C   0  0  0  0  0  3  0  0  0  0  0  0
  -21.5390   -4.6820   24.9010 C   0  0  0  0  0  0  0  0  0  0  0  0
  -22.0500   -4.0970   23.7280 C   0  0  0  0  0  3  0  0  0  0  0  0
  -22.1960   -4.8720   22.5640 C   0  0  0  0  0  0  0  0  0  0  0  0
  -22.6690   -4.2990   21.4310 F   0  0  0  0  0  0  0  0  0  0  0  0
  -21.3940   -3.9320   26.0180 F   0  0  0  0  0  0  0  0  0  0  0  0
  -22.9710  -13.5940   21.1620 C   0  0  0  0  0  0  0  0  0  0  0  0
  -22.2840  -12.8740   22.0410 N   0  0  0  0  0  0  0  0  0  0  0  0
  -22.5080  -14.6320   20.6890 O   0  0  0  0  0  0  0  0  0  0  0  0
  -22.6730  -12.0350   22.4450 H   0  0  0  0  0  0  0  0  0  0  0  0
  -21.3570  -13.1670   22.3150 H   0  0  0  0  0  0  0  0  0  0  0  0
  -25.5560  -15.2900   20.2590 N   0  0  0  0  0  0  0  0  0  0  0  0
  -24.7900  -15.9360   20.4150 H   0  0  0  0  0  0  0  0  0  0  0  0
  -26.3870  -15.7400   19.8970 H   0  0  0  0  0  0  0  0  0  0  0  0
  -28.9480  -24.2030   20.1400 C   0  0  0  0  0  2  0  0  0  0  0  0
  -28.2520  -25.4300   20.7970 C   0  0  0  0  0  2  0  0  0  0  0  0
  -28.4240  -26.6940   20.1130 O   0  0  0  0  0  0  0  0  0  0  0  0
  -24.6440  -31.8860   23.2210 C   0  0  0  0  0  0  0  0  0  0  0  0
  -27.2850  -27.4760   20.0880 C   0  0  0  0  0  0  0  0  0  0  0  0
  -23.4350  -30.4970   21.5710 C   0  0  0  0  0  3  0  0  0  0  0  0
  -24.8890  -28.9840   20.1180 C   0  0  0  0  0  0  0  0  0  0  0  0
  -25.9600  -30.8690   21.3630 C   0  0  0  0  0  2  0  0  0  0  0  0
  -26.0500  -29.5050   20.7050 C   0  0  0  0  0  0  0  0  0  0  0  0
  -27.2540  -28.7600   20.6830 C   0  0  0  0  0  3  0  0  0  0  0  0
  -26.1110  -26.9810   19.4800 C   0  0  0  0  0  3  0  0  0  0  0  0
  -24.9150  -27.7230   19.5000 C   0  0  0  0  0  3  0  0  0  0  0  0
  -23.6410  -29.8360   20.1830 C   0  0  0  0  0  2  0  0  0  0  0  0
  -24.6990  -31.0970   22.1100 N   0  0  0  0  0  0  0  0  0  0  0  0
  -23.5650  -32.1470   23.7710 O   0  0  0  0  0  0  0  0  0  0  0  0
  -22.7940  -29.4620   22.5240 C   0  0  0  0  0  0  0  0  0  0  0  0
  -21.4680  -29.2790   22.4060 N   0  0  0  0  0  0  0  0  0  0  0  0
  -23.4840  -28.8290   23.3250 O   0  0  0  0  0  0  0  0  0  0  0  0
  -20.9720  -29.8420   21.7290 H   0  0  0  0  0  0  0  0  0  0  0  0
  -18.0980  -28.0840   22.9260 C   0  0  0  0  0  0  0  0  0  0  0  0
  -20.6590  -28.3320   23.1720 C   0  0  0  0  0  3  0  0  0  0  0  0
  -20.7520  -26.9090   22.5740 C   0  0  0  0  0  2  0  0  0  0  0  0
  -19.6370  -26.6050   21.5670 C   0  0  0  0  0  2  0  0  0  0  0  0
  -18.2620  -26.7450   22.2300 C   0  0  0  0  0  2  0  0  0  0  0  0
  -19.2230  -28.8370   23.3560 C   0  0  0  0  0  0  0  0  0  0  0  0
  -19.0150  -30.0920   23.9680 C   0  0  0  0  0  3  0  0  0  0  0  0
  -17.7130  -30.5930   24.1560 C   0  0  0  0  0  3  0  0  0  0  0  0
  -16.6020  -29.8370   23.7420 C   0  0  0  0  0  3  0  0  0  0  0  0
  -16.7950  -28.5850   23.1330 C   0  0  0  0  0  3  0  0  0  0  0  0
  -25.9300  -32.5170   23.8390 C   0  0  0  0  0  3  0  0  0  0  0  0
  -26.4500  -31.7440   25.1130 C   0  0  1  0  0  0  0  0  0  0  0  0
  -25.3580  -31.5010   26.1830 C   0  0  0  0  0  1  0  0  0  0  0  0
  -27.0340  -30.3680   24.7170 C   0  0  0  0  0  1  0  0  0  0  0  0
  -27.6010  -32.5370   25.7730 C   0  0  0  0  0  1  0  0  0  0  0  0
  -25.6230  -33.9150   24.1690 N   0  0  0  0  0  0  0  0  0  0  0  0
  -25.9610  -34.9670   23.4110 C   0  0  0  0  0  0  0  0  0  0  0  0
  -26.6360  -34.8620   22.3840 O   0  0  0  0  0  0  0  0  0  0  0  0
  -25.0200  -34.0700   24.9650 H   0  0  0  0  0  0  0  0  0  0  0  0
  -24.2450  -36.7680   23.0370 C   0  0  0  0  0  1  0  0  0  0  0  0
  -25.4730  -36.3550   23.8660 C   0  0  0  0  0  3  0  0  0  0  0  0
  -27.5990  -37.2300   24.7300 C   0  0  0  0  0  1  0  0  0  0  0  0
  -26.5110  -37.4040   23.7690 N   0  0  0  0  0  0  0  0  0  0  0  0
  -26.1070  -38.3260   23.9120 H   0  0  0  0  0  0  0  0  0  0  0  0
  1  7  1  0
  2  4  1  0
  2  3  1  0
  3  5  1  0
  4  6  1  0
  5 54  1  0
  6  5  1  0
  6  1  1  0
  7  9  1  0
  7  8  1  0
 10 11  1  0
 10 13  2  0
 11 12  2  0
 12  1  1  0
 12 15  1  0
 13 24  1  0
 13 15  1  0
 14 11  1  0
 16 24  1  0
 17 22  1  0
 18 19  1  0
 18 17  1  0
 20 19  1  0
 20 29  1  0
 20 21  1  0
 22 16  1  0
 22 21  1  0
 23 16  2  0
 24 25  1  0
 26 27  2  0
 27 46  1  0
 28 27  1  0
 28 31  1  0
 29 30  1  0
 29 26  1  0
 30 28  2  0
 31 32  1  0
 32 33  2  0
 34 37  1  0
 34 33  1  0
 35 34  2  0
 36 35  1  0
 36 31  2  0
 37 38  1  0
 38 39  1  0
 39 40  2  0
 41 40  1  0
 41 45  1  0
 42 41  2  0
 43 38  2  0
 43 42  1  0
 44 43  1  0
 46 47  1  0
 47 50  1  0
 47 49  1  0
 48 46  2  0
 51 26  1  0
 51 52  1  0
 53 51  1  0
 54 55  1  0
 56 55  1  0
 57 68  2  0
 58 56  1  0
 58 63  1  0
 59 67  1  0
 59 69  1  0
 60 66  1  0
 60 62  1  0
 61 67  1  0
 62 61  1  0
 63 62  2  0
 64 65  1  0
 64 58  2  0
 65 60  2  0
 66 59  1  0
 67 57  1  0
 69 71  2  0
 70 69  1  0
 72 70  1  0
 73 82  2  0
 73 78  1  0
 74 70  1  0
 74 78  1  0
 75 74  1  0
 76 77  1  0
 76 75  1  0
 77 73  1  0
 78 79  2  0
 79 80  1  0
 81 80  2  0
 82 81  1  0
 83 57  1  0
 83 88  1  0
 83 84  1  0
 84 87  1  1
 84 85  1  0
 86 84  1  0
 88 91  1  0
 89 93  1  0
 89 88  1  0
 90 89  2  0
 93 92  1  0
 95 93  1  0
 95 96  1  0
 95 94  1  0
M  ISO  4  16 100  24 100  55 101  56 101
M  END
>  <TORSDO>  (74) 
F 19

>  <SCORE>  (74) 
-13.884

>  <name>  (74) 
73

>  <ligand_id>  (74) 
73

>  <original_smiles>  (74) 
[H]c1c([H])c([H])c2c(c1[H])C([H])([H])C([H])([H])C([H])([H])C2([H])N([H])C(=O)C1([H])N(C(=O)C([H])(N([H])C(=O)C([H])(N([H])C([H])([H])[H])C([H])([H])[H])C(C([H])([H])[H])(C([H])([H])[H])C([H])([H])[H])C([H])([H])c2c([H])c(OC([H])([H])C([H])([H])C3([H])N(C(c4sc(N([H])C(=O)N5C([H])([H])C([H])([H])C([H])([H])C([H])(n6nc(-c7c([H])c([H])c(Oc8c([H])c([H])c(F)c([H])c8F)c([H])c7[H])c(C(=O)N([H])[H])c6N([H])[H])C5([H])[H])c([H])c4C([H])([H])[H])=[N+]([H])[H])C([H])([H])C([H])([H])C3([H])[H])c([H])c([H])c2C1([H])[H]

>  <smiles>  (74) 
[H]c1c([H])c([H])c2c(c1[H])C([H])([H])C([H])([H])C([H])([H])C2([H])N([H])C(=O)C1([H])N(C(=O)C([H])(N([H])C(=O)C([H])(N([H])C([H])([H])[H])C([H])([H])[H])C(C([H])([H])[H])(C([H])([H])[H])C([H])([H])[H])C([H])([H])c2c([H])c(OC([H])([H])C([H])([H])C3([H])N(C(c4sc(N([H])C(=O)N5C([H])([H])C([H])([H])C([H])([H])C([H])(n6nc(-c7c([H])c([H])c(Oc8c([H])c([H])c(F)c([H])c8F)c([H])c7[H])c(C(=O)N([H])[H])c6N([H])[H])C5([H])[H])c([H])c4C([H])([H])[H])=[N+]([H])[H])C([H])([H])C([H])([H])C3([H])[H])c([H])c([H])c2C1([H])[H]

$$$$
74:0:0
     RDKit          3D

 93101  0  0  1  0  0  0  0  0999 V2000
  -29.6170  -21.8620   18.0950 C   0  0  0  0  0  1  0  0  0  0  0  0
  -29.1050  -22.5280   19.3940 C   0  0  0  0  0  3  0  0  0  0  0  0
  -28.9490  -24.6850   17.9800 C   0  0  0  0  0  1  0  0  0  0  0  0
  -30.7640  -24.5450   19.6740 C   0  0  0  0  0  1  0  0  0  0  0  0
  -29.2980  -24.1520   19.3940 C   0  0  2  0  0  0  0  0  0  0  0  0
  -28.3910  -25.0240   20.3680 C   0  0  0  0  0  2  0  0  0  0  0  0
  -28.5040  -26.4990   20.2180 O   0  0  0  0  0  0  0  0  0  0  0  0
  -24.6140  -31.7990   23.1770 C   0  0  0  0  0  0  0  0  0  0  0  0
  -27.3550  -27.2970   20.1680 C   0  0  0  0  0  0  0  0  0  0  0  0
  -23.4660  -30.3930   21.5030 C   0  0  0  0  0  3  0  0  0  0  0  0
  -24.9680  -28.8660   20.1070 C   0  0  0  0  0  0  0  0  0  0  0  0
  -26.0030  -30.7470   21.3790 C   0  0  0  0  0  2  0  0  0  0  0  0
  -26.1140  -29.3730   20.7320 C   0  0  0  0  0  0  0  0  0  0  0  0
  -27.3100  -28.5990   20.7530 C   0  0  0  0  0  3  0  0  0  0  0  0
  -26.1920  -26.8440   19.5090 C   0  0  0  0  0  3  0  0  0  0  0  0
  -25.0080  -27.6070   19.4850 C   0  0  0  0  0  3  0  0  0  0  0  0
  -23.7200  -29.7230   20.1260 C   0  0  0  0  0  2  0  0  0  0  0  0
  -24.7120  -30.9970   22.0770 N   0  0  0  0  0  0  0  0  0  0  0  0
  -23.5160  -32.0600   23.6880 O   0  0  0  0  0  0  0  0  0  0  0  0
  -22.7950  -29.3640   22.4440 C   0  0  0  0  0  0  0  0  0  0  0  0
  -21.4730  -29.1760   22.2890 N   0  0  0  0  0  0  0  0  0  0  0  0
  -23.4620  -28.7380   23.2720 O   0  0  0  0  0  0  0  0  0  0  0  0
  -20.9950  -29.7330   21.5950 H   0  0  0  0  0  0  0  0  0  0  0  0
  -18.0940  -27.9610   22.7160 C   0  0  0  0  0  0  0  0  0  0  0  0
  -20.6460  -28.2290   23.0370 C   0  0  0  0  0  3  0  0  0  0  0  0
  -20.7660  -26.8030   22.4510 C   0  0  0  0  0  2  0  0  0  0  0  0
  -19.6850  -26.4840   21.4140 C   0  0  0  0  0  2  0  0  0  0  0  0
  -18.2890  -26.6170   22.0320 C   0  0  0  0  0  2  0  0  0  0  0  0
  -19.2010  -28.7240   23.1720 C   0  0  0  0  0  0  0  0  0  0  0  0
  -18.9650  -29.9820   23.7700 C   0  0  0  0  0  3  0  0  0  0  0  0
  -17.6550  -30.4750   23.9150 C   0  0  0  0  0  3  0  0  0  0  0  0
  -16.5620  -29.7080   23.4750 C   0  0  0  0  0  3  0  0  0  0  0  0
  -16.7820  -28.4530   22.8810 C   0  0  0  0  0  3  0  0  0  0  0  0
  -25.8760  -32.4430   23.8330 C   0  0  0  0  0  3  0  0  0  0  0  0
  -26.3710  -31.6710   25.1170 C   0  0  1  0  0  0  0  0  0  0  0  0
  -25.2560  -31.4150   26.1570 C   0  0  0  0  0  1  0  0  0  0  0  0
  -26.9780  -30.3020   24.7330 C   0  0  0  0  0  1  0  0  0  0  0  0
  -27.4980  -32.4730   25.8090 C   0  0  0  0  0  1  0  0  0  0  0  0
  -25.5430  -33.8350   24.1630 N   0  0  0  0  0  0  0  0  0  0  0  0
  -25.8750  -34.8960   23.4160 C   0  0  0  0  0  0  0  0  0  0  0  0
  -26.5650  -34.8060   22.3960 O   0  0  0  0  0  0  0  0  0  0  0  0
  -24.9310  -33.9780   24.9530 H   0  0  0  0  0  0  0  0  0  0  0  0
  -24.1310  -36.6690   23.0380 C   0  0  0  0  0  1  0  0  0  0  0  0
  -25.3620  -36.2770   23.8710 C   0  0  0  0  0  3  0  0  0  0  0  0
  -27.4680  -37.1860   24.7480 C   0  0  0  0  0  1  0  0  0  0  0  0
  -26.3830  -37.3430   23.7820 N   0  0  0  0  0  0  0  0  0  0  0  0
  -25.9620  -38.2570   23.9260 H   0  0  0  0  0  0  0  0  0  0  0  0
  -28.7690  -21.5190   21.9170 O   0  0  0  0  0  0  0  0  0  0  0  0
  -31.1380  -21.9430   21.1660 O   0  0  0  0  0  0  0  0  0  0  0  0
  -29.7810  -21.4730   20.8470 S   0  0  2  0  0  0  0  0  0  0  0  0
  -30.6900  -14.6070   20.1150 C   0  0  0  0  0  0  0  0  0  0  0  0
  -30.3900  -12.3900   19.0280 C   0  0  0  0  0  2  0  0  0  0  0  0
  -29.4050  -12.5660   17.8510 C   0  0  0  0  0  2  0  0  0  0  0  0
  -27.9470  -12.4250   18.3320 C   0  0  0  0  0  2  0  0  0  0  0  0
  -27.6530  -13.2670   19.6020 C   0  0  0  0  0  3  0  0  0  0  0  0
  -28.7490  -13.0730   20.6730 C   0  0  0  0  0  2  0  0  0  0  0  0
  -30.0430  -13.3980   20.0510 N   0  0  0  0  0  0  0  0  0  0  0  0
  -31.8380  -14.7270   19.6780 O   0  0  0  0  0  0  0  0  0  0  0  0
  -31.0570  -19.1240   19.7270 C   0  0  0  0  0  3  0  0  0  0  0  0
  -30.0050  -19.6750   20.4310 C   0  0  0  0  0  0  0  0  0  0  0  0
  -30.1120  -17.1210   20.3890 C   0  0  0  0  0  0  0  0  0  0  0  0
  -31.1070  -17.7060   19.7030 N   0  0  0  0  0  0  0  0  0  0  0  0
  -29.9390  -15.6760   20.5370 N   0  0  0  0  0  0  0  0  0  0  0  0
  -28.9980  -18.3580   21.0610 S   0  0  0  0  0  0  0  0  0  0  0  0
  -29.0570  -15.4070   20.9430 H   0  0  0  0  0  0  0  0  0  0  0  0
  -25.2940  -13.8920   20.4070 C   0  0  0  0  0  0  0  0  0  0  0  0
  -24.2320  -13.1300   20.8130 C   0  0  0  0  0  0  0  0  0  0  0  0
  -24.6770  -11.7730   20.7600 C   0  0  0  0  0  0  0  0  0  0  0  0
  -26.3180  -12.9990   20.1320 N   0  0  0  0  0  0  0  0  0  0  0  0
  -25.9550  -11.7210   20.4050 N   0  0  0  0  0  0  0  0  0  0  0  0
  -23.9420  -10.5180   20.9710 C   0  0  0  0  0  0  0  0  0  0  0  0
  -24.3890   -9.5480   21.8940 C   0  0  0  0  0  3  0  0  0  0  0  0
  -23.6560   -8.3580   22.0930 C   0  0  0  0  0  3  0  0  0  0  0  0
  -22.4610   -8.1320   21.3690 C   0  0  0  0  0  0  0  0  0  0  0  0
  -22.0330   -9.0910   20.4360 C   0  0  0  0  0  3  0  0  0  0  0  0
  -22.7660  -10.2720   20.2340 C   0  0  0  0  0  3  0  0  0  0  0  0
  -21.6970   -6.9940   21.4790 O   0  0  0  0  0  0  0  0  0  0  0  0
  -21.6640   -6.2570   22.6350 C   0  0  0  0  0  0  0  0  0  0  0  0
  -21.2550   -6.8180   23.8650 C   0  0  0  0  0  3  0  0  0  0  0  0
  -21.1700   -6.0070   25.0150 C   0  0  0  0  0  3  0  0  0  0  0  0
  -21.4840   -4.6370   24.9350 C   0  0  0  0  0  0  0  0  0  0  0  0
  -21.8870   -4.0760   23.7110 C   0  0  0  0  0  3  0  0  0  0  0  0
  -21.9740   -4.8840   22.5630 C   0  0  0  0  0  0  0  0  0  0  0  0
  -22.3420   -4.3350   21.3800 F   0  0  0  0  0  0  0  0  0  0  0  0
  -21.3960   -3.8560   26.0370 F   0  0  0  0  0  0  0  0  0  0  0  0
  -22.8510  -13.6230   21.1350 C   0  0  0  0  0  0  0  0  0  0  0  0
  -22.1480  -12.9320   22.0270 N   0  0  0  0  0  0  0  0  0  0  0  0
  -22.4060  -14.6530   20.6320 O   0  0  0  0  0  0  0  0  0  0  0  0
  -22.5220  -12.0980   22.4550 H   0  0  0  0  0  0  0  0  0  0  0  0
  -21.2220  -13.2440   22.2860 H   0  0  0  0  0  0  0  0  0  0  0  0
  -25.4680  -15.2610   20.2260 N   0  0  0  0  0  0  0  0  0  0  0  0
  -24.7050  -15.9180   20.3520 H   0  0  0  0  0  0  0  0  0  0  0  0
  -26.2920  -15.6880   19.8240 H   0  0  0  0  0  0  0  0  0  0  0  0
  2  1  1  0
  2  5  1  0
 50  2  1  6
  5  3  1  6
  5  4  1  0
  5  6  1  0
  7  6  1  0
  8 19  2  0
  9  7  1  0
  9 14  1  0
 10 18  1  0
 10 20  1  0
 11 17  1  0
 11 13  1  0
 12 18  1  0
 13 14  2  0
 13 12  1  0
 15  9  2  0
 16 15  1  0
 16 11  2  0
 17 10  1  0
 18  8  1  0
 20 22  2  0
 21 20  1  0
 23 21  1  0
 24 33  2  0
 24 29  1  0
 25 21  1  0
 25 29  1  0
 26 25  1  0
 27 28  1  0
 27 26  1  0
 28 24  1  0
 29 30  2  0
 30 31  1  0
 32 31  2  0
 33 32  1  0
 34  8  1  0
 34 39  1  0
 34 35  1  0
 35 38  1  1
 35 36  1  0
 37 35  1  0
 39 42  1  0
 40 44  1  0
 40 39  1  0
 41 40  2  0
 44 43  1  0
 46 44  1  0
 46 47  1  0
 46 45  1  0
 50 49  2  0
 50 48  2  0
 51 63  1  0
 52 57  1  0
 53 54  1  0
 53 52  1  0
 55 54  1  0
 55 69  1  0
 55 56  1  0
 57 51  1  0
 57 56  1  0
 58 51  2  0
 59 60  2  0
 60 50  1  0
 60 64  1  0
 61 63  1  0
 61 64  1  0
 62 59  1  0
 62 61  2  0
 63 65  1  0
 66 67  2  0
 67 86  1  0
 68 67  1  0
 68 71  1  0
 69 70  1  0
 69 66  1  0
 70 68  2  0
 71 72  1  0
 72 73  2  0
 74 77  1  0
 74 73  1  0
 75 74  2  0
 76 75  1  0
 76 71  2  0
 77 78  1  0
 78 79  1  0
 79 80  2  0
 81 80  1  0
 81 85  1  0
 82 81  2  0
 83 78  2  0
 83 82  1  0
 84 83  1  0
 86 87  1  0
 87 90  1  0
 87 89  1  0
 88 86  2  0
 91 92  1  0
 91 66  1  0
 93 91  1  0
M  ISO  4   6 101   7 101  51 100  63 100
M  END
>  <TORSDO>  (75) 
F 19

>  <SCORE>  (75) 
-13.990

>  <name>  (75) 
74

>  <ligand_id>  (75) 
74

>  <original_smiles>  (75) 
[H]c1nc(N([H])C(=O)N2C([H])([H])C([H])([H])C([H])([H])C([H])(n3nc(-c4c([H])c([H])c(Oc5c([H])c([H])c(F)c([H])c5F)c([H])c4[H])c(C(=O)N([H])[H])c3N([H])[H])C2([H])[H])sc1S(=O)(=O)C([H])(C([H])([H])[H])C(C([H])([H])[H])(C([H])([H])[H])C([H])([H])Oc1c([H])c([H])c2c(c1[H])C([H])([H])N(C(=O)C([H])(N([H])C(=O)C([H])(N([H])C([H])([H])[H])C([H])([H])[H])C(C([H])([H])[H])(C([H])([H])[H])C([H])([H])[H])C([H])(C(=O)N([H])C1([H])c3c([H])c([H])c([H])c([H])c3C([H])([H])C([H])([H])C1([H])[H])C2([H])[H]

>  <smiles>  (75) 
[H]c1nc(N([H])C(=O)N2C([H])([H])C([H])([H])C([H])([H])C([H])(n3nc(-c4c([H])c([H])c(Oc5c([H])c([H])c(F)c([H])c5F)c([H])c4[H])c(C(=O)N([H])[H])c3N([H])[H])C2([H])[H])sc1S(=O)(=O)C([H])(C([H])([H])[H])C(C([H])([H])[H])(C([H])([H])[H])C([H])([H])Oc1c([H])c([H])c2c(c1[H])C([H])([H])N(C(=O)C([H])(N([H])C(=O)C([H])(N([H])C([H])([H])[H])C([H])([H])[H])C(C([H])([H])[H])(C([H])([H])[H])C([H])([H])[H])C([H])(C(=O)N([H])C1([H])c3c([H])c([H])c([H])c([H])c3C([H])([H])C([H])([H])C1([H])[H])C2([H])[H]

$$$$
75:0:0
     RDKit          3D

 98107  0  0  1  0  0  0  0  0999 V2000
  -29.7310  -20.9560   20.5990 C   0  0  0  0  0  2  0  0  0  0  0  0
  -31.6470  -21.2830   22.0120 C   0  0  0  0  0  2  0  0  0  0  0  0
  -30.3890  -20.4040   21.8840 C   0  0  0  0  0  3  0  0  0  0  0  0
  -29.9570  -22.4880   20.7620 C   0  0  0  0  0  3  0  0  0  0  0  0
  -31.2790  -22.5940   21.4360 N   0  0  0  0  0  4  0  0  0  0  0  0
  -31.9540  -22.8800   20.7390 H   0  0  0  0  0  0  0  0  0  0  0  0
  -31.2640  -23.3090   22.1460 H   0  0  0  0  0  0  0  0  0  0  0  0
  -31.0530  -17.0880   23.7090 C   0  0  0  0  0  3  0  0  0  0  0  0
  -30.8830  -18.4550   23.4190 C   0  0  0  0  0  3  0  0  0  0  0  0
  -30.9690  -16.1330   22.6770 C   0  0  0  0  0  3  0  0  0  0  0  0
  -30.5910  -17.9280   21.0520 C   0  0  0  0  0  3  0  0  0  0  0  0
  -30.6360  -18.8970   22.0940 C   0  0  0  0  0  0  0  0  0  0  0  0
  -30.7500  -16.5500   21.3450 C   0  0  0  0  0  0  0  0  0  0  0  0
  -31.2450  -14.5140   19.9990 C   0  0  0  0  0  0  0  0  0  0  0  0
  -30.8580  -12.3420   18.8640 C   0  0  0  0  0  2  0  0  0  0  0  0
  -29.8820  -12.5670   17.6920 C   0  0  0  0  0  2  0  0  0  0  0  0
  -28.4190  -12.4810   18.1860 C   0  0  0  0  0  2  0  0  0  0  0  0
  -28.1610  -13.3620   19.4310 C   0  0  0  0  0  3  0  0  0  0  0  0
  -29.2430  -13.0940   20.5000 C   0  0  0  0  0  2  0  0  0  0  0  0
  -30.5530  -13.3550   19.8800 N   0  0  0  0  0  0  0  0  0  0  0  0
  -32.3920  -14.6760   19.5640 O   0  0  0  0  0  0  0  0  0  0  0  0
  -30.4730  -15.5620   20.3580 N   0  0  0  0  0  0  0  0  0  0  0  0
  -29.4920  -15.3270   20.3020 H   0  0  0  0  0  0  0  0  0  0  0  0
  -25.8390  -14.1160   20.2590 C   0  0  0  0  0  0  0  0  0  0  0  0
  -24.7430  -13.4060   20.6730 C   0  0  0  0  0  0  0  0  0  0  0  0
  -25.1200  -12.0300   20.6080 C   0  0  0  0  0  0  0  0  0  0  0  0
  -26.8140  -13.1750   19.9670 N   0  0  0  0  0  0  0  0  0  0  0  0
  -26.3880  -11.9140   20.2380 N   0  0  0  0  0  0  0  0  0  0  0  0
  -24.3280  -10.8110   20.8230 C   0  0  0  0  0  0  0  0  0  0  0  0
  -24.7220   -9.8370   21.7680 C   0  0  0  0  0  3  0  0  0  0  0  0
  -23.9420   -8.6800   21.9730 C   0  0  0  0  0  3  0  0  0  0  0  0
  -22.7570   -8.4850   21.2290 C   0  0  0  0  0  0  0  0  0  0  0  0
  -22.3760   -9.4440   20.2760 C   0  0  0  0  0  3  0  0  0  0  0  0
  -23.1580  -10.5930   20.0660 C   0  0  0  0  0  3  0  0  0  0  0  0
  -21.9550   -7.3750   21.3380 O   0  0  0  0  0  0  0  0  0  0  0  0
  -21.8080   -6.7040   22.5250 C   0  0  0  0  0  0  0  0  0  0  0  0
  -21.3630   -7.3520   23.7000 C   0  0  0  0  0  3  0  0  0  0  0  0
  -21.1600   -6.6080   24.8770 C   0  0  0  0  0  3  0  0  0  0  0  0
  -21.3930   -5.2190   24.8830 C   0  0  0  0  0  0  0  0  0  0  0  0
  -21.8360   -4.5750   23.7150 C   0  0  0  0  0  3  0  0  0  0  0  0
  -22.0390   -5.3150   22.5370 C   0  0  0  0  0  0  0  0  0  0  0  0
  -22.4440   -4.6870   21.4080 F   0  0  0  0  0  0  0  0  0  0  0  0
  -21.1930   -4.5000   26.0130 F   0  0  0  0  0  0  0  0  0  0  0  0
  -23.3920  -13.9650   21.0100 C   0  0  0  0  0  0  0  0  0  0  0  0
  -22.6620  -13.3270   21.9180 N   0  0  0  0  0  0  0  0  0  0  0  0
  -22.9840  -15.0030   20.4950 O   0  0  0  0  0  0  0  0  0  0  0  0
  -23.0040  -12.5010   22.3860 H   0  0  0  0  0  0  0  0  0  0  0  0
  -21.7430  -13.6850   22.1460 H   0  0  0  0  0  0  0  0  0  0  0  0
  -26.0760  -15.4760   20.0890 N   0  0  0  0  0  0  0  0  0  0  0  0
  -25.3420  -16.1570   20.2380 H   0  0  0  0  0  0  0  0  0  0  0  0
  -26.9190  -15.8890   19.7150 H   0  0  0  0  0  0  0  0  0  0  0  0
  -29.8700  -23.4130   19.4950 C   0  0  0  0  0  3  0  0  0  0  0  0
  -28.6620  -24.4110   19.4780 C   0  0  0  0  0  0  0  0  0  0  0  0
  -27.7480  -24.2700   18.6540 O   0  0  0  0  0  0  0  0  0  0  0  0
  -28.6280  -25.6000   20.4660 C   0  0  0  0  0  2  0  0  0  0  0  0
  -28.3690  -26.8390   19.7880 O   0  0  0  0  0  0  0  0  0  0  0  0
  -24.6870  -31.8560   23.2870 C   0  0  0  0  0  0  0  0  0  0  0  0
  -27.1680  -27.4920   19.9730 C   0  0  0  0  0  0  0  0  0  0  0  0
  -23.3930  -30.5420   21.6300 C   0  0  0  0  0  3  0  0  0  0  0  0
  -24.7770  -29.0130   20.1200 C   0  0  0  0  0  0  0  0  0  0  0  0
  -25.9130  -30.8640   21.3590 C   0  0  0  0  0  2  0  0  0  0  0  0
  -25.9590  -29.5070   20.6830 C   0  0  0  0  0  0  0  0  0  0  0  0
  -27.1520  -28.7540   20.6070 C   0  0  0  0  0  3  0  0  0  0  0  0
  -25.9660  -26.9940   19.4220 C   0  0  0  0  0  3  0  0  0  0  0  0
  -24.7750  -27.7490   19.4910 C   0  0  0  0  0  3  0  0  0  0  0  0
  -23.5480  -29.8900   20.2260 C   0  0  0  0  0  2  0  0  0  0  0  0
  -24.6830  -31.0990   22.1530 N   0  0  0  0  0  0  0  0  0  0  0  0
  -23.6290  -32.1370   23.8680 O   0  0  0  0  0  0  0  0  0  0  0  0
  -22.7440  -29.5090   22.5770 C   0  0  0  0  0  0  0  0  0  0  0  0
  -21.4230  -29.3140   22.4360 N   0  0  0  0  0  0  0  0  0  0  0  0
  -23.4290  -28.8800   23.3890 O   0  0  0  0  0  0  0  0  0  0  0  0
  -20.9290  -29.8830   21.7610 H   0  0  0  0  0  0  0  0  0  0  0  0
  -18.0720  -28.0350   22.8320 C   0  0  0  0  0  0  0  0  0  0  0  0
  -20.6130  -28.3570   23.1870 C   0  0  0  0  0  3  0  0  0  0  0  0
  -20.7690  -26.9280   22.6190 C   0  0  0  0  0  2  0  0  0  0  0  0
  -19.7060  -26.5730   21.5730 C   0  0  0  0  0  2  0  0  0  0  0  0
  -18.3010  -26.6900   22.1700 C   0  0  0  0  0  2  0  0  0  0  0  0
  -19.1580  -28.8260   23.2970 C   0  0  0  0  0  0  0  0  0  0  0  0
  -18.8910  -30.0860   23.8700 C   0  0  0  0  0  3  0  0  0  0  0  0
  -17.5710  -30.5590   23.9880 C   0  0  0  0  0  3  0  0  0  0  0  0
  -16.5000  -29.7660   23.5410 C   0  0  0  0  0  3  0  0  0  0  0  0
  -16.7510  -28.5070   22.9700 C   0  0  0  0  0  3  0  0  0  0  0  0
  -26.0070  -32.4290   23.8930 C   0  0  0  0  0  3  0  0  0  0  0  0
  -25.7370  -33.8110   24.3120 N   0  0  0  0  0  0  0  0  0  0  0  0
  -26.0460  -34.8950   23.5860 C   0  0  0  0  0  0  0  0  0  0  0  0
  -26.6520  -34.8340   22.5130 O   0  0  0  0  0  0  0  0  0  0  0  0
  -25.1770  -33.9340   25.1420 H   0  0  0  0  0  0  0  0  0  0  0  0
  -24.3120  -36.7070   23.4410 C   0  0  0  0  0  1  0  0  0  0  0  0
  -25.6060  -36.2610   24.1390 C   0  0  0  0  0  3  0  0  0  0  0  0
  -27.8060  -37.0970   24.8410 C   0  0  0  0  0  1  0  0  0  0  0  0
  -26.6380  -37.3120   23.9950 N   0  0  0  0  0  0  0  0  0  0  0  0
  -26.2520  -38.2280   24.2100 H   0  0  0  0  0  0  0  0  0  0  0  0
  -26.5600  -31.5740   25.0950 C   0  0  1  0  0  0  0  0  0  0  0  0
  -25.4970  -31.2650   26.1710 C   0  0  0  0  0  1  0  0  0  0  0  0
  -27.1310  -30.2290   24.5870 C   0  0  0  0  0  1  0  0  0  0  0  0
  -27.7250  -32.3250   25.7780 C   0  0  0  0  0  1  0  0  0  0  0  0
  -31.4890  -24.5720   18.1000 C   0  0  0  0  0  1  0  0  0  0  0  0
  -31.1200  -24.1240   19.4020 O   0  0  0  0  0  0  0  0  0  0  0  0
  1  4  1  0
  1  3  1  0
  3  2  1  0
  3 12  1  0
  4 52  1  0
  4  5  1  0
  5  2  1  0
  5  7  1  0
  6  5  1  0
  9  8  1  0
 10  8  2  0
 11 13  2  0
 11 12  1  0
 12  9  2  0
 13 10  1  0
 14 22  1  0
 15 20  1  0
 16 17  1  0
 16 15  1  0
 18 17  1  0
 18 27  1  0
 18 19  1  0
 20 14  1  0
 20 19  1  0
 21 14  2  0
 22 13  1  0
 23 22  1  0
 24 25  2  0
 25 44  1  0
 26 25  1  0
 26 29  1  0
 27 28  1  0
 27 24  1  0
 28 26  2  0
 29 30  1  0
 30 31  2  0
 32 35  1  0
 32 31  1  0
 33 32  2  0
 34 33  1  0
 34 29  2  0
 35 36  1  0
 36 41  2  0
 36 37  1  0
 37 38  2  0
 38 39  1  0
 39 43  1  0
 40 39  2  0
 41 40  1  0
 42 41  1  0
 44 45  1  0
 45 48  1  0
 45 47  1  0
 46 44  2  0
 49 50  1  0
 49 24  1  0
 51 49  1  0
 52 98  1  0
 53 52  1  0
 53 55  1  0
 54 53  2  0
 56 58  1  0
 56 55  1  0
 57 68  2  0
 58 63  1  0
 59 67  1  0
 59 69  1  0
 60 66  1  0
 60 62  1  0
 61 67  1  0
 62 61  1  0
 63 62  2  0
 64 65  1  0
 64 58  2  0
 65 60  2  0
 66 59  1  0
 67 57  1  0
 69 71  2  0
 70 69  1  0
 72 70  1  0
 73 82  2  0
 73 78  1  0
 74 70  1  0
 74 78  1  0
 75 74  1  0
 76 77  1  0
 76 75  1  0
 77 73  1  0
 78 79  2  0
 79 80  1  0
 81 80  2  0
 82 81  1  0
 83 57  1  0
 83 84  1  0
 83 93  1  0
 84 87  1  0
 85 89  1  0
 85 84  1  0
 86 85  2  0
 89 88  1  0
 91 89  1  0
 91 92  1  0
 91 90  1  0
 93 96  1  1
 93 94  1  0
 95 93  1  0
 97 98  1  0
M  ISO  4  14 100  22 100  55 101  56 101
M  END
>  <TORSDO>  (76) 
F 21

>  <SCORE>  (76) 
-11.232

>  <name>  (76) 
75

>  <ligand_id>  (76) 
75

>  <original_smiles>  (76) 
[H]c1c([H])c([H])c2c(c1[H])C([H])([H])C([H])([H])C([H])([H])C2([H])N([H])C(=O)C1([H])N(C(=O)C([H])(N([H])C(=O)C([H])(N([H])C([H])([H])[H])C([H])([H])[H])C(C([H])([H])[H])(C([H])([H])[H])C([H])([H])[H])C([H])([H])c2c([H])c(OC([H])([H])C(=O)C([H])(OC([H])([H])[H])C3([H])C([H])([H])C([H])(c4c([H])c([H])c([H])c(N([H])C(=O)N5C([H])([H])C([H])([H])C([H])([H])C([H])(n6nc(-c7c([H])c([H])c(Oc8c([H])c([H])c(F)c([H])c8F)c([H])c7[H])c(C(=O)N([H])[H])c6N([H])[H])C5([H])[H])c4[H])C([H])([H])[N+]3([H])[H])c([H])c([H])c2C1([H])[H]

>  <smiles>  (76) 
[H]c1c([H])c([H])c2c(c1[H])C([H])([H])C([H])([H])C([H])([H])C2([H])N([H])C(=O)C1([H])N(C(=O)C([H])(N([H])C(=O)C([H])(N([H])C([H])([H])[H])C([H])([H])[H])C(C([H])([H])[H])(C([H])([H])[H])C([H])([H])[H])C([H])([H])c2c([H])c(OC([H])([H])C(=O)C([H])(OC([H])([H])[H])C3([H])C([H])([H])C([H])(c4c([H])c([H])c([H])c(N([H])C(=O)N5C([H])([H])C([H])([H])C([H])([H])C([H])(n6nc(-c7c([H])c([H])c(Oc8c([H])c([H])c(F)c([H])c8F)c([H])c7[H])c(C(=O)N([H])[H])c6N([H])[H])C5([H])[H])c4[H])C([H])([H])[N+]3([H])[H])c([H])c([H])c2C1([H])[H]

$$$$
76:0:0
     RDKit          3D

 98106  0  0  1  0  0  0  0  0999 V2000
  -29.5420  -21.7550   21.2410 C   0  0  0  0  0  0  0  0  0  0  0  0
  -30.2610  -20.6160   21.2770 N   0  0  0  0  0  0  0  0  0  0  0  0
  -28.3100  -21.7590   21.3100 O   0  0  0  0  0  0  0  0  0  0  0  0
  -31.2480  -20.7020   21.4640 H   0  0  0  0  0  0  0  0  0  0  0  0
  -29.2970  -19.5170   19.3460 C   0  0  0  0  0  3  0  0  0  0  0  0
  -30.0340  -18.1370   21.2160 C   0  0  0  0  0  3  0  0  0  0  0  0
  -28.9110  -18.3800   18.6300 C   0  0  0  0  0  0  0  0  0  0  0  0
  -29.1100  -17.0980   19.1920 C   0  0  0  0  0  0  0  0  0  0  0  0
  -29.8490  -19.4150   20.6360 C   0  0  0  0  0  0  0  0  0  0  0  0
  -29.6600  -16.9630   20.5090 C   0  0  0  0  0  0  0  0  0  0  0  0
  -28.7220  -15.9060   18.3440 C   0  0  0  0  0  1  0  0  0  0  0  0
  -30.5850  -14.7010   21.0770 C   0  0  0  0  0  0  0  0  0  0  0  0
  -30.5390  -12.4090   20.1750 C   0  0  0  0  0  2  0  0  0  0  0  0
  -29.7010  -12.3810   18.8760 C   0  0  0  0  0  2  0  0  0  0  0  0
  -28.1740  -12.3750   19.1430 C   0  0  0  0  0  2  0  0  0  0  0  0
  -27.7030  -13.2640   20.3330 C   0  0  0  0  0  3  0  0  0  0  0  0
  -28.6640  -13.1390   21.5330 C   0  0  0  0  0  2  0  0  0  0  0  0
  -30.0190  -13.4630   21.0550 N   0  0  0  0  0  0  0  0  0  0  0  0
  -31.7730  -14.9090   20.8150 O   0  0  0  0  0  0  0  0  0  0  0  0
  -29.6870  -15.7040   21.2020 N   0  0  0  0  0  0  0  0  0  0  0  0
  -28.7830  -15.3700   21.4950 H   0  0  0  0  0  0  0  0  0  0  0  0
  -25.2610  -13.8770   20.8870 C   0  0  0  0  0  0  0  0  0  0  0  0
  -24.1630  -13.1000   21.1460 C   0  0  0  0  0  0  0  0  0  0  0  0
  -24.6190  -11.7470   21.0980 C   0  0  0  0  0  0  0  0  0  0  0  0
  -26.3160  -12.9930   20.7040 N   0  0  0  0  0  0  0  0  0  0  0  0
  -25.9280  -11.7080   20.8900 N   0  0  0  0  0  0  0  0  0  0  0  0
  -23.8810  -10.4830   21.1770 C   0  0  0  0  0  0  0  0  0  0  0  0
  -24.2750   -9.4530   22.0600 C   0  0  0  0  0  3  0  0  0  0  0  0
  -23.5360   -8.2530   22.1340 C   0  0  0  0  0  3  0  0  0  0  0  0
  -22.3920   -8.0720   21.3200 C   0  0  0  0  0  0  0  0  0  0  0  0
  -22.0190   -9.0920   20.4260 C   0  0  0  0  0  3  0  0  0  0  0  0
  -22.7570  -10.2850   20.3530 C   0  0  0  0  0  3  0  0  0  0  0  0
  -21.6300   -6.9290   21.3050 O   0  0  0  0  0  0  0  0  0  0  0  0
  -21.5690   -6.0910   22.3910 C   0  0  0  0  0  0  0  0  0  0  0  0
  -21.0980   -6.5350   23.6460 C   0  0  0  0  0  3  0  0  0  0  0  0
  -20.9840   -5.6230   24.7160 C   0  0  0  0  0  3  0  0  0  0  0  0
  -21.3310   -4.2710   24.5300 C   0  0  0  0  0  0  0  0  0  0  0  0
  -21.7960   -3.8290   23.2790 C   0  0  0  0  0  3  0  0  0  0  0  0
  -21.9110   -4.7360   22.2120 C   0  0  0  0  0  0  0  0  0  0  0  0
  -22.3360   -4.2990   21.0020 F   0  0  0  0  0  0  0  0  0  0  0  0
  -21.2170   -3.3960   25.5560 F   0  0  0  0  0  0  0  0  0  0  0  0
  -22.7500  -13.5750   21.3330 C   0  0  0  0  0  0  0  0  0  0  0  0
  -21.9590  -12.8590   22.1240 N   0  0  0  0  0  0  0  0  0  0  0  0
  -22.3520  -14.6150   20.8110 O   0  0  0  0  0  0  0  0  0  0  0  0
  -22.2870  -12.0160   22.5720 H   0  0  0  0  0  0  0  0  0  0  0  0
  -21.0090  -13.1630   22.2900 H   0  0  0  0  0  0  0  0  0  0  0  0
  -25.4450  -15.2540   20.7730 N   0  0  0  0  0  0  0  0  0  0  0  0
  -24.6740  -15.9080   20.8520 H   0  0  0  0  0  0  0  0  0  0  0  0
  -26.3140  -15.7030   20.5190 H   0  0  0  0  0  0  0  0  0  0  0  0
  -29.3090  -18.8210   16.1600 C   0  0  0  0  0  1  0  0  0  0  0  0
  -28.2710  -18.6040   17.2630 C   0  0  0  0  0  2  0  0  0  0  0  0
  -30.3040  -23.0810   21.1100 C   0  0  0  0  0  2  0  0  0  0  0  0
  -29.5380  -24.1090   20.2350 C   0  0  0  0  0  2  0  0  0  0  0  0
  -30.3130  -25.4280   19.9940 C   0  0  0  0  0  2  0  0  0  0  0  0
  -30.3260  -27.9050   19.5120 C   0  0  0  0  0  1  0  0  0  0  0  0
  -28.9120  -26.3600   18.0670 C   0  0  0  0  0  1  0  0  0  0  0  0
  -29.4670  -26.6300   19.4790 C   0  0  1  0  0  0  0  0  0  0  0  0
  -28.4410  -26.7920   20.4540 O   0  0  0  0  0  0  0  0  0  0  0  0
  -24.5940  -31.9950   23.2810 C   0  0  0  0  0  0  0  0  0  0  0  0
  -27.3410  -27.5940   20.2560 C   0  0  0  0  0  0  0  0  0  0  0  0
  -23.4260  -30.5770   21.6200 C   0  0  0  0  0  3  0  0  0  0  0  0
  -24.9230  -29.0560   20.2150 C   0  0  0  0  0  0  0  0  0  0  0  0
  -25.9470  -30.9730   21.4530 C   0  0  0  0  0  2  0  0  0  0  0  0
  -26.0630  -29.6030   20.8190 C   0  0  0  0  0  0  0  0  0  0  0  0
  -27.2730  -28.8740   20.8450 C   0  0  0  0  0  3  0  0  0  0  0  0
  -26.1870  -27.0540   19.6510 C   0  0  0  0  0  3  0  0  0  0  0  0
  -24.9800  -27.7800   19.6240 C   0  0  0  0  0  3  0  0  0  0  0  0
  -23.6650  -29.8940   20.2440 C   0  0  0  0  0  2  0  0  0  0  0  0
  -24.6730  -31.1950   22.1780 N   0  0  0  0  0  0  0  0  0  0  0  0
  -23.5020  -32.2580   23.8060 O   0  0  0  0  0  0  0  0  0  0  0  0
  -22.7720  -29.5530   22.5760 C   0  0  0  0  0  0  0  0  0  0  0  0
  -21.4510  -29.3560   22.4290 N   0  0  0  0  0  0  0  0  0  0  0  0
  -23.4480  -28.9390   23.4040 O   0  0  0  0  0  0  0  0  0  0  0  0
  -20.9650  -29.9060   21.7350 H   0  0  0  0  0  0  0  0  0  0  0  0
  -18.0840  -28.1270   22.8720 C   0  0  0  0  0  0  0  0  0  0  0  0
  -20.6340  -28.4130   23.1890 C   0  0  0  0  0  3  0  0  0  0  0  0
  -20.7620  -26.9800   22.6210 C   0  0  0  0  0  2  0  0  0  0  0  0
  -19.6820  -26.6420   21.5880 C   0  0  0  0  0  2  0  0  0  0  0  0
  -18.2880  -26.7770   22.2070 C   0  0  0  0  0  2  0  0  0  0  0  0
  -19.1860  -28.9020   23.3190 C   0  0  0  0  0  0  0  0  0  0  0  0
  -18.9430  -30.1670   23.8990 C   0  0  0  0  0  3  0  0  0  0  0  0
  -17.6290  -30.6540   24.0380 C   0  0  0  0  0  3  0  0  0  0  0  0
  -16.5420  -29.8760   23.6070 C   0  0  0  0  0  3  0  0  0  0  0  0
  -16.7700  -28.6140   23.0290 C   0  0  0  0  0  3  0  0  0  0  0  0
  -25.8650  -32.6400   23.9160 C   0  0  0  0  0  3  0  0  0  0  0  0
  -25.5490  -34.0440   24.2140 N   0  0  0  0  0  0  0  0  0  0  0  0
  -25.9010  -35.0820   23.4440 C   0  0  0  0  0  0  0  0  0  0  0  0
  -26.5960  -34.9590   22.4310 O   0  0  0  0  0  0  0  0  0  0  0  0
  -24.9340  -34.2120   24.9960 H   0  0  0  0  0  0  0  0  0  0  0  0
  -24.1960  -36.8750   22.9960 C   0  0  0  0  0  1  0  0  0  0  0  0
  -25.4020  -36.4780   23.8620 C   0  0  0  0  0  3  0  0  0  0  0  0
  -27.5030  -37.3700   24.7670 C   0  0  0  0  0  1  0  0  0  0  0  0
  -26.4430  -37.5250   23.7760 N   0  0  0  0  0  0  0  0  0  0  0  0
  -26.0340  -38.4490   23.8890 H   0  0  0  0  0  0  0  0  0  0  0  0
  -26.3610  -31.8910   25.2130 C   0  0  1  0  0  0  0  0  0  0  0  0
  -25.2490  -31.6660   26.2640 C   0  0  0  0  0  1  0  0  0  0  0  0
  -26.9540  -30.5100   24.8480 C   0  0  0  0  0  1  0  0  0  0  0  0
  -27.4960  -32.6970   25.8850 C   0  0  0  0  0  1  0  0  0  0  0  0
  1  2  1  0
  1  3  2  0
  2  4  1  0
  5  9  1  0
  7  8  1  0
  7  5  2  0
  8 10  2  0
  9  6  2  0
  9  2  1  0
 10 20  1  0
 10  6  1  0
 11  8  1  0
 12 20  1  0
 13 18  1  0
 14 15  1  0
 14 13  1  0
 16 15  1  0
 16 25  1  0
 16 17  1  0
 18 12  1  0
 18 17  1  0
 19 12  2  0
 20 21  1  0
 22 23  2  0
 23 42  1  0
 24 23  1  0
 24 27  1  0
 25 22  1  0
 25 26  1  0
 26 24  2  0
 27 28  1  0
 28 29  2  0
 30 29  1  0
 31 30  2  0
 32 31  1  0
 32 27  2  0
 33 30  1  0
 33 34  1  0
 34 35  1  0
 35 36  2  0
 37 36  1  0
 37 41  1  0
 38 37  2  0
 39 34  2  0
 39 38  1  0
 40 39  1  0
 42 43  1  0
 43 46  1  0
 43 45  1  0
 44 42  2  0
 47 48  1  0
 47 22  1  0
 49 47  1  0
 50 51  1  0
 51  7  1  0
 52  1  1  0
 53 52  1  0
 54 53  1  0
 57 56  1  6
 57 55  1  0
 57 54  1  0
 57 58  1  0
 59 70  2  0
 60 58  1  0
 60 65  1  0
 61 69  1  0
 61 71  1  0
 62 68  1  0
 62 64  1  0
 63 69  1  0
 64 65  2  0
 64 63  1  0
 66 60  2  0
 67 66  1  0
 67 62  2  0
 68 61  1  0
 69 59  1  0
 71 73  2  0
 72 71  1  0
 74 72  1  0
 75 84  2  0
 75 80  1  0
 76 72  1  0
 76 80  1  0
 77 76  1  0
 78 79  1  0
 78 77  1  0
 79 75  1  0
 80 81  2  0
 81 82  1  0
 83 82  2  0
 84 83  1  0
 85 59  1  0
 85 86  1  0
 85 95  1  0
 86 89  1  0
 87 91  1  0
 87 86  1  0
 88 87  2  0
 91 90  1  0
 93 91  1  0
 93 94  1  0
 93 92  1  0
 95 98  1  1
 95 96  1  0
 97 95  1  0
M  ISO  4  12 100  20 100  57 101  58 101
M  END
>  <TORSDO>  (77) 
F 22

>  <SCORE>  (77) 
-12.557

>  <name>  (77) 
76

>  <ligand_id>  (77) 
76

>  <original_smiles>  (77) 
[H]c1c([H])c([H])c2c(c1[H])C([H])([H])C([H])([H])C([H])([H])C2([H])N([H])C(=O)C1([H])N(C(=O)C([H])(N([H])C(=O)C([H])(N([H])C([H])([H])[H])C([H])([H])[H])C(C([H])([H])[H])(C([H])([H])[H])C([H])([H])[H])C([H])([H])c2c([H])c(OC(C([H])([H])[H])(C([H])([H])[H])C([H])([H])C([H])([H])C([H])([H])C(=O)N([H])c3c([H])c(N([H])C(=O)N4C([H])([H])C([H])([H])C([H])([H])C([H])(n5nc(-c6c([H])c([H])c(Oc7c([H])c([H])c(F)c([H])c7F)c([H])c6[H])c(C(=O)N([H])[H])c5N([H])[H])C4([H])[H])c(C([H])([H])[H])c(C([H])([H])C([H])([H])[H])c3[H])c([H])c([H])c2C1([H])[H]

>  <smiles>  (77) 
[H]c1c([H])c([H])c2c(c1[H])C([H])([H])C([H])([H])C([H])([H])C2([H])N([H])C(=O)C1([H])N(C(=O)C([H])(N([H])C(=O)C([H])(N([H])C([H])([H])[H])C([H])([H])[H])C(C([H])([H])[H])(C([H])([H])[H])C([H])([H])[H])C([H])([H])c2c([H])c(OC(C([H])([H])[H])(C([H])([H])[H])C([H])([H])C([H])([H])C([H])([H])C(=O)N([H])c3c([H])c(N([H])C(=O)N4C([H])([H])C([H])([H])C([H])([H])C([H])(n5nc(-c6c([H])c([H])c(Oc7c([H])c([H])c(F)c([H])c7F)c([H])c6[H])c(C(=O)N([H])[H])c5N([H])[H])C4([H])[H])c(C([H])([H])[H])c(C([H])([H])C([H])([H])[H])c3[H])c([H])c([H])c2C1([H])[H]

$$$$
77:0:0
     RDKit          3D

 98106  0  0  1  0  0  0  0  0999 V2000
  -29.2950  -22.5700   18.0360 C   0  0  0  0  0  1  0  0  0  0  0  0
  -31.7830  -22.1390   18.2560 C   0  0  0  0  0  1  0  0  0  0  0  0
  -30.4860  -22.4260   19.0280 C   0  0  2  0  0  0  0  0  0  0  0  0
  -30.2160  -21.3420   20.1190 C   0  0  0  0  0  2  0  0  0  0  0  0
  -29.2260  -20.3320   19.7450 N   0  0  0  0  0  0  0  0  0  0  0  0
  -28.6640  -20.7080   18.9860 H   0  0  0  0  0  0  0  0  0  0  0  0
  -30.3140  -18.8680   18.1500 C   0  0  0  0  0  3  0  0  0  0  0  0
  -30.8380  -17.6130   17.8120 C   0  0  0  0  0  3  0  0  0  0  0  0
  -29.6860  -18.0120   20.3500 C   0  0  0  0  0  3  0  0  0  0  0  0
  -29.7540  -19.0800   19.4240 C   0  0  0  0  0  0  0  0  0  0  0  0
  -30.1970  -16.7340   20.0150 C   0  0  0  0  0  0  0  0  0  0  0  0
  -30.7840  -16.5530   18.7280 C   0  0  0  0  0  0  0  0  0  0  0  0
  -31.2740  -15.3600   18.3230 F   0  0  0  0  0  0  0  0  0  0  0  0
  -30.8200  -14.5680   20.9800 C   0  0  0  0  0  0  0  0  0  0  0  0
  -30.6210  -12.3290   20.0290 C   0  0  0  0  0  2  0  0  0  0  0  0
  -29.7960  -12.4390   18.7280 C   0  0  0  0  0  2  0  0  0  0  0  0
  -28.2910  -12.3310   19.0260 C   0  0  0  0  0  2  0  0  0  0  0  0
  -27.8320  -13.2540   20.1860 C   0  0  0  0  0  3  0  0  0  0  0  0
  -28.7830  -13.1450   21.4020 C   0  0  0  0  0  2  0  0  0  0  0  0
  -30.1580  -13.3860   20.9360 N   0  0  0  0  0  0  0  0  0  0  0  0
  -32.0350  -14.6790   20.8100 O   0  0  0  0  0  0  0  0  0  0  0  0
  -30.0340  -15.6540   20.9410 N   0  0  0  0  0  0  0  0  0  0  0  0
  -29.1060  -15.5370   21.3150 H   0  0  0  0  0  0  0  0  0  0  0  0
  -25.3810  -13.8730   20.6590 C   0  0  0  0  0  0  0  0  0  0  0  0
  -24.2840  -13.1070   20.9520 C   0  0  0  0  0  0  0  0  0  0  0  0
  -24.7500  -11.7560   21.0060 C   0  0  0  0  0  0  0  0  0  0  0  0
  -26.4440  -12.9900   20.5540 N   0  0  0  0  0  0  0  0  0  0  0  0
  -26.0640  -11.7160   20.8230 N   0  0  0  0  0  0  0  0  0  0  0  0
  -24.0150  -10.4960   21.1650 C   0  0  0  0  0  0  0  0  0  0  0  0
  -24.3900   -9.5410   22.1370 C   0  0  0  0  0  3  0  0  0  0  0  0
  -23.6570   -8.3440   22.2840 C   0  0  0  0  0  3  0  0  0  0  0  0
  -22.5360   -8.0920   21.4580 C   0  0  0  0  0  0  0  0  0  0  0  0
  -22.1800   -9.0350   20.4780 C   0  0  0  0  0  3  0  0  0  0  0  0
  -22.9130  -10.2240   20.3290 C   0  0  0  0  0  3  0  0  0  0  0  0
  -21.7810   -6.9460   21.5120 O   0  0  0  0  0  0  0  0  0  0  0  0
  -21.6830   -6.2030   22.6610 C   0  0  0  0  0  0  0  0  0  0  0  0
  -21.2290   -6.7630   23.8760 C   0  0  0  0  0  3  0  0  0  0  0  0
  -21.0780   -5.9450   25.0140 C   0  0  0  0  0  3  0  0  0  0  0  0
  -21.3690   -4.5710   24.9380 C   0  0  0  0  0  0  0  0  0  0  0  0
  -21.8170   -4.0110   23.7290 C   0  0  0  0  0  3  0  0  0  0  0  0
  -21.9700   -4.8240   22.5930 C   0  0  0  0  0  0  0  0  0  0  0  0
  -22.3800   -4.2760   21.4240 F   0  0  0  0  0  0  0  0  0  0  0  0
  -21.2170   -3.7840   26.0300 F   0  0  0  0  0  0  0  0  0  0  0  0
  -22.8670  -13.5820   21.0800 C   0  0  0  0  0  0  0  0  0  0  0  0
  -22.0680  -12.9110   21.9020 N   0  0  0  0  0  0  0  0  0  0  0  0
  -22.4720  -14.5830   20.4820 O   0  0  0  0  0  0  0  0  0  0  0  0
  -22.4000  -12.1020   22.4060 H   0  0  0  0  0  0  0  0  0  0  0  0
  -21.1120  -13.2110   22.0310 H   0  0  0  0  0  0  0  0  0  0  0  0
  -25.5610  -15.2390   20.4540 N   0  0  0  0  0  0  0  0  0  0  0  0
  -24.7880  -15.8950   20.4670 H   0  0  0  0  0  0  0  0  0  0  0  0
  -26.4350  -15.6660   20.1780 H   0  0  0  0  0  0  0  0  0  0  0  0
  -30.7660  -23.6120   19.7900 O   0  0  0  0  0  0  0  0  0  0  0  0
  -30.2500  -24.8670   19.3370 C   0  0  0  0  0  2  0  0  0  0  0  0
  -31.9870  -26.4470   20.2580 C   0  0  0  0  0  1  0  0  0  0  0  0
  -30.2150  -25.5260   21.7870 C   0  0  0  0  0  1  0  0  0  0  0  0
  -30.5140  -26.0130   20.3530 C   0  0  2  0  0  0  0  0  0  0  0  0
  -29.5940  -27.2310   20.0510 C   0  0  0  0  0  2  0  0  0  0  0  0
  -28.2670  -26.7300   19.9800 O   0  0  0  0  0  0  0  0  0  0  0  0
  -24.5140  -31.9100   23.1790 C   0  0  0  0  0  0  0  0  0  0  0  0
  -27.1650  -27.5450   20.0380 C   0  0  0  0  0  0  0  0  0  0  0  0
  -23.2960  -30.5080   21.5440 C   0  0  0  0  0  3  0  0  0  0  0  0
  -24.7480  -28.9960   20.0950 C   0  0  0  0  0  0  0  0  0  0  0  0
  -25.8120  -30.9030   21.3100 C   0  0  0  0  0  2  0  0  0  0  0  0
  -25.9080  -29.5380   20.6650 C   0  0  0  0  0  0  0  0  0  0  0  0
  -27.1230  -28.8230   20.6380 C   0  0  0  0  0  3  0  0  0  0  0  0
  -25.9890  -27.0040   19.4820 C   0  0  0  0  0  3  0  0  0  0  0  0
  -24.7810  -27.7240   19.5000 C   0  0  0  0  0  3  0  0  0  0  0  0
  -23.4940  -29.8360   20.1580 C   0  0  0  0  0  2  0  0  0  0  0  0
  -24.5600  -31.1210   22.0710 N   0  0  0  0  0  0  0  0  0  0  0  0
  -23.4390  -32.1710   23.7350 O   0  0  0  0  0  0  0  0  0  0  0  0
  -22.6660  -29.4770   22.5070 C   0  0  0  0  0  0  0  0  0  0  0  0
  -21.3410  -29.2930   22.3990 N   0  0  0  0  0  0  0  0  0  0  0  0
  -23.3650  -28.8460   23.3050 O   0  0  0  0  0  0  0  0  0  0  0  0
  -20.8400  -29.8530   21.7240 H   0  0  0  0  0  0  0  0  0  0  0  0
  -17.9770  -28.0930   22.9380 C   0  0  0  0  0  0  0  0  0  0  0  0
  -20.5370  -28.3490   23.1750 C   0  0  0  0  0  3  0  0  0  0  0  0
  -20.6320  -26.9220   22.5870 C   0  0  0  0  0  2  0  0  0  0  0  0
  -19.5160  -26.6070   21.5860 C   0  0  0  0  0  2  0  0  0  0  0  0
  -18.1440  -26.7470   22.2510 C   0  0  0  0  0  2  0  0  0  0  0  0
  -19.1010  -28.8520   23.3570 C   0  0  0  0  0  0  0  0  0  0  0  0
  -18.8910  -30.1120   23.9580 C   0  0  0  0  0  3  0  0  0  0  0  0
  -17.5880  -30.6130   24.1440 C   0  0  0  0  0  3  0  0  0  0  0  0
  -16.4780  -29.8500   23.7420 C   0  0  0  0  0  3  0  0  0  0  0  0
  -16.6730  -28.5920   23.1440 C   0  0  0  0  0  3  0  0  0  0  0  0
  -25.8050  -32.5460   23.7850 C   0  0  0  0  0  3  0  0  0  0  0  0
  -25.4890  -33.9350   24.1360 N   0  0  0  0  0  0  0  0  0  0  0  0
  -25.8110  -35.0000   23.3890 C   0  0  0  0  0  0  0  0  0  0  0  0
  -26.4750  -34.9140   22.3520 O   0  0  0  0  0  0  0  0  0  0  0  0
  -24.8970  -34.0740   24.9410 H   0  0  0  0  0  0  0  0  0  0  0  0
  -24.0690  -36.7840   23.0650 C   0  0  0  0  0  1  0  0  0  0  0  0
  -25.3150  -36.3780   23.8670 C   0  0  0  0  0  3  0  0  0  0  0  0
  -27.4510  -37.2600   24.6980 C   0  0  0  0  0  1  0  0  0  0  0  0
  -26.3420  -37.4380   23.7660 N   0  0  0  0  0  0  0  0  0  0  0  0
  -25.9310  -38.3530   23.9330 H   0  0  0  0  0  0  0  0  0  0  0  0
  -26.3550  -31.7590   25.0380 C   0  0  1  0  0  0  0  0  0  0  0  0
  -25.2850  -31.4950   26.1220 C   0  0  0  0  0  1  0  0  0  0  0  0
  -26.9430  -30.3940   24.6090 C   0  0  0  0  0  1  0  0  0  0  0  0
  -27.5090  -32.5550   25.6910 C   0  0  0  0  0  1  0  0  0  0  0  0
  3  1  1  6
  2  3  1  0
  3 52  1  0
  3  4  1  0
  5  4  1  0
  6  5  1  0
  7 10  1  0
  8  7  2  0
  8 12  1  0
 10  5  1  0
 10  9  2  0
 11  9  1  0
 11 22  1  0
 12 11  2  0
 13 12  1  0
 15 20  1  0
 16 17  1  0
 16 15  1  0
 18 17  1  0
 18 27  1  0
 18 19  1  0
 20 14  1  0
 20 19  1  0
 21 14  2  0
 22 14  1  0
 22 23  1  0
 24 25  2  0
 25 26  1  0
 25 44  1  0
 26 29  1  0
 27 24  1  0
 27 28  1  0
 28 26  2  0
 29 30  1  0
 30 31  2  0
 32 35  1  0
 32 31  1  0
 33 32  2  0
 34 33  1  0
 34 29  2  0
 35 36  1  0
 36 37  1  0
 37 38  2  0
 39 38  1  0
 39 43  1  0
 40 39  2  0
 41 36  2  0
 41 40  1  0
 42 41  1  0
 44 45  1  0
 45 48  1  0
 45 47  1  0
 46 44  2  0
 49 50  1  0
 49 24  1  0
 51 49  1  0
 53 52  1  0
 53 56  1  0
 56 54  1  1
 56 55  1  0
 57 56  1  0
 58 60  1  0
 58 57  1  0
 59 70  2  0
 60 65  1  0
 61 69  1  0
 61 71  1  0
 62 68  1  0
 62 64  1  0
 63 69  1  0
 64 63  1  0
 65 64  2  0
 66 67  1  0
 66 60  2  0
 67 62  2  0
 68 61  1  0
 69 59  1  0
 71 73  2  0
 72 71  1  0
 74 72  1  0
 75 84  2  0
 75 80  1  0
 76 72  1  0
 76 80  1  0
 77 76  1  0
 78 79  1  0
 78 77  1  0
 79 75  1  0
 80 81  2  0
 81 82  1  0
 83 82  2  0
 84 83  1  0
 85 59  1  0
 85 86  1  0
 85 95  1  0
 86 89  1  0
 87 91  1  0
 87 86  1  0
 88 87  2  0
 91 90  1  0
 93 91  1  0
 93 94  1  0
 93 92  1  0
 95 98  1  1
 95 96  1  0
 97 95  1  0
M  ISO  4  14 100  22 100  57 101  58 101
M  END
>  <TORSDO>  (78) 
F 23

>  <SCORE>  (78) 
-12.758

>  <name>  (78) 
77

>  <ligand_id>  (78) 
77

>  <original_smiles>  (78) 
[H]c1c([H])c([H])c2c(c1[H])C([H])([H])C([H])([H])C([H])([H])C2([H])N([H])C(=O)C1([H])N(C(=O)C([H])(N([H])C(=O)C([H])(N([H])C([H])([H])[H])C([H])([H])[H])C(C([H])([H])[H])(C([H])([H])[H])C([H])([H])[H])C([H])([H])c2c([H])c(OC([H])([H])C(C([H])([H])[H])(C([H])([H])[H])C([H])([H])OC(C([H])([H])[H])(C([H])([H])[H])C([H])([H])N([H])c3c([H])c([H])c(F)c(N([H])C(=O)N4C([H])([H])C([H])([H])C([H])([H])C([H])(n5nc(-c6c([H])c([H])c(Oc7c([H])c([H])c(F)c([H])c7F)c([H])c6[H])c(C(=O)N([H])[H])c5N([H])[H])C4([H])[H])c3[H])c([H])c([H])c2C1([H])[H]

>  <smiles>  (78) 
[H]c1c([H])c([H])c2c(c1[H])C([H])([H])C([H])([H])C([H])([H])C2([H])N([H])C(=O)C1([H])N(C(=O)C([H])(N([H])C(=O)C([H])(N([H])C([H])([H])[H])C([H])([H])[H])C(C([H])([H])[H])(C([H])([H])[H])C([H])([H])[H])C([H])([H])c2c([H])c(OC([H])([H])C(C([H])([H])[H])(C([H])([H])[H])C([H])([H])OC(C([H])([H])[H])(C([H])([H])[H])C([H])([H])N([H])c3c([H])c([H])c(F)c(N([H])C(=O)N4C([H])([H])C([H])([H])C([H])([H])C([H])(n5nc(-c6c([H])c([H])c(Oc7c([H])c([H])c(F)c([H])c7F)c([H])c6[H])c(C(=O)N([H])[H])c5N([H])[H])C4([H])[H])c3[H])c([H])c([H])c2C1([H])[H]

$$$$
78:0:0
     RDKit          3D

 97105  0  0  1  0  0  0  0  0999 V2000
  -31.2820  -22.6140   20.7920 C   0  0  0  0  0  1  0  0  0  0  0  0
  -29.9540  -22.0590   18.7200 C   0  0  0  0  0  1  0  0  0  0  0  0
  -29.8610  -22.4900   20.2050 C   0  0  2  0  0  0  0  0  0  0  0  0
  -29.1410  -23.8710   20.2850 C   0  0  0  0  0  0  0  0  0  0  0  0
  -28.0520  -23.9830   20.8560 O   0  0  0  0  0  0  0  0  0  0  0  0
  -29.7950  -25.1100   19.6350 C   0  0  0  0  0  2  0  0  0  0  0  0
  -29.3660  -27.1670   18.1700 C   0  0  0  0  0  1  0  0  0  0  0  0
  -28.7840  -26.2020   19.2150 C   0  0  0  0  0  3  0  0  0  0  0  0
  -28.4150  -26.9650   20.3720 O   0  0  0  0  0  0  0  0  0  0  0  0
  -24.5280  -32.0900   23.4160 C   0  0  0  0  0  0  0  0  0  0  0  0
  -27.2160  -27.6470   20.3670 C   0  0  0  0  0  0  0  0  0  0  0  0
  -23.3370  -30.6680   21.7800 C   0  0  0  0  0  3  0  0  0  0  0  0
  -24.8030  -29.1200   20.3840 C   0  0  0  0  0  0  0  0  0  0  0  0
  -25.8610  -31.0320   21.5970 C   0  0  0  0  0  2  0  0  0  0  0  0
  -25.9540  -29.6550   20.9750 C   0  0  0  0  0  0  0  0  0  0  0  0
  -27.1600  -28.9200   20.9770 C   0  0  0  0  0  3  0  0  0  0  0  0
  -26.0380  -27.1080   19.8050 C   0  0  0  0  0  3  0  0  0  0  0  0
  -24.8360  -27.8400   19.8090 C   0  0  0  0  0  3  0  0  0  0  0  0
  -23.5570  -29.9730   20.4110 C   0  0  0  0  0  2  0  0  0  0  0  0
  -24.5930  -31.2790   22.3240 N   0  0  0  0  0  0  0  0  0  0  0  0
  -23.4440  -32.3650   23.9480 O   0  0  0  0  0  0  0  0  0  0  0  0
  -22.6860  -29.6540   22.7480 C   0  0  0  0  0  0  0  0  0  0  0  0
  -21.3690  -29.4420   22.5940 N   0  0  0  0  0  0  0  0  0  0  0  0
  -23.3620  -29.0590   23.5930 O   0  0  0  0  0  0  0  0  0  0  0  0
  -20.8860  -29.9740   21.8820 H   0  0  0  0  0  0  0  0  0  0  0  0
  -18.0120  -28.1790   23.0140 C   0  0  0  0  0  0  0  0  0  0  0  0
  -20.5510  -28.5050   23.3630 C   0  0  0  0  0  3  0  0  0  0  0  0
  -20.7080  -27.0630   22.8270 C   0  0  0  0  0  2  0  0  0  0  0  0
  -19.6480  -26.6870   21.7870 C   0  0  0  0  0  2  0  0  0  0  0  0
  -18.2430  -26.8170   22.3830 C   0  0  0  0  0  2  0  0  0  0  0  0
  -19.0980  -28.9790   23.4590 C   0  0  0  0  0  0  0  0  0  0  0  0
  -18.8310  -30.2540   24.0050 C   0  0  0  0  0  3  0  0  0  0  0  0
  -17.5100  -30.7280   24.1160 C   0  0  0  0  0  3  0  0  0  0  0  0
  -16.4390  -29.9250   23.6890 C   0  0  0  0  0  3  0  0  0  0  0  0
  -16.6900  -28.6540   23.1420 C   0  0  0  0  0  3  0  0  0  0  0  0
  -25.8100  -32.7290   24.0360 C   0  0  0  0  0  3  0  0  0  0  0  0
  -25.5120  -34.1410   24.3070 N   0  0  0  0  0  0  0  0  0  0  0  0
  -25.8730  -35.1600   23.5160 C   0  0  0  0  0  0  0  0  0  0  0  0
  -26.5640  -35.0120   22.5060 O   0  0  0  0  0  0  0  0  0  0  0  0
  -24.9020  -34.3310   25.0890 H   0  0  0  0  0  0  0  0  0  0  0  0
  -24.1740  -36.9560   23.0510 C   0  0  0  0  0  1  0  0  0  0  0  0
  -25.3890  -36.5690   23.9090 C   0  0  0  0  0  3  0  0  0  0  0  0
  -27.5100  -37.4630   24.7650 C   0  0  0  0  0  1  0  0  0  0  0  0
  -26.4360  -37.6060   23.7860 N   0  0  0  0  0  0  0  0  0  0  0  0
  -26.0360  -38.5350   23.8860 H   0  0  0  0  0  0  0  0  0  0  0  0
  -26.2990  -31.9980   25.3480 C   0  0  1  0  0  0  0  0  0  0  0  0
  -25.1840  -31.8010   26.4020 C   0  0  0  0  0  1  0  0  0  0  0  0
  -26.8820  -30.6050   25.0130 C   0  0  0  0  0  1  0  0  0  0  0  0
  -27.4370  -32.8110   26.0090 C   0  0  0  0  0  1  0  0  0  0  0  0
  -29.0560  -21.4470   21.0510 C   0  0  0  0  0  2  0  0  0  0  0  0
  -30.1250  -19.3600   22.0860 C   0  0  0  0  0  3  0  0  0  0  0  0
  -30.2920  -17.9600   22.1190 C   0  0  0  0  0  3  0  0  0  0  0  0
  -29.0820  -19.1710   19.9140 C   0  0  0  0  0  3  0  0  0  0  0  0
  -29.2980  -17.7680   19.8860 C   0  0  0  0  0  0  0  0  0  0  0  0
  -29.4740  -19.9710   21.0000 C   0  0  0  0  0  0  0  0  0  0  0  0
  -29.8620  -17.1390   21.0480 C   0  0  0  0  0  0  0  0  0  0  0  0
  -30.6940  -14.7530   20.9490 C   0  0  0  0  0  0  0  0  0  0  0  0
  -30.5860  -12.5180   19.9100 C   0  0  0  0  0  2  0  0  0  0  0  0
  -29.7140  -12.6230   18.6410 C   0  0  0  0  0  2  0  0  0  0  0  0
  -28.2070  -12.5200   18.9700 C   0  0  0  0  0  2  0  0  0  0  0  0
  -27.7750  -13.3710   20.1960 C   0  0  0  0  0  3  0  0  0  0  0  0
  -28.7640  -13.1870   21.3650 C   0  0  0  0  0  2  0  0  0  0  0  0
  -30.1110  -13.5230   20.8700 N   0  0  0  0  0  0  0  0  0  0  0  0
  -31.8540  -14.9780   20.5940 O   0  0  0  0  0  0  0  0  0  0  0  0
  -29.8340  -15.7290   21.3140 N   0  0  0  0  0  0  0  0  0  0  0  0
  -28.9510  -15.3730   21.6470 H   0  0  0  0  0  0  0  0  0  0  0  0
  -25.3390  -13.9760   20.7600 C   0  0  0  0  0  0  0  0  0  0  0  0
  -24.2540  -13.1980   21.0630 C   0  0  0  0  0  0  0  0  0  0  0  0
  -24.7200  -11.8500   21.0480 C   0  0  0  0  0  0  0  0  0  0  0  0
  -26.3980  -13.0950   20.5870 N   0  0  0  0  0  0  0  0  0  0  0  0
  -26.0250  -11.8120   20.8180 N   0  0  0  0  0  0  0  0  0  0  0  0
  -23.9920  -10.5840   21.1850 C   0  0  0  0  0  0  0  0  0  0  0  0
  -24.3850   -9.6080   22.1290 C   0  0  0  0  0  3  0  0  0  0  0  0
  -23.6630   -8.4030   22.2530 C   0  0  0  0  0  3  0  0  0  0  0  0
  -22.5300   -8.1680   21.4350 C   0  0  0  0  0  0  0  0  0  0  0  0
  -22.1570   -9.1340   20.4840 C   0  0  0  0  0  3  0  0  0  0  0  0
  -22.8800  -10.3290   20.3560 C   0  0  0  0  0  3  0  0  0  0  0  0
  -21.7780   -7.0190   21.4710 O   0  0  0  0  0  0  0  0  0  0  0  0
  -21.6760   -6.2620   22.6100 C   0  0  0  0  0  0  0  0  0  0  0  0
  -21.1690   -6.7930   23.8170 C   0  0  0  0  0  3  0  0  0  0  0  0
  -21.0170   -5.9590   24.9430 C   0  0  0  0  0  3  0  0  0  0  0  0
  -21.3610   -4.5970   24.8630 C   0  0  0  0  0  0  0  0  0  0  0  0
  -21.8590   -4.0650   23.6590 C   0  0  0  0  0  3  0  0  0  0  0  0
  -22.0130   -4.8970   22.5360 C   0  0  0  0  0  0  0  0  0  0  0  0
  -22.4750   -4.3760   21.3730 F   0  0  0  0  0  0  0  0  0  0  0  0
  -21.2080   -3.7930   25.9410 F   0  0  0  0  0  0  0  0  0  0  0  0
  -22.8420  -13.6690   21.2560 C   0  0  0  0  0  0  0  0  0  0  0  0
  -22.0700  -12.9620   22.0760 N   0  0  0  0  0  0  0  0  0  0  0  0
  -22.4270  -14.6940   20.7160 O   0  0  0  0  0  0  0  0  0  0  0  0
  -22.4190  -12.1330   22.5330 H   0  0  0  0  0  0  0  0  0  0  0  0
  -21.1190  -13.2510   22.2470 H   0  0  0  0  0  0  0  0  0  0  0  0
  -25.5150  -15.3490   20.6000 N   0  0  0  0  0  0  0  0  0  0  0  0
  -24.7420  -16.0050   20.6450 H   0  0  0  0  0  0  0  0  0  0  0  0
  -26.3780  -15.7780   20.2920 H   0  0  0  0  0  0  0  0  0  0  0  0
  -28.8400  -17.0540   18.6470 C   0  0  0  0  0  0  0  0  0  0  0  0
  -28.6650  -17.8780   17.3730 C   0  0  0  0  0  1  0  0  0  0  0  0
  -28.6140  -15.8510   18.5780 O   0  0  0  0  0  0  0  0  0  0  0  0
  3  2  1  6
  3  4  1  0
  3  1  1  0
  3 50  1  0
  4  5  2  0
  6  4  1  0
  8  7  1  0
  8  6  1  0
  8  9  1  0
 10 21  2  0
 11  9  1  0
 11 16  1  0
 12 20  1  0
 12 22  1  0
 13 19  1  0
 13 15  1  0
 14 20  1  0
 15 16  2  0
 15 14  1  0
 17 18  1  0
 17 11  2  0
 18 13  2  0
 19 12  1  0
 20 10  1  0
 22 24  2  0
 23 22  1  0
 25 23  1  0
 26 35  2  0
 26 31  1  0
 27 23  1  0
 27 31  1  0
 28 27  1  0
 29 30  1  0
 29 28  1  0
 30 26  1  0
 31 32  2  0
 32 33  1  0
 34 33  2  0
 35 34  1  0
 36 10  1  0
 36 37  1  0
 36 46  1  0
 37 40  1  0
 38 42  1  0
 38 37  1  0
 39 38  2  0
 42 41  1  0
 44 45  1  0
 44 42  1  0
 44 43  1  0
 46 49  1  1
 46 47  1  0
 48 46  1  0
 51 52  1  0
 53 55  1  0
 54 53  2  0
 54 56  1  0
 55 50  1  0
 55 51  2  0
 56 65  1  0
 56 52  2  0
 57 65  1  0
 58 63  1  0
 59 60  1  0
 59 58  1  0
 61 60  1  0
 61 70  1  0
 61 62  1  0
 63 57  1  0
 63 62  1  0
 64 57  2  0
 65 66  1  0
 67 68  2  0
 68 87  1  0
 69 68  1  0
 69 72  1  0
 70 67  1  0
 70 71  1  0
 71 69  2  0
 72 73  1  0
 73 74  2  0
 75 78  1  0
 75 74  1  0
 76 75  2  0
 77 76  1  0
 77 72  2  0
 78 79  1  0
 79 80  1  0
 80 81  2  0
 82 81  1  0
 82 86  1  0
 83 82  2  0
 84 79  2  0
 84 83  1  0
 85 84  1  0
 87 88  1  0
 88 91  1  0
 88 90  1  0
 89 87  2  0
 92 93  1  0
 92 67  1  0
 94 92  1  0
 95 54  1  0
 96 95  1  0
 97 95  2  0
M  ISO  4   8 101   9 101  57 100  65 100
M  END
>  <TORSDO>  (79) 
F 22

>  <SCORE>  (79) 
-12.011

>  <name>  (79) 
78

>  <ligand_id>  (79) 
78

>  <original_smiles>  (79) 
[H]c1c([H])c([H])c2c(c1[H])C([H])([H])C([H])([H])C([H])([H])C2([H])N([H])C(=O)C1([H])N(C(=O)C([H])(N([H])C(=O)C([H])(N([H])C([H])([H])[H])C([H])([H])[H])C(C([H])([H])[H])(C([H])([H])[H])C([H])([H])[H])C([H])([H])c2c([H])c(OC([H])(C([H])([H])[H])C([H])([H])C(=O)C(C([H])([H])[H])(C([H])([H])[H])C([H])([H])c3c([H])c([H])c(N([H])C(=O)N4C([H])([H])C([H])([H])C([H])([H])C([H])(n5nc(-c6c([H])c([H])c(Oc7c([H])c([H])c(F)c([H])c7F)c([H])c6[H])c(C(=O)N([H])[H])c5N([H])[H])C4([H])[H])c(C(=O)C([H])([H])[H])c3[H])c([H])c([H])c2C1([H])[H]

>  <smiles>  (79) 
[H]c1c([H])c([H])c2c(c1[H])C([H])([H])C([H])([H])C([H])([H])C2([H])N([H])C(=O)C1([H])N(C(=O)C([H])(N([H])C(=O)C([H])(N([H])C([H])([H])[H])C([H])([H])[H])C(C([H])([H])[H])(C([H])([H])[H])C([H])([H])[H])C([H])([H])c2c([H])c(OC([H])(C([H])([H])[H])C([H])([H])C(=O)C(C([H])([H])[H])(C([H])([H])[H])C([H])([H])c3c([H])c([H])c(N([H])C(=O)N4C([H])([H])C([H])([H])C([H])([H])C([H])(n5nc(-c6c([H])c([H])c(Oc7c([H])c([H])c(F)c([H])c7F)c([H])c6[H])c(C(=O)N([H])[H])c5N([H])[H])C4([H])[H])c(C(=O)C([H])([H])[H])c3[H])c([H])c([H])c2C1([H])[H]

$$$$
79:0:0
     RDKit          3D

 95104  0  0  1  0  0  0  0  0999 V2000
  -29.2310  -23.6300   19.2810 C   0  0  0  0  0  2  0  0  0  0  0  0
  -29.9970  -22.2820   19.0680 C   0  0  0  0  0  2  0  0  0  0  0  0
  -29.8020  -21.7140   21.4210 C   0  0  0  0  0  2  0  0  0  0  0  0
  -29.0860  -23.0960   21.6960 C   0  0  0  0  0  3  0  0  0  0  0  0
  -29.4030  -24.2830   20.6850 C   0  0  1  0  0  0  0  0  0  0  0  0
  -29.3100  -23.4600   23.1780 C   0  0  0  0  0  1  0  0  0  0  0  0
  -30.8450  -24.8040   20.8620 C   0  0  0  0  0  1  0  0  0  0  0  0
  -29.6320  -21.2350   20.0470 N   0  0  0  0  0  0  0  0  0  0  0  0
  -29.3050  -19.5330   18.3300 C   0  0  0  0  0  3  0  0  0  0  0  0
  -29.5940  -17.1360   18.6800 C   0  0  0  0  0  3  0  0  0  0  0  0
  -29.9190  -18.7020   20.5300 C   0  0  0  0  0  3  0  0  0  0  0  0
  -29.2790  -18.2150   17.8380 C   0  0  0  0  0  0  0  0  0  0  0  0
  -29.6400  -19.8370   19.6730 C   0  0  0  0  0  0  0  0  0  0  0  0
  -29.9130  -17.3370   20.0410 C   0  0  0  0  0  0  0  0  0  0  0  0
  -28.8840  -17.9490   16.3970 C   0  0  0  0  0  1  0  0  0  0  0  0
  -30.8420  -15.0390   20.5310 C   0  0  0  0  0  0  0  0  0  0  0  0
  -30.6600  -12.7830   19.5210 C   0  0  0  0  0  2  0  0  0  0  0  0
  -29.7700  -12.8930   18.2640 C   0  0  0  0  0  2  0  0  0  0  0  0
  -28.2820  -12.7420   18.6350 C   0  0  0  0  0  2  0  0  0  0  0  0
  -27.8730  -13.6160   19.8510 C   0  0  0  0  0  3  0  0  0  0  0  0
  -28.8890  -13.4930   21.0090 C   0  0  0  0  0  2  0  0  0  0  0  0
  -30.2190  -13.8200   20.4770 N   0  0  0  0  0  0  0  0  0  0  0  0
  -32.0100  -15.1750   20.1520 O   0  0  0  0  0  0  0  0  0  0  0  0
  -30.0880  -16.1370   20.8590 N   0  0  0  0  0  0  0  0  0  0  0  0
  -29.2860  -15.9120   21.4290 H   0  0  0  0  0  0  0  0  0  0  0  0
  -25.4470  -14.1950   20.4670 C   0  0  0  0  0  0  0  0  0  0  0  0
  -24.3750  -13.4140   20.8090 C   0  0  0  0  0  0  0  0  0  0  0  0
  -24.8540  -12.0680   20.8210 C   0  0  0  0  0  0  0  0  0  0  0  0
  -26.5090  -13.3230   20.2880 N   0  0  0  0  0  0  0  0  0  0  0  0
  -26.1560  -12.0410   20.5620 N   0  0  0  0  0  0  0  0  0  0  0  0
  -24.1350  -10.8000   21.0060 C   0  0  0  0  0  0  0  0  0  0  0  0
  -24.5360   -9.8590   21.9790 C   0  0  0  0  0  3  0  0  0  0  0  0
  -23.8160   -8.6560   22.1520 C   0  0  0  0  0  3  0  0  0  0  0  0
  -22.6820   -8.3870   21.3500 C   0  0  0  0  0  0  0  0  0  0  0  0
  -22.3010   -9.3170   20.3660 C   0  0  0  0  0  3  0  0  0  0  0  0
  -23.0210  -10.5100   20.1920 C   0  0  0  0  0  3  0  0  0  0  0  0
  -21.9400   -7.2330   21.4280 O   0  0  0  0  0  0  0  0  0  0  0  0
  -21.8380   -6.5210   22.5950 C   0  0  0  0  0  0  0  0  0  0  0  0
  -21.3030   -7.0900   23.7720 C   0  0  0  0  0  3  0  0  0  0  0  0
  -21.1510   -6.3020   24.9300 C   0  0  0  0  0  3  0  0  0  0  0  0
  -21.5250   -4.9440   24.9120 C   0  0  0  0  0  0  0  0  0  0  0  0
  -22.0530   -4.3740   23.7410 C   0  0  0  0  0  3  0  0  0  0  0  0
  -22.2050   -5.1600   22.5850 C   0  0  0  0  0  0  0  0  0  0  0  0
  -22.6950   -4.6000   21.4520 F   0  0  0  0  0  0  0  0  0  0  0  0
  -21.3730   -4.1840   26.0210 F   0  0  0  0  0  0  0  0  0  0  0  0
  -22.9630  -13.8780   21.0190 C   0  0  0  0  0  0  0  0  0  0  0  0
  -22.2170  -13.2020   21.8840 N   0  0  0  0  0  0  0  0  0  0  0  0
  -22.5270  -14.8790   20.4510 O   0  0  0  0  0  0  0  0  0  0  0  0
  -22.5820  -12.3930   22.3660 H   0  0  0  0  0  0  0  0  0  0  0  0
  -21.2690  -13.4980   22.0690 H   0  0  0  0  0  0  0  0  0  0  0  0
  -25.6040  -15.5640   20.2720 N   0  0  0  0  0  0  0  0  0  0  0  0
  -24.8290  -16.2150   20.3410 H   0  0  0  0  0  0  0  0  0  0  0  0
  -26.4630  -16.0030   19.9670 H   0  0  0  0  0  0  0  0  0  0  0  0
  -28.4050  -25.5240   20.8830 C   0  0  0  0  0  2  0  0  0  0  0  0
  -28.6650  -26.8800   20.3450 O   0  0  0  0  0  0  0  0  0  0  0  0
  -24.6780  -32.0780   23.3710 C   0  0  0  0  0  0  0  0  0  0  0  0
  -27.5390  -27.7100   20.2840 C   0  0  0  0  0  0  0  0  0  0  0  0
  -23.5690  -30.6690   21.6730 C   0  0  0  0  0  3  0  0  0  0  0  0
  -25.1140  -29.2160   20.2470 C   0  0  0  0  0  0  0  0  0  0  0  0
  -26.0940  -31.0970   21.5560 C   0  0  0  0  0  2  0  0  0  0  0  0
  -26.2460  -29.7400   20.8840 C   0  0  0  0  0  0  0  0  0  0  0  0
  -27.4650  -28.9980   20.8960 C   0  0  0  0  0  3  0  0  0  0  0  0
  -26.3900  -27.2490   19.6040 C   0  0  0  0  0  3  0  0  0  0  0  0
  -25.1870  -27.9760   19.5970 C   0  0  0  0  0  3  0  0  0  0  0  0
  -23.8400  -30.0350   20.2840 C   0  0  0  0  0  2  0  0  0  0  0  0
  -24.7970  -31.2980   22.2580 N   0  0  0  0  0  0  0  0  0  0  0  0
  -23.5730  -32.3000   23.8870 O   0  0  0  0  0  0  0  0  0  0  0  0
  -22.9270  -29.6040   22.5950 C   0  0  0  0  0  0  0  0  0  0  0  0
  -21.6190  -29.3540   22.4120 N   0  0  0  0  0  0  0  0  0  0  0  0
  -23.6070  -29.0070   23.4340 O   0  0  0  0  0  0  0  0  0  0  0  0
  -21.1280  -29.8910   21.7110 H   0  0  0  0  0  0  0  0  0  0  0  0
  -18.3010  -27.9560   22.7460 C   0  0  0  0  0  0  0  0  0  0  0  0
  -20.8230  -28.3660   23.1400 C   0  0  0  0  0  3  0  0  0  0  0  0
  -21.0390  -26.9460   22.5670 C   0  0  0  0  0  2  0  0  0  0  0  0
  -20.0070  -26.5630   21.5000 C   0  0  0  0  0  2  0  0  0  0  0  0
  -18.5910  -26.6230   22.0770 C   0  0  0  0  0  2  0  0  0  0  0  0
  -19.3500  -28.7810   23.2310 C   0  0  0  0  0  0  0  0  0  0  0  0
  -19.0290  -30.0250   23.8150 C   0  0  0  0  0  3  0  0  0  0  0  0
  -17.6900  -30.4470   23.9200 C   0  0  0  0  0  3  0  0  0  0  0  0
  -16.6530  -29.6190   23.4510 C   0  0  0  0  0  3  0  0  0  0  0  0
  -16.9600  -28.3760   22.8710 C   0  0  0  0  0  3  0  0  0  0  0  0
  -25.9220  -32.7460   24.0360 C   0  0  0  0  0  3  0  0  0  0  0  0
  -25.5700  -34.1420   24.3290 N   0  0  0  0  0  0  0  0  0  0  0  0
  -25.9240  -35.1910   23.5740 C   0  0  0  0  0  0  0  0  0  0  0  0
  -26.6480  -35.0870   22.5800 O   0  0  0  0  0  0  0  0  0  0  0  0
  -24.9320  -34.2970   25.0950 H   0  0  0  0  0  0  0  0  0  0  0  0
  -24.1950  -36.9550   23.0950 C   0  0  0  0  0  1  0  0  0  0  0  0
  -25.3880  -36.5760   23.9860 C   0  0  0  0  0  3  0  0  0  0  0  0
  -27.4500  -37.5070   24.9430 C   0  0  0  0  0  1  0  0  0  0  0  0
  -26.4110  -37.6430   23.9260 N   0  0  0  0  0  0  0  0  0  0  0  0
  -25.9820  -38.5590   24.0320 H   0  0  0  0  0  0  0  0  0  0  0  0
  -26.3980  -32.0050   25.3450 C   0  0  1  0  0  0  0  0  0  0  0  0
  -25.2650  -31.7540   26.3660 C   0  0  0  0  0  1  0  0  0  0  0  0
  -27.0340  -30.6380   25.0010 C   0  0  0  0  0  1  0  0  0  0  0  0
  -27.4960  -32.8380   26.0460 C   0  0  0  0  0  1  0  0  0  0  0  0
  1  5  1  0
  2  1  1  0
  2  8  1  0
  3  4  1  0
  4  6  1  0
  5  7  1  1
  5 54  1  0
  5  4  1  0
  8  3  1  0
  9 13  1  0
 10 14  2  0
 12  9  2  0
 12 10  1  0
 13  8  1  0
 13 11  2  0
 14 11  1  0
 14 24  1  0
 15 12  1  0
 16 24  1  0
 17 22  1  0
 18 19  1  0
 18 17  1  0
 20 19  1  0
 20 29  1  0
 20 21  1  0
 22 16  1  0
 22 21  1  0
 23 16  2  0
 24 25  1  0
 26 27  2  0
 27 28  1  0
 27 46  1  0
 28 31  1  0
 29 26  1  0
 29 30  1  0
 30 28  2  0
 31 32  1  0
 32 33  2  0
 34 37  1  0
 34 33  1  0
 35 34  2  0
 36 35  1  0
 36 31  2  0
 37 38  1  0
 38 39  1  0
 39 40  2  0
 41 40  1  0
 41 45  1  0
 42 41  2  0
 43 38  2  0
 43 42  1  0
 44 43  1  0
 46 47  1  0
 47 50  1  0
 47 49  1  0
 48 46  2  0
 51 52  1  0
 51 26  1  0
 53 51  1  0
 55 54  1  0
 56 67  2  0
 57 55  1  0
 57 62  1  0
 58 66  1  0
 58 68  1  0
 59 65  1  0
 59 61  1  0
 60 66  1  0
 61 62  2  0
 61 60  1  0
 63 57  2  0
 64 63  1  0
 64 59  2  0
 65 58  1  0
 66 56  1  0
 68 70  2  0
 69 68  1  0
 71 69  1  0
 72 81  2  0
 72 77  1  0
 73 69  1  0
 73 77  1  0
 74 73  1  0
 75 76  1  0
 75 74  1  0
 76 72  1  0
 77 78  2  0
 78 79  1  0
 80 79  2  0
 81 80  1  0
 82 56  1  0
 82 83  1  0
 82 92  1  0
 83 86  1  0
 84 88  1  0
 84 83  1  0
 85 84  2  0
 88 87  1  0
 90 88  1  0
 90 91  1  0
 90 89  1  0
 92 95  1  1
 92 93  1  0
 94 92  1  0
M  ISO  4  16 100  24 100  54 101  55 101
M  END
>  <TORSDO>  (80) 
F 18

>  <SCORE>  (80) 
-13.599

>  <name>  (80) 
79

>  <ligand_id>  (80) 
79

>  <original_smiles>  (80) 
[H]c1c([H])c([H])c2c(c1[H])C([H])([H])C([H])([H])C([H])([H])C2([H])N([H])C(=O)C1([H])N(C(=O)C([H])(N([H])C(=O)C([H])(N([H])C([H])([H])[H])C([H])([H])[H])C(C([H])([H])[H])(C([H])([H])[H])C([H])([H])[H])C([H])([H])c2c([H])c(OC([H])([H])C3(C([H])([H])[H])C([H])([H])C([H])([H])N(c4c([H])c(N([H])C(=O)N5C([H])([H])C([H])([H])C([H])([H])C([H])(n6nc(-c7c([H])c([H])c(Oc8c([H])c([H])c(F)c([H])c8F)c([H])c7[H])c(C(=O)N([H])[H])c6N([H])[H])C5([H])[H])c([H])c(C([H])([H])[H])c4[H])C([H])([H])C3([H])C([H])([H])[H])c([H])c([H])c2C1([H])[H]

>  <smiles>  (80) 
[H]c1c([H])c([H])c2c(c1[H])C([H])([H])C([H])([H])C([H])([H])C2([H])N([H])C(=O)C1([H])N(C(=O)C([H])(N([H])C(=O)C([H])(N([H])C([H])([H])[H])C([H])([H])[H])C(C([H])([H])[H])(C([H])([H])[H])C([H])([H])[H])C([H])([H])c2c([H])c(OC([H])([H])C3(C([H])([H])[H])C([H])([H])C([H])([H])N(c4c([H])c(N([H])C(=O)N5C([H])([H])C([H])([H])C([H])([H])C([H])(n6nc(-c7c([H])c([H])c(Oc8c([H])c([H])c(F)c([H])c8F)c([H])c7[H])c(C(=O)N([H])[H])c6N([H])[H])C5([H])[H])c([H])c(C([H])([H])[H])c4[H])C([H])([H])C3([H])C([H])([H])[H])c([H])c([H])c2C1([H])[H]

$$$$
80:0:0
     RDKit          3D

 98106  0  0  1  0  0  0  0  0999 V2000
  -29.7430  -21.6420   20.3690 C   0  0  0  0  0  0  0  0  0  0  0  0
  -29.6600  -20.5840   21.2100 N   0  0  0  0  0  0  0  0  0  0  0  0
  -30.0890  -21.5090   19.1930 O   0  0  0  0  0  0  0  0  0  0  0  0
  -29.2590  -20.7890   22.1150 H   0  0  0  0  0  0  0  0  0  0  0  0
  -32.5640  -18.2320   21.5370 C   0  0  0  0  0  3  0  0  0  0  0  0
  -31.9670  -16.9970   21.2460 C   0  0  0  0  0  3  0  0  0  0  0  0
  -29.8370  -18.1130   20.8750 C   0  0  0  0  0  3  0  0  0  0  0  0
  -31.8150  -19.4240   21.5070 C   0  0  0  0  0  0  0  0  0  0  0  0
  -30.5990  -16.9050   20.9070 C   0  0  0  0  0  0  0  0  0  0  0  0
  -30.4390  -19.3810   21.1500 C   0  0  0  0  0  0  0  0  0  0  0  0
  -30.5920  -14.5600   20.0350 C   0  0  0  0  0  0  0  0  0  0  0  0
  -30.1770  -12.4110   18.8890 C   0  0  0  0  0  2  0  0  0  0  0  0
  -29.1590  -12.6150   17.7510 C   0  0  0  0  0  2  0  0  0  0  0  0
  -27.7250  -12.4590   18.2840 C   0  0  0  0  0  2  0  0  0  0  0  0
  -27.4690  -13.2870   19.5730 C   0  0  0  0  0  3  0  0  0  0  0  0
  -28.6030  -13.0950   20.6070 C   0  0  0  0  0  2  0  0  0  0  0  0
  -29.8770  -13.4030   19.9390 N   0  0  0  0  0  0  0  0  0  0  0  0
  -31.6720  -14.6930   19.4580 O   0  0  0  0  0  0  0  0  0  0  0  0
  -30.0030  -15.6130   20.6560 N   0  0  0  0  0  0  0  0  0  0  0  0
  -29.0460  -15.4790   20.9480 H   0  0  0  0  0  0  0  0  0  0  0  0
  -25.1320  -13.8620   20.4790 C   0  0  0  0  0  0  0  0  0  0  0  0
  -24.0950  -13.0750   20.9040 C   0  0  0  0  0  0  0  0  0  0  0  0
  -24.5530  -11.7250   20.7970 C   0  0  0  0  0  0  0  0  0  0  0  0
  -26.1560  -12.9900   20.1440 N   0  0  0  0  0  0  0  0  0  0  0  0
  -25.8160  -11.7000   20.3910 N   0  0  0  0  0  0  0  0  0  0  0  0
  -23.8410  -10.4580   20.9980 C   0  0  0  0  0  0  0  0  0  0  0  0
  -24.3020   -9.4890   21.9170 C   0  0  0  0  0  3  0  0  0  0  0  0
  -23.5890   -8.2860   22.1090 C   0  0  0  0  0  3  0  0  0  0  0  0
  -22.4010   -8.0420   21.3790 C   0  0  0  0  0  0  0  0  0  0  0  0
  -21.9580   -8.9990   20.4490 C   0  0  0  0  0  3  0  0  0  0  0  0
  -22.6720  -10.1940   20.2560 C   0  0  0  0  0  3  0  0  0  0  0  0
  -21.6570   -6.8910   21.4800 O   0  0  0  0  0  0  0  0  0  0  0  0
  -21.6100   -6.1620   22.6420 C   0  0  0  0  0  0  0  0  0  0  0  0
  -21.1390   -6.7180   23.8510 C   0  0  0  0  0  3  0  0  0  0  0  0
  -21.0430   -5.9140   25.0050 C   0  0  0  0  0  3  0  0  0  0  0  0
  -21.4100   -4.5560   24.9510 C   0  0  0  0  0  0  0  0  0  0  0  0
  -21.8740   -4.0000   23.7460 C   0  0  0  0  0  3  0  0  0  0  0  0
  -21.9730   -4.8010   22.5940 C   0  0  0  0  0  0  0  0  0  0  0  0
  -22.4010   -4.2540   21.4310 F   0  0  0  0  0  0  0  0  0  0  0  0
  -21.3090   -3.7820   26.0570 F   0  0  0  0  0  0  0  0  0  0  0  0
  -22.7230  -13.5430   21.2940 C   0  0  0  0  0  0  0  0  0  0  0  0
  -22.0580  -12.8130   22.1830 N   0  0  0  0  0  0  0  0  0  0  0  0
  -22.2540  -14.5870   20.8470 O   0  0  0  0  0  0  0  0  0  0  0  0
  -22.4540  -11.9660   22.5640 H   0  0  0  0  0  0  0  0  0  0  0  0
  -21.1390  -13.1070   22.4860 H   0  0  0  0  0  0  0  0  0  0  0  0
  -25.2850  -15.2370   20.3300 N   0  0  0  0  0  0  0  0  0  0  0  0
  -24.5210  -15.8820   20.4990 H   0  0  0  0  0  0  0  0  0  0  0  0
  -26.0980  -15.6820   19.9260 H   0  0  0  0  0  0  0  0  0  0  0  0
  -33.3870  -21.2890   20.7700 C   0  0  0  0  0  1  0  0  0  0  0  0
  -32.5380  -20.7080   21.9070 C   0  0  0  0  0  2  0  0  0  0  0  0
  -29.3950  -23.0450   20.9620 C   0  0  0  0  0  2  0  0  0  0  0  0
  -27.5720  -23.7850   19.3520 C   0  0  0  0  0  1  0  0  0  0  0  0
  -29.8880  -24.5910   18.9540 C   0  0  0  0  0  1  0  0  0  0  0  0
  -28.8630  -24.2500   20.0690 C   0  0  2  0  0  0  0  0  0  0  0  0
  -27.4380  -25.3660   21.9770 C   0  0  0  0  0  1  0  0  0  0  0  0
  -29.8430  -25.9890   21.7560 C   0  0  0  0  0  1  0  0  0  0  0  0
  -28.5900  -25.5730   20.9530 C   0  0  1  0  0  0  0  0  0  0  0  0
  -28.3970  -26.7720   20.1410 O   0  0  0  0  0  0  0  0  0  0  0  0
  -24.5320  -31.9900   23.2600 C   0  0  0  0  0  0  0  0  0  0  0  0
  -27.2340  -27.5280   20.2110 C   0  0  0  0  0  0  0  0  0  0  0  0
  -23.3600  -30.5930   21.5910 C   0  0  0  0  0  3  0  0  0  0  0  0
  -24.8430  -29.0590   20.1920 C   0  0  0  0  0  0  0  0  0  0  0  0
  -25.8940  -30.9450   21.4450 C   0  0  0  0  0  2  0  0  0  0  0  0
  -25.9960  -29.5730   20.8010 C   0  0  0  0  0  0  0  0  0  0  0  0
  -27.1980  -28.8190   20.8000 C   0  0  0  0  0  3  0  0  0  0  0  0
  -26.0590  -27.0360   19.6060 C   0  0  0  0  0  3  0  0  0  0  0  0
  -24.8700  -27.7870   19.5960 C   0  0  0  0  0  3  0  0  0  0  0  0
  -23.6010  -29.9220   20.2150 C   0  0  0  0  0  2  0  0  0  0  0  0
  -24.6140  -31.1910   22.1560 N   0  0  0  0  0  0  0  0  0  0  0  0
  -23.4390  -32.2610   23.7790 O   0  0  0  0  0  0  0  0  0  0  0  0
  -22.6890  -29.5680   22.5330 C   0  0  0  0  0  0  0  0  0  0  0  0
  -21.3670  -29.3850   22.3790 N   0  0  0  0  0  0  0  0  0  0  0  0
  -23.3550  -28.9390   23.3610 O   0  0  0  0  0  0  0  0  0  0  0  0
  -20.8940  -29.9460   21.6840 H   0  0  0  0  0  0  0  0  0  0  0  0
  -17.9780  -28.2030   22.8240 C   0  0  0  0  0  0  0  0  0  0  0  0
  -20.5350  -28.4420   23.1270 C   0  0  0  0  0  3  0  0  0  0  0  0
  -20.6360  -27.0190   22.5330 C   0  0  0  0  0  2  0  0  0  0  0  0
  -19.5430  -26.7150   21.5020 C   0  0  0  0  0  2  0  0  0  0  0  0
  -18.1540  -26.8600   22.1350 C   0  0  0  0  0  2  0  0  0  0  0  0
  -19.0960  -28.9520   23.2760 C   0  0  0  0  0  0  0  0  0  0  0  0
  -18.8800  -30.2080   23.8800 C   0  0  0  0  0  3  0  0  0  0  0  0
  -17.5780  -30.7190   24.0340 C   0  0  0  0  0  3  0  0  0  0  0  0
  -16.4730  -29.9660   23.6000 C   0  0  0  0  0  3  0  0  0  0  0  0
  -16.6730  -28.7090   23.0010 C   0  0  0  0  0  3  0  0  0  0  0  0
  -25.8050  -32.6190   23.9070 C   0  0  0  0  0  3  0  0  0  0  0  0
  -25.5000  -34.0250   24.2060 N   0  0  0  0  0  0  0  0  0  0  0  0
  -25.8520  -35.0620   23.4350 C   0  0  0  0  0  0  0  0  0  0  0  0
  -26.5400  -34.9370   22.4170 O   0  0  0  0  0  0  0  0  0  0  0  0
  -24.8860  -34.1950   24.9900 H   0  0  0  0  0  0  0  0  0  0  0  0
  -24.1360  -36.8530   23.0190 C   0  0  0  0  0  1  0  0  0  0  0  0
  -25.3630  -36.4600   23.8570 C   0  0  0  0  0  3  0  0  0  0  0  0
  -27.4870  -37.3550   24.7060 C   0  0  0  0  0  1  0  0  0  0  0  0
  -26.4050  -37.5050   23.7370 N   0  0  0  0  0  0  0  0  0  0  0  0
  -26.0010  -38.4300   23.8590 H   0  0  0  0  0  0  0  0  0  0  0  0
  -26.2810  -31.8630   25.2080 C   0  0  1  0  0  0  0  0  0  0  0  0
  -25.1520  -31.6250   26.2390 C   0  0  0  0  0  1  0  0  0  0  0  0
  -26.8860  -30.4850   24.8470 C   0  0  0  0  0  1  0  0  0  0  0  0
  -27.4050  -32.6690   25.9050 C   0  0  0  0  0  1  0  0  0  0  0  0
  1 51  1  0
  1  2  1  0
  2  4  1  0
  3  1  2  0
  6  5  2  0
  7  9  2  0
  7 10  1  0
  8  5  1  0
  8 50  1  0
  9  6  1  0
 10  2  1  0
 10  8  2  0
 11 19  1  0
 12 17  1  0
 13 14  1  0
 13 12  1  0
 15 14  1  0
 15 24  1  0
 15 16  1  0
 17 11  1  0
 17 16  1  0
 18 11  2  0
 19  9  1  0
 19 20  1  0
 21 22  2  0
 22 41  1  0
 23 22  1  0
 23 26  1  0
 24 25  1  0
 24 21  1  0
 25 23  2  0
 26 27  1  0
 27 28  2  0
 29 32  1  0
 29 28  1  0
 30 29  2  0
 31 30  1  0
 31 26  2  0
 32 33  1  0
 33 34  1  0
 34 35  2  0
 36 35  1  0
 36 40  1  0
 37 36  2  0
 38 33  2  0
 38 37  1  0
 39 38  1  0
 41 42  1  0
 42 45  1  0
 42 44  1  0
 43 41  2  0
 46 21  1  0
 46 47  1  0
 48 46  1  0
 49 50  1  0
 54 52  1  6
 53 54  1  0
 54 57  1  0
 54 51  1  0
 57 56  1  1
 57 55  1  0
 58 60  1  0
 58 57  1  0
 59 70  2  0
 60 65  1  0
 61 69  1  0
 61 71  1  0
 62 68  1  0
 62 64  1  0
 63 69  1  0
 64 63  1  0
 65 64  2  0
 66 60  2  0
 67 66  1  0
 67 62  2  0
 68 61  1  0
 69 59  1  0
 71 73  2  0
 72 71  1  0
 74 72  1  0
 75 84  2  0
 75 80  1  0
 76 72  1  0
 76 80  1  0
 77 76  1  0
 78 79  1  0
 78 77  1  0
 79 75  1  0
 80 81  2  0
 81 82  1  0
 83 82  2  0
 84 83  1  0
 85 59  1  0
 85 86  1  0
 85 95  1  0
 86 89  1  0
 87 91  1  0
 87 86  1  0
 88 87  2  0
 91 90  1  0
 93 91  1  0
 93 94  1  0
 93 92  1  0
 95 98  1  1
 95 96  1  0
 97 95  1  0
M  ISO  4  11 100  19 100  57 101  58 101
M  END
>  <TORSDO>  (81) 
F 21

>  <SCORE>  (81) 
-13.212

>  <name>  (81) 
80

>  <ligand_id>  (81) 
80

>  <original_smiles>  (81) 
[H]c1c([H])c([H])c2c(c1[H])C([H])([H])C([H])([H])C([H])([H])C2([H])N([H])C(=O)C1([H])N(C(=O)C([H])(N([H])C(=O)C([H])(N([H])C([H])([H])[H])C([H])([H])[H])C(C([H])([H])[H])(C([H])([H])[H])C([H])([H])[H])C([H])([H])c2c([H])c(OC(C([H])([H])[H])(C([H])([H])[H])C(C([H])([H])[H])(C([H])([H])[H])C([H])([H])C(=O)N([H])c3c([H])c(N([H])C(=O)N4C([H])([H])C([H])([H])C([H])([H])C([H])(n5nc(-c6c([H])c([H])c(Oc7c([H])c([H])c(F)c([H])c7F)c([H])c6[H])c(C(=O)N([H])[H])c5N([H])[H])C4([H])[H])c([H])c([H])c3C([H])([H])C([H])([H])[H])c([H])c([H])c2C1([H])[H]

>  <smiles>  (81) 
[H]c1c([H])c([H])c2c(c1[H])C([H])([H])C([H])([H])C([H])([H])C2([H])N([H])C(=O)C1([H])N(C(=O)C([H])(N([H])C(=O)C([H])(N([H])C([H])([H])[H])C([H])([H])[H])C(C([H])([H])[H])(C([H])([H])[H])C([H])([H])[H])C([H])([H])c2c([H])c(OC(C([H])([H])[H])(C([H])([H])[H])C(C([H])([H])[H])(C([H])([H])[H])C([H])([H])C(=O)N([H])c3c([H])c(N([H])C(=O)N4C([H])([H])C([H])([H])C([H])([H])C([H])(n5nc(-c6c([H])c([H])c(Oc7c([H])c([H])c(F)c([H])c7F)c([H])c6[H])c(C(=O)N([H])[H])c5N([H])[H])C4([H])[H])c([H])c([H])c3C([H])([H])C([H])([H])[H])c([H])c([H])c2C1([H])[H]

$$$$
81:0:0
     RDKit          3D

 91 99  0  0  1  0  0  0  0  0999 V2000
  -30.0880  -22.0250   21.9590 C   0  0  0  0  0  1  0  0  0  0  0  0
  -27.6280  -21.6840   21.8680 C   0  0  0  0  0  1  0  0  0  0  0  0
  -28.9070  -21.7660   20.9860 C   0  0  2  0  0  0  0  0  0  0  0  0
  -29.7800  -18.9350   20.9580 C   0  0  0  0  0  3  0  0  0  0  0  0
  -29.1360  -20.1790   20.3890 C   0  0  0  0  0  0  0  0  0  0  0  0
  -28.5870  -19.5750   19.2680 C   0  0  0  0  0  0  0  0  0  0  0  0
  -29.6670  -17.7570   20.1600 C   0  0  0  0  0  0  0  0  0  0  0  0
  -27.6060  -20.0950   18.2730 C   0  0  0  0  0  1  0  0  0  0  0  0
  -28.9030  -18.2100   19.1150 O   0  0  0  0  0  0  0  0  0  0  0  0
  -30.5520  -15.1780   20.0720 C   0  0  0  0  0  0  0  0  0  0  0  0
  -30.4660  -12.7990   19.1270 C   0  0  0  0  0  2  0  0  0  0  0  0
  -29.4980  -12.7210   17.9150 C   0  0  0  0  0  2  0  0  0  0  0  0
  -28.0440  -12.5140   18.3730 C   0  0  0  0  0  2  0  0  0  0  0  0
  -27.6680  -13.4260   19.5640 C   0  0  0  0  0  3  0  0  0  0  0  0
  -28.7520  -13.4370   20.6650 C   0  0  0  0  0  2  0  0  0  0  0  0
  -30.0030  -13.8890   20.0450 N   0  0  0  0  0  0  0  0  0  0  0  0
  -31.7260  -15.2680   19.6810 O   0  0  0  0  0  0  0  0  0  0  0  0
  -29.7710  -16.3240   20.4600 N   0  0  0  0  0  0  0  0  0  0  0  0
  -28.9040  -15.9920   20.8560 H   0  0  0  0  0  0  0  0  0  0  0  0
  -25.3170  -14.0010   20.3930 C   0  0  0  0  0  0  0  0  0  0  0  0
  -24.2690  -13.2220   20.7890 C   0  0  0  0  0  0  0  0  0  0  0  0
  -24.7290  -11.8690   20.7300 C   0  0  0  0  0  0  0  0  0  0  0  0
  -26.3470  -13.1220   20.1000 N   0  0  0  0  0  0  0  0  0  0  0  0
  -26.0070  -11.8350   20.3710 N   0  0  0  0  0  0  0  0  0  0  0  0
  -24.0080  -10.6090   20.9330 C   0  0  0  0  0  0  0  0  0  0  0  0
  -24.4420   -9.6500   21.8770 C   0  0  0  0  0  3  0  0  0  0  0  0
  -23.7120   -8.4550   22.0680 C   0  0  0  0  0  3  0  0  0  0  0  0
  -22.5390   -8.2130   21.3160 C   0  0  0  0  0  0  0  0  0  0  0  0
  -22.1240   -9.1600   20.3630 C   0  0  0  0  0  3  0  0  0  0  0  0
  -22.8520  -10.3440   20.1680 C   0  0  0  0  0  3  0  0  0  0  0  0
  -21.7890   -7.0650   21.4120 O   0  0  0  0  0  0  0  0  0  0  0  0
  -21.7100   -6.3510   22.5810 C   0  0  0  0  0  0  0  0  0  0  0  0
  -21.2480   -6.9350   23.7820 C   0  0  0  0  0  3  0  0  0  0  0  0
  -21.1150   -6.1480   24.9430 C   0  0  0  0  0  3  0  0  0  0  0  0
  -21.4360   -4.7770   24.9040 C   0  0  0  0  0  0  0  0  0  0  0  0
  -21.8910   -4.1920   23.7090 C   0  0  0  0  0  3  0  0  0  0  0  0
  -22.0240   -4.9770   22.5500 C   0  0  0  0  0  0  0  0  0  0  0  0
  -22.4460   -4.4030   21.3970 F   0  0  0  0  0  0  0  0  0  0  0  0
  -21.3040   -4.0180   26.0170 F   0  0  0  0  0  0  0  0  0  0  0  0
  -22.8800  -13.6960   21.1090 C   0  0  0  0  0  0  0  0  0  0  0  0
  -22.1840  -13.0020   21.9970 N   0  0  0  0  0  0  0  0  0  0  0  0
  -22.4280  -14.7190   20.5990 O   0  0  0  0  0  0  0  0  0  0  0  0
  -22.5690  -12.1730   22.4220 H   0  0  0  0  0  0  0  0  0  0  0  0
  -21.2530  -13.3000   22.2550 H   0  0  0  0  0  0  0  0  0  0  0  0
  -25.4650  -15.3760   20.2300 N   0  0  0  0  0  0  0  0  0  0  0  0
  -24.6910  -16.0060   20.4160 H   0  0  0  0  0  0  0  0  0  0  0  0
  -26.2450  -15.8330   19.7740 H   0  0  0  0  0  0  0  0  0  0  0  0
  -28.8000  -23.2220   20.1070 C   0  0  0  0  0  0  0  0  0  0  0  0
  -29.3650  -23.2450   19.0070 O   0  0  0  0  0  0  0  0  0  0  0  0
  -28.0060  -24.6460   20.5820 C   0  0  0  0  0  2  0  0  0  0  0  0
  -28.3050  -26.1430   20.1150 O   0  0  0  0  0  0  0  0  0  0  0  0
  -24.6830  -31.8920   23.1540 C   0  0  0  0  0  0  0  0  0  0  0  0
  -27.2720  -27.1720   20.0910 C   0  0  0  0  0  0  0  0  0  0  0  0
  -23.4900  -30.4980   21.5110 C   0  0  0  0  0  3  0  0  0  0  0  0
  -24.9470  -28.9500   20.0600 C   0  0  0  0  0  0  0  0  0  0  0  0
  -26.0430  -30.7770   21.3350 C   0  0  0  0  0  2  0  0  0  0  0  0
  -26.1280  -29.3850   20.6740 C   0  0  0  0  0  0  0  0  0  0  0  0
  -27.2940  -28.5170   20.6670 C   0  0  0  0  0  3  0  0  0  0  0  0
  -26.0710  -26.8610   19.4180 C   0  0  0  0  0  3  0  0  0  0  0  0
  -24.9360  -27.7060   19.4120 C   0  0  0  0  0  3  0  0  0  0  0  0
  -23.7120  -29.8420   20.1230 C   0  0  0  0  0  2  0  0  0  0  0  0
  -24.7600  -31.0770   22.0550 N   0  0  0  0  0  0  0  0  0  0  0  0
  -23.5960  -32.1590   23.6910 O   0  0  0  0  0  0  0  0  0  0  0  0
  -22.8290  -29.4730   22.4660 C   0  0  0  0  0  0  0  0  0  0  0  0
  -21.4990  -29.2920   22.3530 N   0  0  0  0  0  0  0  0  0  0  0  0
  -23.5130  -28.8420   23.2740 O   0  0  0  0  0  0  0  0  0  0  0  0
  -21.0000  -29.8540   21.6800 H   0  0  0  0  0  0  0  0  0  0  0  0
  -18.1320  -28.0690   22.8960 C   0  0  0  0  0  0  0  0  0  0  0  0
  -20.6940  -28.3380   23.1230 C   0  0  0  0  0  3  0  0  0  0  0  0
  -20.7890  -26.9140   22.5230 C   0  0  0  0  0  2  0  0  0  0  0  0
  -19.6720  -26.6060   21.5230 C   0  0  0  0  0  2  0  0  0  0  0  0
  -18.3020  -26.7340   22.1930 C   0  0  0  0  0  2  0  0  0  0  0  0
  -19.2540  -28.8290   23.3200 C   0  0  0  0  0  0  0  0  0  0  0  0
  -19.0400  -30.0790   23.9410 C   0  0  0  0  0  3  0  0  0  0  0  0
  -17.7340  -30.5680   24.1400 C   0  0  0  0  0  3  0  0  0  0  0  0
  -16.6260  -29.8050   23.7290 C   0  0  0  0  0  3  0  0  0  0  0  0
  -16.8270  -28.5560   23.1140 C   0  0  0  0  0  3  0  0  0  0  0  0
  -25.9560  -32.5370   23.7840 C   0  0  0  0  0  3  0  0  0  0  0  0
  -26.4800  -31.7650   25.0560 C   0  0  1  0  0  0  0  0  0  0  0  0
  -25.3890  -31.5170   26.1230 C   0  0  0  0  0  1  0  0  0  0  0  0
  -27.0730  -30.3950   24.6590 C   0  0  0  0  0  1  0  0  0  0  0  0
  -27.6250  -32.5650   25.7200 C   0  0  0  0  0  1  0  0  0  0  0  0
  -25.6280  -33.9280   24.1300 N   0  0  0  0  0  0  0  0  0  0  0  0
  -25.9470  -34.9980   23.3900 C   0  0  0  0  0  0  0  0  0  0  0  0
  -26.6130  -34.9180   22.3540 O   0  0  0  0  0  0  0  0  0  0  0  0
  -25.0280  -34.0630   24.9300 H   0  0  0  0  0  0  0  0  0  0  0  0
  -24.2000  -36.7850   23.0800 C   0  0  0  0  0  1  0  0  0  0  0  0
  -25.4510  -36.3750   23.8740 C   0  0  0  0  0  3  0  0  0  0  0  0
  -27.5810  -37.2650   24.7040 C   0  0  0  0  0  1  0  0  0  0  0  0
  -26.4710  -37.4410   23.7740 N   0  0  0  0  0  0  0  0  0  0  0  0
  -26.0570  -38.3520   23.9440 H   0  0  0  0  0  0  0  0  0  0  0  0
  3  2  1  1
  3  1  1  0
  5  4  1  0
  5  3  1  0
  6  5  2  0
  7 18  1  0
  7  4  2  0
  8  6  1  0
  9  6  1  0
  9  7  1  0
 10 18  1  0
 11 16  1  0
 12 13  1  0
 12 11  1  0
 14 13  1  0
 14 23  1  0
 14 15  1  0
 16 10  1  0
 16 15  1  0
 17 10  2  0
 18 19  1  0
 20 21  2  0
 21 40  1  0
 22 21  1  0
 22 25  1  0
 23 24  1  0
 23 20  1  0
 24 22  2  0
 25 26  1  0
 26 27  2  0
 28 31  1  0
 28 27  1  0
 29 28  2  0
 30 29  1  0
 30 25  2  0
 31 32  1  0
 32 33  1  0
 33 34  2  0
 35 34  1  0
 35 39  1  0
 36 35  2  0
 37 32  2  0
 37 36  1  0
 38 37  1  0
 40 41  1  0
 41 44  1  0
 41 43  1  0
 42 40  2  0
 45 20  1  0
 45 46  1  0
 47 45  1  0
 48 50  1  0
 48  3  1  0
 49 48  2  0
 51 50  1  0
 52 63  2  0
 53 51  1  0
 53 58  1  0
 54 62  1  0
 54 64  1  0
 55 61  1  0
 55 57  1  0
 56 62  1  0
 57 56  1  0
 58 57  2  0
 59 53  2  0
 60 59  1  0
 60 55  2  0
 61 54  1  0
 62 52  1  0
 64 66  2  0
 65 64  1  0
 67 65  1  0
 68 77  2  0
 68 73  1  0
 69 65  1  0
 69 73  1  0
 70 69  1  0
 71 72  1  0
 71 70  1  0
 72 68  1  0
 73 74  2  0
 74 75  1  0
 76 75  2  0
 77 76  1  0
 78 52  1  0
 78 83  1  0
 78 79  1  0
 79 82  1  1
 79 80  1  0
 81 79  1  0
 83 86  1  0
 84 88  1  0
 84 83  1  0
 85 84  2  0
 88 87  1  0
 90 88  1  0
 90 91  1  0
 90 89  1  0
M  ISO  4  10 100  18 100  50 101  51 101
M  END
>  <TORSDO>  (82) 
F 19

>  <SCORE>  (82) 
-15.380

>  <name>  (82) 
81

>  <ligand_id>  (82) 
81

>  <original_smiles>  (82) 
[H]c1c([H])c([H])c2c(c1[H])C([H])([H])C([H])([H])C([H])([H])C2([H])N([H])C(=O)C1([H])N(C(=O)C([H])(N([H])C(=O)C([H])(N([H])C([H])([H])[H])C([H])([H])[H])C(C([H])([H])[H])(C([H])([H])[H])C([H])([H])[H])C([H])([H])c2c([H])c(OC([H])([H])C(=O)C(c3c(C([H])([H])[H])oc(N([H])C(=O)N4C([H])([H])C([H])([H])C([H])([H])C([H])(n5nc(-c6c([H])c([H])c(Oc7c([H])c([H])c(F)c([H])c7F)c([H])c6[H])c(C(=O)N([H])[H])c5N([H])[H])C4([H])[H])c3[H])(C([H])([H])[H])C([H])([H])[H])c([H])c([H])c2C1([H])[H]

>  <smiles>  (82) 
[H]c1c([H])c([H])c2c(c1[H])C([H])([H])C([H])([H])C([H])([H])C2([H])N([H])C(=O)C1([H])N(C(=O)C([H])(N([H])C(=O)C([H])(N([H])C([H])([H])[H])C([H])([H])[H])C(C([H])([H])[H])(C([H])([H])[H])C([H])([H])[H])C([H])([H])c2c([H])c(OC([H])([H])C(=O)C(c3c(C([H])([H])[H])oc(N([H])C(=O)N4C([H])([H])C([H])([H])C([H])([H])C([H])(n5nc(-c6c([H])c([H])c(Oc7c([H])c([H])c(F)c([H])c7F)c([H])c6[H])c(C(=O)N([H])[H])c5N([H])[H])C4([H])[H])c3[H])(C([H])([H])[H])C([H])([H])[H])c([H])c([H])c2C1([H])[H]

$$$$
82:0:0
     RDKit          3D

 95103  0  0  1  0  0  0  0  0999 V2000
  -30.7620  -21.1810   20.6880 C   0  0  0  0  0  0  0  0  0  0  0  0
  -29.8640  -21.9450   20.0410 N   0  0  0  0  0  0  0  0  0  0  0  0
  -31.7870  -21.6540   21.1850 O   0  0  0  0  0  0  0  0  0  0  0  0
  -29.0390  -21.4680   19.7060 H   0  0  0  0  0  0  0  0  0  0  0  0
  -30.9630  -18.9770   21.9260 C   0  0  0  0  0  3  0  0  0  0  0  0
  -30.8140  -17.5750   22.0230 C   0  0  0  0  0  3  0  0  0  0  0  0
  -29.7220  -17.5520   19.8540 C   0  0  0  0  0  3  0  0  0  0  0  0
  -30.4890  -19.6920   20.7990 C   0  0  0  0  0  0  0  0  0  0  0  0
  -30.2070  -16.8460   20.9800 C   0  0  0  0  0  0  0  0  0  0  0  0
  -29.8620  -18.9570   19.7600 C   0  0  0  0  0  0  0  0  0  0  0  0
  -29.3920  -19.5840   18.6520 F   0  0  0  0  0  0  0  0  0  0  0  0
  -30.6650  -14.4810   20.4180 C   0  0  0  0  0  0  0  0  0  0  0  0
  -30.3480  -12.3480   19.2180 C   0  0  0  0  0  2  0  0  0  0  0  0
  -29.3870  -12.5850   18.0330 C   0  0  0  0  0  2  0  0  0  0  0  0
  -27.9180  -12.4450   18.4830 C   0  0  0  0  0  2  0  0  0  0  0  0
  -27.6060  -13.2550   19.7700 C   0  0  0  0  0  3  0  0  0  0  0  0
  -28.6750  -12.9920   20.8540 C   0  0  0  0  0  2  0  0  0  0  0  0
  -29.9960  -13.3030   20.2800 N   0  0  0  0  0  0  0  0  0  0  0  0
  -31.7590  -14.6990   19.8880 O   0  0  0  0  0  0  0  0  0  0  0  0
  -30.0130  -15.4380   21.1060 N   0  0  0  0  0  0  0  0  0  0  0  0
  -29.1660  -15.1400   21.5640 H   0  0  0  0  0  0  0  0  0  0  0  0
  -25.2130  -13.8630   20.5010 C   0  0  0  0  0  0  0  0  0  0  0  0
  -24.1470  -13.0900   20.8780 C   0  0  0  0  0  0  0  0  0  0  0  0
  -24.6070  -11.7390   20.8390 C   0  0  0  0  0  0  0  0  0  0  0  0
  -26.2550  -12.9820   20.2590 N   0  0  0  0  0  0  0  0  0  0  0  0
  -25.8940  -11.6990   20.5190 N   0  0  0  0  0  0  0  0  0  0  0  0
  -23.8820  -10.4770   21.0340 C   0  0  0  0  0  0  0  0  0  0  0  0
  -24.3270   -9.5050   21.9570 C   0  0  0  0  0  3  0  0  0  0  0  0
  -23.6030   -8.3060   22.1390 C   0  0  0  0  0  3  0  0  0  0  0  0
  -22.4210   -8.0720   21.4000 C   0  0  0  0  0  0  0  0  0  0  0  0
  -21.9930   -9.0330   20.4670 C   0  0  0  0  0  3  0  0  0  0  0  0
  -22.7180  -10.2230   20.2820 C   0  0  0  0  0  3  0  0  0  0  0  0
  -21.6670   -6.9270   21.4930 O   0  0  0  0  0  0  0  0  0  0  0  0
  -21.6390   -6.1740   22.6400 C   0  0  0  0  0  0  0  0  0  0  0  0
  -21.2330   -6.7180   23.8770 C   0  0  0  0  0  3  0  0  0  0  0  0
  -21.1520   -5.8920   25.0160 C   0  0  0  0  0  3  0  0  0  0  0  0
  -21.4670   -4.5230   24.9180 C   0  0  0  0  0  0  0  0  0  0  0  0
  -21.8680   -3.9790   23.6850 C   0  0  0  0  0  3  0  0  0  0  0  0
  -21.9510   -4.8020   22.5490 C   0  0  0  0  0  0  0  0  0  0  0  0
  -22.3150   -4.2690   21.3580 F   0  0  0  0  0  0  0  0  0  0  0  0
  -21.3830   -3.7290   26.0100 F   0  0  0  0  0  0  0  0  0  0  0  0
  -22.7530  -13.5680   21.1670 C   0  0  0  0  0  0  0  0  0  0  0  0
  -22.0340  -12.8700   22.0380 N   0  0  0  0  0  0  0  0  0  0  0  0
  -22.3100  -14.5970   20.6580 O   0  0  0  0  0  0  0  0  0  0  0  0
  -22.4040  -12.0380   22.4730 H   0  0  0  0  0  0  0  0  0  0  0  0
  -21.0990  -13.1730   22.2750 H   0  0  0  0  0  0  0  0  0  0  0  0
  -25.3780  -15.2340   20.3270 N   0  0  0  0  0  0  0  0  0  0  0  0
  -24.6170  -15.8920   20.4510 H   0  0  0  0  0  0  0  0  0  0  0  0
  -26.2310  -15.6720   20.0010 H   0  0  0  0  0  0  0  0  0  0  0  0
  -29.6460  -23.3110   18.0390 C   0  0  0  0  0  1  0  0  0  0  0  0
  -30.1180  -23.2990   19.5070 C   0  0  0  0  0  3  0  0  0  0  0  0
  -29.4720  -24.4400   20.3600 C   0  0  0  0  0  0  0  0  0  0  0  0
  -29.8710  -24.6710   21.5070 O   0  0  0  0  0  0  0  0  0  0  0  0
  -28.3080  -25.2950   19.7970 C   0  0  0  0  0  2  0  0  0  0  0  0
  -28.3800  -26.6750   20.2170 O   0  0  0  0  0  0  0  0  0  0  0  0
  -24.5840  -31.8920   23.2490 C   0  0  0  0  0  0  0  0  0  0  0  0
  -27.2110  -27.4190   20.1730 C   0  0  0  0  0  0  0  0  0  0  0  0
  -23.3740  -30.4920   21.6090 C   0  0  0  0  0  3  0  0  0  0  0  0
  -24.8210  -28.9530   20.1820 C   0  0  0  0  0  0  0  0  0  0  0  0
  -25.9030  -30.8370   21.4120 C   0  0  0  0  0  2  0  0  0  0  0  0
  -25.9820  -29.4650   20.7720 C   0  0  0  0  0  0  0  0  0  0  0  0
  -27.1780  -28.7060   20.7660 C   0  0  0  0  0  3  0  0  0  0  0  0
  -26.0270  -26.9330   19.5660 C   0  0  0  0  0  3  0  0  0  0  0  0
  -24.8400  -27.6870   19.5750 C   0  0  0  0  0  3  0  0  0  0  0  0
  -23.5800  -29.8150   20.2290 C   0  0  0  0  0  2  0  0  0  0  0  0
  -24.6380  -31.0890   22.1470 N   0  0  0  0  0  0  0  0  0  0  0  0
  -23.5030  -32.1680   23.7890 O   0  0  0  0  0  0  0  0  0  0  0  0
  -22.7200  -29.4720   22.5700 C   0  0  0  0  0  0  0  0  0  0  0  0
  -21.3960  -29.2920   22.4420 N   0  0  0  0  0  0  0  0  0  0  0  0
  -23.4020  -28.8480   23.3860 O   0  0  0  0  0  0  0  0  0  0  0  0
  -20.9070  -29.8480   21.7550 H   0  0  0  0  0  0  0  0  0  0  0  0
  -18.0170  -28.1090   22.9430 C   0  0  0  0  0  0  0  0  0  0  0  0
  -20.5760  -28.3570   23.2140 C   0  0  0  0  0  3  0  0  0  0  0  0
  -20.6740  -26.9260   22.6370 C   0  0  0  0  0  2  0  0  0  0  0  0
  -19.5690  -26.6070   21.6240 C   0  0  0  0  0  2  0  0  0  0  0  0
  -18.1890  -26.7580   22.2690 C   0  0  0  0  0  2  0  0  0  0  0  0
  -19.1390  -28.8670   23.3720 C   0  0  0  0  0  0  0  0  0  0  0  0
  -18.9260  -30.1310   23.9610 C   0  0  0  0  0  3  0  0  0  0  0  0
  -17.6230  -30.6380   24.1280 C   0  0  0  0  0  3  0  0  0  0  0  0
  -16.5150  -29.8770   23.7160 C   0  0  0  0  0  3  0  0  0  0  0  0
  -16.7140  -28.6140   23.1280 C   0  0  0  0  0  3  0  0  0  0  0  0
  -25.8720  -32.5200   23.8660 C   0  0  0  0  0  3  0  0  0  0  0  0
  -26.3890  -31.7510   25.1430 C   0  0  1  0  0  0  0  0  0  0  0  0
  -25.2980  -31.5180   26.2130 C   0  0  0  0  0  1  0  0  0  0  0  0
  -26.9690  -30.3720   24.7520 C   0  0  0  0  0  1  0  0  0  0  0  0
  -27.5420  -32.5460   25.8010 C   0  0  0  0  0  1  0  0  0  0  0  0
  -25.5670  -33.9200   24.1900 N   0  0  0  0  0  0  0  0  0  0  0  0
  -25.9040  -34.9690   23.4280 C   0  0  0  0  0  0  0  0  0  0  0  0
  -26.5740  -34.8610   22.3980 O   0  0  0  0  0  0  0  0  0  0  0  0
  -24.9720  -34.0790   24.9900 H   0  0  0  0  0  0  0  0  0  0  0  0
  -24.1830  -36.7670   23.0610 C   0  0  0  0  0  1  0  0  0  0  0  0
  -25.4180  -36.3600   23.8800 C   0  0  0  0  0  3  0  0  0  0  0  0
  -27.5530  -37.2370   24.7180 C   0  0  0  0  0  1  0  0  0  0  0  0
  -26.4550  -37.4100   23.7700 N   0  0  0  0  0  0  0  0  0  0  0  0
  -26.0520  -38.3310   23.9180 H   0  0  0  0  0  0  0  0  0  0  0  0
  1  8  1  0
  1  3  2  0
  2  1  1  0
  4  2  1  0
  5  6  1  0
  7  9  1  0
  8  5  2  0
  9 20  1  0
  9  6  2  0
 10  7  2  0
 10  8  1  0
 11 10  1  0
 12 20  1  0
 13 18  1  0
 14 15  1  0
 14 13  1  0
 16 15  1  0
 16 25  1  0
 16 17  1  0
 18 12  1  0
 18 17  1  0
 19 12  2  0
 20 21  1  0
 22 23  2  0
 23 42  1  0
 24 23  1  0
 24 27  1  0
 25 22  1  0
 25 26  1  0
 26 24  2  0
 27 28  1  0
 28 29  2  0
 30 33  1  0
 30 29  1  0
 31 30  2  0
 32 31  1  0
 32 27  2  0
 33 34  1  0
 34 35  1  0
 35 36  2  0
 37 36  1  0
 37 41  1  0
 38 37  2  0
 39 34  2  0
 39 38  1  0
 40 39  1  0
 42 43  1  0
 43 46  1  0
 43 45  1  0
 44 42  2  0
 47 48  1  0
 47 22  1  0
 49 47  1  0
 51 50  1  0
 51  2  1  0
 51 52  1  0
 52 53  2  0
 54 55  1  0
 54 52  1  0
 56 67  2  0
 57 55  1  0
 57 62  1  0
 58 66  1  0
 58 68  1  0
 59 65  1  0
 59 61  1  0
 60 66  1  0
 61 60  1  0
 62 61  2  0
 63 64  1  0
 63 57  2  0
 64 59  2  0
 65 58  1  0
 66 56  1  0
 68 70  2  0
 69 68  1  0
 71 69  1  0
 72 81  2  0
 72 77  1  0
 73 69  1  0
 73 77  1  0
 74 73  1  0
 75 76  1  0
 75 74  1  0
 76 72  1  0
 77 78  2  0
 78 79  1  0
 80 79  2  0
 81 80  1  0
 82 56  1  0
 82 87  1  0
 82 83  1  0
 83 86  1  1
 83 84  1  0
 85 83  1  0
 87 90  1  0
 88 92  1  0
 88 87  1  0
 89 88  2  0
 92 91  1  0
 94 92  1  0
 94 95  1  0
 94 93  1  0
M  ISO  4  12 100  20 100  54 101  55 101
M  END
>  <TORSDO>  (83) 
F 20

>  <SCORE>  (83) 
-14.218

>  <name>  (83) 
82

>  <ligand_id>  (83) 
82

>  <original_smiles>  (83) 
[H]c1c([H])c([H])c2c(c1[H])C([H])([H])C([H])([H])C([H])([H])C2([H])N([H])C(=O)C1([H])N(C(=O)C([H])(N([H])C(=O)C([H])(N([H])C([H])([H])[H])C([H])([H])[H])C(C([H])([H])[H])(C([H])([H])[H])C([H])([H])[H])C([H])([H])c2c([H])c(OC([H])([H])C(=O)C([H])(N([H])C(=O)c3c([H])c([H])c(N([H])C(=O)N4C([H])([H])C([H])([H])C([H])([H])C([H])(n5nc(-c6c([H])c([H])c(Oc7c([H])c([H])c(F)c([H])c7F)c([H])c6[H])c(C(=O)N([H])[H])c5N([H])[H])C4([H])[H])c([H])c3F)C([H])([H])[H])c([H])c([H])c2C1([H])[H]

>  <smiles>  (83) 
[H]c1c([H])c([H])c2c(c1[H])C([H])([H])C([H])([H])C([H])([H])C2([H])N([H])C(=O)C1([H])N(C(=O)C([H])(N([H])C(=O)C([H])(N([H])C([H])([H])[H])C([H])([H])[H])C(C([H])([H])[H])(C([H])([H])[H])C([H])([H])[H])C([H])([H])c2c([H])c(OC([H])([H])C(=O)C([H])(N([H])C(=O)c3c([H])c([H])c(N([H])C(=O)N4C([H])([H])C([H])([H])C([H])([H])C([H])(n5nc(-c6c([H])c([H])c(Oc7c([H])c([H])c(F)c([H])c7F)c([H])c6[H])c(C(=O)N([H])[H])c5N([H])[H])C4([H])[H])c([H])c3F)C([H])([H])[H])c([H])c([H])c2C1([H])[H]

$$$$
83:0:0
     RDKit          3D

 93101  0  0  1  0  0  0  0  0999 V2000
  -28.1800  -22.2110   18.6780 C   0  0  0  0  0  2  0  0  0  0  0  0
  -29.0100  -20.9670   18.5520 C   0  0  0  0  0  3  0  0  0  0  0  0
  -28.5320  -19.8110   18.7640 N   0  0  0  0  0  0  0  0  0  0  0  0
  -31.2740  -17.5450   17.6500 C   0  0  0  0  0  3  0  0  0  0  0  0
  -30.3620  -18.6110   17.6450 C   0  0  0  0  0  3  0  0  0  0  0  0
  -31.2190  -16.5860   18.6750 C   0  0  0  0  0  3  0  0  0  0  0  0
  -29.3400  -17.7490   19.6910 C   0  0  0  0  0  3  0  0  0  0  0  0
  -29.4100  -18.7310   18.6860 C   0  0  0  0  0  0  0  0  0  0  0  0
  -30.2530  -16.6710   19.7110 C   0  0  0  0  0  0  0  0  0  0  0  0
  -30.9140  -14.6230   20.8920 C   0  0  0  0  0  0  0  0  0  0  0  0
  -30.7010  -12.4290   19.8770 C   0  0  0  0  0  2  0  0  0  0  0  0
  -29.8670  -12.6280   18.5930 C   0  0  0  0  0  2  0  0  0  0  0  0
  -28.3590  -12.5110   18.8980 C   0  0  0  0  0  2  0  0  0  0  0  0
  -27.9140  -13.3740   20.1100 C   0  0  0  0  0  3  0  0  0  0  0  0
  -28.8810  -13.1990   21.3070 C   0  0  0  0  0  2  0  0  0  0  0  0
  -30.2560  -13.4430   20.8380 N   0  0  0  0  0  0  0  0  0  0  0  0
  -32.1350  -14.7370   20.7690 O   0  0  0  0  0  0  0  0  0  0  0  0
  -30.1170  -15.6920   20.7420 N   0  0  0  0  0  0  0  0  0  0  0  0
  -29.1850  -15.5820   21.1080 H   0  0  0  0  0  0  0  0  0  0  0  0
  -25.4580  -13.9700   20.6150 C   0  0  0  0  0  0  0  0  0  0  0  0
  -24.3700  -13.1960   20.9170 C   0  0  0  0  0  0  0  0  0  0  0  0
  -24.8450  -11.8480   20.9540 C   0  0  0  0  0  0  0  0  0  0  0  0
  -26.5280  -13.0960   20.4910 N   0  0  0  0  0  0  0  0  0  0  0  0
  -26.1570  -11.8170   20.7500 N   0  0  0  0  0  0  0  0  0  0  0  0
  -24.1170  -10.5810   21.1160 C   0  0  0  0  0  0  0  0  0  0  0  0
  -24.4980   -9.6310   22.0880 C   0  0  0  0  0  3  0  0  0  0  0  0
  -23.7750   -8.4260   22.2320 C   0  0  0  0  0  3  0  0  0  0  0  0
  -22.6570   -8.1640   21.4060 C   0  0  0  0  0  0  0  0  0  0  0  0
  -22.2980   -9.1020   20.4220 C   0  0  0  0  0  3  0  0  0  0  0  0
  -23.0220  -10.2970   20.2750 C   0  0  0  0  0  3  0  0  0  0  0  0
  -21.9120   -7.0110   21.4540 O   0  0  0  0  0  0  0  0  0  0  0  0
  -21.7950   -6.2780   22.6080 C   0  0  0  0  0  0  0  0  0  0  0  0
  -21.2920   -6.8390   23.8020 C   0  0  0  0  0  3  0  0  0  0  0  0
  -21.1330   -6.0310   24.9450 C   0  0  0  0  0  3  0  0  0  0  0  0
  -21.4600   -4.6640   24.8970 C   0  0  0  0  0  0  0  0  0  0  0  0
  -21.9580   -4.1030   23.7070 C   0  0  0  0  0  3  0  0  0  0  0  0
  -22.1220   -4.9070   22.5650 C   0  0  0  0  0  0  0  0  0  0  0  0
  -22.5820   -4.3590   21.4160 F   0  0  0  0  0  0  0  0  0  0  0  0
  -21.2990   -3.8860   25.9930 F   0  0  0  0  0  0  0  0  0  0  0  0
  -22.9480  -13.6600   21.0630 C   0  0  0  0  0  0  0  0  0  0  0  0
  -22.1600  -12.9800   21.8880 N   0  0  0  0  0  0  0  0  0  0  0  0
  -22.5390  -14.6600   20.4750 O   0  0  0  0  0  0  0  0  0  0  0  0
  -22.4970  -12.1720   22.3880 H   0  0  0  0  0  0  0  0  0  0  0  0
  -21.1980  -13.2670   22.0180 H   0  0  0  0  0  0  0  0  0  0  0  0
  -25.6310  -15.3350   20.4160 N   0  0  0  0  0  0  0  0  0  0  0  0
  -24.8630  -15.9970   20.4310 H   0  0  0  0  0  0  0  0  0  0  0  0
  -26.5100  -15.7530   20.1370 H   0  0  0  0  0  0  0  0  0  0  0  0
  -29.0520  -23.7130   16.8260 C   0  0  0  0  0  1  0  0  0  0  0  0
  -28.9470  -23.5110   18.3550 C   0  0  0  0  0  3  0  0  0  0  0  0
  -28.2040  -24.6380   19.0940 C   0  0  0  0  0  2  0  0  0  0  0  0
  -30.2100  -26.2660   18.9080 C   0  0  0  0  0  1  0  0  0  0  0  0
  -28.6840  -26.1010   18.9330 C   0  0  0  0  0  3  0  0  0  0  0  0
  -28.3110  -26.8480   20.0960 O   0  0  0  0  0  0  0  0  0  0  0  0
  -24.5110  -31.9450   23.2720 C   0  0  0  0  0  0  0  0  0  0  0  0
  -27.1160  -27.5290   20.1160 C   0  0  0  0  0  0  0  0  0  0  0  0
  -23.2890  -30.5580   21.6350 C   0  0  0  0  0  3  0  0  0  0  0  0
  -24.7230  -29.0240   20.1990 C   0  0  0  0  0  0  0  0  0  0  0  0
  -25.8180  -30.9040   21.4270 C   0  0  0  0  0  2  0  0  0  0  0  0
  -25.8860  -29.5360   20.7830 C   0  0  0  0  0  0  0  0  0  0  0  0
  -27.0790  -28.7840   20.7600 C   0  0  0  0  0  3  0  0  0  0  0  0
  -25.9260  -27.0270   19.5390 C   0  0  0  0  0  3  0  0  0  0  0  0
  -24.7310  -27.7620   19.5890 C   0  0  0  0  0  3  0  0  0  0  0  0
  -23.4870  -29.8860   20.2520 C   0  0  0  0  0  2  0  0  0  0  0  0
  -24.5590  -31.1500   22.1690 N   0  0  0  0  0  0  0  0  0  0  0  0
  -23.4350  -32.2230   23.8160 O   0  0  0  0  0  0  0  0  0  0  0  0
  -22.6410  -29.5300   22.5910 C   0  0  0  0  0  0  0  0  0  0  0  0
  -21.3150  -29.3550   22.4660 N   0  0  0  0  0  0  0  0  0  0  0  0
  -23.3270  -28.8960   23.3980 O   0  0  0  0  0  0  0  0  0  0  0  0
  -20.8240  -29.9200   21.7880 H   0  0  0  0  0  0  0  0  0  0  0  0
  -17.9350  -28.1780   22.9630 C   0  0  0  0  0  0  0  0  0  0  0  0
  -20.4950  -28.4190   23.2350 C   0  0  0  0  0  3  0  0  0  0  0  0
  -20.5880  -26.9880   22.6570 C   0  0  0  0  0  2  0  0  0  0  0  0
  -19.4830  -26.6740   21.6420 C   0  0  0  0  0  2  0  0  0  0  0  0
  -18.1020  -26.8280   22.2860 C   0  0  0  0  0  2  0  0  0  0  0  0
  -19.0580  -28.9340   23.3930 C   0  0  0  0  0  0  0  0  0  0  0  0
  -18.8490  -30.2000   23.9830 C   0  0  0  0  0  3  0  0  0  0  0  0
  -17.5470  -30.7100   24.1460 C   0  0  0  0  0  3  0  0  0  0  0  0
  -16.4380  -29.9510   23.7320 C   0  0  0  0  0  3  0  0  0  0  0  0
  -16.6330  -28.6870   23.1490 C   0  0  0  0  0  3  0  0  0  0  0  0
  -25.8060  -32.5660   23.8880 C   0  0  0  0  0  3  0  0  0  0  0  0
  -25.5130  -33.9710   24.2020 N   0  0  0  0  0  0  0  0  0  0  0  0
  -25.8720  -35.0110   23.4370 C   0  0  0  0  0  0  0  0  0  0  0  0
  -26.5540  -34.8880   22.4160 O   0  0  0  0  0  0  0  0  0  0  0  0
  -24.9150  -34.1440   24.9960 H   0  0  0  0  0  0  0  0  0  0  0  0
  -24.1840  -36.8270   23.0270 C   0  0  0  0  0  1  0  0  0  0  0  0
  -25.3990  -36.4100   23.8720 C   0  0  0  0  0  3  0  0  0  0  0  0
  -27.5320  -37.2590   24.7460 C   0  0  0  0  0  1  0  0  0  0  0  0
  -26.4530  -37.4440   23.7770 N   0  0  0  0  0  0  0  0  0  0  0  0
  -26.0610  -38.3730   23.9130 H   0  0  0  0  0  0  0  0  0  0  0  0
  -26.3150  -31.8020   25.1700 C   0  0  1  0  0  0  0  0  0  0  0  0
  -25.2190  -31.5850   26.2390 C   0  0  0  0  0  1  0  0  0  0  0  0
  -26.8810  -30.4140   24.7860 C   0  0  0  0  0  1  0  0  0  0  0  0
  -27.4720  -32.5910   25.8280 C   0  0  0  0  0  1  0  0  0  0  0  0
  2  1  1  0
  2  3  2  0
  4  6  1  0
  5  4  2  0
  5  8  1  0
  6  9  2  0
  7  9  1  0
  8  3  1  0
  8  7  2  0
  9 18  1  0
 11 16  1  0
 12 13  1  0
 12 11  1  0
 14 13  1  0
 14 23  1  0
 14 15  1  0
 16 10  1  0
 16 15  1  0
 17 10  2  0
 18 10  1  0
 18 19  1  0
 20 21  2  0
 21 22  1  0
 21 40  1  0
 22 25  1  0
 23 20  1  0
 23 24  1  0
 24 22  2  0
 25 26  1  0
 26 27  2  0
 28 31  1  0
 28 27  1  0
 29 28  2  0
 30 29  1  0
 30 25  2  0
 31 32  1  0
 32 33  1  0
 33 34  2  0
 35 34  1  0
 35 39  1  0
 36 35  2  0
 37 32  2  0
 37 36  1  0
 38 37  1  0
 40 41  1  0
 41 44  1  0
 41 43  1  0
 42 40  2  0
 45 46  1  0
 45 20  1  0
 47 45  1  0
 49 48  1  0
 49  1  1  0
 49 50  1  0
 52 51  1  0
 52 50  1  0
 52 53  1  0
 53 55  1  0
 54 65  2  0
 55 60  1  0
 56 64  1  0
 56 66  1  0
 57 63  1  0
 57 59  1  0
 58 64  1  0
 59 58  1  0
 60 59  2  0
 61 62  1  0
 61 55  2  0
 62 57  2  0
 63 56  1  0
 64 54  1  0
 66 68  2  0
 67 66  1  0
 69 67  1  0
 70 79  2  0
 70 75  1  0
 71 67  1  0
 71 75  1  0
 72 71  1  0
 73 74  1  0
 73 72  1  0
 74 70  1  0
 75 76  2  0
 76 77  1  0
 78 77  2  0
 79 78  1  0
 80 54  1  0
 80 81  1  0
 80 90  1  0
 81 84  1  0
 82 86  1  0
 82 81  1  0
 83 82  2  0
 86 85  1  0
 88 86  1  0
 88 89  1  0
 88 87  1  0
 90 93  1  1
 90 91  1  0
 92 90  1  0
M  ISO  4  10 100  18 100  52 101  53 101
M  END
>  <TORSDO>  (84) 
F 21

>  <SCORE>  (84) 
-13.291

>  <name>  (84) 
83

>  <ligand_id>  (84) 
83

>  <original_smiles>  (84) 
[H]C(=Nc1c([H])c([H])c([H])c(N([H])C(=O)N2C([H])([H])C([H])([H])C([H])([H])C([H])(n3nc(-c4c([H])c([H])c(Oc5c([H])c([H])c(F)c([H])c5F)c([H])c4[H])c(C(=O)N([H])[H])c3N([H])[H])C2([H])[H])c1[H])C([H])([H])C([H])(C([H])([H])[H])C([H])([H])C([H])(Oc1c([H])c([H])c2c(c1[H])C([H])([H])N(C(=O)C([H])(N([H])C(=O)C([H])(N([H])C([H])([H])[H])C([H])([H])[H])C(C([H])([H])[H])(C([H])([H])[H])C([H])([H])[H])C([H])(C(=O)N([H])C1([H])c3c([H])c([H])c([H])c([H])c3C([H])([H])C([H])([H])C1([H])[H])C2([H])[H])C([H])([H])[H]

>  <smiles>  (84) 
[H]C(=Nc1c([H])c([H])c([H])c(N([H])C(=O)N2C([H])([H])C([H])([H])C([H])([H])C([H])(n3nc(-c4c([H])c([H])c(Oc5c([H])c([H])c(F)c([H])c5F)c([H])c4[H])c(C(=O)N([H])[H])c3N([H])[H])C2([H])[H])c1[H])C([H])([H])C([H])(C([H])([H])[H])C([H])([H])C([H])(Oc1c([H])c([H])c2c(c1[H])C([H])([H])N(C(=O)C([H])(N([H])C(=O)C([H])(N([H])C([H])([H])[H])C([H])([H])[H])C(C([H])([H])[H])(C([H])([H])[H])C([H])([H])[H])C([H])(C(=O)N([H])C1([H])c3c([H])c([H])c([H])c([H])c3C([H])([H])C([H])([H])C1([H])[H])C2([H])[H])C([H])([H])[H]

$$$$
84:0:0
     RDKit          3D

 92101  0  0  1  0  0  0  0  0999 V2000
  -30.6940  -18.1140   21.3380 C   0  0  0  0  0  3  0  0  0  0  0  0
  -29.8540  -17.3490   20.5420 C   0  0  0  0  0  0  0  0  0  0  0  0
  -29.5140  -19.9810   20.5210 C   0  0  0  0  0  0  0  0  0  0  0  0
  -28.7720  -23.9360   20.5020 C   0  0  0  0  0  0  0  0  0  0  0  0
  -28.4580  -25.2160   20.9840 C   0  0  0  0  0  0  0  0  0  0  0  0
  -29.0040  -23.5430   19.0700 C   0  0  0  0  0  2  0  0  0  0  0  0
  -28.7970  -21.9990   19.0210 C   0  0  0  0  0  2  0  0  0  0  0  0
  -28.9730  -22.5540   21.2530 C   0  0  0  0  0  3  0  0  0  0  0  0
  -28.2410  -25.4790   22.4640 C   0  0  0  0  0  1  0  0  0  0  0  0
  -27.8520  -22.2440   22.2580 C   0  0  0  0  0  1  0  0  0  0  0  0
  -30.4720  -19.5310   21.3490 N   0  0  0  0  0  0  0  0  0  0  0  0
  -29.1430  -21.3830   20.3120 N   0  0  0  0  0  0  0  0  0  0  0  0
  -28.7960  -18.5390   19.6950 S   0  0  0  0  0  0  0  0  0  0  0  0
  -30.5530  -14.8560   20.3460 C   0  0  0  0  0  0  0  0  0  0  0  0
  -30.4020  -12.5740   19.3100 C   0  0  0  0  0  2  0  0  0  0  0  0
  -29.4540  -12.6340   18.0900 C   0  0  0  0  0  2  0  0  0  0  0  0
  -27.9840  -12.4580   18.5220 C   0  0  0  0  0  2  0  0  0  0  0  0
  -27.6080  -13.3430   19.7400 C   0  0  0  0  0  3  0  0  0  0  0  0
  -28.6680  -13.2370   20.8600 C   0  0  0  0  0  2  0  0  0  0  0  0
  -29.9590  -13.6130   20.2670 N   0  0  0  0  0  0  0  0  0  0  0  0
  -31.7510  -14.9870   20.0780 O   0  0  0  0  0  0  0  0  0  0  0  0
  -29.6940  -15.9460   20.4590 N   0  0  0  0  0  0  0  0  0  0  0  0
  -28.7300  -15.6530   20.4420 H   0  0  0  0  0  0  0  0  0  0  0  0
  -25.2230  -13.9470   20.4670 C   0  0  0  0  0  0  0  0  0  0  0  0
  -24.1530  -13.1780   20.8360 C   0  0  0  0  0  0  0  0  0  0  0  0
  -24.6110  -11.8250   20.8060 C   0  0  0  0  0  0  0  0  0  0  0  0
  -26.2630  -13.0620   20.2300 N   0  0  0  0  0  0  0  0  0  0  0  0
  -25.9010  -11.7810   20.4990 N   0  0  0  0  0  0  0  0  0  0  0  0
  -23.8790  -10.5660   20.9960 C   0  0  0  0  0  0  0  0  0  0  0  0
  -24.3070   -9.5960   21.9270 C   0  0  0  0  0  3  0  0  0  0  0  0
  -23.5760   -8.4020   22.1040 C   0  0  0  0  0  3  0  0  0  0  0  0
  -22.4020   -8.1700   21.3480 C   0  0  0  0  0  0  0  0  0  0  0  0
  -21.9940   -9.1290   20.4040 C   0  0  0  0  0  3  0  0  0  0  0  0
  -22.7260  -10.3150   20.2260 C   0  0  0  0  0  3  0  0  0  0  0  0
  -21.6420   -7.0280   21.4350 O   0  0  0  0  0  0  0  0  0  0  0  0
  -21.5880   -6.2850   22.5870 C   0  0  0  0  0  0  0  0  0  0  0  0
  -21.1540   -6.8390   23.8110 C   0  0  0  0  0  3  0  0  0  0  0  0
  -21.0470   -6.0220   24.9540 C   0  0  0  0  0  3  0  0  0  0  0  0
  -21.3660   -4.6530   24.8740 C   0  0  0  0  0  0  0  0  0  0  0  0
  -21.7930   -4.0990   23.6540 C   0  0  0  0  0  3  0  0  0  0  0  0
  -21.9020   -4.9130   22.5140 C   0  0  0  0  0  0  0  0  0  0  0  0
  -22.2930   -4.3700   21.3360 F   0  0  0  0  0  0  0  0  0  0  0  0
  -21.2550   -3.8660   25.9700 F   0  0  0  0  0  0  0  0  0  0  0  0
  -22.7570  -13.6620   21.1030 C   0  0  0  0  0  0  0  0  0  0  0  0
  -22.0210  -12.9670   21.9610 N   0  0  0  0  0  0  0  0  0  0  0  0
  -22.3270  -14.6910   20.5820 O   0  0  0  0  0  0  0  0  0  0  0  0
  -22.3800  -12.1340   22.4040 H   0  0  0  0  0  0  0  0  0  0  0  0
  -21.0840  -13.2720   22.1820 H   0  0  0  0  0  0  0  0  0  0  0  0
  -25.3900  -15.3180   20.2860 N   0  0  0  0  0  0  0  0  0  0  0  0
  -24.6170  -15.9660   20.3940 H   0  0  0  0  0  0  0  0  0  0  0  0
  -26.2180  -15.7560   19.9070 H   0  0  0  0  0  0  0  0  0  0  0  0
  -28.4430  -26.4500   20.2560 O   0  0  0  0  0  0  0  0  0  0  0  0
  -24.6180  -31.9100   23.2590 C   0  0  0  0  0  0  0  0  0  0  0  0
  -27.3320  -27.3290   20.2760 C   0  0  0  0  0  0  0  0  0  0  0  0
  -23.4590  -30.4870   21.6090 C   0  0  0  0  0  3  0  0  0  0  0  0
  -24.9530  -28.9410   20.2160 C   0  0  0  0  0  0  0  0  0  0  0  0
  -25.9990  -30.8300   21.4620 C   0  0  0  0  0  2  0  0  0  0  0  0
  -26.1100  -29.4430   20.8270 C   0  0  0  0  0  0  0  0  0  0  0  0
  -27.3050  -28.6520   20.8410 C   0  0  0  0  0  3  0  0  0  0  0  0
  -26.1520  -26.8900   19.6470 C   0  0  0  0  0  3  0  0  0  0  0  0
  -24.9800  -27.6720   19.6140 C   0  0  0  0  0  3  0  0  0  0  0  0
  -23.7040  -29.8050   20.2380 C   0  0  0  0  0  2  0  0  0  0  0  0
  -24.7100  -31.0960   22.1670 N   0  0  0  0  0  0  0  0  0  0  0  0
  -23.5230  -32.1750   23.7760 O   0  0  0  0  0  0  0  0  0  0  0  0
  -22.7930  -29.4710   22.5670 C   0  0  0  0  0  0  0  0  0  0  0  0
  -21.4690  -29.2820   22.4290 N   0  0  0  0  0  0  0  0  0  0  0  0
  -23.4690  -28.8520   23.3930 O   0  0  0  0  0  0  0  0  0  0  0  0
  -20.9820  -29.8360   21.7390 H   0  0  0  0  0  0  0  0  0  0  0  0
  -18.0910  -28.0780   22.9270 C   0  0  0  0  0  0  0  0  0  0  0  0
  -20.6510  -28.3390   23.1940 C   0  0  0  0  0  3  0  0  0  0  0  0
  -20.7520  -26.9110   22.6080 C   0  0  0  0  0  2  0  0  0  0  0  0
  -19.6490  -26.5970   21.5910 C   0  0  0  0  0  2  0  0  0  0  0  0
  -18.2680  -26.7350   22.2390 C   0  0  0  0  0  2  0  0  0  0  0  0
  -19.2100  -28.8380   23.3600 C   0  0  0  0  0  0  0  0  0  0  0  0
  -18.9890  -30.0950   23.9650 C   0  0  0  0  0  3  0  0  0  0  0  0
  -17.6840  -30.5910   24.1380 C   0  0  0  0  0  3  0  0  0  0  0  0
  -16.5800  -29.8280   23.7190 C   0  0  0  0  0  3  0  0  0  0  0  0
  -16.7850  -28.5740   23.1190 C   0  0  0  0  0  3  0  0  0  0  0  0
  -25.8830  -32.5630   23.8990 C   0  0  0  0  0  3  0  0  0  0  0  0
  -25.5510  -33.9600   24.2150 N   0  0  0  0  0  0  0  0  0  0  0  0
  -25.8780  -35.0120   23.4510 C   0  0  0  0  0  0  0  0  0  0  0  0
  -26.5570  -34.9070   22.4260 O   0  0  0  0  0  0  0  0  0  0  0  0
  -24.9460  -34.1150   25.0080 H   0  0  0  0  0  0  0  0  0  0  0  0
  -24.1280  -36.7790   23.0710 C   0  0  0  0  0  1  0  0  0  0  0  0
  -25.3700  -36.3990   23.8920 C   0  0  0  0  0  3  0  0  0  0  0  0
  -27.4880  -37.3210   24.7290 C   0  0  0  0  0  1  0  0  0  0  0  0
  -26.3900  -37.4650   23.7740 N   0  0  0  0  0  0  0  0  0  0  0  0
  -25.9720  -38.3810   23.9050 H   0  0  0  0  0  0  0  0  0  0  0  0
  -26.3830  -31.8100   25.1940 C   0  0  1  0  0  0  0  0  0  0  0  0
  -25.2740  -31.5700   26.2460 C   0  0  0  0  0  1  0  0  0  0  0  0
  -26.9900  -30.4350   24.8280 C   0  0  0  0  0  1  0  0  0  0  0  0
  -27.5140  -32.6240   25.8690 C   0  0  0  0  0  1  0  0  0  0  0  0
  1 11  1  0
  2  1  2  0
  3 11  2  0
  4  5  2  0
  4  8  1  0
  5  9  1  0
  6  4  1  0
  7  6  1  0
  7 12  1  0
  8 10  1  0
 12  3  1  0
 12  8  1  0
 13  3  1  0
 13  2  1  0
 14 22  1  0
 15 20  1  0
 16 17  1  0
 16 15  1  0
 18 17  1  0
 18 27  1  0
 18 19  1  0
 20 14  1  0
 20 19  1  0
 21 14  2  0
 22  2  1  0
 23 22  1  0
 24 25  2  0
 25 44  1  0
 26 25  1  0
 26 29  1  0
 27 24  1  0
 27 28  1  0
 28 26  2  0
 29 30  1  0
 30 31  2  0
 32 35  1  0
 32 31  1  0
 33 32  2  0
 34 33  1  0
 34 29  2  0
 35 36  1  0
 36 37  1  0
 37 38  2  0
 39 38  1  0
 39 43  1  0
 40 39  2  0
 41 36  2  0
 41 40  1  0
 42 41  1  0
 44 45  1  0
 45 48  1  0
 45 47  1  0
 46 44  2  0
 49 50  1  0
 49 24  1  0
 51 49  1  0
 52 54  1  0
 52  5  1  0
 53 64  2  0
 54 59  1  0
 55 63  1  0
 55 65  1  0
 56 62  1  0
 56 58  1  0
 57 63  1  0
 58 59  2  0
 58 57  1  0
 60 54  2  0
 61 60  1  0
 61 56  2  0
 62 55  1  0
 63 53  1  0
 65 67  2  0
 66 65  1  0
 68 66  1  0
 69 78  2  0
 69 74  1  0
 70 66  1  0
 70 74  1  0
 71 70  1  0
 72 73  1  0
 72 71  1  0
 73 69  1  0
 74 75  2  0
 75 76  1  0
 77 76  2  0
 78 77  1  0
 79 53  1  0
 79 80  1  0
 79 89  1  0
 80 83  1  0
 81 85  1  0
 81 80  1  0
 82 81  2  0
 85 84  1  0
 87 85  1  0
 87 88  1  0
 87 86  1  0
 89 92  1  1
 89 90  1  0
 91 89  1  0
M  ISO  4   5 101  14 100  22 100  52 101
M  END
>  <TORSDO>  (85) 
F 16

>  <SCORE>  (85) 
-15.399

>  <name>  (85) 
84

>  <ligand_id>  (85) 
84

>  <original_smiles>  (85) 
[H]c1nc(N2C([H])([H])C([H])([H])C(=C(Oc3c([H])c([H])c4c(c3[H])C([H])([H])N(C(=O)C([H])(N([H])C(=O)C([H])(N([H])C([H])([H])[H])C([H])([H])[H])C(C([H])([H])[H])(C([H])([H])[H])C([H])([H])[H])C([H])(C(=O)N([H])C3([H])c5c([H])c([H])c([H])c([H])c5C([H])([H])C([H])([H])C3([H])[H])C4([H])[H])C([H])([H])[H])C2([H])C([H])([H])[H])sc1N([H])C(=O)N1C([H])([H])C([H])([H])C([H])([H])C([H])(n2nc(-c3c([H])c([H])c(Oc4c([H])c([H])c(F)c([H])c4F)c([H])c3[H])c(C(=O)N([H])[H])c2N([H])[H])C1([H])[H]

>  <smiles>  (85) 
[H]c1nc(N2C([H])([H])C([H])([H])C(=C(Oc3c([H])c([H])c4c(c3[H])C([H])([H])N(C(=O)C([H])(N([H])C(=O)C([H])(N([H])C([H])([H])[H])C([H])([H])[H])C(C([H])([H])[H])(C([H])([H])[H])C([H])([H])[H])C([H])(C(=O)N([H])C3([H])c5c([H])c([H])c([H])c([H])c5C([H])([H])C([H])([H])C3([H])[H])C4([H])[H])C([H])([H])[H])C2([H])C([H])([H])[H])sc1N([H])C(=O)N1C([H])([H])C([H])([H])C([H])([H])C([H])(n2nc(-c3c([H])c([H])c(Oc4c([H])c([H])c(F)c([H])c4F)c([H])c3[H])c(C(=O)N([H])[H])c2N([H])[H])C1([H])[H]

$$$$
85:0:0
     RDKit          3D

 98106  0  0  1  0  0  0  0  0999 V2000
  -27.0910  -20.2700   20.3200 C   0  0  0  0  0  1  0  0  0  0  0  0
  -27.2980  -21.2170   18.0570 C   0  0  0  0  0  1  0  0  0  0  0  0
  -28.0350  -21.1190   19.4160 C   0  0  1  0  0  0  0  0  0  0  0  0
  -26.9330  -23.0650   20.7700 C   0  0  0  0  0  1  0  0  0  0  0  0
  -29.3030  -22.6370   21.1740 C   0  0  0  0  0  1  0  0  0  0  0  0
  -28.2450  -22.6170   20.0390 C   0  0  1  0  0  0  0  0  0  0  0  0
  -28.0920  -24.9750   18.9840 C   0  0  0  0  0  3  0  0  0  0  0  0
  -28.7000  -23.7500   19.0470 C   0  0  0  0  0  0  0  0  0  0  0  0
  -29.9260  -23.4290   18.1960 C   0  0  0  0  0  1  0  0  0  0  0  0
  -28.4740  -26.2420   18.2040 C   0  0  0  0  0  2  0  0  0  0  0  0
  -27.4370  -26.7130   17.3380 O   0  0  0  0  0  0  0  0  0  0  0  0
  -24.4060  -30.7510   22.4600 C   0  0  0  0  0  0  0  0  0  0  0  0
  -26.3380  -27.3300   17.8950 C   0  0  0  0  0  0  0  0  0  0  0  0
  -22.8800  -29.7160   20.8130 C   0  0  0  0  0  3  0  0  0  0  0  0
  -23.9970  -28.6430   18.7880 C   0  0  0  0  0  0  0  0  0  0  0  0
  -25.2980  -30.2570   20.1810 C   0  0  0  0  0  2  0  0  0  0  0  0
  -25.2530  -29.0760   19.2330 C   0  0  0  0  0  0  0  0  0  0  0  0
  -26.4300  -28.4170   18.7960 C   0  0  0  0  0  3  0  0  0  0  0  0
  -25.0670  -26.9150   17.4530 C   0  0  0  0  0  3  0  0  0  0  0  0
  -23.8980  -27.5610   17.8960 C   0  0  0  0  0  3  0  0  0  0  0  0
  -22.7890  -29.4000   19.2970 C   0  0  0  0  0  2  0  0  0  0  0  0
  -24.2250  -30.2450   21.2070 N   0  0  0  0  0  0  0  0  0  0  0  0
  -23.4660  -30.8180   23.2650 O   0  0  0  0  0  0  0  0  0  0  0  0
  -22.4540  -28.4590   21.6070 C   0  0  0  0  0  0  0  0  0  0  0  0
  -21.1400  -28.1770   21.6280 N   0  0  0  0  0  0  0  0  0  0  0  0
  -23.2960  -27.7480   22.1600 O   0  0  0  0  0  0  0  0  0  0  0  0
  -20.5100  -28.8110   21.1560 H   0  0  0  0  0  0  0  0  0  0  0  0
  -18.0060  -26.4610   22.1350 C   0  0  0  0  0  0  0  0  0  0  0  0
  -20.5250  -27.0240   22.2820 C   0  0  0  0  0  3  0  0  0  0  0  0
  -20.7590  -25.7360   21.4610 C   0  0  0  0  0  2  0  0  0  0  0  0
  -19.6210  -25.4290   20.4820 C   0  0  0  0  0  2  0  0  0  0  0  0
  -18.2930  -25.2750   21.2300 C   0  0  0  0  0  2  0  0  0  0  0  0
  -19.0530  -27.2880   22.6170 C   0  0  0  0  0  0  0  0  0  0  0  0
  -18.7300  -28.3960   23.4300 C   0  0  0  0  0  3  0  0  0  0  0  0
  -17.3930  -28.6780   23.7660 C   0  0  0  0  0  3  0  0  0  0  0  0
  -16.3620  -27.8430   23.3030 C   0  0  0  0  0  3  0  0  0  0  0  0
  -16.6680  -26.7380   22.4890 C   0  0  0  0  0  3  0  0  0  0  0  0
  -25.7930  -31.2860   22.9350 C   0  0  0  0  0  3  0  0  0  0  0  0
  -25.5530  -32.5050   23.7190 N   0  0  0  0  0  0  0  0  0  0  0  0
  -25.7480  -33.7500   23.2650 C   0  0  0  0  0  0  0  0  0  0  0  0
  -26.2190  -33.9920   22.1520 O   0  0  0  0  0  0  0  0  0  0  0  0
  -25.1180  -32.3890   24.6230 H   0  0  0  0  0  0  0  0  0  0  0  0
  -24.0110  -35.5060   23.7420 C   0  0  0  0  0  1  0  0  0  0  0  0
  -25.3530  -34.9120   24.1960 C   0  0  0  0  0  3  0  0  0  0  0  0
  -27.5950  -35.5730   24.9500 C   0  0  0  0  0  1  0  0  0  0  0  0
  -26.3710  -35.9810   24.2640 N   0  0  0  0  0  0  0  0  0  0  0  0
  -26.0020  -36.7980   24.7400 H   0  0  0  0  0  0  0  0  0  0  0  0
  -26.6180  -30.2330   23.7700 C   0  0  1  0  0  0  0  0  0  0  0  0
  -25.8240  -29.6220   24.9470 C   0  0  0  0  0  1  0  0  0  0  0  0
  -27.0960  -29.0720   22.8660 C   0  0  0  0  0  1  0  0  0  0  0  0
  -27.8860  -30.9000   24.3510 C   0  0  0  0  0  1  0  0  0  0  0  0
  -29.3440  -20.2470   19.1750 C   0  0  0  0  0  2  0  0  0  0  0  0
  -29.2840  -18.8200   19.5330 O   0  0  0  0  0  0  0  0  0  0  0  0
  -30.3370  -19.2200   21.7220 C   0  0  0  0  0  3  0  0  0  0  0  0
  -30.8700  -18.7650   22.9410 C   0  0  0  0  0  3  0  0  0  0  0  0
  -30.3480  -16.4940   22.3080 C   0  0  0  0  0  3  0  0  0  0  0  0
  -29.8340  -16.9230   21.0530 C   0  0  0  0  0  0  0  0  0  0  0  0
  -29.8150  -18.3330   20.7370 C   0  0  0  0  0  0  0  0  0  0  0  0
  -30.8690  -17.4020   23.2390 C   0  0  0  0  0  0  0  0  0  0  0  0
  -31.3420  -16.9680   24.4320 F   0  0  0  0  0  0  0  0  0  0  0  0
  -29.9960  -14.8980   19.6400 C   0  0  0  0  0  0  0  0  0  0  0  0
  -29.9020  -12.5680   18.7840 C   0  0  0  0  0  2  0  0  0  0  0  0
  -28.7990  -12.4230   17.7160 C   0  0  0  0  0  2  0  0  0  0  0  0
  -27.4340  -12.1270   18.3690 C   0  0  0  0  0  2  0  0  0  0  0  0
  -27.1150  -13.0940   19.5400 C   0  0  0  0  0  3  0  0  0  0  0  0
  -28.3170  -13.2130   20.4980 C   0  0  0  0  0  2  0  0  0  0  0  0
  -29.4800  -13.6370   19.7050 N   0  0  0  0  0  0  0  0  0  0  0  0
  -31.0100  -15.1590   18.9870 O   0  0  0  0  0  0  0  0  0  0  0  0
  -29.2760  -15.8910   20.2260 N   0  0  0  0  0  0  0  0  0  0  0  0
  -28.3140  -15.6710   20.4290 H   0  0  0  0  0  0  0  0  0  0  0  0
  -24.9050  -13.5050   20.7830 C   0  0  0  0  0  0  0  0  0  0  0  0
  -23.9500  -12.6490   21.2580 C   0  0  0  0  0  0  0  0  0  0  0  0
  -24.4180  -11.3310   20.9590 C   0  0  0  0  0  0  0  0  0  0  0  0
  -25.8970  -12.7030   20.2390 N   0  0  0  0  0  0  0  0  0  0  0  0
  -25.6210  -11.3840   20.4020 N   0  0  0  0  0  0  0  0  0  0  0  0
  -23.7680  -10.0260   21.1270 C   0  0  0  0  0  0  0  0  0  0  0  0
  -24.2410   -9.0820   22.0660 C   0  0  0  0  0  3  0  0  0  0  0  0
  -23.5910   -7.8390   22.2230 C   0  0  0  0  0  3  0  0  0  0  0  0
  -22.4510   -7.5300   21.4440 C   0  0  0  0  0  0  0  0  0  0  0  0
  -21.9980   -8.4640   20.4940 C   0  0  0  0  0  3  0  0  0  0  0  0
  -22.6500   -9.6980   20.3350 C   0  0  0  0  0  3  0  0  0  0  0  0
  -21.7700   -6.3390   21.5090 O   0  0  0  0  0  0  0  0  0  0  0  0
  -21.5960   -5.6750   22.6970 C   0  0  0  0  0  0  0  0  0  0  0  0
  -20.8870   -6.2470   23.7750 C   0  0  0  0  0  3  0  0  0  0  0  0
  -20.6730   -5.5020   24.9540 C   0  0  0  0  0  3  0  0  0  0  0  0
  -21.1570   -4.1830   25.0490 C   0  0  0  0  0  0  0  0  0  0  0  0
  -21.8580   -3.6090   23.9730 C   0  0  0  0  0  3  0  0  0  0  0  0
  -22.0720   -4.3530   22.7990 C   0  0  0  0  0  0  0  0  0  0  0  0
  -22.7310   -3.7890   21.7580 F   0  0  0  0  0  0  0  0  0  0  0  0
  -20.9450   -3.4630   26.1750 F   0  0  0  0  0  0  0  0  0  0  0  0
  -22.6270  -13.0260   21.8600 C   0  0  0  0  0  0  0  0  0  0  0  0
  -22.1080  -12.2010   22.7610 N   0  0  0  0  0  0  0  0  0  0  0  0
  -22.0660  -14.0810   21.5630 O   0  0  0  0  0  0  0  0  0  0  0  0
  -22.5770  -11.3470   23.0210 H   0  0  0  0  0  0  0  0  0  0  0  0
  -21.2290  -12.4260   23.2050 H   0  0  0  0  0  0  0  0  0  0  0  0
  -25.0080  -14.8920   20.7510 N   0  0  0  0  0  0  0  0  0  0  0  0
  -24.2650  -15.4990   21.0840 H   0  0  0  0  0  0  0  0  0  0  0  0
  -25.7650  -15.3960   20.3060 H   0  0  0  0  0  0  0  0  0  0  0  0
  3  2  1  6
  3  6  1  0
  3  1  1  0
  6  4  1  1
  6  5  1  0
  7  8  2  0
  8  6  1  0
  9  8  1  0
 10  7  1  0
 11 13  1  0
 11 10  1  0
 12 23  2  0
 13 18  1  0
 14 22  1  0
 14 24  1  0
 15 17  1  0
 15 21  1  0
 16 22  1  0
 17 16  1  0
 18 17  2  0
 19 13  2  0
 19 20  1  0
 20 15  2  0
 21 14  1  0
 22 12  1  0
 24 25  1  0
 24 26  2  0
 27 25  1  0
 28 37  2  0
 28 33  1  0
 29 25  1  0
 29 33  1  0
 30 29  1  0
 31 32  1  0
 31 30  1  0
 32 28  1  0
 33 34  2  0
 34 35  1  0
 36 35  2  0
 37 36  1  0
 38 12  1  0
 38 39  1  0
 38 48  1  0
 39 42  1  0
 40 39  1  0
 40 44  1  0
 41 40  2  0
 44 43  1  0
 44 46  1  0
 46 47  1  0
 46 45  1  0
 48 51  1  1
 48 49  1  0
 50 48  1  0
 52  3  1  0
 52 53  1  0
 53 58  1  0
 54 55  1  0
 55 59  2  0
 56 59  1  0
 57 56  2  0
 58 57  1  0
 58 54  2  0
 59 60  1  0
 61 67  1  0
 61 69  1  0
 62 67  1  0
 63 64  1  0
 63 62  1  0
 65 64  1  0
 65 74  1  0
 65 66  1  0
 67 66  1  0
 68 61  2  0
 69 70  1  0
 69 57  1  0
 71 72  2  0
 72 91  1  0
 73 76  1  0
 73 72  1  0
 74 75  1  0
 74 71  1  0
 75 73  2  0
 76 77  1  0
 77 78  2  0
 79 82  1  0
 79 78  1  0
 80 79  2  0
 81 80  1  0
 81 76  2  0
 82 83  1  0
 83 88  2  0
 83 84  1  0
 84 85  2  0
 85 86  1  0
 86 90  1  0
 87 86  2  0
 88 87  1  0
 89 88  1  0
 91 92  1  0
 92 94  1  0
 92 95  1  0
 93 91  2  0
 96 71  1  0
 96 97  1  0
 98 96  1  0
M  ISO  4  10 101  11 101  61 100  69 100
M  END
>  <TORSDO>  (86) 
F 22

>  <SCORE>  (86) 
-6.789

>  <name>  (86) 
85

>  <ligand_id>  (86) 
85

>  <original_smiles>  (86) 
[H]C(=C(C([H])([H])[H])C(C([H])([H])[H])(C([H])([H])[H])C(C([H])([H])[H])(C([H])([H])[H])C([H])([H])Oc1c([H])c([H])c(F)c([H])c1N([H])C(=O)N1C([H])([H])C([H])([H])C([H])([H])C([H])(n2nc(-c3c([H])c([H])c(Oc4c([H])c([H])c(F)c([H])c4F)c([H])c3[H])c(C(=O)N([H])[H])c2N([H])[H])C1([H])[H])C([H])([H])Oc1c([H])c([H])c2c(c1[H])C([H])([H])N(C(=O)C([H])(N([H])C(=O)C([H])(N([H])C([H])([H])[H])C([H])([H])[H])C(C([H])([H])[H])(C([H])([H])[H])C([H])([H])[H])C([H])(C(=O)N([H])C1([H])c3c([H])c([H])c([H])c([H])c3C([H])([H])C([H])([H])C1([H])[H])C2([H])[H]

>  <smiles>  (86) 
[H]C(=C(C([H])([H])[H])C(C([H])([H])[H])(C([H])([H])[H])C(C([H])([H])[H])(C([H])([H])[H])C([H])([H])Oc1c([H])c([H])c(F)c([H])c1N([H])C(=O)N1C([H])([H])C([H])([H])C([H])([H])C([H])(n2nc(-c3c([H])c([H])c(Oc4c([H])c([H])c(F)c([H])c4F)c([H])c3[H])c(C(=O)N([H])[H])c2N([H])[H])C1([H])[H])C([H])([H])Oc1c([H])c([H])c2c(c1[H])C([H])([H])N(C(=O)C([H])(N([H])C(=O)C([H])(N([H])C([H])([H])[H])C([H])([H])[H])C(C([H])([H])[H])(C([H])([H])[H])C([H])([H])[H])C([H])(C(=O)N([H])C1([H])c3c([H])c([H])c([H])c([H])c3C([H])([H])C([H])([H])C1([H])[H])C2([H])[H]

$$$$
86:0:0
     RDKit          3D

 99108  0  0  1  0  0  0  0  0999 V2000
  -27.2630  -20.3560   20.7730 C   0  0  0  0  0  1  0  0  0  0  0  0
  -28.8660  -21.9070   21.8620 C   0  0  0  0  0  1  0  0  0  0  0  0
  -28.3690  -21.3930   20.4880 C   0  0  2  0  0  0  0  0  0  0  0  0
  -27.7510  -22.4820   19.6690 N   0  0  0  0  0  4  0  0  0  0  0  0
  -27.7140  -22.1590   18.7150 H   0  0  0  0  0  0  0  0  0  0  0  0
  -26.7960  -22.6160   19.9570 H   0  0  0  0  0  0  0  0  0  0  0  0
  -28.3850  -23.8270   19.6490 C   0  0  0  0  0  2  0  0  0  0  0  0
  -26.6380  -24.5880   21.3400 C   0  0  0  0  0  2  0  0  0  0  0  0
  -27.7360  -24.8390   20.6010 C   0  0  0  0  0  0  0  0  0  0  0  0
  -28.4280  -26.1990   20.6690 C   0  0  0  0  0  2  0  0  0  0  0  0
  -28.1140  -27.0210   19.5440 O   0  0  0  0  0  0  0  0  0  0  0  0
  -24.4550  -31.9260   23.1840 C   0  0  0  0  0  0  0  0  0  0  0  0
  -26.9550  -27.7450   19.6810 C   0  0  0  0  0  0  0  0  0  0  0  0
  -23.1720  -30.6400   21.5060 C   0  0  0  0  0  3  0  0  0  0  0  0
  -24.5570  -29.2130   19.9100 C   0  0  0  0  0  0  0  0  0  0  0  0
  -25.6820  -31.0280   21.2150 C   0  0  0  0  0  2  0  0  0  0  0  0
  -25.7410  -29.7070   20.4780 C   0  0  0  0  0  0  0  0  0  0  0  0
  -26.9440  -28.9790   20.3650 C   0  0  0  0  0  3  0  0  0  0  0  0
  -25.7660  -27.2610   19.1050 C   0  0  0  0  0  3  0  0  0  0  0  0
  -24.5640  -27.9860   19.2230 C   0  0  0  0  0  3  0  0  0  0  0  0
  -23.3150  -30.0580   20.0750 C   0  0  0  0  0  2  0  0  0  0  0  0
  -24.4570  -31.2080   22.0270 N   0  0  0  0  0  0  0  0  0  0  0  0
  -23.4010  -32.1540   23.7960 O   0  0  0  0  0  0  0  0  0  0  0  0
  -22.5700  -29.5490   22.4220 C   0  0  0  0  0  0  0  0  0  0  0  0
  -21.2520  -29.3200   22.2950 N   0  0  0  0  0  0  0  0  0  0  0  0
  -23.2840  -28.9120   23.2010 O   0  0  0  0  0  0  0  0  0  0  0  0
  -20.7330  -29.8940   21.6460 H   0  0  0  0  0  0  0  0  0  0  0  0
  -17.9390  -27.9430   22.7100 C   0  0  0  0  0  0  0  0  0  0  0  0
  -20.4780  -28.3170   23.0240 C   0  0  0  0  0  3  0  0  0  0  0  0
  -20.6590  -26.9130   22.4040 C   0  0  0  0  0  2  0  0  0  0  0  0
  -19.5850  -26.5700   21.3650 C   0  0  0  0  0  2  0  0  0  0  0  0
  -18.1900  -26.6270   21.9940 C   0  0  0  0  0  2  0  0  0  0  0  0
  -19.0140  -28.7450   23.1780 C   0  0  0  0  0  0  0  0  0  0  0  0
  -18.7260  -29.9790   23.8010 C   0  0  0  0  0  3  0  0  0  0  0  0
  -17.3960  -30.4110   23.9640 C   0  0  0  0  0  3  0  0  0  0  0  0
  -16.3360  -29.6020   23.5160 C   0  0  0  0  0  3  0  0  0  0  0  0
  -16.6090  -28.3710   22.8920 C   0  0  0  0  0  3  0  0  0  0  0  0
  -25.7690  -32.5170   23.7840 C   0  0  0  0  0  3  0  0  0  0  0  0
  -25.5030  -33.9150   24.1460 N   0  0  0  0  0  0  0  0  0  0  0  0
  -25.8640  -34.9740   23.4090 C   0  0  0  0  0  0  0  0  0  0  0  0
  -26.5270  -34.8750   22.3740 O   0  0  0  0  0  0  0  0  0  0  0  0
  -24.9240  -34.0700   24.9580 H   0  0  0  0  0  0  0  0  0  0  0  0
  -24.2080  -36.8360   23.0710 C   0  0  0  0  0  1  0  0  0  0  0  0
  -25.4160  -36.3650   23.8990 C   0  0  0  0  0  3  0  0  0  0  0  0
  -27.5570  -37.1500   24.8100 C   0  0  0  0  0  1  0  0  0  0  0  0
  -26.4890  -37.3810   23.8410 N   0  0  0  0  0  0  0  0  0  0  0  0
  -26.1100  -38.3100   24.0070 H   0  0  0  0  0  0  0  0  0  0  0  0
  -26.3060  -31.7060   25.0290 C   0  0  1  0  0  0  0  0  0  0  0  0
  -25.2380  -31.4680   26.1200 C   0  0  0  0  0  1  0  0  0  0  0  0
  -26.8520  -30.3270   24.5910 C   0  0  0  0  0  1  0  0  0  0  0  0
  -27.4910  -32.4630   25.6740 C   0  0  0  0  0  1  0  0  0  0  0  0
  -29.5290  -20.7320   19.6700 C   0  0  0  0  0  2  0  0  0  0  0  0
  -32.0990  -18.8310   21.7760 C   0  0  0  0  0  3  0  0  0  0  0  0
  -31.3810  -19.8440   21.1220 C   0  0  0  0  0  3  0  0  0  0  0  0
  -31.6920  -17.4970   21.6420 C   0  0  0  0  0  3  0  0  0  0  0  0
  -29.8700  -18.1800   20.1280 C   0  0  0  0  0  0  0  0  0  0  0  0
  -30.2560  -19.5440   20.3220 C   0  0  0  0  0  0  0  0  0  0  0  0
  -30.5900  -17.1650   20.8270 C   0  0  0  0  0  0  0  0  0  0  0  0
  -30.9210  -14.7980   20.2730 C   0  0  0  0  0  0  0  0  0  0  0  0
  -30.6450  -12.5950   19.2110 C   0  0  0  0  0  2  0  0  0  0  0  0
  -29.6820  -12.7280   18.0130 C   0  0  0  0  0  2  0  0  0  0  0  0
  -28.2130  -12.6030   18.4660 C   0  0  0  0  0  2  0  0  0  0  0  0
  -27.8820  -13.4870   19.6990 C   0  0  0  0  0  3  0  0  0  0  0  0
  -28.9520  -13.3150   20.7970 C   0  0  0  0  0  2  0  0  0  0  0  0
  -30.2650  -13.6120   20.1990 N   0  0  0  0  0  0  0  0  0  0  0  0
  -32.0370  -14.9860   19.7780 O   0  0  0  0  0  0  0  0  0  0  0  0
  -30.1930  -15.8070   20.7790 N   0  0  0  0  0  0  0  0  0  0  0  0
  -29.2420  -15.5900   21.0350 H   0  0  0  0  0  0  0  0  0  0  0  0
  -25.5080  -14.1190   20.4710 C   0  0  0  0  0  0  0  0  0  0  0  0
  -24.4380  -13.3540   20.8500 C   0  0  0  0  0  0  0  0  0  0  0  0
  -24.8800  -11.9980   20.7800 C   0  0  0  0  0  0  0  0  0  0  0  0
  -26.5360  -13.2270   20.2010 N   0  0  0  0  0  0  0  0  0  0  0  0
  -26.1620  -11.9460   20.4420 N   0  0  0  0  0  0  0  0  0  0  0  0
  -24.1430  -10.7410   20.9610 C   0  0  0  0  0  0  0  0  0  0  0  0
  -24.5510   -9.7760   21.9090 C   0  0  0  0  0  3  0  0  0  0  0  0
  -23.8160   -8.5820   22.0770 C   0  0  0  0  0  3  0  0  0  0  0  0
  -22.6590   -8.3470   21.2980 C   0  0  0  0  0  0  0  0  0  0  0  0
  -22.2720   -9.3000   20.3400 C   0  0  0  0  0  3  0  0  0  0  0  0
  -23.0070  -10.4850   20.1700 C   0  0  0  0  0  3  0  0  0  0  0  0
  -21.8970   -7.2060   21.3740 O   0  0  0  0  0  0  0  0  0  0  0  0
  -21.7880   -6.4920   22.5400 C   0  0  0  0  0  0  0  0  0  0  0  0
  -21.2500   -7.0600   23.7150 C   0  0  0  0  0  3  0  0  0  0  0  0
  -21.0910   -6.2700   24.8710 C   0  0  0  0  0  3  0  0  0  0  0  0
  -21.4590   -4.9120   24.8520 C   0  0  0  0  0  0  0  0  0  0  0  0
  -21.9890   -4.3420   23.6810 C   0  0  0  0  0  3  0  0  0  0  0  0
  -22.1500   -5.1300   22.5280 C   0  0  0  0  0  0  0  0  0  0  0  0
  -22.6420   -4.5710   21.3950 F   0  0  0  0  0  0  0  0  0  0  0  0
  -21.2990   -4.1500   25.9590 F   0  0  0  0  0  0  0  0  0  0  0  0
  -23.0550  -13.8430   21.1670 C   0  0  0  0  0  0  0  0  0  0  0  0
  -22.3390  -13.1380   22.0340 N   0  0  0  0  0  0  0  0  0  0  0  0
  -22.6180  -14.8860   20.6810 O   0  0  0  0  0  0  0  0  0  0  0  0
  -22.7040  -12.2930   22.4500 H   0  0  0  0  0  0  0  0  0  0  0  0
  -21.4110  -13.4460   22.2880 H   0  0  0  0  0  0  0  0  0  0  0  0
  -25.6850  -15.4910   20.3150 N   0  0  0  0  0  0  0  0  0  0  0  0
  -24.9230  -16.1470   20.4480 H   0  0  0  0  0  0  0  0  0  0  0  0
  -26.5280  -15.9260   19.9640 H   0  0  0  0  0  0  0  0  0  0  0  0
  -28.8190  -16.7230   18.1490 C   0  0  0  0  0  2  0  0  0  0  0  0
  -28.7620  -18.1590   17.7240 C   0  0  0  0  0  2  0  0  0  0  0  0
  -28.7250  -17.8130   19.2040 C   0  0  0  0  0  3  0  0  0  0  0  0
  3  1  1  1
  3  2  1  0
  4  6  1  0
  4  3  1  0
  5  4  1  0
  7  4  1  0
  7  9  1  0
  9 10  1  0
  9  8  2  0
 11 13  1  0
 11 10  1  0
 12 23  2  0
 13 18  1  0
 14 22  1  0
 14 24  1  0
 15 21  1  0
 15 17  1  0
 16 22  1  0
 17 16  1  0
 18 17  2  0
 19 20  1  0
 19 13  2  0
 20 15  2  0
 21 14  1  0
 22 12  1  0
 24 26  2  0
 25 24  1  0
 27 25  1  0
 28 37  2  0
 28 33  1  0
 29 25  1  0
 29 33  1  0
 30 29  1  0
 31 32  1  0
 31 30  1  0
 32 28  1  0
 33 34  2  0
 34 35  1  0
 36 35  2  0
 37 36  1  0
 38 12  1  0
 38 39  1  0
 38 48  1  0
 39 42  1  0
 40 44  1  0
 40 39  1  0
 41 40  2  0
 44 43  1  0
 46 44  1  0
 46 47  1  0
 46 45  1  0
 48 51  1  1
 48 49  1  0
 50 48  1  0
 52 57  1  0
 52  3  1  0
 54 53  2  0
 55 53  1  0
 56 57  2  0
 56 58  1  0
 57 54  1  0
 58 55  2  0
 59 67  1  0
 60 65  1  0
 61 62  1  0
 61 60  1  0
 63 62  1  0
 63 72  1  0
 63 64  1  0
 65 59  1  0
 65 64  1  0
 66 59  2  0
 67 58  1  0
 67 68  1  0
 69 70  2  0
 70 89  1  0
 71 70  1  0
 71 74  1  0
 72 73  1  0
 72 69  1  0
 73 71  2  0
 74 75  1  0
 75 76  2  0
 77 80  1  0
 77 76  1  0
 78 77  2  0
 79 78  1  0
 79 74  2  0
 80 81  1  0
 81 82  1  0
 82 83  2  0
 84 83  1  0
 84 88  1  0
 85 84  2  0
 86 81  2  0
 86 85  1  0
 87 86  1  0
 89 90  1  0
 90 93  1  0
 90 92  1  0
 91 89  2  0
 94 95  1  0
 94 69  1  0
 96 94  1  0
 97 99  1  0
 98 97  1  0
 98 99  1  0
 99 56  1  0
M  ISO  4  10 101  11 101  59 100  67 100
M  END
>  <TORSDO>  (87) 
F 23

>  <SCORE>  (87) 
-11.397

>  <name>  (87) 
86

>  <ligand_id>  (87) 
86

>  <original_smiles>  (87) 
[H]C([H])=C(C([H])([H])Oc1c([H])c([H])c2c(c1[H])C([H])([H])N(C(=O)C([H])(N([H])C(=O)C([H])(N([H])C([H])([H])[H])C([H])([H])[H])C(C([H])([H])[H])(C([H])([H])[H])C([H])([H])[H])C([H])(C(=O)N([H])C1([H])c3c([H])c([H])c([H])c([H])c3C([H])([H])C([H])([H])C1([H])[H])C2([H])[H])C([H])([H])[N+]([H])([H])C(C([H])([H])[H])(C([H])([H])[H])C([H])([H])c1c([H])c([H])c([H])c(N([H])C(=O)N2C([H])([H])C([H])([H])C([H])([H])C([H])(n3nc(-c4c([H])c([H])c(Oc5c([H])c([H])c(F)c([H])c5F)c([H])c4[H])c(C(=O)N([H])[H])c3N([H])[H])C2([H])[H])c1C1([H])C([H])([H])C1([H])[H]

>  <smiles>  (87) 
[H]C([H])=C(C([H])([H])Oc1c([H])c([H])c2c(c1[H])C([H])([H])N(C(=O)C([H])(N([H])C(=O)C([H])(N([H])C([H])([H])[H])C([H])([H])[H])C(C([H])([H])[H])(C([H])([H])[H])C([H])([H])[H])C([H])(C(=O)N([H])C1([H])c3c([H])c([H])c([H])c([H])c3C([H])([H])C([H])([H])C1([H])[H])C2([H])[H])C([H])([H])[N+]([H])([H])C(C([H])([H])[H])(C([H])([H])[H])C([H])([H])c1c([H])c([H])c([H])c(N([H])C(=O)N2C([H])([H])C([H])([H])C([H])([H])C([H])(n3nc(-c4c([H])c([H])c(Oc5c([H])c([H])c(F)c([H])c5F)c([H])c4[H])c(C(=O)N([H])[H])c3N([H])[H])C2([H])[H])c1C1([H])C([H])([H])C1([H])[H]

$$$$
87:0:0
     RDKit          3D

 97105  0  0  1  0  0  0  0  0999 V2000
  -29.1400  -22.5570   20.7370 C   0  0  0  0  0  0  0  0  0  0  0  0
  -30.2290  -21.7390   20.7470 N   0  0  0  0  0  0  0  0  0  0  0  0
  -28.0120  -22.0620   20.6620 O   0  0  0  0  0  0  0  0  0  0  0  0
  -31.1140  -22.1930   20.9150 H   0  0  0  0  0  0  0  0  0  0  0  0
  -31.2690  -18.1170   21.3190 C   0  0  0  0  0  3  0  0  0  0  0  0
  -31.2640  -19.5400   21.3260 C   0  0  0  0  0  3  0  0  0  0  0  0
  -29.3210  -19.5330   19.9130 C   0  0  0  0  0  3  0  0  0  0  0  0
  -30.2790  -17.3510   20.6440 C   0  0  0  0  0  0  0  0  0  0  0  0
  -29.2950  -18.1060   19.9160 C   0  0  0  0  0  0  0  0  0  0  0  0
  -30.2600  -20.2840   20.6610 C   0  0  0  0  0  0  0  0  0  0  0  0
  -30.1210  -15.8680   21.0010 C   0  0  0  0  0  0  0  0  0  0  0  0
  -29.4370  -15.6580   22.0460 N   0  0  0  0  0  0  0  0  0  0  0  0
  -29.1190  -16.5310   22.4520 H   0  0  0  0  0  0  0  0  0  0  0  0
  -30.7960  -14.7160   20.1550 C   0  0  0  0  0  0  0  0  0  0  0  0
  -30.4970  -12.5810   18.9060 C   0  0  0  0  0  2  0  0  0  0  0  0
  -29.4620  -12.7960   17.7720 C   0  0  0  0  0  2  0  0  0  0  0  0
  -28.0140  -12.6120   18.2830 C   0  0  0  0  0  2  0  0  0  0  0  0
  -27.7580  -13.3590   19.6200 C   0  0  0  0  0  3  0  0  0  0  0  0
  -28.8870  -13.0370   20.6170 C   0  0  0  0  0  2  0  0  0  0  0  0
  -30.1580  -13.4950   20.0220 N   0  0  0  0  0  0  0  0  0  0  0  0
  -31.8670  -14.9320   19.5730 O   0  0  0  0  0  0  0  0  0  0  0  0
  -25.4110  -13.9490   20.4830 C   0  0  0  0  0  0  0  0  0  0  0  0
  -24.3630  -13.1680   20.8870 C   0  0  0  0  0  0  0  0  0  0  0  0
  -24.8170  -11.8180   20.7860 C   0  0  0  0  0  0  0  0  0  0  0  0
  -26.4370  -13.0710   20.1660 N   0  0  0  0  0  0  0  0  0  0  0  0
  -26.0850  -11.7840   20.3980 N   0  0  0  0  0  0  0  0  0  0  0  0
  -24.1020  -10.5520   20.9790 C   0  0  0  0  0  0  0  0  0  0  0  0
  -24.5550   -9.5860   21.9010 C   0  0  0  0  0  3  0  0  0  0  0  0
  -23.8400   -8.3830   22.0820 C   0  0  0  0  0  3  0  0  0  0  0  0
  -22.6600   -8.1400   21.3400 C   0  0  0  0  0  0  0  0  0  0  0  0
  -22.2280   -9.0990   20.4070 C   0  0  0  0  0  3  0  0  0  0  0  0
  -22.9440  -10.2930   20.2260 C   0  0  0  0  0  3  0  0  0  0  0  0
  -21.9170   -6.9890   21.4310 O   0  0  0  0  0  0  0  0  0  0  0  0
  -21.8340   -6.2750   22.5990 C   0  0  0  0  0  0  0  0  0  0  0  0
  -21.3640   -6.8580   23.7970 C   0  0  0  0  0  3  0  0  0  0  0  0
  -21.2330   -6.0700   24.9580 C   0  0  0  0  0  3  0  0  0  0  0  0
  -21.5610   -4.7010   24.9210 C   0  0  0  0  0  0  0  0  0  0  0  0
  -22.0240   -4.1180   23.7280 C   0  0  0  0  0  3  0  0  0  0  0  0
  -22.1580   -4.9030   22.5690 C   0  0  0  0  0  0  0  0  0  0  0  0
  -22.5850   -4.3330   21.4170 F   0  0  0  0  0  0  0  0  0  0  0  0
  -21.4260   -3.9420   26.0330 F   0  0  0  0  0  0  0  0  0  0  0  0
  -22.9890  -13.6440   21.2520 C   0  0  0  0  0  0  0  0  0  0  0  0
  -22.3110  -12.9290   22.1420 N   0  0  0  0  0  0  0  0  0  0  0  0
  -22.5230  -14.6830   20.7840 O   0  0  0  0  0  0  0  0  0  0  0  0
  -22.7020  -12.0860   22.5400 H   0  0  0  0  0  0  0  0  0  0  0  0
  -21.3930  -13.2300   22.4340 H   0  0  0  0  0  0  0  0  0  0  0  0
  -25.5680  -15.3210   20.3400 N   0  0  0  0  0  0  0  0  0  0  0  0
  -24.8290  -15.9820   20.5500 H   0  0  0  0  0  0  0  0  0  0  0  0
  -26.4070  -15.7550   19.9810 H   0  0  0  0  0  0  0  0  0  0  0  0
  -28.2030  -17.4520   19.1400 C   0  0  0  0  0  0  0  0  0  0  0  0
  -26.8270  -18.1190   19.1520 C   0  0  0  0  0  1  0  0  0  0  0  0
  -28.3440  -16.4010   18.5170 O   0  0  0  0  0  0  0  0  0  0  0  0
  -29.2880  -24.1380   20.8400 C   0  0  0  0  0  2  0  0  0  0  0  0
  -26.8920  -24.7950   21.4110 C   0  0  0  0  0  1  0  0  0  0  0  0
  -27.7440  -24.5610   18.9120 C   0  0  0  0  0  1  0  0  0  0  0  0
  -28.0450  -25.0340   20.3670 C   0  0  2  0  0  0  0  0  0  0  0  0
  -28.2620  -26.5110   20.2970 O   0  0  0  0  0  0  0  0  0  0  0  0
  -24.5440  -31.9190   23.2360 C   0  0  0  0  0  0  0  0  0  0  0  0
  -27.1560  -27.3800   20.1760 C   0  0  0  0  0  0  0  0  0  0  0  0
  -23.3320  -30.5080   21.6130 C   0  0  0  0  0  3  0  0  0  0  0  0
  -24.7840  -28.9850   20.1710 C   0  0  0  0  0  0  0  0  0  0  0  0
  -25.8700  -30.8500   21.4100 C   0  0  0  0  0  2  0  0  0  0  0  0
  -25.9570  -29.4760   20.7570 C   0  0  0  0  0  0  0  0  0  0  0  0
  -27.1480  -28.6890   20.7450 C   0  0  0  0  0  3  0  0  0  0  0  0
  -25.9540  -26.9650   19.5450 C   0  0  0  0  0  3  0  0  0  0  0  0
  -24.7890  -27.7400   19.5420 C   0  0  0  0  0  3  0  0  0  0  0  0
  -23.5430  -29.8440   20.2300 C   0  0  0  0  0  2  0  0  0  0  0  0
  -24.6020  -31.1060   22.1430 N   0  0  0  0  0  0  0  0  0  0  0  0
  -23.4650  -32.1940   23.7790 O   0  0  0  0  0  0  0  0  0  0  0  0
  -22.6910  -29.4820   22.5750 C   0  0  0  0  0  0  0  0  0  0  0  0
  -21.3660  -29.2850   22.4550 N   0  0  0  0  0  0  0  0  0  0  0  0
  -23.3800  -28.8710   23.3970 O   0  0  0  0  0  0  0  0  0  0  0  0
  -20.8660  -29.8270   21.7600 H   0  0  0  0  0  0  0  0  0  0  0  0
  -17.9990  -28.0800   22.9700 C   0  0  0  0  0  0  0  0  0  0  0  0
  -20.5540  -28.3570   23.2480 C   0  0  0  0  0  3  0  0  0  0  0  0
  -20.6630  -26.9160   22.6990 C   0  0  0  0  0  2  0  0  0  0  0  0
  -19.5730  -26.5830   21.6740 C   0  0  0  0  0  2  0  0  0  0  0  0
  -18.1880  -26.7230   22.3070 C   0  0  0  0  0  2  0  0  0  0  0  0
  -19.1100  -28.8530   23.3980 C   0  0  0  0  0  0  0  0  0  0  0  0
  -18.8810  -30.1190   23.9790 C   0  0  0  0  0  3  0  0  0  0  0  0
  -17.5690  -30.6080   24.1420 C   0  0  0  0  0  3  0  0  0  0  0  0
  -16.4710  -29.8340   23.7240 C   0  0  0  0  0  3  0  0  0  0  0  0
  -16.6890  -28.5730   23.1400 C   0  0  0  0  0  3  0  0  0  0  0  0
  -25.8310  -32.5620   23.8390 C   0  0  0  0  0  3  0  0  0  0  0  0
  -25.5180  -33.9620   24.1590 N   0  0  0  0  0  0  0  0  0  0  0  0
  -25.8220  -35.0070   23.3770 C   0  0  0  0  0  0  0  0  0  0  0  0
  -26.4680  -34.8960   22.3310 O   0  0  0  0  0  0  0  0  0  0  0  0
  -24.9410  -34.1200   24.9720 H   0  0  0  0  0  0  0  0  0  0  0  0
  -24.0630  -36.7720   23.0550 C   0  0  0  0  0  1  0  0  0  0  0  0
  -25.3340  -36.3950   23.8310 C   0  0  0  0  0  3  0  0  0  0  0  0
  -27.4840  -37.3150   24.5810 C   0  0  0  0  0  1  0  0  0  0  0  0
  -26.3500  -37.4580   23.6710 N   0  0  0  0  0  0  0  0  0  0  0  0
  -25.9370  -38.3750   23.8240 H   0  0  0  0  0  0  0  0  0  0  0  0
  -26.3630  -31.8030   25.1170 C   0  0  1  0  0  0  0  0  0  0  0  0
  -25.2800  -31.5650   26.1930 C   0  0  0  0  0  1  0  0  0  0  0  0
  -26.9510  -30.4280   24.7280 C   0  0  0  0  0  1  0  0  0  0  0  0
  -27.5130  -32.6100   25.7640 C   0  0  0  0  0  1  0  0  0  0  0  0
  1  2  1  0
  1 53  1  0
  2  4  1  0
  3  1  2  0
  5  6  1  0
  7  9  2  0
  7 10  1  0
  8 11  1  0
  8  5  2  0
  9  8  1  0
 10  2  1  0
 10  6  2  0
 11 12  2  0
 12 13  1  0
 14 11  1  0
 15 20  1  0
 16 17  1  0
 16 15  1  0
 18 17  1  0
 18 25  1  0
 18 19  1  0
 20 14  1  0
 20 19  1  0
 21 14  2  0
 22 23  2  0
 23 42  1  0
 24 23  1  0
 24 27  1  0
 25 26  1  0
 25 22  1  0
 26 24  2  0
 27 28  1  0
 28 29  2  0
 30 33  1  0
 30 29  1  0
 31 30  2  0
 32 31  1  0
 32 27  2  0
 33 34  1  0
 34 35  1  0
 35 36  2  0
 37 36  1  0
 37 41  1  0
 38 37  2  0
 39 34  2  0
 39 38  1  0
 40 39  1  0
 42 43  1  0
 43 46  1  0
 43 45  1  0
 44 42  2  0
 47 22  1  0
 47 48  1  0
 49 47  1  0
 50 51  1  0
 50  9  1  0
 52 50  2  0
 56 55  1  6
 56 53  1  0
 56 54  1  0
 57 56  1  0
 58 69  2  0
 59 57  1  0
 59 64  1  0
 60 68  1  0
 60 70  1  0
 61 67  1  0
 61 63  1  0
 62 68  1  0
 63 62  1  0
 64 63  2  0
 65 59  2  0
 66 65  1  0
 66 61  2  0
 67 60  1  0
 68 58  1  0
 70 72  2  0
 71 70  1  0
 73 71  1  0
 74 83  2  0
 74 79  1  0
 75 71  1  0
 75 79  1  0
 76 75  1  0
 77 78  1  0
 77 76  1  0
 78 74  1  0
 79 80  2  0
 80 81  1  0
 82 81  2  0
 83 82  1  0
 84 58  1  0
 84 85  1  0
 84 94  1  0
 85 88  1  0
 86 90  1  0
 86 85  1  0
 87 86  2  0
 90 89  1  0
 92 93  1  0
 92 90  1  0
 92 91  1  0
 94 97  1  1
 94 95  1  0
 96 94  1  0
M  ISO  4  11 100  14 100  56 101  57 101
M  END
>  <TORSDO>  (88) 
F 21

>  <SCORE>  (88) 
-13.268

>  <name>  (88) 
87

>  <ligand_id>  (88) 
87

>  <original_smiles>  (88) 
[H]N=C(C(=O)N1C([H])([H])C([H])([H])C([H])([H])C([H])(n2nc(-c3c([H])c([H])c(Oc4c([H])c([H])c(F)c([H])c4F)c([H])c3[H])c(C(=O)N([H])[H])c2N([H])[H])C1([H])[H])c1c([H])c([H])c(N([H])C(=O)C([H])([H])C(Oc2c([H])c([H])c3c(c2[H])C([H])([H])N(C(=O)C([H])(N([H])C(=O)C([H])(N([H])C([H])([H])[H])C([H])([H])[H])C(C([H])([H])[H])(C([H])([H])[H])C([H])([H])[H])C([H])(C(=O)N([H])C2([H])c4c([H])c([H])c([H])c([H])c4C([H])([H])C([H])([H])C2([H])[H])C3([H])[H])(C([H])([H])[H])C([H])([H])[H])c([H])c1C(=O)C([H])([H])[H]

>  <smiles>  (88) 
[H]N=C(C(=O)N1C([H])([H])C([H])([H])C([H])([H])C([H])(n2nc(-c3c([H])c([H])c(Oc4c([H])c([H])c(F)c([H])c4F)c([H])c3[H])c(C(=O)N([H])[H])c2N([H])[H])C1([H])[H])c1c([H])c([H])c(N([H])C(=O)C([H])([H])C(Oc2c([H])c([H])c3c(c2[H])C([H])([H])N(C(=O)C([H])(N([H])C(=O)C([H])(N([H])C([H])([H])[H])C([H])([H])[H])C(C([H])([H])[H])(C([H])([H])[H])C([H])([H])[H])C([H])(C(=O)N([H])C2([H])c4c([H])c([H])c([H])c([H])c4C([H])([H])C([H])([H])C2([H])[H])C3([H])[H])(C([H])([H])[H])C([H])([H])[H])c([H])c1C(=O)C([H])([H])[H]

$$$$
88:0:0
     RDKit          3D

100108  0  0  1  0  0  0  0  0999 V2000
  -29.8040  -18.3250   20.7870 C   0  0  0  0  0  3  0  0  0  0  0  0
  -28.4170  -19.5050   19.1810 C   0  0  0  0  0  3  0  0  0  0  0  0
  -28.3900  -17.0560   19.2650 C   0  0  0  0  0  3  0  0  0  0  0  0
  -29.3650  -19.5860   20.2170 C   0  0  0  0  0  0  0  0  0  0  0  0
  -29.3500  -17.0340   20.3080 C   0  0  0  0  0  0  0  0  0  0  0  0
  -27.8910  -18.2700   18.7320 C   0  0  0  0  0  0  0  0  0  0  0  0
  -30.3820  -14.6630   20.4290 C   0  0  0  0  0  0  0  0  0  0  0  0
  -30.1500  -12.4060   19.3980 C   0  0  0  0  0  2  0  0  0  0  0  0
  -29.1170  -12.5420   18.2580 C   0  0  0  0  0  2  0  0  0  0  0  0
  -27.6870  -12.3430   18.7960 C   0  0  0  0  0  2  0  0  0  0  0  0
  -27.4100  -13.1690   20.0780 C   0  0  0  0  0  3  0  0  0  0  0  0
  -28.5550  -13.0240   21.1040 C   0  0  0  0  0  2  0  0  0  0  0  0
  -29.8040  -13.4130   20.4320 N   0  0  0  0  0  0  0  0  0  0  0  0
  -31.4850  -14.8330   19.8970 O   0  0  0  0  0  0  0  0  0  0  0  0
  -29.6620  -15.7290   20.9320 N   0  0  0  0  0  0  0  0  0  0  0  0
  -28.9450  -15.4180   21.5730 H   0  0  0  0  0  0  0  0  0  0  0  0
  -25.1790  -13.7140   21.2170 C   0  0  0  0  0  0  0  0  0  0  0  0
  -24.0980  -12.9370   21.5370 C   0  0  0  0  0  0  0  0  0  0  0  0
  -24.4370  -11.6070   21.1410 C   0  0  0  0  0  0  0  0  0  0  0  0
  -26.1090  -12.8550   20.6550 N   0  0  0  0  0  0  0  0  0  0  0  0
  -25.6750  -11.5680   20.6590 N   0  0  0  0  0  0  0  0  0  0  0  0
  -23.6290  -10.3790   21.1360 C   0  0  0  0  0  0  0  0  0  0  0  0
  -24.1520   -9.1490   21.5880 C   0  0  0  0  0  3  0  0  0  0  0  0
  -23.3530   -7.9840   21.5920 C   0  0  0  0  0  3  0  0  0  0  0  0
  -22.0130   -8.0470   21.1410 C   0  0  0  0  0  0  0  0  0  0  0  0
  -21.5020   -9.2690   20.6680 C   0  0  0  0  0  3  0  0  0  0  0  0
  -22.3030  -10.4230   20.6640 C   0  0  0  0  0  3  0  0  0  0  0  0
  -21.1680   -6.9630   21.0850 O   0  0  0  0  0  0  0  0  0  0  0  0
  -21.4270   -5.8120   21.7850 C   0  0  0  0  0  0  0  0  0  0  0  0
  -21.6090   -5.8140   23.1850 C   0  0  0  0  0  3  0  0  0  0  0  0
  -21.8060   -4.6000   23.8720 C   0  0  0  0  0  3  0  0  0  0  0  0
  -21.8100   -3.3840   23.1640 C   0  0  0  0  0  0  0  0  0  0  0  0
  -21.6190   -3.3760   21.7700 C   0  0  0  0  0  3  0  0  0  0  0  0
  -21.4280   -4.5880   21.0840 C   0  0  0  0  0  0  0  0  0  0  0  0
  -21.2260   -4.5770   19.7440 F   0  0  0  0  0  0  0  0  0  0  0  0
  -21.9850   -2.2150   23.8230 F   0  0  0  0  0  0  0  0  0  0  0  0
  -22.7880  -13.4120   22.0980 C   0  0  0  0  0  0  0  0  0  0  0  0
  -22.1120  -12.5680   22.8680 N   0  0  0  0  0  0  0  0  0  0  0  0
  -22.3820  -14.5550   21.8950 O   0  0  0  0  0  0  0  0  0  0  0  0
  -22.4580  -11.6360   23.0480 H   0  0  0  0  0  0  0  0  0  0  0  0
  -21.2350  -12.8520   23.2820 H   0  0  0  0  0  0  0  0  0  0  0  0
  -25.4450  -15.0780   21.3350 N   0  0  0  0  0  0  0  0  0  0  0  0
  -24.7550  -15.7360   21.6780 H   0  0  0  0  0  0  0  0  0  0  0  0
  -26.2930  -15.5220   21.0070 H   0  0  0  0  0  0  0  0  0  0  0  0
  -29.8670  -21.0290   20.6580 C   0  0  0  0  0  3  0  0  0  0  0  0
  -29.0380  -22.3570   20.2380 C   0  0  0  0  0  3  0  0  0  0  0  0
  -30.7380  -24.2090   19.7170 C   0  0  0  0  0  1  0  0  0  0  0  0
  -29.9610  -23.8620   22.0850 C   0  0  0  0  0  1  0  0  0  0  0  0
  -29.5380  -23.8490   20.6030 C   0  0  2  0  0  0  0  0  0  0  0  0
  -28.4370  -25.0080   20.3950 C   0  0  0  0  0  2  0  0  0  0  0  0
  -28.7850  -26.4490   20.5790 O   0  0  0  0  0  0  0  0  0  0  0  0
  -27.9050  -31.8850   25.2490 C   0  0  0  0  0  0  0  0  0  0  0  0
  -27.8890  -27.3120   21.2430 C   0  0  0  0  0  0  0  0  0  0  0  0
  -25.9210  -30.4840   24.7970 C   0  0  0  0  0  3  0  0  0  0  0  0
  -26.0850  -28.9370   22.7660 C   0  0  0  0  0  0  0  0  0  0  0  0
  -27.7260  -30.8000   23.0000 C   0  0  0  0  0  2  0  0  0  0  0  0
  -27.3660  -29.4200   22.4620 C   0  0  0  0  0  0  0  0  0  0  0  0
  -28.2650  -28.6170   21.6980 C   0  0  0  0  0  3  0  0  0  0  0  0
  -26.5630  -26.9020   21.5180 C   0  0  0  0  0  3  0  0  0  0  0  0
  -25.6790  -27.6870   22.2810 C   0  0  0  0  0  3  0  0  0  0  0  0
  -25.1830  -29.8120   23.6090 C   0  0  0  0  0  2  0  0  0  0  0  0
  -27.2340  -31.0740   24.3800 N   0  0  0  0  0  0  0  0  0  0  0  0
  -27.4360  -32.1640   26.3620 O   0  0  0  0  0  0  0  0  0  0  0  0
  -26.0490  -29.4680   25.9590 C   0  0  0  0  0  0  0  0  0  0  0  0
  -24.9970  -29.3620   26.7890 N   0  0  0  0  0  0  0  0  0  0  0  0
  -27.0680  -28.7850   26.0860 O   0  0  0  0  0  0  0  0  0  0  0  0
  -24.2040  -29.9690   26.6290 H   0  0  0  0  0  0  0  0  0  0  0  0
  -22.9190  -28.4350   29.6030 C   0  0  0  0  0  0  0  0  0  0  0  0
  -24.8850  -28.4430   27.9230 C   0  0  0  0  0  3  0  0  0  0  0  0
  -24.3650  -27.0600   27.4660 C   0  0  0  0  0  2  0  0  0  0  0  0
  -22.8440  -26.9200   27.5780 C   0  0  0  0  0  2  0  0  0  0  0  0
  -22.3870  -27.1340   29.0240 C   0  0  0  0  0  2  0  0  0  0  0  0
  -24.0830  -29.0580   29.0760 C   0  0  0  0  0  0  0  0  0  0  0  0
  -24.5140  -30.2830   29.6280 C   0  0  0  0  0  3  0  0  0  0  0  0
  -23.8080  -30.8820   30.6900 C   0  0  0  0  0  3  0  0  0  0  0  0
  -22.6680  -30.2530   31.2170 C   0  0  0  0  0  3  0  0  0  0  0  0
  -22.2270  -29.0320   30.6760 C   0  0  0  0  0  3  0  0  0  0  0  0
  -29.2840  -32.5180   24.8790 C   0  0  0  0  0  3  0  0  0  0  0  0
  -29.2860  -33.9040   25.3690 N   0  0  0  0  0  0  0  0  0  0  0  0
  -29.0070  -34.9760   24.6140 C   0  0  0  0  0  0  0  0  0  0  0  0
  -28.7870  -34.9040   23.4010 O   0  0  0  0  0  0  0  0  0  0  0  0
  -29.4150  -34.0360   26.3610 H   0  0  0  0  0  0  0  0  0  0  0  0
  -27.5050  -36.7330   25.6010 C   0  0  0  0  0  1  0  0  0  0  0  0
  -28.9660  -36.3480   25.3160 C   0  0  0  0  0  3  0  0  0  0  0  0
  -31.0700  -37.2640   24.4460 C   0  0  0  0  0  1  0  0  0  0  0  0
  -29.6220  -37.4250   24.5440 N   0  0  0  0  0  0  0  0  0  0  0  0
  -29.4300  -38.3340   24.9580 H   0  0  0  0  0  0  0  0  0  0  0  0
  -30.5080  -31.7160   25.4670 C   0  0  1  0  0  0  0  0  0  0  0  0
  -30.4020  -31.4440   26.9840 C   0  0  0  0  0  1  0  0  0  0  0  0
  -30.6610  -30.3500   24.7550 C   0  0  0  0  0  1  0  0  0  0  0  0
  -31.8180  -32.4950   25.2100 C   0  0  0  0  0  1  0  0  0  0  0  0
  -26.8680  -18.1990   17.8000 O   0  0  0  0  0  0  0  0  0  0  0  0
  -26.1080  -19.3900   17.5560 C   0  0  0  0  0  2  0  0  0  0  0  0
  -23.9880  -18.0990   17.6880 C   0  0  0  0  0  1  0  0  0  0  0  0
  -25.1000  -18.4340   15.4720 C   0  0  0  0  0  1  0  0  0  0  0  0
  -24.7670  -19.1200   16.8200 C   0  0  2  0  0  0  0  0  0  0  0  0
  -23.4090  -21.0530   17.9380 C   0  0  0  0  0  1  0  0  0  0  0  0
  -22.6830  -20.2240   15.7060 C   0  0  0  0  0  1  0  0  0  0  0  0
  -24.7630  -21.5710   15.9170 C   0  0  0  0  0  1  0  0  0  0  0  0
  -23.9260  -20.4580   16.6030 C   0  0  2  0  0  0  0  0  0  0  0  0
  2  4  1  0
  3  5  2  0
  4 45  1  0
  4  1  2  0
  5  1  1  0
  5 15  1  0
  6  2  2  0
  6  3  1  0
  7 13  1  0
  7 15  1  0
  8 13  1  0
  9 10  1  0
  9  8  1  0
 11 10  1  0
 11 20  1  0
 11 12  1  0
 13 12  1  0
 14  7  2  0
 15 16  1  0
 17 42  1  0
 17 18  2  0
 18 37  1  0
 19 18  1  0
 20 21  1  0
 20 17  1  0
 21 19  2  0
 22 19  1  0
 22 23  1  0
 23 24  2  0
 25 24  1  0
 26 25  2  0
 27 26  1  0
 27 22  2  0
 28 25  1  0
 28 29  1  0
 29 30  1  0
 30 31  2  0
 32 36  1  0
 32 31  1  0
 33 32  2  0
 34 33  1  0
 34 29  2  0
 35 34  1  0
 37 38  1  0
 38 40  1  0
 38 41  1  0
 39 37  2  0
 42 43  1  0
 44 42  1  0
 46 49  1  0
 46 45  2  0
 49 47  1  6
 49 48  1  0
 50 51  1  0
 50 49  1  0
 51 53  1  0
 52 63  2  0
 53 59  2  0
 53 58  1  0
 54 64  1  0
 55 61  1  0
 56 62  1  0
 57 55  1  0
 57 56  1  0
 58 57  2  0
 59 60  1  0
 60 55  2  0
 61 54  1  0
 62 54  1  0
 62 52  1  0
 64 66  2  0
 64 65  1  0
 67 65  1  0
 68 77  1  0
 69 65  1  0
 69 73  1  0
 70 71  1  0
 70 69  1  0
 71 72  1  0
 72 68  1  0
 73 68  2  0
 73 74  1  0
 74 75  2  0
 75 76  1  0
 77 76  2  0
 78 52  1  0
 78 79  1  0
 78 88  1  0
 79 82  1  0
 80 84  1  0
 80 79  1  0
 81 80  2  0
 84 83  1  0
 85 86  1  0
 86 87  1  0
 86 84  1  0
 88 89  1  1
 90 88  1  0
 91 88  1  0
 92  6  1  0
 93 92  1  0
 96 95  1  6
 96 93  1  0
 96 94  1  0
100 98  1  6
 99100  1  0
100 96  1  0
100 97  1  0
M  ISO  4   7 100  15 100  50 101  51 101
M  END
>  <TORSDO>  (89) 
F 24

>  <SCORE>  (89) 
8.104

>  <name>  (89) 
88

>  <ligand_id>  (89) 
88

>  <original_smiles>  (89) 
[H]c1c([H])c([H])c2c(c1[H])C([H])([H])C([H])([H])C([H])([H])C2([H])N([H])C(=O)C1([H])N(C(=O)C([H])(N([H])C(=O)C([H])(N([H])C([H])([H])[H])C([H])([H])[H])C(C([H])([H])[H])(C([H])([H])[H])C([H])([H])[H])C([H])([H])c2c([H])c(OC([H])([H])C(C([H])([H])[H])(C([H])([H])[H])C([H])([H])C([H])([H])c3c([H])c(OC([H])([H])C(C([H])([H])[H])(C([H])([H])[H])C(C([H])([H])[H])(C([H])([H])[H])C([H])([H])[H])c([H])c(N([H])C(=O)N4C([H])([H])C([H])([H])C([H])([H])C([H])(n5nc(-c6c([H])c([H])c(Oc7c([H])c([H])c(F)c([H])c7F)c([H])c6[H])c(C(=O)N([H])[H])c5N([H])[H])C4([H])[H])c3[H])c([H])c([H])c2C1([H])[H]

>  <smiles>  (89) 
[H]c1c([H])c([H])c2c(c1[H])C([H])([H])C([H])([H])C([H])([H])C2([H])N([H])C(=O)C1([H])N(C(=O)C([H])(N([H])C(=O)C([H])(N([H])C([H])([H])[H])C([H])([H])[H])C(C([H])([H])[H])(C([H])([H])[H])C([H])([H])[H])C([H])([H])c2c([H])c(OC([H])([H])C(C([H])([H])[H])(C([H])([H])[H])C([H])([H])C([H])([H])c3c([H])c(OC([H])([H])C(C([H])([H])[H])(C([H])([H])[H])C(C([H])([H])[H])(C([H])([H])[H])C([H])([H])[H])c([H])c(N([H])C(=O)N4C([H])([H])C([H])([H])C([H])([H])C([H])(n5nc(-c6c([H])c([H])c(Oc7c([H])c([H])c(F)c([H])c7F)c([H])c6[H])c(C(=O)N([H])[H])c5N([H])[H])C4([H])[H])c3[H])c([H])c([H])c2C1([H])[H]

$$$$
89:0:0
     RDKit          3D

102110  0  0  1  0  0  0  0  0999 V2000
  -28.9880  -20.8450   20.9300 C   0  0  0  0  0  0  0  0  0  0  0  0
  -28.1050  -20.4590   21.8500 N   0  0  0  0  0  4  0  0  0  0  0  0
  -29.1220  -22.1750   20.6180 N   0  0  0  0  0  0  0  0  0  0  0  0
  -28.0590  -19.4870   22.1190 H   0  0  0  0  0  0  0  0  0  0  0  0
  -27.4960  -21.1150   22.3110 H   0  0  0  0  0  0  0  0  0  0  0  0
  -29.7410  -22.3230   19.8280 H   0  0  0  0  0  0  0  0  0  0  0  0
  -31.2180  -20.1540   20.0770 C   0  0  0  0  0  3  0  0  0  0  0  0
  -29.5350  -18.4100   20.3420 C   0  0  0  0  0  3  0  0  0  0  0  0
  -31.8100  -17.8230   19.6970 C   0  0  0  0  0  3  0  0  0  0  0  0
  -29.8900  -19.7920   20.3870 C   0  0  0  0  0  0  0  0  0  0  0  0
  -32.1920  -19.1860   19.7290 C   0  0  0  0  0  0  0  0  0  0  0  0
  -30.4930  -17.4080   20.0050 C   0  0  0  0  0  0  0  0  0  0  0  0
  -30.9680  -14.9220   19.9750 C   0  0  0  0  0  0  0  0  0  0  0  0
  -30.8590  -12.5020   19.4660 C   0  0  0  0  0  2  0  0  0  0  0  0
  -29.9460  -12.2830   18.2420 C   0  0  0  0  0  2  0  0  0  0  0  0
  -28.4730  -12.1540   18.6770 C   0  0  0  0  0  2  0  0  0  0  0  0
  -28.0350  -13.2740   19.6600 C   0  0  0  0  0  3  0  0  0  0  0  0
  -29.0700  -13.4660   20.7930 C   0  0  0  0  0  2  0  0  0  0  0  0
  -30.3780  -13.7060   20.1650 N   0  0  0  0  0  0  0  0  0  0  0  0
  -32.1180  -15.0230   19.5390 O   0  0  0  0  0  0  0  0  0  0  0  0
  -30.1550  -16.0030   20.0820 N   0  0  0  0  0  0  0  0  0  0  0  0
  -29.1830  -15.7860   20.2370 H   0  0  0  0  0  0  0  0  0  0  0  0
  -25.6910  -13.9480   20.4680 C   0  0  0  0  0  0  0  0  0  0  0  0
  -24.6070  -13.2070   20.8530 C   0  0  0  0  0  0  0  0  0  0  0  0
  -25.0160  -11.8410   20.7750 C   0  0  0  0  0  0  0  0  0  0  0  0
  -26.6940  -13.0350   20.1830 N   0  0  0  0  0  0  0  0  0  0  0  0
  -26.2940  -11.7600   20.4270 N   0  0  0  0  0  0  0  0  0  0  0  0
  -24.2490  -10.6010   20.9600 C   0  0  0  0  0  0  0  0  0  0  0  0
  -24.6250   -9.6360   21.9190 C   0  0  0  0  0  3  0  0  0  0  0  0
  -23.8600   -8.4610   22.0880 C   0  0  0  0  0  3  0  0  0  0  0  0
  -22.7070   -8.2450   21.2980 C   0  0  0  0  0  0  0  0  0  0  0  0
  -22.3500   -9.2000   20.3300 C   0  0  0  0  0  3  0  0  0  0  0  0
  -23.1150  -10.3660   20.1580 C   0  0  0  0  0  3  0  0  0  0  0  0
  -21.9170   -7.1230   21.3760 O   0  0  0  0  0  0  0  0  0  0  0  0
  -21.7410   -6.4470   22.5560 C   0  0  0  0  0  0  0  0  0  0  0  0
  -21.2040   -7.0750   23.7000 C   0  0  0  0  0  3  0  0  0  0  0  0
  -20.9760   -6.3280   24.8710 C   0  0  0  0  0  3  0  0  0  0  0  0
  -21.2700   -4.9510   24.9000 C   0  0  0  0  0  0  0  0  0  0  0  0
  -21.8000   -4.3220   23.7580 C   0  0  0  0  0  3  0  0  0  0  0  0
  -22.0320   -5.0680   22.5900 C   0  0  0  0  0  0  0  0  0  0  0  0
  -22.5210   -4.4530   21.4870 F   0  0  0  0  0  0  0  0  0  0  0  0
  -21.0440   -4.2300   26.0220 F   0  0  0  0  0  0  0  0  0  0  0  0
  -23.2390  -13.7300   21.1820 C   0  0  0  0  0  0  0  0  0  0  0  0
  -22.5190  -13.0470   22.0640 N   0  0  0  0  0  0  0  0  0  0  0  0
  -22.8170  -14.7770   20.6900 O   0  0  0  0  0  0  0  0  0  0  0  0
  -22.8720  -12.1990   22.4820 H   0  0  0  0  0  0  0  0  0  0  0  0
  -21.6020  -13.3790   22.3280 H   0  0  0  0  0  0  0  0  0  0  0  0
  -25.9010  -15.3160   20.3120 N   0  0  0  0  0  0  0  0  0  0  0  0
  -25.1530  -15.9900   20.4410 H   0  0  0  0  0  0  0  0  0  0  0  0
  -26.7390  -15.7280   19.9240 H   0  0  0  0  0  0  0  0  0  0  0  0
  -34.3490  -19.6080   20.8970 C   0  0  0  0  0  1  0  0  0  0  0  0
  -33.7980  -20.9830   18.8710 C   0  0  0  0  0  1  0  0  0  0  0  0
  -34.4300  -18.6020   18.6030 C   0  0  0  0  0  1  0  0  0  0  0  0
  -33.6660  -19.5880   19.5190 C   0  0  2  0  0  0  0  0  0  0  0  0
  -27.4050  -23.4620   22.0190 C   0  0  0  0  0  1  0  0  0  0  0  0
  -29.8200  -23.3510   22.6210 C   0  0  0  0  0  1  0  0  0  0  0  0
  -28.8360  -23.4270   21.4280 C   0  0  1  0  0  0  0  0  0  0  0  0
  -29.1850  -24.8250   20.7240 C   0  0  0  0  0  2  0  0  0  0  0  0
  -29.4230  -25.5060   18.3030 C   0  0  0  0  0  1  0  0  0  0  0  0
  -27.2550  -24.6020   19.0000 C   0  0  0  0  0  1  0  0  0  0  0  0
  -28.4340  -25.4810   19.4830 C   0  0  1  0  0  0  0  0  0  0  0  0
  -28.2600  -26.9480   19.7030 O   0  0  0  0  0  0  0  0  0  0  0  0
  -24.5720  -31.9620   23.3140 C   0  0  0  0  0  0  0  0  0  0  0  0
  -27.0690  -27.6870   19.7910 C   0  0  0  0  0  0  0  0  0  0  0  0
  -23.2980  -30.6580   21.6510 C   0  0  0  0  0  3  0  0  0  0  0  0
  -24.6790  -29.2500   20.0390 C   0  0  0  0  0  0  0  0  0  0  0  0
  -25.8160  -31.0370   21.3510 C   0  0  0  0  0  2  0  0  0  0  0  0
  -25.8730  -29.7110   20.6050 C   0  0  0  0  0  0  0  0  0  0  0  0
  -27.0610  -28.9380   20.4810 C   0  0  0  0  0  3  0  0  0  0  0  0
  -25.8540  -27.3020   19.1830 C   0  0  0  0  0  3  0  0  0  0  0  0
  -24.6720  -28.0490   19.3210 C   0  0  0  0  0  3  0  0  0  0  0  0
  -23.4360  -30.0940   20.2140 C   0  0  0  0  0  2  0  0  0  0  0  0
  -24.5860  -31.2320   22.1630 N   0  0  0  0  0  0  0  0  0  0  0  0
  -23.5160  -32.1810   23.9260 O   0  0  0  0  0  0  0  0  0  0  0  0
  -22.7120  -29.5580   22.5690 C   0  0  0  0  0  0  0  0  0  0  0  0
  -21.4050  -29.2850   22.4220 N   0  0  0  0  0  0  0  0  0  0  0  0
  -23.4320  -28.9620   23.3760 O   0  0  0  0  0  0  0  0  0  0  0  0
  -20.8800  -29.8310   21.7540 H   0  0  0  0  0  0  0  0  0  0  0  0
  -18.1590  -27.7230   22.7240 C   0  0  0  0  0  0  0  0  0  0  0  0
  -20.6520  -28.2610   23.1470 C   0  0  0  0  0  3  0  0  0  0  0  0
  -20.9480  -26.8500   22.5900 C   0  0  0  0  0  2  0  0  0  0  0  0
  -19.9500  -26.4010   21.5190 C   0  0  0  0  0  2  0  0  0  0  0  0
  -18.5230  -26.3990   22.0750 C   0  0  0  0  0  2  0  0  0  0  0  0
  -19.1600  -28.6040   23.2140 C   0  0  0  0  0  0  0  0  0  0  0  0
  -18.7690  -29.8380   23.7770 C   0  0  0  0  0  3  0  0  0  0  0  0
  -17.4090  -30.1900   23.8640 C   0  0  0  0  0  3  0  0  0  0  0  0
  -16.4220  -29.3060   23.3960 C   0  0  0  0  0  3  0  0  0  0  0  0
  -16.7980  -28.0770   22.8260 C   0  0  0  0  0  3  0  0  0  0  0  0
  -25.8790  -32.5740   23.9050 C   0  0  0  0  0  3  0  0  0  0  0  0
  -25.5880  -33.9630   24.2860 N   0  0  0  0  0  0  0  0  0  0  0  0
  -25.9070  -35.0350   23.5500 C   0  0  0  0  0  0  0  0  0  0  0  0
  -26.5470  -34.9580   22.4990 O   0  0  0  0  0  0  0  0  0  0  0  0
  -25.0240  -34.0980   25.1120 H   0  0  0  0  0  0  0  0  0  0  0  0
  -24.1810  -36.8490   23.3000 C   0  0  0  0  0  1  0  0  0  0  0  0
  -25.4390  -36.4110   24.0660 C   0  0  0  0  0  3  0  0  0  0  0  0
  -27.5970  -37.2610   24.8700 C   0  0  0  0  0  1  0  0  0  0  0  0
  -26.4740  -37.4620   23.9580 N   0  0  0  0  0  0  0  0  0  0  0  0
  -26.0790  -38.3810   24.1390 H   0  0  0  0  0  0  0  0  0  0  0  0
  -26.4370  -31.7660   25.1430 C   0  0  1  0  0  0  0  0  0  0  0  0
  -25.3740  -31.4790   26.2280 C   0  0  0  0  0  1  0  0  0  0  0  0
  -27.0300  -30.4140   24.6870 C   0  0  0  0  0  1  0  0  0  0  0  0
  -27.5920  -32.5530   25.8020 C   0  0  0  0  0  1  0  0  0  0  0  0
  1  2  2  0
  2  4  1  0
  2  5  1  0
  3  1  1  0
  3 57  1  0
  6  3  1  0
  7 10  1  0
  8 10  2  0
  9 11  1  0
  9 12  2  0
 10  1  1  0
 11  7  2  0
 12 21  1  0
 12  8  1  0
 13 21  1  0
 13 19  1  0
 14 19  1  0
 15 16  1  0
 15 14  1  0
 17 16  1  0
 17 26  1  0
 17 18  1  0
 19 18  1  0
 20 13  2  0
 21 22  1  0
 23 24  2  0
 24 43  1  0
 25 24  1  0
 25 28  1  0
 26 27  1  0
 26 23  1  0
 27 25  2  0
 28 29  1  0
 29 30  2  0
 31 34  1  0
 31 30  1  0
 32 31  2  0
 33 32  1  0
 33 28  2  0
 34 35  1  0
 35 40  2  0
 35 36  1  0
 36 37  2  0
 37 38  1  0
 38 42  1  0
 39 38  2  0
 40 39  1  0
 41 40  1  0
 43 44  1  0
 44 47  1  0
 44 46  1  0
 45 43  2  0
 48 49  1  0
 48 23  1  0
 50 48  1  0
 54 52  1  6
 53 54  1  0
 54 11  1  0
 54 51  1  0
 57 55  1  1
 57 56  1  0
 58 57  1  0
 61 59  1  6
 60 61  1  0
 61 62  1  0
 61 58  1  0
 62 64  1  0
 63 74  2  0
 64 69  1  0
 65 73  1  0
 65 75  1  0
 66 72  1  0
 66 68  1  0
 67 73  1  0
 68 67  1  0
 69 68  2  0
 70 71  1  0
 70 64  2  0
 71 66  2  0
 72 65  1  0
 73 63  1  0
 75 77  2  0
 76 75  1  0
 78 76  1  0
 79 88  2  0
 79 84  1  0
 80 76  1  0
 80 84  1  0
 81 80  1  0
 82 83  1  0
 82 81  1  0
 83 79  1  0
 84 85  2  0
 85 86  1  0
 87 86  2  0
 88 87  1  0
 89 63  1  0
 89 90  1  0
 89 99  1  0
 90 93  1  0
 91 95  1  0
 91 90  1  0
 92 91  2  0
 95 94  1  0
 97 95  1  0
 97 98  1  0
 97 96  1  0
 99102  1  1
 99100  1  0
101 99  1  0
M  ISO  4  13 100  21 100  61 101  62 101
M  END
>  <TORSDO>  (90) 
F 21

>  <SCORE>  (90) 
-12.581

>  <name>  (90) 
89

>  <ligand_id>  (90) 
89

>  <original_smiles>  (90) 
[H]c1c([H])c([H])c2c(c1[H])C([H])([H])C([H])([H])C([H])([H])C2([H])N([H])C(=O)C1([H])N(C(=O)C([H])(N([H])C(=O)C([H])(N([H])C([H])([H])[H])C([H])([H])[H])C(C([H])([H])[H])(C([H])([H])[H])C([H])([H])[H])C([H])([H])c2c([H])c(OC(C([H])([H])[H])(C([H])([H])[H])C([H])([H])C([N+]([H])=C(c3c([H])c(N([H])C(=O)N4C([H])([H])C([H])([H])C([H])([H])C([H])(n5nc(-c6c([H])c([H])c(Oc7c([H])c([H])c(F)c([H])c7F)c([H])c6[H])c(C(=O)N([H])[H])c5N([H])[H])C4([H])[H])c([H])c(C(C([H])([H])[H])(C([H])([H])[H])C([H])([H])[H])c3[H])N([H])[H])(C([H])([H])[H])C([H])([H])[H])c([H])c([H])c2C1([H])[H]

>  <smiles>  (90) 
[H]c1c([H])c([H])c2c(c1[H])C([H])([H])C([H])([H])C([H])([H])C2([H])N([H])C(=O)C1([H])N(C(=O)C([H])(N([H])C(=O)C([H])(N([H])C([H])([H])[H])C([H])([H])[H])C(C([H])([H])[H])(C([H])([H])[H])C([H])([H])[H])C([H])([H])c2c([H])c(OC(C([H])([H])[H])(C([H])([H])[H])C([H])([H])C([N+]([H])=C(c3c([H])c(N([H])C(=O)N4C([H])([H])C([H])([H])C([H])([H])C([H])(n5nc(-c6c([H])c([H])c(Oc7c([H])c([H])c(F)c([H])c7F)c([H])c6[H])c(C(=O)N([H])[H])c5N([H])[H])C4([H])[H])c([H])c(C(C([H])([H])[H])(C([H])([H])[H])C([H])([H])[H])c3[H])N([H])[H])(C([H])([H])[H])C([H])([H])[H])c([H])c([H])c2C1([H])[H]

$$$$
90:0:0
     RDKit          3D

 95103  0  0  1  0  0  0  0  0999 V2000
  -29.2570  -21.7070   19.8340 C   0  0  0  0  0  0  0  0  0  0  0  0
  -28.9670  -21.2360   18.7290 O   0  0  0  0  0  0  0  0  0  0  0  0
  -27.9400  -20.2620   21.3890 C   0  0  0  0  0  1  0  0  0  0  0  0
  -29.9050  -21.4590   22.3270 C   0  0  0  0  0  1  0  0  0  0  0  0
  -29.3730  -20.7410   21.0630 C   0  0  2  0  0  0  0  0  0  0  0  0
  -32.6230  -18.7920   20.3530 C   0  0  0  0  0  3  0  0  0  0  0  0
  -31.6890  -19.8250   20.5160 C   0  0  0  0  0  3  0  0  0  0  0  0
  -32.2140  -17.4510   20.4040 C   0  0  0  0  0  3  0  0  0  0  0  0
  -29.9200  -18.1700   20.7720 C   0  0  0  0  0  3  0  0  0  0  0  0
  -30.3250  -19.5440   20.7570 C   0  0  0  0  0  0  0  0  0  0  0  0
  -30.8500  -17.1070   20.5750 C   0  0  0  0  0  0  0  0  0  0  0  0
  -31.0090  -14.6530   20.0250 C   0  0  0  0  0  0  0  0  0  0  0  0
  -30.6320  -12.4510   18.9730 C   0  0  0  0  0  2  0  0  0  0  0  0
  -29.6640  -12.6100   17.7840 C   0  0  0  0  0  2  0  0  0  0  0  0
  -28.2060  -12.4820   18.2620 C   0  0  0  0  0  2  0  0  0  0  0  0
  -27.9020  -13.3670   19.5010 C   0  0  0  0  0  3  0  0  0  0  0  0
  -28.9920  -13.2220   20.5870 C   0  0  0  0  0  2  0  0  0  0  0  0
  -30.2970  -13.4900   19.9650 N   0  0  0  0  0  0  0  0  0  0  0  0
  -32.1090  -14.7460   19.4780 O   0  0  0  0  0  0  0  0  0  0  0  0
  -30.4010  -15.7310   20.5820 N   0  0  0  0  0  0  0  0  0  0  0  0
  -29.4690  -15.5630   20.9290 H   0  0  0  0  0  0  0  0  0  0  0  0
  -25.5420  -13.9870   20.3100 C   0  0  0  0  0  0  0  0  0  0  0  0
  -24.4800  -13.2230   20.7120 C   0  0  0  0  0  0  0  0  0  0  0  0
  -24.9240  -11.8670   20.6500 C   0  0  0  0  0  0  0  0  0  0  0  0
  -26.5670  -13.0980   20.0300 N   0  0  0  0  0  0  0  0  0  0  0  0
  -26.2020  -11.8170   20.2940 N   0  0  0  0  0  0  0  0  0  0  0  0
  -24.1920  -10.6100   20.8560 C   0  0  0  0  0  0  0  0  0  0  0  0
  -24.5890   -9.6760   21.8370 C   0  0  0  0  0  3  0  0  0  0  0  0
  -23.8590   -8.4830   22.0280 C   0  0  0  0  0  3  0  0  0  0  0  0
  -22.7150   -8.2180   21.2380 C   0  0  0  0  0  0  0  0  0  0  0  0
  -22.3360   -9.1410   20.2480 C   0  0  0  0  0  3  0  0  0  0  0  0
  -23.0680  -10.3240   20.0550 C   0  0  0  0  0  3  0  0  0  0  0  0
  -21.9570   -7.0750   21.3360 O   0  0  0  0  0  0  0  0  0  0  0  0
  -21.7980   -6.4180   22.5290 C   0  0  0  0  0  0  0  0  0  0  0  0
  -21.2220   -7.0470   23.6560 C   0  0  0  0  0  3  0  0  0  0  0  0
  -21.0130   -6.3140   24.8410 C   0  0  0  0  0  3  0  0  0  0  0  0
  -21.3680   -4.9520   24.9000 C   0  0  0  0  0  0  0  0  0  0  0  0
  -21.9360   -4.3240   23.7780 C   0  0  0  0  0  3  0  0  0  0  0  0
  -22.1470   -5.0550   22.5960 C   0  0  0  0  0  0  0  0  0  0  0  0
  -22.6740   -4.4370   21.5100 F   0  0  0  0  0  0  0  0  0  0  0  0
  -21.1600   -4.2460   26.0350 F   0  0  0  0  0  0  0  0  0  0  0  0
  -23.1000  -13.7130   21.0430 C   0  0  0  0  0  0  0  0  0  0  0  0
  -22.3960  -13.0120   21.9250 N   0  0  0  0  0  0  0  0  0  0  0  0
  -22.6550  -14.7500   20.5530 O   0  0  0  0  0  0  0  0  0  0  0  0
  -22.7700  -12.1710   22.3420 H   0  0  0  0  0  0  0  0  0  0  0  0
  -21.4720  -13.3200   22.1890 H   0  0  0  0  0  0  0  0  0  0  0  0
  -25.7150  -15.3580   20.1380 N   0  0  0  0  0  0  0  0  0  0  0  0
  -24.9570  -16.0180   20.2740 H   0  0  0  0  0  0  0  0  0  0  0  0
  -26.5530  -15.7880   19.7640 H   0  0  0  0  0  0  0  0  0  0  0  0
  -29.5050  -23.2420   19.9350 C   0  0  0  0  0  2  0  0  0  0  0  0
  -26.9920  -23.6340   19.4780 C   0  0  0  0  0  1  0  0  0  0  0  0
  -28.0220  -24.5520   21.5490 C   0  0  0  0  0  1  0  0  0  0  0  0
  -28.2890  -24.2500   20.0600 C   0  0  1  0  0  0  0  0  0  0  0  0
  -28.6260  -25.5870   19.2780 C   0  0  0  0  0  2  0  0  0  0  0  0
  -28.4770  -26.8600   19.9490 O   0  0  0  0  0  0  0  0  0  0  0  0
  -24.5830  -31.8740   23.1840 C   0  0  0  0  0  0  0  0  0  0  0  0
  -27.2860  -27.5690   19.9280 C   0  0  0  0  0  0  0  0  0  0  0  0
  -23.3910  -30.5040   21.5040 C   0  0  0  0  0  3  0  0  0  0  0  0
  -24.8630  -29.0480   20.0140 C   0  0  0  0  0  0  0  0  0  0  0  0
  -25.9120  -30.9090   21.3080 C   0  0  0  0  0  2  0  0  0  0  0  0
  -26.0140  -29.5610   20.6200 C   0  0  0  0  0  0  0  0  0  0  0  0
  -27.2230  -28.8230   20.5850 C   0  0  0  0  0  3  0  0  0  0  0  0
  -26.1180  -27.0940   19.2920 C   0  0  0  0  0  3  0  0  0  0  0  0
  -24.9090  -27.8110   19.3510 C   0  0  0  0  0  3  0  0  0  0  0  0
  -23.6030  -29.8800   20.1000 C   0  0  0  0  0  2  0  0  0  0  0  0
  -24.6470  -31.1100   22.0560 N   0  0  0  0  0  0  0  0  0  0  0  0
  -23.5010  -32.1040   23.7410 O   0  0  0  0  0  0  0  0  0  0  0  0
  -22.7700  -29.4360   22.4330 C   0  0  0  0  0  0  0  0  0  0  0  0
  -21.4510  -29.2200   22.2980 N   0  0  0  0  0  0  0  0  0  0  0  0
  -23.4710  -28.8090   23.2300 O   0  0  0  0  0  0  0  0  0  0  0  0
  -20.9440  -29.7800   21.6290 H   0  0  0  0  0  0  0  0  0  0  0  0
  -18.1140  -27.9100   22.7520 C   0  0  0  0  0  0  0  0  0  0  0  0
  -20.6630  -28.2370   23.0420 C   0  0  0  0  0  3  0  0  0  0  0  0
  -20.8090  -26.8250   22.4280 C   0  0  0  0  0  2  0  0  0  0  0  0
  -19.7210  -26.4970   21.4020 C   0  0  0  0  0  2  0  0  0  0  0  0
  -18.3340  -26.5850   22.0430 C   0  0  0  0  0  2  0  0  0  0  0  0
  -19.2080  -28.6930   23.2090 C   0  0  0  0  0  0  0  0  0  0  0  0
  -18.9500  -29.9340   23.8290 C   0  0  0  0  0  3  0  0  0  0  0  0
  -17.6300  -30.3930   24.0030 C   0  0  0  0  0  3  0  0  0  0  0  0
  -16.5500  -29.6060   23.5650 C   0  0  0  0  0  3  0  0  0  0  0  0
  -16.7930  -28.3670   22.9430 C   0  0  0  0  0  3  0  0  0  0  0  0
  -25.8610  -32.5090   23.8140 C   0  0  0  0  0  3  0  0  0  0  0  0
  -25.5410  -33.9020   24.1530 N   0  0  0  0  0  0  0  0  0  0  0  0
  -25.8660  -34.9610   23.4010 C   0  0  0  0  0  0  0  0  0  0  0  0
  -26.5390  -34.8720   22.3700 O   0  0  0  0  0  0  0  0  0  0  0  0
  -24.9470  -34.0470   24.9560 H   0  0  0  0  0  0  0  0  0  0  0  0
  -24.1220  -36.7400   23.0560 C   0  0  0  0  0  1  0  0  0  0  0  0
  -25.3650  -36.3410   23.8680 C   0  0  0  0  0  3  0  0  0  0  0  0
  -27.4840  -37.2450   24.7190 C   0  0  0  0  0  1  0  0  0  0  0  0
  -26.3880  -37.4050   23.7660 N   0  0  0  0  0  0  0  0  0  0  0  0
  -25.9720  -38.3200   23.9130 H   0  0  0  0  0  0  0  0  0  0  0  0
  -26.3830  -31.7310   25.0840 C   0  0  1  0  0  0  0  0  0  0  0  0
  -25.2890  -31.4690   26.1450 C   0  0  0  0  0  1  0  0  0  0  0  0
  -26.9830  -30.3650   24.6800 C   0  0  0  0  0  1  0  0  0  0  0  0
  -27.5240  -32.5310   25.7570 C   0  0  0  0  0  1  0  0  0  0  0  0
  1 50  1  0
  1  5  1  0
  2  1  2  0
  5  3  1  1
  5  4  1  0
  6  8  2  0
  6  7  1  0
  7 10  2  0
  8 11  1  0
 10  9  1  0
 10  5  1  0
 11 20  1  0
 11  9  2  0
 12 20  1  0
 13 18  1  0
 14 15  1  0
 14 13  1  0
 16 15  1  0
 16 25  1  0
 16 17  1  0
 18 12  1  0
 18 17  1  0
 19 12  2  0
 20 21  1  0
 22 23  2  0
 23 42  1  0
 24 23  1  0
 24 27  1  0
 25 26  1  0
 25 22  1  0
 26 24  2  0
 27 28  1  0
 28 29  2  0
 30 33  1  0
 30 29  1  0
 31 30  2  0
 32 31  1  0
 32 27  2  0
 33 34  1  0
 34 39  2  0
 34 35  1  0
 35 36  2  0
 36 37  1  0
 37 41  1  0
 38 37  2  0
 39 38  1  0
 40 39  1  0
 42 43  1  0
 43 46  1  0
 43 45  1  0
 44 42  2  0
 47 48  1  0
 47 22  1  0
 49 47  1  0
 50 53  1  0
 53 51  1  6
 53 52  1  0
 54 55  1  0
 54 53  1  0
 56 67  2  0
 57 55  1  0
 57 62  1  0
 58 66  1  0
 58 68  1  0
 59 65  1  0
 59 61  1  0
 60 66  1  0
 61 60  1  0
 62 61  2  0
 63 64  1  0
 63 57  2  0
 64 59  2  0
 65 58  1  0
 66 56  1  0
 68 70  2  0
 69 68  1  0
 71 69  1  0
 72 81  2  0
 72 77  1  0
 73 69  1  0
 73 77  1  0
 74 73  1  0
 75 76  1  0
 75 74  1  0
 76 72  1  0
 77 78  2  0
 78 79  1  0
 80 79  2  0
 81 80  1  0
 82 56  1  0
 82 83  1  0
 82 92  1  0
 83 86  1  0
 84 88  1  0
 84 83  1  0
 85 84  2  0
 88 87  1  0
 90 88  1  0
 90 91  1  0
 90 89  1  0
 92 95  1  1
 92 93  1  0
 94 92  1  0
M  ISO  4  12 100  20 100  54 101  55 101
M  END
>  <TORSDO>  (91) 
F 21

>  <SCORE>  (91) 
-12.639

>  <name>  (91) 
90

>  <ligand_id>  (91) 
90

>  <original_smiles>  (91) 
[H]c1c([H])c([H])c2c(c1[H])C([H])([H])C([H])([H])C([H])([H])C2([H])N([H])C(=O)C1([H])N(C(=O)C([H])(N([H])C(=O)C([H])(N([H])C([H])([H])[H])C([H])([H])[H])C(C([H])([H])[H])(C([H])([H])[H])C([H])([H])[H])C([H])([H])c2c([H])c(OC([H])([H])C(C([H])([H])[H])(C([H])([H])[H])C([H])([H])C(=O)C(c3c([H])c([H])c([H])c(N([H])C(=O)N4C([H])([H])C([H])([H])C([H])([H])C([H])(n5nc(-c6c([H])c([H])c(Oc7c([H])c([H])c(F)c([H])c7F)c([H])c6[H])c(C(=O)N([H])[H])c5N([H])[H])C4([H])[H])c3[H])(C([H])([H])[H])C([H])([H])[H])c([H])c([H])c2C1([H])[H]

>  <smiles>  (91) 
[H]c1c([H])c([H])c2c(c1[H])C([H])([H])C([H])([H])C([H])([H])C2([H])N([H])C(=O)C1([H])N(C(=O)C([H])(N([H])C(=O)C([H])(N([H])C([H])([H])[H])C([H])([H])[H])C(C([H])([H])[H])(C([H])([H])[H])C([H])([H])[H])C([H])([H])c2c([H])c(OC([H])([H])C(C([H])([H])[H])(C([H])([H])[H])C([H])([H])C(=O)C(c3c([H])c([H])c([H])c(N([H])C(=O)N4C([H])([H])C([H])([H])C([H])([H])C([H])(n5nc(-c6c([H])c([H])c(Oc7c([H])c([H])c(F)c([H])c7F)c([H])c6[H])c(C(=O)N([H])[H])c5N([H])[H])C4([H])[H])c3[H])(C([H])([H])[H])C([H])([H])[H])c([H])c([H])c2C1([H])[H]

$$$$
91:0:0
     RDKit          3D

 94102  0  0  1  0  0  0  0  0999 V2000
  -28.9870  -22.6610   20.3400 C   0  0  0  0  0  0  0  0  0  0  0  0
  -30.1080  -22.9560   20.7600 O   0  0  0  0  0  0  0  0  0  0  0  0
  -27.3210  -24.1860   21.4900 C   0  0  0  0  0  1  0  0  0  0  0  0
  -27.9430  -23.8660   20.1160 C   0  0  2  0  0  0  0  0  0  0  0  0
  -25.5850  -22.6850   19.6480 C   0  0  0  0  0  1  0  0  0  0  0  0
  -26.8290  -23.4240   19.1040 C   0  0  0  0  0  2  0  0  0  0  0  0
  -28.5940  -25.2670   19.5930 C   0  0  0  0  0  2  0  0  0  0  0  0
  -28.4600  -26.5940   20.2830 O   0  0  0  0  0  0  0  0  0  0  0  0
  -24.5870  -31.9230   23.2670 C   0  0  0  0  0  0  0  0  0  0  0  0
  -27.3320  -27.4290   20.1990 C   0  0  0  0  0  0  0  0  0  0  0  0
  -23.4450  -30.5280   21.5800 C   0  0  0  0  0  3  0  0  0  0  0  0
  -24.9530  -29.0230   20.1630 C   0  0  0  0  0  0  0  0  0  0  0  0
  -25.9870  -30.8730   21.4740 C   0  0  0  0  0  2  0  0  0  0  0  0
  -26.0950  -29.5050   20.8110 C   0  0  0  0  0  0  0  0  0  0  0  0
  -27.2830  -28.7120   20.8340 C   0  0  0  0  0  3  0  0  0  0  0  0
  -26.1770  -27.0270   19.4980 C   0  0  0  0  0  3  0  0  0  0  0  0
  -24.9940  -27.7890   19.5010 C   0  0  0  0  0  3  0  0  0  0  0  0
  -23.7030  -29.8770   20.1970 C   0  0  0  0  0  2  0  0  0  0  0  0
  -24.6900  -31.1290   22.1620 N   0  0  0  0  0  0  0  0  0  0  0  0
  -23.4860  -32.1790   23.7800 O   0  0  0  0  0  0  0  0  0  0  0  0
  -22.7780  -29.4870   22.5120 C   0  0  0  0  0  0  0  0  0  0  0  0
  -21.4550  -29.3080   22.3710 N   0  0  0  0  0  0  0  0  0  0  0  0
  -23.4520  -28.8470   23.3230 O   0  0  0  0  0  0  0  0  0  0  0  0
  -20.9670  -29.8810   21.6960 H   0  0  0  0  0  0  0  0  0  0  0  0
  -18.0690  -28.1250   22.8590 C   0  0  0  0  0  0  0  0  0  0  0  0
  -20.6330  -28.3490   23.1130 C   0  0  0  0  0  3  0  0  0  0  0  0
  -20.7140  -26.9380   22.4840 C   0  0  0  0  0  2  0  0  0  0  0  0
  -19.6000  -26.6650   21.4690 C   0  0  0  0  0  2  0  0  0  0  0  0
  -18.2250  -26.8010   22.1310 C   0  0  0  0  0  2  0  0  0  0  0  0
  -19.1990  -28.8600   23.3070 C   0  0  0  0  0  0  0  0  0  0  0  0
  -18.9980  -30.1030   23.9470 C   0  0  0  0  0  3  0  0  0  0  0  0
  -17.6990  -30.6100   24.1400 C   0  0  0  0  0  3  0  0  0  0  0  0
  -16.5840  -29.8710   23.7090 C   0  0  0  0  0  3  0  0  0  0  0  0
  -16.7710  -28.6300   23.0750 C   0  0  0  0  0  3  0  0  0  0  0  0
  -25.8460  -32.5670   23.9280 C   0  0  0  0  0  3  0  0  0  0  0  0
  -25.5240  -33.9710   24.2200 N   0  0  0  0  0  0  0  0  0  0  0  0
  -25.8840  -35.0130   23.4570 C   0  0  0  0  0  0  0  0  0  0  0  0
  -26.5950  -34.8920   22.4540 O   0  0  0  0  0  0  0  0  0  0  0  0
  -24.9040  -34.1400   24.9980 H   0  0  0  0  0  0  0  0  0  0  0  0
  -24.1830  -36.8080   22.9950 C   0  0  0  0  0  1  0  0  0  0  0  0
  -25.3780  -36.4070   23.8730 C   0  0  0  0  0  3  0  0  0  0  0  0
  -27.4640  -37.3050   24.8080 C   0  0  0  0  0  1  0  0  0  0  0  0
  -26.4160  -37.4570   23.8010 N   0  0  0  0  0  0  0  0  0  0  0  0
  -26.0030  -38.3790   23.9080 H   0  0  0  0  0  0  0  0  0  0  0  0
  -26.3120  -31.8230   25.2410 C   0  0  1  0  0  0  0  0  0  0  0  0
  -25.1750  -31.6000   26.2660 C   0  0  0  0  0  1  0  0  0  0  0  0
  -26.9220  -30.4430   24.9020 C   0  0  0  0  0  1  0  0  0  0  0  0
  -27.4280  -32.6400   25.9330 C   0  0  0  0  0  1  0  0  0  0  0  0
  -28.5930  -21.1110   20.1830 C   0  0  0  0  0  2  0  0  0  0  0  0
  -29.3480  -18.5310   20.3600 C   0  0  0  0  0  3  0  0  0  0  0  0
  -30.9880  -20.2070   19.7110 C   0  0  0  0  0  3  0  0  0  0  0  0
  -31.6340  -17.8560   19.9140 C   0  0  0  0  0  3  0  0  0  0  0  0
  -29.6600  -19.9300   20.1020 C   0  0  0  0  0  0  0  0  0  0  0  0
  -30.3190  -17.4530   20.2600 C   0  0  0  0  0  0  0  0  0  0  0  0
  -31.9570  -19.1950   19.6390 C   0  0  0  0  0  0  0  0  0  0  0  0
  -33.2260  -19.5160   19.2940 F   0  0  0  0  0  0  0  0  0  0  0  0
  -30.7490  -14.8730   20.2860 C   0  0  0  0  0  0  0  0  0  0  0  0
  -30.5120  -12.6210   19.2700 C   0  0  0  0  0  2  0  0  0  0  0  0
  -29.5720  -12.7100   18.0540 C   0  0  0  0  0  2  0  0  0  0  0  0
  -28.1020  -12.5530   18.4890 C   0  0  0  0  0  2  0  0  0  0  0  0
  -27.7390  -13.4300   19.7190 C   0  0  0  0  0  3  0  0  0  0  0  0
  -28.8020  -13.3350   20.8320 C   0  0  0  0  0  2  0  0  0  0  0  0
  -30.0980  -13.6670   20.2300 N   0  0  0  0  0  0  0  0  0  0  0  0
  -31.9430  -14.9200   19.9800 O   0  0  0  0  0  0  0  0  0  0  0  0
  -29.9950  -16.0200   20.4880 N   0  0  0  0  0  0  0  0  0  0  0  0
  -29.0340  -15.8310   20.7280 H   0  0  0  0  0  0  0  0  0  0  0  0
  -25.3600  -14.0070   20.4810 C   0  0  0  0  0  0  0  0  0  0  0  0
  -24.3020  -13.2260   20.8600 C   0  0  0  0  0  0  0  0  0  0  0  0
  -24.7710  -11.8770   20.8120 C   0  0  0  0  0  0  0  0  0  0  0  0
  -26.4030  -13.1320   20.2230 N   0  0  0  0  0  0  0  0  0  0  0  0
  -26.0570  -11.8460   20.4890 N   0  0  0  0  0  0  0  0  0  0  0  0
  -24.0510  -10.6090   21.0000 C   0  0  0  0  0  0  0  0  0  0  0  0
  -24.4740   -9.6530   21.9480 C   0  0  0  0  0  3  0  0  0  0  0  0
  -23.7540   -8.4510   22.1260 C   0  0  0  0  0  3  0  0  0  0  0  0
  -22.5960   -8.1960   21.3510 C   0  0  0  0  0  0  0  0  0  0  0  0
  -22.1910   -9.1420   20.3940 C   0  0  0  0  0  3  0  0  0  0  0  0
  -22.9130  -10.3350   20.2150 C   0  0  0  0  0  3  0  0  0  0  0  0
  -21.8470   -7.0480   21.4370 O   0  0  0  0  0  0  0  0  0  0  0  0
  -21.7780   -6.3180   22.5960 C   0  0  0  0  0  0  0  0  0  0  0  0
  -21.2790   -6.8730   23.7950 C   0  0  0  0  0  3  0  0  0  0  0  0
  -21.1600   -6.0680   24.9470 C   0  0  0  0  0  3  0  0  0  0  0  0
  -21.5280   -4.7100   24.8980 C   0  0  0  0  0  0  0  0  0  0  0  0
  -22.0140   -4.1550   23.7020 C   0  0  0  0  0  3  0  0  0  0  0  0
  -22.1370   -4.9560   22.5530 C   0  0  0  0  0  0  0  0  0  0  0  0
  -22.5880   -4.4110   21.3980 F   0  0  0  0  0  0  0  0  0  0  0  0
  -21.4040   -3.9340   26.0000 F   0  0  0  0  0  0  0  0  0  0  0  0
  -22.9060  -13.6940   21.1500 C   0  0  0  0  0  0  0  0  0  0  0  0
  -22.1890  -12.9820   22.0130 N   0  0  0  0  0  0  0  0  0  0  0  0
  -22.4600  -14.7200   20.6420 O   0  0  0  0  0  0  0  0  0  0  0  0
  -22.5680  -12.1490   22.4400 H   0  0  0  0  0  0  0  0  0  0  0  0
  -21.2490  -13.2670   22.2470 H   0  0  0  0  0  0  0  0  0  0  0  0
  -25.5180  -15.3790   20.3110 N   0  0  0  0  0  0  0  0  0  0  0  0
  -24.7470  -16.0290   20.4220 H   0  0  0  0  0  0  0  0  0  0  0  0
  -26.3480  -15.8130   19.9260 H   0  0  0  0  0  0  0  0  0  0  0  0
  1  2  2  0
  4  1  1  0
  4  3  1  1
  6  5  1  0
  6  4  1  0
  7  4  1  0
  7  8  1  0
  9 20  2  0
 10  8  1  0
 10 15  1  0
 11 19  1  0
 11 21  1  0
 12 18  1  0
 12 14  1  0
 13 19  1  0
 14 15  2  0
 14 13  1  0
 16 17  1  0
 16 10  2  0
 17 12  2  0
 18 11  1  0
 19  9  1  0
 21 23  2  0
 22 21  1  0
 24 22  1  0
 25 34  2  0
 25 30  1  0
 26 22  1  0
 26 30  1  0
 27 26  1  0
 28 29  1  0
 28 27  1  0
 29 25  1  0
 30 31  2  0
 31 32  1  0
 33 32  2  0
 34 33  1  0
 35  9  1  0
 35 36  1  0
 35 45  1  0
 36 39  1  0
 37 41  1  0
 37 36  1  0
 38 37  2  0
 41 40  1  0
 43 41  1  0
 43 44  1  0
 43 42  1  0
 45 48  1  1
 45 46  1  0
 47 45  1  0
 49  1  1  0
 51 53  1  0
 52 54  2  0
 53 49  1  0
 53 50  2  0
 54 50  1  0
 54 65  1  0
 55 51  2  0
 55 52  1  0
 56 55  1  0
 57 65  1  0
 58 63  1  0
 59 60  1  0
 59 58  1  0
 61 60  1  0
 61 70  1  0
 61 62  1  0
 63 57  1  0
 63 62  1  0
 64 57  2  0
 65 66  1  0
 67 68  2  0
 68 87  1  0
 69 68  1  0
 69 72  1  0
 70 67  1  0
 70 71  1  0
 71 69  2  0
 72 73  1  0
 73 74  2  0
 75 78  1  0
 75 74  1  0
 76 75  2  0
 77 76  1  0
 77 72  2  0
 78 79  1  0
 79 80  1  0
 80 81  2  0
 82 81  1  0
 82 86  1  0
 83 82  2  0
 84 79  2  0
 84 83  1  0
 85 84  1  0
 87 88  1  0
 88 91  1  0
 88 90  1  0
 89 87  2  0
 92 93  1  0
 92 67  1  0
 94 92  1  0
M  ISO  4   7 101   8 101  57 100  65 100
M  END
>  <TORSDO>  (92) 
F 21

>  <SCORE>  (92) 
-13.658

>  <name>  (92) 
91

>  <ligand_id>  (92) 
91

>  <original_smiles>  (92) 
[H]c1c([H])c([H])c2c(c1[H])C([H])([H])C([H])([H])C([H])([H])C2([H])N([H])C(=O)C1([H])N(C(=O)C([H])(N([H])C(=O)C([H])(N([H])C([H])([H])[H])C([H])([H])[H])C(C([H])([H])[H])(C([H])([H])[H])C([H])([H])[H])C([H])([H])c2c([H])c(OC([H])([H])C(C(=O)C([H])([H])c3c([H])c(F)c([H])c(N([H])C(=O)N4C([H])([H])C([H])([H])C([H])([H])C([H])(n5nc(-c6c([H])c([H])c(Oc7c([H])c([H])c(F)c([H])c7F)c([H])c6[H])c(C(=O)N([H])[H])c5N([H])[H])C4([H])[H])c3[H])(C([H])([H])[H])C([H])([H])C([H])([H])[H])c([H])c([H])c2C1([H])[H]

>  <smiles>  (92) 
[H]c1c([H])c([H])c2c(c1[H])C([H])([H])C([H])([H])C([H])([H])C2([H])N([H])C(=O)C1([H])N(C(=O)C([H])(N([H])C(=O)C([H])(N([H])C([H])([H])[H])C([H])([H])[H])C(C([H])([H])[H])(C([H])([H])[H])C([H])([H])[H])C([H])([H])c2c([H])c(OC([H])([H])C(C(=O)C([H])([H])c3c([H])c(F)c([H])c(N([H])C(=O)N4C([H])([H])C([H])([H])C([H])([H])C([H])(n5nc(-c6c([H])c([H])c(Oc7c([H])c([H])c(F)c([H])c7F)c([H])c6[H])c(C(=O)N([H])[H])c5N([H])[H])C4([H])[H])c3[H])(C([H])([H])[H])C([H])([H])C([H])([H])[H])c([H])c([H])c2C1([H])[H]

$$$$
92:0:0
     RDKit          3D

 96105  0  0  1  0  0  0  0  0999 V2000
  -27.0990  -23.1520   20.7880 C   0  0  0  0  0  2  0  0  0  0  0  0
  -27.3120  -21.6660   20.5110 C   0  0  0  0  0  2  0  0  0  0  0  0
  -28.6010  -23.3900   20.5880 C   0  0  1  0  0  0  0  0  0  0  0  0
  -29.4420  -23.8200   21.8010 C   0  0  0  0  0  1  0  0  0  0  0  0
  -28.7270  -21.9140   20.2300 N   0  0  1  0  0  4  0  0  0  0  0  0
  -28.9120  -21.9030   19.2330 H   0  0  0  0  0  0  0  0  0  0  0  0
  -28.9290  -24.2200   19.3210 C   0  0  0  0  0  0  0  0  0  0  0  0
  -29.1870  -23.6240   18.2700 O   0  0  0  0  0  0  0  0  0  0  0  0
  -30.4880  -26.1950   19.4300 C   0  0  0  0  0  1  0  0  0  0  0  0
  -28.6050  -26.3210   17.8360 C   0  0  0  0  0  1  0  0  0  0  0  0
  -29.0040  -25.8180   19.2500 C   0  0  1  0  0  0  0  0  0  0  0  0
  -28.3990  -26.6060   20.3280 O   0  0  0  0  0  0  0  0  0  0  0  0
  -24.5850  -31.9310   23.2260 C   0  0  0  0  0  0  0  0  0  0  0  0
  -27.2590  -27.4050   20.2030 C   0  0  0  0  0  0  0  0  0  0  0  0
  -23.3970  -30.5100   21.5900 C   0  0  0  0  0  3  0  0  0  0  0  0
  -24.8660  -28.9580   20.1810 C   0  0  0  0  0  0  0  0  0  0  0  0
  -25.9300  -30.8560   21.4120 C   0  0  0  0  0  2  0  0  0  0  0  0
  -26.0230  -29.4750   20.7770 C   0  0  0  0  0  0  0  0  0  0  0  0
  -27.2170  -28.7030   20.7880 C   0  0  0  0  0  3  0  0  0  0  0  0
  -26.0730  -26.9130   19.6170 C   0  0  0  0  0  3  0  0  0  0  0  0
  -24.8910  -27.6790   19.5970 C   0  0  0  0  0  3  0  0  0  0  0  0
  -23.6190  -29.8190   20.2170 C   0  0  0  0  0  2  0  0  0  0  0  0
  -24.6560  -31.1160   22.1340 N   0  0  0  0  0  0  0  0  0  0  0  0
  -23.4980  -32.2050   23.7550 O   0  0  0  0  0  0  0  0  0  0  0  0
  -22.7400  -29.4980   22.5570 C   0  0  0  0  0  0  0  0  0  0  0  0
  -21.4140  -29.3130   22.4270 N   0  0  0  0  0  0  0  0  0  0  0  0
  -23.4190  -28.8810   23.3820 O   0  0  0  0  0  0  0  0  0  0  0  0
  -20.9290  -29.8630   21.7330 H   0  0  0  0  0  0  0  0  0  0  0  0
  -18.0380  -28.1210   22.9310 C   0  0  0  0  0  0  0  0  0  0  0  0
  -20.5960  -28.3800   23.2010 C   0  0  0  0  0  3  0  0  0  0  0  0
  -20.6980  -26.9470   22.6280 C   0  0  0  0  0  2  0  0  0  0  0  0
  -19.5950  -26.6220   21.6160 C   0  0  0  0  0  2  0  0  0  0  0  0
  -18.2130  -26.7700   22.2600 C   0  0  0  0  0  2  0  0  0  0  0  0
  -19.1570  -28.8840   23.3590 C   0  0  0  0  0  0  0  0  0  0  0  0
  -18.9390  -30.1500   23.9450 C   0  0  0  0  0  3  0  0  0  0  0  0
  -17.6350  -30.6520   24.1120 C   0  0  0  0  0  3  0  0  0  0  0  0
  -16.5300  -29.8850   23.7020 C   0  0  0  0  0  3  0  0  0  0  0  0
  -16.7330  -28.6230   23.1160 C   0  0  0  0  0  3  0  0  0  0  0  0
  -25.8620  -32.5760   23.8500 C   0  0  0  0  0  3  0  0  0  0  0  0
  -26.3790  -31.8180   25.1350 C   0  0  1  0  0  0  0  0  0  0  0  0
  -25.2830  -31.5790   26.2000 C   0  0  0  0  0  1  0  0  0  0  0  0
  -26.9740  -30.4420   24.7540 C   0  0  0  0  0  1  0  0  0  0  0  0
  -27.5220  -32.6240   25.7950 C   0  0  0  0  0  1  0  0  0  0  0  0
  -25.5410  -33.9750   24.1700 N   0  0  0  0  0  0  0  0  0  0  0  0
  -25.8760  -35.0270   23.4120 C   0  0  0  0  0  0  0  0  0  0  0  0
  -26.5590  -34.9230   22.3890 O   0  0  0  0  0  0  0  0  0  0  0  0
  -24.9360  -34.1280   24.9650 H   0  0  0  0  0  0  0  0  0  0  0  0
  -24.1510  -36.8160   23.0250 C   0  0  0  0  0  1  0  0  0  0  0  0
  -25.3770  -36.4140   23.8600 C   0  0  0  0  0  3  0  0  0  0  0  0
  -27.4910  -37.3060   24.7330 C   0  0  0  0  0  1  0  0  0  0  0  0
  -26.4100  -37.4690   23.7670 N   0  0  0  0  0  0  0  0  0  0  0  0
  -26.0000  -38.3900   23.9020 H   0  0  0  0  0  0  0  0  0  0  0  0
  -29.6780  -20.9750   20.9510 C   0  0  0  0  0  2  0  0  0  0  0  0
  -29.5870  -18.2590   21.0370 C   0  0  0  0  0  3  0  0  0  0  0  0
  -30.5570  -19.2970   19.2120 C   0  0  0  0  0  3  0  0  0  0  0  0
  -29.8930  -19.5340   20.3910 C   0  0  0  0  0  0  0  0  0  0  0  0
  -30.0600  -17.1060   20.4020 C   0  0  0  0  0  0  0  0  0  0  0  0
  -30.8400  -17.5990   18.9110 S   0  0  0  0  0  0  0  0  0  0  0  0
  -30.6710  -14.6870   20.3870 C   0  0  0  0  0  0  0  0  0  0  0  0
  -30.4350  -12.4570   19.3300 C   0  0  0  0  0  2  0  0  0  0  0  0
  -29.4970  -12.5980   18.1100 C   0  0  0  0  0  2  0  0  0  0  0  0
  -28.0220  -12.4550   18.5330 C   0  0  0  0  0  2  0  0  0  0  0  0
  -27.6660  -13.3120   19.7760 C   0  0  0  0  0  3  0  0  0  0  0  0
  -28.7190  -13.1500   20.8960 C   0  0  0  0  0  2  0  0  0  0  0  0
  -30.0340  -13.4760   20.3230 N   0  0  0  0  0  0  0  0  0  0  0  0
  -31.8340  -14.8100   19.9900 O   0  0  0  0  0  0  0  0  0  0  0  0
  -29.9260  -15.7740   20.7750 N   0  0  0  0  0  0  0  0  0  0  0  0
  -29.0730  -15.5440   21.2610 H   0  0  0  0  0  0  0  0  0  0  0  0
  -25.2690  -13.9130   20.4860 C   0  0  0  0  0  0  0  0  0  0  0  0
  -24.1980  -13.1420   20.8510 C   0  0  0  0  0  0  0  0  0  0  0  0
  -24.6590  -11.7900   20.8250 C   0  0  0  0  0  0  0  0  0  0  0  0
  -26.3140  -13.0320   20.2570 N   0  0  0  0  0  0  0  0  0  0  0  0
  -25.9520  -11.7500   20.5220 N   0  0  0  0  0  0  0  0  0  0  0  0
  -23.9310  -10.5280   21.0150 C   0  0  0  0  0  0  0  0  0  0  0  0
  -24.3540   -9.5640   21.9570 C   0  0  0  0  0  3  0  0  0  0  0  0
  -23.6270   -8.3690   22.1360 C   0  0  0  0  0  3  0  0  0  0  0  0
  -22.4610   -8.1260   21.3730 C   0  0  0  0  0  0  0  0  0  0  0  0
  -22.0550   -9.0780   20.4210 C   0  0  0  0  0  3  0  0  0  0  0  0
  -22.7830  -10.2660   20.2410 C   0  0  0  0  0  3  0  0  0  0  0  0
  -21.7060   -6.9810   21.4600 O   0  0  0  0  0  0  0  0  0  0  0  0
  -21.6450   -6.2460   22.6160 C   0  0  0  0  0  0  0  0  0  0  0  0
  -21.1920   -6.8040   23.8320 C   0  0  0  0  0  3  0  0  0  0  0  0
  -21.0780   -5.9940   24.9790 C   0  0  0  0  0  3  0  0  0  0  0  0
  -21.4100   -4.6270   24.9130 C   0  0  0  0  0  0  0  0  0  0  0  0
  -21.8560   -4.0680   23.7030 C   0  0  0  0  0  3  0  0  0  0  0  0
  -21.9710   -4.8750   22.5570 C   0  0  0  0  0  0  0  0  0  0  0  0
  -22.3820   -4.3280   21.3870 F   0  0  0  0  0  0  0  0  0  0  0  0
  -21.2920   -3.8470   26.0130 F   0  0  0  0  0  0  0  0  0  0  0  0
  -22.8010  -13.6210   21.1140 C   0  0  0  0  0  0  0  0  0  0  0  0
  -22.0640  -12.9280   21.9750 N   0  0  0  0  0  0  0  0  0  0  0  0
  -22.3680  -14.6470   20.5900 O   0  0  0  0  0  0  0  0  0  0  0  0
  -22.4220  -12.0990   22.4250 H   0  0  0  0  0  0  0  0  0  0  0  0
  -21.1250  -13.2370   22.1890 H   0  0  0  0  0  0  0  0  0  0  0  0
  -25.4350  -15.2840   20.3090 N   0  0  0  0  0  0  0  0  0  0  0  0
  -24.6670  -15.9370   20.4220 H   0  0  0  0  0  0  0  0  0  0  0  0
  -26.2860  -15.7280   19.9850 H   0  0  0  0  0  0  0  0  0  0  0  0
  2  1  1  0
  3  1  1  0
  3  4  1  1
  5  2  1  0
  5  3  1  0
  5 53  1  0
  5  6  1  6
  7  3  1  0
  8  7  2  0
 11 10  1  6
 11  7  1  0
 11  9  1  0
 11 12  1  0
 13 24  2  0
 14 12  1  0
 14 19  1  0
 15 23  1  0
 15 25  1  0
 16 22  1  0
 16 18  1  0
 17 23  1  0
 18 19  2  0
 18 17  1  0
 20 14  2  0
 21 20  1  0
 21 16  2  0
 22 15  1  0
 23 13  1  0
 25 27  2  0
 26 25  1  0
 28 26  1  0
 29 38  2  0
 29 34  1  0
 30 26  1  0
 30 34  1  0
 31 30  1  0
 32 33  1  0
 32 31  1  0
 33 29  1  0
 34 35  2  0
 35 36  1  0
 37 36  2  0
 38 37  1  0
 39 13  1  0
 39 44  1  0
 39 40  1  0
 40 43  1  1
 40 41  1  0
 42 40  1  0
 44 47  1  0
 45 49  1  0
 45 44  1  0
 46 45  2  0
 49 48  1  0
 51 49  1  0
 51 52  1  0
 51 50  1  0
 55 56  2  0
 56 53  1  0
 56 54  1  0
 57 67  1  0
 57 54  2  0
 58 55  1  0
 58 57  1  0
 59 67  1  0
 60 65  1  0
 61 62  1  0
 61 60  1  0
 63 62  1  0
 63 72  1  0
 63 64  1  0
 65 59  1  0
 65 64  1  0
 66 59  2  0
 67 68  1  0
 69 70  2  0
 70 89  1  0
 71 70  1  0
 71 74  1  0
 72 69  1  0
 72 73  1  0
 73 71  2  0
 74 75  1  0
 75 76  2  0
 77 80  1  0
 77 76  1  0
 78 77  2  0
 79 78  1  0
 79 74  2  0
 80 81  1  0
 81 82  1  0
 82 83  2  0
 84 83  1  0
 84 88  1  0
 85 84  2  0
 86 81  2  0
 86 85  1  0
 87 86  1  0
 89 90  1  0
 90 93  1  0
 90 92  1  0
 91 89  2  0
 94 95  1  0
 94 69  1  0
 96 94  1  0
M  ISO  4  11 101  12 101  59 100  67 100
M  END
>  <TORSDO>  (93) 
F 20

>  <SCORE>  (93) 
-13.928

>  <name>  (93) 
92

>  <ligand_id>  (93) 
92

>  <original_smiles>  (93) 
[H]c1sc(N([H])C(=O)N2C([H])([H])C([H])([H])C([H])([H])C([H])(n3nc(-c4c([H])c([H])c(Oc5c([H])c([H])c(F)c([H])c5F)c([H])c4[H])c(C(=O)N([H])[H])c3N([H])[H])C2([H])[H])c([H])c1C([H])([H])[N+]1([H])C([H])([H])C([H])([H])C1(C(=O)C(Oc1c([H])c([H])c2c(c1[H])C([H])([H])N(C(=O)C([H])(N([H])C(=O)C([H])(N([H])C([H])([H])[H])C([H])([H])[H])C(C([H])([H])[H])(C([H])([H])[H])C([H])([H])[H])C([H])(C(=O)N([H])C1([H])c3c([H])c([H])c([H])c([H])c3C([H])([H])C([H])([H])C1([H])[H])C2([H])[H])(C([H])([H])[H])C([H])([H])[H])C([H])([H])[H]

>  <smiles>  (93) 
[H]c1sc(N([H])C(=O)N2C([H])([H])C([H])([H])C([H])([H])C([H])(n3nc(-c4c([H])c([H])c(Oc5c([H])c([H])c(F)c([H])c5F)c([H])c4[H])c(C(=O)N([H])[H])c3N([H])[H])C2([H])[H])c([H])c1C([H])([H])[N+]1([H])C([H])([H])C([H])([H])C1(C(=O)C(Oc1c([H])c([H])c2c(c1[H])C([H])([H])N(C(=O)C([H])(N([H])C(=O)C([H])(N([H])C([H])([H])[H])C([H])([H])[H])C(C([H])([H])[H])(C([H])([H])[H])C([H])([H])[H])C([H])(C(=O)N([H])C1([H])c3c([H])c([H])c([H])c([H])c3C([H])([H])C([H])([H])C1([H])[H])C2([H])[H])(C([H])([H])[H])C([H])([H])[H])C([H])([H])[H]

$$$$
93:0:0
     RDKit          3D

 94102  0  0  1  0  0  0  0  0999 V2000
  -30.6240  -21.2130   20.1300 C   0  0  0  0  0  0  0  0  0  0  0  0
  -31.6760  -21.5790   19.5270 N   0  0  0  0  0  0  0  0  0  0  0  0
  -32.2690  -20.7900   19.2960 H   0  0  0  0  0  0  0  0  0  0  0  0
  -29.1660  -19.1270   20.2560 C   0  0  0  0  0  3  0  0  0  0  0  0
  -31.4970  -18.9640   20.8860 C   0  0  0  0  0  3  0  0  0  0  0  0
  -29.0160  -17.7330   20.4620 C   0  0  0  0  0  3  0  0  0  0  0  0
  -31.3540  -17.5710   21.0910 C   0  0  0  0  0  3  0  0  0  0  0  0
  -30.4130  -19.7640   20.4520 C   0  0  0  0  0  0  0  0  0  0  0  0
  -30.1150  -16.9320   20.8540 C   0  0  0  0  0  0  0  0  0  0  0  0
  -30.6510  -14.5150   20.5010 C   0  0  0  0  0  0  0  0  0  0  0  0
  -30.3750  -12.3470   19.3510 C   0  0  0  0  0  2  0  0  0  0  0  0
  -29.4370  -12.5470   18.1410 C   0  0  0  0  0  2  0  0  0  0  0  0
  -27.9600  -12.4050   18.5610 C   0  0  0  0  0  2  0  0  0  0  0  0
  -27.6140  -13.2380   19.8250 C   0  0  0  0  0  3  0  0  0  0  0  0
  -28.6660  -13.0140   20.9360 C   0  0  0  0  0  2  0  0  0  0  0  0
  -29.9920  -13.3280   20.3780 N   0  0  0  0  0  0  0  0  0  0  0  0
  -31.7800  -14.6970   20.0380 O   0  0  0  0  0  0  0  0  0  0  0  0
  -29.9250  -15.5230   21.0380 N   0  0  0  0  0  0  0  0  0  0  0  0
  -29.0100  -15.2410   21.3510 H   0  0  0  0  0  0  0  0  0  0  0  0
  -25.2120  -13.8530   20.5160 C   0  0  0  0  0  0  0  0  0  0  0  0
  -24.1400  -13.0850   20.8830 C   0  0  0  0  0  0  0  0  0  0  0  0
  -24.5980  -11.7330   20.8560 C   0  0  0  0  0  0  0  0  0  0  0  0
  -26.2570  -12.9690   20.2940 N   0  0  0  0  0  0  0  0  0  0  0  0
  -25.8900  -11.6880   20.5550 N   0  0  0  0  0  0  0  0  0  0  0  0
  -23.8690  -10.4720   21.0450 C   0  0  0  0  0  0  0  0  0  0  0  0
  -24.3070   -9.4980   21.9690 C   0  0  0  0  0  3  0  0  0  0  0  0
  -23.5790   -8.3010   22.1470 C   0  0  0  0  0  3  0  0  0  0  0  0
  -22.4000   -8.0690   21.3980 C   0  0  0  0  0  0  0  0  0  0  0  0
  -21.9810   -9.0320   20.4630 C   0  0  0  0  0  3  0  0  0  0  0  0
  -22.7090  -10.2210   20.2850 C   0  0  0  0  0  3  0  0  0  0  0  0
  -21.6450   -6.9250   21.4830 O   0  0  0  0  0  0  0  0  0  0  0  0
  -21.6130   -6.1660   22.6250 C   0  0  0  0  0  0  0  0  0  0  0  0
  -21.2200   -6.7070   23.8700 C   0  0  0  0  0  3  0  0  0  0  0  0
  -21.1360   -5.8740   25.0040 C   0  0  0  0  0  3  0  0  0  0  0  0
  -21.4350   -4.5020   24.8940 C   0  0  0  0  0  0  0  0  0  0  0  0
  -21.8200   -3.9610   23.6550 C   0  0  0  0  0  3  0  0  0  0  0  0
  -21.9060   -4.7910   22.5220 C   0  0  0  0  0  0  0  0  0  0  0  0
  -22.2570   -4.2620   21.3260 F   0  0  0  0  0  0  0  0  0  0  0  0
  -21.3480   -3.7000   25.9790 F   0  0  0  0  0  0  0  0  0  0  0  0
  -22.7420  -13.5670   21.1460 C   0  0  0  0  0  0  0  0  0  0  0  0
  -22.0080  -12.8720   22.0090 N   0  0  0  0  0  0  0  0  0  0  0  0
  -22.3070  -14.5920   20.6220 O   0  0  0  0  0  0  0  0  0  0  0  0
  -22.3740  -12.0460   22.4590 H   0  0  0  0  0  0  0  0  0  0  0  0
  -21.0690  -13.1740   22.2230 H   0  0  0  0  0  0  0  0  0  0  0  0
  -25.3800  -15.2230   20.3300 N   0  0  0  0  0  0  0  0  0  0  0  0
  -24.6100  -15.8760   20.4150 H   0  0  0  0  0  0  0  0  0  0  0  0
  -26.2170  -15.6510   19.9550 H   0  0  0  0  0  0  0  0  0  0  0  0
  -29.5760  -22.2540   20.5810 C   0  0  0  0  0  2  0  0  0  0  0  0
  -30.1130  -23.6990   20.8690 C   0  0  0  0  0  2  0  0  0  0  0  0
  -30.9390  -25.9460   20.0750 C   0  0  0  0  0  1  0  0  0  0  0  0
  -30.2850  -24.2770   18.3730 C   0  0  0  0  0  1  0  0  0  0  0  0
  -29.9270  -24.8120   19.7750 C   0  0  1  0  0  0  0  0  0  0  0  0
  -28.4700  -25.3890   19.7530 C   0  0  0  0  0  2  0  0  0  0  0  0
  -28.4130  -26.7590   20.1800 O   0  0  0  0  0  0  0  0  0  0  0  0
  -24.5780  -31.9020   23.2410 C   0  0  0  0  0  0  0  0  0  0  0  0
  -27.2130  -27.4420   20.1670 C   0  0  0  0  0  0  0  0  0  0  0  0
  -23.3640  -30.4960   21.6070 C   0  0  0  0  0  3  0  0  0  0  0  0
  -24.8080  -28.9460   20.1870 C   0  0  0  0  0  0  0  0  0  0  0  0
  -25.8880  -30.8520   21.3970 C   0  0  0  0  0  2  0  0  0  0  0  0
  -25.9690  -29.4750   20.7650 C   0  0  0  0  0  0  0  0  0  0  0  0
  -27.1700  -28.7300   20.7480 C   0  0  0  0  0  3  0  0  0  0  0  0
  -26.0250  -26.9200   19.5970 C   0  0  0  0  0  3  0  0  0  0  0  0
  -24.8310  -27.6670   19.6020 C   0  0  0  0  0  3  0  0  0  0  0  0
  -23.5680  -29.8080   20.2300 C   0  0  0  0  0  2  0  0  0  0  0  0
  -24.6290  -31.0980   22.1400 N   0  0  0  0  0  0  0  0  0  0  0  0
  -23.4980  -32.1770   23.7820 O   0  0  0  0  0  0  0  0  0  0  0  0
  -22.7130  -29.4830   22.5740 C   0  0  0  0  0  0  0  0  0  0  0  0
  -21.3860  -29.3050   22.4520 N   0  0  0  0  0  0  0  0  0  0  0  0
  -23.3960  -28.8570   23.3890 O   0  0  0  0  0  0  0  0  0  0  0  0
  -20.8970  -29.8610   21.7640 H   0  0  0  0  0  0  0  0  0  0  0  0
  -18.0100  -28.1240   22.9560 C   0  0  0  0  0  0  0  0  0  0  0  0
  -20.5680  -28.3730   23.2260 C   0  0  0  0  0  3  0  0  0  0  0  0
  -20.6640  -26.9390   22.6530 C   0  0  0  0  0  2  0  0  0  0  0  0
  -19.5600  -26.6190   21.6410 C   0  0  0  0  0  2  0  0  0  0  0  0
  -18.1810  -26.7720   22.2860 C   0  0  0  0  0  2  0  0  0  0  0  0
  -19.1320  -28.8820   23.3830 C   0  0  0  0  0  0  0  0  0  0  0  0
  -18.9180  -30.1500   23.9680 C   0  0  0  0  0  3  0  0  0  0  0  0
  -17.6150  -30.6570   24.1320 C   0  0  0  0  0  3  0  0  0  0  0  0
  -16.5080  -29.8950   23.7220 C   0  0  0  0  0  3  0  0  0  0  0  0
  -16.7060  -28.6300   23.1380 C   0  0  0  0  0  3  0  0  0  0  0  0
  -25.8670  -32.5310   23.8560 C   0  0  0  0  0  3  0  0  0  0  0  0
  -25.5620  -33.9290   24.1910 N   0  0  0  0  0  0  0  0  0  0  0  0
  -25.8930  -34.9800   23.4310 C   0  0  0  0  0  0  0  0  0  0  0  0
  -26.5590  -34.8770   22.3960 O   0  0  0  0  0  0  0  0  0  0  0  0
  -24.9660  -34.0830   24.9900 H   0  0  0  0  0  0  0  0  0  0  0  0
  -24.1660  -36.7760   23.0810 C   0  0  0  0  0  1  0  0  0  0  0  0
  -25.4090  -36.3700   23.8890 C   0  0  0  0  0  3  0  0  0  0  0  0
  -27.5490  -37.2490   24.7130 C   0  0  0  0  0  1  0  0  0  0  0  0
  -26.4430  -37.4210   23.7750 N   0  0  0  0  0  0  0  0  0  0  0  0
  -26.0390  -38.3430   23.9240 H   0  0  0  0  0  0  0  0  0  0  0  0
  -26.3910  -31.7540   25.1260 C   0  0  1  0  0  0  0  0  0  0  0  0
  -25.3050  -31.5160   26.2000 C   0  0  0  0  0  1  0  0  0  0  0  0
  -26.9680  -30.3770   24.7220 C   0  0  0  0  0  1  0  0  0  0  0  0
  -27.5500  -32.5430   25.7820 C   0  0  0  0  0  1  0  0  0  0  0  0
  1  8  1  0
  1 48  1  0
  2  1  2  0
  3  2  1  0
  4  8  2  0
  4  6  1  0
  5  7  2  0
  6  9  2  0
  8  5  1  0
  9 18  1  0
  9  7  1  0
 10 18  1  0
 11 16  1  0
 12 13  1  0
 12 11  1  0
 14 13  1  0
 14 23  1  0
 14 15  1  0
 16 10  1  0
 16 15  1  0
 17 10  2  0
 18 19  1  0
 20 21  2  0
 21 40  1  0
 22 21  1  0
 22 25  1  0
 23 20  1  0
 23 24  1  0
 24 22  2  0
 25 26  1  0
 26 27  2  0
 28 31  1  0
 28 27  1  0
 29 28  2  0
 30 29  1  0
 30 25  2  0
 31 32  1  0
 32 33  1  0
 33 34  2  0
 35 34  1  0
 35 39  1  0
 36 35  2  0
 37 32  2  0
 37 36  1  0
 38 37  1  0
 40 41  1  0
 41 44  1  0
 41 43  1  0
 42 40  2  0
 45 46  1  0
 45 20  1  0
 47 45  1  0
 48 49  1  0
 52 51  1  6
 52 50  1  0
 52 49  1  0
 53 52  1  0
 53 54  1  0
 55 66  2  0
 56 54  1  0
 56 61  1  0
 57 65  1  0
 57 67  1  0
 58 64  1  0
 58 60  1  0
 59 65  1  0
 60 59  1  0
 61 60  2  0
 62 63  1  0
 62 56  2  0
 63 58  2  0
 64 57  1  0
 65 55  1  0
 67 69  2  0
 68 67  1  0
 70 68  1  0
 71 80  2  0
 71 76  1  0
 72 68  1  0
 72 76  1  0
 73 72  1  0
 74 75  1  0
 74 73  1  0
 75 71  1  0
 76 77  2  0
 77 78  1  0
 79 78  2  0
 80 79  1  0
 81 55  1  0
 81 82  1  0
 81 91  1  0
 82 85  1  0
 83 87  1  0
 83 82  1  0
 84 83  2  0
 87 86  1  0
 89 87  1  0
 89 90  1  0
 89 88  1  0
 91 94  1  1
 91 92  1  0
 93 91  1  0
M  ISO  4  10 100  18 100  53 101  54 101
M  END
>  <TORSDO>  (94) 
F 21

>  <SCORE>  (94) 
-13.780

>  <name>  (94) 
93

>  <ligand_id>  (94) 
93

>  <original_smiles>  (94) 
[H]N=C(c1c([H])c([H])c(N([H])C(=O)N2C([H])([H])C([H])([H])C([H])([H])C([H])(n3nc(-c4c([H])c([H])c(Oc5c([H])c([H])c(F)c([H])c5F)c([H])c4[H])c(C(=O)N([H])[H])c3N([H])[H])C2([H])[H])c([H])c1[H])C([H])([H])C([H])([H])C(C([H])([H])[H])(C([H])([H])[H])C([H])([H])Oc1c([H])c([H])c2c(c1[H])C([H])([H])N(C(=O)C([H])(N([H])C(=O)C([H])(N([H])C([H])([H])[H])C([H])([H])[H])C(C([H])([H])[H])(C([H])([H])[H])C([H])([H])[H])C([H])(C(=O)N([H])C1([H])c3c([H])c([H])c([H])c([H])c3C([H])([H])C([H])([H])C1([H])[H])C2([H])[H]

>  <smiles>  (94) 
[H]N=C(c1c([H])c([H])c(N([H])C(=O)N2C([H])([H])C([H])([H])C([H])([H])C([H])(n3nc(-c4c([H])c([H])c(Oc5c([H])c([H])c(F)c([H])c5F)c([H])c4[H])c(C(=O)N([H])[H])c3N([H])[H])C2([H])[H])c([H])c1[H])C([H])([H])C([H])([H])C(C([H])([H])[H])(C([H])([H])[H])C([H])([H])Oc1c([H])c([H])c2c(c1[H])C([H])([H])N(C(=O)C([H])(N([H])C(=O)C([H])(N([H])C([H])([H])[H])C([H])([H])[H])C(C([H])([H])[H])(C([H])([H])[H])C([H])([H])[H])C([H])(C(=O)N([H])C1([H])c3c([H])c([H])c([H])c([H])c3C([H])([H])C([H])([H])C1([H])[H])C2([H])[H]

$$$$
94:0:0
     RDKit          3D

 97107  0  0  1  0  0  0  0  0999 V2000
  -31.6710  -18.7560   21.6260 C   0  0  0  0  0  3  0  0  0  0  0  0
  -31.4300  -17.3660   21.5380 C   0  0  0  0  0  3  0  0  0  0  0  0
  -29.1810  -17.7880   20.6570 C   0  0  0  0  0  3  0  0  0  0  0  0
  -30.6570  -19.6420   21.2230 C   0  0  0  0  0  0  0  0  0  0  0  0
  -29.4480  -19.1690   20.7390 C   0  0  0  0  0  0  0  0  0  0  0  0
  -30.1900  -16.8740   21.0520 C   0  0  0  0  0  0  0  0  0  0  0  0
  -28.7400  -25.0560   21.8690 C   0  0  0  0  0  0  0  0  0  0  0  0
  -30.6970  -21.1500   21.2530 C   0  0  0  0  0  2  0  0  0  0  0  0
  -28.5340  -20.2960   20.3380 C   0  0  0  0  0  2  0  0  0  0  0  0
  -29.7450  -23.8930   19.8680 C   0  0  0  0  0  2  0  0  0  0  0  0
  -28.5870  -22.6010   21.5130 C   0  0  0  0  0  2  0  0  0  0  0  0
  -29.5200  -22.4740   19.3360 C   0  0  0  0  0  3  0  0  0  0  0  0
  -29.3450  -21.6070   20.6020 C   0  0  1  0  0  0  0  0  0  0  0  0
  -30.5610  -22.0220   18.2960 C   0  0  0  0  0  1  0  0  0  0  0  0
  -29.0130  -23.9540   21.1300 N   0  0  0  0  0  0  0  0  0  0  0  0
  -28.1550  -24.9610   22.9520 O   0  0  0  0  0  0  0  0  0  0  0  0
  -30.6290  -14.5100   20.4230 C   0  0  0  0  0  0  0  0  0  0  0  0
  -30.3130  -12.3920   19.2030 C   0  0  0  0  0  2  0  0  0  0  0  0
  -29.3370  -12.6370   18.0340 C   0  0  0  0  0  2  0  0  0  0  0  0
  -27.8710  -12.4990   18.4940 C   0  0  0  0  0  2  0  0  0  0  0  0
  -27.5740  -13.2920   19.7940 C   0  0  0  0  0  3  0  0  0  0  0  0
  -28.6520  -13.0130   20.8650 C   0  0  0  0  0  2  0  0  0  0  0  0
  -29.9650  -13.3330   20.2760 N   0  0  0  0  0  0  0  0  0  0  0  0
  -31.7450  -14.7180   19.9330 O   0  0  0  0  0  0  0  0  0  0  0  0
  -29.9050  -15.4820   21.0060 N   0  0  0  0  0  0  0  0  0  0  0  0
  -28.9640  -15.2120   21.2450 H   0  0  0  0  0  0  0  0  0  0  0  0
  -25.1920  -13.8970   20.5610 C   0  0  0  0  0  0  0  0  0  0  0  0
  -24.1290  -13.1220   20.9420 C   0  0  0  0  0  0  0  0  0  0  0  0
  -24.5850  -11.7690   20.8780 C   0  0  0  0  0  0  0  0  0  0  0  0
  -26.2290  -13.0160   20.2960 N   0  0  0  0  0  0  0  0  0  0  0  0
  -25.8680  -11.7300   20.5420 N   0  0  0  0  0  0  0  0  0  0  0  0
  -23.8600  -10.5070   21.0660 C   0  0  0  0  0  0  0  0  0  0  0  0
  -24.3050   -9.5300   21.9840 C   0  0  0  0  0  3  0  0  0  0  0  0
  -23.5830   -8.3310   22.1600 C   0  0  0  0  0  3  0  0  0  0  0  0
  -22.4010   -8.0980   21.4180 C   0  0  0  0  0  0  0  0  0  0  0  0
  -21.9740   -9.0640   20.4880 C   0  0  0  0  0  3  0  0  0  0  0  0
  -22.6980  -10.2550   20.3110 C   0  0  0  0  0  3  0  0  0  0  0  0
  -21.6500   -6.9520   21.5010 O   0  0  0  0  0  0  0  0  0  0  0  0
  -21.6080   -6.2020   22.6490 C   0  0  0  0  0  0  0  0  0  0  0  0
  -21.1770   -6.7460   23.8790 C   0  0  0  0  0  3  0  0  0  0  0  0
  -21.0830   -5.9210   25.0190 C   0  0  0  0  0  3  0  0  0  0  0  0
  -21.4100   -4.5540   24.9280 C   0  0  0  0  0  0  0  0  0  0  0  0
  -21.8330   -4.0110   23.7030 C   0  0  0  0  0  3  0  0  0  0  0  0
  -21.9290   -4.8330   22.5670 C   0  0  0  0  0  0  0  0  0  0  0  0
  -22.3160   -4.2990   21.3830 F   0  0  0  0  0  0  0  0  0  0  0  0
  -21.3140   -3.7600   26.0210 F   0  0  0  0  0  0  0  0  0  0  0  0
  -22.7400  -13.5970   21.2520 C   0  0  0  0  0  0  0  0  0  0  0  0
  -22.0300  -12.8840   22.1190 N   0  0  0  0  0  0  0  0  0  0  0  0
  -22.2930  -14.6350   20.7660 O   0  0  0  0  0  0  0  0  0  0  0  0
  -22.4050  -12.0440   22.5360 H   0  0  0  0  0  0  0  0  0  0  0  0
  -21.0980  -13.1820   22.3710 H   0  0  0  0  0  0  0  0  0  0  0  0
  -25.3580  -15.2690   20.3970 N   0  0  0  0  0  0  0  0  0  0  0  0
  -24.5940  -15.9250   20.5220 H   0  0  0  0  0  0  0  0  0  0  0  0
  -26.1930  -15.7030   20.0260 H   0  0  0  0  0  0  0  0  0  0  0  0
  -30.6320  -26.7140   21.2360 C   0  0  0  0  0  1  0  0  0  0  0  0
  -29.1180  -26.4760   21.3690 C   0  0  0  0  0  3  0  0  0  0  0  0
  -28.4630  -26.7650   20.1290 O   0  0  0  0  0  0  0  0  0  0  0  0
  -24.5920  -31.9070   23.2400 C   0  0  0  0  0  0  0  0  0  0  0  0
  -27.3050  -27.5050   20.1880 C   0  0  0  0  0  0  0  0  0  0  0  0
  -23.4070  -30.4930   21.5880 C   0  0  0  0  0  3  0  0  0  0  0  0
  -24.8860  -28.9670   20.1790 C   0  0  0  0  0  0  0  0  0  0  0  0
  -25.9280  -30.8810   21.4050 C   0  0  0  0  0  2  0  0  0  0  0  0
  -26.0310  -29.5080   20.7780 C   0  0  0  0  0  0  0  0  0  0  0  0
  -27.2440  -28.7850   20.7840 C   0  0  0  0  0  3  0  0  0  0  0  0
  -26.1500  -26.9760   19.5780 C   0  0  0  0  0  3  0  0  0  0  0  0
  -24.9380  -27.6940   19.5800 C   0  0  0  0  0  3  0  0  0  0  0  0
  -23.6320  -29.8110   20.2120 C   0  0  0  0  0  2  0  0  0  0  0  0
  -24.6590  -31.1090   22.1370 N   0  0  0  0  0  0  0  0  0  0  0  0
  -23.5060  -32.1710   23.7730 O   0  0  0  0  0  0  0  0  0  0  0  0
  -22.7580  -29.4680   22.5470 C   0  0  0  0  0  0  0  0  0  0  0  0
  -21.4330  -29.2870   22.4180 N   0  0  0  0  0  0  0  0  0  0  0  0
  -23.4440  -28.8380   23.3560 O   0  0  0  0  0  0  0  0  0  0  0  0
  -20.9450  -29.8480   21.7350 H   0  0  0  0  0  0  0  0  0  0  0  0
  -18.0550  -28.1200   22.9270 C   0  0  0  0  0  0  0  0  0  0  0  0
  -20.6170  -28.3480   23.1840 C   0  0  0  0  0  3  0  0  0  0  0  0
  -20.7010  -26.9240   22.5870 C   0  0  0  0  0  2  0  0  0  0  0  0
  -19.5880  -26.6260   21.5770 C   0  0  0  0  0  2  0  0  0  0  0  0
  -18.2140  -26.7770   22.2350 C   0  0  0  0  0  2  0  0  0  0  0  0
  -19.1840  -28.8640   23.3590 C   0  0  0  0  0  0  0  0  0  0  0  0
  -18.9840  -30.1230   23.9670 C   0  0  0  0  0  3  0  0  0  0  0  0
  -17.6850  -30.6350   24.1490 C   0  0  0  0  0  3  0  0  0  0  0  0
  -16.5700  -29.8850   23.7350 C   0  0  0  0  0  3  0  0  0  0  0  0
  -16.7550  -28.6300   23.1300 C   0  0  0  0  0  3  0  0  0  0  0  0
  -25.8700  -32.5460   23.8680 C   0  0  0  0  0  3  0  0  0  0  0  0
  -25.5530  -33.9450   24.1850 N   0  0  0  0  0  0  0  0  0  0  0  0
  -25.9000  -34.9920   23.4260 C   0  0  0  0  0  0  0  0  0  0  0  0
  -26.5870  -34.8840   22.4070 O   0  0  0  0  0  0  0  0  0  0  0  0
  -24.9440  -34.1020   24.9740 H   0  0  0  0  0  0  0  0  0  0  0  0
  -24.1790  -36.7810   23.0220 C   0  0  0  0  0  1  0  0  0  0  0  0
  -25.4010  -36.3810   23.8660 C   0  0  0  0  0  3  0  0  0  0  0  0
  -27.5150  -37.2710   24.7440 C   0  0  0  0  0  1  0  0  0  0  0  0
  -26.4370  -37.4350   23.7720 N   0  0  0  0  0  0  0  0  0  0  0  0
  -26.0280  -38.3550   23.9050 H   0  0  0  0  0  0  0  0  0  0  0  0
  -26.3820  -31.7820   25.1500 C   0  0  1  0  0  0  0  0  0  0  0  0
  -25.2840  -31.5470   26.2130 C   0  0  0  0  0  1  0  0  0  0  0  0
  -26.9710  -30.4040   24.7650 C   0  0  0  0  0  1  0  0  0  0  0  0
  -27.5280  -32.5820   25.8140 C   0  0  0  0  0  1  0  0  0  0  0  0
  2  1  1  0
  3  5  2  0
  3  6  1  0
  4  8  1  0
  4  1  2  0
  5  4  1  0
  6  2  2  0
  7 16  2  0
  9  5  1  0
 10 15  1  0
 12 14  1  0
 12 10  1  0
 12 13  1  0
 13  9  1  6
 13  8  1  0
 13 11  1  0
 15 11  1  0
 15  7  1  0
 17 25  1  0
 18 23  1  0
 19 20  1  0
 19 18  1  0
 21 20  1  0
 21 30  1  0
 21 22  1  0
 23 17  1  0
 23 22  1  0
 24 17  2  0
 25  6  1  0
 25 26  1  0
 27 28  2  0
 28 47  1  0
 29 28  1  0
 29 32  1  0
 30 31  1  0
 30 27  1  0
 31 29  2  0
 32 33  1  0
 33 34  2  0
 35 38  1  0
 35 34  1  0
 36 35  2  0
 37 36  1  0
 37 32  2  0
 38 39  1  0
 39 40  1  0
 40 41  2  0
 42 41  1  0
 42 46  1  0
 43 42  2  0
 44 39  2  0
 44 43  1  0
 45 44  1  0
 47 48  1  0
 48 51  1  0
 48 50  1  0
 49 47  2  0
 52 53  1  0
 52 27  1  0
 54 52  1  0
 56 55  1  0
 56  7  1  0
 57 59  1  0
 57 56  1  0
 58 69  2  0
 59 64  1  0
 60 68  1  0
 60 70  1  0
 61 67  1  0
 61 63  1  0
 62 68  1  0
 63 64  2  0
 63 62  1  0
 65 66  1  0
 65 59  2  0
 66 61  2  0
 67 60  1  0
 68 58  1  0
 70 72  2  0
 71 70  1  0
 73 71  1  0
 74 83  2  0
 74 79  1  0
 75 71  1  0
 75 79  1  0
 76 75  1  0
 77 78  1  0
 77 76  1  0
 78 74  1  0
 79 80  2  0
 80 81  1  0
 82 81  2  0
 83 82  1  0
 84 58  1  0
 84 85  1  0
 84 94  1  0
 85 88  1  0
 86 90  1  0
 86 85  1  0
 87 86  2  0
 90 89  1  0
 92 90  1  0
 92 93  1  0
 92 91  1  0
 94 97  1  1
 94 95  1  0
 96 94  1  0
M  ISO  4  17 100  25 100  56 101  57 101
M  END
>  <TORSDO>  (95) 
F 17

>  <SCORE>  (95) 
-15.744

>  <name>  (95) 
94

>  <ligand_id>  (95) 
94

>  <original_smiles>  (95) 
[H]c1c([H])c([H])c2c(c1[H])C([H])([H])C([H])([H])C([H])([H])C2([H])N([H])C(=O)C1([H])N(C(=O)C([H])(N([H])C(=O)C([H])(N([H])C([H])([H])[H])C([H])([H])[H])C(C([H])([H])[H])(C([H])([H])[H])C([H])([H])[H])C([H])([H])c2c([H])c(OC([H])(C(=O)N3C([H])([H])C([H])(C([H])([H])[H])C4(C([H])([H])c5c([H])c([H])c(N([H])C(=O)N6C([H])([H])C([H])([H])C([H])([H])C([H])(n7nc(-c8c([H])c([H])c(Oc9c([H])c([H])c(F)c([H])c9F)c([H])c8[H])c(C(=O)N([H])[H])c7N([H])[H])C6([H])[H])c([H])c5C4([H])[H])C3([H])[H])C([H])([H])[H])c([H])c([H])c2C1([H])[H]

>  <smiles>  (95) 
[H]c1c([H])c([H])c2c(c1[H])C([H])([H])C([H])([H])C([H])([H])C2([H])N([H])C(=O)C1([H])N(C(=O)C([H])(N([H])C(=O)C([H])(N([H])C([H])([H])[H])C([H])([H])[H])C(C([H])([H])[H])(C([H])([H])[H])C([H])([H])[H])C([H])([H])c2c([H])c(OC([H])(C(=O)N3C([H])([H])C([H])(C([H])([H])[H])C4(C([H])([H])c5c([H])c([H])c(N([H])C(=O)N6C([H])([H])C([H])([H])C([H])([H])C([H])(n7nc(-c8c([H])c([H])c(Oc9c([H])c([H])c(F)c([H])c9F)c([H])c8[H])c(C(=O)N([H])[H])c7N([H])[H])C6([H])[H])c([H])c5C4([H])[H])C3([H])[H])C([H])([H])[H])c([H])c([H])c2C1([H])[H]

$$$$
95:0:0
     RDKit          3D

 92100  0  0  1  0  0  0  0  0999 V2000
  -29.1020  -22.3710   20.5420 C   0  0  0  0  0  0  0  0  0  0  0  0
  -28.8850  -21.1160   19.9990 N   0  0  0  0  0  0  0  0  0  0  0  0
  -29.7220  -22.4770   21.6020 O   0  0  0  0  0  0  0  0  0  0  0  0
  -28.2210  -21.1240   19.2360 H   0  0  0  0  0  0  0  0  0  0  0  0
  -30.5590  -14.7430   20.3930 C   0  0  0  0  0  0  0  0  0  0  0  0
  -30.3810  -12.4730   19.3600 C   0  0  0  0  0  2  0  0  0  0  0  0
  -29.4400  -12.5710   18.1370 C   0  0  0  0  0  2  0  0  0  0  0  0
  -27.9680  -12.4000   18.5630 C   0  0  0  0  0  2  0  0  0  0  0  0
  -27.5970  -13.2690   19.7940 C   0  0  0  0  0  3  0  0  0  0  0  0
  -28.6550  -13.1440   20.9130 C   0  0  0  0  0  2  0  0  0  0  0  0
  -29.9580  -13.5040   20.3330 N   0  0  0  0  0  0  0  0  0  0  0  0
  -31.7280  -14.8810   20.0220 O   0  0  0  0  0  0  0  0  0  0  0  0
  -30.7290  -19.4240   20.4120 C   0  0  0  0  0  0  0  0  0  0  0  0
  -29.4080  -19.8450   20.2910 C   0  0  0  0  0  0  0  0  0  0  0  0
  -29.8150  -17.2750   20.5420 C   0  0  0  0  0  0  0  0  0  0  0  0
  -31.9440  -20.2970   20.3280 C   0  0  0  0  0  1  0  0  0  0  0  0
  -30.9370  -18.0160   20.5600 N   0  0  0  0  0  0  0  0  0  0  0  0
  -29.7280  -15.8060   20.7000 N   0  0  0  0  0  0  0  0  0  0  0  0
  -28.4000  -18.3700   20.3670 S   0  0  0  0  0  0  0  0  0  0  0  0
  -28.8070  -15.4930   20.9540 H   0  0  0  0  0  0  0  0  0  0  0  0
  -25.2080  -13.8690   20.5160 C   0  0  0  0  0  0  0  0  0  0  0  0
  -24.1420  -13.0990   20.8890 C   0  0  0  0  0  0  0  0  0  0  0  0
  -24.5990  -11.7460   20.8550 C   0  0  0  0  0  0  0  0  0  0  0  0
  -26.2500  -12.9850   20.2790 N   0  0  0  0  0  0  0  0  0  0  0  0
  -25.8900  -11.7050   20.5450 N   0  0  0  0  0  0  0  0  0  0  0  0
  -23.8680  -10.4860   21.0430 C   0  0  0  0  0  0  0  0  0  0  0  0
  -24.3030   -9.5160   21.9710 C   0  0  0  0  0  3  0  0  0  0  0  0
  -23.5760   -8.3190   22.1540 C   0  0  0  0  0  3  0  0  0  0  0  0
  -22.3970   -8.0860   21.4070 C   0  0  0  0  0  0  0  0  0  0  0  0
  -21.9790   -9.0440   20.4670 C   0  0  0  0  0  3  0  0  0  0  0  0
  -22.7080  -10.2320   20.2830 C   0  0  0  0  0  3  0  0  0  0  0  0
  -21.6410   -6.9430   21.4970 O   0  0  0  0  0  0  0  0  0  0  0  0
  -21.6010   -6.1950   22.6450 C   0  0  0  0  0  0  0  0  0  0  0  0
  -21.1960   -6.7450   23.8800 C   0  0  0  0  0  3  0  0  0  0  0  0
  -21.1040   -5.9230   25.0200 C   0  0  0  0  0  3  0  0  0  0  0  0
  -21.4070   -4.5510   24.9280 C   0  0  0  0  0  0  0  0  0  0  0  0
  -21.8040   -4.0010   23.6960 C   0  0  0  0  0  3  0  0  0  0  0  0
  -21.8980   -4.8200   22.5580 C   0  0  0  0  0  0  0  0  0  0  0  0
  -22.2630   -4.2800   21.3690 F   0  0  0  0  0  0  0  0  0  0  0  0
  -21.3080   -3.7580   26.0200 F   0  0  0  0  0  0  0  0  0  0  0  0
  -22.7470  -13.5800   21.1620 C   0  0  0  0  0  0  0  0  0  0  0  0
  -22.0160  -12.8850   22.0280 N   0  0  0  0  0  0  0  0  0  0  0  0
  -22.3110  -14.6050   20.6410 O   0  0  0  0  0  0  0  0  0  0  0  0
  -22.3860  -12.0570   22.4710 H   0  0  0  0  0  0  0  0  0  0  0  0
  -21.0790  -13.1870   22.2530 H   0  0  0  0  0  0  0  0  0  0  0  0
  -25.3740  -15.2390   20.3370 N   0  0  0  0  0  0  0  0  0  0  0  0
  -24.5880  -15.8750   20.4090 H   0  0  0  0  0  0  0  0  0  0  0  0
  -26.2000  -15.6780   19.9540 H   0  0  0  0  0  0  0  0  0  0  0  0
  -27.4340  -23.4420   18.8320 C   0  0  0  0  0  1  0  0  0  0  0  0
  -28.5830  -23.7210   19.8230 C   0  0  0  0  0  3  0  0  0  0  0  0
  -28.2570  -25.0410   20.7120 C   0  0  0  0  0  2  0  0  0  0  0  0
  -28.3560  -26.4460   20.1880 O   0  0  0  0  0  0  0  0  0  0  0  0
  -24.6080  -31.8850   23.2230 C   0  0  0  0  0  0  0  0  0  0  0  0
  -27.2310  -27.2960   20.2000 C   0  0  0  0  0  0  0  0  0  0  0  0
  -23.4100  -30.4850   21.5790 C   0  0  0  0  0  3  0  0  0  0  0  0
  -24.8660  -28.9210   20.1670 C   0  0  0  0  0  0  0  0  0  0  0  0
  -25.9520  -30.7990   21.4010 C   0  0  0  0  0  2  0  0  0  0  0  0
  -26.0330  -29.4120   20.7650 C   0  0  0  0  0  0  0  0  0  0  0  0
  -27.2210  -28.6130   20.7670 C   0  0  0  0  0  3  0  0  0  0  0  0
  -26.0390  -26.8570   19.5920 C   0  0  0  0  0  3  0  0  0  0  0  0
  -24.8730  -27.6500   19.5680 C   0  0  0  0  0  3  0  0  0  0  0  0
  -23.6300  -29.8010   20.2020 C   0  0  0  0  0  2  0  0  0  0  0  0
  -24.6760  -31.0770   22.1240 N   0  0  0  0  0  0  0  0  0  0  0  0
  -23.5220  -32.1590   23.7550 O   0  0  0  0  0  0  0  0  0  0  0  0
  -22.7440  -29.4730   22.5430 C   0  0  0  0  0  0  0  0  0  0  0  0
  -21.4160  -29.3040   22.4220 N   0  0  0  0  0  0  0  0  0  0  0  0
  -23.4220  -28.8430   23.3590 O   0  0  0  0  0  0  0  0  0  0  0  0
  -20.9270  -29.8660   21.7410 H   0  0  0  0  0  0  0  0  0  0  0  0
  -18.0340  -28.1290   22.9460 C   0  0  0  0  0  0  0  0  0  0  0  0
  -20.5970  -28.3680   23.1960 C   0  0  0  0  0  3  0  0  0  0  0  0
  -20.6840  -26.9390   22.6140 C   0  0  0  0  0  2  0  0  0  0  0  0
  -19.5710  -26.6280   21.6070 C   0  0  0  0  0  2  0  0  0  0  0  0
  -18.1950  -26.7820   22.2610 C   0  0  0  0  0  2  0  0  0  0  0  0
  -19.1620  -28.8800   23.3710 C   0  0  0  0  0  0  0  0  0  0  0  0
  -18.9560  -30.1420   23.9700 C   0  0  0  0  0  3  0  0  0  0  0  0
  -17.6570  -30.6510   24.1500 C   0  0  0  0  0  3  0  0  0  0  0  0
  -16.5440  -29.8970   23.7380 C   0  0  0  0  0  3  0  0  0  0  0  0
  -16.7340  -28.6380   23.1410 C   0  0  0  0  0  3  0  0  0  0  0  0
  -25.8860  -32.5220   23.8520 C   0  0  0  0  0  3  0  0  0  0  0  0
  -25.5730  -33.9210   24.1780 N   0  0  0  0  0  0  0  0  0  0  0  0
  -25.9120  -34.9740   23.4210 C   0  0  0  0  0  0  0  0  0  0  0  0
  -26.5900  -34.8690   22.3960 O   0  0  0  0  0  0  0  0  0  0  0  0
  -24.9730  -34.0800   24.9740 H   0  0  0  0  0  0  0  0  0  0  0  0
  -24.1900  -36.7710   23.0510 C   0  0  0  0  0  1  0  0  0  0  0  0
  -25.4230  -36.3650   23.8740 C   0  0  0  0  0  3  0  0  0  0  0  0
  -27.5570  -37.2430   24.7170 C   0  0  0  0  0  1  0  0  0  0  0  0
  -26.4590  -37.4180   23.7680 N   0  0  0  0  0  0  0  0  0  0  0  0
  -26.0550  -38.3390   23.9150 H   0  0  0  0  0  0  0  0  0  0  0  0
  -26.3940  -31.7560   25.1360 C   0  0  1  0  0  0  0  0  0  0  0  0
  -25.2930  -31.5270   26.1990 C   0  0  0  0  0  1  0  0  0  0  0  0
  -26.9800  -30.3780   24.7550 C   0  0  0  0  0  1  0  0  0  0  0  0
  -27.5450  -32.5510   25.7970 C   0  0  0  0  0  1  0  0  0  0  0  0
  1  3  2  0
  2 14  1  0
  2  1  1  0
  4  2  1  0
  5 18  1  0
  6 11  1  0
  7  8  1  0
  7  6  1  0
  9  8  1  0
  9 24  1  0
  9 10  1  0
 11  5  1  0
 11 10  1  0
 12  5  2  0
 13 17  1  0
 14 19  1  0
 14 13  2  0
 15 17  2  0
 15 18  1  0
 16 13  1  0
 18 20  1  0
 19 15  1  0
 21 22  2  0
 22 41  1  0
 23 22  1  0
 23 26  1  0
 24 21  1  0
 24 25  1  0
 25 23  2  0
 26 27  1  0
 27 28  2  0
 29 32  1  0
 29 28  1  0
 30 29  2  0
 31 30  1  0
 31 26  2  0
 32 33  1  0
 33 34  1  0
 34 35  2  0
 36 35  1  0
 36 40  1  0
 37 36  2  0
 38 33  2  0
 38 37  1  0
 39 38  1  0
 41 42  1  0
 42 45  1  0
 42 44  1  0
 43 41  2  0
 46 47  1  0
 46 21  1  0
 48 46  1  0
 50 49  1  0
 50  1  1  0
 50 51  1  0
 52 54  1  0
 52 51  1  0
 53 64  2  0
 54 59  1  0
 55 63  1  0
 55 65  1  0
 56 62  1  0
 56 58  1  0
 57 63  1  0
 58 59  2  0
 58 57  1  0
 60 54  2  0
 61 60  1  0
 61 56  2  0
 62 55  1  0
 63 53  1  0
 65 67  2  0
 66 65  1  0
 68 66  1  0
 69 78  2  0
 69 74  1  0
 70 66  1  0
 70 74  1  0
 71 70  1  0
 72 73  1  0
 72 71  1  0
 73 69  1  0
 74 75  2  0
 75 76  1  0
 77 76  2  0
 78 77  1  0
 79 53  1  0
 79 80  1  0
 79 89  1  0
 80 83  1  0
 81 85  1  0
 81 80  1  0
 82 81  2  0
 85 84  1  0
 87 85  1  0
 87 88  1  0
 87 86  1  0
 89 92  1  1
 89 90  1  0
 91 89  1  0
M  ISO  4   5 100  18 100  51 101  52 101
M  END
>  <TORSDO>  (96) 
F 18

>  <SCORE>  (96) 
-14.800

>  <name>  (96) 
95

>  <ligand_id>  (96) 
95

>  <original_smiles>  (96) 
[H]c1c([H])c([H])c2c(c1[H])C([H])([H])C([H])([H])C([H])([H])C2([H])N([H])C(=O)C1([H])N(C(=O)C([H])(N([H])C(=O)C([H])(N([H])C([H])([H])[H])C([H])([H])[H])C(C([H])([H])[H])(C([H])([H])[H])C([H])([H])[H])C([H])([H])c2c([H])c(OC([H])([H])C([H])(C(=O)N([H])c3sc(N([H])C(=O)N4C([H])([H])C([H])([H])C([H])([H])C([H])(n5nc(-c6c([H])c([H])c(Oc7c([H])c([H])c(F)c([H])c7F)c([H])c6[H])c(C(=O)N([H])[H])c5N([H])[H])C4([H])[H])nc3C([H])([H])[H])C([H])([H])[H])c([H])c([H])c2C1([H])[H]

>  <smiles>  (96) 
[H]c1c([H])c([H])c2c(c1[H])C([H])([H])C([H])([H])C([H])([H])C2([H])N([H])C(=O)C1([H])N(C(=O)C([H])(N([H])C(=O)C([H])(N([H])C([H])([H])[H])C([H])([H])[H])C(C([H])([H])[H])(C([H])([H])[H])C([H])([H])[H])C([H])([H])c2c([H])c(OC([H])([H])C([H])(C(=O)N([H])c3sc(N([H])C(=O)N4C([H])([H])C([H])([H])C([H])([H])C([H])(n5nc(-c6c([H])c([H])c(Oc7c([H])c([H])c(F)c([H])c7F)c([H])c6[H])c(C(=O)N([H])[H])c5N([H])[H])C4([H])[H])nc3C([H])([H])[H])C([H])([H])[H])c([H])c([H])c2C1([H])[H]

$$$$
96:0:0
     RDKit          3D

 94103  0  0  1  0  0  0  0  0999 V2000
  -29.6020  -22.7870   20.0160 C   0  0  0  0  0  3  0  0  0  0  0  0
  -28.6680  -23.7740   20.2090 C   0  0  0  0  0  0  0  0  0  0  0  0
  -27.6450  -23.2560   21.1890 C   0  0  0  0  0  2  0  0  0  0  0  0
  -28.0460  -21.7590   21.4370 C   0  0  0  0  0  2  0  0  0  0  0  0
  -29.5180  -21.5340   20.9640 C   0  0  1  0  0  0  0  0  0  0  0  0
  -30.7920  -14.8790   20.0960 C   0  0  0  0  0  0  0  0  0  0  0  0
  -30.5830  -12.6090   19.0590 C   0  0  0  0  0  2  0  0  0  0  0  0
  -29.6030  -12.7040   17.8670 C   0  0  0  0  0  2  0  0  0  0  0  0
  -28.1460  -12.5310   18.3400 C   0  0  0  0  0  2  0  0  0  0  0  0
  -27.8160  -13.4000   19.5830 C   0  0  0  0  0  3  0  0  0  0  0  0
  -28.9080  -13.2730   20.6690 C   0  0  0  0  0  2  0  0  0  0  0  0
  -30.1890  -13.6390   20.0490 N   0  0  0  0  0  0  0  0  0  0  0  0
  -31.9550  -15.0050   19.6980 O   0  0  0  0  0  0  0  0  0  0  0  0
  -29.8110  -20.0460   20.4440 C   0  0  0  0  0  0  0  0  0  0  0  0
  -30.8690  -19.5500   19.6880 C   0  0  0  0  0  0  0  0  0  0  0  0
  -30.0800  -17.4320   20.3220 C   0  0  0  0  0  0  0  0  0  0  0  0
  -31.9150  -20.3740   19.0020 C   0  0  0  0  0  1  0  0  0  0  0  0
  -31.0050  -18.1240   19.6340 N   0  0  0  0  0  0  0  0  0  0  0  0
  -29.9900  -15.9540   20.4530 N   0  0  0  0  0  0  0  0  0  0  0  0
  -28.9030  -18.6040   21.0200 S   0  0  0  0  0  0  0  0  0  0  0  0
  -29.1120  -15.6510   20.8400 H   0  0  0  0  0  0  0  0  0  0  0  0
  -25.4540  -14.0020   20.3830 C   0  0  0  0  0  0  0  0  0  0  0  0
  -24.3940  -13.2320   20.7780 C   0  0  0  0  0  0  0  0  0  0  0  0
  -24.8470  -11.8780   20.7220 C   0  0  0  0  0  0  0  0  0  0  0  0
  -26.4840  -13.1180   20.1080 N   0  0  0  0  0  0  0  0  0  0  0  0
  -26.1280  -11.8350   20.3750 N   0  0  0  0  0  0  0  0  0  0  0  0
  -24.1200  -10.6180   20.9230 C   0  0  0  0  0  0  0  0  0  0  0  0
  -24.5560   -9.6520   21.8550 C   0  0  0  0  0  3  0  0  0  0  0  0
  -23.8280   -8.4580   22.0440 C   0  0  0  0  0  3  0  0  0  0  0  0
  -22.6480   -8.2210   21.2980 C   0  0  0  0  0  0  0  0  0  0  0  0
  -22.2310   -9.1750   20.3540 C   0  0  0  0  0  3  0  0  0  0  0  0
  -22.9600  -10.3610   20.1630 C   0  0  0  0  0  3  0  0  0  0  0  0
  -21.8920   -7.0780   21.3950 O   0  0  0  0  0  0  0  0  0  0  0  0
  -21.8260   -6.3550   22.5590 C   0  0  0  0  0  0  0  0  0  0  0  0
  -21.3660   -6.9270   23.7660 C   0  0  0  0  0  3  0  0  0  0  0  0
  -21.2490   -6.1290   24.9220 C   0  0  0  0  0  3  0  0  0  0  0  0
  -21.5800   -4.7610   24.8720 C   0  0  0  0  0  0  0  0  0  0  0  0
  -22.0330   -4.1900   23.6700 C   0  0  0  0  0  3  0  0  0  0  0  0
  -22.1520   -4.9850   22.5160 C   0  0  0  0  0  0  0  0  0  0  0  0
  -22.5680   -4.4240   21.3550 F   0  0  0  0  0  0  0  0  0  0  0  0
  -21.4610   -3.9940   25.9800 F   0  0  0  0  0  0  0  0  0  0  0  0
  -23.0090  -13.7150   21.0940 C   0  0  0  0  0  0  0  0  0  0  0  0
  -22.3030  -13.0170   21.9760 N   0  0  0  0  0  0  0  0  0  0  0  0
  -22.5610  -14.7460   20.5930 O   0  0  0  0  0  0  0  0  0  0  0  0
  -22.6770  -12.1830   22.4030 H   0  0  0  0  0  0  0  0  0  0  0  0
  -21.3740  -13.3230   22.2310 H   0  0  0  0  0  0  0  0  0  0  0  0
  -25.6210  -15.3730   20.2110 N   0  0  0  0  0  0  0  0  0  0  0  0
  -24.8530  -16.0240   20.3360 H   0  0  0  0  0  0  0  0  0  0  0  0
  -26.4420  -15.8060   19.8090 H   0  0  0  0  0  0  0  0  0  0  0  0
  -30.3420  -23.1140   22.9420 C   0  0  0  0  0  1  0  0  0  0  0  0
  -30.6840  -20.6450   23.1590 C   0  0  0  0  0  1  0  0  0  0  0  0
  -30.5340  -21.8020   22.1470 C   0  0  0  0  0  3  0  0  0  0  0  0
  -28.4830  -25.1830   19.4810 C   0  0  0  0  0  2  0  0  0  0  0  0
  -28.3410  -26.4780   20.2330 O   0  0  0  0  0  0  0  0  0  0  0  0
  -24.5970  -31.9150   23.2380 C   0  0  0  0  0  0  0  0  0  0  0  0
  -27.2160  -27.3350   20.1520 C   0  0  0  0  0  0  0  0  0  0  0  0
  -23.3960  -30.5200   21.5920 C   0  0  0  0  0  3  0  0  0  0  0  0
  -24.8490  -28.9750   20.1540 C   0  0  0  0  0  0  0  0  0  0  0  0
  -25.9390  -30.8330   21.4130 C   0  0  0  0  0  2  0  0  0  0  0  0
  -26.0190  -29.4540   20.7550 C   0  0  0  0  0  0  0  0  0  0  0  0
  -27.2000  -28.6440   20.7460 C   0  0  0  0  0  3  0  0  0  0  0  0
  -26.0130  -26.9150   19.5400 C   0  0  0  0  0  3  0  0  0  0  0  0
  -24.8520  -27.7150   19.5380 C   0  0  0  0  0  3  0  0  0  0  0  0
  -23.6120  -29.8510   20.2080 C   0  0  0  0  0  2  0  0  0  0  0  0
  -24.6640  -31.1080   22.1370 N   0  0  0  0  0  0  0  0  0  0  0  0
  -23.5130  -32.1870   23.7730 O   0  0  0  0  0  0  0  0  0  0  0  0
  -22.7340  -29.5000   22.5500 C   0  0  0  0  0  0  0  0  0  0  0  0
  -21.4160  -29.2900   22.3960 N   0  0  0  0  0  0  0  0  0  0  0  0
  -23.4080  -28.9000   23.3910 O   0  0  0  0  0  0  0  0  0  0  0  0
  -20.9290  -29.8280   21.6910 H   0  0  0  0  0  0  0  0  0  0  0  0
  -18.0690  -27.9720   22.7930 C   0  0  0  0  0  0  0  0  0  0  0  0
  -20.6030  -28.3410   23.1570 C   0  0  0  0  0  3  0  0  0  0  0  0
  -20.7830  -26.8990   22.6260 C   0  0  0  0  0  2  0  0  0  0  0  0
  -19.7380  -26.5080   21.5780 C   0  0  0  0  0  2  0  0  0  0  0  0
  -18.3250  -26.6140   22.1600 C   0  0  0  0  0  2  0  0  0  0  0  0
  -19.1380  -28.7890   23.2460 C   0  0  0  0  0  0  0  0  0  0  0  0
  -18.8460  -30.0560   23.7950 C   0  0  0  0  0  3  0  0  0  0  0  0
  -17.5170  -30.5080   23.8960 C   0  0  0  0  0  3  0  0  0  0  0  0
  -16.4620  -29.6900   23.4600 C   0  0  0  0  0  3  0  0  0  0  0  0
  -16.7380  -28.4240   22.9130 C   0  0  0  0  0  3  0  0  0  0  0  0
  -25.8770  -32.5500   23.8630 C   0  0  0  0  0  3  0  0  0  0  0  0
  -25.5680  -33.9510   24.1820 N   0  0  0  0  0  0  0  0  0  0  0  0
  -25.9060  -35.0000   23.4190 C   0  0  0  0  0  0  0  0  0  0  0  0
  -26.5780  -34.8880   22.3900 O   0  0  0  0  0  0  0  0  0  0  0  0
  -24.9740  -34.1130   24.9810 H   0  0  0  0  0  0  0  0  0  0  0  0
  -24.1870  -36.7990   23.0470 C   0  0  0  0  0  1  0  0  0  0  0  0
  -25.4220  -36.3930   23.8670 C   0  0  0  0  0  3  0  0  0  0  0  0
  -27.5530  -37.2770   24.7090 C   0  0  0  0  0  1  0  0  0  0  0  0
  -26.4600  -37.4410   23.7540 N   0  0  0  0  0  0  0  0  0  0  0  0
  -26.0560  -38.3640   23.8900 H   0  0  0  0  0  0  0  0  0  0  0  0
  -26.3810  -31.7890   25.1510 C   0  0  1  0  0  0  0  0  0  0  0  0
  -25.2790  -31.5620   26.2110 C   0  0  0  0  0  1  0  0  0  0  0  0
  -26.9660  -30.4070   24.7760 C   0  0  0  0  0  1  0  0  0  0  0  0
  -27.5270  -32.5870   25.8150 C   0  0  0  0  0  1  0  0  0  0  0  0
  1  2  2  0
  1  5  1  0
  2  3  1  0
  3  4  1  0
  5  4  1  0
  5 52  1  1
  6 19  1  0
  7 12  1  0
  8  9  1  0
  8  7  1  0
 10  9  1  0
 10 25  1  0
 10 11  1  0
 12  6  1  0
 12 11  1  0
 13  6  2  0
 14  5  1  0
 14 20  1  0
 15 14  2  0
 16 19  1  0
 16 20  1  0
 17 15  1  0
 18 15  1  0
 18 16  2  0
 19 21  1  0
 22 23  2  0
 23 42  1  0
 24 23  1  0
 24 27  1  0
 25 26  1  0
 25 22  1  0
 26 24  2  0
 27 28  1  0
 28 29  2  0
 30 33  1  0
 30 29  1  0
 31 30  2  0
 32 31  1  0
 32 27  2  0
 33 34  1  0
 34 35  1  0
 35 36  2  0
 37 36  1  0
 37 41  1  0
 38 37  2  0
 39 34  2  0
 39 38  1  0
 40 39  1  0
 42 43  1  0
 43 46  1  0
 43 45  1  0
 44 42  2  0
 47 48  1  0
 47 22  1  0
 49 47  1  0
 52 50  1  0
 52 51  1  0
 53  2  1  0
 53 54  1  0
 55 66  2  0
 56 54  1  0
 56 61  1  0
 57 65  1  0
 57 67  1  0
 58 64  1  0
 58 60  1  0
 59 65  1  0
 60 59  1  0
 61 60  2  0
 62 56  2  0
 63 62  1  0
 63 58  2  0
 64 57  1  0
 65 55  1  0
 67 69  2  0
 68 67  1  0
 70 68  1  0
 71 80  2  0
 71 76  1  0
 72 68  1  0
 72 76  1  0
 73 72  1  0
 74 75  1  0
 74 73  1  0
 75 71  1  0
 76 77  2  0
 77 78  1  0
 79 78  2  0
 80 79  1  0
 81 55  1  0
 81 82  1  0
 81 91  1  0
 82 85  1  0
 83 87  1  0
 83 82  1  0
 84 83  2  0
 87 86  1  0
 89 87  1  0
 89 90  1  0
 89 88  1  0
 91 94  1  1
 91 92  1  0
 93 91  1  0
M  ISO  4   6 100  19 100  53 101  54 101
M  END
>  <TORSDO>  (97) 
F 18

>  <SCORE>  (97) 
-14.340

>  <name>  (97) 
96

>  <ligand_id>  (97) 
96

>  <original_smiles>  (97) 
[H]C1=C(C([H])([H])Oc2c([H])c([H])c3c(c2[H])C([H])([H])N(C(=O)C([H])(N([H])C(=O)C([H])(N([H])C([H])([H])[H])C([H])([H])[H])C(C([H])([H])[H])(C([H])([H])[H])C([H])([H])[H])C([H])(C(=O)N([H])C2([H])c4c([H])c([H])c([H])c([H])c4C([H])([H])C([H])([H])C2([H])[H])C3([H])[H])C([H])([H])C([H])([H])C1(c1sc(N([H])C(=O)N2C([H])([H])C([H])([H])C([H])([H])C([H])(n3nc(-c4c([H])c([H])c(Oc5c([H])c([H])c(F)c([H])c5F)c([H])c4[H])c(C(=O)N([H])[H])c3N([H])[H])C2([H])[H])nc1C([H])([H])[H])C([H])(C([H])([H])[H])C([H])([H])[H]

>  <smiles>  (97) 
[H]C1=C(C([H])([H])Oc2c([H])c([H])c3c(c2[H])C([H])([H])N(C(=O)C([H])(N([H])C(=O)C([H])(N([H])C([H])([H])[H])C([H])([H])[H])C(C([H])([H])[H])(C([H])([H])[H])C([H])([H])[H])C([H])(C(=O)N([H])C2([H])c4c([H])c([H])c([H])c([H])c4C([H])([H])C([H])([H])C2([H])[H])C3([H])[H])C([H])([H])C([H])([H])C1(c1sc(N([H])C(=O)N2C([H])([H])C([H])([H])C([H])([H])C([H])(n3nc(-c4c([H])c([H])c(Oc5c([H])c([H])c(F)c([H])c5F)c([H])c4[H])c(C(=O)N([H])[H])c3N([H])[H])C2([H])[H])nc1C([H])([H])[H])C([H])(C([H])([H])[H])C([H])([H])[H]

$$$$
97:0:0
     RDKit          3D

 93101  0  0  1  0  0  0  0  0999 V2000
  -29.4520  -21.2390   22.1810 C   0  0  0  0  0  1  0  0  0  0  0  0
  -29.8650  -21.1110   20.6980 C   0  0  2  0  0  0  0  0  0  0  0  0
  -30.0670  -18.3780   20.9420 C   0  0  0  0  0  3  0  0  0  0  0  0
  -29.5310  -19.5880   20.2660 C   0  0  0  0  0  0  0  0  0  0  0  0
  -28.6650  -19.1320   19.2760 C   0  0  0  0  0  0  0  0  0  0  0  0
  -29.7260  -17.1140   20.4410 C   0  0  0  0  0  0  0  0  0  0  0  0
  -27.7080  -19.8390   18.3660 C   0  0  0  0  0  1  0  0  0  0  0  0
  -28.6870  -17.3810   19.0820 S   0  0  0  0  0  0  0  0  0  0  0  0
  -30.6080  -14.7610   20.3920 C   0  0  0  0  0  0  0  0  0  0  0  0
  -30.4040  -12.5090   19.3390 C   0  0  0  0  0  2  0  0  0  0  0  0
  -29.4720  -12.6300   18.1140 C   0  0  0  0  0  2  0  0  0  0  0  0
  -27.9980  -12.4620   18.5310 C   0  0  0  0  0  2  0  0  0  0  0  0
  -27.6270  -13.3170   19.7750 C   0  0  0  0  0  3  0  0  0  0  0  0
  -28.6830  -13.1800   20.8960 C   0  0  0  0  0  2  0  0  0  0  0  0
  -29.9920  -13.5320   20.3260 N   0  0  0  0  0  0  0  0  0  0  0  0
  -31.7410  -14.9180   19.9250 O   0  0  0  0  0  0  0  0  0  0  0  0
  -29.9090  -15.8170   20.9310 N   0  0  0  0  0  0  0  0  0  0  0  0
  -29.1100  -15.4860   21.4540 H   0  0  0  0  0  0  0  0  0  0  0  0
  -25.2260  -13.8970   20.4790 C   0  0  0  0  0  0  0  0  0  0  0  0
  -24.1610  -13.1200   20.8500 C   0  0  0  0  0  0  0  0  0  0  0  0
  -24.6320  -11.7710   20.8280 C   0  0  0  0  0  0  0  0  0  0  0  0
  -26.2770  -13.0240   20.2530 N   0  0  0  0  0  0  0  0  0  0  0  0
  -25.9240  -11.7400   20.5220 N   0  0  0  0  0  0  0  0  0  0  0  0
  -23.9110  -10.5070   21.0240 C   0  0  0  0  0  0  0  0  0  0  0  0
  -24.3430   -9.5450   21.9640 C   0  0  0  0  0  3  0  0  0  0  0  0
  -23.6200   -8.3440   22.1450 C   0  0  0  0  0  3  0  0  0  0  0  0
  -22.4520   -8.0980   21.3840 C   0  0  0  0  0  0  0  0  0  0  0  0
  -22.0430   -9.0470   20.4300 C   0  0  0  0  0  3  0  0  0  0  0  0
  -22.7670  -10.2370   20.2470 C   0  0  0  0  0  3  0  0  0  0  0  0
  -21.7010   -6.9520   21.4750 O   0  0  0  0  0  0  0  0  0  0  0  0
  -21.6400   -6.2210   22.6340 C   0  0  0  0  0  0  0  0  0  0  0  0
  -21.1780   -6.7810   23.8460 C   0  0  0  0  0  3  0  0  0  0  0  0
  -21.0670   -5.9730   24.9960 C   0  0  0  0  0  3  0  0  0  0  0  0
  -21.4090   -4.6090   24.9350 C   0  0  0  0  0  0  0  0  0  0  0  0
  -21.8630   -4.0500   23.7280 C   0  0  0  0  0  3  0  0  0  0  0  0
  -21.9760   -4.8530   22.5810 C   0  0  0  0  0  0  0  0  0  0  0  0
  -22.3950   -4.3030   21.4150 F   0  0  0  0  0  0  0  0  0  0  0  0
  -21.2940   -3.8320   26.0390 F   0  0  0  0  0  0  0  0  0  0  0  0
  -22.7600  -13.5920   21.1150 C   0  0  0  0  0  0  0  0  0  0  0  0
  -22.0270  -12.8970   21.9750 N   0  0  0  0  0  0  0  0  0  0  0  0
  -22.3220  -14.6160   20.5920 O   0  0  0  0  0  0  0  0  0  0  0  0
  -22.3910  -12.0730   22.4290 H   0  0  0  0  0  0  0  0  0  0  0  0
  -21.0860  -13.1970   22.1880 H   0  0  0  0  0  0  0  0  0  0  0  0
  -25.3810  -15.2680   20.2960 N   0  0  0  0  0  0  0  0  0  0  0  0
  -24.6110  -15.9180   20.4110 H   0  0  0  0  0  0  0  0  0  0  0  0
  -26.2320  -15.7130   19.9820 H   0  0  0  0  0  0  0  0  0  0  0  0
  -32.3640  -20.4730   21.4090 C   0  0  0  0  0  1  0  0  0  0  0  0
  -31.4080  -21.3670   20.5990 C   0  0  0  0  0  2  0  0  0  0  0  0
  -29.6830  -22.5180   18.4730 C   0  0  0  0  0  1  0  0  0  0  0  0
  -29.1620  -22.3870   19.9240 C   0  0  0  0  0  3  0  0  0  0  0  0
  -29.1760  -23.8950   20.5480 C   0  0  0  0  0  3  0  0  0  0  0  0
  -28.2260  -25.0320   19.9110 C   0  0  0  0  0  3  0  0  0  0  0  0
  -28.3560  -26.4770   20.2790 O   0  0  0  0  0  0  0  0  0  0  0  0
  -24.6320  -31.9430   23.2290 C   0  0  0  0  0  0  0  0  0  0  0  0
  -27.2390  -27.3410   20.1970 C   0  0  0  0  0  0  0  0  0  0  0  0
  -23.4250  -30.5350   21.6000 C   0  0  0  0  0  3  0  0  0  0  0  0
  -24.8720  -28.9710   20.1810 C   0  0  0  0  0  0  0  0  0  0  0  0
  -25.9660  -30.8400   21.4140 C   0  0  0  0  0  2  0  0  0  0  0  0
  -26.0420  -29.4560   20.7750 C   0  0  0  0  0  0  0  0  0  0  0  0
  -27.2240  -28.6510   20.7780 C   0  0  0  0  0  3  0  0  0  0  0  0
  -26.0470  -26.9260   19.5580 C   0  0  0  0  0  3  0  0  0  0  0  0
  -24.8770  -27.7120   19.5620 C   0  0  0  0  0  3  0  0  0  0  0  0
  -23.6360  -29.8460   20.2250 C   0  0  0  0  0  2  0  0  0  0  0  0
  -24.6930  -31.1260   22.1370 N   0  0  0  0  0  0  0  0  0  0  0  0
  -23.5500  -32.2270   23.7640 O   0  0  0  0  0  0  0  0  0  0  0  0
  -22.7620  -29.5270   22.5710 C   0  0  0  0  0  0  0  0  0  0  0  0
  -21.4350  -29.3490   22.4480 N   0  0  0  0  0  0  0  0  0  0  0  0
  -23.4410  -28.9060   23.3920 O   0  0  0  0  0  0  0  0  0  0  0  0
  -20.9440  -29.9030   21.7610 H   0  0  0  0  0  0  0  0  0  0  0  0
  -18.0560  -28.1660   22.9730 C   0  0  0  0  0  0  0  0  0  0  0  0
  -20.6180  -28.4180   23.2280 C   0  0  0  0  0  3  0  0  0  0  0  0
  -20.7100  -26.9830   22.6590 C   0  0  0  0  0  2  0  0  0  0  0  0
  -19.6030  -26.6600   21.6520 C   0  0  0  0  0  2  0  0  0  0  0  0
  -18.2240  -26.8130   22.3020 C   0  0  0  0  0  2  0  0  0  0  0  0
  -19.1800  -28.9260   23.3920 C   0  0  0  0  0  0  0  0  0  0  0  0
  -18.9680  -30.1920   23.9800 C   0  0  0  0  0  3  0  0  0  0  0  0
  -17.6660  -30.6990   24.1510 C   0  0  0  0  0  3  0  0  0  0  0  0
  -16.5570  -29.9350   23.7470 C   0  0  0  0  0  3  0  0  0  0  0  0
  -16.7530  -28.6700   23.1640 C   0  0  0  0  0  3  0  0  0  0  0  0
  -25.9180  -32.5780   23.8440 C   0  0  0  0  0  3  0  0  0  0  0  0
  -25.6070  -33.9740   24.1820 N   0  0  0  0  0  0  0  0  0  0  0  0
  -25.9300  -35.0330   23.4260 C   0  0  0  0  0  0  0  0  0  0  0  0
  -26.5920  -34.9360   22.3890 O   0  0  0  0  0  0  0  0  0  0  0  0
  -25.0190  -34.1250   24.9890 H   0  0  0  0  0  0  0  0  0  0  0  0
  -24.2000  -36.8260   23.0880 C   0  0  0  0  0  1  0  0  0  0  0  0
  -25.4420  -36.4170   23.8940 C   0  0  0  0  0  3  0  0  0  0  0  0
  -27.5750  -37.3010   24.7300 C   0  0  0  0  0  1  0  0  0  0  0  0
  -26.4740  -37.4720   23.7870 N   0  0  0  0  0  0  0  0  0  0  0  0
  -26.0660  -38.3910   23.9380 H   0  0  0  0  0  0  0  0  0  0  0  0
  -26.4480  -31.8050   25.1150 C   0  0  1  0  0  0  0  0  0  0  0  0
  -25.3610  -31.5580   26.1880 C   0  0  0  0  0  1  0  0  0  0  0  0
  -27.0360  -30.4330   24.7160 C   0  0  0  0  0  1  0  0  0  0  0  0
  -27.5970  -32.6040   25.7720 C   0  0  0  0  0  1  0  0  0  0  0  0
  2  1  1  1
  4  2  1  0
  4  3  1  0
  5  4  2  0
  6 17  1  0
  6  3  2  0
  7  5  1  0
  8  5  1  0
  8  6  1  0
  9 17  1  0
 10 15  1  0
 11 12  1  0
 11 10  1  0
 13 12  1  0
 13 22  1  0
 13 14  1  0
 15  9  1  0
 15 14  1  0
 16  9  2  0
 17 18  1  0
 19 20  2  0
 20 39  1  0
 21 20  1  0
 21 24  1  0
 22 19  1  0
 22 23  1  0
 23 21  2  0
 24 25  1  0
 25 26  2  0
 27 30  1  0
 27 26  1  0
 28 27  2  0
 29 28  1  0
 29 24  2  0
 30 31  1  0
 31 32  1  0
 32 33  2  0
 34 33  1  0
 34 38  1  0
 35 34  2  0
 36 31  2  0
 36 35  1  0
 37 36  1  0
 39 40  1  0
 40 43  1  0
 40 42  1  0
 41 39  2  0
 44 45  1  0
 44 19  1  0
 46 44  1  0
 48  2  1  0
 48 47  1  0
 50 49  1  0
 50 51  1  0
 50  2  1  0
 52 53  1  0
 52 51  2  0
 54 65  2  0
 55 53  1  0
 55 60  1  0
 56 64  1  0
 56 66  1  0
 57 63  1  0
 57 59  1  0
 58 64  1  0
 59 60  2  0
 59 58  1  0
 61 62  1  0
 61 55  2  0
 62 57  2  0
 63 56  1  0
 64 54  1  0
 66 68  2  0
 67 66  1  0
 69 67  1  0
 70 79  2  0
 70 75  1  0
 71 67  1  0
 71 75  1  0
 72 71  1  0
 73 74  1  0
 73 72  1  0
 74 70  1  0
 75 76  2  0
 76 77  1  0
 78 77  2  0
 79 78  1  0
 80 54  1  0
 80 81  1  0
 80 90  1  0
 81 84  1  0
 82 86  1  0
 82 81  1  0
 83 82  2  0
 86 85  1  0
 88 86  1  0
 88 89  1  0
 88 87  1  0
 90 93  1  1
 90 91  1  0
 92 90  1  0
M  ISO  4   9 100  17 100  52 101  53 101
M  END
>  <TORSDO>  (98) 
F 21

>  <SCORE>  (98) 
-13.831

>  <name>  (98) 
97

>  <ligand_id>  (98) 
97

>  <original_smiles>  (98) 
[H]c1c([H])c([H])c2c(c1[H])C([H])([H])C([H])([H])C([H])([H])C2([H])N([H])C(=O)C1([H])N(C(=O)C([H])(N([H])C(=O)C([H])(N([H])C([H])([H])[H])C([H])([H])[H])C(C([H])([H])[H])(C([H])([H])[H])C([H])([H])[H])C([H])([H])c2c([H])c(OC([H])([H])C([H])([H])C([H])(C([H])([H])[H])C(c3c(C([H])([H])[H])sc(N([H])C(=O)N4C([H])([H])C([H])([H])C([H])([H])C([H])(n5nc(-c6c([H])c([H])c(Oc7c([H])c([H])c(F)c([H])c7F)c([H])c6[H])c(C(=O)N([H])[H])c5N([H])[H])C4([H])[H])c3[H])(C([H])([H])[H])C([H])([H])C([H])([H])[H])c([H])c([H])c2C1([H])[H]

>  <smiles>  (98) 
[H]c1c([H])c([H])c2c(c1[H])C([H])([H])C([H])([H])C([H])([H])C2([H])N([H])C(=O)C1([H])N(C(=O)C([H])(N([H])C(=O)C([H])(N([H])C([H])([H])[H])C([H])([H])[H])C(C([H])([H])[H])(C([H])([H])[H])C([H])([H])[H])C([H])([H])c2c([H])c(OC([H])([H])C([H])([H])C([H])(C([H])([H])[H])C(c3c(C([H])([H])[H])sc(N([H])C(=O)N4C([H])([H])C([H])([H])C([H])([H])C([H])(n5nc(-c6c([H])c([H])c(Oc7c([H])c([H])c(F)c([H])c7F)c([H])c6[H])c(C(=O)N([H])[H])c5N([H])[H])C4([H])[H])c3[H])(C([H])([H])[H])C([H])([H])C([H])([H])[H])c([H])c([H])c2C1([H])[H]

$$$$
98:0:0
     RDKit          3D

 93102  0  0  1  0  0  0  0  0999 V2000
  -30.8580  -23.3450   22.0640 C   0  0  0  0  0  2  0  0  0  0  0  0
  -29.8810  -24.4900   21.7820 C   0  0  0  0  0  2  0  0  0  0  0  0
  -29.5650  -22.8160   20.0620 C   0  0  0  0  0  2  0  0  0  0  0  0
  -30.6000  -22.2010   21.0440 C   0  0  0  0  0  3  0  0  0  0  0  0
  -29.4920  -24.3560   20.3130 C   0  0  0  0  0  3  0  0  0  0  0  0
  -28.0210  -24.8470   18.3700 C   0  0  0  0  0  1  0  0  0  0  0  0
  -26.9500  -24.4530   20.7080 C   0  0  0  0  0  1  0  0  0  0  0  0
  -28.1560  -25.0910   19.9010 C   0  0  1  0  0  0  0  0  0  0  0  0
  -28.2960  -26.5440   20.1260 O   0  0  0  0  0  0  0  0  0  0  0  0
  -24.6030  -31.8700   23.2100 C   0  0  0  0  0  0  0  0  0  0  0  0
  -27.1820  -27.3930   20.0530 C   0  0  0  0  0  0  0  0  0  0  0  0
  -23.3930  -30.5110   21.5440 C   0  0  0  0  0  3  0  0  0  0  0  0
  -24.8290  -29.0050   20.0780 C   0  0  0  0  0  0  0  0  0  0  0  0
  -25.9330  -30.8270   21.3740 C   0  0  0  0  0  2  0  0  0  0  0  0
  -26.0020  -29.4720   20.6880 C   0  0  0  0  0  0  0  0  0  0  0  0
  -27.1810  -28.6760   20.6720 C   0  0  0  0  0  3  0  0  0  0  0  0
  -25.9920  -27.0050   19.3930 C   0  0  0  0  0  3  0  0  0  0  0  0
  -24.8220  -27.7710   19.4280 C   0  0  0  0  0  3  0  0  0  0  0  0
  -23.6000  -29.8780   20.1460 C   0  0  0  0  0  2  0  0  0  0  0  0
  -24.6590  -31.0820   22.0980 N   0  0  0  0  0  0  0  0  0  0  0  0
  -23.5190  -32.1430   23.7480 O   0  0  0  0  0  0  0  0  0  0  0  0
  -22.7330  -29.4660   22.4770 C   0  0  0  0  0  0  0  0  0  0  0  0
  -21.4100  -29.2900   22.3380 N   0  0  0  0  0  0  0  0  0  0  0  0
  -23.4090  -28.8260   23.2860 O   0  0  0  0  0  0  0  0  0  0  0  0
  -20.9250  -29.8600   21.6590 H   0  0  0  0  0  0  0  0  0  0  0  0
  -18.0270  -28.0890   22.7960 C   0  0  0  0  0  0  0  0  0  0  0  0
  -20.5840  -28.3410   23.0900 C   0  0  0  0  0  3  0  0  0  0  0  0
  -20.6900  -26.9170   22.4970 C   0  0  0  0  0  2  0  0  0  0  0  0
  -19.5950  -26.6040   21.4740 C   0  0  0  0  0  2  0  0  0  0  0  0
  -18.2080  -26.7440   22.1090 C   0  0  0  0  0  2  0  0  0  0  0  0
  -19.1430  -28.8440   23.2430 C   0  0  0  0  0  0  0  0  0  0  0  0
  -18.9210  -30.1020   23.8470 C   0  0  0  0  0  3  0  0  0  0  0  0
  -17.6150  -30.6030   24.0080 C   0  0  0  0  0  3  0  0  0  0  0  0
  -16.5140  -29.8440   23.5740 C   0  0  0  0  0  3  0  0  0  0  0  0
  -16.7190  -28.5870   22.9780 C   0  0  0  0  0  3  0  0  0  0  0  0
  -25.8890  -32.4820   23.8420 C   0  0  0  0  0  3  0  0  0  0  0  0
  -26.4010  -31.6860   25.1050 C   0  0  1  0  0  0  0  0  0  0  0  0
  -25.3100  -31.4370   26.1710 C   0  0  0  0  0  1  0  0  0  0  0  0
  -26.9740  -30.3090   24.6950 C   0  0  0  0  0  1  0  0  0  0  0  0
  -27.5570  -32.4620   25.7780 C   0  0  0  0  0  1  0  0  0  0  0  0
  -25.5870  -33.8760   24.1920 N   0  0  0  0  0  0  0  0  0  0  0  0
  -25.9170  -34.9380   23.4450 C   0  0  0  0  0  0  0  0  0  0  0  0
  -26.5860  -34.8490   22.4120 O   0  0  0  0  0  0  0  0  0  0  0  0
  -24.9950  -34.0190   24.9970 H   0  0  0  0  0  0  0  0  0  0  0  0
  -24.1950  -36.7420   23.1030 C   0  0  0  0  0  1  0  0  0  0  0  0
  -25.4270  -36.3200   23.9210 C   0  0  0  0  0  3  0  0  0  0  0  0
  -27.5710  -37.1700   24.7690 C   0  0  0  0  0  1  0  0  0  0  0  0
  -26.4590  -37.3770   23.8430 N   0  0  0  0  0  0  0  0  0  0  0  0
  -26.0520  -38.2850   24.0470 H   0  0  0  0  0  0  0  0  0  0  0  0
  -30.2020  -20.8620   21.7640 C   0  0  0  0  0  2  0  0  0  0  0  0
  -31.5880  -18.9960   20.5840 C   0  0  0  0  0  3  0  0  0  0  0  0
  -31.5270  -17.5960   20.2860 C   0  0  0  0  0  3  0  0  0  0  0  0
  -30.4290  -19.5060   21.1110 C   0  0  0  0  0  0  0  0  0  0  0  0
  -30.3230  -16.9910   20.5860 C   0  0  0  0  0  0  0  0  0  0  0  0
  -29.2060  -18.2390   21.1410 S   0  0  0  0  0  0  0  0  0  0  0  0
  -30.6490  -14.5930   20.0860 C   0  0  0  0  0  0  0  0  0  0  0  0
  -30.2760  -12.4500   18.9230 C   0  0  0  0  0  2  0  0  0  0  0  0
  -29.2750  -12.6960   17.7750 C   0  0  0  0  0  2  0  0  0  0  0  0
  -27.8270  -12.5380   18.2760 C   0  0  0  0  0  2  0  0  0  0  0  0
  -27.5570  -13.3220   19.5890 C   0  0  0  0  0  3  0  0  0  0  0  0
  -28.6780  -13.0960   20.6280 C   0  0  0  0  0  2  0  0  0  0  0  0
  -29.9610  -13.4180   19.9860 N   0  0  0  0  0  0  0  0  0  0  0  0
  -31.7900  -14.7130   19.6360 O   0  0  0  0  0  0  0  0  0  0  0  0
  -29.9410  -15.6710   20.5150 N   0  0  0  0  0  0  0  0  0  0  0  0
  -28.9930  -15.4730   20.7970 H   0  0  0  0  0  0  0  0  0  0  0  0
  -25.1960  -13.8830   20.4360 C   0  0  0  0  0  0  0  0  0  0  0  0
  -24.1550  -13.0950   20.8420 C   0  0  0  0  0  0  0  0  0  0  0  0
  -24.6300  -11.7480   20.7690 C   0  0  0  0  0  0  0  0  0  0  0  0
  -26.2380  -13.0190   20.1360 N   0  0  0  0  0  0  0  0  0  0  0  0
  -25.9040  -11.7290   20.3960 N   0  0  0  0  0  0  0  0  0  0  0  0
  -23.9280  -10.4760   20.9760 C   0  0  0  0  0  0  0  0  0  0  0  0
  -24.4040   -9.5110   21.8930 C   0  0  0  0  0  3  0  0  0  0  0  0
  -23.6960   -8.3040   22.0920 C   0  0  0  0  0  3  0  0  0  0  0  0
  -22.5010   -8.0550   21.3760 C   0  0  0  0  0  0  0  0  0  0  0  0
  -22.0450   -9.0090   20.4490 C   0  0  0  0  0  3  0  0  0  0  0  0
  -22.7510  -10.2040   20.2490 C   0  0  0  0  0  3  0  0  0  0  0  0
  -21.7650   -6.8990   21.4830 O   0  0  0  0  0  0  0  0  0  0  0  0
  -21.7500   -6.1610   22.6390 C   0  0  0  0  0  0  0  0  0  0  0  0
  -21.3360   -6.7130   23.8710 C   0  0  0  0  0  3  0  0  0  0  0  0
  -21.2700   -5.9020   25.0210 C   0  0  0  0  0  3  0  0  0  0  0  0
  -21.6040   -4.5370   24.9390 C   0  0  0  0  0  0  0  0  0  0  0  0
  -22.0090   -3.9830   23.7120 C   0  0  0  0  0  3  0  0  0  0  0  0
  -22.0780   -4.7920   22.5650 C   0  0  0  0  0  0  0  0  0  0  0  0
  -22.4500   -4.2490   21.3810 F   0  0  0  0  0  0  0  0  0  0  0  0
  -21.5310   -3.7550   26.0410 F   0  0  0  0  0  0  0  0  0  0  0  0
  -22.7680  -13.5530   21.1870 C   0  0  0  0  0  0  0  0  0  0  0  0
  -22.0900  -12.8390   22.0760 N   0  0  0  0  0  0  0  0  0  0  0  0
  -22.2950  -14.5790   20.7000 O   0  0  0  0  0  0  0  0  0  0  0  0
  -22.4820  -12.0070   22.4920 H   0  0  0  0  0  0  0  0  0  0  0  0
  -21.1600  -13.1280   22.3490 H   0  0  0  0  0  0  0  0  0  0  0  0
  -25.3390  -15.2610   20.2790 N   0  0  0  0  0  0  0  0  0  0  0  0
  -24.5840  -15.9070   20.4800 H   0  0  0  0  0  0  0  0  0  0  0  0
  -26.1780  -15.7250   19.9520 H   0  0  0  0  0  0  0  0  0  0  0  0
  2  1  1  0
  3  5  1  0
  3  4  1  0
  4 50  1  0
  4  1  1  0
  5  8  1  0
  5  2  1  0
  8  6  1  6
  8  9  1  0
  8  7  1  0
 10 21  2  0
 11  9  1  0
 11 16  1  0
 12 20  1  0
 12 22  1  0
 13 19  1  0
 13 15  1  0
 14 20  1  0
 15 14  1  0
 16 15  2  0
 17 18  1  0
 17 11  2  0
 18 13  2  0
 19 12  1  0
 20 10  1  0
 22 24  2  0
 23 22  1  0
 25 23  1  0
 26 35  2  0
 26 31  1  0
 27 23  1  0
 27 31  1  0
 28 27  1  0
 29 30  1  0
 29 28  1  0
 30 26  1  0
 31 32  2  0
 32 33  1  0
 34 33  2  0
 35 34  1  0
 36 10  1  0
 36 41  1  0
 36 37  1  0
 37 40  1  1
 37 38  1  0
 39 37  1  0
 41 44  1  0
 42 46  1  0
 42 41  1  0
 43 42  2  0
 46 45  1  0
 48 46  1  0
 48 49  1  0
 48 47  1  0
 51 53  2  0
 52 51  1  0
 52 54  2  0
 53 55  1  0
 53 50  1  0
 54 55  1  0
 56 64  1  0
 57 62  1  0
 58 59  1  0
 58 57  1  0
 60 59  1  0
 60 69  1  0
 60 61  1  0
 62 56  1  0
 62 61  1  0
 63 56  2  0
 64 54  1  0
 64 65  1  0
 66 67  2  0
 67 86  1  0
 68 67  1  0
 68 71  1  0
 69 70  1  0
 69 66  1  0
 70 68  2  0
 71 72  1  0
 72 73  2  0
 74 77  1  0
 74 73  1  0
 75 74  2  0
 76 75  1  0
 76 71  2  0
 77 78  1  0
 78 79  1  0
 79 80  2  0
 81 80  1  0
 81 85  1  0
 82 81  2  0
 83 78  2  0
 83 82  1  0
 84 83  1  0
 86 87  1  0
 87 90  1  0
 87 89  1  0
 88 86  2  0
 91 66  1  0
 91 92  1  0
 93 91  1  0
M  ISO  4   8 101   9 101  56 100  64 100
M  END
>  <TORSDO>  (99) 
F 19

>  <SCORE>  (99) 
-13.722

>  <name>  (99) 
98

>  <ligand_id>  (99) 
98

>  <original_smiles>  (99) 
[H]c1c(N([H])C(=O)N2C([H])([H])C([H])([H])C([H])([H])C([H])(n3nc(-c4c([H])c([H])c(Oc5c([H])c([H])c(F)c([H])c5F)c([H])c4[H])c(C(=O)N([H])[H])c3N([H])[H])C2([H])[H])sc(C([H])([H])C2([H])C([H])([H])C([H])([H])C([H])(C(Oc3c([H])c([H])c4c(c3[H])C([H])([H])N(C(=O)C([H])(N([H])C(=O)C([H])(N([H])C([H])([H])[H])C([H])([H])[H])C(C([H])([H])[H])(C([H])([H])[H])C([H])([H])[H])C([H])(C(=O)N([H])C3([H])c5c([H])c([H])c([H])c([H])c5C([H])([H])C([H])([H])C3([H])[H])C4([H])[H])(C([H])([H])[H])C([H])([H])[H])C2([H])[H])c1[H]

>  <smiles>  (99) 
[H]c1c(N([H])C(=O)N2C([H])([H])C([H])([H])C([H])([H])C([H])(n3nc(-c4c([H])c([H])c(Oc5c([H])c([H])c(F)c([H])c5F)c([H])c4[H])c(C(=O)N([H])[H])c3N([H])[H])C2([H])[H])sc(C([H])([H])C2([H])C([H])([H])C([H])([H])C([H])(C(Oc3c([H])c([H])c4c(c3[H])C([H])([H])N(C(=O)C([H])(N([H])C(=O)C([H])(N([H])C([H])([H])[H])C([H])([H])[H])C(C([H])([H])[H])(C([H])([H])[H])C([H])([H])[H])C([H])(C(=O)N([H])C3([H])c5c([H])c([H])c([H])c([H])c5C([H])([H])C([H])([H])C3([H])[H])C4([H])[H])(C([H])([H])[H])C([H])([H])[H])C2([H])[H])c1[H]

$$$$
