0:0:0
     RDKit          3D

 99108  0  0  1  0  0  0  0  0999 V2000
  -29.4590  -23.0030   23.6890 C   0  0  0  0  0  1  0  0  0  0  0  0
  -29.7000  -23.0290   22.1680 C   0  0  0  0  0  3  0  0  0  0  0  0
  -27.8720  -23.4850   20.3970 C   0  0  0  0  0  3  0  0  0  0  0  0
  -28.4060  -22.7610   21.4030 C   0  0  0  0  0  0  0  0  0  0  0  0
  -27.8060  -21.6480   21.8580 O   0  0  0  0  0  0  0  0  0  0  0  0
  -28.3860  -21.2450   22.4890 H   0  0  0  0  0  0  0  0  0  0  0  0
  -28.4800  -24.7060   19.8430 C   0  0  0  0  0  0  0  0  0  0  0  0
  -28.9730  -24.7350   18.7100 O   0  0  0  0  0  0  0  0  0  0  0  0
  -28.4740  -25.9690   20.7160 C   0  0  0  0  0  2  0  0  0  0  0  0
  -28.5190  -27.1450   19.9010 O   0  0  0  0  0  0  0  0  0  0  0  0
  -24.5800  -31.9320   23.3060 C   0  0  0  0  0  0  0  0  0  0  0  0
  -27.3350  -27.8360   19.9210 C   0  0  0  0  0  0  0  0  0  0  0  0
  -23.3960  -30.6040   21.5870 C   0  0  0  0  0  3  0  0  0  0  0  0
  -24.8850  -29.2200   20.0440 C   0  0  0  0  0  0  0  0  0  0  0  0
  -25.8950  -31.0870   21.3680 C   0  0  0  0  0  2  0  0  0  0  0  0
  -26.0270  -29.7580   20.6540 C   0  0  0  0  0  0  0  0  0  0  0  0
  -27.2570  -29.0700   20.5940 C   0  0  0  0  0  3  0  0  0  0  0  0
  -26.1880  -27.3070   19.2930 C   0  0  0  0  0  3  0  0  0  0  0  0
  -24.9590  -27.9950   19.3550 C   0  0  0  0  0  3  0  0  0  0  0  0
  -23.6090  -30.0220   20.1620 C   0  0  0  0  0  2  0  0  0  0  0  0
  -24.6440  -31.2120   22.1500 N   0  0  0  0  0  0  0  0  0  0  0  0
  -23.4970  -32.1320   23.8740 O   0  0  0  0  0  0  0  0  0  0  0  0
  -22.7970  -29.4970   22.4800 C   0  0  0  0  0  0  0  0  0  0  0  0
  -21.4790  -29.2770   22.3560 N   0  0  0  0  0  0  0  0  0  0  0  0
  -23.5160  -28.8460   23.2450 O   0  0  0  0  0  0  0  0  0  0  0  0
  -20.9580  -29.8650   21.7230 H   0  0  0  0  0  0  0  0  0  0  0  0
  -18.1630  -27.9140   22.7690 C   0  0  0  0  0  0  0  0  0  0  0  0
  -20.7080  -28.2590   23.0640 C   0  0  0  0  0  3  0  0  0  0  0  0
  -20.8690  -26.8700   22.4050 C   0  0  0  0  0  2  0  0  0  0  0  0
  -19.7780  -26.5600   21.3720 C   0  0  0  0  0  2  0  0  0  0  0  0
  -18.3920  -26.6140   22.0200 C   0  0  0  0  0  2  0  0  0  0  0  0
  -19.2490  -28.6930   23.2440 C   0  0  0  0  0  0  0  0  0  0  0  0
  -18.9780  -29.9130   23.9020 C   0  0  0  0  0  3  0  0  0  0  0  0
  -17.6550  -30.3520   24.0930 C   0  0  0  0  0  3  0  0  0  0  0  0
  -16.5840  -29.5690   23.6310 C   0  0  0  0  0  3  0  0  0  0  0  0
  -16.8370  -28.3520   22.9730 C   0  0  0  0  0  3  0  0  0  0  0  0
  -25.8530  -32.5600   23.9560 C   0  0  0  0  0  3  0  0  0  0  0  0
  -25.5420  -33.9580   24.2700 N   0  0  0  0  0  0  0  0  0  0  0  0
  -25.9120  -35.0050   23.5210 C   0  0  0  0  0  0  0  0  0  0  0  0
  -26.6210  -34.8950   22.5160 O   0  0  0  0  0  0  0  0  0  0  0  0
  -24.9130  -34.1220   25.0450 H   0  0  0  0  0  0  0  0  0  0  0  0
  -24.2160  -36.8100   23.0880 C   0  0  0  0  0  1  0  0  0  0  0  0
  -25.4170  -36.3980   23.9530 C   0  0  0  0  0  3  0  0  0  0  0  0
  -27.5320  -37.2630   24.8570 C   0  0  0  0  0  1  0  0  0  0  0  0
  -26.4630  -37.4410   23.8780 N   0  0  0  0  0  0  0  0  0  0  0  0
  -26.0590  -38.3650   24.0110 H   0  0  0  0  0  0  0  0  0  0  0  0
  -26.3420  -31.7870   25.2420 C   0  0  1  0  0  0  0  0  0  0  0  0
  -25.2220  -31.5320   26.2760 C   0  0  0  0  0  1  0  0  0  0  0  0
  -26.9450  -30.4190   24.8490 C   0  0  0  0  0  1  0  0  0  0  0  0
  -27.4630  -32.5850   25.9430 C   0  0  0  0  0  1  0  0  0  0  0  0
  -30.9020  -22.1980   21.6180 C   0  0  0  0  0  2  0  0  0  0  0  0
  -32.8150  -21.3150   23.0650 C   0  0  0  0  0  1  0  0  0  0  0  0
  -31.4340  -21.0000   22.4560 C   0  0  0  0  0  3  0  0  0  0  0  0
  -32.1530  -19.6020   20.3960 C   0  0  0  0  0  3  0  0  0  0  0  0
  -31.0350  -18.4170   21.8950 C   0  0  0  0  0  0  0  0  0  0  0  0
  -31.5360  -19.7310   21.6170 C   0  0  0  0  0  0  0  0  0  0  0  0
  -31.3650  -17.6240   20.8250 C   0  0  0  0  0  0  0  0  0  0  0  0
  -32.0570  -18.3330   19.8970 O   0  0  0  0  0  0  0  0  0  0  0  0
  -31.6390  -15.3350   20.0000 C   0  0  0  0  0  0  0  0  0  0  0  0
  -31.3270  -13.0990   18.9790 C   0  0  0  0  0  2  0  0  0  0  0  0
  -30.3830  -13.2030   17.7630 C   0  0  0  0  0  2  0  0  0  0  0  0
  -28.9080  -13.0910   18.1950 C   0  0  0  0  0  2  0  0  0  0  0  0
  -28.5750  -14.0460   19.3700 C   0  0  0  0  0  3  0  0  0  0  0  0
  -29.6170  -13.9050   20.5050 C   0  0  0  0  0  2  0  0  0  0  0  0
  -30.9510  -14.1600   19.9310 N   0  0  0  0  0  0  0  0  0  0  0  0
  -32.7240  -15.4960   19.4260 O   0  0  0  0  0  0  0  0  0  0  0  0
  -31.0200  -16.3140   20.6920 N   0  0  0  0  0  0  0  0  0  0  0  0
  -30.1430  -16.0530   21.1120 H   0  0  0  0  0  0  0  0  0  0  0  0
  -26.2030  -14.7590   20.0590 C   0  0  0  0  0  0  0  0  0  0  0  0
  -25.1060  -14.0340   20.4510 C   0  0  0  0  0  0  0  0  0  0  0  0
  -25.5200  -12.6690   20.4570 C   0  0  0  0  0  0  0  0  0  0  0  0
  -27.2130  -13.8340   19.8510 N   0  0  0  0  0  0  0  0  0  0  0  0
  -26.8070  -12.5740   20.1460 N   0  0  0  0  0  0  0  0  0  0  0  0
  -24.7520  -11.4400   20.6810 C   0  0  0  0  0  0  0  0  0  0  0  0
  -25.1120  -10.5180   21.6890 C   0  0  0  0  0  3  0  0  0  0  0  0
  -24.3440   -9.3520   21.9000 C   0  0  0  0  0  3  0  0  0  0  0  0
  -23.2040   -9.0990   21.1010 C   0  0  0  0  0  0  0  0  0  0  0  0
  -22.8680  -10.0050   20.0800 C   0  0  0  0  0  3  0  0  0  0  0  0
  -23.6350  -11.1630   19.8690 C   0  0  0  0  0  3  0  0  0  0  0  0
  -22.4180   -7.9770   21.2140 O   0  0  0  0  0  0  0  0  0  0  0  0
  -22.1350   -7.4140   22.4340 C   0  0  0  0  0  0  0  0  0  0  0  0
  -21.5660   -8.1640   23.4860 C   0  0  0  0  0  3  0  0  0  0  0  0
  -21.2300   -7.5320   24.7000 C   0  0  0  0  0  3  0  0  0  0  0  0
  -21.4540   -6.1520   24.8600 C   0  0  0  0  0  0  0  0  0  0  0  0
  -22.0160   -5.4010   23.8110 C   0  0  0  0  0  3  0  0  0  0  0  0
  -22.3540   -6.0320   22.6000 C   0  0  0  0  0  0  0  0  0  0  0  0
  -22.8750   -5.3000   21.5860 F   0  0  0  0  0  0  0  0  0  0  0  0
  -21.1250   -5.5440   26.0230 F   0  0  0  0  0  0  0  0  0  0  0  0
  -23.7300  -14.5700   20.7170 C   0  0  0  0  0  0  0  0  0  0  0  0
  -23.0000  -13.9440   21.6370 N   0  0  0  0  0  0  0  0  0  0  0  0
  -23.3120  -15.5730   20.1460 O   0  0  0  0  0  0  0  0  0  0  0  0
  -23.3570  -13.1280   22.1090 H   0  0  0  0  0  0  0  0  0  0  0  0
  -22.0760  -14.2820   21.8680 H   0  0  0  0  0  0  0  0  0  0  0  0
  -26.4180  -16.1160   19.8460 N   0  0  0  0  0  0  0  0  0  0  0  0
  -25.6750  -16.8000   19.9330 H   0  0  0  0  0  0  0  0  0  0  0  0
  -27.2880  -16.5140   19.5150 H   0  0  0  0  0  0  0  0  0  0  0  0
  -30.5510  -18.4810   24.5210 C   0  0  0  0  0  2  0  0  0  0  0  0
  -30.9420  -17.0710   24.1410 C   0  0  0  0  0  2  0  0  0  0  0  0
  -30.2660  -17.9690   23.1250 C   0  0  0  0  0  3  0  0  0  0  0  0
  2  1  1  0
  3  4  2  0
  4  5  1  0
  4  2  1  0
  5  6  1  0
  7  3  1  0
  7  9  1  0
  8  7  2  0
 10 12  1  0
 10  9  1  0
 11 22  2  0
 12 17  1  0
 13 21  1  0
 13 23  1  0
 14 20  1  0
 14 16  1  0
 15 21  1  0
 16 15  1  0
 17 16  2  0
 18 19  1  0
 18 12  2  0
 19 14  2  0
 20 13  1  0
 21 11  1  0
 23 25  2  0
 24 23  1  0
 26 24  1  0
 27 36  2  0
 27 32  1  0
 28 24  1  0
 28 32  1  0
 29 28  1  0
 30 31  1  0
 30 29  1  0
 31 27  1  0
 32 33  2  0
 33 34  1  0
 35 34  2  0
 36 35  1  0
 37 11  1  0
 37 38  1  0
 37 47  1  0
 38 41  1  0
 39 43  1  0
 39 38  1  0
 40 39  2  0
 43 42  1  0
 45 43  1  0
 45 46  1  0
 45 44  1  0
 47 50  1  1
 47 48  1  0
 49 47  1  0
 51  2  1  0
 51 53  1  0
 53 52  1  0
 54 56  2  0
 55 99  1  0
 56 55  1  0
 56 53  1  0
 57 55  2  0
 58 54  1  0
 58 57  1  0
 59 67  1  0
 60 65  1  0
 61 62  1  0
 61 60  1  0
 63 62  1  0
 63 72  1  0
 63 64  1  0
 65 59  1  0
 65 64  1  0
 66 59  2  0
 67 57  1  0
 67 68  1  0
 69 70  2  0
 70 71  1  0
 70 89  1  0
 71 74  1  0
 72 69  1  0
 72 73  1  0
 73 71  2  0
 74 75  1  0
 75 76  2  0
 77 80  1  0
 77 76  1  0
 78 77  2  0
 79 78  1  0
 79 74  2  0
 80 81  1  0
 81 86  2  0
 81 82  1  0
 82 83  2  0
 83 84  1  0
 84 88  1  0
 85 84  2  0
 86 85  1  0
 87 86  1  0
 89 90  1  0
 90 93  1  0
 90 92  1  0
 91 89  2  0
 94 95  1  0
 94 69  1  0
 96 94  1  0
 98 97  1  0
 99 98  1  0
 99 97  1  0
M  ISO  4   9 101  10 101  59 100  67 100
M  END
>  <TORSDO>  (1) 
F 24

>  <SCORE>  (1) 
-7.712

>  <name>  (1) 
0

>  <ligand_id>  (1) 
0

>  <original_smiles>  (1) 
[H]OC(=C([H])C(=O)C([H])([H])Oc1c([H])c([H])c2c(c1[H])C([H])([H])N(C(=O)C([H])(N([H])C(=O)C([H])(N([H])C([H])([H])[H])C([H])([H])[H])C(C([H])([H])[H])(C([H])([H])[H])C([H])([H])[H])C([H])(C(=O)N([H])C1([H])c3c([H])c([H])c([H])c([H])c3C([H])([H])C([H])([H])C1([H])[H])C2([H])[H])C([H])(C([H])([H])[H])C([H])([H])C([H])(c1c([H])oc(N([H])C(=O)N2C([H])([H])C([H])([H])C([H])([H])C([H])(n3nc(-c4c([H])c([H])c(Oc5c([H])c([H])c(F)c([H])c5F)c([H])c4[H])c(C(=O)N([H])[H])c3N([H])[H])C2([H])[H])c1C1([H])C([H])([H])C1([H])[H])C([H])([H])[H]

>  <smiles>  (1) 
[H]OC(=C([H])C(=O)C([H])([H])Oc1c([H])c([H])c2c(c1[H])C([H])([H])N(C(=O)C([H])(N([H])C(=O)C([H])(N([H])C([H])([H])[H])C([H])([H])[H])C(C([H])([H])[H])(C([H])([H])[H])C([H])([H])[H])C([H])(C(=O)N([H])C1([H])c3c([H])c([H])c([H])c([H])c3C([H])([H])C([H])([H])C1([H])[H])C2([H])[H])C([H])(C([H])([H])[H])C([H])([H])C([H])(c1c([H])oc(N([H])C(=O)N2C([H])([H])C([H])([H])C([H])([H])C([H])(n3nc(-c4c([H])c([H])c(Oc5c([H])c([H])c(F)c([H])c5F)c([H])c4[H])c(C(=O)N([H])[H])c3N([H])[H])C2([H])[H])c1C1([H])C([H])([H])C1([H])[H])C([H])([H])[H]

$$$$
1:0:0
     RDKit          3D

 99108  0  0  1  0  0  0  0  0999 V2000
  -30.5520  -22.2140   19.2960 C   0  0  0  0  0  1  0  0  0  0  0  0
  -29.6900  -21.3510   21.4500 C   0  0  0  0  0  1  0  0  0  0  0  0
  -29.2500  -21.9630   20.0960 C   0  0  2  0  0  0  0  0  0  0  0  0
  -28.3400  -20.9810   19.3040 C   0  0  0  0  0  0  0  0  0  0  0  0
  -27.8300  -21.3050   18.1870 N   0  0  0  0  0  0  0  0  0  0  0  0
  -27.2540  -20.5650   17.8010 H   0  0  0  0  0  0  0  0  0  0  0  0
  -27.7340  -18.3850   19.0070 C   0  0  0  0  0  2  0  0  0  0  0  0
  -29.0240  -18.3950   19.7820 C   0  0  0  0  0  3  0  0  0  0  0  0
  -28.0590  -19.5820   19.8830 C   0  0  0  0  0  3  0  0  0  0  0  0
  -29.8660  -15.5220   22.1730 C   0  0  0  0  0  3  0  0  0  0  0  0
  -29.4800  -16.3610   23.1810 C   0  0  0  0  0  3  0  0  0  0  0  0
  -29.7180  -16.1260   20.8880 C   0  0  0  0  0  0  0  0  0  0  0  0
  -29.2590  -17.4280   20.9210 C   0  0  0  0  0  0  0  0  0  0  0  0
  -28.9530  -17.9070   22.5740 S   0  0  0  0  0  0  0  0  0  0  0  0
  -30.7700  -14.3700   19.4830 C   0  0  0  0  0  0  0  0  0  0  0  0
  -30.2740  -12.3150   18.2440 C   0  0  0  0  0  2  0  0  0  0  0  0
  -29.1810  -12.6500   17.2090 C   0  0  0  0  0  2  0  0  0  0  0  0
  -27.7740  -12.5000   17.8230 C   0  0  0  0  0  2  0  0  0  0  0  0
  -27.6350  -13.2220   19.1920 C   0  0  0  0  0  3  0  0  0  0  0  0
  -28.8250  -12.8810   20.1140 C   0  0  0  0  0  2  0  0  0  0  0  0
  -30.0630  -13.2090   19.3940 N   0  0  0  0  0  0  0  0  0  0  0  0
  -31.8940  -14.5100   19.0010 O   0  0  0  0  0  0  0  0  0  0  0  0
  -30.0300  -15.4790   19.6670 N   0  0  0  0  0  0  0  0  0  0  0  0
  -30.2350  -16.1510   18.9450 H   0  0  0  0  0  0  0  0  0  0  0  0
  -25.3980  -13.8160   20.3100 C   0  0  0  0  0  0  0  0  0  0  0  0
  -24.3540  -13.0390   20.7300 C   0  0  0  0  0  0  0  0  0  0  0  0
  -24.7390  -11.6860   20.4760 C   0  0  0  0  0  0  0  0  0  0  0  0
  -26.3550  -12.9340   19.8290 N   0  0  0  0  0  0  0  0  0  0  0  0
  -25.9710  -11.6420   19.9850 N   0  0  0  0  0  0  0  0  0  0  0  0
  -23.9880  -10.4350   20.6160 C   0  0  0  0  0  0  0  0  0  0  0  0
  -24.5230   -9.3240   21.3050 C   0  0  0  0  0  3  0  0  0  0  0  0
  -23.7710   -8.1380   21.4440 C   0  0  0  0  0  3  0  0  0  0  0  0
  -22.4700   -8.0560   20.8950 C   0  0  0  0  0  0  0  0  0  0  0  0
  -21.9520   -9.1540   20.1850 C   0  0  0  0  0  3  0  0  0  0  0  0
  -22.7040  -10.3320   20.0440 C   0  0  0  0  0  3  0  0  0  0  0  0
  -21.6760   -6.9360   20.9610 O   0  0  0  0  0  0  0  0  0  0  0  0
  -21.8220   -6.0060   21.9580 C   0  0  0  0  0  0  0  0  0  0  0  0
  -21.7470   -6.3590   23.3230 C   0  0  0  0  0  3  0  0  0  0  0  0
  -21.8330   -5.3590   24.3140 C   0  0  0  0  0  3  0  0  0  0  0  0
  -21.9850   -4.0100   23.9430 C   0  0  0  0  0  0  0  0  0  0  0  0
  -22.0550   -3.6560   22.5840 C   0  0  0  0  0  3  0  0  0  0  0  0
  -21.9700   -4.6510   21.5940 C   0  0  0  0  0  0  0  0  0  0  0  0
  -22.0150   -4.3030   20.2860 F   0  0  0  0  0  0  0  0  0  0  0  0
  -22.0590   -3.0510   24.8940 F   0  0  0  0  0  0  0  0  0  0  0  0
  -23.0320  -13.5260   21.2500 C   0  0  0  0  0  0  0  0  0  0  0  0
  -22.4000  -12.7540   22.1280 N   0  0  0  0  0  0  0  0  0  0  0  0
  -22.5710  -14.6150   20.9140 O   0  0  0  0  0  0  0  0  0  0  0  0
  -22.7910  -11.8710   22.4200 H   0  0  0  0  0  0  0  0  0  0  0  0
  -21.5140  -13.0510   22.5130 H   0  0  0  0  0  0  0  0  0  0  0  0
  -25.6060  -15.1910   20.2850 N   0  0  0  0  0  0  0  0  0  0  0  0
  -24.9120  -15.8490   20.6190 H   0  0  0  0  0  0  0  0  0  0  0  0
  -26.4670  -15.6340   19.9890 H   0  0  0  0  0  0  0  0  0  0  0  0
  -28.5180  -23.3230   20.3740 C   0  0  0  0  0  0  0  0  0  0  0  0
  -28.1270  -23.6120   21.5110 O   0  0  0  0  0  0  0  0  0  0  0  0
  -28.2630  -24.3200   19.2200 C   0  0  0  0  0  2  0  0  0  0  0  0
  -30.3900  -25.6500   19.7350 C   0  0  0  0  0  1  0  0  0  0  0  0
  -28.8900  -26.4130   17.9080 C   0  0  0  0  0  1  0  0  0  0  0  0
  -28.9120  -25.7490   19.2980 C   0  0  1  0  0  0  0  0  0  0  0  0
  -28.3990  -26.6760   20.2790 O   0  0  0  0  0  0  0  0  0  0  0  0
  -24.5640  -31.8160   23.3030 C   0  0  0  0  0  0  0  0  0  0  0  0
  -27.2230  -27.4020   20.1730 C   0  0  0  0  0  0  0  0  0  0  0  0
  -23.3820  -30.4780   21.5870 C   0  0  0  0  0  3  0  0  0  0  0  0
  -24.8490  -28.9540   20.1550 C   0  0  0  0  0  0  0  0  0  0  0  0
  -25.9140  -30.7950   21.4730 C   0  0  0  0  0  2  0  0  0  0  0  0
  -25.9920  -29.4380   20.8000 C   0  0  0  0  0  0  0  0  0  0  0  0
  -27.1720  -28.6610   20.8220 C   0  0  0  0  0  3  0  0  0  0  0  0
  -26.0640  -26.9400   19.5130 C   0  0  0  0  0  3  0  0  0  0  0  0
  -24.8790  -27.7050   19.5130 C   0  0  0  0  0  3  0  0  0  0  0  0
  -23.6150  -29.8280   20.1950 C   0  0  0  0  0  2  0  0  0  0  0  0
  -24.6370  -31.0440   22.1800 N   0  0  0  0  0  0  0  0  0  0  0  0
  -23.4740  -32.0920   23.8220 O   0  0  0  0  0  0  0  0  0  0  0  0
  -22.6840  -29.4480   22.5020 C   0  0  0  0  0  0  0  0  0  0  0  0
  -21.3580  -29.3100   22.3420 N   0  0  0  0  0  0  0  0  0  0  0  0
  -23.3340  -28.7750   23.3080 O   0  0  0  0  0  0  0  0  0  0  0  0
  -20.8960  -29.9200   21.6810 H   0  0  0  0  0  0  0  0  0  0  0  0
  -17.9500  -28.1380   22.7010 C   0  0  0  0  0  0  0  0  0  0  0  0
  -20.5010  -28.3570   23.0490 C   0  0  0  0  0  3  0  0  0  0  0  0
  -20.6150  -26.9390   22.4340 C   0  0  0  0  0  2  0  0  0  0  0  0
  -19.5160  -26.6040   21.4150 C   0  0  0  0  0  2  0  0  0  0  0  0
  -18.1220  -26.7870   22.0260 C   0  0  0  0  0  2  0  0  0  0  0  0
  -19.0660  -28.8760   23.1790 C   0  0  0  0  0  0  0  0  0  0  0  0
  -18.8470  -30.1340   23.7870 C   0  0  0  0  0  3  0  0  0  0  0  0
  -17.5450  -30.6470   23.9300 C   0  0  0  0  0  3  0  0  0  0  0  0
  -16.4430  -29.9070   23.4690 C   0  0  0  0  0  3  0  0  0  0  0  0
  -16.6470  -28.6590   22.8560 C   0  0  0  0  0  3  0  0  0  0  0  0
  -25.8430  -32.4100   23.9730 C   0  0  0  0  0  3  0  0  0  0  0  0
  -25.5340  -33.7890   24.3730 N   0  0  0  0  0  0  0  0  0  0  0  0
  -25.8790  -34.8800   23.6720 C   0  0  0  0  0  0  0  0  0  0  0  0
  -26.5640  -34.8280   22.6480 O   0  0  0  0  0  0  0  0  0  0  0  0
  -24.9300  -33.9050   25.1730 H   0  0  0  0  0  0  0  0  0  0  0  0
  -24.1520  -36.6840   23.3960 C   0  0  0  0  0  1  0  0  0  0  0  0
  -25.3880  -36.2410   24.1960 C   0  0  0  0  0  3  0  0  0  0  0  0
  -27.5220  -37.0770   25.0760 C   0  0  0  0  0  1  0  0  0  0  0  0
  -26.4210  -37.2990   24.1410 N   0  0  0  0  0  0  0  0  0  0  0  0
  -26.0140  -38.2080   24.3430 H   0  0  0  0  0  0  0  0  0  0  0  0
  -26.3430  -31.5700   25.2130 C   0  0  1  0  0  0  0  0  0  0  0  0
  -25.2390  -31.2810   26.2560 C   0  0  0  0  0  1  0  0  0  0  0  0
  -26.9240  -30.2130   24.7510 C   0  0  0  0  0  1  0  0  0  0  0  0
  -27.4920  -32.3200   25.9290 C   0  0  0  0  0  1  0  0  0  0  0  0
  3  1  1  6
  3 53  1  0
  3  2  1  0
  4  3  1  0
  5  4  2  0
  6  5  1  0
  7  8  1  0
  7  9  1  0
  8  9  1  0
  8 13  1  0
  9  4  1  0
 10 11  2  0
 12 13  2  0
 12 10  1  0
 13 14  1  0
 14 11  1  0
 15 23  1  0
 16 21  1  0
 17 18  1  0
 17 16  1  0
 19 18  1  0
 19 28  1  0
 19 20  1  0
 21 15  1  0
 21 20  1  0
 22 15  2  0
 23 12  1  0
 24 23  1  0
 25 26  2  0
 26 45  1  0
 27 30  1  0
 27 26  1  0
 28 29  1  0
 28 25  1  0
 29 27  2  0
 30 31  1  0
 31 32  2  0
 33 36  1  0
 33 32  1  0
 34 33  2  0
 35 34  1  0
 35 30  2  0
 36 37  1  0
 37 38  1  0
 38 39  2  0
 40 39  1  0
 40 44  1  0
 41 40  2  0
 42 37  2  0
 42 41  1  0
 43 42  1  0
 45 46  1  0
 46 48  1  0
 46 49  1  0
 47 45  2  0
 50 25  1  0
 50 51  1  0
 52 50  1  0
 53 54  2  0
 55 58  1  0
 55 53  1  0
 58 57  1  6
 58 56  1  0
 58 59  1  0
 60 71  2  0
 61 59  1  0
 61 66  1  0
 62 70  1  0
 62 72  1  0
 63 69  1  0
 63 65  1  0
 64 70  1  0
 65 66  2  0
 65 64  1  0
 67 61  2  0
 68 67  1  0
 68 63  2  0
 69 62  1  0
 70 60  1  0
 72 74  2  0
 73 72  1  0
 75 73  1  0
 76 85  2  0
 76 81  1  0
 77 73  1  0
 77 81  1  0
 78 77  1  0
 79 80  1  0
 79 78  1  0
 80 76  1  0
 81 82  2  0
 82 83  1  0
 84 83  2  0
 85 84  1  0
 86 60  1  0
 86 87  1  0
 86 96  1  0
 87 90  1  0
 88 92  1  0
 88 87  1  0
 89 88  2  0
 92 91  1  0
 94 92  1  0
 94 95  1  0
 94 93  1  0
 96 99  1  1
 96 97  1  0
 98 96  1  0
M  ISO  4  15 100  23 100  58 101  59 101
M  END
>  <TORSDO>  (2) 
F 22

>  <SCORE>  (2) 
-4.725

>  <name>  (2) 
1

>  <ligand_id>  (2) 
1

>  <original_smiles>  (2) 
[H]N=C(C1([H])C([H])([H])C1([H])c1sc([H])c([H])c1N([H])C(=O)N1C([H])([H])C([H])([H])C([H])([H])C([H])(n2nc(-c3c([H])c([H])c(Oc4c([H])c([H])c(F)c([H])c4F)c([H])c3[H])c(C(=O)N([H])[H])c2N([H])[H])C1([H])[H])C(C(=O)C([H])([H])C(Oc1c([H])c([H])c2c(c1[H])C([H])([H])N(C(=O)C([H])(N([H])C(=O)C([H])(N([H])C([H])([H])[H])C([H])([H])[H])C(C([H])([H])[H])(C([H])([H])[H])C([H])([H])[H])C([H])(C(=O)N([H])C1([H])c3c([H])c([H])c([H])c([H])c3C([H])([H])C([H])([H])C1([H])[H])C2([H])[H])(C([H])([H])[H])C([H])([H])[H])(C([H])([H])[H])C([H])([H])[H]

>  <smiles>  (2) 
[H]N=C(C1([H])C([H])([H])C1([H])c1sc([H])c([H])c1N([H])C(=O)N1C([H])([H])C([H])([H])C([H])([H])C([H])(n2nc(-c3c([H])c([H])c(Oc4c([H])c([H])c(F)c([H])c4F)c([H])c3[H])c(C(=O)N([H])[H])c2N([H])[H])C1([H])[H])C(C(=O)C([H])([H])C(Oc1c([H])c([H])c2c(c1[H])C([H])([H])N(C(=O)C([H])(N([H])C(=O)C([H])(N([H])C([H])([H])[H])C([H])([H])[H])C(C([H])([H])[H])(C([H])([H])[H])C([H])([H])[H])C([H])(C(=O)N([H])C1([H])c3c([H])c([H])c([H])c([H])c3C([H])([H])C([H])([H])C1([H])[H])C2([H])[H])(C([H])([H])[H])C([H])([H])[H])(C([H])([H])[H])C([H])([H])[H]

$$$$
2:0:0
     RDKit          3D

 91100  0  0  1  0  0  0  0  0999 V2000
  -28.2520  -21.3470   20.9390 C   0  0  0  0  0  2  0  0  0  0  0  0
  -30.6000  -21.9240   20.1450 C   0  0  0  0  0  2  0  0  0  0  0  0
  -27.9770  -22.8800   21.0950 C   0  0  0  0  0  2  0  0  0  0  0  0
  -30.2640  -23.4580   20.2700 C   0  0  0  0  0  2  0  0  0  0  0  0
  -29.7490  -20.9340   21.0180 C   0  0  0  0  0  3  0  0  0  0  0  0
  -28.7570  -23.7120   20.0400 C   0  0  0  0  0  3  0  0  0  0  0  0
  -29.6530  -18.2290   21.3370 C   0  0  0  0  0  3  0  0  0  0  0  0
  -30.8650  -17.7670   19.5160 C   0  0  0  0  0  3  0  0  0  0  0  0
  -30.2110  -17.1530   20.5510 C   0  0  0  0  0  0  0  0  0  0  0  0
  -30.0000  -19.4290   20.7280 C   0  0  0  0  0  0  0  0  0  0  0  0
  -30.7260  -19.1290   19.6030 O   0  0  0  0  0  0  0  0  0  0  0  0
  -30.7240  -14.6760   20.1870 C   0  0  0  0  0  0  0  0  0  0  0  0
  -30.4350  -12.4690   19.0720 C   0  0  0  0  0  2  0  0  0  0  0  0
  -29.4540  -12.6240   17.8890 C   0  0  0  0  0  2  0  0  0  0  0  0
  -27.9960  -12.4570   18.3600 C   0  0  0  0  0  2  0  0  0  0  0  0
  -27.6830  -13.3020   19.6250 C   0  0  0  0  0  3  0  0  0  0  0  0
  -28.7770  -13.1330   20.7050 C   0  0  0  0  0  2  0  0  0  0  0  0
  -30.0750  -13.4700   20.1000 N   0  0  0  0  0  0  0  0  0  0  0  0
  -31.8340  -14.8370   19.6720 O   0  0  0  0  0  0  0  0  0  0  0  0
  -30.0500  -15.7170   20.7680 N   0  0  0  0  0  0  0  0  0  0  0  0
  -29.2430  -15.4430   21.3060 H   0  0  0  0  0  0  0  0  0  0  0  0
  -25.3170  -13.8870   20.4380 C   0  0  0  0  0  0  0  0  0  0  0  0
  -24.2640  -13.1060   20.8320 C   0  0  0  0  0  0  0  0  0  0  0  0
  -24.7250  -11.7550   20.7670 C   0  0  0  0  0  0  0  0  0  0  0  0
  -26.3510  -13.0100   20.1520 N   0  0  0  0  0  0  0  0  0  0  0  0
  -26.0040  -11.7220   20.4120 N   0  0  0  0  0  0  0  0  0  0  0  0
  -24.0080  -10.4890   20.9680 C   0  0  0  0  0  0  0  0  0  0  0  0
  -24.4560   -9.5280   21.9020 C   0  0  0  0  0  3  0  0  0  0  0  0
  -23.7410   -8.3260   22.0950 C   0  0  0  0  0  3  0  0  0  0  0  0
  -22.5660   -8.0740   21.3480 C   0  0  0  0  0  0  0  0  0  0  0  0
  -22.1340   -9.0240   20.4050 C   0  0  0  0  0  3  0  0  0  0  0  0
  -22.8500  -10.2180   20.2140 C   0  0  0  0  0  3  0  0  0  0  0  0
  -21.8240   -6.9220   21.4430 O   0  0  0  0  0  0  0  0  0  0  0  0
  -21.7600   -6.2010   22.6070 C   0  0  0  0  0  0  0  0  0  0  0  0
  -21.2740   -6.7660   23.8060 C   0  0  0  0  0  3  0  0  0  0  0  0
  -21.1600   -5.9720   24.9650 C   0  0  0  0  0  3  0  0  0  0  0  0
  -21.5210   -4.6110   24.9240 C   0  0  0  0  0  0  0  0  0  0  0  0
  -22.0020   -4.0430   23.7310 C   0  0  0  0  0  3  0  0  0  0  0  0
  -22.1180   -4.8370   22.5740 C   0  0  0  0  0  0  0  0  0  0  0  0
  -22.5630   -4.2810   21.4210 F   0  0  0  0  0  0  0  0  0  0  0  0
  -21.4020   -3.8460   26.0350 F   0  0  0  0  0  0  0  0  0  0  0  0
  -22.8760  -13.5770   21.1540 C   0  0  0  0  0  0  0  0  0  0  0  0
  -22.1760  -12.8710   22.0340 N   0  0  0  0  0  0  0  0  0  0  0  0
  -22.4220  -14.6090   20.6610 O   0  0  0  0  0  0  0  0  0  0  0  0
  -22.5610  -12.0370   22.4520 H   0  0  0  0  0  0  0  0  0  0  0  0
  -21.2470  -13.1710   22.2970 H   0  0  0  0  0  0  0  0  0  0  0  0
  -25.4810  -15.2610   20.2800 N   0  0  0  0  0  0  0  0  0  0  0  0
  -24.7300  -15.9280   20.4230 H   0  0  0  0  0  0  0  0  0  0  0  0
  -26.3290  -15.6970   19.9360 H   0  0  0  0  0  0  0  0  0  0  0  0
  -28.1630  -25.1250   19.5850 C   0  0  0  0  0  2  0  0  0  0  0  0
  -28.2610  -26.4570   20.2300 O   0  0  0  0  0  0  0  0  0  0  0  0
  -24.6130  -31.9080   23.2420 C   0  0  0  0  0  0  0  0  0  0  0  0
  -27.1640  -27.3410   20.1360 C   0  0  0  0  0  0  0  0  0  0  0  0
  -23.3850  -30.5140   21.6190 C   0  0  0  0  0  3  0  0  0  0  0  0
  -24.8130  -28.9850   20.1580 C   0  0  0  0  0  0  0  0  0  0  0  0
  -25.9260  -30.8190   21.4130 C   0  0  0  0  0  2  0  0  0  0  0  0
  -25.9880  -29.4450   20.7610 C   0  0  0  0  0  0  0  0  0  0  0  0
  -27.1610  -28.6290   20.7580 C   0  0  0  0  0  3  0  0  0  0  0  0
  -25.9730  -26.9780   19.4520 C   0  0  0  0  0  3  0  0  0  0  0  0
  -24.8090  -27.7570   19.4940 C   0  0  0  0  0  3  0  0  0  0  0  0
  -23.5780  -29.8560   20.2320 C   0  0  0  0  0  2  0  0  0  0  0  0
  -24.6600  -31.0990   22.1460 N   0  0  0  0  0  0  0  0  0  0  0  0
  -23.5360  -32.1870   23.7900 O   0  0  0  0  0  0  0  0  0  0  0  0
  -22.7380  -29.4880   22.5800 C   0  0  0  0  0  0  0  0  0  0  0  0
  -21.4120  -29.2950   22.4590 N   0  0  0  0  0  0  0  0  0  0  0  0
  -23.4250  -28.8710   23.3970 O   0  0  0  0  0  0  0  0  0  0  0  0
  -20.9140  -29.8430   21.7690 H   0  0  0  0  0  0  0  0  0  0  0  0
  -18.0490  -28.0760   22.9800 C   0  0  0  0  0  0  0  0  0  0  0  0
  -20.6050  -28.3540   23.2390 C   0  0  0  0  0  3  0  0  0  0  0  0
  -20.7150  -26.9190   22.6710 C   0  0  0  0  0  2  0  0  0  0  0  0
  -19.6110  -26.5840   21.6620 C   0  0  0  0  0  2  0  0  0  0  0  0
  -18.2310  -26.7250   22.3100 C   0  0  0  0  0  2  0  0  0  0  0  0
  -19.1630  -28.8470   23.4020 C   0  0  0  0  0  0  0  0  0  0  0  0
  -18.9360  -30.1130   23.9860 C   0  0  0  0  0  3  0  0  0  0  0  0
  -17.6280  -30.6050   24.1540 C   0  0  0  0  0  3  0  0  0  0  0  0
  -16.5280  -29.8300   23.7470 C   0  0  0  0  0  3  0  0  0  0  0  0
  -16.7390  -28.5660   23.1680 C   0  0  0  0  0  3  0  0  0  0  0  0
  -25.9050  -32.5380   23.8460 C   0  0  0  0  0  3  0  0  0  0  0  0
  -25.6040  -33.9350   24.1790 N   0  0  0  0  0  0  0  0  0  0  0  0
  -25.9130  -34.9850   23.4040 C   0  0  0  0  0  0  0  0  0  0  0  0
  -26.5530  -34.8770   22.3560 O   0  0  0  0  0  0  0  0  0  0  0  0
  -25.0340  -34.0940   24.9960 H   0  0  0  0  0  0  0  0  0  0  0  0
  -24.1800  -36.7760   23.0780 C   0  0  0  0  0  1  0  0  0  0  0  0
  -25.4340  -36.3730   23.8690 C   0  0  0  0  0  3  0  0  0  0  0  0
  -27.5820  -37.2610   24.6630 C   0  0  0  0  0  1  0  0  0  0  0  0
  -26.4640  -37.4260   23.7360 N   0  0  0  0  0  0  0  0  0  0  0  0
  -26.0610  -38.3470   23.8870 H   0  0  0  0  0  0  0  0  0  0  0  0
  -26.4360  -31.7650   25.1150 C   0  0  1  0  0  0  0  0  0  0  0  0
  -25.3550  -31.5320   26.1970 C   0  0  0  0  0  1  0  0  0  0  0  0
  -27.0090  -30.3840   24.7160 C   0  0  0  0  0  1  0  0  0  0  0  0
  -27.5950  -32.5610   25.7630 C   0  0  0  0  0  1  0  0  0  0  0  0
  1  5  1  0
  1  3  1  0
  2  4  1  0
  2  5  1  0
  5 10  1  0
  6 50  1  0
  6  4  1  0
  6  3  1  0
  8 11  1  0
  8  9  2  0
  9 20  1  0
  9  7  1  0
 10  7  2  0
 11 10  1  0
 12 20  1  0
 13 18  1  0
 14 15  1  0
 14 13  1  0
 16 15  1  0
 16 25  1  0
 16 17  1  0
 18 12  1  0
 18 17  1  0
 19 12  2  0
 20 21  1  0
 22 23  2  0
 23 42  1  0
 24 23  1  0
 24 27  1  0
 25 26  1  0
 25 22  1  0
 26 24  2  0
 27 28  1  0
 28 29  2  0
 30 33  1  0
 30 29  1  0
 31 30  2  0
 32 31  1  0
 32 27  2  0
 33 34  1  0
 34 35  1  0
 35 36  2  0
 37 36  1  0
 37 41  1  0
 38 37  2  0
 39 34  2  0
 39 38  1  0
 40 39  1  0
 42 43  1  0
 43 46  1  0
 43 45  1  0
 44 42  2  0
 47 48  1  0
 47 22  1  0
 49 47  1  0
 50 51  1  0
 52 63  2  0
 53 51  1  0
 53 58  1  0
 54 62  1  0
 54 64  1  0
 55 61  1  0
 55 57  1  0
 56 62  1  0
 57 56  1  0
 58 57  2  0
 59 60  1  0
 59 53  2  0
 60 55  2  0
 61 54  1  0
 62 52  1  0
 64 66  2  0
 65 64  1  0
 67 65  1  0
 68 77  2  0
 68 73  1  0
 69 65  1  0
 69 73  1  0
 70 69  1  0
 71 72  1  0
 71 70  1  0
 72 68  1  0
 73 74  2  0
 74 75  1  0
 76 75  2  0
 77 76  1  0
 78 52  1  0
 78 79  1  0
 78 88  1  0
 79 82  1  0
 80 84  1  0
 80 79  1  0
 81 80  2  0
 84 83  1  0
 86 84  1  0
 86 87  1  0
 86 85  1  0
 88 91  1  1
 88 89  1  0
 90 88  1  0
M  ISO  4  12 100  20 100  50 101  51 101
M  END
>  <TORSDO>  (3) 
F 18

>  <SCORE>  (3) 
-14.599

>  <name>  (3) 
2

>  <ligand_id>  (3) 
2

>  <original_smiles>  (3) 
[H]c1oc(C2([H])C([H])([H])C([H])([H])C([H])(C([H])([H])Oc3c([H])c([H])c4c(c3[H])C([H])([H])N(C(=O)C([H])(N([H])C(=O)C([H])(N([H])C([H])([H])[H])C([H])([H])[H])C(C([H])([H])[H])(C([H])([H])[H])C([H])([H])[H])C([H])(C(=O)N([H])C3([H])c5c([H])c([H])c([H])c([H])c5C([H])([H])C([H])([H])C3([H])[H])C4([H])[H])C([H])([H])C2([H])[H])c([H])c1N([H])C(=O)N1C([H])([H])C([H])([H])C([H])([H])C([H])(n2nc(-c3c([H])c([H])c(Oc4c([H])c([H])c(F)c([H])c4F)c([H])c3[H])c(C(=O)N([H])[H])c2N([H])[H])C1([H])[H]

>  <smiles>  (3) 
[H]c1oc(C2([H])C([H])([H])C([H])([H])C([H])(C([H])([H])Oc3c([H])c([H])c4c(c3[H])C([H])([H])N(C(=O)C([H])(N([H])C(=O)C([H])(N([H])C([H])([H])[H])C([H])([H])[H])C(C([H])([H])[H])(C([H])([H])[H])C([H])([H])[H])C([H])(C(=O)N([H])C3([H])c5c([H])c([H])c([H])c([H])c5C([H])([H])C([H])([H])C3([H])[H])C4([H])[H])C([H])([H])C2([H])[H])c([H])c1N([H])C(=O)N1C([H])([H])C([H])([H])C([H])([H])C([H])(n2nc(-c3c([H])c([H])c(Oc4c([H])c([H])c(F)c([H])c4F)c([H])c3[H])c(C(=O)N([H])[H])c2N([H])[H])C1([H])[H]

$$$$
3:0:0
     RDKit          3D

 94103  0  0  1  0  0  0  0  0999 V2000
  -30.1970  -22.2460   19.2270 C   0  0  0  0  0  2  0  0  0  0  0  0
  -29.3520  -22.2190   21.5480 C   0  0  0  0  0  2  0  0  0  0  0  0
  -30.5550  -23.7570   19.3480 C   0  0  0  0  0  2  0  0  0  0  0  0
  -29.6970  -23.7200   21.7530 C   0  0  0  0  0  2  0  0  0  0  0  0
  -30.3370  -21.5210   20.5800 C   0  0  0  0  0  3  0  0  0  0  0  0
  -29.8310  -24.5950   20.4610 C   0  0  1  0  0  0  0  0  0  0  0  0
  -30.7840  -25.7660   20.8190 C   0  0  0  0  0  1  0  0  0  0  0  0
  -31.3850  -19.1570   20.5860 C   0  0  0  0  0  3  0  0  0  0  0  0
  -31.2990  -17.7380   20.6010 C   0  0  0  0  0  3  0  0  0  0  0  0
  -28.9880  -19.3110   20.4200 C   0  0  0  0  0  3  0  0  0  0  0  0
  -30.2300  -19.9720   20.5090 C   0  0  0  0  0  0  0  0  0  0  0  0
  -28.8870  -17.8990   20.4480 C   0  0  0  0  0  0  0  0  0  0  0  0
  -30.0460  -17.0680   20.5450 C   0  0  0  0  0  0  0  0  0  0  0  0
  -27.4830  -17.3300   20.3580 C   0  0  0  0  0  1  0  0  0  0  0  0
  -30.6090  -14.5940   20.0740 C   0  0  0  0  0  0  0  0  0  0  0  0
  -30.2530  -12.4310   18.9190 C   0  0  0  0  0  2  0  0  0  0  0  0
  -29.2370  -12.6430   17.7760 C   0  0  0  0  0  2  0  0  0  0  0  0
  -27.7910  -12.5030   18.2920 C   0  0  0  0  0  2  0  0  0  0  0  0
  -27.5310  -13.3130   19.5890 C   0  0  0  0  0  3  0  0  0  0  0  0
  -28.6560  -13.0810   20.6260 C   0  0  0  0  0  2  0  0  0  0  0  0
  -29.9420  -13.4030   19.9820 N   0  0  0  0  0  0  0  0  0  0  0  0
  -31.7320  -14.7460   19.5900 O   0  0  0  0  0  0  0  0  0  0  0  0
  -29.8820  -15.6240   20.5890 N   0  0  0  0  0  0  0  0  0  0  0  0
  -28.9940  -15.3190   20.9540 H   0  0  0  0  0  0  0  0  0  0  0  0
  -25.1810  -13.9110   20.4570 C   0  0  0  0  0  0  0  0  0  0  0  0
  -24.1320  -13.1420   20.8820 C   0  0  0  0  0  0  0  0  0  0  0  0
  -24.5770  -11.7900   20.7820 C   0  0  0  0  0  0  0  0  0  0  0  0
  -26.2060  -13.0320   20.1450 N   0  0  0  0  0  0  0  0  0  0  0  0
  -25.8470  -11.7460   20.3930 N   0  0  0  0  0  0  0  0  0  0  0  0
  -23.8470  -10.5310   20.9760 C   0  0  0  0  0  0  0  0  0  0  0  0
  -24.2940   -9.5510   21.8900 C   0  0  0  0  0  3  0  0  0  0  0  0
  -23.5630   -8.3580   22.0730 C   0  0  0  0  0  3  0  0  0  0  0  0
  -22.3720   -8.1350   21.3430 C   0  0  0  0  0  0  0  0  0  0  0  0
  -21.9470   -9.1040   20.4150 C   0  0  0  0  0  3  0  0  0  0  0  0
  -22.6780  -10.2880   20.2300 C   0  0  0  0  0  3  0  0  0  0  0  0
  -21.6140   -6.9930   21.4330 O   0  0  0  0  0  0  0  0  0  0  0  0
  -21.5450   -6.2670   22.5950 C   0  0  0  0  0  0  0  0  0  0  0  0
  -21.0780   -6.8340   23.8000 C   0  0  0  0  0  3  0  0  0  0  0  0
  -20.9550   -6.0360   24.9550 C   0  0  0  0  0  3  0  0  0  0  0  0
  -21.2890   -4.6700   24.9040 C   0  0  0  0  0  0  0  0  0  0  0  0
  -21.7500   -4.1010   23.7030 C   0  0  0  0  0  3  0  0  0  0  0  0
  -21.8730   -4.8980   22.5510 C   0  0  0  0  0  0  0  0  0  0  0  0
  -22.2950   -4.3400   21.3920 F   0  0  0  0  0  0  0  0  0  0  0  0
  -21.1640   -3.9000   26.0110 F   0  0  0  0  0  0  0  0  0  0  0  0
  -22.7600  -13.6290   21.2510 C   0  0  0  0  0  0  0  0  0  0  0  0
  -22.0800  -12.9240   22.1490 N   0  0  0  0  0  0  0  0  0  0  0  0
  -22.3020  -14.6700   20.7810 O   0  0  0  0  0  0  0  0  0  0  0  0
  -22.4630  -12.0840   22.5550 H   0  0  0  0  0  0  0  0  0  0  0  0
  -21.1590  -13.2300   22.4320 H   0  0  0  0  0  0  0  0  0  0  0  0
  -25.3320  -15.2790   20.2760 N   0  0  0  0  0  0  0  0  0  0  0  0
  -24.5530  -15.9170   20.3970 H   0  0  0  0  0  0  0  0  0  0  0  0
  -26.1080  -15.6930   19.7790 H   0  0  0  0  0  0  0  0  0  0  0  0
  -28.4520  -25.2230   19.9820 C   0  0  0  0  0  2  0  0  0  0  0  0
  -28.4230  -26.6760   20.0580 O   0  0  0  0  0  0  0  0  0  0  0  0
  -24.5040  -31.7870   23.1370 C   0  0  0  0  0  0  0  0  0  0  0  0
  -27.2230  -27.3720   20.0440 C   0  0  0  0  0  0  0  0  0  0  0  0
  -23.3250  -30.3880   21.4720 C   0  0  0  0  0  3  0  0  0  0  0  0
  -24.8060  -28.8710   20.0470 C   0  0  0  0  0  0  0  0  0  0  0  0
  -25.8470  -30.7730   21.2920 C   0  0  0  0  0  2  0  0  0  0  0  0
  -25.9540  -29.4030   20.6450 C   0  0  0  0  0  0  0  0  0  0  0  0
  -27.1630  -28.6630   20.6320 C   0  0  0  0  0  3  0  0  0  0  0  0
  -26.0510  -26.8570   19.4450 C   0  0  0  0  0  3  0  0  0  0  0  0
  -24.8530  -27.6020   19.4400 C   0  0  0  0  0  3  0  0  0  0  0  0
  -23.5530  -29.7190   20.0890 C   0  0  0  0  0  2  0  0  0  0  0  0
  -24.5770  -31.0000   22.0250 N   0  0  0  0  0  0  0  0  0  0  0  0
  -23.4150  -32.0440   23.6700 O   0  0  0  0  0  0  0  0  0  0  0  0
  -22.6740  -29.3550   22.4200 C   0  0  0  0  0  0  0  0  0  0  0  0
  -21.3510  -29.1610   22.2810 N   0  0  0  0  0  0  0  0  0  0  0  0
  -23.3550  -28.7280   23.2370 O   0  0  0  0  0  0  0  0  0  0  0  0
  -20.8590  -29.7220   21.6000 H   0  0  0  0  0  0  0  0  0  0  0  0
  -17.9830  -27.9430   22.7530 C   0  0  0  0  0  0  0  0  0  0  0  0
  -20.5400  -28.2080   23.0350 C   0  0  0  0  0  3  0  0  0  0  0  0
  -20.6490  -26.7870   22.4350 C   0  0  0  0  0  2  0  0  0  0  0  0
  -19.5500  -26.4790   21.4130 C   0  0  0  0  0  2  0  0  0  0  0  0
  -18.1660  -26.6060   22.0550 C   0  0  0  0  0  2  0  0  0  0  0  0
  -19.0980  -28.7010   23.2000 C   0  0  0  0  0  0  0  0  0  0  0  0
  -18.8720  -29.9540   23.8100 C   0  0  0  0  0  3  0  0  0  0  0  0
  -17.5640  -30.4450   23.9850 C   0  0  0  0  0  3  0  0  0  0  0  0
  -16.4630  -29.6820   23.5560 C   0  0  0  0  0  3  0  0  0  0  0  0
  -16.6760  -28.4330   22.9450 C   0  0  0  0  0  3  0  0  0  0  0  0
  -25.7780  -32.4240   23.7760 C   0  0  0  0  0  3  0  0  0  0  0  0
  -25.4550  -33.8180   24.1110 N   0  0  0  0  0  0  0  0  0  0  0  0
  -25.7650  -34.8770   23.3490 C   0  0  0  0  0  0  0  0  0  0  0  0
  -26.4270  -34.7800   22.3100 O   0  0  0  0  0  0  0  0  0  0  0  0
  -24.8680  -33.9650   24.9180 H   0  0  0  0  0  0  0  0  0  0  0  0
  -24.0050  -36.6420   23.0270 C   0  0  0  0  0  1  0  0  0  0  0  0
  -25.2680  -36.2580   23.8130 C   0  0  0  0  0  3  0  0  0  0  0  0
  -27.4020  -37.1840   24.6010 C   0  0  0  0  0  1  0  0  0  0  0  0
  -26.2820  -37.3270   23.6760 N   0  0  0  0  0  0  0  0  0  0  0  0
  -25.8600  -38.2410   23.8220 H   0  0  0  0  0  0  0  0  0  0  0  0
  -26.2920  -31.6480   25.0500 C   0  0  1  0  0  0  0  0  0  0  0  0
  -25.1910  -31.3950   26.1070 C   0  0  0  0  0  1  0  0  0  0  0  0
  -26.8930  -30.2800   24.6510 C   0  0  0  0  0  1  0  0  0  0  0  0
  -27.4310  -32.4480   25.7260 C   0  0  0  0  0  1  0  0  0  0  0  0
  1  3  1  0
  1  5  1  0
  2  4  1  0
  3  6  1  0
  5 11  1  0
  5  2  1  0
  6  7  1  1
  6  4  1  0
  8  9  1  0
 10 12  2  0
 10 11  1  0
 11  8  2  0
 12 13  1  0
 13 23  1  0
 13  9  2  0
 14 12  1  0
 15 23  1  0
 16 21  1  0
 17 18  1  0
 17 16  1  0
 19 18  1  0
 19 28  1  0
 19 20  1  0
 21 15  1  0
 21 20  1  0
 22 15  2  0
 23 24  1  0
 25 26  2  0
 26 45  1  0
 27 26  1  0
 27 30  1  0
 28 29  1  0
 28 25  1  0
 29 27  2  0
 30 31  1  0
 31 32  2  0
 33 36  1  0
 33 32  1  0
 34 33  2  0
 35 34  1  0
 35 30  2  0
 36 37  1  0
 37 38  1  0
 38 39  2  0
 40 39  1  0
 40 44  1  0
 41 40  2  0
 42 37  2  0
 42 41  1  0
 43 42  1  0
 45 46  1  0
 46 49  1  0
 46 48  1  0
 47 45  2  0
 50 51  1  0
 50 25  1  0
 52 50  1  0
 53 54  1  0
 53  6  1  0
 55 66  2  0
 56 54  1  0
 56 61  1  0
 57 65  1  0
 57 67  1  0
 58 64  1  0
 58 60  1  0
 59 65  1  0
 60 59  1  0
 61 60  2  0
 62 56  2  0
 63 62  1  0
 63 58  2  0
 64 57  1  0
 65 55  1  0
 67 69  2  0
 68 67  1  0
 70 68  1  0
 71 80  2  0
 71 76  1  0
 72 68  1  0
 72 76  1  0
 73 72  1  0
 74 75  1  0
 74 73  1  0
 75 71  1  0
 76 77  2  0
 77 78  1  0
 79 78  2  0
 80 79  1  0
 81 55  1  0
 81 82  1  0
 81 91  1  0
 82 85  1  0
 83 87  1  0
 83 82  1  0
 84 83  2  0
 87 86  1  0
 89 87  1  0
 89 90  1  0
 89 88  1  0
 91 94  1  1
 91 92  1  0
 93 91  1  0
M  ISO  4  15 100  23 100  53 101  54 101
M  END
>  <TORSDO>  (4) 
F 18

>  <SCORE>  (4) 
-14.831

>  <name>  (4) 
3

>  <ligand_id>  (4) 
3

>  <original_smiles>  (4) 
[H]c1c([H])c([H])c2c(c1[H])C([H])([H])C([H])([H])C([H])([H])C2([H])N([H])C(=O)C1([H])N(C(=O)C([H])(N([H])C(=O)C([H])(N([H])C([H])([H])[H])C([H])([H])[H])C(C([H])([H])[H])(C([H])([H])[H])C([H])([H])[H])C([H])([H])c2c([H])c(OC([H])([H])C3(C([H])([H])[H])C([H])([H])C([H])([H])C([H])(c4c([H])c([H])c(N([H])C(=O)N5C([H])([H])C([H])([H])C([H])([H])C([H])(n6nc(-c7c([H])c([H])c(Oc8c([H])c([H])c(F)c([H])c8F)c([H])c7[H])c(C(=O)N([H])[H])c6N([H])[H])C5([H])[H])c(C([H])([H])[H])c4[H])C([H])([H])C3([H])[H])c([H])c([H])c2C1([H])[H]

>  <smiles>  (4) 
[H]c1c([H])c([H])c2c(c1[H])C([H])([H])C([H])([H])C([H])([H])C2([H])N([H])C(=O)C1([H])N(C(=O)C([H])(N([H])C(=O)C([H])(N([H])C([H])([H])[H])C([H])([H])[H])C(C([H])([H])[H])(C([H])([H])[H])C([H])([H])[H])C([H])([H])c2c([H])c(OC([H])([H])C3(C([H])([H])[H])C([H])([H])C([H])([H])C([H])(c4c([H])c([H])c(N([H])C(=O)N5C([H])([H])C([H])([H])C([H])([H])C([H])(n6nc(-c7c([H])c([H])c(Oc8c([H])c([H])c(F)c([H])c8F)c([H])c7[H])c(C(=O)N([H])[H])c6N([H])[H])C5([H])[H])c(C([H])([H])[H])c4[H])C([H])([H])C3([H])[H])c([H])c([H])c2C1([H])[H]

$$$$
4:0:0
     RDKit          3D

 98107  0  0  1  0  0  0  0  0999 V2000
  -28.8590  -22.7050   19.4950 C   0  0  0  0  0  0  0  0  0  0  0  0
  -29.2820  -20.3320   19.8200 C   0  0  0  0  0  0  0  0  0  0  0  0
  -29.1280  -23.6230   21.6430 C   0  0  0  0  0  2  0  0  0  0  0  0
  -29.4520  -22.1180   21.6290 C   0  0  0  0  0  2  0  0  0  0  0  0
  -28.3500  -23.8910   20.3390 C   0  0  2  0  0  0  0  0  0  0  0  0
  -26.8450  -23.5690   20.4980 C   0  0  0  0  0  1  0  0  0  0  0  0
  -29.2740  -21.6420   20.2480 N   0  0  0  0  0  0  0  0  0  0  0  0
  -28.8140  -22.7750   18.2640 O   0  0  0  0  0  0  0  0  0  0  0  0
  -28.7880  -20.0140   18.7270 O   0  0  0  0  0  0  0  0  0  0  0  0
  -30.1570  -19.1340   21.9910 C   0  0  0  0  0  3  0  0  0  0  0  0
  -30.2010  -17.9570   19.8710 C   0  0  0  0  0  3  0  0  0  0  0  0
  -30.9350  -16.8070   21.8920 C   0  0  0  0  0  3  0  0  0  0  0  0
  -29.9240  -19.1630   20.5820 C   0  0  0  0  0  0  0  0  0  0  0  0
  -30.6650  -17.9730   22.6290 C   0  0  0  0  0  0  0  0  0  0  0  0
  -30.6760  -16.7860   20.5100 C   0  0  0  0  0  0  0  0  0  0  0  0
  -31.4430  -14.4830   19.8740 C   0  0  0  0  0  0  0  0  0  0  0  0
  -31.0540  -12.3130   18.8110 C   0  0  0  0  0  2  0  0  0  0  0  0
  -30.0640  -12.5300   17.6470 C   0  0  0  0  0  2  0  0  0  0  0  0
  -28.6020  -12.4870   18.1520 C   0  0  0  0  0  2  0  0  0  0  0  0
  -28.3520  -13.3740   19.4020 C   0  0  0  0  0  3  0  0  0  0  0  0
  -29.4410  -13.1140   20.4680 C   0  0  0  0  0  2  0  0  0  0  0  0
  -30.7520  -13.3210   19.8240 N   0  0  0  0  0  0  0  0  0  0  0  0
  -32.6320  -14.6080   19.5510 O   0  0  0  0  0  0  0  0  0  0  0  0
  -30.6210  -15.5510   19.8180 N   0  0  0  0  0  0  0  0  0  0  0  0
  -29.7150  -15.3600   19.4120 H   0  0  0  0  0  0  0  0  0  0  0  0
  -26.0780  -14.2020   20.2650 C   0  0  0  0  0  0  0  0  0  0  0  0
  -24.9500  -13.5400   20.6560 C   0  0  0  0  0  0  0  0  0  0  0  0
  -25.2730  -12.1460   20.5780 C   0  0  0  0  0  0  0  0  0  0  0  0
  -27.0050  -13.2230   19.9450 N   0  0  0  0  0  0  0  0  0  0  0  0
  -26.5270  -11.9800   20.1870 N   0  0  0  0  0  0  0  0  0  0  0  0
  -24.4380  -10.9540   20.7860 C   0  0  0  0  0  0  0  0  0  0  0  0
  -24.8080   -9.9290   21.6830 C   0  0  0  0  0  3  0  0  0  0  0  0
  -23.9940   -8.7910   21.8490 C   0  0  0  0  0  3  0  0  0  0  0  0
  -22.7860   -8.6790   21.1200 C   0  0  0  0  0  0  0  0  0  0  0  0
  -22.4300   -9.6850   20.2060 C   0  0  0  0  0  3  0  0  0  0  0  0
  -23.2560  -10.8100   20.0340 C   0  0  0  0  0  3  0  0  0  0  0  0
  -21.9350   -7.6000   21.1990 O   0  0  0  0  0  0  0  0  0  0  0  0
  -21.7890   -6.9000   22.3640 C   0  0  0  0  0  0  0  0  0  0  0  0
  -21.4110   -7.5250   23.5720 C   0  0  0  0  0  3  0  0  0  0  0  0
  -21.2200   -6.7510   24.7320 C   0  0  0  0  0  3  0  0  0  0  0  0
  -21.3930   -5.3520   24.6830 C   0  0  0  0  0  0  0  0  0  0  0  0
  -21.7590   -4.7320   23.4790 C   0  0  0  0  0  3  0  0  0  0  0  0
  -21.9590   -5.5030   22.3210 C   0  0  0  0  0  0  0  0  0  0  0  0
  -22.3020   -4.9010   21.1580 F   0  0  0  0  0  0  0  0  0  0  0  0
  -21.1920   -4.6050   25.7920 F   0  0  0  0  0  0  0  0  0  0  0  0
  -23.6170  -14.1540   20.9880 C   0  0  0  0  0  0  0  0  0  0  0  0
  -22.8620  -13.5560   21.8940 N   0  0  0  0  0  0  0  0  0  0  0  0
  -23.2560  -15.2010   20.4580 O   0  0  0  0  0  0  0  0  0  0  0  0
  -23.1720  -12.7370   22.3880 H   0  0  0  0  0  0  0  0  0  0  0  0
  -21.9390  -13.9200   22.0820 H   0  0  0  0  0  0  0  0  0  0  0  0
  -26.4160  -15.5430   20.1360 N   0  0  0  0  0  0  0  0  0  0  0  0
  -25.8090  -16.3210   20.3490 H   0  0  0  0  0  0  0  0  0  0  0  0
  -27.3600  -15.8250   19.9160 H   0  0  0  0  0  0  0  0  0  0  0  0
  -30.8550  -17.9480   24.0100 N   0  0  0  0  0  0  0  0  0  0  0  0
  -30.8790  -17.0540   24.5040 H   0  0  0  0  0  0  0  0  0  0  0  0
  -30.6290  -18.7400   24.6000 H   0  0  0  0  0  0  0  0  0  0  0  0
  -28.5950  -25.2860   19.5950 C   0  0  0  0  0  2  0  0  0  0  0  0
  -28.3500  -26.5650   20.2380 O   0  0  0  0  0  0  0  0  0  0  0  0
  -24.5990  -31.8220   23.1700 C   0  0  0  0  0  0  0  0  0  0  0  0
  -27.1860  -27.3110   20.1210 C   0  0  0  0  0  0  0  0  0  0  0  0
  -23.3670  -30.4080   21.5460 C   0  0  0  0  0  3  0  0  0  0  0  0
  -24.8040  -28.8470   20.1220 C   0  0  0  0  0  0  0  0  0  0  0  0
  -25.8950  -30.7460   21.3320 C   0  0  0  0  0  2  0  0  0  0  0  0
  -25.9630  -29.3640   20.7090 C   0  0  0  0  0  0  0  0  0  0  0  0
  -27.1450  -28.5880   20.7330 C   0  0  0  0  0  3  0  0  0  0  0  0
  -26.0310  -26.8600   19.4610 C   0  0  0  0  0  3  0  0  0  0  0  0
  -24.8240  -27.5870   19.5000 C   0  0  0  0  0  3  0  0  0  0  0  0
  -23.5620  -29.7010   20.1750 C   0  0  0  0  0  2  0  0  0  0  0  0
  -24.6380  -31.0100   22.0720 N   0  0  0  0  0  0  0  0  0  0  0  0
  -23.5280  -32.1080   23.7210 O   0  0  0  0  0  0  0  0  0  0  0  0
  -22.7120  -29.4090   22.5310 C   0  0  0  0  0  0  0  0  0  0  0  0
  -21.3880  -29.2260   22.4080 N   0  0  0  0  0  0  0  0  0  0  0  0
  -23.3970  -28.7990   23.3580 O   0  0  0  0  0  0  0  0  0  0  0  0
  -20.9000  -29.7720   21.7100 H   0  0  0  0  0  0  0  0  0  0  0  0
  -18.0200  -27.9990   22.8890 C   0  0  0  0  0  0  0  0  0  0  0  0
  -20.5680  -28.3050   23.1970 C   0  0  0  0  0  3  0  0  0  0  0  0
  -20.7010  -26.8550   22.6740 C   0  0  0  0  0  2  0  0  0  0  0  0
  -19.6210  -26.4820   21.6530 C   0  0  0  0  0  2  0  0  0  0  0  0
  -18.2260  -26.6300   22.2670 C   0  0  0  0  0  2  0  0  0  0  0  0
  -19.1200  -28.7930   23.3120 C   0  0  0  0  0  0  0  0  0  0  0  0
  -18.8700  -30.0720   23.8540 C   0  0  0  0  0  3  0  0  0  0  0  0
  -17.5540  -30.5560   23.9820 C   0  0  0  0  0  3  0  0  0  0  0  0
  -16.4700  -29.7610   23.5730 C   0  0  0  0  0  3  0  0  0  0  0  0
  -16.7040  -28.4850   23.0320 C   0  0  0  0  0  3  0  0  0  0  0  0
  -25.9000  -32.4470   23.7670 C   0  0  0  0  0  3  0  0  0  0  0  0
  -26.4600  -31.6490   25.0070 C   0  0  1  0  0  0  0  0  0  0  0  0
  -25.4000  -31.3820   26.1010 C   0  0  0  0  0  1  0  0  0  0  0  0
  -27.0400  -30.2860   24.5630 C   0  0  0  0  0  1  0  0  0  0  0  0
  -27.6230  -32.4360   25.6530 C   0  0  0  0  0  1  0  0  0  0  0  0
  -25.6000  -33.8360   24.1330 N   0  0  0  0  0  0  0  0  0  0  0  0
  -25.9160  -34.9010   23.3830 C   0  0  0  0  0  0  0  0  0  0  0  0
  -26.5600  -34.8190   22.3350 O   0  0  0  0  0  0  0  0  0  0  0  0
  -25.0280  -33.9760   24.9540 H   0  0  0  0  0  0  0  0  0  0  0  0
  -24.1810  -36.6970   23.1060 C   0  0  0  0  0  1  0  0  0  0  0  0
  -25.4390  -36.2770   23.8820 C   0  0  0  0  0  3  0  0  0  0  0  0
  -27.5900  -37.1460   24.6870 C   0  0  0  0  0  1  0  0  0  0  0  0
  -26.4680  -37.3340   23.7700 N   0  0  0  0  0  0  0  0  0  0  0  0
  -26.0610  -38.2470   23.9540 H   0  0  0  0  0  0  0  0  0  0  0  0
  1  7  1  0
  1  5  1  0
  2  7  1  0
  2 13  1  0
  4  3  1  0
  5  6  1  1
  5  3  1  0
  7  4  1  0
  8  1  2  0
  9  2  2  0
 10 14  1  0
 11 15  2  0
 11 13  1  0
 12 14  2  0
 13 10  2  0
 14 54  1  0
 15 12  1  0
 17 22  1  0
 18 19  1  0
 18 17  1  0
 20 19  1  0
 20 29  1  0
 20 21  1  0
 22 16  1  0
 22 21  1  0
 23 16  2  0
 24 16  1  0
 24 15  1  0
 25 24  1  0
 26 27  2  0
 27 46  1  0
 28 27  1  0
 28 31  1  0
 29 30  1  0
 29 26  1  0
 30 28  2  0
 31 32  1  0
 32 33  2  0
 34 37  1  0
 34 33  1  0
 35 34  2  0
 36 35  1  0
 36 31  2  0
 37 38  1  0
 38 39  1  0
 39 40  2  0
 41 40  1  0
 41 45  1  0
 42 41  2  0
 43 38  2  0
 43 42  1  0
 44 43  1  0
 46 47  1  0
 47 50  1  0
 47 49  1  0
 48 46  2  0
 51 26  1  0
 51 52  1  0
 53 51  1  0
 54 55  1  0
 54 56  1  0
 57 58  1  0
 57  5  1  0
 59 70  2  0
 60 58  1  0
 60 65  1  0
 61 69  1  0
 61 71  1  0
 62 68  1  0
 62 64  1  0
 63 69  1  0
 64 65  2  0
 64 63  1  0
 66 67  1  0
 66 60  2  0
 67 62  2  0
 68 61  1  0
 69 59  1  0
 71 73  2  0
 72 71  1  0
 74 72  1  0
 75 84  2  0
 75 80  1  0
 76 72  1  0
 76 80  1  0
 77 76  1  0
 78 79  1  0
 78 77  1  0
 79 75  1  0
 80 81  2  0
 81 82  1  0
 83 82  2  0
 84 83  1  0
 85 59  1  0
 85 90  1  0
 85 86  1  0
 86 89  1  1
 86 87  1  0
 88 86  1  0
 90 93  1  0
 91 95  1  0
 91 90  1  0
 92 91  2  0
 95 94  1  0
 97 95  1  0
 97 98  1  0
 97 96  1  0
M  ISO  4  16 100  24 100  57 101  58 101
M  END
>  <TORSDO>  (5) 
F 19

>  <SCORE>  (5) 
-13.468

>  <name>  (5) 
4

>  <ligand_id>  (5) 
4

>  <original_smiles>  (5) 
[H]c1c([H])c([H])c2c(c1[H])C([H])([H])C([H])([H])C([H])([H])C2([H])N([H])C(=O)C1([H])N(C(=O)C([H])(N([H])C(=O)C([H])(N([H])C([H])([H])[H])C([H])([H])[H])C(C([H])([H])[H])(C([H])([H])[H])C([H])([H])[H])C([H])([H])c2c([H])c(OC([H])([H])C3(C([H])([H])[H])C(=O)N(C(=O)c4c([H])c(N([H])[H])c([H])c(N([H])C(=O)N5C([H])([H])C([H])([H])C([H])([H])C([H])(n6nc(-c7c([H])c([H])c(Oc8c([H])c([H])c(F)c([H])c8F)c([H])c7[H])c(C(=O)N([H])[H])c6N([H])[H])C5([H])[H])c4[H])C([H])([H])C3([H])[H])c([H])c([H])c2C1([H])[H]

>  <smiles>  (5) 
[H]c1c([H])c([H])c2c(c1[H])C([H])([H])C([H])([H])C([H])([H])C2([H])N([H])C(=O)C1([H])N(C(=O)C([H])(N([H])C(=O)C([H])(N([H])C([H])([H])[H])C([H])([H])[H])C(C([H])([H])[H])(C([H])([H])[H])C([H])([H])[H])C([H])([H])c2c([H])c(OC([H])([H])C3(C([H])([H])[H])C(=O)N(C(=O)c4c([H])c(N([H])[H])c([H])c(N([H])C(=O)N5C([H])([H])C([H])([H])C([H])([H])C([H])(n6nc(-c7c([H])c([H])c(Oc8c([H])c([H])c(F)c([H])c8F)c([H])c7[H])c(C(=O)N([H])[H])c6N([H])[H])C5([H])[H])c4[H])C([H])([H])C3([H])[H])c([H])c([H])c2C1([H])[H]

$$$$
5:0:0
     RDKit          3D

 94103  0  0  1  0  0  0  0  0999 V2000
  -30.1500  -20.3560   19.6980 C   0  0  0  0  0  3  0  0  0  0  0  0
  -28.3240  -21.8340   18.9340 C   0  0  0  0  0  2  0  0  0  0  0  0
  -29.3040  -22.8070   19.4600 C   0  0  0  0  0  3  0  0  0  0  0  0
  -29.2780  -21.3860   19.9840 N   0  0  0  0  0  0  0  0  0  0  0  0
  -30.7910  -20.3570   18.5270 N   0  0  0  0  0  0  0  0  0  0  0  0
  -31.5050  -19.6680   18.3530 H   0  0  0  0  0  0  0  0  0  0  0  0
  -30.6650  -21.1060   17.8700 H   0  0  0  0  0  0  0  0  0  0  0  0
  -30.8650  -18.5560   22.9590 C   0  0  0  0  0  3  0  0  0  0  0  0
  -30.6150  -19.5640   22.0080 C   0  0  0  0  0  3  0  0  0  0  0  0
  -30.9330  -17.2100   22.5640 C   0  0  0  0  0  3  0  0  0  0  0  0
  -30.5110  -17.8570   20.2500 C   0  0  0  0  0  3  0  0  0  0  0  0
  -30.4270  -19.2380   20.6490 C   0  0  0  0  0  0  0  0  0  0  0  0
  -30.7600  -16.8270   21.2150 C   0  0  0  0  0  0  0  0  0  0  0  0
  -31.2730  -14.5040   20.1880 C   0  0  0  0  0  0  0  0  0  0  0  0
  -30.8980  -12.3390   19.0160 C   0  0  0  0  0  2  0  0  0  0  0  0
  -29.9270  -12.5590   17.8360 C   0  0  0  0  0  2  0  0  0  0  0  0
  -28.4550  -12.4850   18.2950 C   0  0  0  0  0  2  0  0  0  0  0  0
  -28.1880  -13.3470   19.5540 C   0  0  0  0  0  3  0  0  0  0  0  0
  -29.2490  -13.0590   20.6390 C   0  0  0  0  0  2  0  0  0  0  0  0
  -30.5830  -13.3270   20.0620 N   0  0  0  0  0  0  0  0  0  0  0  0
  -32.3390  -14.7180   19.6020 O   0  0  0  0  0  0  0  0  0  0  0  0
  -30.6740  -15.4010   21.0050 N   0  0  0  0  0  0  0  0  0  0  0  0
  -29.9760  -14.9510   21.5790 H   0  0  0  0  0  0  0  0  0  0  0  0
  -25.8530  -14.1120   20.3240 C   0  0  0  0  0  0  0  0  0  0  0  0
  -24.7430  -13.4100   20.7170 C   0  0  0  0  0  0  0  0  0  0  0  0
  -25.1080  -12.0300   20.6650 C   0  0  0  0  0  0  0  0  0  0  0  0
  -26.8300  -13.1620   20.0620 N   0  0  0  0  0  0  0  0  0  0  0  0
  -26.3860  -11.9050   20.3240 N   0  0  0  0  0  0  0  0  0  0  0  0
  -24.3030  -10.8180   20.8660 C   0  0  0  0  0  0  0  0  0  0  0  0
  -24.6740   -9.8350   21.8110 C   0  0  0  0  0  3  0  0  0  0  0  0
  -23.8750   -8.6880   22.0010 C   0  0  0  0  0  3  0  0  0  0  0  0
  -22.6900   -8.5150   21.2470 C   0  0  0  0  0  0  0  0  0  0  0  0
  -22.3360   -9.4880   20.2960 C   0  0  0  0  0  3  0  0  0  0  0  0
  -23.1350  -10.6260   20.1040 C   0  0  0  0  0  3  0  0  0  0  0  0
  -21.8650   -7.4220   21.3460 O   0  0  0  0  0  0  0  0  0  0  0  0
  -21.7310   -6.7220   22.5180 C   0  0  0  0  0  0  0  0  0  0  0  0
  -21.2970   -7.3430   23.7100 C   0  0  0  0  0  3  0  0  0  0  0  0
  -21.1070   -6.5750   24.8750 C   0  0  0  0  0  3  0  0  0  0  0  0
  -21.3390   -5.1870   24.8520 C   0  0  0  0  0  0  0  0  0  0  0  0
  -21.7680   -4.5660   23.6660 C   0  0  0  0  0  3  0  0  0  0  0  0
  -21.9600   -5.3310   22.5010 C   0  0  0  0  0  0  0  0  0  0  0  0
  -22.3510   -4.7230   21.3560 F   0  0  0  0  0  0  0  0  0  0  0  0
  -21.1490   -4.4470   25.9710 F   0  0  0  0  0  0  0  0  0  0  0  0
  -23.3860  -13.9790   21.0240 C   0  0  0  0  0  0  0  0  0  0  0  0
  -22.6360  -13.3370   21.9130 N   0  0  0  0  0  0  0  0  0  0  0  0
  -22.9990  -15.0260   20.5070 O   0  0  0  0  0  0  0  0  0  0  0  0
  -22.9580  -12.4910   22.3590 H   0  0  0  0  0  0  0  0  0  0  0  0
  -21.7290  -13.7060   22.1590 H   0  0  0  0  0  0  0  0  0  0  0  0
  -26.1060  -15.4700   20.1490 N   0  0  0  0  0  0  0  0  0  0  0  0
  -25.3880  -16.1770   20.2710 H   0  0  0  0  0  0  0  0  0  0  0  0
  -26.9780  -15.8490   19.8030 H   0  0  0  0  0  0  0  0  0  0  0  0
  -28.8170  -23.9650   20.3780 C   0  0  0  0  0  2  0  0  0  0  0  0
  -28.5130  -25.3040   19.6110 C   0  0  0  0  0  2  0  0  0  0  0  0
  -28.3150  -26.5020   20.4210 O   0  0  0  0  0  0  0  0  0  0  0  0
  -24.6620  -31.8950   23.3910 C   0  0  0  0  0  0  0  0  0  0  0  0
  -27.1530  -27.2740   20.3680 C   0  0  0  0  0  0  0  0  0  0  0  0
  -23.4150  -30.5220   21.7580 C   0  0  0  0  0  3  0  0  0  0  0  0
  -24.8170  -28.9100   20.3550 C   0  0  0  0  0  0  0  0  0  0  0  0
  -25.9580  -30.7680   21.5760 C   0  0  0  0  0  2  0  0  0  0  0  0
  -25.9930  -29.3840   20.9440 C   0  0  0  0  0  0  0  0  0  0  0  0
  -27.1590  -28.5740   20.9470 C   0  0  0  0  0  3  0  0  0  0  0  0
  -25.9470  -26.8230   19.7840 C   0  0  0  0  0  3  0  0  0  0  0  0
  -24.7920  -27.6300   19.7740 C   0  0  0  0  0  3  0  0  0  0  0  0
  -23.6060  -29.8180   20.3860 C   0  0  0  0  0  2  0  0  0  0  0  0
  -24.6970  -31.0780   22.2980 N   0  0  0  0  0  0  0  0  0  0  0  0
  -23.5880  -32.2140   23.9210 O   0  0  0  0  0  0  0  0  0  0  0  0
  -22.7160  -29.5390   22.7260 C   0  0  0  0  0  0  0  0  0  0  0  0
  -21.3930  -29.3760   22.5660 N   0  0  0  0  0  0  0  0  0  0  0  0
  -23.3660  -28.9240   23.5760 O   0  0  0  0  0  0  0  0  0  0  0  0
  -20.9310  -29.9210   21.8520 H   0  0  0  0  0  0  0  0  0  0  0  0
  -17.9960  -28.2050   22.9560 C   0  0  0  0  0  0  0  0  0  0  0  0
  -20.5390  -28.4720   23.3360 C   0  0  0  0  0  3  0  0  0  0  0  0
  -20.6640  -27.0170   22.8250 C   0  0  0  0  0  2  0  0  0  0  0  0
  -19.6090  -26.6540   21.7750 C   0  0  0  0  0  2  0  0  0  0  0  0
  -18.2000  -26.8260   22.3480 C   0  0  0  0  0  2  0  0  0  0  0  0
  -19.0950  -28.9820   23.4060 C   0  0  0  0  0  0  0  0  0  0  0  0
  -18.8540  -30.2690   23.9320 C   0  0  0  0  0  3  0  0  0  0  0  0
  -17.5440  -30.7810   24.0140 C   0  0  0  0  0  3  0  0  0  0  0  0
  -16.4580  -30.0010   23.5810 C   0  0  0  0  0  3  0  0  0  0  0  0
  -16.6840  -28.7140   23.0590 C   0  0  0  0  0  3  0  0  0  0  0  0
  -25.9650  -32.4850   24.0110 C   0  0  0  0  0  3  0  0  0  0  0  0
  -26.4630  -31.6930   25.2820 C   0  0  1  0  0  0  0  0  0  0  0  0
  -25.3620  -31.4750   26.3480 C   0  0  0  0  0  1  0  0  0  0  0  0
  -27.0100  -30.3040   24.8800 C   0  0  0  0  0  1  0  0  0  0  0  0
  -27.6300  -32.4560   25.9510 C   0  0  0  0  0  1  0  0  0  0  0  0
  -25.7000  -33.8910   24.3470 N   0  0  0  0  0  0  0  0  0  0  0  0
  -26.0550  -34.9350   23.5870 C   0  0  0  0  0  0  0  0  0  0  0  0
  -26.7090  -34.8150   22.5470 O   0  0  0  0  0  0  0  0  0  0  0  0
  -25.1140  -34.0590   25.1510 H   0  0  0  0  0  0  0  0  0  0  0  0
  -24.3690  -36.7720   23.2620 C   0  0  0  0  0  1  0  0  0  0  0  0
  -25.6130  -36.3350   24.0530 C   0  0  0  0  0  3  0  0  0  0  0  0
  -27.7820  -37.1640   24.8470 C   0  0  0  0  0  1  0  0  0  0  0  0
  -26.6700  -37.3620   23.9210 N   0  0  0  0  0  0  0  0  0  0  0  0
  -26.2900  -38.2920   24.0770 H   0  0  0  0  0  0  0  0  0  0  0  0
  1  5  1  0
  1  4  1  0
  1 12  1  0
  2  3  1  0
  2  4  1  0
  3  4  1  0
  3 52  1  0
  6  5  1  0
  7  5  1  0
  9  8  2  0
 10  8  1  0
 11 12  2  0
 11 13  1  0
 12  9  1  0
 13 10  2  0
 14 22  1  0
 15 20  1  0
 16 17  1  0
 16 15  1  0
 18 17  1  0
 18 27  1  0
 18 19  1  0
 20 14  1  0
 20 19  1  0
 21 14  2  0
 22 13  1  0
 22 23  1  0
 24 25  2  0
 25 44  1  0
 26 25  1  0
 26 29  1  0
 27 28  1  0
 27 24  1  0
 28 26  2  0
 29 30  1  0
 30 31  2  0
 32 35  1  0
 32 31  1  0
 33 32  2  0
 34 33  1  0
 34 29  2  0
 35 36  1  0
 36 37  1  0
 37 38  2  0
 39 38  1  0
 39 43  1  0
 40 39  2  0
 41 36  2  0
 41 40  1  0
 42 41  1  0
 44 45  1  0
 45 48  1  0
 45 47  1  0
 46 44  2  0
 49 50  1  0
 49 24  1  0
 51 49  1  0
 53 52  1  0
 53 54  1  0
 55 66  2  0
 56 54  1  0
 56 61  1  0
 57 65  1  0
 57 67  1  0
 58 64  1  0
 58 60  1  0
 59 65  1  0
 60 61  2  0
 60 59  1  0
 62 56  2  0
 63 62  1  0
 63 58  2  0
 64 57  1  0
 65 55  1  0
 67 69  2  0
 68 67  1  0
 70 68  1  0
 71 80  2  0
 71 76  1  0
 72 68  1  0
 72 76  1  0
 73 72  1  0
 74 75  1  0
 74 73  1  0
 75 71  1  0
 76 77  2  0
 77 78  1  0
 79 78  2  0
 80 79  1  0
 81 55  1  0
 81 86  1  0
 81 82  1  0
 82 85  1  1
 82 83  1  0
 84 82  1  0
 86 89  1  0
 87 91  1  0
 87 86  1  0
 88 87  2  0
 91 90  1  0
 93 91  1  0
 93 94  1  0
 93 92  1  0
M  ISO  4  14 100  22 100  53 101  54 101
M  END
>  <TORSDO>  (6) 
F 19

>  <SCORE>  (6) 
-13.326

>  <name>  (6) 
5

>  <ligand_id>  (6) 
5

>  <original_smiles>  (6) 
[H]c1c([H])c(C(N2C([H])([H])C2([H])C([H])([H])C([H])([H])Oc2c([H])c([H])c3c(c2[H])C([H])([H])N(C(=O)C([H])(N([H])C(=O)C([H])(N([H])C([H])([H])[H])C([H])([H])[H])C(C([H])([H])[H])(C([H])([H])[H])C([H])([H])[H])C([H])(C(=O)N([H])C2([H])c4c([H])c([H])c([H])c([H])c4C([H])([H])C([H])([H])C2([H])[H])C3([H])[H])=[N+]([H])[H])c([H])c(N([H])C(=O)N2C([H])([H])C([H])([H])C([H])([H])C([H])(n3nc(-c4c([H])c([H])c(Oc5c([H])c([H])c(F)c([H])c5F)c([H])c4[H])c(C(=O)N([H])[H])c3N([H])[H])C2([H])[H])c1[H]

>  <smiles>  (6) 
[H]c1c([H])c(C(N2C([H])([H])C2([H])C([H])([H])C([H])([H])Oc2c([H])c([H])c3c(c2[H])C([H])([H])N(C(=O)C([H])(N([H])C(=O)C([H])(N([H])C([H])([H])[H])C([H])([H])[H])C(C([H])([H])[H])(C([H])([H])[H])C([H])([H])[H])C([H])(C(=O)N([H])C2([H])c4c([H])c([H])c([H])c([H])c4C([H])([H])C([H])([H])C2([H])[H])C3([H])[H])=[N+]([H])[H])c([H])c(N([H])C(=O)N2C([H])([H])C([H])([H])C([H])([H])C([H])(n3nc(-c4c([H])c([H])c(Oc5c([H])c([H])c(F)c([H])c5F)c([H])c4[H])c(C(=O)N([H])[H])c3N([H])[H])C2([H])[H])c1[H]

$$$$
6:0:0
     RDKit          3D

 98107  0  0  1  0  0  0  0  0999 V2000
  -29.3760  -20.8400   21.1450 C   0  0  0  0  0  3  0  0  0  0  0  0
  -30.2500  -24.1100   19.5080 C   0  0  0  0  0  2  0  0  0  0  0  0
  -30.3900  -22.5760   19.6230 C   0  0  0  0  0  2  0  0  0  0  0  0
  -28.8320  -24.4300   20.0070 C   0  0  2  0  0  0  0  0  0  0  0  0
  -28.6970  -23.3580   21.1660 C   0  0  2  0  0  0  0  0  0  0  0  0
  -27.8400  -24.1400   18.8530 C   0  0  0  0  0  1  0  0  0  0  0  0
  -27.2010  -23.1030   21.5000 C   0  0  0  0  0  1  0  0  0  0  0  0
  -29.4010  -23.8270   22.4640 C   0  0  0  0  0  1  0  0  0  0  0  0
  -29.4240  -22.1340   20.6610 N   0  0  0  0  0  0  0  0  0  0  0  0
  -28.4370  -20.5250   22.0310 N   0  0  0  0  0  0  0  0  0  0  0  0
  -28.4470  -19.6150   22.4650 H   0  0  0  0  0  0  0  0  0  0  0  0
  -27.7240  -21.1850   22.2860 H   0  0  0  0  0  0  0  0  0  0  0  0
  -32.6450  -18.9470   20.7600 C   0  0  0  0  0  3  0  0  0  0  0  0
  -31.7170  -19.9950   20.8920 C   0  0  0  0  0  3  0  0  0  0  0  0
  -32.2080  -17.6190   20.6080 C   0  0  0  0  0  3  0  0  0  0  0  0
  -29.8970  -18.3840   20.6830 C   0  0  0  0  0  3  0  0  0  0  0  0
  -30.3310  -19.7390   20.8410 C   0  0  0  0  0  0  0  0  0  0  0  0
  -30.8260  -17.3050   20.5680 C   0  0  0  0  0  0  0  0  0  0  0  0
  -31.0100  -14.8520   19.9810 C   0  0  0  0  0  0  0  0  0  0  0  0
  -30.6610  -12.6170   18.9810 C   0  0  0  0  0  2  0  0  0  0  0  0
  -29.6790  -12.7310   17.7980 C   0  0  0  0  0  2  0  0  0  0  0  0
  -28.2240  -12.6090   18.2910 C   0  0  0  0  0  2  0  0  0  0  0  0
  -27.9250  -13.5230   19.5110 C   0  0  0  0  0  3  0  0  0  0  0  0
  -29.0260  -13.4020   20.5910 C   0  0  0  0  0  2  0  0  0  0  0  0
  -30.3190  -13.6760   19.9490 N   0  0  0  0  0  0  0  0  0  0  0  0
  -32.1160  -14.9580   19.4460 O   0  0  0  0  0  0  0  0  0  0  0  0
  -30.3580  -15.9350   20.4810 N   0  0  0  0  0  0  0  0  0  0  0  0
  -29.4100  -15.7620   20.7750 H   0  0  0  0  0  0  0  0  0  0  0  0
  -25.5840  -14.1620   20.3620 C   0  0  0  0  0  0  0  0  0  0  0  0
  -24.5200  -13.4040   20.7720 C   0  0  0  0  0  0  0  0  0  0  0  0
  -24.9470  -12.0440   20.6860 C   0  0  0  0  0  0  0  0  0  0  0  0
  -26.5950  -13.2630   20.0580 N   0  0  0  0  0  0  0  0  0  0  0  0
  -26.2180  -11.9840   20.3100 N   0  0  0  0  0  0  0  0  0  0  0  0
  -24.2020  -10.7940   20.8880 C   0  0  0  0  0  0  0  0  0  0  0  0
  -24.6060   -9.8400   21.8480 C   0  0  0  0  0  3  0  0  0  0  0  0
  -23.8620   -8.6550   22.0360 C   0  0  0  0  0  3  0  0  0  0  0  0
  -22.7020   -8.4150   21.2640 C   0  0  0  0  0  0  0  0  0  0  0  0
  -22.3160   -9.3570   20.2940 C   0  0  0  0  0  3  0  0  0  0  0  0
  -23.0600  -10.5340   20.1050 C   0  0  0  0  0  3  0  0  0  0  0  0
  -21.9330   -7.2800   21.3610 O   0  0  0  0  0  0  0  0  0  0  0  0
  -21.7950   -6.6020   22.5440 C   0  0  0  0  0  0  0  0  0  0  0  0
  -21.2550   -7.2140   23.6950 C   0  0  0  0  0  3  0  0  0  0  0  0
  -21.0670   -6.4610   24.8720 C   0  0  0  0  0  3  0  0  0  0  0  0
  -21.4100   -5.0960   24.8960 C   0  0  0  0  0  0  0  0  0  0  0  0
  -21.9420   -4.4820   23.7480 C   0  0  0  0  0  3  0  0  0  0  0  0
  -22.1310   -5.2340   22.5750 C   0  0  0  0  0  0  0  0  0  0  0  0
  -22.6250   -4.6320   21.4660 F   0  0  0  0  0  0  0  0  0  0  0  0
  -21.2220   -4.3700   26.0230 F   0  0  0  0  0  0  0  0  0  0  0  0
  -23.1510  -13.9060   21.1280 C   0  0  0  0  0  0  0  0  0  0  0  0
  -22.4570  -13.2120   22.0230 N   0  0  0  0  0  0  0  0  0  0  0  0
  -22.7070  -14.9490   20.6480 O   0  0  0  0  0  0  0  0  0  0  0  0
  -22.8300  -12.3670   22.4310 H   0  0  0  0  0  0  0  0  0  0  0  0
  -21.5400  -13.5290   22.3040 H   0  0  0  0  0  0  0  0  0  0  0  0
  -25.7700  -15.5320   20.2030 N   0  0  0  0  0  0  0  0  0  0  0  0
  -25.0200  -16.1970   20.3540 H   0  0  0  0  0  0  0  0  0  0  0  0
  -26.5990  -15.9560   19.8040 H   0  0  0  0  0  0  0  0  0  0  0  0
  -28.6550  -25.9270   20.4940 C   0  0  0  0  0  2  0  0  0  0  0  0
  -28.5570  -26.9820   19.5030 O   0  0  0  0  0  0  0  0  0  0  0  0
  -24.6860  -31.8150   23.1010 C   0  0  0  0  0  0  0  0  0  0  0  0
  -27.3990  -27.7330   19.5890 C   0  0  0  0  0  0  0  0  0  0  0  0
  -23.4860  -30.5030   21.3840 C   0  0  0  0  0  3  0  0  0  0  0  0
  -24.9560  -29.1530   19.7930 C   0  0  0  0  0  0  0  0  0  0  0  0
  -25.9920  -30.9780   21.1470 C   0  0  0  0  0  2  0  0  0  0  0  0
  -26.1140  -29.6680   20.3910 C   0  0  0  0  0  0  0  0  0  0  0  0
  -27.3420  -28.9650   20.2890 C   0  0  0  0  0  3  0  0  0  0  0  0
  -26.2260  -27.2460   18.9790 C   0  0  0  0  0  3  0  0  0  0  0  0
  -25.0080  -27.9420   19.0830 C   0  0  0  0  0  3  0  0  0  0  0  0
  -23.6800  -29.9520   19.9470 C   0  0  0  0  0  2  0  0  0  0  0  0
  -24.7410  -31.1100   21.9360 N   0  0  0  0  0  0  0  0  0  0  0  0
  -23.6120  -31.9960   23.6930 O   0  0  0  0  0  0  0  0  0  0  0  0
  -22.9080  -29.3780   22.2750 C   0  0  0  0  0  0  0  0  0  0  0  0
  -21.5920  -29.1380   22.1580 N   0  0  0  0  0  0  0  0  0  0  0  0
  -23.6380  -28.7290   23.0280 O   0  0  0  0  0  0  0  0  0  0  0  0
  -21.0610  -29.7170   21.5230 H   0  0  0  0  0  0  0  0  0  0  0  0
  -18.2960  -27.7280   22.6140 C   0  0  0  0  0  0  0  0  0  0  0  0
  -20.8400  -28.1030   22.8680 C   0  0  0  0  0  3  0  0  0  0  0  0
  -21.0090  -26.7270   22.1850 C   0  0  0  0  0  2  0  0  0  0  0  0
  -19.9080  -26.4200   21.1650 C   0  0  0  0  0  2  0  0  0  0  0  0
  -18.5310  -26.4420   21.8380 C   0  0  0  0  0  2  0  0  0  0  0  0
  -19.3790  -28.5160   23.0820 C   0  0  0  0  0  0  0  0  0  0  0  0
  -19.1040  -29.7180   23.7690 C   0  0  0  0  0  3  0  0  0  0  0  0
  -17.7790  -30.1350   23.9880 C   0  0  0  0  0  3  0  0  0  0  0  0
  -16.7100  -29.3430   23.5350 C   0  0  0  0  0  3  0  0  0  0  0  0
  -16.9690  -28.1410   22.8530 C   0  0  0  0  0  3  0  0  0  0  0  0
  -25.9640  -32.4490   23.7350 C   0  0  0  0  0  3  0  0  0  0  0  0
  -25.6280  -33.8230   24.1310 N   0  0  0  0  0  0  0  0  0  0  0  0
  -25.9410  -34.9160   23.4230 C   0  0  0  0  0  0  0  0  0  0  0  0
  -26.6140  -34.8750   22.3900 O   0  0  0  0  0  0  0  0  0  0  0  0
  -25.0280  -33.9250   24.9370 H   0  0  0  0  0  0  0  0  0  0  0  0
  -24.1740  -36.6860   23.1510 C   0  0  0  0  0  1  0  0  0  0  0  0
  -25.4230  -36.2710   23.9440 C   0  0  0  0  0  3  0  0  0  0  0  0
  -27.5340  -37.1620   24.8250 C   0  0  0  0  0  1  0  0  0  0  0  0
  -26.4340  -37.3490   23.8830 N   0  0  0  0  0  0  0  0  0  0  0  0
  -26.0080  -38.2520   24.0700 H   0  0  0  0  0  0  0  0  0  0  0  0
  -26.5180  -31.6330   24.9670 C   0  0  1  0  0  0  0  0  0  0  0  0
  -25.4470  -31.3210   26.0370 C   0  0  0  0  0  1  0  0  0  0  0  0
  -27.1280  -30.2890   24.5030 C   0  0  0  0  0  1  0  0  0  0  0  0
  -27.6590  -32.4240   25.6490 C   0  0  0  0  0  1  0  0  0  0  0  0
  1 10  1  0
  2  3  1  0
  2  4  1  0
  3  9  1  0
  4  6  1  6
  4 57  1  0
  4  5  1  0
  5  7  1  1
  5  8  1  0
  9  1  1  0
  9  5  1  0
 10 12  1  0
 10 11  1  0
 13 14  1  0
 15 13  2  0
 16 17  1  0
 17 14  2  0
 17  1  1  0
 18 15  1  0
 18 16  2  0
 19 27  1  0
 20 25  1  0
 21 22  1  0
 21 20  1  0
 23 22  1  0
 23 32  1  0
 23 24  1  0
 25 19  1  0
 25 24  1  0
 26 19  2  0
 27 18  1  0
 27 28  1  0
 29 30  2  0
 30 49  1  0
 31 30  1  0
 31 34  1  0
 32 33  1  0
 32 29  1  0
 33 31  2  0
 34 35  1  0
 35 36  2  0
 37 40  1  0
 37 36  1  0
 38 37  2  0
 39 38  1  0
 39 34  2  0
 40 41  1  0
 41 46  2  0
 41 42  1  0
 42 43  2  0
 43 44  1  0
 44 48  1  0
 45 44  2  0
 46 45  1  0
 47 46  1  0
 49 50  1  0
 50 53  1  0
 50 52  1  0
 51 49  2  0
 54 55  1  0
 54 29  1  0
 56 54  1  0
 58 60  1  0
 58 57  1  0
 59 70  2  0
 60 65  1  0
 61 69  1  0
 61 71  1  0
 62 68  1  0
 62 64  1  0
 63 69  1  0
 64 63  1  0
 65 64  2  0
 66 67  1  0
 66 60  2  0
 67 62  2  0
 68 61  1  0
 69 59  1  0
 71 73  2  0
 72 71  1  0
 74 72  1  0
 75 84  2  0
 75 80  1  0
 76 72  1  0
 76 80  1  0
 77 76  1  0
 78 79  1  0
 78 77  1  0
 79 75  1  0
 80 81  2  0
 81 82  1  0
 83 82  2  0
 84 83  1  0
 85 59  1  0
 85 86  1  0
 85 95  1  0
 86 89  1  0
 87 91  1  0
 87 86  1  0
 88 87  2  0
 91 90  1  0
 93 91  1  0
 93 94  1  0
 93 92  1  0
 95 98  1  1
 95 96  1  0
 97 95  1  0
M  ISO  4  19 100  27 100  57 101  58 101
M  END
>  <TORSDO>  (7) 
F 18

>  <SCORE>  (7) 
-13.374

>  <name>  (7) 
6

>  <ligand_id>  (7) 
6

>  <original_smiles>  (7) 
[H]c1c([H])c(C(N2C([H])([H])C([H])([H])C(C([H])([H])[H])(C([H])([H])Oc3c([H])c([H])c4c(c3[H])C([H])([H])N(C(=O)C([H])(N([H])C(=O)C([H])(N([H])C([H])([H])[H])C([H])([H])[H])C(C([H])([H])[H])(C([H])([H])[H])C([H])([H])[H])C([H])(C(=O)N([H])C3([H])c5c([H])c([H])c([H])c([H])c5C([H])([H])C([H])([H])C3([H])[H])C4([H])[H])C2(C([H])([H])[H])C([H])([H])[H])=[N+]([H])[H])c([H])c(N([H])C(=O)N2C([H])([H])C([H])([H])C([H])([H])C([H])(n3nc(-c4c([H])c([H])c(Oc5c([H])c([H])c(F)c([H])c5F)c([H])c4[H])c(C(=O)N([H])[H])c3N([H])[H])C2([H])[H])c1[H]

>  <smiles>  (7) 
[H]c1c([H])c(C(N2C([H])([H])C([H])([H])C(C([H])([H])[H])(C([H])([H])Oc3c([H])c([H])c4c(c3[H])C([H])([H])N(C(=O)C([H])(N([H])C(=O)C([H])(N([H])C([H])([H])[H])C([H])([H])[H])C(C([H])([H])[H])(C([H])([H])[H])C([H])([H])[H])C([H])(C(=O)N([H])C3([H])c5c([H])c([H])c([H])c([H])c5C([H])([H])C([H])([H])C3([H])[H])C4([H])[H])C2(C([H])([H])[H])C([H])([H])[H])=[N+]([H])[H])c([H])c(N([H])C(=O)N2C([H])([H])C([H])([H])C([H])([H])C([H])(n3nc(-c4c([H])c([H])c(Oc5c([H])c([H])c(F)c([H])c5F)c([H])c4[H])c(C(=O)N([H])[H])c3N([H])[H])C2([H])[H])c1[H]

$$$$
7:0:0
     RDKit          3D

 92101  0  0  1  0  0  0  0  0999 V2000
  -28.8580  -22.8380   21.1280 C   0  0  0  0  0  0  0  0  0  0  0  0
  -28.1970  -23.9220   20.5860 C   0  0  0  0  0  0  0  0  0  0  0  0
  -29.7420  -22.8640   22.3590 C   0  0  0  0  0  2  0  0  0  0  0  0
  -28.8420  -21.3610   20.6500 C   0  0  0  0  0  2  0  0  0  0  0  0
  -30.0330  -21.3940   22.7320 C   0  0  0  0  0  2  0  0  0  0  0  0
  -27.2830  -23.7400   19.3880 C   0  0  0  0  0  1  0  0  0  0  0  0
  -29.6700  -20.5680   21.5780 N   0  0  0  0  0  0  0  0  0  0  0  0
  -31.4240  -18.8110   21.7760 C   0  0  0  0  0  3  0  0  0  0  0  0
  -31.5140  -17.4230   21.4350 C   0  0  0  0  0  3  0  0  0  0  0  0
  -30.1830  -19.2430   21.3730 C   0  0  0  0  0  0  0  0  0  0  0  0
  -30.3200  -17.0740   20.8600 C   0  0  0  0  0  0  0  0  0  0  0  0
  -29.4760  -18.1900   20.8050 O   0  0  0  0  0  0  0  0  0  0  0  0
  -30.7050  -14.7170   20.1080 C   0  0  0  0  0  0  0  0  0  0  0  0
  -30.4250  -12.5110   18.9760 C   0  0  0  0  0  2  0  0  0  0  0  0
  -29.4250  -12.6460   17.8080 C   0  0  0  0  0  2  0  0  0  0  0  0
  -27.9750  -12.4760   18.3060 C   0  0  0  0  0  2  0  0  0  0  0  0
  -27.6720  -13.3280   19.5680 C   0  0  0  0  0  3  0  0  0  0  0  0
  -28.7800  -13.1640   20.6310 C   0  0  0  0  0  2  0  0  0  0  0  0
  -30.0580  -13.5140   19.9950 N   0  0  0  0  0  0  0  0  0  0  0  0
  -31.8510  -14.8640   19.6680 O   0  0  0  0  0  0  0  0  0  0  0  0
  -29.9440  -15.7850   20.5140 N   0  0  0  0  0  0  0  0  0  0  0  0
  -28.9610  -15.5820   20.6010 H   0  0  0  0  0  0  0  0  0  0  0  0
  -25.3190  -13.9140   20.4180 C   0  0  0  0  0  0  0  0  0  0  0  0
  -24.2700  -13.1360   20.8250 C   0  0  0  0  0  0  0  0  0  0  0  0
  -24.7280  -11.7850   20.7400 C   0  0  0  0  0  0  0  0  0  0  0  0
  -26.3490  -13.0380   20.1130 N   0  0  0  0  0  0  0  0  0  0  0  0
  -26.0010  -11.7500   20.3660 N   0  0  0  0  0  0  0  0  0  0  0  0
  -24.0110  -10.5190   20.9360 C   0  0  0  0  0  0  0  0  0  0  0  0
  -24.4490   -9.5580   21.8730 C   0  0  0  0  0  3  0  0  0  0  0  0
  -23.7290   -8.3580   22.0570 C   0  0  0  0  0  3  0  0  0  0  0  0
  -22.5580   -8.1090   21.3030 C   0  0  0  0  0  0  0  0  0  0  0  0
  -22.1390   -9.0590   20.3550 C   0  0  0  0  0  3  0  0  0  0  0  0
  -22.8600  -10.2510   20.1690 C   0  0  0  0  0  3  0  0  0  0  0  0
  -21.8100   -6.9610   21.3970 O   0  0  0  0  0  0  0  0  0  0  0  0
  -21.7240   -6.2500   22.5670 C   0  0  0  0  0  0  0  0  0  0  0  0
  -21.2210   -6.8260   23.7540 C   0  0  0  0  0  3  0  0  0  0  0  0
  -21.0850   -6.0410   24.9150 C   0  0  0  0  0  3  0  0  0  0  0  0
  -21.4410   -4.6800   24.8910 C   0  0  0  0  0  0  0  0  0  0  0  0
  -21.9380   -4.1020   23.7090 C   0  0  0  0  0  3  0  0  0  0  0  0
  -22.0760   -4.8850   22.5500 C   0  0  0  0  0  0  0  0  0  0  0  0
  -22.5340   -4.3180   21.4080 F   0  0  0  0  0  0  0  0  0  0  0  0
  -21.3030   -3.9230   26.0050 F   0  0  0  0  0  0  0  0  0  0  0  0
  -22.8900  -13.6080   21.1760 C   0  0  0  0  0  0  0  0  0  0  0  0
  -22.2010  -12.8890   22.0540 N   0  0  0  0  0  0  0  0  0  0  0  0
  -22.4310  -14.6480   20.7060 O   0  0  0  0  0  0  0  0  0  0  0  0
  -22.5830  -12.0460   22.4560 H   0  0  0  0  0  0  0  0  0  0  0  0
  -21.2750  -13.1850   22.3310 H   0  0  0  0  0  0  0  0  0  0  0  0
  -25.4750  -15.2900   20.2620 N   0  0  0  0  0  0  0  0  0  0  0  0
  -24.7080  -15.9360   20.4210 H   0  0  0  0  0  0  0  0  0  0  0  0
  -26.2930  -15.7410   19.8700 H   0  0  0  0  0  0  0  0  0  0  0  0
  -28.1840  -25.3820   21.1740 C   0  0  0  0  0  2  0  0  0  0  0  0
  -28.3150  -26.5420   20.2610 O   0  0  0  0  0  0  0  0  0  0  0  0
  -24.6060  -31.9410   23.2290 C   0  0  0  0  0  0  0  0  0  0  0  0
  -27.2200  -27.4040   20.2080 C   0  0  0  0  0  0  0  0  0  0  0  0
  -23.4020  -30.5270   21.6020 C   0  0  0  0  0  3  0  0  0  0  0  0
  -24.8550  -28.9920   20.1670 C   0  0  0  0  0  0  0  0  0  0  0  0
  -25.9330  -30.8770   21.3950 C   0  0  0  0  0  2  0  0  0  0  0  0
  -26.0200  -29.4970   20.7570 C   0  0  0  0  0  0  0  0  0  0  0  0
  -27.2100  -28.7160   20.7690 C   0  0  0  0  0  3  0  0  0  0  0  0
  -26.0440  -26.9520   19.5770 C   0  0  0  0  0  3  0  0  0  0  0  0
  -24.8670  -27.7240   19.5630 C   0  0  0  0  0  3  0  0  0  0  0  0
  -23.6110  -29.8550   20.2200 C   0  0  0  0  0  2  0  0  0  0  0  0
  -24.6660  -31.1310   22.1330 N   0  0  0  0  0  0  0  0  0  0  0  0
  -23.5240  -32.2100   23.7710 O   0  0  0  0  0  0  0  0  0  0  0  0
  -22.7570  -29.5060   22.5690 C   0  0  0  0  0  0  0  0  0  0  0  0
  -21.4330  -29.3090   22.4480 N   0  0  0  0  0  0  0  0  0  0  0  0
  -23.4470  -28.8940   23.3900 O   0  0  0  0  0  0  0  0  0  0  0  0
  -20.9340  -29.8530   21.7570 H   0  0  0  0  0  0  0  0  0  0  0  0
  -18.0740  -28.0690   22.9560 C   0  0  0  0  0  0  0  0  0  0  0  0
  -20.6290  -28.3680   23.2280 C   0  0  0  0  0  3  0  0  0  0  0  0
  -20.7550  -26.9330   22.6690 C   0  0  0  0  0  2  0  0  0  0  0  0
  -19.6600  -26.5820   21.6570 C   0  0  0  0  0  2  0  0  0  0  0  0
  -18.2740  -26.7160   22.2960 C   0  0  0  0  0  2  0  0  0  0  0  0
  -19.1820  -28.8520   23.3810 C   0  0  0  0  0  0  0  0  0  0  0  0
  -18.9430  -30.1180   23.9590 C   0  0  0  0  0  3  0  0  0  0  0  0
  -17.6310  -30.6010   24.1160 C   0  0  0  0  0  3  0  0  0  0  0  0
  -16.5380  -29.8170   23.7090 C   0  0  0  0  0  3  0  0  0  0  0  0
  -16.7620  -28.5530   23.1340 C   0  0  0  0  0  3  0  0  0  0  0  0
  -25.8880  -32.5860   23.8380 C   0  0  0  0  0  3  0  0  0  0  0  0
  -25.5720  -33.9840   24.1620 N   0  0  0  0  0  0  0  0  0  0  0  0
  -25.8990  -35.0340   23.3960 C   0  0  0  0  0  0  0  0  0  0  0  0
  -26.5640  -34.9290   22.3630 O   0  0  0  0  0  0  0  0  0  0  0  0
  -24.9840  -34.1410   24.9660 H   0  0  0  0  0  0  0  0  0  0  0  0
  -24.1630  -36.8170   23.0320 C   0  0  0  0  0  1  0  0  0  0  0  0
  -25.4040  -36.4220   23.8480 C   0  0  0  0  0  3  0  0  0  0  0  0
  -27.5350  -37.3190   24.6830 C   0  0  0  0  0  1  0  0  0  0  0  0
  -26.4340  -37.4790   23.7360 N   0  0  0  0  0  0  0  0  0  0  0  0
  -26.0220  -38.3980   23.8820 H   0  0  0  0  0  0  0  0  0  0  0  0
  -26.4170  -31.8270   25.1160 C   0  0  1  0  0  0  0  0  0  0  0  0
  -25.3300  -31.5920   26.1900 C   0  0  0  0  0  1  0  0  0  0  0  0
  -27.0100  -30.4510   24.7300 C   0  0  0  0  0  1  0  0  0  0  0  0
  -27.5610  -32.6380   25.7730 C   0  0  0  0  0  1  0  0  0  0  0  0
  1  3  1  0
  2  1  2  0
  2 51  1  0
  3  5  1  0
  4  1  1  0
  4  7  1  0
  6  2  1  0
  7  5  1  0
  9  8  1  0
 10  7  1  0
 10  8  2  0
 11  9  2  0
 12 11  1  0
 12 10  1  0
 13 21  1  0
 14 19  1  0
 15 16  1  0
 15 14  1  0
 17 16  1  0
 17 26  1  0
 17 18  1  0
 19 13  1  0
 19 18  1  0
 20 13  2  0
 21 22  1  0
 21 11  1  0
 23 24  2  0
 24 43  1  0
 25 24  1  0
 25 28  1  0
 26 27  1  0
 26 23  1  0
 27 25  2  0
 28 29  1  0
 29 30  2  0
 31 34  1  0
 31 30  1  0
 32 31  2  0
 33 32  1  0
 33 28  2  0
 34 35  1  0
 35 36  1  0
 36 37  2  0
 38 37  1  0
 38 42  1  0
 39 38  2  0
 40 35  2  0
 40 39  1  0
 41 40  1  0
 43 44  1  0
 44 47  1  0
 44 46  1  0
 45 43  2  0
 48 23  1  0
 48 49  1  0
 50 48  1  0
 52 51  1  0
 53 64  2  0
 54 52  1  0
 54 59  1  0
 55 63  1  0
 55 65  1  0
 56 62  1  0
 56 58  1  0
 57 63  1  0
 58 59  2  0
 58 57  1  0
 60 54  2  0
 61 60  1  0
 61 56  2  0
 62 55  1  0
 63 53  1  0
 65 67  2  0
 66 65  1  0
 68 66  1  0
 69 78  2  0
 69 74  1  0
 70 66  1  0
 70 74  1  0
 71 70  1  0
 72 73  1  0
 72 71  1  0
 73 69  1  0
 74 75  2  0
 75 76  1  0
 77 76  2  0
 78 77  1  0
 79 53  1  0
 79 80  1  0
 79 89  1  0
 80 83  1  0
 81 85  1  0
 81 80  1  0
 82 81  2  0
 85 84  1  0
 87 85  1  0
 87 88  1  0
 87 86  1  0
 89 92  1  1
 89 90  1  0
 91 89  1  0
M  ISO  4  13 100  21 100  51 101  52 101
M  END
>  <TORSDO>  (8) 
F 18

>  <SCORE>  (8) 
-14.773

>  <name>  (8) 
7

>  <ligand_id>  (8) 
7

>  <original_smiles>  (8) 
[H]c1c(N([H])C(=O)N2C([H])([H])C([H])([H])C([H])([H])C([H])(n3nc(-c4c([H])c([H])c(Oc5c([H])c([H])c(F)c([H])c5F)c([H])c4[H])c(C(=O)N([H])[H])c3N([H])[H])C2([H])[H])oc(N2C([H])([H])C(=C(C([H])([H])[H])C([H])([H])Oc3c([H])c([H])c4c(c3[H])C([H])([H])N(C(=O)C([H])(N([H])C(=O)C([H])(N([H])C([H])([H])[H])C([H])([H])[H])C(C([H])([H])[H])(C([H])([H])[H])C([H])([H])[H])C([H])(C(=O)N([H])C3([H])c5c([H])c([H])c([H])c([H])c5C([H])([H])C([H])([H])C3([H])[H])C4([H])[H])C([H])([H])C2([H])[H])c1[H]

>  <smiles>  (8) 
[H]c1c(N([H])C(=O)N2C([H])([H])C([H])([H])C([H])([H])C([H])(n3nc(-c4c([H])c([H])c(Oc5c([H])c([H])c(F)c([H])c5F)c([H])c4[H])c(C(=O)N([H])[H])c3N([H])[H])C2([H])[H])oc(N2C([H])([H])C(=C(C([H])([H])[H])C([H])([H])Oc3c([H])c([H])c4c(c3[H])C([H])([H])N(C(=O)C([H])(N([H])C(=O)C([H])(N([H])C([H])([H])[H])C([H])([H])[H])C(C([H])([H])[H])(C([H])([H])[H])C([H])([H])[H])C([H])(C(=O)N([H])C3([H])c5c([H])c([H])c([H])c([H])c5C([H])([H])C([H])([H])C3([H])[H])C4([H])[H])C([H])([H])C2([H])[H])c1[H]

$$$$
8:0:0
     RDKit          3D

 92100  0  0  1  0  0  0  0  0999 V2000
  -30.9740  -21.6170   22.6520 C   0  0  0  0  0  1  0  0  0  0  0  0
  -31.5090  -22.4520   20.3390 C   0  0  0  0  0  1  0  0  0  0  0  0
  -30.3630  -22.0400   21.2920 C   0  0  1  0  0  0  0  0  0  0  0  0
  -29.5770  -20.8260   20.6870 C   0  0  0  0  0  0  0  0  0  0  0  0
  -28.4640  -21.0280   20.1900 O   0  0  0  0  0  0  0  0  0  0  0  0
  -31.4110  -18.9740   20.6520 C   0  0  0  0  0  3  0  0  0  0  0  0
  -31.5050  -17.5490   20.7000 C   0  0  0  0  0  3  0  0  0  0  0  0
  -30.1230  -19.4460   20.7280 C   0  0  0  0  0  0  0  0  0  0  0  0
  -30.2920  -16.9030   20.7920 C   0  0  0  0  0  0  0  0  0  0  0  0
  -29.0050  -18.0970   20.8540 S   0  0  0  0  0  0  0  0  0  0  0  0
  -30.7200  -14.5490   20.2910 C   0  0  0  0  0  0  0  0  0  0  0  0
  -30.3880  -12.4130   19.1030 C   0  0  0  0  0  2  0  0  0  0  0  0
  -29.4170  -12.6500   17.9280 C   0  0  0  0  0  2  0  0  0  0  0  0
  -27.9540  -12.5060   18.3910 C   0  0  0  0  0  2  0  0  0  0  0  0
  -27.6510  -13.3140   19.6810 C   0  0  0  0  0  3  0  0  0  0  0  0
  -28.7330  -13.0640   20.7570 C   0  0  0  0  0  2  0  0  0  0  0  0
  -30.0430  -13.3750   20.1630 N   0  0  0  0  0  0  0  0  0  0  0  0
  -31.8450  -14.7150   19.8090 O   0  0  0  0  0  0  0  0  0  0  0  0
  -30.0170  -15.5640   20.8390 N   0  0  0  0  0  0  0  0  0  0  0  0
  -29.0910  -15.3110   21.1520 H   0  0  0  0  0  0  0  0  0  0  0  0
  -25.2630  -13.9110   20.4350 C   0  0  0  0  0  0  0  0  0  0  0  0
  -24.2060  -13.1320   20.8260 C   0  0  0  0  0  0  0  0  0  0  0  0
  -24.6740  -11.7830   20.7870 C   0  0  0  0  0  0  0  0  0  0  0  0
  -26.3080  -13.0340   20.1860 N   0  0  0  0  0  0  0  0  0  0  0  0
  -25.9580  -11.7500   20.4540 N   0  0  0  0  0  0  0  0  0  0  0  0
  -23.9580  -10.5170   20.9910 C   0  0  0  0  0  0  0  0  0  0  0  0
  -24.4110   -9.5550   21.9200 C   0  0  0  0  0  3  0  0  0  0  0  0
  -23.6960   -8.3530   22.1120 C   0  0  0  0  0  3  0  0  0  0  0  0
  -22.5140   -8.1050   21.3740 C   0  0  0  0  0  0  0  0  0  0  0  0
  -22.0800   -9.0560   20.4340 C   0  0  0  0  0  3  0  0  0  0  0  0
  -22.7970  -10.2490   20.2400 C   0  0  0  0  0  3  0  0  0  0  0  0
  -21.7680   -6.9560   21.4760 O   0  0  0  0  0  0  0  0  0  0  0  0
  -21.7350   -6.2180   22.6320 C   0  0  0  0  0  0  0  0  0  0  0  0
  -21.3200   -6.7780   23.8600 C   0  0  0  0  0  3  0  0  0  0  0  0
  -21.2350   -5.9670   25.0100 C   0  0  0  0  0  3  0  0  0  0  0  0
  -21.5550   -4.5980   24.9330 C   0  0  0  0  0  0  0  0  0  0  0  0
  -21.9630   -4.0380   23.7090 C   0  0  0  0  0  3  0  0  0  0  0  0
  -22.0500   -4.8460   22.5610 C   0  0  0  0  0  0  0  0  0  0  0  0
  -22.4230   -4.2980   21.3800 F   0  0  0  0  0  0  0  0  0  0  0  0
  -21.4650   -3.8180   26.0340 F   0  0  0  0  0  0  0  0  0  0  0  0
  -22.8130  -13.6030   21.1250 C   0  0  0  0  0  0  0  0  0  0  0  0
  -22.1050  -12.9020   22.0050 N   0  0  0  0  0  0  0  0  0  0  0  0
  -22.3590  -14.6260   20.6140 O   0  0  0  0  0  0  0  0  0  0  0  0
  -22.4840  -12.0750   22.4400 H   0  0  0  0  0  0  0  0  0  0  0  0
  -21.1710  -13.1990   22.2480 H   0  0  0  0  0  0  0  0  0  0  0  0
  -25.4190  -15.2810   20.2530 N   0  0  0  0  0  0  0  0  0  0  0  0
  -24.6510  -15.9320   20.3720 H   0  0  0  0  0  0  0  0  0  0  0  0
  -26.2570  -15.7220   19.8930 H   0  0  0  0  0  0  0  0  0  0  0  0
  -29.4390  -23.2870   21.5890 C   0  0  0  0  0  2  0  0  0  0  0  0
  -29.2530  -24.3920   20.5060 C   0  0  0  0  0  2  0  0  0  0  0  0
  -28.3780  -25.5700   21.0070 C   0  0  0  0  0  2  0  0  0  0  0  0
  -28.4350  -26.7270   20.1550 O   0  0  0  0  0  0  0  0  0  0  0  0
  -24.6130  -31.8990   23.2450 C   0  0  0  0  0  0  0  0  0  0  0  0
  -27.2820  -27.4810   20.1600 C   0  0  0  0  0  0  0  0  0  0  0  0
  -23.4160  -30.4970   21.5970 C   0  0  0  0  0  3  0  0  0  0  0  0
  -24.8810  -28.9720   20.1680 C   0  0  0  0  0  0  0  0  0  0  0  0
  -25.9390  -30.8720   21.4010 C   0  0  0  0  0  2  0  0  0  0  0  0
  -26.0350  -29.5030   20.7580 C   0  0  0  0  0  0  0  0  0  0  0  0
  -27.2430  -28.7660   20.7490 C   0  0  0  0  0  3  0  0  0  0  0  0
  -26.1150  -26.9640   19.5610 C   0  0  0  0  0  3  0  0  0  0  0  0
  -24.9150  -27.7020   19.5650 C   0  0  0  0  0  3  0  0  0  0  0  0
  -23.6310  -29.8210   20.2150 C   0  0  0  0  0  2  0  0  0  0  0  0
  -24.6740  -31.1040   22.1390 N   0  0  0  0  0  0  0  0  0  0  0  0
  -23.5290  -32.1630   23.7850 O   0  0  0  0  0  0  0  0  0  0  0  0
  -22.7690  -29.4690   22.5530 C   0  0  0  0  0  0  0  0  0  0  0  0
  -21.4450  -29.2820   22.4270 N   0  0  0  0  0  0  0  0  0  0  0  0
  -23.4550  -28.8410   23.3650 O   0  0  0  0  0  0  0  0  0  0  0  0
  -20.9530  -29.8400   21.7430 H   0  0  0  0  0  0  0  0  0  0  0  0
  -18.0740  -28.0790   22.9230 C   0  0  0  0  0  0  0  0  0  0  0  0
  -20.6320  -28.3380   23.1930 C   0  0  0  0  0  3  0  0  0  0  0  0
  -20.7350  -26.9120   22.6060 C   0  0  0  0  0  2  0  0  0  0  0  0
  -19.6320  -26.5950   21.5930 C   0  0  0  0  0  2  0  0  0  0  0  0
  -18.2510  -26.7340   22.2400 C   0  0  0  0  0  2  0  0  0  0  0  0
  -19.1930  -28.8390   23.3570 C   0  0  0  0  0  0  0  0  0  0  0  0
  -18.9740  -30.0990   23.9560 C   0  0  0  0  0  3  0  0  0  0  0  0
  -17.6690  -30.5990   24.1260 C   0  0  0  0  0  3  0  0  0  0  0  0
  -16.5650  -29.8360   23.7090 C   0  0  0  0  0  3  0  0  0  0  0  0
  -16.7680  -28.5780   23.1140 C   0  0  0  0  0  3  0  0  0  0  0  0
  -25.8950  -32.5340   23.8680 C   0  0  0  0  0  3  0  0  0  0  0  0
  -25.5830  -33.9340   24.1900 N   0  0  0  0  0  0  0  0  0  0  0  0
  -25.9240  -34.9820   23.4280 C   0  0  0  0  0  0  0  0  0  0  0  0
  -26.6050  -34.8740   22.4040 O   0  0  0  0  0  0  0  0  0  0  0  0
  -24.9800  -34.0920   24.9830 H   0  0  0  0  0  0  0  0  0  0  0  0
  -24.2040  -36.7750   23.0420 C   0  0  0  0  0  1  0  0  0  0  0  0
  -25.4310  -36.3720   23.8730 C   0  0  0  0  0  3  0  0  0  0  0  0
  -27.5550  -37.2560   24.7310 C   0  0  0  0  0  1  0  0  0  0  0  0
  -26.4670  -37.4240   23.7710 N   0  0  0  0  0  0  0  0  0  0  0  0
  -26.0600  -38.3450   23.9110 H   0  0  0  0  0  0  0  0  0  0  0  0
  -26.4100  -31.7690   25.1480 C   0  0  1  0  0  0  0  0  0  0  0  0
  -25.3140  -31.5310   26.2130 C   0  0  0  0  0  1  0  0  0  0  0  0
  -26.9960  -30.3910   24.7590 C   0  0  0  0  0  1  0  0  0  0  0  0
  -27.5570  -32.5660   25.8110 C   0  0  0  0  0  1  0  0  0  0  0  0
  3  2  1  6
  3 49  1  0
  3  1  1  0
  4  8  1  0
  4  3  1  0
  5  4  2  0
  6  7  1  0
  6  8  2  0
  7  9  2  0
  8 10  1  0
  9 19  1  0
  9 10  1  0
 11 19  1  0
 12 17  1  0
 13 14  1  0
 13 12  1  0
 15 14  1  0
 15 24  1  0
 15 16  1  0
 17 11  1  0
 17 16  1  0
 18 11  2  0
 19 20  1  0
 21 22  2  0
 22 41  1  0
 23 22  1  0
 23 26  1  0
 24 21  1  0
 24 25  1  0
 25 23  2  0
 26 27  1  0
 27 28  2  0
 29 32  1  0
 29 28  1  0
 30 29  2  0
 31 30  1  0
 31 26  2  0
 32 33  1  0
 33 34  1  0
 34 35  2  0
 36 35  1  0
 36 40  1  0
 37 36  2  0
 38 33  2  0
 38 37  1  0
 39 38  1  0
 41 42  1  0
 42 45  1  0
 42 44  1  0
 43 41  2  0
 46 47  1  0
 46 21  1  0
 48 46  1  0
 50 51  1  0
 50 49  1  0
 52 54  1  0
 52 51  1  0
 53 64  2  0
 54 59  1  0
 55 63  1  0
 55 65  1  0
 56 62  1  0
 56 58  1  0
 57 63  1  0
 58 57  1  0
 59 58  2  0
 60 61  1  0
 60 54  2  0
 61 56  2  0
 62 55  1  0
 63 53  1  0
 65 67  2  0
 66 65  1  0
 68 66  1  0
 69 78  2  0
 69 74  1  0
 70 66  1  0
 70 74  1  0
 71 70  1  0
 72 73  1  0
 72 71  1  0
 73 69  1  0
 74 75  2  0
 75 76  1  0
 77 76  2  0
 78 77  1  0
 79 53  1  0
 79 80  1  0
 79 89  1  0
 80 83  1  0
 81 85  1  0
 81 80  1  0
 82 81  2  0
 85 84  1  0
 87 85  1  0
 87 88  1  0
 87 86  1  0
 89 92  1  1
 89 90  1  0
 91 89  1  0
M  ISO  4  11 100  19 100  51 101  52 101
M  END
>  <TORSDO>  (9) 
F 21

>  <SCORE>  (9) 
-13.693

>  <name>  (9) 
8

>  <ligand_id>  (9) 
8

>  <original_smiles>  (9) 
[H]c1c(C(=O)C(C([H])([H])[H])(C([H])([H])[H])C([H])([H])C([H])([H])C([H])([H])Oc2c([H])c([H])c3c(c2[H])C([H])([H])N(C(=O)C([H])(N([H])C(=O)C([H])(N([H])C([H])([H])[H])C([H])([H])[H])C(C([H])([H])[H])(C([H])([H])[H])C([H])([H])[H])C([H])(C(=O)N([H])C2([H])c4c([H])c([H])c([H])c([H])c4C([H])([H])C([H])([H])C2([H])[H])C3([H])[H])sc(N([H])C(=O)N2C([H])([H])C([H])([H])C([H])([H])C([H])(n3nc(-c4c([H])c([H])c(Oc5c([H])c([H])c(F)c([H])c5F)c([H])c4[H])c(C(=O)N([H])[H])c3N([H])[H])C2([H])[H])c1[H]

>  <smiles>  (9) 
[H]c1c(C(=O)C(C([H])([H])[H])(C([H])([H])[H])C([H])([H])C([H])([H])C([H])([H])Oc2c([H])c([H])c3c(c2[H])C([H])([H])N(C(=O)C([H])(N([H])C(=O)C([H])(N([H])C([H])([H])[H])C([H])([H])[H])C(C([H])([H])[H])(C([H])([H])[H])C([H])([H])[H])C([H])(C(=O)N([H])C2([H])c4c([H])c([H])c([H])c([H])c4C([H])([H])C([H])([H])C2([H])[H])C3([H])[H])sc(N([H])C(=O)N2C([H])([H])C([H])([H])C([H])([H])C([H])(n3nc(-c4c([H])c([H])c(Oc5c([H])c([H])c(F)c([H])c5F)c([H])c4[H])c(C(=O)N([H])[H])c3N([H])[H])C2([H])[H])c1[H]

$$$$
9:0:0
     RDKit          3D

101109  0  0  1  0  0  0  0  0999 V2000
  -28.6590  -22.9120   22.9170 C   0  0  0  0  0  1  0  0  0  0  0  0
  -27.8470  -23.3580   21.6610 C   0  0  1  0  0  0  0  0  0  0  0  0
  -26.4530  -22.8800   21.8410 N   0  0  0  0  0  4  0  0  0  0  0  0
  -26.4340  -21.8720   21.8550 H   0  0  0  0  0  0  0  0  0  0  0  0
  -25.8510  -23.1780   21.0940 H   0  0  0  0  0  0  0  0  0  0  0  0
  -26.0660  -23.2140   22.7080 H   0  0  0  0  0  0  0  0  0  0  0  0
  -29.2020  -25.5590   21.9840 C   0  0  0  0  0  1  0  0  0  0  0  0
  -26.7530  -25.5820   22.4360 C   0  0  0  0  0  1  0  0  0  0  0  0
  -27.8480  -24.9570   21.5270 C   0  0  2  0  0  0  0  0  0  0  0  0
  -27.6170  -25.4470   20.0530 C   0  0  0  0  0  2  0  0  0  0  0  0
  -27.7500  -26.8750   19.8720 O   0  0  0  0  0  0  0  0  0  0  0  0
  -24.7270  -32.1310   23.5750 C   0  0  0  0  0  0  0  0  0  0  0  0
  -26.6390  -27.6850   20.0010 C   0  0  0  0  0  0  0  0  0  0  0  0
  -23.2440  -30.9480   21.9900 C   0  0  0  0  0  3  0  0  0  0  0  0
  -24.4030  -29.3880   20.3400 C   0  0  0  0  0  0  0  0  0  0  0  0
  -25.7590  -31.1020   21.5540 C   0  0  0  0  0  2  0  0  0  0  0  0
  -25.6550  -29.7740   20.8300 C   0  0  0  0  0  0  0  0  0  0  0  0
  -26.7770  -28.9320   20.6520 C   0  0  0  0  0  3  0  0  0  0  0  0
  -25.3680  -27.3200   19.4980 C   0  0  0  0  0  3  0  0  0  0  0  0
  -24.2540  -28.1620   19.6700 C   0  0  0  0  0  3  0  0  0  0  0  0
  -23.2530  -30.3450   20.5600 C   0  0  0  0  0  2  0  0  0  0  0  0
  -24.6020  -31.4030   22.4310 N   0  0  0  0  0  0  0  0  0  0  0  0
  -23.7340  -32.4600   24.2390 O   0  0  0  0  0  0  0  0  0  0  0  0
  -22.5980  -29.9250   22.9540 C   0  0  0  0  0  0  0  0  0  0  0  0
  -21.2950  -29.6630   22.7610 N   0  0  0  0  0  0  0  0  0  0  0  0
  -23.2690  -29.3690   23.8270 O   0  0  0  0  0  0  0  0  0  0  0  0
  -20.8140  -30.1680   22.0300 H   0  0  0  0  0  0  0  0  0  0  0  0
  -18.0540  -28.0760   22.9310 C   0  0  0  0  0  0  0  0  0  0  0  0
  -20.4900  -28.7080   23.5220 C   0  0  0  0  0  3  0  0  0  0  0  0
  -20.8500  -27.2520   23.1480 C   0  0  0  0  0  2  0  0  0  0  0  0
  -19.9640  -26.6770   22.0370 C   0  0  0  0  0  2  0  0  0  0  0  0
  -18.4920  -26.6990   22.4610 C   0  0  0  0  0  2  0  0  0  0  0  0
  -18.9940  -29.0250   23.4150 C   0  0  0  0  0  0  0  0  0  0  0  0
  -18.5380  -30.3030   23.8060 C   0  0  0  0  0  3  0  0  0  0  0  0
  -17.1730  -30.6370   23.7240 C   0  0  0  0  0  3  0  0  0  0  0  0
  -16.2450  -29.6880   23.2610 C   0  0  0  0  0  3  0  0  0  0  0  0
  -16.6850  -28.4110   22.8690 C   0  0  0  0  0  3  0  0  0  0  0  0
  -26.1210  -32.6080   24.0930 C   0  0  0  0  0  3  0  0  0  0  0  0
  -25.9860  -34.0150   24.4890 N   0  0  0  0  0  0  0  0  0  0  0  0
  -26.3700  -35.0560   23.7390 C   0  0  0  0  0  0  0  0  0  0  0  0
  -26.9460  -34.9250   22.6560 O   0  0  0  0  0  0  0  0  0  0  0  0
  -25.4730  -34.1980   25.3390 H   0  0  0  0  0  0  0  0  0  0  0  0
  -24.8160  -37.0270   23.5750 C   0  0  0  0  0  1  0  0  0  0  0  0
  -26.0650  -36.4680   24.2760 C   0  0  0  0  0  3  0  0  0  0  0  0
  -28.3360  -37.0970   24.9630 C   0  0  0  0  0  1  0  0  0  0  0  0
  -27.1910  -37.4140   24.1150 N   0  0  0  0  0  0  0  0  0  0  0  0
  -26.8960  -38.3640   24.3240 H   0  0  0  0  0  0  0  0  0  0  0  0
  -26.6690  -31.7390   25.2910 C   0  0  1  0  0  0  0  0  0  0  0  0
  -25.6400  -31.5230   26.4250 C   0  0  0  0  0  1  0  0  0  0  0  0
  -27.1220  -30.3470   24.7930 C   0  0  0  0  0  1  0  0  0  0  0  0
  -27.9160  -32.4190   25.9040 C   0  0  0  0  0  1  0  0  0  0  0  0
  -28.4730  -22.6390   20.4070 C   0  0  0  0  0  2  0  0  0  0  0  0
  -28.8180  -21.1390   20.5750 C   0  0  0  0  0  0  0  0  0  0  0  0
  -30.0650  -20.7670   20.2330 N   0  0  0  0  0  0  0  0  0  0  0  0
  -27.9690  -20.3680   21.0290 O   0  0  0  0  0  0  0  0  0  0  0  0
  -30.6560  -21.5280   19.9250 H   0  0  0  0  0  0  0  0  0  0  0  0
  -30.1080  -18.2390   20.1810 C   0  0  0  0  0  3  0  0  0  0  0  0
  -32.1110  -19.5630   20.6260 C   0  0  0  0  0  3  0  0  0  0  0  0
  -32.2660  -17.1370   20.5290 C   0  0  0  0  0  3  0  0  0  0  0  0
  -30.7260  -19.5080   20.3610 C   0  0  0  0  0  0  0  0  0  0  0  0
  -30.8850  -17.0520   20.2380 C   0  0  0  0  0  0  0  0  0  0  0  0
  -32.8750  -18.3880   20.7230 C   0  0  0  0  0  0  0  0  0  0  0  0
  -34.2000  -18.4610   20.9960 F   0  0  0  0  0  0  0  0  0  0  0  0
  -30.9150  -14.7210   19.4590 C   0  0  0  0  0  0  0  0  0  0  0  0
  -30.6330  -12.3970   18.6750 C   0  0  0  0  0  2  0  0  0  0  0  0
  -29.5960  -12.3370   17.5360 C   0  0  0  0  0  2  0  0  0  0  0  0
  -28.1710  -12.2010   18.1060 C   0  0  0  0  0  2  0  0  0  0  0  0
  -27.8720  -13.2330   19.2260 C   0  0  0  0  0  3  0  0  0  0  0  0
  -29.0150  -13.2660   20.2650 C   0  0  0  0  0  2  0  0  0  0  0  0
  -30.2720  -13.5260   19.5460 N   0  0  0  0  0  0  0  0  0  0  0  0
  -31.9570  -14.8710   18.8130 O   0  0  0  0  0  0  0  0  0  0  0  0
  -30.2930  -15.7730   20.0240 N   0  0  0  0  0  0  0  0  0  0  0  0
  -29.3540  -15.6260   20.3620 H   0  0  0  0  0  0  0  0  0  0  0  0
  -25.5820  -13.8790   20.2060 C   0  0  0  0  0  0  0  0  0  0  0  0
  -24.5470  -13.1230   20.6890 C   0  0  0  0  0  0  0  0  0  0  0  0
  -24.9760  -11.7640   20.5960 C   0  0  0  0  0  0  0  0  0  0  0  0
  -26.5780  -12.9810   19.8540 N   0  0  0  0  0  0  0  0  0  0  0  0
  -26.2220  -11.7030   20.1430 N   0  0  0  0  0  0  0  0  0  0  0  0
  -24.2530  -10.5130   20.8600 C   0  0  0  0  0  0  0  0  0  0  0  0
  -24.6740   -9.6120   21.8610 C   0  0  0  0  0  3  0  0  0  0  0  0
  -23.9510   -8.4250   22.1070 C   0  0  0  0  0  3  0  0  0  0  0  0
  -22.7920   -8.1310   21.3510 C   0  0  0  0  0  0  0  0  0  0  0  0
  -22.3900   -9.0200   20.3390 C   0  0  0  0  0  3  0  0  0  0  0  0
  -23.1140  -10.1980   20.0920 C   0  0  0  0  0  3  0  0  0  0  0  0
  -22.0420   -6.9900   21.5020 O   0  0  0  0  0  0  0  0  0  0  0  0
  -21.8690   -6.3990   22.7280 C   0  0  0  0  0  0  0  0  0  0  0  0
  -21.2930   -7.0920   23.8140 C   0  0  0  0  0  3  0  0  0  0  0  0
  -21.0700   -6.4250   25.0370 C   0  0  0  0  0  3  0  0  0  0  0  0
  -21.4130   -5.0670   25.1710 C   0  0  0  0  0  0  0  0  0  0  0  0
  -21.9830   -4.3740   24.0880 C   0  0  0  0  0  3  0  0  0  0  0  0
  -22.2070   -5.0370   22.8690 C   0  0  0  0  0  0  0  0  0  0  0  0
  -22.7360   -4.3600   21.8220 F   0  0  0  0  0  0  0  0  0  0  0  0
  -21.1930   -4.4240   26.3410 F   0  0  0  0  0  0  0  0  0  0  0  0
  -23.2000  -13.6240   21.1210 C   0  0  0  0  0  0  0  0  0  0  0  0
  -22.5790  -12.9550   22.0860 N   0  0  0  0  0  0  0  0  0  0  0  0
  -22.7110  -14.6440   20.6360 O   0  0  0  0  0  0  0  0  0  0  0  0
  -22.9890  -12.1300   22.4980 H   0  0  0  0  0  0  0  0  0  0  0  0
  -21.6790  -13.2720   22.4180 H   0  0  0  0  0  0  0  0  0  0  0  0
  -25.7520  -15.2480   20.0180 N   0  0  0  0  0  0  0  0  0  0  0  0
  -25.0120  -15.9150   20.2120 H   0  0  0  0  0  0  0  0  0  0  0  0
  -26.5660  -15.6740   19.5930 H   0  0  0  0  0  0  0  0  0  0  0  0
  2  3  1  0
  2  1  1  1
  3  4  1  0
  3  6  1  0
  5  3  1  0
  9  2  1  0
  9  7  1  1
  9  8  1  0
 10  9  1  0
 11 13  1  0
 11 10  1  0
 12 23  2  0
 13 18  1  0
 14 22  1  0
 14 24  1  0
 15 21  1  0
 15 17  1  0
 16 22  1  0
 17 16  1  0
 18 17  2  0
 19 20  1  0
 19 13  2  0
 20 15  2  0
 21 14  1  0
 22 12  1  0
 24 26  2  0
 25 24  1  0
 27 25  1  0
 28 33  1  0
 29 25  1  0
 30 29  1  0
 31 32  1  0
 31 30  1  0
 32 28  1  0
 33 29  1  0
 33 34  2  0
 35 34  1  0
 36 35  2  0
 37 28  2  0
 37 36  1  0
 38 12  1  0
 38 39  1  0
 38 48  1  0
 39 42  1  0
 40 44  1  0
 40 39  1  0
 41 40  2  0
 44 43  1  0
 46 44  1  0
 46 47  1  0
 46 45  1  0
 48 51  1  1
 48 49  1  0
 50 48  1  0
 52 53  1  0
 52  2  1  0
 53 55  2  0
 54 60  1  0
 54 53  1  0
 56 54  1  0
 57 61  2  0
 57 60  1  0
 58 62  1  0
 59 62  2  0
 60 58  2  0
 61 59  1  0
 62 63  1  0
 64 70  1  0
 64 72  1  0
 65 70  1  0
 66 67  1  0
 66 65  1  0
 68 67  1  0
 68 77  1  0
 68 69  1  0
 70 69  1  0
 71 64  2  0
 72 61  1  0
 72 73  1  0
 74 75  2  0
 75 94  1  0
 76 75  1  0
 76 79  1  0
 77 78  1  0
 77 74  1  0
 78 76  2  0
 79 80  1  0
 80 81  2  0
 82 85  1  0
 82 81  1  0
 83 82  2  0
 84 83  1  0
 84 79  2  0
 85 86  1  0
 86 91  2  0
 86 87  1  0
 87 88  2  0
 88 89  1  0
 89 93  1  0
 90 89  2  0
 91 90  1  0
 92 91  1  0
 94 95  1  0
 95 98  1  0
 95 97  1  0
 96 94  2  0
 99 74  1  0
 99100  1  0
101 99  1  0
M  ISO  4  10 101  11 101  64 100  72 100
M  END
>  <TORSDO>  (10) 
F 22

>  <SCORE>  (10) 
-11.690

>  <name>  (10) 
9

>  <ligand_id>  (10) 
9

>  <original_smiles>  (10) 
[H]c1c([H])c([H])c2c(c1[H])C([H])([H])C([H])([H])C([H])([H])C2([H])N([H])C(=O)C1([H])N(C(=O)C([H])(N([H])C(=O)C([H])(N([H])C([H])([H])[H])C([H])([H])[H])C(C([H])([H])[H])(C([H])([H])[H])C([H])([H])[H])C([H])([H])c2c([H])c(OC([H])([H])C(C([H])([H])[H])(C([H])([H])[H])C(C([H])([H])[H])(C([H])([H])C(=O)N([H])c3c([H])c(F)c([H])c(N([H])C(=O)N4C([H])([H])C([H])([H])C([H])([H])C([H])(n5nc(-c6c([H])c([H])c(Oc7c([H])c([H])c(F)c([H])c7F)c([H])c6[H])c(C(=O)N([H])[H])c5N([H])[H])C4([H])[H])c3[H])[N+]([H])([H])[H])c([H])c([H])c2C1([H])[H]

>  <smiles>  (10) 
[H]c1c([H])c([H])c2c(c1[H])C([H])([H])C([H])([H])C([H])([H])C2([H])N([H])C(=O)C1([H])N(C(=O)C([H])(N([H])C(=O)C([H])(N([H])C([H])([H])[H])C([H])([H])[H])C(C([H])([H])[H])(C([H])([H])[H])C([H])([H])[H])C([H])([H])c2c([H])c(OC([H])([H])C(C([H])([H])[H])(C([H])([H])[H])C(C([H])([H])[H])(C([H])([H])C(=O)N([H])c3c([H])c(F)c([H])c(N([H])C(=O)N4C([H])([H])C([H])([H])C([H])([H])C([H])(n5nc(-c6c([H])c([H])c(Oc7c([H])c([H])c(F)c([H])c7F)c([H])c6[H])c(C(=O)N([H])[H])c5N([H])[H])C4([H])[H])c3[H])[N+]([H])([H])[H])c([H])c([H])c2C1([H])[H]

$$$$
10:0:0
     RDKit          3D

 97106  0  0  1  0  0  0  0  0999 V2000
  -28.8420  -20.8700   21.0160 C   0  0  0  0  0  3  0  0  0  0  0  0
  -26.6210  -23.1430   19.3170 C   0  0  0  0  0  2  0  0  0  0  0  0
  -27.9370  -23.1680   18.5220 C   0  0  0  0  0  2  0  0  0  0  0  0
  -26.9660  -22.4070   20.6270 C   0  0  0  0  0  2  0  0  0  0  0  0
  -29.0170  -23.1220   19.6120 C   0  0  0  0  0  3  0  0  0  0  0  0
  -28.4150  -22.0890   20.5290 N   0  0  0  0  0  0  0  0  0  0  0  0
  -28.2090  -20.4240   22.1040 N   0  0  0  0  0  0  0  0  0  0  0  0
  -28.5600  -19.5930   22.5510 H   0  0  0  0  0  0  0  0  0  0  0  0
  -27.6120  -21.0320   22.6360 H   0  0  0  0  0  0  0  0  0  0  0  0
  -32.0830  -19.4720   19.5590 C   0  0  0  0  0  3  0  0  0  0  0  0
  -31.0870  -20.3990   19.9280 C   0  0  0  0  0  3  0  0  0  0  0  0
  -31.9050  -18.0820   19.7470 C   0  0  0  0  0  3  0  0  0  0  0  0
  -29.7100  -18.5170   20.6580 C   0  0  0  0  0  3  0  0  0  0  0  0
  -29.8850  -19.9360   20.4950 C   0  0  0  0  0  0  0  0  0  0  0  0
  -30.7080  -17.5580   20.3010 C   0  0  0  0  0  0  0  0  0  0  0  0
  -31.1970  -15.0300   20.1640 C   0  0  0  0  0  0  0  0  0  0  0  0
  -30.9230  -12.7650   19.1960 C   0  0  0  0  0  2  0  0  0  0  0  0
  -29.9640  -12.8440   17.9900 C   0  0  0  0  0  2  0  0  0  0  0  0
  -28.5000  -12.7100   18.4470 C   0  0  0  0  0  2  0  0  0  0  0  0
  -28.1600  -13.6270   19.6520 C   0  0  0  0  0  3  0  0  0  0  0  0
  -29.2360  -13.5380   20.7580 C   0  0  0  0  0  2  0  0  0  0  0  0
  -30.5400  -13.8300   20.1450 N   0  0  0  0  0  0  0  0  0  0  0  0
  -32.3510  -15.1240   19.7420 O   0  0  0  0  0  0  0  0  0  0  0  0
  -30.4600  -16.1290   20.5100 N   0  0  0  0  0  0  0  0  0  0  0  0
  -29.5500  -15.8990   20.8760 H   0  0  0  0  0  0  0  0  0  0  0  0
  -25.8130  -14.2550   20.4850 C   0  0  0  0  0  0  0  0  0  0  0  0
  -24.7360  -13.4930   20.8510 C   0  0  0  0  0  0  0  0  0  0  0  0
  -25.1560  -12.1330   20.7360 C   0  0  0  0  0  0  0  0  0  0  0  0
  -26.8220  -13.3600   20.1690 N   0  0  0  0  0  0  0  0  0  0  0  0
  -26.4340  -12.0750   20.3790 N   0  0  0  0  0  0  0  0  0  0  0  0
  -24.3990  -10.8830   20.8870 C   0  0  0  0  0  0  0  0  0  0  0  0
  -24.7980   -9.8840   21.8030 C   0  0  0  0  0  3  0  0  0  0  0  0
  -24.0440   -8.6990   21.9440 C   0  0  0  0  0  3  0  0  0  0  0  0
  -22.8770   -8.5040   21.1700 C   0  0  0  0  0  0  0  0  0  0  0  0
  -22.4950   -9.4910   20.2450 C   0  0  0  0  0  3  0  0  0  0  0  0
  -23.2500  -10.6680   20.1000 C   0  0  0  0  0  3  0  0  0  0  0  0
  -22.0950   -7.3750   21.2220 O   0  0  0  0  0  0  0  0  0  0  0  0
  -21.9690   -6.6380   22.3730 C   0  0  0  0  0  0  0  0  0  0  0  0
  -21.4620   -7.2000   23.5650 C   0  0  0  0  0  3  0  0  0  0  0  0
  -21.2820   -6.3920   24.7040 C   0  0  0  0  0  3  0  0  0  0  0  0
  -21.5990   -5.0210   24.6530 C   0  0  0  0  0  0  0  0  0  0  0  0
  -22.0990   -4.4570   23.4650 C   0  0  0  0  0  3  0  0  0  0  0  0
  -22.2810   -5.2640   22.3280 C   0  0  0  0  0  0  0  0  0  0  0  0
  -22.7420   -4.7120   21.1790 F   0  0  0  0  0  0  0  0  0  0  0  0
  -21.4190   -4.2410   25.7450 F   0  0  0  0  0  0  0  0  0  0  0  0
  -23.3630  -13.9960   21.1900 C   0  0  0  0  0  0  0  0  0  0  0  0
  -22.6500  -13.2910   22.0610 N   0  0  0  0  0  0  0  0  0  0  0  0
  -22.9330  -15.0490   20.7210 O   0  0  0  0  0  0  0  0  0  0  0  0
  -23.0110  -12.4410   22.4670 H   0  0  0  0  0  0  0  0  0  0  0  0
  -21.7280  -13.6090   22.3270 H   0  0  0  0  0  0  0  0  0  0  0  0
  -26.0090  -15.6290   20.3710 N   0  0  0  0  0  0  0  0  0  0  0  0
  -25.2610  -16.2900   20.5470 H   0  0  0  0  0  0  0  0  0  0  0  0
  -26.8320  -16.0640   19.9690 H   0  0  0  0  0  0  0  0  0  0  0  0
  -29.1630  -24.5650   20.2950 C   0  0  0  0  0  0  0  0  0  0  0  0
  -29.1780  -24.6850   21.5250 O   0  0  0  0  0  0  0  0  0  0  0  0
  -29.2910  -25.8600   19.4110 C   0  0  0  0  0  2  0  0  0  0  0  0
  -29.0650  -27.1330   20.1080 O   0  0  0  0  0  0  0  0  0  0  0  0
  -24.7550  -31.8440   23.3640 C   0  0  0  0  0  0  0  0  0  0  0  0
  -27.8430  -27.8080   20.0660 C   0  0  0  0  0  0  0  0  0  0  0  0
  -23.7260  -30.5090   21.5570 C   0  0  0  0  0  3  0  0  0  0  0  0
  -25.3480  -29.1940   20.0810 C   0  0  0  0  0  0  0  0  0  0  0  0
  -26.2310  -31.0390   21.5150 C   0  0  0  0  0  2  0  0  0  0  0  0
  -26.4440  -29.7310   20.7650 C   0  0  0  0  0  0  0  0  0  0  0  0
  -27.6900  -29.0480   20.7520 C   0  0  0  0  0  3  0  0  0  0  0  0
  -26.7170  -27.3000   19.3780 C   0  0  0  0  0  3  0  0  0  0  0  0
  -25.4830  -27.9800   19.3860 C   0  0  0  0  0  3  0  0  0  0  0  0
  -24.0470  -29.9690   20.1370 C   0  0  0  0  0  2  0  0  0  0  0  0
  -24.9190  -31.1440   22.2050 N   0  0  0  0  0  0  0  0  0  0  0  0
  -23.6350  -31.9940   23.8720 O   0  0  0  0  0  0  0  0  0  0  0  0
  -23.1120  -29.3660   22.3990 C   0  0  0  0  0  0  0  0  0  0  0  0
  -21.8040  -29.1180   22.2140 N   0  0  0  0  0  0  0  0  0  0  0  0
  -23.8110  -28.7100   23.1740 O   0  0  0  0  0  0  0  0  0  0  0  0
  -21.2960  -29.7170   21.5770 H   0  0  0  0  0  0  0  0  0  0  0  0
  -18.5000  -27.6820   22.4990 C   0  0  0  0  0  0  0  0  0  0  0  0
  -21.0290  -28.0640   22.8690 C   0  0  0  0  0  3  0  0  0  0  0  0
  -21.2350  -26.7000   22.1660 C   0  0  0  0  0  2  0  0  0  0  0  0
  -20.1780  -26.4080   21.0950 C   0  0  0  0  0  2  0  0  0  0  0  0
  -18.7730  -26.4170   21.7060 C   0  0  0  0  0  2  0  0  0  0  0  0
  -19.5590  -28.4640   23.0320 C   0  0  0  0  0  0  0  0  0  0  0  0
  -19.2520  -29.6500   23.7320 C   0  0  0  0  0  3  0  0  0  0  0  0
  -17.9160  -30.0600   23.9040 C   0  0  0  0  0  3  0  0  0  0  0  0
  -16.8700  -29.2750   23.3870 C   0  0  0  0  0  3  0  0  0  0  0  0
  -17.1630  -28.0880   22.6910 C   0  0  0  0  0  3  0  0  0  0  0  0
  -25.9630  -32.5120   24.0910 C   0  0  0  0  0  3  0  0  0  0  0  0
  -26.3730  -31.7730   25.4240 C   0  0  1  0  0  0  0  0  0  0  0  0
  -25.1890  -31.5240   26.3870 C   0  0  0  0  0  1  0  0  0  0  0  0
  -27.0250  -30.4050   25.1130 C   0  0  0  0  0  1  0  0  0  0  0  0
  -27.4340  -32.6050   26.1830 C   0  0  0  0  0  1  0  0  0  0  0  0
  -25.5990  -33.9090   24.3670 N   0  0  0  0  0  0  0  0  0  0  0  0
  -25.9790  -34.9550   23.6190 C   0  0  0  0  0  0  0  0  0  0  0  0
  -26.7410  -34.8480   22.6550 O   0  0  0  0  0  0  0  0  0  0  0  0
  -24.9420  -34.0650   25.1160 H   0  0  0  0  0  0  0  0  0  0  0  0
  -24.2540  -36.7030   23.0760 C   0  0  0  0  0  1  0  0  0  0  0  0
  -25.4250  -36.3400   24.0030 C   0  0  0  0  0  3  0  0  0  0  0  0
  -27.4550  -37.2930   25.0050 C   0  0  0  0  0  1  0  0  0  0  0  0
  -26.4420  -37.4150   23.9610 N   0  0  0  0  0  0  0  0  0  0  0  0
  -26.0030  -38.3280   24.0480 H   0  0  0  0  0  0  0  0  0  0  0  0
  1  7  1  0
  2  4  1  0
  3  2  1  0
  3  5  1  0
  5 54  1  0
  5  6  1  0
  6  4  1  0
  6  1  1  0
  7  8  1  0
  7  9  1  0
 10 12  2  0
 10 11  1  0
 11 14  2  0
 12 15  1  0
 14 13  1  0
 14  1  1  0
 15 24  1  0
 15 13  2  0
 16 24  1  0
 17 22  1  0
 18 19  1  0
 18 17  1  0
 20 19  1  0
 20 29  1  0
 20 21  1  0
 22 16  1  0
 22 21  1  0
 23 16  2  0
 24 25  1  0
 26 27  2  0
 27 46  1  0
 28 27  1  0
 28 31  1  0
 29 30  1  0
 29 26  1  0
 30 28  2  0
 31 32  1  0
 32 33  2  0
 34 37  1  0
 34 33  1  0
 35 34  2  0
 36 35  1  0
 36 31  2  0
 37 38  1  0
 38 39  1  0
 39 40  2  0
 41 40  1  0
 41 45  1  0
 42 41  2  0
 43 38  2  0
 43 42  1  0
 44 43  1  0
 46 47  1  0
 47 50  1  0
 47 49  1  0
 48 46  2  0
 51 26  1  0
 51 52  1  0
 53 51  1  0
 54 55  2  0
 56 57  1  0
 56 54  1  0
 58 69  2  0
 59 57  1  0
 59 64  1  0
 60 68  1  0
 60 70  1  0
 61 67  1  0
 61 63  1  0
 62 68  1  0
 63 62  1  0
 64 63  2  0
 65 66  1  0
 65 59  2  0
 66 61  2  0
 67 60  1  0
 68 58  1  0
 70 72  2  0
 71 70  1  0
 73 71  1  0
 74 83  2  0
 74 79  1  0
 75 71  1  0
 75 79  1  0
 76 75  1  0
 77 78  1  0
 77 76  1  0
 78 74  1  0
 79 80  2  0
 80 81  1  0
 82 81  2  0
 83 82  1  0
 84 58  1  0
 84 89  1  0
 84 85  1  0
 85 88  1  1
 85 86  1  0
 87 85  1  0
 89 92  1  0
 90 94  1  0
 90 89  1  0
 91 90  2  0
 94 93  1  0
 96 94  1  0
 96 97  1  0
 96 95  1  0
M  ISO  4  16 100  24 100  56 101  57 101
M  END
>  <TORSDO>  (11) 
F 19

>  <SCORE>  (11) 
-11.969

>  <name>  (11) 
10

>  <ligand_id>  (11) 
10

>  <original_smiles>  (11) 
[H]c1c([H])c(C(N2C([H])([H])C([H])([H])C([H])([H])C2([H])C(=O)C([H])([H])Oc2c([H])c([H])c3c(c2[H])C([H])([H])N(C(=O)C([H])(N([H])C(=O)C([H])(N([H])C([H])([H])[H])C([H])([H])[H])C(C([H])([H])[H])(C([H])([H])[H])C([H])([H])[H])C([H])(C(=O)N([H])C2([H])c4c([H])c([H])c([H])c([H])c4C([H])([H])C([H])([H])C2([H])[H])C3([H])[H])=[N+]([H])[H])c([H])c(N([H])C(=O)N2C([H])([H])C([H])([H])C([H])([H])C([H])(n3nc(-c4c([H])c([H])c(Oc5c([H])c([H])c(F)c([H])c5F)c([H])c4[H])c(C(=O)N([H])[H])c3N([H])[H])C2([H])[H])c1[H]

>  <smiles>  (11) 
[H]c1c([H])c(C(N2C([H])([H])C([H])([H])C([H])([H])C2([H])C(=O)C([H])([H])Oc2c([H])c([H])c3c(c2[H])C([H])([H])N(C(=O)C([H])(N([H])C(=O)C([H])(N([H])C([H])([H])[H])C([H])([H])[H])C(C([H])([H])[H])(C([H])([H])[H])C([H])([H])[H])C([H])(C(=O)N([H])C2([H])c4c([H])c([H])c([H])c([H])c4C([H])([H])C([H])([H])C2([H])[H])C3([H])[H])=[N+]([H])[H])c([H])c(N([H])C(=O)N2C([H])([H])C([H])([H])C([H])([H])C([H])(n3nc(-c4c([H])c([H])c(Oc5c([H])c([H])c(F)c([H])c5F)c([H])c4[H])c(C(=O)N([H])[H])c3N([H])[H])C2([H])[H])c1[H]

$$$$
11:0:0
     RDKit          3D

 99108  0  0  1  0  0  0  0  0999 V2000
  -29.9890  -21.2880   19.7410 C   0  0  0  0  0  0  0  0  0  0  0  0
  -29.4230  -21.5590   18.6440 N   0  0  0  0  0  0  0  0  0  0  0  0
  -29.0760  -20.7220   18.1920 H   0  0  0  0  0  0  0  0  0  0  0  0
  -28.9050  -19.1560   20.5040 C   0  0  0  0  0  3  0  0  0  0  0  0
  -28.8970  -17.7610   20.7170 C   0  0  0  0  0  3  0  0  0  0  0  0
  -31.2750  -17.6890   20.2820 C   0  0  0  0  0  3  0  0  0  0  0  0
  -30.0870  -19.8460   20.1520 C   0  0  0  0  0  0  0  0  0  0  0  0
  -31.2940  -19.0920   20.0560 C   0  0  0  0  0  0  0  0  0  0  0  0
  -30.0750  -16.9930   20.5710 C   0  0  0  0  0  0  0  0  0  0  0  0
  -30.6280  -14.5690   20.0820 C   0  0  0  0  0  0  0  0  0  0  0  0
  -30.2670  -12.4230   18.9100 C   0  0  0  0  0  2  0  0  0  0  0  0
  -29.2500  -12.6430   17.7680 C   0  0  0  0  0  2  0  0  0  0  0  0
  -27.8070  -12.4860   18.2830 C   0  0  0  0  0  2  0  0  0  0  0  0
  -27.5430  -13.2940   19.5840 C   0  0  0  0  0  3  0  0  0  0  0  0
  -28.6690  -13.0600   20.6210 C   0  0  0  0  0  2  0  0  0  0  0  0
  -29.9550  -13.3860   19.9820 N   0  0  0  0  0  0  0  0  0  0  0  0
  -31.7220  -14.7480   19.5420 O   0  0  0  0  0  0  0  0  0  0  0  0
  -29.9580  -15.5640   20.7120 N   0  0  0  0  0  0  0  0  0  0  0  0
  -29.1000  -15.2490   21.1350 H   0  0  0  0  0  0  0  0  0  0  0  0
  -25.1890  -13.8700   20.4490 C   0  0  0  0  0  0  0  0  0  0  0  0
  -24.1480  -13.0840   20.8640 C   0  0  0  0  0  0  0  0  0  0  0  0
  -24.6120  -11.7360   20.7750 C   0  0  0  0  0  0  0  0  0  0  0  0
  -26.2230  -13.0010   20.1370 N   0  0  0  0  0  0  0  0  0  0  0  0
  -25.8810  -11.7110   20.3910 N   0  0  0  0  0  0  0  0  0  0  0  0
  -23.9030  -10.4670   20.9780 C   0  0  0  0  0  0  0  0  0  0  0  0
  -24.3730   -9.4960   21.8910 C   0  0  0  0  0  3  0  0  0  0  0  0
  -23.6630   -8.2910   22.0830 C   0  0  0  0  0  3  0  0  0  0  0  0
  -22.4710   -8.0470   21.3620 C   0  0  0  0  0  0  0  0  0  0  0  0
  -22.0200   -9.0080   20.4390 C   0  0  0  0  0  3  0  0  0  0  0  0
  -22.7280  -10.2040   20.2450 C   0  0  0  0  0  3  0  0  0  0  0  0
  -21.7300   -6.8950   21.4650 O   0  0  0  0  0  0  0  0  0  0  0  0
  -21.6910   -6.1650   22.6260 C   0  0  0  0  0  0  0  0  0  0  0  0
  -21.2020   -6.7100   23.8330 C   0  0  0  0  0  3  0  0  0  0  0  0
  -21.1150   -5.9040   24.9850 C   0  0  0  0  0  3  0  0  0  0  0  0
  -21.5070   -4.5520   24.9320 C   0  0  0  0  0  0  0  0  0  0  0  0
  -21.9890   -4.0070   23.7300 C   0  0  0  0  0  3  0  0  0  0  0  0
  -22.0790   -4.8100   22.5790 C   0  0  0  0  0  0  0  0  0  0  0  0
  -22.5230   -4.2740   21.4180 F   0  0  0  0  0  0  0  0  0  0  0  0
  -21.4160   -3.7750   26.0360 F   0  0  0  0  0  0  0  0  0  0  0  0
  -22.7680  -13.5490   21.2300 C   0  0  0  0  0  0  0  0  0  0  0  0
  -22.0970  -12.8310   22.1240 N   0  0  0  0  0  0  0  0  0  0  0  0
  -22.2950  -14.5830   20.7600 O   0  0  0  0  0  0  0  0  0  0  0  0
  -22.4950  -11.9960   22.5270 H   0  0  0  0  0  0  0  0  0  0  0  0
  -21.1750  -13.1220   22.4120 H   0  0  0  0  0  0  0  0  0  0  0  0
  -25.3370  -15.2460   20.2930 N   0  0  0  0  0  0  0  0  0  0  0  0
  -24.5740  -15.8910   20.4690 H   0  0  0  0  0  0  0  0  0  0  0  0
  -26.1580  -15.6990   19.9140 H   0  0  0  0  0  0  0  0  0  0  0  0
  -32.7760  -20.2810   18.2630 C   0  0  0  0  0  2  0  0  0  0  0  0
  -33.5880  -19.0990   18.7310 C   0  0  0  0  0  2  0  0  0  0  0  0
  -32.5900  -19.7510   19.6650 C   0  0  0  0  0  3  0  0  0  0  0  0
  -30.6120  -22.4110   20.6140 C   0  0  0  0  0  2  0  0  0  0  0  0
  -30.6730  -24.6150   21.8310 C   0  0  0  0  0  1  0  0  0  0  0  0
  -28.5150  -23.4690   21.6510 C   0  0  0  0  0  1  0  0  0  0  0  0
  -29.8160  -23.7650   20.8620 C   0  0  2  0  0  0  0  0  0  0  0  0
  -29.6680  -24.6380   19.5380 C   0  0  0  0  0  2  0  0  0  0  0  0
  -27.1830  -24.4190   19.0980 C   0  0  0  0  0  1  0  0  0  0  0  0
  -28.5950  -25.9430   17.6790 C   0  0  0  0  0  1  0  0  0  0  0  0
  -28.3650  -25.4250   19.1200 C   0  0  2  0  0  0  0  0  0  0  0  0
  -28.2010  -26.6330   19.9410 O   0  0  0  0  0  0  0  0  0  0  0  0
  -24.5080  -31.8540   23.2040 C   0  0  0  0  0  0  0  0  0  0  0  0
  -27.0490  -27.4290   19.9310 C   0  0  0  0  0  0  0  0  0  0  0  0
  -23.2700  -30.5130   21.5450 C   0  0  0  0  0  3  0  0  0  0  0  0
  -24.6850  -29.0230   20.0500 C   0  0  0  0  0  0  0  0  0  0  0  0
  -25.8130  -30.8240   21.3470 C   0  0  0  0  0  2  0  0  0  0  0  0
  -25.8660  -29.4800   20.6450 C   0  0  0  0  0  0  0  0  0  0  0  0
  -27.0460  -28.6900   20.5920 C   0  0  0  0  0  3  0  0  0  0  0  0
  -25.8370  -27.0360   19.3140 C   0  0  0  0  0  3  0  0  0  0  0  0
  -24.6670  -27.7950   19.3880 C   0  0  0  0  0  3  0  0  0  0  0  0
  -23.4580  -29.8970   20.1400 C   0  0  0  0  0  2  0  0  0  0  0  0
  -24.5490  -31.0780   22.0840 N   0  0  0  0  0  0  0  0  0  0  0  0
  -23.4330  -32.1220   23.7600 O   0  0  0  0  0  0  0  0  0  0  0  0
  -22.6250  -29.4590   22.4760 C   0  0  0  0  0  0  0  0  0  0  0  0
  -21.3000  -29.2810   22.3540 N   0  0  0  0  0  0  0  0  0  0  0  0
  -23.3130  -28.8110   23.2700 O   0  0  0  0  0  0  0  0  0  0  0  0
  -20.8070  -29.8550   21.6840 H   0  0  0  0  0  0  0  0  0  0  0  0
  -17.9200  -28.1020   22.8690 C   0  0  0  0  0  0  0  0  0  0  0  0
  -20.4850  -28.3290   23.1070 C   0  0  0  0  0  3  0  0  0  0  0  0
  -20.5650  -26.9150   22.4870 C   0  0  0  0  0  2  0  0  0  0  0  0
  -19.4440  -26.6320   21.4830 C   0  0  0  0  0  2  0  0  0  0  0  0
  -18.0750  -26.7720   22.1520 C   0  0  0  0  0  2  0  0  0  0  0  0
  -19.0530  -28.8410   23.3020 C   0  0  0  0  0  0  0  0  0  0  0  0
  -18.8560  -30.0900   23.9320 C   0  0  0  0  0  3  0  0  0  0  0  0
  -17.5590  -30.5970   24.1350 C   0  0  0  0  0  3  0  0  0  0  0  0
  -16.4410  -29.8540   23.7170 C   0  0  0  0  0  3  0  0  0  0  0  0
  -16.6230  -28.6090   23.0900 C   0  0  0  0  0  3  0  0  0  0  0  0
  -25.8060  -32.4590   23.8190 C   0  0  0  0  0  3  0  0  0  0  0  0
  -25.5210  -33.8620   24.1500 N   0  0  0  0  0  0  0  0  0  0  0  0
  -25.8730  -34.9090   23.3930 C   0  0  0  0  0  0  0  0  0  0  0  0
  -26.5430  -34.7960   22.3630 O   0  0  0  0  0  0  0  0  0  0  0  0
  -24.9290  -34.0260   24.9500 H   0  0  0  0  0  0  0  0  0  0  0  0
  -24.1890  -36.7420   23.0220 C   0  0  0  0  0  1  0  0  0  0  0  0
  -25.4060  -36.3040   23.8520 C   0  0  0  0  0  3  0  0  0  0  0  0
  -27.5370  -37.1400   24.7390 C   0  0  0  0  0  1  0  0  0  0  0  0
  -26.4630  -37.3360   23.7690 N   0  0  0  0  0  0  0  0  0  0  0  0
  -26.0730  -38.2630   23.9110 H   0  0  0  0  0  0  0  0  0  0  0  0
  -26.3120  -31.6790   25.0930 C   0  0  1  0  0  0  0  0  0  0  0  0
  -25.2170  -31.4590   26.1620 C   0  0  0  0  0  1  0  0  0  0  0  0
  -26.8770  -30.2920   24.7070 C   0  0  0  0  0  1  0  0  0  0  0  0
  -27.4720  -32.4610   25.7530 C   0  0  0  0  0  1  0  0  0  0  0  0
  1  7  1  0
  1 51  1  0
  2  1  2  0
  3  2  1  0
  4  5  1  0
  6  9  1  0
  7  4  2  0
  8  7  1  0
  8  6  2  0
  9 18  1  0
  9  5  2  0
 10 18  1  0
 11 16  1  0
 12 13  1  0
 12 11  1  0
 14 13  1  0
 14 23  1  0
 14 15  1  0
 16 10  1  0
 16 15  1  0
 17 10  2  0
 18 19  1  0
 20 21  2  0
 21 40  1  0
 22 21  1  0
 22 25  1  0
 23 24  1  0
 23 20  1  0
 24 22  2  0
 25 26  1  0
 26 27  2  0
 28 31  1  0
 28 27  1  0
 29 28  2  0
 30 29  1  0
 30 25  2  0
 31 32  1  0
 32 33  1  0
 33 34  2  0
 35 34  1  0
 35 39  1  0
 36 35  2  0
 37 32  2  0
 37 36  1  0
 38 37  1  0
 40 41  1  0
 41 44  1  0
 41 43  1  0
 42 40  2  0
 45 20  1  0
 45 46  1  0
 47 45  1  0
 48 49  1  0
 48 50  1  0
 49 50  1  0
 50  8  1  0
 51 54  1  0
 54 53  1  1
 54 52  1  0
 55 54  1  0
 58 56  1  6
 57 58  1  0
 58 55  1  0
 58 59  1  0
 60 71  2  0
 61 59  1  0
 61 66  1  0
 62 70  1  0
 62 72  1  0
 63 69  1  0
 63 65  1  0
 64 70  1  0
 65 64  1  0
 66 65  2  0
 67 68  1  0
 67 61  2  0
 68 63  2  0
 69 62  1  0
 70 60  1  0
 72 74  2  0
 73 72  1  0
 75 73  1  0
 76 85  2  0
 76 81  1  0
 77 73  1  0
 77 81  1  0
 78 77  1  0
 79 80  1  0
 79 78  1  0
 80 76  1  0
 81 82  2  0
 82 83  1  0
 84 83  2  0
 85 84  1  0
 86 60  1  0
 86 87  1  0
 86 96  1  0
 87 90  1  0
 88 92  1  0
 88 87  1  0
 89 88  2  0
 92 91  1  0
 94 92  1  0
 94 95  1  0
 94 93  1  0
 96 99  1  1
 96 97  1  0
 98 96  1  0
M  ISO  4  10 100  18 100  58 101  59 101
M  END
>  <TORSDO>  (12) 
F 22

>  <SCORE>  (12) 
-13.205

>  <name>  (12) 
11

>  <ligand_id>  (12) 
11

>  <original_smiles>  (12) 
[H]N=C(c1c([H])c([H])c(N([H])C(=O)N2C([H])([H])C([H])([H])C([H])([H])C([H])(n3nc(-c4c([H])c([H])c(Oc5c([H])c([H])c(F)c([H])c5F)c([H])c4[H])c(C(=O)N([H])[H])c3N([H])[H])C2([H])[H])c([H])c1C1([H])C([H])([H])C1([H])[H])C([H])([H])C(C([H])([H])[H])(C([H])([H])[H])C([H])([H])C(Oc1c([H])c([H])c2c(c1[H])C([H])([H])N(C(=O)C([H])(N([H])C(=O)C([H])(N([H])C([H])([H])[H])C([H])([H])[H])C(C([H])([H])[H])(C([H])([H])[H])C([H])([H])[H])C([H])(C(=O)N([H])C1([H])c3c([H])c([H])c([H])c([H])c3C([H])([H])C([H])([H])C1([H])[H])C2([H])[H])(C([H])([H])[H])C([H])([H])[H]

>  <smiles>  (12) 
[H]N=C(c1c([H])c([H])c(N([H])C(=O)N2C([H])([H])C([H])([H])C([H])([H])C([H])(n3nc(-c4c([H])c([H])c(Oc5c([H])c([H])c(F)c([H])c5F)c([H])c4[H])c(C(=O)N([H])[H])c3N([H])[H])C2([H])[H])c([H])c1C1([H])C([H])([H])C1([H])[H])C([H])([H])C(C([H])([H])[H])(C([H])([H])[H])C([H])([H])C(Oc1c([H])c([H])c2c(c1[H])C([H])([H])N(C(=O)C([H])(N([H])C(=O)C([H])(N([H])C([H])([H])[H])C([H])([H])[H])C(C([H])([H])[H])(C([H])([H])[H])C([H])([H])[H])C([H])(C(=O)N([H])C1([H])c3c([H])c([H])c([H])c([H])c3C([H])([H])C([H])([H])C1([H])[H])C2([H])[H])(C([H])([H])[H])C([H])([H])[H]

$$$$
12:0:0
     RDKit          3D

 91 99  0  0  1  0  0  0  0  0999 V2000
  -29.8730  -21.7510   20.9940 C   0  0  0  0  0  0  0  0  0  0  0  0
  -29.4190  -20.4740   21.0290 N   0  0  0  0  0  0  0  0  0  0  0  0
  -31.0630  -22.0670   20.9820 O   0  0  0  0  0  0  0  0  0  0  0  0
  -28.4120  -20.3930   21.0340 H   0  0  0  0  0  0  0  0  0  0  0  0
  -29.5250  -18.0270   21.0900 C   0  0  0  0  0  3  0  0  0  0  0  0
  -31.7630  -17.3790   20.9090 C   0  0  0  0  0  3  0  0  0  0  0  0
  -30.4630  -16.9420   20.9860 C   0  0  0  0  0  0  0  0  0  0  0  0
  -30.0990  -19.2870   21.0280 C   0  0  0  0  0  0  0  0  0  0  0  0
  -31.8470  -19.1200   20.9300 S   0  0  0  0  0  0  0  0  0  0  0  0
  -30.6800  -14.5000   20.4240 C   0  0  0  0  0  0  0  0  0  0  0  0
  -30.3100  -12.3340   19.2870 C   0  0  0  0  0  2  0  0  0  0  0  0
  -29.3680  -12.5490   18.0850 C   0  0  0  0  0  2  0  0  0  0  0  0
  -27.8990  -12.4040   18.5270 C   0  0  0  0  0  2  0  0  0  0  0  0
  -27.5760  -13.2470   19.7900 C   0  0  0  0  0  3  0  0  0  0  0  0
  -28.6470  -13.0630   20.8940 C   0  0  0  0  0  2  0  0  0  0  0  0
  -29.9650  -13.3440   20.3040 N   0  0  0  0  0  0  0  0  0  0  0  0
  -31.8060  -14.6150   19.9360 O   0  0  0  0  0  0  0  0  0  0  0  0
  -30.0410  -15.5620   20.9720 N   0  0  0  0  0  0  0  0  0  0  0  0
  -29.0910  -15.3800   21.2580 H   0  0  0  0  0  0  0  0  0  0  0  0
  -25.1920  -13.8460   20.5470 C   0  0  0  0  0  0  0  0  0  0  0  0
  -24.1240  -13.0720   20.9130 C   0  0  0  0  0  0  0  0  0  0  0  0
  -24.5770  -11.7190   20.8600 C   0  0  0  0  0  0  0  0  0  0  0  0
  -26.2300  -12.9650   20.2870 N   0  0  0  0  0  0  0  0  0  0  0  0
  -25.8640  -11.6800   20.5360 N   0  0  0  0  0  0  0  0  0  0  0  0
  -23.8450  -10.4570   21.0450 C   0  0  0  0  0  0  0  0  0  0  0  0
  -24.2730   -9.4870   21.9780 C   0  0  0  0  0  3  0  0  0  0  0  0
  -23.5440   -8.2910   22.1530 C   0  0  0  0  0  3  0  0  0  0  0  0
  -22.3740   -8.0580   21.3960 C   0  0  0  0  0  0  0  0  0  0  0  0
  -21.9590   -9.0180   20.4560 C   0  0  0  0  0  3  0  0  0  0  0  0
  -22.6870  -10.2070   20.2800 C   0  0  0  0  0  3  0  0  0  0  0  0
  -21.6180   -6.9140   21.4760 O   0  0  0  0  0  0  0  0  0  0  0  0
  -21.5510   -6.1770   22.6300 C   0  0  0  0  0  0  0  0  0  0  0  0
  -21.0970   -6.7360   23.8440 C   0  0  0  0  0  3  0  0  0  0  0  0
  -20.9780   -5.9260   24.9900 C   0  0  0  0  0  3  0  0  0  0  0  0
  -21.3040   -4.5570   24.9220 C   0  0  0  0  0  0  0  0  0  0  0  0
  -21.7520   -3.9970   23.7120 C   0  0  0  0  0  3  0  0  0  0  0  0
  -21.8730   -4.8060   22.5680 C   0  0  0  0  0  0  0  0  0  0  0  0
  -22.2870   -4.2580   21.3990 F   0  0  0  0  0  0  0  0  0  0  0  0
  -21.1810   -3.7770   26.0190 F   0  0  0  0  0  0  0  0  0  0  0  0
  -22.7340  -13.5580   21.2090 C   0  0  0  0  0  0  0  0  0  0  0  0
  -22.0040  -12.8590   22.0700 N   0  0  0  0  0  0  0  0  0  0  0  0
  -22.3010  -14.5980   20.7110 O   0  0  0  0  0  0  0  0  0  0  0  0
  -22.3630  -12.0180   22.4990 H   0  0  0  0  0  0  0  0  0  0  0  0
  -21.0750  -13.1740   22.3070 H   0  0  0  0  0  0  0  0  0  0  0  0
  -25.3590  -15.2190   20.3980 N   0  0  0  0  0  0  0  0  0  0  0  0
  -24.5900  -15.8690   20.5220 H   0  0  0  0  0  0  0  0  0  0  0  0
  -26.2190  -15.6710   20.1090 H   0  0  0  0  0  0  0  0  0  0  0  0
  -28.7930  -22.8500   20.9760 C   0  0  0  0  0  2  0  0  0  0  0  0
  -29.2720  -24.2940   20.6260 C   0  0  0  0  0  2  0  0  0  0  0  0
  -28.0750  -25.2140   20.3030 C   0  0  0  0  0  2  0  0  0  0  0  0
  -28.3430  -26.6340   20.2270 O   0  0  0  0  0  0  0  0  0  0  0  0
  -24.5810  -31.8990   23.2420 C   0  0  0  0  0  0  0  0  0  0  0  0
  -27.2050  -27.4250   20.1710 C   0  0  0  0  0  0  0  0  0  0  0  0
  -23.3790  -30.5070   21.5930 C   0  0  0  0  0  3  0  0  0  0  0  0
  -24.8300  -28.9750   20.1680 C   0  0  0  0  0  0  0  0  0  0  0  0
  -25.9140  -30.8440   21.4160 C   0  0  0  0  0  2  0  0  0  0  0  0
  -25.9930  -29.4780   20.7650 C   0  0  0  0  0  0  0  0  0  0  0  0
  -27.1860  -28.7130   20.7590 C   0  0  0  0  0  3  0  0  0  0  0  0
  -26.0200  -26.9560   19.5530 C   0  0  0  0  0  3  0  0  0  0  0  0
  -24.8410  -27.7150   19.5520 C   0  0  0  0  0  3  0  0  0  0  0  0
  -23.5930  -29.8370   20.2110 C   0  0  0  0  0  2  0  0  0  0  0  0
  -24.6430  -31.0980   22.1400 N   0  0  0  0  0  0  0  0  0  0  0  0
  -23.4970  -32.1760   23.7750 O   0  0  0  0  0  0  0  0  0  0  0  0
  -22.7170  -29.4830   22.5480 C   0  0  0  0  0  0  0  0  0  0  0  0
  -21.3900  -29.3110   22.4200 N   0  0  0  0  0  0  0  0  0  0  0  0
  -23.3950  -28.8470   23.3590 O   0  0  0  0  0  0  0  0  0  0  0  0
  -20.9040  -29.8750   21.7370 H   0  0  0  0  0  0  0  0  0  0  0  0
  -18.0030  -28.1620   22.9350 C   0  0  0  0  0  0  0  0  0  0  0  0
  -20.5660  -28.3780   23.1890 C   0  0  0  0  0  3  0  0  0  0  0  0
  -20.6420  -26.9510   22.5990 C   0  0  0  0  0  2  0  0  0  0  0  0
  -19.5290  -26.6550   21.5900 C   0  0  0  0  0  2  0  0  0  0  0  0
  -18.1540  -26.8170   22.2450 C   0  0  0  0  0  2  0  0  0  0  0  0
  -19.1370  -28.9010   23.3650 C   0  0  0  0  0  0  0  0  0  0  0  0
  -18.9410  -30.1620   23.9710 C   0  0  0  0  0  3  0  0  0  0  0  0
  -17.6460  -30.6840   24.1460 C   0  0  0  0  0  3  0  0  0  0  0  0
  -16.5270  -29.9400   23.7340 C   0  0  0  0  0  3  0  0  0  0  0  0
  -16.7060  -28.6800   23.1340 C   0  0  0  0  0  3  0  0  0  0  0  0
  -25.8650  -32.5250   23.8680 C   0  0  0  0  0  3  0  0  0  0  0  0
  -26.3780  -31.7490   25.1420 C   0  0  1  0  0  0  0  0  0  0  0  0
  -25.2790  -31.5070   26.2040 C   0  0  0  0  0  1  0  0  0  0  0  0
  -26.9590  -30.3720   24.7460 C   0  0  0  0  0  1  0  0  0  0  0  0
  -27.5290  -32.5390   25.8090 C   0  0  0  0  0  1  0  0  0  0  0  0
  -25.5600  -33.9230   24.1990 N   0  0  0  0  0  0  0  0  0  0  0  0
  -25.8880  -34.9750   23.4360 C   0  0  0  0  0  0  0  0  0  0  0  0
  -26.5500  -34.8690   22.3990 O   0  0  0  0  0  0  0  0  0  0  0  0
  -24.9680  -34.0810   25.0010 H   0  0  0  0  0  0  0  0  0  0  0  0
  -24.1550  -36.7620   23.0940 C   0  0  0  0  0  1  0  0  0  0  0  0
  -25.4040  -36.3630   23.8950 C   0  0  0  0  0  3  0  0  0  0  0  0
  -27.5460  -37.2500   24.7020 C   0  0  0  0  0  1  0  0  0  0  0  0
  -26.4350  -37.4160   23.7690 N   0  0  0  0  0  0  0  0  0  0  0  0
  -26.0310  -38.3360   23.9160 H   0  0  0  0  0  0  0  0  0  0  0  0
  1  2  1  0
  2  4  1  0
  3  1  2  0
  6  9  1  0
  6  7  2  0
  7  5  1  0
  8  2  1  0
  8  5  2  0
  9  8  1  0
 10 18  1  0
 11 16  1  0
 12 13  1  0
 12 11  1  0
 14 13  1  0
 14 23  1  0
 14 15  1  0
 16 10  1  0
 16 15  1  0
 17 10  2  0
 18  7  1  0
 18 19  1  0
 20 21  2  0
 21 40  1  0
 22 21  1  0
 22 25  1  0
 23 24  1  0
 23 20  1  0
 24 22  2  0
 25 26  1  0
 26 27  2  0
 28 31  1  0
 28 27  1  0
 29 28  2  0
 30 29  1  0
 30 25  2  0
 31 32  1  0
 32 33  1  0
 33 34  2  0
 35 34  1  0
 35 39  1  0
 36 35  2  0
 37 32  2  0
 37 36  1  0
 38 37  1  0
 40 41  1  0
 41 44  1  0
 41 43  1  0
 42 40  2  0
 45 46  1  0
 45 20  1  0
 47 45  1  0
 48  1  1  0
 49 48  1  0
 50 49  1  0
 51 50  1  0
 52 63  2  0
 53 51  1  0
 53 58  1  0
 54 62  1  0
 54 64  1  0
 55 61  1  0
 55 57  1  0
 56 62  1  0
 57 56  1  0
 58 57  2  0
 59 53  2  0
 60 59  1  0
 60 55  2  0
 61 54  1  0
 62 52  1  0
 64 66  2  0
 65 64  1  0
 67 65  1  0
 68 77  2  0
 68 73  1  0
 69 65  1  0
 69 73  1  0
 70 69  1  0
 71 72  1  0
 71 70  1  0
 72 68  1  0
 73 74  2  0
 74 75  1  0
 76 75  2  0
 77 76  1  0
 78 52  1  0
 78 83  1  0
 78 79  1  0
 79 82  1  1
 79 80  1  0
 81 79  1  0
 83 86  1  0
 84 88  1  0
 84 83  1  0
 85 84  2  0
 88 87  1  0
 90 88  1  0
 90 91  1  0
 90 89  1  0
M  ISO  4  10 100  18 100  50 101  51 101
M  END
>  <TORSDO>  (13) 
F 20

>  <SCORE>  (13) 
-13.955

>  <name>  (13) 
12

>  <ligand_id>  (13) 
12

>  <original_smiles>  (13) 
[H]c1sc(N([H])C(=O)C([H])([H])C([H])([H])C([H])([H])Oc2c([H])c([H])c3c(c2[H])C([H])([H])N(C(=O)C([H])(N([H])C(=O)C([H])(N([H])C([H])([H])[H])C([H])([H])[H])C(C([H])([H])[H])(C([H])([H])[H])C([H])([H])[H])C([H])(C(=O)N([H])C2([H])c4c([H])c([H])c([H])c([H])c4C([H])([H])C([H])([H])C2([H])[H])C3([H])[H])c([H])c1N([H])C(=O)N1C([H])([H])C([H])([H])C([H])([H])C([H])(n2nc(-c3c([H])c([H])c(Oc4c([H])c([H])c(F)c([H])c4F)c([H])c3[H])c(C(=O)N([H])[H])c2N([H])[H])C1([H])[H]

>  <smiles>  (13) 
[H]c1sc(N([H])C(=O)C([H])([H])C([H])([H])C([H])([H])Oc2c([H])c([H])c3c(c2[H])C([H])([H])N(C(=O)C([H])(N([H])C(=O)C([H])(N([H])C([H])([H])[H])C([H])([H])[H])C(C([H])([H])[H])(C([H])([H])[H])C([H])([H])[H])C([H])(C(=O)N([H])C2([H])c4c([H])c([H])c([H])c([H])c4C([H])([H])C([H])([H])C2([H])[H])C3([H])[H])c([H])c1N([H])C(=O)N1C([H])([H])C([H])([H])C([H])([H])C([H])(n2nc(-c3c([H])c([H])c(Oc4c([H])c([H])c(F)c([H])c4F)c([H])c3[H])c(C(=O)N([H])[H])c2N([H])[H])C1([H])[H]

$$$$
13:0:0
     RDKit          3D

 94103  0  0  1  0  0  0  0  0999 V2000
  -30.9520  -21.7490   18.7970 C   0  0  0  0  0  0  0  0  0  0  0  0
  -30.3840  -22.5600   17.6380 C   0  0  0  0  0  2  0  0  0  0  0  0
  -28.9100  -22.6630   18.0460 C   0  0  0  0  0  2  0  0  0  0  0  0
  -28.9810  -22.6830   19.5830 C   0  0  0  0  0  3  0  0  0  0  0  0
  -30.0840  -21.7230   19.8240 N   0  0  0  0  0  0  0  0  0  0  0  0
  -32.0210  -21.1380   18.7240 O   0  0  0  0  0  0  0  0  0  0  0  0
  -29.2110  -24.1380   20.1460 C   0  0  0  0  0  0  0  0  0  0  0  0
  -30.2370  -24.4850   20.7410 O   0  0  0  0  0  0  0  0  0  0  0  0
  -28.0630  -25.1460   19.8880 C   0  0  0  0  0  2  0  0  0  0  0  0
  -28.3210  -26.5450   20.1900 O   0  0  0  0  0  0  0  0  0  0  0  0
  -24.6090  -31.8660   23.2310 C   0  0  0  0  0  0  0  0  0  0  0  0
  -27.1900  -27.3580   20.1440 C   0  0  0  0  0  0  0  0  0  0  0  0
  -23.3860  -30.4740   21.6000 C   0  0  0  0  0  3  0  0  0  0  0  0
  -24.8190  -28.9350   20.1600 C   0  0  0  0  0  0  0  0  0  0  0  0
  -25.9210  -30.8030   21.3890 C   0  0  0  0  0  2  0  0  0  0  0  0
  -25.9910  -29.4300   20.7460 C   0  0  0  0  0  0  0  0  0  0  0  0
  -27.1800  -28.6510   20.7320 C   0  0  0  0  0  3  0  0  0  0  0  0
  -25.9880  -26.9070   19.5350 C   0  0  0  0  0  3  0  0  0  0  0  0
  -24.8160  -27.6760   19.5480 C   0  0  0  0  0  3  0  0  0  0  0  0
  -23.5810  -29.8030   20.2160 C   0  0  0  0  0  2  0  0  0  0  0  0
  -24.6590  -31.0600   22.1320 N   0  0  0  0  0  0  0  0  0  0  0  0
  -23.5300  -32.1440   23.7750 O   0  0  0  0  0  0  0  0  0  0  0  0
  -22.7330  -29.4540   22.5610 C   0  0  0  0  0  0  0  0  0  0  0  0
  -21.4070  -29.2720   22.4360 N   0  0  0  0  0  0  0  0  0  0  0  0
  -23.4160  -28.8290   23.3770 O   0  0  0  0  0  0  0  0  0  0  0  0
  -20.9170  -29.8250   21.7490 H   0  0  0  0  0  0  0  0  0  0  0  0
  -18.0310  -28.0770   22.9380 C   0  0  0  0  0  0  0  0  0  0  0  0
  -20.5900  -28.3390   23.2120 C   0  0  0  0  0  3  0  0  0  0  0  0
  -20.6950  -26.9050   22.6460 C   0  0  0  0  0  2  0  0  0  0  0  0
  -19.5940  -26.5740   21.6350 C   0  0  0  0  0  2  0  0  0  0  0  0
  -18.2100  -26.7230   22.2740 C   0  0  0  0  0  2  0  0  0  0  0  0
  -19.1500  -28.8430   23.3650 C   0  0  0  0  0  0  0  0  0  0  0  0
  -18.9300  -30.1110   23.9440 C   0  0  0  0  0  3  0  0  0  0  0  0
  -17.6260  -30.6130   24.1040 C   0  0  0  0  0  3  0  0  0  0  0  0
  -16.5220  -29.8460   23.6920 C   0  0  0  0  0  3  0  0  0  0  0  0
  -16.7250  -28.5810   23.1150 C   0  0  0  0  0  3  0  0  0  0  0  0
  -25.9010  -32.4910   23.8420 C   0  0  0  0  0  3  0  0  0  0  0  0
  -26.4290  -31.7110   25.1070 C   0  0  1  0  0  0  0  0  0  0  0  0
  -25.3450  -31.4710   26.1840 C   0  0  0  0  0  1  0  0  0  0  0  0
  -27.0050  -30.3350   24.6970 C   0  0  0  0  0  1  0  0  0  0  0  0
  -27.5870  -32.5000   25.7600 C   0  0  0  0  0  1  0  0  0  0  0  0
  -25.5960  -33.8880   24.1820 N   0  0  0  0  0  0  0  0  0  0  0  0
  -25.9180  -34.9410   23.4230 C   0  0  0  0  0  0  0  0  0  0  0  0
  -26.5760  -34.8460   22.3820 O   0  0  0  0  0  0  0  0  0  0  0  0
  -25.0120  -34.0370   24.9910 H   0  0  0  0  0  0  0  0  0  0  0  0
  -24.1800  -36.7270   23.0970 C   0  0  0  0  0  1  0  0  0  0  0  0
  -25.4340  -36.3270   23.8910 C   0  0  0  0  0  3  0  0  0  0  0  0
  -27.5820  -37.2070   24.6920 C   0  0  0  0  0  1  0  0  0  0  0  0
  -26.4630  -37.3820   23.7680 N   0  0  0  0  0  0  0  0  0  0  0  0
  -26.0580  -38.3000   23.9310 H   0  0  0  0  0  0  0  0  0  0  0  0
  -30.0410  -20.6870   20.8870 C   0  0  0  0  0  2  0  0  0  0  0  0
  -30.1600  -18.0780   21.1790 C   0  0  0  0  0  3  0  0  0  0  0  0
  -29.3930  -17.0770   19.2030 C   0  0  0  0  0  3  0  0  0  0  0  0
  -29.8870  -16.8570   20.4630 C   0  0  0  0  0  0  0  0  0  0  0  0
  -29.8860  -19.2240   20.4470 C   0  0  0  0  0  0  0  0  0  0  0  0
  -29.2350  -18.7830   18.8780 S   0  0  0  0  0  0  0  0  0  0  0  0
  -30.6450  -14.4990   20.4480 C   0  0  0  0  0  0  0  0  0  0  0  0
  -30.3360  -12.3200   19.3290 C   0  0  0  0  0  2  0  0  0  0  0  0
  -29.3920  -12.5150   18.1220 C   0  0  0  0  0  2  0  0  0  0  0  0
  -27.9160  -12.3930   18.5520 C   0  0  0  0  0  2  0  0  0  0  0  0
  -27.5870  -13.2300   19.8170 C   0  0  0  0  0  3  0  0  0  0  0  0
  -28.6470  -13.0140   20.9240 C   0  0  0  0  0  2  0  0  0  0  0  0
  -29.9720  -13.3140   20.3560 N   0  0  0  0  0  0  0  0  0  0  0  0
  -31.7630  -14.6650   19.9540 O   0  0  0  0  0  0  0  0  0  0  0  0
  -29.9820  -15.5340   21.0170 N   0  0  0  0  0  0  0  0  0  0  0  0
  -29.2040  -15.2580   21.5970 H   0  0  0  0  0  0  0  0  0  0  0  0
  -25.1880  -13.8360   20.5280 C   0  0  0  0  0  0  0  0  0  0  0  0
  -24.1200  -13.0650   20.9000 C   0  0  0  0  0  0  0  0  0  0  0  0
  -24.5790  -11.7120   20.8740 C   0  0  0  0  0  0  0  0  0  0  0  0
  -26.2330  -12.9550   20.2970 N   0  0  0  0  0  0  0  0  0  0  0  0
  -25.8700  -11.6730   20.5630 N   0  0  0  0  0  0  0  0  0  0  0  0
  -23.8510  -10.4510   21.0670 C   0  0  0  0  0  0  0  0  0  0  0  0
  -24.2950   -9.4750   21.9860 C   0  0  0  0  0  3  0  0  0  0  0  0
  -23.5670   -8.2800   22.1690 C   0  0  0  0  0  3  0  0  0  0  0  0
  -22.3800   -8.0520   21.4350 C   0  0  0  0  0  0  0  0  0  0  0  0
  -21.9530   -9.0160   20.5040 C   0  0  0  0  0  3  0  0  0  0  0  0
  -22.6820  -10.2040   20.3180 C   0  0  0  0  0  3  0  0  0  0  0  0
  -21.6240   -6.9080   21.5300 O   0  0  0  0  0  0  0  0  0  0  0  0
  -21.6100   -6.1460   22.6700 C   0  0  0  0  0  0  0  0  0  0  0  0
  -21.2440   -6.6850   23.9230 C   0  0  0  0  0  3  0  0  0  0  0  0
  -21.1740   -5.8510   25.0570 C   0  0  0  0  0  3  0  0  0  0  0  0
  -21.4620   -4.4780   24.9390 C   0  0  0  0  0  0  0  0  0  0  0  0
  -21.8210   -3.9370   23.6920 C   0  0  0  0  0  3  0  0  0  0  0  0
  -21.8910   -4.7690   22.5610 C   0  0  0  0  0  0  0  0  0  0  0  0
  -22.2160   -4.2390   21.3560 F   0  0  0  0  0  0  0  0  0  0  0  0
  -21.3880   -3.6740   26.0260 F   0  0  0  0  0  0  0  0  0  0  0  0
  -22.7220  -13.5430   21.1700 C   0  0  0  0  0  0  0  0  0  0  0  0
  -21.9910  -12.8510   22.0380 N   0  0  0  0  0  0  0  0  0  0  0  0
  -22.2850  -14.5670   20.6460 O   0  0  0  0  0  0  0  0  0  0  0  0
  -22.3530  -12.0220   22.4860 H   0  0  0  0  0  0  0  0  0  0  0  0
  -21.0530  -13.1570   22.2540 H   0  0  0  0  0  0  0  0  0  0  0  0
  -25.3530  -15.2060   20.3500 N   0  0  0  0  0  0  0  0  0  0  0  0
  -24.6050  -15.8660   20.5370 H   0  0  0  0  0  0  0  0  0  0  0  0
  -26.1870  -15.6490   19.9870 H   0  0  0  0  0  0  0  0  0  0  0  0
  1  5  1  0
  2  3  1  0
  2  1  1  0
  3  4  1  0
  4  5  1  0
  4  7  1  0
  5 51  1  0
  6  1  2  0
  7  8  2  0
  9  7  1  0
  9 10  1  0
 11 22  2  0
 12 10  1  0
 12 17  1  0
 13 21  1  0
 13 23  1  0
 14 20  1  0
 14 16  1  0
 15 21  1  0
 16 15  1  0
 17 16  2  0
 18 19  1  0
 18 12  2  0
 19 14  2  0
 20 13  1  0
 21 11  1  0
 23 25  2  0
 24 23  1  0
 26 24  1  0
 27 36  2  0
 27 32  1  0
 28 24  1  0
 28 32  1  0
 29 28  1  0
 30 31  1  0
 30 29  1  0
 31 27  1  0
 32 33  2  0
 33 34  1  0
 35 34  2  0
 36 35  1  0
 37 11  1  0
 37 42  1  0
 37 38  1  0
 38 41  1  1
 38 39  1  0
 40 38  1  0
 42 45  1  0
 43 47  1  0
 43 42  1  0
 44 43  2  0
 47 46  1  0
 49 47  1  0
 49 50  1  0
 49 48  1  0
 53 54  2  0
 54 65  1  0
 54 52  1  0
 55 51  1  0
 55 52  2  0
 56 53  1  0
 56 55  1  0
 57 65  1  0
 58 63  1  0
 59 60  1  0
 59 58  1  0
 61 60  1  0
 61 70  1  0
 61 62  1  0
 63 57  1  0
 63 62  1  0
 64 57  2  0
 65 66  1  0
 67 68  2  0
 68 87  1  0
 69 68  1  0
 69 72  1  0
 70 67  1  0
 70 71  1  0
 71 69  2  0
 72 73  1  0
 73 74  2  0
 75 78  1  0
 75 74  1  0
 76 75  2  0
 77 76  1  0
 77 72  2  0
 78 79  1  0
 79 80  1  0
 80 81  2  0
 82 81  1  0
 82 86  1  0
 83 82  2  0
 84 79  2  0
 84 83  1  0
 85 84  1  0
 87 88  1  0
 88 91  1  0
 88 90  1  0
 89 87  2  0
 92 67  1  0
 92 93  1  0
 94 92  1  0
M  ISO  4   9 101  10 101  57 100  65 100
M  END
>  <TORSDO>  (14) 
F 20

>  <SCORE>  (14) 
-14.001

>  <name>  (14) 
13

>  <ligand_id>  (14) 
13

>  <original_smiles>  (14) 
[H]c1sc(C([H])([H])N2C(=O)C([H])([H])C([H])([H])C2([H])C(=O)C([H])([H])Oc2c([H])c([H])c3c(c2[H])C([H])([H])N(C(=O)C([H])(N([H])C(=O)C([H])(N([H])C([H])([H])[H])C([H])([H])[H])C(C([H])([H])[H])(C([H])([H])[H])C([H])([H])[H])C([H])(C(=O)N([H])C2([H])c4c([H])c([H])c([H])c([H])c4C([H])([H])C([H])([H])C2([H])[H])C3([H])[H])c([H])c1N([H])C(=O)N1C([H])([H])C([H])([H])C([H])([H])C([H])(n2nc(-c3c([H])c([H])c(Oc4c([H])c([H])c(F)c([H])c4F)c([H])c3[H])c(C(=O)N([H])[H])c2N([H])[H])C1([H])[H]

>  <smiles>  (14) 
[H]c1sc(C([H])([H])N2C(=O)C([H])([H])C([H])([H])C2([H])C(=O)C([H])([H])Oc2c([H])c([H])c3c(c2[H])C([H])([H])N(C(=O)C([H])(N([H])C(=O)C([H])(N([H])C([H])([H])[H])C([H])([H])[H])C(C([H])([H])[H])(C([H])([H])[H])C([H])([H])[H])C([H])(C(=O)N([H])C2([H])c4c([H])c([H])c([H])c([H])c4C([H])([H])C([H])([H])C2([H])[H])C3([H])[H])c([H])c1N([H])C(=O)N1C([H])([H])C([H])([H])C([H])([H])C([H])(n2nc(-c3c([H])c([H])c(Oc4c([H])c([H])c(F)c([H])c4F)c([H])c3[H])c(C(=O)N([H])[H])c2N([H])[H])C1([H])[H]

$$$$
14:0:0
     RDKit          3D

 99107  0  0  1  0  0  0  0  0999 V2000
  -29.1340  -21.2870   20.4100 C   0  0  0  0  0  1  0  0  0  0  0  0
  -27.3580  -22.2160   21.8660 C   0  0  0  0  0  1  0  0  0  0  0  0
  -27.7530  -21.9820   20.3820 C   0  0  1  0  0  0  0  0  0  0  0  0
  -26.4810  -24.1500   19.8410 C   0  0  0  0  0  1  0  0  0  0  0  0
  -27.8940  -23.0790   18.0070 C   0  0  0  0  0  1  0  0  0  0  0  0
  -27.7860  -23.3550   19.5430 C   0  0  2  0  0  0  0  0  0  0  0  0
  -29.0220  -24.2660   19.9060 C   0  0  0  0  0  2  0  0  0  0  0  0
  -30.6960  -25.9160   18.8680 C   0  0  0  0  0  1  0  0  0  0  0  0
  -29.2110  -25.6490   19.1820 C   0  0  0  0  0  3  0  0  0  0  0  0
  -28.8480  -26.7630   19.9990 O   0  0  0  0  0  0  0  0  0  0  0  0
  -24.7460  -31.5860   23.1800 C   0  0  0  0  0  0  0  0  0  0  0  0
  -27.6350  -27.4250   19.9150 C   0  0  0  0  0  0  0  0  0  0  0  0
  -23.6420  -30.2670   21.4040 C   0  0  0  0  0  3  0  0  0  0  0  0
  -25.1910  -28.8650   19.9340 C   0  0  0  0  0  0  0  0  0  0  0  0
  -26.1630  -30.6870   21.3410 C   0  0  0  0  0  2  0  0  0  0  0  0
  -26.3060  -29.3670   20.6190 C   0  0  0  0  0  0  0  0  0  0  0  0
  -27.5170  -28.6400   20.6240 C   0  0  0  0  0  3  0  0  0  0  0  0
  -26.5140  -26.9670   19.1830 C   0  0  0  0  0  3  0  0  0  0  0  0
  -25.2920  -27.6610   19.2150 C   0  0  0  0  0  3  0  0  0  0  0  0
  -23.9240  -29.6870   19.9930 C   0  0  0  0  0  2  0  0  0  0  0  0
  -24.8660  -30.8550   22.0390 N   0  0  0  0  0  0  0  0  0  0  0  0
  -23.6350  -31.8030   23.6880 O   0  0  0  0  0  0  0  0  0  0  0  0
  -22.9630  -29.1800   22.2640 C   0  0  0  0  0  0  0  0  0  0  0  0
  -21.6320  -29.0470   22.1260 N   0  0  0  0  0  0  0  0  0  0  0  0
  -23.6240  -28.4630   23.0200 O   0  0  0  0  0  0  0  0  0  0  0  0
  -21.1580  -29.6860   21.5040 H   0  0  0  0  0  0  0  0  0  0  0  0
  -18.2180  -27.9610   22.5980 C   0  0  0  0  0  0  0  0  0  0  0  0
  -20.7910  -28.0630   22.8040 C   0  0  0  0  0  3  0  0  0  0  0  0
  -20.8030  -26.7090   22.0560 C   0  0  0  0  0  2  0  0  0  0  0  0
  -19.6560  -26.5660   21.0510 C   0  0  0  0  0  2  0  0  0  0  0  0
  -18.3030  -26.6960   21.7590 C   0  0  0  0  0  2  0  0  0  0  0  0
  -19.3850  -28.6150   23.0720 C   0  0  0  0  0  0  0  0  0  0  0  0
  -19.2490  -29.8080   23.8160 C   0  0  0  0  0  3  0  0  0  0  0  0
  -17.9770  -30.3450   24.0860 C   0  0  0  0  0  3  0  0  0  0  0  0
  -16.8240  -29.6900   23.6230 C   0  0  0  0  0  3  0  0  0  0  0  0
  -16.9450  -28.4980   22.8850 C   0  0  0  0  0  3  0  0  0  0  0  0
  -25.9890  -32.2020   23.8940 C   0  0  0  0  0  3  0  0  0  0  0  0
  -25.6380  -33.5710   24.2970 N   0  0  0  0  0  0  0  0  0  0  0  0
  -25.9910  -34.6740   23.6220 C   0  0  0  0  0  0  0  0  0  0  0  0
  -26.7050  -34.6450   22.6150 O   0  0  0  0  0  0  0  0  0  0  0  0
  -25.0000  -33.6640   25.0760 H   0  0  0  0  0  0  0  0  0  0  0  0
  -24.2480  -36.4600   23.3040 C   0  0  0  0  0  1  0  0  0  0  0  0
  -25.4620  -36.0250   24.1430 C   0  0  0  0  0  3  0  0  0  0  0  0
  -27.5500  -36.8890   25.1040 C   0  0  0  0  0  1  0  0  0  0  0  0
  -26.4800  -37.0970   24.1300 N   0  0  0  0  0  0  0  0  0  0  0  0
  -26.0540  -38.0020   24.3080 H   0  0  0  0  0  0  0  0  0  0  0  0
  -26.4650  -31.3540   25.1390 C   0  0  1  0  0  0  0  0  0  0  0  0
  -25.3350  -31.0310   26.1480 C   0  0  0  0  0  1  0  0  0  0  0  0
  -27.0810  -30.0150   24.6770 C   0  0  0  0  0  1  0  0  0  0  0  0
  -27.5830  -32.1170   25.8890 C   0  0  0  0  0  1  0  0  0  0  0  0
  -26.7380  -20.9760   19.7440 C   0  0  0  0  0  2  0  0  0  0  0  0
  -26.8230  -19.6390   20.2400 O   0  0  0  0  0  0  0  0  0  0  0  0
  -26.7290  -18.6770   19.2680 C   0  0  0  0  0  0  0  0  0  0  0  0
  -25.8570  -18.7140   18.3510 N   0  0  0  0  0  0  0  0  0  0  0  0
  -25.9890  -17.9720   17.6700 H   0  0  0  0  0  0  0  0  0  0  0  0
  -28.6610  -17.4280   18.2910 C   0  0  0  0  0  3  0  0  0  0  0  0
  -28.1150  -17.1560   20.6570 C   0  0  0  0  0  3  0  0  0  0  0  0
  -29.7880  -16.6010   18.4630 C   0  0  0  0  0  3  0  0  0  0  0  0
  -29.2290  -16.3120   20.8240 C   0  0  0  0  0  3  0  0  0  0  0  0
  -27.8250  -17.7130   19.3950 C   0  0  0  0  0  0  0  0  0  0  0  0
  -30.0630  -16.0300   19.7230 C   0  0  0  0  0  0  0  0  0  0  0  0
  -31.8280  -14.3650   20.4940 C   0  0  0  0  0  0  0  0  0  0  0  0
  -31.5250  -11.9550   20.3680 C   0  0  0  0  0  2  0  0  0  0  0  0
  -30.7530  -11.5770   19.0920 C   0  0  0  0  0  2  0  0  0  0  0  0
  -29.2420  -11.5560   19.3750 C   0  0  0  0  0  2  0  0  0  0  0  0
  -28.7470  -12.8420   20.0890 C   0  0  0  0  0  3  0  0  0  0  0  0
  -29.6670  -13.2360   21.2730 C   0  0  0  0  0  2  0  0  0  0  0  0
  -31.0450  -13.2870   20.7730 N   0  0  0  0  0  0  0  0  0  0  0  0
  -33.0460  -14.2860   20.3880 O   0  0  0  0  0  0  0  0  0  0  0  0
  -31.3310  -15.4670   19.9160 N   0  0  0  0  0  0  0  0  0  0  0  0
  -32.0660  -15.9500   19.4200 H   0  0  0  0  0  0  0  0  0  0  0  0
  -26.3890  -13.7110   20.6110 C   0  0  0  0  0  0  0  0  0  0  0  0
  -25.2220  -13.0680   20.9130 C   0  0  0  0  0  0  0  0  0  0  0  0
  -25.5390  -11.6760   20.9530 C   0  0  0  0  0  0  0  0  0  0  0  0
  -27.3510  -12.7210   20.4860 N   0  0  0  0  0  0  0  0  0  0  0  0
  -26.8370  -11.4900   20.7490 N   0  0  0  0  0  0  0  0  0  0  0  0
  -24.6660  -10.5060   21.1130 C   0  0  0  0  0  0  0  0  0  0  0  0
  -24.9440   -9.5060   22.0690 C   0  0  0  0  0  3  0  0  0  0  0  0
  -24.0790   -8.3990   22.2170 C   0  0  0  0  0  3  0  0  0  0  0  0
  -22.9250   -8.2880   21.4080 C   0  0  0  0  0  0  0  0  0  0  0  0
  -22.6640   -9.2760   20.4410 C   0  0  0  0  0  3  0  0  0  0  0  0
  -23.5280  -10.3750   20.2930 C   0  0  0  0  0  3  0  0  0  0  0  0
  -22.0480   -7.2340   21.4650 O   0  0  0  0  0  0  0  0  0  0  0  0
  -21.8800   -6.4960   22.6110 C   0  0  0  0  0  0  0  0  0  0  0  0
  -21.4970   -7.0940   23.8310 C   0  0  0  0  0  3  0  0  0  0  0  0
  -21.2660   -6.2930   24.9660 C   0  0  0  0  0  3  0  0  0  0  0  0
  -21.4080   -4.8940   24.8840 C   0  0  0  0  0  0  0  0  0  0  0  0
  -21.7830   -4.2950   23.6670 C   0  0  0  0  0  3  0  0  0  0  0  0
  -22.0150   -5.0950   22.5330 C   0  0  0  0  0  0  0  0  0  0  0  0
  -22.3570   -4.5110   21.3600 F   0  0  0  0  0  0  0  0  0  0  0  0
  -21.1770   -4.1220   25.9700 F   0  0  0  0  0  0  0  0  0  0  0  0
  -23.8680  -13.7000   21.0590 C   0  0  0  0  0  0  0  0  0  0  0  0
  -23.0130  -13.1310   21.9000 N   0  0  0  0  0  0  0  0  0  0  0  0
  -23.5790  -14.7400   20.4660 O   0  0  0  0  0  0  0  0  0  0  0  0
  -23.2510  -12.2880   22.4000 H   0  0  0  0  0  0  0  0  0  0  0  0
  -22.1030  -13.5460   22.0490 H   0  0  0  0  0  0  0  0  0  0  0  0
  -26.7000  -15.0460   20.4130 N   0  0  0  0  0  0  0  0  0  0  0  0
  -25.9920  -15.7610   20.5320 H   0  0  0  0  0  0  0  0  0  0  0  0
  -27.6390  -15.4040   20.2920 H   0  0  0  0  0  0  0  0  0  0  0  0
  3  1  1  1
  3  2  1  0
  6  5  1  6
  6  4  1  0
  6  7  1  0
  6  3  1  0
  9  8  1  0
  9  7  1  0
  9 10  1  0
 11 22  2  0
 12 10  1  0
 12 17  1  0
 13 21  1  0
 13 23  1  0
 14 20  1  0
 14 16  1  0
 15 21  1  0
 16 17  2  0
 16 15  1  0
 18 19  1  0
 18 12  2  0
 19 14  2  0
 20 13  1  0
 21 11  1  0
 23 25  2  0
 24 23  1  0
 26 24  1  0
 27 36  2  0
 27 32  1  0
 28 24  1  0
 28 32  1  0
 29 28  1  0
 30 31  1  0
 30 29  1  0
 31 27  1  0
 32 33  2  0
 33 34  1  0
 35 34  2  0
 36 35  1  0
 37 11  1  0
 37 38  1  0
 37 47  1  0
 38 41  1  0
 39 43  1  0
 39 38  1  0
 40 39  2  0
 43 42  1  0
 45 43  1  0
 45 46  1  0
 45 44  1  0
 47 50  1  1
 47 48  1  0
 49 47  1  0
 51 52  1  0
 51  3  1  0
 53 60  1  0
 53 52  1  0
 54 53  2  0
 55 54  1  0
 56 58  2  0
 56 60  1  0
 57 59  1  0
 58 61  1  0
 60 57  2  0
 61 70  1  0
 61 59  2  0
 62 68  1  0
 63 68  1  0
 64 65  1  0
 64 63  1  0
 66 65  1  0
 66 75  1  0
 66 67  1  0
 68 67  1  0
 69 62  2  0
 70 62  1  0
 71 70  1  0
 72 73  2  0
 73 74  1  0
 73 92  1  0
 74 77  1  0
 75 72  1  0
 75 76  1  0
 76 74  2  0
 77 78  1  0
 78 79  2  0
 80 83  1  0
 80 79  1  0
 81 80  2  0
 82 81  1  0
 82 77  2  0
 83 84  1  0
 84 85  1  0
 85 86  2  0
 87 86  1  0
 87 91  1  0
 88 87  2  0
 89 84  2  0
 89 88  1  0
 90 89  1  0
 92 93  1  0
 93 96  1  0
 93 95  1  0
 94 92  2  0
 97 98  1  0
 97 72  1  0
 99 97  1  0
M  ISO  4   9 101  10 101  62 100  70 100
M  END
>  <TORSDO>  (15) 
F 23

>  <SCORE>  (15) 
-9.374

>  <name>  (15) 
14

>  <ligand_id>  (15) 
14

>  <original_smiles>  (15) 
[H]N=C(OC([H])([H])C(C([H])([H])[H])(C([H])([H])[H])C(C([H])([H])[H])(C([H])([H])[H])C([H])([H])C([H])(Oc1c([H])c([H])c2c(c1[H])C([H])([H])N(C(=O)C([H])(N([H])C(=O)C([H])(N([H])C([H])([H])[H])C([H])([H])[H])C(C([H])([H])[H])(C([H])([H])[H])C([H])([H])[H])C([H])(C(=O)N([H])C1([H])c3c([H])c([H])c([H])c([H])c3C([H])([H])C([H])([H])C1([H])[H])C2([H])[H])C([H])([H])[H])c1c([H])c([H])c(N([H])C(=O)N2C([H])([H])C([H])([H])C([H])([H])C([H])(n3nc(-c4c([H])c([H])c(Oc5c([H])c([H])c(F)c([H])c5F)c([H])c4[H])c(C(=O)N([H])[H])c3N([H])[H])C2([H])[H])c([H])c1[H]

>  <smiles>  (15) 
[H]N=C(OC([H])([H])C(C([H])([H])[H])(C([H])([H])[H])C(C([H])([H])[H])(C([H])([H])[H])C([H])([H])C([H])(Oc1c([H])c([H])c2c(c1[H])C([H])([H])N(C(=O)C([H])(N([H])C(=O)C([H])(N([H])C([H])([H])[H])C([H])([H])[H])C(C([H])([H])[H])(C([H])([H])[H])C([H])([H])[H])C([H])(C(=O)N([H])C1([H])c3c([H])c([H])c([H])c([H])c3C([H])([H])C([H])([H])C1([H])[H])C2([H])[H])C([H])([H])[H])c1c([H])c([H])c(N([H])C(=O)N2C([H])([H])C([H])([H])C([H])([H])C([H])(n3nc(-c4c([H])c([H])c(Oc5c([H])c([H])c(F)c([H])c5F)c([H])c4[H])c(C(=O)N([H])[H])c3N([H])[H])C2([H])[H])c([H])c1[H]

$$$$
15:0:0
     RDKit          3D

 93102  0  0  1  0  0  0  0  0999 V2000
  -31.2300  -22.6800   18.2760 C   0  0  0  0  0  2  0  0  0  0  0  0
  -30.9820  -21.2510   18.8180 C   0  0  0  0  0  2  0  0  0  0  0  0
  -30.1670  -23.7040   18.7060 C   0  0  0  0  0  2  0  0  0  0  0  0
  -29.7720  -22.3070   20.7800 C   0  0  0  0  0  2  0  0  0  0  0  0
  -30.8170  -21.1650   20.3550 C   0  0  0  0  0  3  0  0  0  0  0  0
  -30.0400  -23.7910   20.2370 C   0  0  0  0  0  3  0  0  0  0  0  0
  -30.6330  -18.0340   22.7830 C   0  0  0  0  0  3  0  0  0  0  0  0
  -30.9380  -16.9500   21.9520 C   0  0  0  0  0  3  0  0  0  0  0  0
  -31.0240  -18.4900   20.0750 C   0  0  0  0  0  3  0  0  0  0  0  0
  -30.7370  -19.6530   20.9090 C   0  0  0  0  0  0  0  0  0  0  0  0
  -30.5160  -19.3560   22.2980 C   0  0  0  0  0  0  0  0  0  0  0  0
  -31.1260  -17.1340   20.5730 C   0  0  0  0  0  0  0  0  0  0  0  0
  -30.1730  -20.3970   23.3560 C   0  0  0  0  0  1  0  0  0  0  0  0
  -31.8280  -14.7150   19.9550 C   0  0  0  0  0  0  0  0  0  0  0  0
  -31.3340  -12.5220   18.8780 C   0  0  0  0  0  2  0  0  0  0  0  0
  -30.3630  -12.7430   17.6970 C   0  0  0  0  0  2  0  0  0  0  0  0
  -28.8950  -12.7210   18.1810 C   0  0  0  0  0  2  0  0  0  0  0  0
  -28.6610  -13.6030   19.4380 C   0  0  0  0  0  3  0  0  0  0  0  0
  -29.7550  -13.3680   20.5020 C   0  0  0  0  0  2  0  0  0  0  0  0
  -31.0530  -13.5910   19.8500 N   0  0  0  0  0  0  0  0  0  0  0  0
  -33.0450  -14.6640   19.7680 O   0  0  0  0  0  0  0  0  0  0  0  0
  -31.1780  -15.9170   19.7630 N   0  0  0  0  0  0  0  0  0  0  0  0
  -30.3430  -15.7960   19.2150 H   0  0  0  0  0  0  0  0  0  0  0  0
  -26.3780  -14.4130   20.2820 C   0  0  0  0  0  0  0  0  0  0  0  0
  -25.2530  -13.7440   20.6730 C   0  0  0  0  0  0  0  0  0  0  0  0
  -25.5740  -12.3530   20.5980 C   0  0  0  0  0  0  0  0  0  0  0  0
  -27.3170  -13.4380   19.9830 N   0  0  0  0  0  0  0  0  0  0  0  0
  -26.8410  -12.1920   20.2400 N   0  0  0  0  0  0  0  0  0  0  0  0
  -24.7280  -11.1680   20.7860 C   0  0  0  0  0  0  0  0  0  0  0  0
  -25.0520  -10.1730   21.7330 C   0  0  0  0  0  3  0  0  0  0  0  0
  -24.2150   -9.0520   21.9080 C   0  0  0  0  0  3  0  0  0  0  0  0
  -23.0350   -8.9190   21.1390 C   0  0  0  0  0  0  0  0  0  0  0  0
  -22.7260   -9.9030   20.1840 C   0  0  0  0  0  3  0  0  0  0  0  0
  -23.5640  -11.0170   20.0070 C   0  0  0  0  0  3  0  0  0  0  0  0
  -22.1710   -7.8560   21.2270 O   0  0  0  0  0  0  0  0  0  0  0  0
  -21.9820   -7.1770   22.4030 C   0  0  0  0  0  0  0  0  0  0  0  0
  -21.5410   -7.8240   23.5780 C   0  0  0  0  0  3  0  0  0  0  0  0
  -21.2950   -7.0740   24.7440 C   0  0  0  0  0  3  0  0  0  0  0  0
  -21.4810   -5.6790   24.7370 C   0  0  0  0  0  0  0  0  0  0  0  0
  -21.9140   -5.0320   23.5670 C   0  0  0  0  0  3  0  0  0  0  0  0
  -22.1640   -5.7800   22.4030 C   0  0  0  0  0  0  0  0  0  0  0  0
  -22.5630   -5.1480   21.2710 F   0  0  0  0  0  0  0  0  0  0  0  0
  -21.2360   -4.9570   25.8560 F   0  0  0  0  0  0  0  0  0  0  0  0
  -23.9230  -14.3540   21.0030 C   0  0  0  0  0  0  0  0  0  0  0  0
  -23.1720  -13.7410   21.9070 N   0  0  0  0  0  0  0  0  0  0  0  0
  -23.5650  -15.4140   20.4900 O   0  0  0  0  0  0  0  0  0  0  0  0
  -23.4790  -12.8860   22.3470 H   0  0  0  0  0  0  0  0  0  0  0  0
  -22.2800  -14.1360   22.1710 H   0  0  0  0  0  0  0  0  0  0  0  0
  -26.6710  -15.7660   20.1330 N   0  0  0  0  0  0  0  0  0  0  0  0
  -25.9670  -16.4770   20.2880 H   0  0  0  0  0  0  0  0  0  0  0  0
  -27.5490  -16.1380   19.7960 H   0  0  0  0  0  0  0  0  0  0  0  0
  -28.9590  -24.8890   20.6810 C   0  0  0  0  0  2  0  0  0  0  0  0
  -29.1720  -26.3670   20.5800 O   0  0  0  0  0  0  0  0  0  0  0  0
  -24.9910  -31.6280   23.3360 C   0  0  0  0  0  0  0  0  0  0  0  0
  -28.0230  -27.1820   20.4800 C   0  0  0  0  0  0  0  0  0  0  0  0
  -23.9710  -30.1550   21.6420 C   0  0  0  0  0  3  0  0  0  0  0  0
  -25.5860  -28.6870   20.3230 C   0  0  0  0  0  0  0  0  0  0  0  0
  -26.5020  -30.6110   21.6080 C   0  0  0  0  0  2  0  0  0  0  0  0
  -26.6960  -29.2340   20.9800 C   0  0  0  0  0  0  0  0  0  0  0  0
  -27.9190  -28.4910   21.0530 C   0  0  0  0  0  3  0  0  0  0  0  0
  -26.8810  -26.6990   19.7990 C   0  0  0  0  0  3  0  0  0  0  0  0
  -25.6780  -27.4230   19.7310 C   0  0  0  0  0  3  0  0  0  0  0  0
  -24.3070  -29.4950   20.2830 C   0  0  0  0  0  2  0  0  0  0  0  0
  -25.1710  -30.8150   22.2530 N   0  0  0  0  0  0  0  0  0  0  0  0
  -23.8620  -31.8410   23.8000 O   0  0  0  0  0  0  0  0  0  0  0  0
  -23.3130  -29.1030   22.5670 C   0  0  0  0  0  0  0  0  0  0  0  0
  -22.0190  -28.8180   22.3370 N   0  0  0  0  0  0  0  0  0  0  0  0
  -23.9670  -28.5440   23.4510 O   0  0  0  0  0  0  0  0  0  0  0  0
  -21.5450  -29.3220   21.6010 H   0  0  0  0  0  0  0  0  0  0  0  0
  -18.7360  -27.3080   22.5350 C   0  0  0  0  0  0  0  0  0  0  0  0
  -21.2160  -27.8300   23.0600 C   0  0  0  0  0  3  0  0  0  0  0  0
  -21.5160  -26.3950   22.5640 C   0  0  0  0  0  2  0  0  0  0  0  0
  -20.5670  -25.9280   21.4570 C   0  0  0  0  0  2  0  0  0  0  0  0
  -19.1150  -25.9600   21.9440 C   0  0  0  0  0  2  0  0  0  0  0  0
  -19.7240  -28.1920   23.0450 C   0  0  0  0  0  0  0  0  0  0  0  0
  -19.3210  -29.4480   23.5480 C   0  0  0  0  0  3  0  0  0  0  0  0
  -17.9630  -29.8210   23.5530 C   0  0  0  0  0  3  0  0  0  0  0  0
  -16.9890  -28.9340   23.0610 C   0  0  0  0  0  3  0  0  0  0  0  0
  -17.3750  -27.6810   22.5560 C   0  0  0  0  0  3  0  0  0  0  0  0
  -26.1920  -32.3390   24.0300 C   0  0  0  0  0  3  0  0  0  0  0  0
  -25.7840  -33.7200   24.3200 N   0  0  0  0  0  0  0  0  0  0  0  0
  -26.1590  -34.7910   23.6070 C   0  0  0  0  0  0  0  0  0  0  0  0
  -26.9450  -34.7180   22.6580 O   0  0  0  0  0  0  0  0  0  0  0  0
  -25.0950  -33.8480   25.0490 H   0  0  0  0  0  0  0  0  0  0  0  0
  -24.4080  -36.5110   23.0580 C   0  0  0  0  0  1  0  0  0  0  0  0
  -25.5660  -36.1560   24.0050 C   0  0  0  0  0  3  0  0  0  0  0  0
  -27.5590  -37.1240   25.0660 C   0  0  0  0  0  1  0  0  0  0  0  0
  -26.5610  -37.2510   24.0070 N   0  0  0  0  0  0  0  0  0  0  0  0
  -26.1020  -38.1530   24.1080 H   0  0  0  0  0  0  0  0  0  0  0  0
  -26.6650  -31.6090   25.3460 C   0  0  1  0  0  0  0  0  0  0  0  0
  -25.5180  -31.3270   26.3460 C   0  0  0  0  0  1  0  0  0  0  0  0
  -27.3420  -30.2600   25.0080 C   0  0  0  0  0  1  0  0  0  0  0  0
  -27.7290  -32.4700   26.0690 C   0  0  0  0  0  1  0  0  0  0  0  0
  1  3  1  0
  1  2  1  0
  2  5  1  0
  3  6  1  0
  5  4  1  0
  5 10  1  0
  6 52  1  0
  6  4  1  0
  8  7  2  0
  9 12  2  0
  9 10  1  0
 10 11  2  0
 11  7  1  0
 11 13  1  0
 12  8  1  0
 15 20  1  0
 16 17  1  0
 16 15  1  0
 18 17  1  0
 18 27  1  0
 18 19  1  0
 20 14  1  0
 20 19  1  0
 21 14  2  0
 22 14  1  0
 22 12  1  0
 23 22  1  0
 24 25  2  0
 25 44  1  0
 26 25  1  0
 26 29  1  0
 27 28  1  0
 27 24  1  0
 28 26  2  0
 29 30  1  0
 30 31  2  0
 32 35  1  0
 32 31  1  0
 33 32  2  0
 34 33  1  0
 34 29  2  0
 35 36  1  0
 36 37  1  0
 37 38  2  0
 39 38  1  0
 39 43  1  0
 40 39  2  0
 41 36  2  0
 41 40  1  0
 42 41  1  0
 44 45  1  0
 45 48  1  0
 45 47  1  0
 46 44  2  0
 49 24  1  0
 49 50  1  0
 51 49  1  0
 53 52  1  0
 54 65  2  0
 55 53  1  0
 55 60  1  0
 56 64  1  0
 56 66  1  0
 57 59  1  0
 58 64  1  0
 59 60  2  0
 59 58  1  0
 61 55  2  0
 62 61  1  0
 62 57  2  0
 63 57  1  0
 63 56  1  0
 64 54  1  0
 66 68  2  0
 67 66  1  0
 69 67  1  0
 70 79  2  0
 70 75  1  0
 71 67  1  0
 72 71  1  0
 73 74  1  0
 73 72  1  0
 74 70  1  0
 75 71  1  0
 75 76  2  0
 76 77  1  0
 78 77  2  0
 79 78  1  0
 80 54  1  0
 80 81  1  0
 80 90  1  0
 81 84  1  0
 82 86  1  0
 82 81  1  0
 83 82  2  0
 86 85  1  0
 86 88  1  0
 88 89  1  0
 88 87  1  0
 90 93  1  1
 90 91  1  0
 92 90  1  0
M  ISO  4  14 100  22 100  52 101  53 101
M  END
>  <TORSDO>  (16) 
F 18

>  <SCORE>  (16) 
-11.450

>  <name>  (16) 
15

>  <ligand_id>  (16) 
15

>  <original_smiles>  (16) 
[H]c1c([H])c([H])c2c(c1[H])C([H])([H])C([H])([H])C([H])([H])C2([H])N([H])C(=O)C1([H])N(C(=O)C([H])(N([H])C(=O)C([H])(N([H])C([H])([H])[H])C([H])([H])[H])C(C([H])([H])[H])(C([H])([H])[H])C([H])([H])[H])C([H])([H])c2c([H])c(OC([H])([H])C3([H])C([H])([H])C([H])([H])C([H])([H])C([H])(c4c([H])c(N([H])C(=O)N5C([H])([H])C([H])([H])C([H])([H])C([H])(n6nc(-c7c([H])c([H])c(Oc8c([H])c([H])c(F)c([H])c8F)c([H])c7[H])c(C(=O)N([H])[H])c6N([H])[H])C5([H])[H])c([H])c([H])c4C([H])([H])[H])C3([H])[H])c([H])c([H])c2C1([H])[H]

>  <smiles>  (16) 
[H]c1c([H])c([H])c2c(c1[H])C([H])([H])C([H])([H])C([H])([H])C2([H])N([H])C(=O)C1([H])N(C(=O)C([H])(N([H])C(=O)C([H])(N([H])C([H])([H])[H])C([H])([H])[H])C(C([H])([H])[H])(C([H])([H])[H])C([H])([H])[H])C([H])([H])c2c([H])c(OC([H])([H])C3([H])C([H])([H])C([H])([H])C([H])([H])C([H])(c4c([H])c(N([H])C(=O)N5C([H])([H])C([H])([H])C([H])([H])C([H])(n6nc(-c7c([H])c([H])c(Oc8c([H])c([H])c(F)c([H])c8F)c([H])c7[H])c(C(=O)N([H])[H])c6N([H])[H])C5([H])[H])c([H])c([H])c4C([H])([H])[H])C3([H])[H])c([H])c([H])c2C1([H])[H]

$$$$
16:0:0
     RDKit          3D

 96104  0  0  1  0  0  0  0  0999 V2000
  -29.4550  -21.1000   21.1000 C   0  0  0  0  0  0  0  0  0  0  0  0
  -30.5590  -20.5140   20.6070 N   0  0  0  0  0  0  0  0  0  0  0  0
  -28.3540  -20.5460   21.1420 O   0  0  0  0  0  0  0  0  0  0  0  0
  -31.3720  -21.1100   20.5370 H   0  0  0  0  0  0  0  0  0  0  0  0
  -31.1340  -17.9820   17.8970 C   0  0  0  0  0  3  0  0  0  0  0  0
  -30.7640  -16.8020   18.5660 C   0  0  0  0  0  3  0  0  0  0  0  0
  -30.2660  -18.0820   20.5710 C   0  0  0  0  0  3  0  0  0  0  0  0
  -31.0890  -19.2390   18.5480 C   0  0  0  0  0  0  0  0  0  0  0  0
  -30.3710  -16.8320   19.9210 C   0  0  0  0  0  0  0  0  0  0  0  0
  -30.6190  -19.2840   19.8980 C   0  0  0  0  0  0  0  0  0  0  0  0
  -30.8250  -14.5010   20.4490 C   0  0  0  0  0  0  0  0  0  0  0  0
  -30.5120  -12.3430   19.3490 C   0  0  0  0  0  2  0  0  0  0  0  0
  -29.6000  -12.5500   18.1240 C   0  0  0  0  0  2  0  0  0  0  0  0
  -28.1160  -12.4430   18.5240 C   0  0  0  0  0  2  0  0  0  0  0  0
  -27.7560  -13.2840   19.7800 C   0  0  0  0  0  3  0  0  0  0  0  0
  -28.7920  -13.0840   20.9110 C   0  0  0  0  0  2  0  0  0  0  0  0
  -30.1280  -13.3420   20.3570 N   0  0  0  0  0  0  0  0  0  0  0  0
  -32.0170  -14.5960   20.1510 O   0  0  0  0  0  0  0  0  0  0  0  0
  -30.0810  -15.6130   20.6050 N   0  0  0  0  0  0  0  0  0  0  0  0
  -29.1430  -15.4920   20.9580 H   0  0  0  0  0  0  0  0  0  0  0  0
  -25.3430  -13.8870   20.4320 C   0  0  0  0  0  0  0  0  0  0  0  0
  -24.2690  -13.1140   20.7870 C   0  0  0  0  0  0  0  0  0  0  0  0
  -24.7410  -11.7650   20.7920 C   0  0  0  0  0  0  0  0  0  0  0  0
  -26.3970  -13.0090   20.2360 N   0  0  0  0  0  0  0  0  0  0  0  0
  -26.0370  -11.7300   20.5150 N   0  0  0  0  0  0  0  0  0  0  0  0
  -24.0190  -10.4990   20.9890 C   0  0  0  0  0  0  0  0  0  0  0  0
  -24.4360   -9.5570   21.9540 C   0  0  0  0  0  3  0  0  0  0  0  0
  -23.7220   -8.3540   22.1360 C   0  0  0  0  0  3  0  0  0  0  0  0
  -22.5730   -8.0850   21.3550 C   0  0  0  0  0  0  0  0  0  0  0  0
  -22.1740   -9.0160   20.3800 C   0  0  0  0  0  3  0  0  0  0  0  0
  -22.8910  -10.2110   20.1960 C   0  0  0  0  0  3  0  0  0  0  0  0
  -21.8300   -6.9340   21.4460 O   0  0  0  0  0  0  0  0  0  0  0  0
  -21.7530   -6.2190   22.6130 C   0  0  0  0  0  0  0  0  0  0  0  0
  -21.2700   -6.7940   23.8080 C   0  0  0  0  0  3  0  0  0  0  0  0
  -21.1390   -6.0030   24.9680 C   0  0  0  0  0  3  0  0  0  0  0  0
  -21.4830   -4.6380   24.9310 C   0  0  0  0  0  0  0  0  0  0  0  0
  -21.9600   -4.0640   23.7410 C   0  0  0  0  0  3  0  0  0  0  0  0
  -22.0930   -4.8530   22.5840 C   0  0  0  0  0  0  0  0  0  0  0  0
  -22.5330   -4.2910   21.4330 F   0  0  0  0  0  0  0  0  0  0  0  0
  -21.3500   -3.8760   26.0420 F   0  0  0  0  0  0  0  0  0  0  0  0
  -22.8630  -13.5870   21.0140 C   0  0  0  0  0  0  0  0  0  0  0  0
  -22.1190  -12.8980   21.8730 N   0  0  0  0  0  0  0  0  0  0  0  0
  -22.4290  -14.6010   20.4680 O   0  0  0  0  0  0  0  0  0  0  0  0
  -22.4860  -12.0830   22.3430 H   0  0  0  0  0  0  0  0  0  0  0  0
  -21.1710  -13.1910   22.0650 H   0  0  0  0  0  0  0  0  0  0  0  0
  -25.5090  -15.2560   20.2370 N   0  0  0  0  0  0  0  0  0  0  0  0
  -24.7550  -15.9240   20.3380 H   0  0  0  0  0  0  0  0  0  0  0  0
  -26.3750  -15.6830   19.9360 H   0  0  0  0  0  0  0  0  0  0  0  0
  -31.5650  -20.4550   17.7980 C   0  0  0  0  0  0  0  0  0  0  0  0
  -31.6260  -20.3840   16.2750 C   0  0  0  0  0  1  0  0  0  0  0  0
  -31.9020  -21.5110   18.3420 O   0  0  0  0  0  0  0  0  0  0  0  0
  -29.6170  -22.5230   21.6540 C   0  0  0  0  0  2  0  0  0  0  0  0
  -28.7370  -23.5860   20.9480 C   0  0  0  0  0  2  0  0  0  0  0  0
  -29.5580  -24.6210   20.1510 C   0  0  0  0  0  2  0  0  0  0  0  0
  -28.7010  -25.6500   19.3860 C   0  0  0  0  0  2  0  0  0  0  0  0
  -28.4750  -26.8110   20.1960 O   0  0  0  0  0  0  0  0  0  0  0  0
  -24.6040  -31.9300   23.2360 C   0  0  0  0  0  0  0  0  0  0  0  0
  -27.2750  -27.4990   20.1460 C   0  0  0  0  0  0  0  0  0  0  0  0
  -23.4090  -30.5140   21.5990 C   0  0  0  0  0  3  0  0  0  0  0  0
  -24.8680  -28.9980   20.1670 C   0  0  0  0  0  0  0  0  0  0  0  0
  -25.9310  -30.8900   21.3990 C   0  0  0  0  0  2  0  0  0  0  0  0
  -26.0230  -29.5210   20.7570 C   0  0  0  0  0  0  0  0  0  0  0  0
  -27.2230  -28.7770   20.7530 C   0  0  0  0  0  3  0  0  0  0  0  0
  -26.0930  -26.9900   19.5560 C   0  0  0  0  0  3  0  0  0  0  0  0
  -24.8990  -27.7300   19.5670 C   0  0  0  0  0  3  0  0  0  0  0  0
  -23.6200  -29.8470   20.2150 C   0  0  0  0  0  2  0  0  0  0  0  0
  -24.6660  -31.1270   22.1340 N   0  0  0  0  0  0  0  0  0  0  0  0
  -23.5200  -32.1930   23.7740 O   0  0  0  0  0  0  0  0  0  0  0  0
  -22.7710  -29.4820   22.5570 C   0  0  0  0  0  0  0  0  0  0  0  0
  -21.4480  -29.2900   22.4330 N   0  0  0  0  0  0  0  0  0  0  0  0
  -23.4630  -28.8610   23.3690 O   0  0  0  0  0  0  0  0  0  0  0  0
  -20.9530  -29.8470   21.7500 H   0  0  0  0  0  0  0  0  0  0  0  0
  -18.0820  -28.0760   22.9340 C   0  0  0  0  0  0  0  0  0  0  0  0
  -20.6370  -28.3470   23.2020 C   0  0  0  0  0  3  0  0  0  0  0  0
  -20.7470  -26.9160   22.6260 C   0  0  0  0  0  2  0  0  0  0  0  0
  -19.6450  -26.5870   21.6140 C   0  0  0  0  0  2  0  0  0  0  0  0
  -18.2640  -26.7260   22.2610 C   0  0  0  0  0  2  0  0  0  0  0  0
  -19.1970  -28.8440   23.3620 C   0  0  0  0  0  0  0  0  0  0  0  0
  -18.9710  -30.1070   23.9520 C   0  0  0  0  0  3  0  0  0  0  0  0
  -17.6640  -30.6000   24.1190 C   0  0  0  0  0  3  0  0  0  0  0  0
  -16.5640  -29.8280   23.7090 C   0  0  0  0  0  3  0  0  0  0  0  0
  -16.7730  -28.5680   23.1200 C   0  0  0  0  0  3  0  0  0  0  0  0
  -25.8870  -32.5710   23.8510 C   0  0  0  0  0  3  0  0  0  0  0  0
  -25.5720  -33.9710   24.1650 N   0  0  0  0  0  0  0  0  0  0  0  0
  -25.9030  -35.0170   23.3950 C   0  0  0  0  0  0  0  0  0  0  0  0
  -26.5780  -34.9060   22.3670 O   0  0  0  0  0  0  0  0  0  0  0  0
  -24.9730  -34.1350   24.9610 H   0  0  0  0  0  0  0  0  0  0  0  0
  -24.1750  -36.8000   22.9980 C   0  0  0  0  0  1  0  0  0  0  0  0
  -25.4030  -36.4050   23.8340 C   0  0  0  0  0  3  0  0  0  0  0  0
  -27.5360  -37.2860   24.6750 C   0  0  0  0  0  1  0  0  0  0  0  0
  -26.4280  -37.4680   23.7410 N   0  0  0  0  0  0  0  0  0  0  0  0
  -26.0120  -38.3770   23.9210 H   0  0  0  0  0  0  0  0  0  0  0  0
  -26.4070  -31.8120   25.1320 C   0  0  1  0  0  0  0  0  0  0  0  0
  -25.3160  -31.5800   26.2030 C   0  0  0  0  0  1  0  0  0  0  0  0
  -26.9950  -30.4340   24.7480 C   0  0  0  0  0  1  0  0  0  0  0  0
  -27.5600  -32.6160   25.7790 C   0  0  0  0  0  1  0  0  0  0  0  0
  1  3  2  0
  1 52  1  0
  2  1  1  0
  4  2  1  0
  5  8  2  0
  5  6  1  0
  6  9  2  0
  8 10  1  0
  9  7  1  0
  9 19  1  0
 10  7  2  0
 10  2  1  0
 11 19  1  0
 12 17  1  0
 13 14  1  0
 13 12  1  0
 15 14  1  0
 15 24  1  0
 15 16  1  0
 17 11  1  0
 17 16  1  0
 18 11  2  0
 19 20  1  0
 21 22  2  0
 22 23  1  0
 22 41  1  0
 23 26  1  0
 24 21  1  0
 24 25  1  0
 25 23  2  0
 26 27  1  0
 27 28  2  0
 29 32  1  0
 29 28  1  0
 30 29  2  0
 31 30  1  0
 31 26  2  0
 32 33  1  0
 33 34  1  0
 34 35  2  0
 36 35  1  0
 36 40  1  0
 37 36  2  0
 38 33  2  0
 38 37  1  0
 39 38  1  0
 41 42  1  0
 42 45  1  0
 42 44  1  0
 43 41  2  0
 46 47  1  0
 46 21  1  0
 48 46  1  0
 49 51  2  0
 49  8  1  0
 50 49  1  0
 53 52  1  0
 54 53  1  0
 55 54  1  0
 55 56  1  0
 57 68  2  0
 58 56  1  0
 58 63  1  0
 59 67  1  0
 59 69  1  0
 60 66  1  0
 60 62  1  0
 61 67  1  0
 62 61  1  0
 63 62  2  0
 64 65  1  0
 64 58  2  0
 65 60  2  0
 66 59  1  0
 67 57  1  0
 69 71  2  0
 70 69  1  0
 72 70  1  0
 73 82  2  0
 73 78  1  0
 74 70  1  0
 74 78  1  0
 75 74  1  0
 76 77  1  0
 76 75  1  0
 77 73  1  0
 78 79  2  0
 79 80  1  0
 81 80  2  0
 82 81  1  0
 83 57  1  0
 83 84  1  0
 83 93  1  0
 84 87  1  0
 85 89  1  0
 85 84  1  0
 86 85  2  0
 89 88  1  0
 91 89  1  0
 91 92  1  0
 91 90  1  0
 93 96  1  1
 93 94  1  0
 95 93  1  0
M  ISO  4  11 100  19 100  55 101  56 101
M  END
>  <TORSDO>  (17) 
F 22

>  <SCORE>  (17) 
-13.294

>  <name>  (17) 
16

>  <ligand_id>  (17) 
16

>  <original_smiles>  (17) 
[H]c1c([H])c([H])c2c(c1[H])C([H])([H])C([H])([H])C([H])([H])C2([H])N([H])C(=O)C1([H])N(C(=O)C([H])(N([H])C(=O)C([H])(N([H])C([H])([H])[H])C([H])([H])[H])C(C([H])([H])[H])(C([H])([H])[H])C([H])([H])[H])C([H])([H])c2c([H])c(OC([H])([H])C([H])([H])C([H])([H])C([H])([H])C(=O)N([H])c3c([H])c(N([H])C(=O)N4C([H])([H])C([H])([H])C([H])([H])C([H])(n5nc(-c6c([H])c([H])c(Oc7c([H])c([H])c(F)c([H])c7F)c([H])c6[H])c(C(=O)N([H])[H])c5N([H])[H])C4([H])[H])c([H])c([H])c3C(=O)C([H])([H])[H])c([H])c([H])c2C1([H])[H]

>  <smiles>  (17) 
[H]c1c([H])c([H])c2c(c1[H])C([H])([H])C([H])([H])C([H])([H])C2([H])N([H])C(=O)C1([H])N(C(=O)C([H])(N([H])C(=O)C([H])(N([H])C([H])([H])[H])C([H])([H])[H])C(C([H])([H])[H])(C([H])([H])[H])C([H])([H])[H])C([H])([H])c2c([H])c(OC([H])([H])C([H])([H])C([H])([H])C([H])([H])C(=O)N([H])c3c([H])c(N([H])C(=O)N4C([H])([H])C([H])([H])C([H])([H])C([H])(n5nc(-c6c([H])c([H])c(Oc7c([H])c([H])c(F)c([H])c7F)c([H])c6[H])c(C(=O)N([H])[H])c5N([H])[H])C4([H])[H])c([H])c([H])c3C(=O)C([H])([H])[H])c([H])c([H])c2C1([H])[H]

$$$$
17:0:0
     RDKit          3D

 94103  0  0  1  0  0  0  0  0999 V2000
  -30.9260  -18.1020   19.4670 C   0  0  0  0  0  3  0  0  0  0  0  0
  -28.8200  -17.7560   20.6930 C   0  0  0  0  0  3  0  0  0  0  0  0
  -30.5390  -19.4760   19.4430 C   0  0  0  0  0  0  0  0  0  0  0  0
  -28.4710  -19.1470   20.6620 C   0  0  0  0  0  0  0  0  0  0  0  0
  -29.3320  -20.0330   19.9970 C   0  0  0  0  0  0  0  0  0  0  0  0
  -30.0060  -17.1950   20.1050 C   0  0  0  0  0  0  0  0  0  0  0  0
  -29.5680  -22.7050   20.1410 C   0  0  0  0  0  0  0  0  0  0  0  0
  -30.9600  -20.8650   18.9980 C   0  0  0  0  0  2  0  0  0  0  0  0
  -27.2030  -19.6650   21.3060 C   0  0  0  0  0  1  0  0  0  0  0  0
  -29.6570  -21.4130   19.5350 N   0  0  0  0  0  0  0  0  0  0  0  0
  -29.4880  -22.7530   21.3680 O   0  0  0  0  0  0  0  0  0  0  0  0
  -30.8450  -14.7420   19.5930 C   0  0  0  0  0  0  0  0  0  0  0  0
  -30.5690  -12.4950   18.5400 C   0  0  0  0  0  2  0  0  0  0  0  0
  -29.5370  -12.6270   17.3950 C   0  0  0  0  0  2  0  0  0  0  0  0
  -28.0920  -12.4930   17.9240 C   0  0  0  0  0  2  0  0  0  0  0  0
  -27.8380  -13.3610   19.1850 C   0  0  0  0  0  3  0  0  0  0  0  0
  -28.9670  -13.1640   20.2210 C   0  0  0  0  0  2  0  0  0  0  0  0
  -30.2420  -13.5080   19.5640 N   0  0  0  0  0  0  0  0  0  0  0  0
  -31.9400  -14.9370   19.0550 O   0  0  0  0  0  0  0  0  0  0  0  0
  -30.1020  -15.7320   20.1830 N   0  0  0  0  0  0  0  0  0  0  0  0
  -29.3390  -15.3210   20.7000 H   0  0  0  0  0  0  0  0  0  0  0  0
  -25.5080  -14.0180   20.0560 C   0  0  0  0  0  0  0  0  0  0  0  0
  -24.4540  -13.2700   20.5070 C   0  0  0  0  0  0  0  0  0  0  0  0
  -24.8840  -11.9090   20.4550 C   0  0  0  0  0  0  0  0  0  0  0  0
  -26.5170  -13.1140   19.7590 N   0  0  0  0  0  0  0  0  0  0  0  0
  -26.1490  -11.8410   20.0570 N   0  0  0  0  0  0  0  0  0  0  0  0
  -24.1470  -10.6650   20.7080 C   0  0  0  0  0  0  0  0  0  0  0  0
  -24.6300   -9.6900   21.6090 C   0  0  0  0  0  3  0  0  0  0  0  0
  -23.8950   -8.5090   21.8480 C   0  0  0  0  0  3  0  0  0  0  0  0
  -22.6620   -8.2950   21.1890 C   0  0  0  0  0  0  0  0  0  0  0  0
  -22.1950   -9.2580   20.2770 C   0  0  0  0  0  3  0  0  0  0  0  0
  -22.9310  -10.4300   20.0350 C   0  0  0  0  0  3  0  0  0  0  0  0
  -21.8910   -7.1670   21.3410 O   0  0  0  0  0  0  0  0  0  0  0  0
  -21.9360   -6.4130   22.4870 C   0  0  0  0  0  0  0  0  0  0  0  0
  -21.6360   -6.9640   23.7520 C   0  0  0  0  0  3  0  0  0  0  0  0
  -21.6260   -6.1380   24.8930 C   0  0  0  0  0  3  0  0  0  0  0  0
  -21.9050   -4.7630   24.7720 C   0  0  0  0  0  0  0  0  0  0  0  0
  -22.1980   -4.2130   23.5120 C   0  0  0  0  0  3  0  0  0  0  0  0
  -22.2100   -5.0360   22.3720 C   0  0  0  0  0  0  0  0  0  0  0  0
  -22.4720   -4.4970   21.1570 F   0  0  0  0  0  0  0  0  0  0  0  0
  -21.8870   -3.9680   25.8670 F   0  0  0  0  0  0  0  0  0  0  0  0
  -23.0880  -13.7790   20.8720 C   0  0  0  0  0  0  0  0  0  0  0  0
  -22.4100  -13.1080   21.7960 N   0  0  0  0  0  0  0  0  0  0  0  0
  -22.6340  -14.8070   20.3710 O   0  0  0  0  0  0  0  0  0  0  0  0
  -22.7900  -12.2770   22.2260 H   0  0  0  0  0  0  0  0  0  0  0  0
  -21.4970  -13.4330   22.0820 H   0  0  0  0  0  0  0  0  0  0  0  0
  -25.6850  -15.3830   19.8580 N   0  0  0  0  0  0  0  0  0  0  0  0
  -24.9350  -16.0480   20.0150 H   0  0  0  0  0  0  0  0  0  0  0  0
  -26.5120  -15.8090   19.4590 H   0  0  0  0  0  0  0  0  0  0  0  0
  -29.3970  -24.0360   19.2790 C   0  0  0  0  0  2  0  0  0  0  0  0
  -27.8260  -25.1730   21.0040 C   0  0  0  0  0  1  0  0  0  0  0  0
  -30.1480  -26.0900   20.6930 C   0  0  0  0  0  1  0  0  0  0  0  0
  -28.9520  -25.4340   19.9720 C   0  0  1  0  0  0  0  0  0  0  0  0
  -28.5990  -26.5320   19.0290 O   0  0  0  0  0  0  0  0  0  0  0  0
  -24.7520  -31.4090   22.7480 C   0  0  0  0  0  0  0  0  0  0  0  0
  -27.4400  -27.3050   19.1820 C   0  0  0  0  0  0  0  0  0  0  0  0
  -23.5470  -30.1310   21.0090 C   0  0  0  0  0  3  0  0  0  0  0  0
  -25.0110  -28.7880   19.3960 C   0  0  0  0  0  0  0  0  0  0  0  0
  -26.0630  -30.5750   20.7870 C   0  0  0  0  0  2  0  0  0  0  0  0
  -26.1750  -29.2710   20.0080 C   0  0  0  0  0  0  0  0  0  0  0  0
  -27.3940  -28.5410   19.8940 C   0  0  0  0  0  3  0  0  0  0  0  0
  -26.2580  -26.8710   18.5490 C   0  0  0  0  0  3  0  0  0  0  0  0
  -25.0510  -27.5920   18.6600 C   0  0  0  0  0  3  0  0  0  0  0  0
  -23.7410  -29.6000   19.5630 C   0  0  0  0  0  2  0  0  0  0  0  0
  -24.8070  -30.7180   21.5720 N   0  0  0  0  0  0  0  0  0  0  0  0
  -23.6780  -31.5870   23.3400 O   0  0  0  0  0  0  0  0  0  0  0  0
  -22.9560  -29.0000   21.8820 C   0  0  0  0  0  0  0  0  0  0  0  0
  -21.6310  -28.7960   21.7920 N   0  0  0  0  0  0  0  0  0  0  0  0
  -23.6870  -28.3120   22.5990 O   0  0  0  0  0  0  0  0  0  0  0  0
  -21.0980  -29.4060   21.1870 H   0  0  0  0  0  0  0  0  0  0  0  0
  -18.3050  -27.4800   22.3310 C   0  0  0  0  0  0  0  0  0  0  0  0
  -20.8710  -27.7580   22.4890 C   0  0  0  0  0  3  0  0  0  0  0  0
  -20.9600  -26.4060   21.7420 C   0  0  0  0  0  2  0  0  0  0  0  0
  -19.8060  -26.1840   20.7600 C   0  0  0  0  0  2  0  0  0  0  0  0
  -18.4610  -26.2240   21.4910 C   0  0  0  0  0  2  0  0  0  0  0  0
  -19.4360  -28.2100   22.7860 C   0  0  0  0  0  0  0  0  0  0  0  0
  -19.2330  -29.3890   23.5340 C   0  0  0  0  0  3  0  0  0  0  0  0
  -17.9330  -29.8410   23.8300 C   0  0  0  0  0  3  0  0  0  0  0  0
  -16.8180  -29.1070   23.3880 C   0  0  0  0  0  3  0  0  0  0  0  0
  -17.0050  -27.9280   22.6460 C   0  0  0  0  0  3  0  0  0  0  0  0
  -26.0330  -32.0240   23.3930 C   0  0  0  0  0  3  0  0  0  0  0  0
  -25.6690  -33.3470   23.9220 N   0  0  0  0  0  0  0  0  0  0  0  0
  -25.9460  -34.5110   23.3190 C   0  0  0  0  0  0  0  0  0  0  0  0
  -26.6020  -34.5840   22.2760 O   0  0  0  0  0  0  0  0  0  0  0  0
  -25.0800  -33.3600   24.7430 H   0  0  0  0  0  0  0  0  0  0  0  0
  -24.1360  -36.2550   23.2460 C   0  0  0  0  0  1  0  0  0  0  0  0
  -25.4090  -35.7970   23.9750 C   0  0  0  0  0  3  0  0  0  0  0  0
  -27.5190  -36.6510   24.8950 C   0  0  0  0  0  1  0  0  0  0  0  0
  -26.3930  -36.9000   23.9990 N   0  0  0  0  0  0  0  0  0  0  0  0
  -25.9520  -37.7720   24.2800 H   0  0  0  0  0  0  0  0  0  0  0  0
  -26.6510  -31.1220   24.5310 C   0  0  1  0  0  0  0  0  0  0  0  0
  -25.6280  -30.6910   25.6090 C   0  0  0  0  0  1  0  0  0  0  0  0
  -27.2740  -29.8390   23.9340 C   0  0  0  0  0  1  0  0  0  0  0  0
  -27.7970  -31.8840   25.2370 C   0  0  0  0  0  1  0  0  0  0  0  0
  1  6  1  0
  3  1  2  0
  3  5  1  0
  4  2  1  0
  4  9  1  0
  5  4  2  0
  6 20  1  0
  6  2  2  0
  7 11  2  0
  8  3  1  0
  8 10  1  0
 10  5  1  0
 10  7  1  0
 12 20  1  0
 13 18  1  0
 14 15  1  0
 14 13  1  0
 16 15  1  0
 16 25  1  0
 16 17  1  0
 18 12  1  0
 18 17  1  0
 19 12  2  0
 20 21  1  0
 22 23  2  0
 23 42  1  0
 24 23  1  0
 24 27  1  0
 25 22  1  0
 25 26  1  0
 26 24  2  0
 27 28  1  0
 28 29  2  0
 30 33  1  0
 30 29  1  0
 31 30  2  0
 32 31  1  0
 32 27  2  0
 33 34  1  0
 34 35  1  0
 35 36  2  0
 37 36  1  0
 37 41  1  0
 38 37  2  0
 39 34  2  0
 39 38  1  0
 40 39  1  0
 42 43  1  0
 43 46  1  0
 43 45  1  0
 44 42  2  0
 47 48  1  0
 47 22  1  0
 49 47  1  0
 50 53  1  0
 50  7  1  0
 53 52  1  1
 53 51  1  0
 54 56  1  0
 54 53  1  0
 55 66  2  0
 56 61  1  0
 57 65  1  0
 57 67  1  0
 58 64  1  0
 58 60  1  0
 59 65  1  0
 60 59  1  0
 61 60  2  0
 62 63  1  0
 62 56  2  0
 63 58  2  0
 64 57  1  0
 65 55  1  0
 67 69  2  0
 68 67  1  0
 70 68  1  0
 71 80  2  0
 71 76  1  0
 72 68  1  0
 72 76  1  0
 73 72  1  0
 74 75  1  0
 74 73  1  0
 75 71  1  0
 76 77  2  0
 77 78  1  0
 79 78  2  0
 80 79  1  0
 81 55  1  0
 81 82  1  0
 81 91  1  0
 82 85  1  0
 83 82  1  0
 83 87  1  0
 84 83  2  0
 87 86  1  0
 87 89  1  0
 89 90  1  0
 89 88  1  0
 91 94  1  1
 91 92  1  0
 93 91  1  0
M  ISO  4  12 100  20 100  53 101  54 101
M  END
>  <TORSDO>  (18) 
F 18

>  <SCORE>  (18) 
-9.170

>  <name>  (18) 
17

>  <ligand_id>  (18) 
17

>  <original_smiles>  (18) 
[H]c1c([H])c([H])c2c(c1[H])C([H])([H])C([H])([H])C([H])([H])C2([H])N([H])C(=O)C1([H])N(C(=O)C([H])(N([H])C(=O)C([H])(N([H])C([H])([H])[H])C([H])([H])[H])C(C([H])([H])[H])(C([H])([H])[H])C([H])([H])[H])C([H])([H])c2c([H])c(OC(C([H])([H])[H])(C([H])([H])[H])C([H])([H])C(=O)N3c4c(C([H])([H])[H])c([H])c(N([H])C(=O)N5C([H])([H])C([H])([H])C([H])([H])C([H])(n6nc(-c7c([H])c([H])c(Oc8c([H])c([H])c(F)c([H])c8F)c([H])c7[H])c(C(=O)N([H])[H])c6N([H])[H])C5([H])[H])c([H])c4C3([H])[H])c([H])c([H])c2C1([H])[H]

>  <smiles>  (18) 
[H]c1c([H])c([H])c2c(c1[H])C([H])([H])C([H])([H])C([H])([H])C2([H])N([H])C(=O)C1([H])N(C(=O)C([H])(N([H])C(=O)C([H])(N([H])C([H])([H])[H])C([H])([H])[H])C(C([H])([H])[H])(C([H])([H])[H])C([H])([H])[H])C([H])([H])c2c([H])c(OC(C([H])([H])[H])(C([H])([H])[H])C([H])([H])C(=O)N3c4c(C([H])([H])[H])c([H])c(N([H])C(=O)N5C([H])([H])C([H])([H])C([H])([H])C([H])(n6nc(-c7c([H])c([H])c(Oc8c([H])c([H])c(F)c([H])c8F)c([H])c7[H])c(C(=O)N([H])[H])c6N([H])[H])C5([H])[H])c([H])c4C3([H])[H])c([H])c([H])c2C1([H])[H]

$$$$
18:0:0
     RDKit          3D

 93102  0  0  1  0  0  0  0  0999 V2000
  -29.2830  -21.3350   21.5880 C   0  0  0  0  0  2  0  0  0  0  0  0
  -30.7570  -21.3800   19.5700 C   0  0  0  0  0  2  0  0  0  0  0  0
  -29.7860  -22.7300   22.0260 C   0  0  0  0  0  2  0  0  0  0  0  0
  -31.2780  -22.7870   19.9610 C   0  0  0  0  0  2  0  0  0  0  0  0
  -30.3530  -20.5430   20.8050 C   0  0  0  0  0  3  0  0  0  0  0  0
  -30.3190  -23.6130   20.8680 C   0  0  0  0  0  3  0  0  0  0  0  0
  -30.4250  -17.9180   21.0210 C   0  0  0  0  0  3  0  0  0  0  0  0
  -28.8620  -18.8630   19.5920 C   0  0  0  0  0  3  0  0  0  0  0  0
  -29.8890  -19.1320   20.4610 C   0  0  0  0  0  0  0  0  0  0  0  0
  -29.7800  -16.7640   20.6180 C   0  0  0  0  0  0  0  0  0  0  0  0
  -28.5240  -17.1580   19.4730 S   0  0  0  0  0  0  0  0  0  0  0  0
  -30.6400  -14.5230   20.4490 C   0  0  0  0  0  0  0  0  0  0  0  0
  -30.3760  -12.3650   19.2830 C   0  0  0  0  0  2  0  0  0  0  0  0
  -29.4290  -12.5840   18.0820 C   0  0  0  0  0  2  0  0  0  0  0  0
  -27.9530  -12.4410   18.5070 C   0  0  0  0  0  2  0  0  0  0  0  0
  -27.6150  -13.2570   19.7820 C   0  0  0  0  0  3  0  0  0  0  0  0
  -28.6680  -13.0060   20.8840 C   0  0  0  0  0  2  0  0  0  0  0  0
  -29.9980  -13.3270   20.3310 N   0  0  0  0  0  0  0  0  0  0  0  0
  -31.7540  -14.7430   19.9590 O   0  0  0  0  0  0  0  0  0  0  0  0
  -29.9320  -15.4880   21.0680 N   0  0  0  0  0  0  0  0  0  0  0  0
  -29.0930  -15.1040   21.4780 H   0  0  0  0  0  0  0  0  0  0  0  0
  -25.2130  -13.8750   20.4810 C   0  0  0  0  0  0  0  0  0  0  0  0
  -24.1420  -13.1040   20.8480 C   0  0  0  0  0  0  0  0  0  0  0  0
  -24.6000  -11.7520   20.8240 C   0  0  0  0  0  0  0  0  0  0  0  0
  -26.2580  -12.9890   20.2560 N   0  0  0  0  0  0  0  0  0  0  0  0
  -25.8910  -11.7090   20.5180 N   0  0  0  0  0  0  0  0  0  0  0  0
  -23.8740  -10.4920   21.0200 C   0  0  0  0  0  0  0  0  0  0  0  0
  -24.3110   -9.5260   21.9530 C   0  0  0  0  0  3  0  0  0  0  0  0
  -23.5860   -8.3280   22.1360 C   0  0  0  0  0  3  0  0  0  0  0  0
  -22.4110   -8.0890   21.3840 C   0  0  0  0  0  0  0  0  0  0  0  0
  -21.9910   -9.0460   20.4440 C   0  0  0  0  0  3  0  0  0  0  0  0
  -22.7160  -10.2350   20.2590 C   0  0  0  0  0  3  0  0  0  0  0  0
  -21.6600   -6.9420   21.4760 O   0  0  0  0  0  0  0  0  0  0  0  0
  -21.6230   -6.1920   22.6240 C   0  0  0  0  0  0  0  0  0  0  0  0
  -21.2140   -6.7420   23.8580 C   0  0  0  0  0  3  0  0  0  0  0  0
  -21.1250   -5.9210   24.9990 C   0  0  0  0  0  3  0  0  0  0  0  0
  -21.4330   -4.5500   24.9060 C   0  0  0  0  0  0  0  0  0  0  0  0
  -21.8340   -3.9980   23.6780 C   0  0  0  0  0  3  0  0  0  0  0  0
  -21.9270   -4.8180   22.5380 C   0  0  0  0  0  0  0  0  0  0  0  0
  -22.2940   -4.2790   21.3500 F   0  0  0  0  0  0  0  0  0  0  0  0
  -21.3380   -3.7590   26.0010 F   0  0  0  0  0  0  0  0  0  0  0  0
  -22.7440  -13.5850   21.1130 C   0  0  0  0  0  0  0  0  0  0  0  0
  -22.0100  -12.8960   21.9790 N   0  0  0  0  0  0  0  0  0  0  0  0
  -22.3100  -14.6100   20.5870 O   0  0  0  0  0  0  0  0  0  0  0  0
  -22.3700  -12.0680   22.4300 H   0  0  0  0  0  0  0  0  0  0  0  0
  -21.0720  -13.2080   22.1930 H   0  0  0  0  0  0  0  0  0  0  0  0
  -25.3830  -15.2450   20.3050 N   0  0  0  0  0  0  0  0  0  0  0  0
  -24.6260  -15.9070   20.4270 H   0  0  0  0  0  0  0  0  0  0  0  0
  -26.2430  -15.6810   19.9950 H   0  0  0  0  0  0  0  0  0  0  0  0
  -29.2370  -24.4330   20.1150 C   0  0  0  0  0  0  0  0  0  0  0  0
  -28.9970  -24.2330   18.9180 O   0  0  0  0  0  0  0  0  0  0  0  0
  -28.4810  -25.5370   20.8880 C   0  0  0  0  0  2  0  0  0  0  0  0
  -28.4570  -26.7680   20.1460 O   0  0  0  0  0  0  0  0  0  0  0  0
  -24.5960  -31.9040   23.2510 C   0  0  0  0  0  0  0  0  0  0  0  0
  -27.2750  -27.4710   20.1910 C   0  0  0  0  0  0  0  0  0  0  0  0
  -23.3970  -30.4930   21.6080 C   0  0  0  0  0  3  0  0  0  0  0  0
  -24.8640  -28.9530   20.1940 C   0  0  0  0  0  0  0  0  0  0  0  0
  -25.9210  -30.8650   21.4130 C   0  0  0  0  0  2  0  0  0  0  0  0
  -26.0160  -29.4920   20.7800 C   0  0  0  0  0  0  0  0  0  0  0  0
  -27.2270  -28.7600   20.7710 C   0  0  0  0  0  3  0  0  0  0  0  0
  -26.1050  -26.9420   19.6080 C   0  0  0  0  0  3  0  0  0  0  0  0
  -24.9010  -27.6750   19.6070 C   0  0  0  0  0  3  0  0  0  0  0  0
  -23.6140  -29.8050   20.2320 C   0  0  0  0  0  2  0  0  0  0  0  0
  -24.6550  -31.1030   22.1490 N   0  0  0  0  0  0  0  0  0  0  0  0
  -23.5130  -32.1750   23.7890 O   0  0  0  0  0  0  0  0  0  0  0  0
  -22.7460  -29.4750   22.5700 C   0  0  0  0  0  0  0  0  0  0  0  0
  -21.4210  -29.2930   22.4420 N   0  0  0  0  0  0  0  0  0  0  0  0
  -23.4290  -28.8490   23.3850 O   0  0  0  0  0  0  0  0  0  0  0  0
  -20.9320  -29.8510   21.7550 H   0  0  0  0  0  0  0  0  0  0  0  0
  -18.0470  -28.1050   22.9420 C   0  0  0  0  0  0  0  0  0  0  0  0
  -20.6040  -28.3570   23.2110 C   0  0  0  0  0  3  0  0  0  0  0  0
  -20.7050  -26.9270   22.6310 C   0  0  0  0  0  2  0  0  0  0  0  0
  -19.6010  -26.6110   21.6170 C   0  0  0  0  0  2  0  0  0  0  0  0
  -18.2200  -26.7570   22.2640 C   0  0  0  0  0  2  0  0  0  0  0  0
  -19.1670  -28.8640   23.3740 C   0  0  0  0  0  0  0  0  0  0  0  0
  -18.9540  -30.1270   23.9670 C   0  0  0  0  0  3  0  0  0  0  0  0
  -17.6500  -30.6300   24.1360 C   0  0  0  0  0  3  0  0  0  0  0  0
  -16.5450  -29.8680   23.7220 C   0  0  0  0  0  3  0  0  0  0  0  0
  -16.7430  -28.6080   23.1310 C   0  0  0  0  0  3  0  0  0  0  0  0
  -25.8800  -32.5380   23.8720 C   0  0  0  0  0  3  0  0  0  0  0  0
  -26.3990  -31.7720   25.1500 C   0  0  1  0  0  0  0  0  0  0  0  0
  -25.3070  -31.5400   26.2210 C   0  0  0  0  0  1  0  0  0  0  0  0
  -26.9790  -30.3910   24.7610 C   0  0  0  0  0  1  0  0  0  0  0  0
  -27.5500  -32.5670   25.8090 C   0  0  0  0  0  1  0  0  0  0  0  0
  -25.5720  -33.9380   24.1950 N   0  0  0  0  0  0  0  0  0  0  0  0
  -25.9090  -34.9860   23.4320 C   0  0  0  0  0  0  0  0  0  0  0  0
  -26.5850  -34.8770   22.4040 O   0  0  0  0  0  0  0  0  0  0  0  0
  -24.9760  -34.0970   24.9940 H   0  0  0  0  0  0  0  0  0  0  0  0
  -24.1850  -36.7770   23.0540 C   0  0  0  0  0  1  0  0  0  0  0  0
  -25.4190  -36.3760   23.8780 C   0  0  0  0  0  3  0  0  0  0  0  0
  -27.5500  -37.2590   24.7210 C   0  0  0  0  0  1  0  0  0  0  0  0
  -26.4520  -37.4300   23.7730 N   0  0  0  0  0  0  0  0  0  0  0  0
  -26.0440  -38.3480   23.9260 H   0  0  0  0  0  0  0  0  0  0  0  0
  1  3  1  0
  2  4  1  0
  2  5  1  0
  4  6  1  0
  5  9  1  0
  5  1  1  0
  6 50  1  0
  6  3  1  0
  8  9  2  0
  9  7  1  0
 10  7  2  0
 10 20  1  0
 11  8  1  0
 11 10  1  0
 12 20  1  0
 13 18  1  0
 14 15  1  0
 14 13  1  0
 16 15  1  0
 16 25  1  0
 16 17  1  0
 18 12  1  0
 18 17  1  0
 19 12  2  0
 20 21  1  0
 22 23  2  0
 23 42  1  0
 24 23  1  0
 24 27  1  0
 25 22  1  0
 25 26  1  0
 26 24  2  0
 27 28  1  0
 28 29  2  0
 30 33  1  0
 30 29  1  0
 31 30  2  0
 32 31  1  0
 32 27  2  0
 33 34  1  0
 34 35  1  0
 35 36  2  0
 37 36  1  0
 37 41  1  0
 38 37  2  0
 39 34  2  0
 39 38  1  0
 40 39  1  0
 42 43  1  0
 43 46  1  0
 43 45  1  0
 44 42  2  0
 47 48  1  0
 47 22  1  0
 49 47  1  0
 50 52  1  0
 51 50  2  0
 53 55  1  0
 53 52  1  0
 54 65  2  0
 55 60  1  0
 56 64  1  0
 56 66  1  0
 57 63  1  0
 57 59  1  0
 58 64  1  0
 59 58  1  0
 60 59  2  0
 61 55  2  0
 62 61  1  0
 62 57  2  0
 63 56  1  0
 64 54  1  0
 66 68  2  0
 67 66  1  0
 69 67  1  0
 70 79  2  0
 70 75  1  0
 71 67  1  0
 71 75  1  0
 72 71  1  0
 73 74  1  0
 73 72  1  0
 74 70  1  0
 75 76  2  0
 76 77  1  0
 78 77  2  0
 79 78  1  0
 80 54  1  0
 80 85  1  0
 80 81  1  0
 81 84  1  1
 81 82  1  0
 83 81  1  0
 85 88  1  0
 86 90  1  0
 86 85  1  0
 87 86  2  0
 90 89  1  0
 92 90  1  0
 92 93  1  0
 92 91  1  0
M  ISO  4  12 100  20 100  52 101  53 101
M  END
>  <TORSDO>  (19) 
F 19

>  <SCORE>  (19) 
-14.691

>  <name>  (19) 
18

>  <ligand_id>  (19) 
18

>  <original_smiles>  (19) 
[H]c1sc(N([H])C(=O)N2C([H])([H])C([H])([H])C([H])([H])C([H])(n3nc(-c4c([H])c([H])c(Oc5c([H])c([H])c(F)c([H])c5F)c([H])c4[H])c(C(=O)N([H])[H])c3N([H])[H])C2([H])[H])c([H])c1C1([H])C([H])([H])C([H])([H])C([H])(C(=O)C([H])([H])Oc2c([H])c([H])c3c(c2[H])C([H])([H])N(C(=O)C([H])(N([H])C(=O)C([H])(N([H])C([H])([H])[H])C([H])([H])[H])C(C([H])([H])[H])(C([H])([H])[H])C([H])([H])[H])C([H])(C(=O)N([H])C2([H])c4c([H])c([H])c([H])c([H])c4C([H])([H])C([H])([H])C2([H])[H])C3([H])[H])C([H])([H])C1([H])[H]

>  <smiles>  (19) 
[H]c1sc(N([H])C(=O)N2C([H])([H])C([H])([H])C([H])([H])C([H])(n3nc(-c4c([H])c([H])c(Oc5c([H])c([H])c(F)c([H])c5F)c([H])c4[H])c(C(=O)N([H])[H])c3N([H])[H])C2([H])[H])c([H])c1C1([H])C([H])([H])C([H])([H])C([H])(C(=O)C([H])([H])Oc2c([H])c([H])c3c(c2[H])C([H])([H])N(C(=O)C([H])(N([H])C(=O)C([H])(N([H])C([H])([H])[H])C([H])([H])[H])C(C([H])([H])[H])(C([H])([H])[H])C([H])([H])[H])C([H])(C(=O)N([H])C2([H])c4c([H])c([H])c([H])c([H])c4C([H])([H])C([H])([H])C2([H])[H])C3([H])[H])C([H])([H])C1([H])[H]

$$$$
19:0:0
     RDKit          3D

 98106  0  0  1  0  0  0  0  0999 V2000
  -30.1710  -21.7690   20.5730 C   0  0  0  0  0  0  0  0  0  0  0  0
  -29.9510  -20.4860   20.9510 N   0  0  0  0  0  0  0  0  0  0  0  0
  -30.2390  -22.1300   19.3940 O   0  0  0  0  0  0  0  0  0  0  0  0
  -29.9520  -20.3560   21.9530 H   0  0  0  0  0  0  0  0  0  0  0  0
  -29.9120  -18.0350   20.8430 C   0  0  0  0  0  3  0  0  0  0  0  0
  -29.6930  -19.2920   18.7610 C   0  0  0  0  0  3  0  0  0  0  0  0
  -29.7240  -16.8570   18.7160 C   0  0  0  0  0  3  0  0  0  0  0  0
  -29.8490  -19.2870   20.1700 C   0  0  0  0  0  0  0  0  0  0  0  0
  -29.8690  -16.8140   20.1220 C   0  0  0  0  0  0  0  0  0  0  0  0
  -29.6350  -18.0850   18.0390 C   0  0  0  0  0  0  0  0  0  0  0  0
  -30.6300  -14.5030   20.3530 C   0  0  0  0  0  0  0  0  0  0  0  0
  -30.3090  -12.3450   19.2280 C   0  0  0  0  0  2  0  0  0  0  0  0
  -29.3530  -12.5750   18.0410 C   0  0  0  0  0  2  0  0  0  0  0  0
  -27.8860  -12.4370   18.4940 C   0  0  0  0  0  2  0  0  0  0  0  0
  -27.5700  -13.2550   19.7760 C   0  0  0  0  0  3  0  0  0  0  0  0
  -28.6470  -13.0270   20.8620 C   0  0  0  0  0  2  0  0  0  0  0  0
  -29.9640  -13.3210   20.2730 N   0  0  0  0  0  0  0  0  0  0  0  0
  -31.7610  -14.6710   19.8890 O   0  0  0  0  0  0  0  0  0  0  0  0
  -29.9140  -15.5530   20.8000 N   0  0  0  0  0  0  0  0  0  0  0  0
  -29.1120  -15.3280   21.3700 H   0  0  0  0  0  0  0  0  0  0  0  0
  -25.1780  -13.8360   20.5290 C   0  0  0  0  0  0  0  0  0  0  0  0
  -24.1230  -13.0530   20.9130 C   0  0  0  0  0  0  0  0  0  0  0  0
  -24.5930  -11.7040   20.8620 C   0  0  0  0  0  0  0  0  0  0  0  0
  -26.2280  -12.9660   20.2750 N   0  0  0  0  0  0  0  0  0  0  0  0
  -25.8790  -11.6780   20.5320 N   0  0  0  0  0  0  0  0  0  0  0  0
  -23.8800  -10.4340   21.0540 C   0  0  0  0  0  0  0  0  0  0  0  0
  -24.3350   -9.4640   21.9740 C   0  0  0  0  0  3  0  0  0  0  0  0
  -23.6230   -8.2590   22.1550 C   0  0  0  0  0  3  0  0  0  0  0  0
  -22.4390   -8.0160   21.4180 C   0  0  0  0  0  0  0  0  0  0  0  0
  -22.0020   -8.9760   20.4890 C   0  0  0  0  0  3  0  0  0  0  0  0
  -22.7150  -10.1720   20.3050 C   0  0  0  0  0  3  0  0  0  0  0  0
  -21.6940   -6.8650   21.5100 O   0  0  0  0  0  0  0  0  0  0  0  0
  -21.6710   -6.1120   22.6570 C   0  0  0  0  0  0  0  0  0  0  0  0
  -21.2490   -6.6490   23.8920 C   0  0  0  0  0  3  0  0  0  0  0  0
  -21.1740   -5.8230   25.0320 C   0  0  0  0  0  3  0  0  0  0  0  0
  -21.5120   -4.4590   24.9360 C   0  0  0  0  0  0  0  0  0  0  0  0
  -21.9270   -3.9210   23.7060 C   0  0  0  0  0  3  0  0  0  0  0  0
  -22.0040   -4.7450   22.5690 C   0  0  0  0  0  0  0  0  0  0  0  0
  -22.3840   -4.2160   21.3820 F   0  0  0  0  0  0  0  0  0  0  0  0
  -21.4330   -3.6630   26.0280 F   0  0  0  0  0  0  0  0  0  0  0  0
  -22.7280  -13.5160   21.2150 C   0  0  0  0  0  0  0  0  0  0  0  0
  -22.0190  -12.8040   22.0860 N   0  0  0  0  0  0  0  0  0  0  0  0
  -22.2740  -14.5410   20.7110 O   0  0  0  0  0  0  0  0  0  0  0  0
  -22.3980  -11.9750   22.5180 H   0  0  0  0  0  0  0  0  0  0  0  0
  -21.0830  -13.0980   22.3270 H   0  0  0  0  0  0  0  0  0  0  0  0
  -25.3310  -15.2080   20.3570 N   0  0  0  0  0  0  0  0  0  0  0  0
  -24.5610  -15.8570   20.4800 H   0  0  0  0  0  0  0  0  0  0  0  0
  -26.1720  -15.6520   20.0080 H   0  0  0  0  0  0  0  0  0  0  0  0
  -29.4890  -18.0990   16.6800 O   0  0  0  0  0  0  0  0  0  0  0  0
  -29.4640  -18.9780   16.3110 H   0  0  0  0  0  0  0  0  0  0  0  0
  -30.1680  -22.2440   23.1090 C   0  0  0  0  0  1  0  0  0  0  0  0
  -31.9180  -23.2260   21.5960 C   0  0  0  0  0  1  0  0  0  0  0  0
  -30.4260  -22.8210   21.6930 C   0  0  1  0  0  0  0  0  0  0  0  0
  -29.4770  -24.0430   21.4890 C   0  0  0  0  0  0  0  0  0  0  0  0
  -28.2550  -23.9130   21.6180 O   0  0  0  0  0  0  0  0  0  0  0  0
  -30.0880  -25.4290   21.1900 C   0  0  0  0  0  2  0  0  0  0  0  0
  -29.1180  -26.6270   21.2610 C   0  0  0  0  0  2  0  0  0  0  0  0
  -28.3320  -26.6990   20.0790 O   0  0  0  0  0  0  0  0  0  0  0  0
  -24.5350  -31.8830   23.2290 C   0  0  0  0  0  0  0  0  0  0  0  0
  -27.2000  -27.4730   20.1420 C   0  0  0  0  0  0  0  0  0  0  0  0
  -23.3360  -30.4880   21.5750 C   0  0  0  0  0  3  0  0  0  0  0  0
  -24.7970  -28.9560   20.1540 C   0  0  0  0  0  0  0  0  0  0  0  0
  -25.8590  -30.8530   21.3900 C   0  0  0  0  0  2  0  0  0  0  0  0
  -25.9490  -29.4830   20.7560 C   0  0  0  0  0  0  0  0  0  0  0  0
  -27.1510  -28.7460   20.7590 C   0  0  0  0  0  3  0  0  0  0  0  0
  -26.0380  -26.9620   19.5300 C   0  0  0  0  0  3  0  0  0  0  0  0
  -24.8340  -27.6900   19.5440 C   0  0  0  0  0  3  0  0  0  0  0  0
  -23.5510  -29.8120   20.1940 C   0  0  0  0  0  2  0  0  0  0  0  0
  -24.5950  -31.0880   22.1230 N   0  0  0  0  0  0  0  0  0  0  0  0
  -23.4520  -32.1570   23.7640 O   0  0  0  0  0  0  0  0  0  0  0  0
  -22.6830  -29.4620   22.5290 C   0  0  0  0  0  0  0  0  0  0  0  0
  -21.3590  -29.2820   22.3940 N   0  0  0  0  0  0  0  0  0  0  0  0
  -23.3640  -28.8320   23.3420 O   0  0  0  0  0  0  0  0  0  0  0  0
  -20.8740  -29.8440   21.7090 H   0  0  0  0  0  0  0  0  0  0  0  0
  -17.9760  -28.1200   22.8880 C   0  0  0  0  0  0  0  0  0  0  0  0
  -20.5360  -28.3440   23.1560 C   0  0  0  0  0  3  0  0  0  0  0  0
  -20.6220  -26.9200   22.5610 C   0  0  0  0  0  2  0  0  0  0  0  0
  -19.5130  -26.6230   21.5460 C   0  0  0  0  0  2  0  0  0  0  0  0
  -18.1350  -26.7760   22.1960 C   0  0  0  0  0  2  0  0  0  0  0  0
  -19.1040  -28.8630   23.3240 C   0  0  0  0  0  0  0  0  0  0  0  0
  -18.9020  -30.1220   23.9290 C   0  0  0  0  0  3  0  0  0  0  0  0
  -17.6040  -30.6370   24.1040 C   0  0  0  0  0  3  0  0  0  0  0  0
  -16.4890  -29.8910   23.6840 C   0  0  0  0  0  3  0  0  0  0  0  0
  -16.6760  -28.6340   23.0820 C   0  0  0  0  0  3  0  0  0  0  0  0
  -25.8220  -32.5080   23.8560 C   0  0  0  0  0  3  0  0  0  0  0  0
  -25.5200  -33.9090   24.1770 N   0  0  0  0  0  0  0  0  0  0  0  0
  -25.8740  -34.9570   23.4200 C   0  0  0  0  0  0  0  0  0  0  0  0
  -26.5620  -34.8440   22.4010 O   0  0  0  0  0  0  0  0  0  0  0  0
  -24.9110  -34.0700   24.9660 H   0  0  0  0  0  0  0  0  0  0  0  0
  -24.1760  -36.7650   23.0160 C   0  0  0  0  0  1  0  0  0  0  0  0
  -25.3890  -36.3500   23.8630 C   0  0  0  0  0  3  0  0  0  0  0  0
  -27.5090  -37.2110   24.7550 C   0  0  0  0  0  1  0  0  0  0  0  0
  -26.4370  -37.3910   23.7810 N   0  0  0  0  0  0  0  0  0  0  0  0
  -26.0370  -38.3150   23.9170 H   0  0  0  0  0  0  0  0  0  0  0  0
  -26.3290  -31.7370   25.1350 C   0  0  1  0  0  0  0  0  0  0  0  0
  -25.2290  -31.5060   26.1970 C   0  0  0  0  0  1  0  0  0  0  0  0
  -26.9080  -30.3570   24.7450 C   0  0  0  0  0  1  0  0  0  0  0  0
  -27.4790  -32.5270   25.8030 C   0  0  0  0  0  1  0  0  0  0  0  0
  1  2  1  0
  1 53  1  0
  2  4  1  0
  3  1  2  0
  6  8  2  0
  7  9  1  0
  8  5  1  0
  8  2  1  0
  9 19  1  0
  9  5  2  0
 10  7  2  0
 10  6  1  0
 11 19  1  0
 12 17  1  0
 13 14  1  0
 13 12  1  0
 15 14  1  0
 15 24  1  0
 15 16  1  0
 17 11  1  0
 17 16  1  0
 18 11  2  0
 19 20  1  0
 21 22  2  0
 22 41  1  0
 23 22  1  0
 23 26  1  0
 24 21  1  0
 24 25  1  0
 25 23  2  0
 26 27  1  0
 27 28  2  0
 29 32  1  0
 29 28  1  0
 30 29  2  0
 31 30  1  0
 31 26  2  0
 32 33  1  0
 33 34  1  0
 34 35  2  0
 36 35  1  0
 36 40  1  0
 37 36  2  0
 38 33  2  0
 38 37  1  0
 39 38  1  0
 41 42  1  0
 42 45  1  0
 42 44  1  0
 43 41  2  0
 46 47  1  0
 46 21  1  0
 48 46  1  0
 49 10  1  0
 50 49  1  0
 53 52  1  1
 53 51  1  0
 54 55  2  0
 54 53  1  0
 56 57  1  0
 56 54  1  0
 58 60  1  0
 58 57  1  0
 59 70  2  0
 60 65  1  0
 61 69  1  0
 61 71  1  0
 62 68  1  0
 62 64  1  0
 63 69  1  0
 64 65  2  0
 64 63  1  0
 66 67  1  0
 66 60  2  0
 67 62  2  0
 68 61  1  0
 69 59  1  0
 71 73  2  0
 72 71  1  0
 74 72  1  0
 75 84  2  0
 75 80  1  0
 76 72  1  0
 76 80  1  0
 77 76  1  0
 78 79  1  0
 78 77  1  0
 79 75  1  0
 80 81  2  0
 81 82  1  0
 83 82  2  0
 84 83  1  0
 85 59  1  0
 85 86  1  0
 85 95  1  0
 86 89  1  0
 87 91  1  0
 87 86  1  0
 88 87  2  0
 91 90  1  0
 93 91  1  0
 93 94  1  0
 93 92  1  0
 95 98  1  1
 95 96  1  0
 97 95  1  0
M  ISO  4  11 100  19 100  57 101  58 101
M  END
>  <TORSDO>  (20) 
F 22

>  <SCORE>  (20) 
-13.015

>  <name>  (20) 
19

>  <ligand_id>  (20) 
19

>  <original_smiles>  (20) 
[H]Oc1c([H])c(N([H])C(=O)N2C([H])([H])C([H])([H])C([H])([H])C([H])(n3nc(-c4c([H])c([H])c(Oc5c([H])c([H])c(F)c([H])c5F)c([H])c4[H])c(C(=O)N([H])[H])c3N([H])[H])C2([H])[H])c([H])c(N([H])C(=O)C(C(=O)C([H])([H])C([H])([H])Oc2c([H])c([H])c3c(c2[H])C([H])([H])N(C(=O)C([H])(N([H])C(=O)C([H])(N([H])C([H])([H])[H])C([H])([H])[H])C(C([H])([H])[H])(C([H])([H])[H])C([H])([H])[H])C([H])(C(=O)N([H])C2([H])c4c([H])c([H])c([H])c([H])c4C([H])([H])C([H])([H])C2([H])[H])C3([H])[H])(C([H])([H])[H])C([H])([H])[H])c1[H]

>  <smiles>  (20) 
[H]Oc1c([H])c(N([H])C(=O)N2C([H])([H])C([H])([H])C([H])([H])C([H])(n3nc(-c4c([H])c([H])c(Oc5c([H])c([H])c(F)c([H])c5F)c([H])c4[H])c(C(=O)N([H])[H])c3N([H])[H])C2([H])[H])c([H])c(N([H])C(=O)C(C(=O)C([H])([H])C([H])([H])Oc2c([H])c([H])c3c(c2[H])C([H])([H])N(C(=O)C([H])(N([H])C(=O)C([H])(N([H])C([H])([H])[H])C([H])([H])[H])C(C([H])([H])[H])(C([H])([H])[H])C([H])([H])[H])C([H])(C(=O)N([H])C2([H])c4c([H])c([H])c([H])c([H])c4C([H])([H])C([H])([H])C2([H])[H])C3([H])[H])(C([H])([H])[H])C([H])([H])[H])c1[H]

$$$$
20:0:0
     RDKit          3D

 96105  0  0  1  0  0  0  0  0999 V2000
  -30.8320  -20.6590   20.4770 C   0  0  0  0  0  3  0  0  0  0  0  0
  -30.5990  -24.3730   21.0000 C   0  0  0  0  0  2  0  0  0  0  0  0
  -31.4050  -23.0740   20.8490 C   0  0  0  0  0  2  0  0  0  0  0  0
  -29.0750  -22.6210   20.5580 C   0  0  0  0  0  2  0  0  0  0  0  0
  -29.3110  -24.1410   20.2000 C   0  0  2  0  0  0  0  0  0  0  0  0
  -29.5530  -24.2810   18.6790 C   0  0  0  0  0  1  0  0  0  0  0  0
  -30.4320  -21.9790   20.5930 N   0  0  0  0  0  0  0  0  0  0  0  0
  -32.1430  -20.4290   20.5610 N   0  0  0  0  0  0  0  0  0  0  0  0
  -32.4870  -19.5020   20.3550 H   0  0  0  0  0  0  0  0  0  0  0  0
  -32.8160  -21.1640   20.6970 H   0  0  0  0  0  0  0  0  0  0  0  0
  -28.3010  -18.3180   18.8580 C   0  0  0  0  0  3  0  0  0  0  0  0
  -28.9870  -19.4860   19.2380 C   0  0  0  0  0  3  0  0  0  0  0  0
  -28.6400  -17.0730   19.4180 C   0  0  0  0  0  3  0  0  0  0  0  0
  -30.3270  -18.1540   20.7910 C   0  0  0  0  0  3  0  0  0  0  0  0
  -30.0090  -19.4340   20.2090 C   0  0  0  0  0  0  0  0  0  0  0  0
  -29.6580  -16.9500   20.3860 C   0  0  0  0  0  0  0  0  0  0  0  0
  -30.5890  -14.6140   20.4520 C   0  0  0  0  0  0  0  0  0  0  0  0
  -30.3600  -12.4070   19.3520 C   0  0  0  0  0  2  0  0  0  0  0  0
  -29.4140  -12.5540   18.1380 C   0  0  0  0  0  2  0  0  0  0  0  0
  -27.9440  -12.3800   18.5710 C   0  0  0  0  0  2  0  0  0  0  0  0
  -27.5840  -13.2280   19.8190 C   0  0  0  0  0  3  0  0  0  0  0  0
  -28.6400  -13.0650   20.9350 C   0  0  0  0  0  2  0  0  0  0  0  0
  -29.9580  -13.4020   20.3670 N   0  0  0  0  0  0  0  0  0  0  0  0
  -31.7210  -14.7920   19.9890 O   0  0  0  0  0  0  0  0  0  0  0  0
  -29.8690  -15.6430   20.9800 N   0  0  0  0  0  0  0  0  0  0  0  0
  -29.0440  -15.2850   21.4380 H   0  0  0  0  0  0  0  0  0  0  0  0
  -25.1830  -13.8500   20.5010 C   0  0  0  0  0  0  0  0  0  0  0  0
  -24.1080  -13.0840   20.8670 C   0  0  0  0  0  0  0  0  0  0  0  0
  -24.5700  -11.7320   20.8510 C   0  0  0  0  0  0  0  0  0  0  0  0
  -26.2280  -12.9640   20.2910 N   0  0  0  0  0  0  0  0  0  0  0  0
  -25.8610  -11.6850   20.5540 N   0  0  0  0  0  0  0  0  0  0  0  0
  -23.8390  -10.4730   21.0430 C   0  0  0  0  0  0  0  0  0  0  0  0
  -24.2730   -9.5020   21.9730 C   0  0  0  0  0  3  0  0  0  0  0  0
  -23.5440   -8.3070   22.1540 C   0  0  0  0  0  3  0  0  0  0  0  0
  -22.3660   -8.0790   21.4030 C   0  0  0  0  0  0  0  0  0  0  0  0
  -21.9510   -9.0360   20.4610 C   0  0  0  0  0  3  0  0  0  0  0  0
  -22.6820  -10.2200   20.2800 C   0  0  0  0  0  3  0  0  0  0  0  0
  -21.6110   -6.9310   21.4900 O   0  0  0  0  0  0  0  0  0  0  0  0
  -21.5720   -6.1820   22.6390 C   0  0  0  0  0  0  0  0  0  0  0  0
  -21.1720   -6.7310   23.8760 C   0  0  0  0  0  3  0  0  0  0  0  0
  -21.0810   -5.9090   25.0170 C   0  0  0  0  0  3  0  0  0  0  0  0
  -21.3830   -4.5370   24.9210 C   0  0  0  0  0  0  0  0  0  0  0  0
  -21.7800   -3.9870   23.6880 C   0  0  0  0  0  3  0  0  0  0  0  0
  -21.8720   -4.8080   22.5510 C   0  0  0  0  0  0  0  0  0  0  0  0
  -22.2330   -4.2690   21.3610 F   0  0  0  0  0  0  0  0  0  0  0  0
  -21.2900   -3.7450   26.0120 F   0  0  0  0  0  0  0  0  0  0  0  0
  -22.7100  -13.5680   21.1270 C   0  0  0  0  0  0  0  0  0  0  0  0
  -21.9730  -12.8790   21.9910 N   0  0  0  0  0  0  0  0  0  0  0  0
  -22.2800  -14.5960   20.6040 O   0  0  0  0  0  0  0  0  0  0  0  0
  -22.3330  -12.0490   22.4380 H   0  0  0  0  0  0  0  0  0  0  0  0
  -21.0370  -13.1850   22.2110 H   0  0  0  0  0  0  0  0  0  0  0  0
  -25.3560  -15.2180   20.3090 N   0  0  0  0  0  0  0  0  0  0  0  0
  -24.6000  -15.8870   20.4120 H   0  0  0  0  0  0  0  0  0  0  0  0
  -26.2200  -15.6430   20.0050 H   0  0  0  0  0  0  0  0  0  0  0  0
  -28.1650  -25.1480   20.6030 C   0  0  0  0  0  2  0  0  0  0  0  0
  -28.3510  -26.5610   20.2320 O   0  0  0  0  0  0  0  0  0  0  0  0
  -24.5910  -31.9020   23.2190 C   0  0  0  0  0  0  0  0  0  0  0  0
  -27.2130  -27.3660   20.1940 C   0  0  0  0  0  0  0  0  0  0  0  0
  -23.3850  -30.4950   21.5840 C   0  0  0  0  0  3  0  0  0  0  0  0
  -24.8380  -28.9430   20.1680 C   0  0  0  0  0  0  0  0  0  0  0  0
  -25.9180  -30.8280   21.3920 C   0  0  0  0  0  2  0  0  0  0  0  0
  -26.0010  -29.4470   20.7640 C   0  0  0  0  0  0  0  0  0  0  0  0
  -27.1930  -28.6690   20.7690 C   0  0  0  0  0  3  0  0  0  0  0  0
  -26.0330  -26.9100   19.5630 C   0  0  0  0  0  3  0  0  0  0  0  0
  -24.8540  -27.6800   19.5560 C   0  0  0  0  0  3  0  0  0  0  0  0
  -23.5980  -29.8110   20.2070 C   0  0  0  0  0  2  0  0  0  0  0  0
  -24.6490  -31.0920   22.1230 N   0  0  0  0  0  0  0  0  0  0  0  0
  -23.5090  -32.1810   23.7560 O   0  0  0  0  0  0  0  0  0  0  0  0
  -22.7270  -29.4810   22.5470 C   0  0  0  0  0  0  0  0  0  0  0  0
  -21.4000  -29.3100   22.4270 N   0  0  0  0  0  0  0  0  0  0  0  0
  -23.4070  -28.8520   23.3630 O   0  0  0  0  0  0  0  0  0  0  0  0
  -20.9110  -29.8690   21.7410 H   0  0  0  0  0  0  0  0  0  0  0  0
  -18.0170  -28.1420   22.9420 C   0  0  0  0  0  0  0  0  0  0  0  0
  -20.5780  -28.3790   23.2010 C   0  0  0  0  0  3  0  0  0  0  0  0
  -20.6680  -26.9460   22.6270 C   0  0  0  0  0  2  0  0  0  0  0  0
  -19.5580  -26.6320   21.6170 C   0  0  0  0  0  2  0  0  0  0  0  0
  -18.1810  -26.7920   22.2650 C   0  0  0  0  0  2  0  0  0  0  0  0
  -19.1450  -28.8940   23.3670 C   0  0  0  0  0  0  0  0  0  0  0  0
  -18.9410  -30.1590   23.9600 C   0  0  0  0  0  3  0  0  0  0  0  0
  -17.6410  -30.6710   24.1340 C   0  0  0  0  0  3  0  0  0  0  0  0
  -16.5280  -29.9160   23.7260 C   0  0  0  0  0  3  0  0  0  0  0  0
  -16.7180  -28.6540   23.1350 C   0  0  0  0  0  3  0  0  0  0  0  0
  -25.8780  -32.5340   23.8350 C   0  0  0  0  0  3  0  0  0  0  0  0
  -25.5680  -33.9300   24.1750 N   0  0  0  0  0  0  0  0  0  0  0  0
  -25.8940  -34.9860   23.4190 C   0  0  0  0  0  0  0  0  0  0  0  0
  -26.5590  -34.8890   22.3830 O   0  0  0  0  0  0  0  0  0  0  0  0
  -24.9860  -34.0780   24.9850 H   0  0  0  0  0  0  0  0  0  0  0  0
  -24.1650  -36.7790   23.0690 C   0  0  0  0  0  1  0  0  0  0  0  0
  -25.4030  -36.3710   23.8840 C   0  0  0  0  0  3  0  0  0  0  0  0
  -27.5380  -37.2510   24.7220 C   0  0  0  0  0  1  0  0  0  0  0  0
  -26.4350  -37.4250   23.7810 N   0  0  0  0  0  0  0  0  0  0  0  0
  -26.0270  -38.3430   23.9390 H   0  0  0  0  0  0  0  0  0  0  0  0
  -26.4030  -31.7560   25.1030 C   0  0  1  0  0  0  0  0  0  0  0  0
  -25.3160  -31.5150   26.1760 C   0  0  0  0  0  1  0  0  0  0  0  0
  -26.9820  -30.3780   24.7010 C   0  0  0  0  0  1  0  0  0  0  0  0
  -27.5560  -32.5460   25.7650 C   0  0  0  0  0  1  0  0  0  0  0  0
  1  8  1  0
  1  7  1  0
  3  2  1  0
  4  7  1  0
  5  6  1  6
  5  4  1  0
  5 55  1  0
  5  2  1  0
  7  3  1  0
  8 10  1  0
  9  8  1  0
 11 12  2  0
 11 13  1  0
 12 15  1  0
 13 16  2  0
 15  1  1  0
 15 14  2  0
 16 14  1  0
 16 25  1  0
 17 25  1  0
 18 23  1  0
 19 20  1  0
 19 18  1  0
 21 20  1  0
 21 30  1  0
 21 22  1  0
 23 17  1  0
 23 22  1  0
 24 17  2  0
 25 26  1  0
 27 28  2  0
 28 47  1  0
 29 28  1  0
 29 32  1  0
 30 27  1  0
 30 31  1  0
 31 29  2  0
 32 33  1  0
 33 34  2  0
 35 38  1  0
 35 34  1  0
 36 35  2  0
 37 36  1  0
 37 32  2  0
 38 39  1  0
 39 40  1  0
 40 41  2  0
 42 41  1  0
 42 46  1  0
 43 42  2  0
 44 39  2  0
 44 43  1  0
 45 44  1  0
 47 48  1  0
 48 51  1  0
 48 50  1  0
 49 47  2  0
 52 53  1  0
 52 27  1  0
 54 52  1  0
 56 55  1  0
 57 68  2  0
 58 56  1  0
 58 63  1  0
 59 67  1  0
 59 69  1  0
 60 66  1  0
 60 62  1  0
 61 67  1  0
 62 63  2  0
 62 61  1  0
 64 58  2  0
 65 64  1  0
 65 60  2  0
 66 59  1  0
 67 57  1  0
 69 71  2  0
 70 69  1  0
 72 70  1  0
 73 82  2  0
 73 78  1  0
 74 70  1  0
 74 78  1  0
 75 74  1  0
 76 77  1  0
 76 75  1  0
 77 73  1  0
 78 79  2  0
 79 80  1  0
 81 80  2  0
 82 81  1  0
 83 57  1  0
 83 84  1  0
 83 93  1  0
 84 87  1  0
 85 89  1  0
 85 84  1  0
 86 85  2  0
 89 88  1  0
 91 89  1  0
 91 92  1  0
 91 90  1  0
 93 96  1  1
 93 94  1  0
 95 93  1  0
M  ISO  4  17 100  25 100  55 101  56 101
M  END
>  <TORSDO>  (21) 
F 18

>  <SCORE>  (21) 
-15.053

>  <name>  (21) 
20

>  <ligand_id>  (21) 
20

>  <original_smiles>  (21) 
[H]c1c([H])c(C(N2C([H])([H])C([H])([H])C(C([H])([H])[H])(C([H])([H])Oc3c([H])c([H])c4c(c3[H])C([H])([H])N(C(=O)C([H])(N([H])C(=O)C([H])(N([H])C([H])([H])[H])C([H])([H])[H])C(C([H])([H])[H])(C([H])([H])[H])C([H])([H])[H])C([H])(C(=O)N([H])C3([H])c5c([H])c([H])c([H])c([H])c5C([H])([H])C([H])([H])C3([H])[H])C4([H])[H])C2([H])[H])=[N+]([H])[H])c([H])c(N([H])C(=O)N2C([H])([H])C([H])([H])C([H])([H])C([H])(n3nc(-c4c([H])c([H])c(Oc5c([H])c([H])c(F)c([H])c5F)c([H])c4[H])c(C(=O)N([H])[H])c3N([H])[H])C2([H])[H])c1[H]

>  <smiles>  (21) 
[H]c1c([H])c(C(N2C([H])([H])C([H])([H])C(C([H])([H])[H])(C([H])([H])Oc3c([H])c([H])c4c(c3[H])C([H])([H])N(C(=O)C([H])(N([H])C(=O)C([H])(N([H])C([H])([H])[H])C([H])([H])[H])C(C([H])([H])[H])(C([H])([H])[H])C([H])([H])[H])C([H])(C(=O)N([H])C3([H])c5c([H])c([H])c([H])c([H])c5C([H])([H])C([H])([H])C3([H])[H])C4([H])[H])C2([H])[H])=[N+]([H])[H])c([H])c(N([H])C(=O)N2C([H])([H])C([H])([H])C([H])([H])C([H])(n3nc(-c4c([H])c([H])c(Oc5c([H])c([H])c(F)c([H])c5F)c([H])c4[H])c(C(=O)N([H])[H])c3N([H])[H])C2([H])[H])c1[H]

$$$$
21:0:0
     RDKit          3D

 96104  0  0  1  0  0  0  0  0999 V2000
  -29.9330  -21.7290   24.5700 C   0  0  0  0  0  1  0  0  0  0  0  0
  -31.2950  -23.1420   23.0070 C   0  0  0  0  0  1  0  0  0  0  0  0
  -30.0610  -22.2150   23.1040 C   0  0  2  0  0  0  0  0  0  0  0  0
  -28.3010  -24.0880   23.6970 C   0  0  0  0  0  1  0  0  0  0  0  0
  -28.7600  -23.0030   22.6930 C   0  0  0  0  0  3  0  0  0  0  0  0
  -28.6910  -23.4860   21.2060 C   0  0  0  0  0  2  0  0  0  0  0  0
  -29.0950  -24.9310   20.8430 C   0  0  0  0  0  0  0  0  0  0  0  0
  -29.6540  -25.6940   21.6380 O   0  0  0  0  0  0  0  0  0  0  0  0
  -28.7780  -25.3850   19.4110 C   0  0  0  0  0  2  0  0  0  0  0  0
  -28.7060  -26.8180   19.3380 O   0  0  0  0  0  0  0  0  0  0  0  0
  -24.8880  -31.5290   23.0490 C   0  0  0  0  0  0  0  0  0  0  0  0
  -27.4830  -27.4440   19.4740 C   0  0  0  0  0  0  0  0  0  0  0  0
  -23.6340  -30.2380   21.3530 C   0  0  0  0  0  3  0  0  0  0  0  0
  -25.0490  -28.8660   19.7360 C   0  0  0  0  0  0  0  0  0  0  0  0
  -26.1350  -30.6850   21.0640 C   0  0  0  0  0  2  0  0  0  0  0  0
  -26.2200  -29.3750   20.3070 C   0  0  0  0  0  0  0  0  0  0  0  0
  -27.4370  -28.6710   20.1730 C   0  0  0  0  0  3  0  0  0  0  0  0
  -26.2890  -26.9460   18.9010 C   0  0  0  0  0  3  0  0  0  0  0  0
  -25.0770  -27.6480   19.0330 C   0  0  0  0  0  3  0  0  0  0  0  0
  -23.7890  -29.6820   19.9120 C   0  0  0  0  0  2  0  0  0  0  0  0
  -24.9060  -30.8280   21.8810 N   0  0  0  0  0  0  0  0  0  0  0  0
  -23.8300  -31.7260   23.6610 O   0  0  0  0  0  0  0  0  0  0  0  0
  -23.0560  -29.1210   22.2500 C   0  0  0  0  0  0  0  0  0  0  0  0
  -21.7410  -28.8820   22.1350 N   0  0  0  0  0  0  0  0  0  0  0  0
  -23.7890  -28.4740   23.0050 O   0  0  0  0  0  0  0  0  0  0  0  0
  -21.2110  -29.4580   21.4960 H   0  0  0  0  0  0  0  0  0  0  0  0
  -18.4490  -27.4540   22.5580 C   0  0  0  0  0  0  0  0  0  0  0  0
  -20.9850  -27.8530   22.8490 C   0  0  0  0  0  3  0  0  0  0  0  0
  -21.1750  -26.4670   22.1920 C   0  0  0  0  0  2  0  0  0  0  0  0
  -20.0930  -26.1330   21.1600 C   0  0  0  0  0  2  0  0  0  0  0  0
  -18.7070  -26.1570   21.8080 C   0  0  0  0  0  2  0  0  0  0  0  0
  -19.5190  -28.2580   23.0320 C   0  0  0  0  0  0  0  0  0  0  0  0
  -19.2240  -29.4710   23.6910 C   0  0  0  0  0  3  0  0  0  0  0  0
  -17.8920  -29.8850   23.8780 C   0  0  0  0  0  3  0  0  0  0  0  0
  -16.8360  -29.0770   23.4230 C   0  0  0  0  0  3  0  0  0  0  0  0
  -17.1150  -27.8620   22.7700 C   0  0  0  0  0  3  0  0  0  0  0  0
  -26.1910  -32.1360   23.6590 C   0  0  0  0  0  3  0  0  0  0  0  0
  -25.8740  -33.5000   24.1000 N   0  0  0  0  0  0  0  0  0  0  0  0
  -26.1780  -34.6110   23.4130 C   0  0  0  0  0  0  0  0  0  0  0  0
  -26.8270  -34.5930   22.3640 O   0  0  0  0  0  0  0  0  0  0  0  0
  -25.2970  -33.5850   24.9230 H   0  0  0  0  0  0  0  0  0  0  0  0
  -24.4250  -36.4010   23.2240 C   0  0  0  0  0  1  0  0  0  0  0  0
  -25.6850  -35.9540   23.9810 C   0  0  0  0  0  3  0  0  0  0  0  0
  -27.8240  -36.7990   24.8400 C   0  0  0  0  0  1  0  0  0  0  0  0
  -26.7050  -37.0240   23.9300 N   0  0  0  0  0  0  0  0  0  0  0  0
  -26.2920  -37.9270   24.1540 H   0  0  0  0  0  0  0  0  0  0  0  0
  -26.7760  -31.2840   24.8500 C   0  0  1  0  0  0  0  0  0  0  0  0
  -25.7340  -30.9410   25.9430 C   0  0  0  0  0  1  0  0  0  0  0  0
  -27.3690  -29.9550   24.3280 C   0  0  0  0  0  1  0  0  0  0  0  0
  -27.9410  -32.0520   25.5200 C   0  0  0  0  0  1  0  0  0  0  0  0
  -30.1920  -20.9560   22.1710 C   0  0  0  0  0  2  0  0  0  0  0  0
  -31.5170  -20.1620   22.1610 C   0  0  0  0  0  0  0  0  0  0  0  0
  -32.5940  -20.6940   22.4450 O   0  0  0  0  0  0  0  0  0  0  0  0
  -30.3880  -17.8330   21.4830 C   0  0  0  0  0  3  0  0  0  0  0  0
  -32.6140  -18.0180   21.5550 C   0  0  0  0  0  3  0  0  0  0  0  0
  -31.4620  -18.7380   21.7520 C   0  0  0  0  0  0  0  0  0  0  0  0
  -30.9900  -16.6700   21.0880 C   0  0  0  0  0  0  0  0  0  0  0  0
  -32.3460  -16.7540   21.1350 O   0  0  0  0  0  0  0  0  0  0  0  0
  -30.8430  -14.6230   19.8610 C   0  0  0  0  0  0  0  0  0  0  0  0
  -30.4030  -12.5010   18.6850 C   0  0  0  0  0  2  0  0  0  0  0  0
  -29.3570  -12.6990   17.5730 C   0  0  0  0  0  2  0  0  0  0  0  0
  -27.9320  -12.5460   18.1340 C   0  0  0  0  0  2  0  0  0  0  0  0
  -27.7030  -13.3860   19.4200 C   0  0  0  0  0  3  0  0  0  0  0  0
  -28.8510  -13.1760   20.4320 C   0  0  0  0  0  2  0  0  0  0  0  0
  -30.1220  -13.4770   19.7480 N   0  0  0  0  0  0  0  0  0  0  0  0
  -31.8530  -14.8430   19.1820 O   0  0  0  0  0  0  0  0  0  0  0  0
  -30.3430  -15.5490   20.6940 N   0  0  0  0  0  0  0  0  0  0  0  0
  -29.4240  -15.3810   21.0720 H   0  0  0  0  0  0  0  0  0  0  0  0
  -25.3890  -13.9780   20.3830 C   0  0  0  0  0  0  0  0  0  0  0  0
  -24.3560  -13.1950   20.8220 C   0  0  0  0  0  0  0  0  0  0  0  0
  -24.7980  -11.8430   20.6900 C   0  0  0  0  0  0  0  0  0  0  0  0
  -26.3990  -13.1000   20.0150 N   0  0  0  0  0  0  0  0  0  0  0  0
  -26.0510  -11.8100   20.2540 N   0  0  0  0  0  0  0  0  0  0  0  0
  -24.0820  -10.5770   20.8980 C   0  0  0  0  0  0  0  0  0  0  0  0
  -24.5450   -9.6090   21.8160 C   0  0  0  0  0  3  0  0  0  0  0  0
  -23.8290   -8.4090   22.0100 C   0  0  0  0  0  3  0  0  0  0  0  0
  -22.6360   -8.1690   21.2890 C   0  0  0  0  0  0  0  0  0  0  0  0
  -22.1930   -9.1270   20.3590 C   0  0  0  0  0  3  0  0  0  0  0  0
  -22.9100  -10.3180   20.1610 C   0  0  0  0  0  3  0  0  0  0  0  0
  -21.8880   -7.0210   21.3950 O   0  0  0  0  0  0  0  0  0  0  0  0
  -21.8280   -6.3070   22.5650 C   0  0  0  0  0  0  0  0  0  0  0  0
  -21.3680   -6.8850   23.7680 C   0  0  0  0  0  3  0  0  0  0  0  0
  -21.2550   -6.0960   24.9300 C   0  0  0  0  0  3  0  0  0  0  0  0
  -21.5930   -4.7300   24.8900 C   0  0  0  0  0  0  0  0  0  0  0  0
  -22.0460   -4.1520   23.6920 C   0  0  0  0  0  3  0  0  0  0  0  0
  -22.1610   -4.9370   22.5320 C   0  0  0  0  0  0  0  0  0  0  0  0
  -22.5780   -4.3700   21.3750 F   0  0  0  0  0  0  0  0  0  0  0  0
  -21.4780   -3.9700   26.0040 F   0  0  0  0  0  0  0  0  0  0  0  0
  -22.9970  -13.6680   21.2530 C   0  0  0  0  0  0  0  0  0  0  0  0
  -22.3620  -12.9520   22.1760 N   0  0  0  0  0  0  0  0  0  0  0  0
  -22.5100  -14.7050   20.8060 O   0  0  0  0  0  0  0  0  0  0  0  0
  -22.7720  -12.1130   22.5570 H   0  0  0  0  0  0  0  0  0  0  0  0
  -21.4550  -13.2510   22.5040 H   0  0  0  0  0  0  0  0  0  0  0  0
  -25.5490  -15.3530   20.2470 N   0  0  0  0  0  0  0  0  0  0  0  0
  -24.7990  -16.0030   20.4540 H   0  0  0  0  0  0  0  0  0  0  0  0
  -26.3640  -15.8020   19.8500 H   0  0  0  0  0  0  0  0  0  0  0  0
  3  2  1  1
  3  1  1  0
  5  3  1  0
  5  4  1  0
  6  5  1  0
  7  6  1  0
  7  8  2  0
  9  7  1  0
 10  9  1  0
 10 12  1  0
 11 22  2  0
 12 17  1  0
 13 21  1  0
 13 23  1  0
 14 20  1  0
 14 16  1  0
 15 21  1  0
 16 15  1  0
 17 16  2  0
 18 19  1  0
 18 12  2  0
 19 14  2  0
 20 13  1  0
 21 11  1  0
 23 25  2  0
 24 23  1  0
 26 24  1  0
 27 36  2  0
 27 32  1  0
 28 24  1  0
 28 32  1  0
 29 28  1  0
 30 31  1  0
 30 29  1  0
 31 27  1  0
 32 33  2  0
 33 34  1  0
 35 34  2  0
 36 35  1  0
 37 11  1  0
 37 38  1  0
 37 47  1  0
 38 41  1  0
 39 43  1  0
 39 38  1  0
 40 39  2  0
 43 42  1  0
 45 43  1  0
 45 46  1  0
 45 44  1  0
 47 50  1  1
 47 48  1  0
 49 47  1  0
 51  3  1  0
 52 51  1  0
 52 53  2  0
 54 56  1  0
 55 56  2  0
 56 52  1  0
 57 58  1  0
 57 54  2  0
 58 55  1  0
 59 67  1  0
 60 65  1  0
 61 62  1  0
 61 60  1  0
 63 62  1  0
 63 72  1  0
 63 64  1  0
 65 59  1  0
 65 64  1  0
 66 59  2  0
 67 68  1  0
 67 57  1  0
 69 70  2  0
 70 89  1  0
 71 70  1  0
 71 74  1  0
 72 73  1  0
 72 69  1  0
 73 71  2  0
 74 75  1  0
 75 76  2  0
 77 80  1  0
 77 76  1  0
 78 77  2  0
 79 78  1  0
 79 74  2  0
 80 81  1  0
 81 82  1  0
 82 83  2  0
 84 83  1  0
 84 88  1  0
 85 84  2  0
 86 81  2  0
 86 85  1  0
 87 86  1  0
 89 90  1  0
 90 93  1  0
 90 92  1  0
 91 89  2  0
 94 69  1  0
 94 95  1  0
 96 94  1  0
M  ISO  4   9 101  10 101  59 100  67 100
M  END
>  <TORSDO>  (22) 
F 23

>  <SCORE>  (22) 
-8.611

>  <name>  (22) 
21

>  <ligand_id>  (22) 
21

>  <original_smiles>  (22) 
[H]c1oc(N([H])C(=O)N2C([H])([H])C([H])([H])C([H])([H])C([H])(n3nc(-c4c([H])c([H])c(Oc5c([H])c([H])c(F)c([H])c5F)c([H])c4[H])c(C(=O)N([H])[H])c3N([H])[H])C2([H])[H])c([H])c1C(=O)C([H])([H])C(C([H])([H])[H])(C([H])([H])[H])C([H])(C([H])([H])[H])C([H])([H])C(=O)C([H])([H])Oc1c([H])c([H])c2c(c1[H])C([H])([H])N(C(=O)C([H])(N([H])C(=O)C([H])(N([H])C([H])([H])[H])C([H])([H])[H])C(C([H])([H])[H])(C([H])([H])[H])C([H])([H])[H])C([H])(C(=O)N([H])C1([H])c3c([H])c([H])c([H])c([H])c3C([H])([H])C([H])([H])C1([H])[H])C2([H])[H]

>  <smiles>  (22) 
[H]c1oc(N([H])C(=O)N2C([H])([H])C([H])([H])C([H])([H])C([H])(n3nc(-c4c([H])c([H])c(Oc5c([H])c([H])c(F)c([H])c5F)c([H])c4[H])c(C(=O)N([H])[H])c3N([H])[H])C2([H])[H])c([H])c1C(=O)C([H])([H])C(C([H])([H])[H])(C([H])([H])[H])C([H])(C([H])([H])[H])C([H])([H])C(=O)C([H])([H])Oc1c([H])c([H])c2c(c1[H])C([H])([H])N(C(=O)C([H])(N([H])C(=O)C([H])(N([H])C([H])([H])[H])C([H])([H])[H])C(C([H])([H])[H])(C([H])([H])[H])C([H])([H])[H])C([H])(C(=O)N([H])C1([H])c3c([H])c([H])c([H])c([H])c3C([H])([H])C([H])([H])C1([H])[H])C2([H])[H]

$$$$
22:0:0
     RDKit          3D

100108  0  0  1  0  0  0  0  0999 V2000
  -29.5460  -20.2330   19.5810 C   0  0  0  0  0  0  0  0  0  0  0  0
  -29.8260  -18.9210   19.4260 N   0  0  0  0  0  0  0  0  0  0  0  0
  -29.9180  -20.8740   20.5700 O   0  0  0  0  0  0  0  0  0  0  0  0
  -29.6510  -18.5410   18.5060 H   0  0  0  0  0  0  0  0  0  0  0  0
  -30.6150  -16.6740   20.0880 C   0  0  0  0  0  3  0  0  0  0  0  0
  -30.8800  -16.1210   22.4470 C   0  0  0  0  0  3  0  0  0  0  0  0
  -30.1330  -18.3430   21.8050 C   0  0  0  0  0  3  0  0  0  0  0  0
  -30.9650  -15.7230   21.0890 C   0  0  0  0  0  0  0  0  0  0  0  0
  -30.2140  -17.9910   20.4390 C   0  0  0  0  0  0  0  0  0  0  0  0
  -30.4650  -17.4140   22.8030 C   0  0  0  0  0  0  0  0  0  0  0  0
  -30.3910  -17.7610   24.1100 F   0  0  0  0  0  0  0  0  0  0  0  0
  -31.4830  -14.3460   20.8010 C   0  0  0  0  0  0  0  0  0  0  0  0
  -31.9860  -13.6290   21.7210 N   0  0  0  0  0  0  0  0  0  0  0  0
  -31.9970  -14.1330   22.6000 H   0  0  0  0  0  0  0  0  0  0  0  0
  -31.3670  -13.8100   19.3790 C   0  0  0  0  0  0  0  0  0  0  0  0
  -30.4770  -12.0080   17.9430 C   0  0  0  0  0  2  0  0  0  0  0  0
  -29.3070  -12.4700   17.0550 C   0  0  0  0  0  2  0  0  0  0  0  0
  -27.9720  -12.3610   17.8120 C   0  0  0  0  0  2  0  0  0  0  0  0
  -28.0340  -13.0080   19.2190 C   0  0  0  0  0  3  0  0  0  0  0  0
  -29.2740  -12.5170   19.9970 C   0  0  0  0  0  2  0  0  0  0  0  0
  -30.4740  -12.7980   19.1850 N   0  0  0  0  0  0  0  0  0  0  0  0
  -32.1780  -14.1780   18.5200 O   0  0  0  0  0  0  0  0  0  0  0  0
  -25.9930  -13.6780   20.6400 C   0  0  0  0  0  0  0  0  0  0  0  0
  -24.9300  -12.9540   21.1090 C   0  0  0  0  0  0  0  0  0  0  0  0
  -25.1470  -11.6080   20.6780 C   0  0  0  0  0  0  0  0  0  0  0  0
  -26.8000  -12.7740   19.9660 N   0  0  0  0  0  0  0  0  0  0  0  0
  -26.3050  -11.5110   20.0390 N   0  0  0  0  0  0  0  0  0  0  0  0
  -24.2920  -10.4200   20.7880 C   0  0  0  0  0  0  0  0  0  0  0  0
  -24.7190   -9.2630   21.4760 C   0  0  0  0  0  3  0  0  0  0  0  0
  -23.8710   -8.1390   21.5840 C   0  0  0  0  0  3  0  0  0  0  0  0
  -22.5810   -8.1660   21.0030 C   0  0  0  0  0  0  0  0  0  0  0  0
  -22.1700   -9.3110   20.2980 C   0  0  0  0  0  3  0  0  0  0  0  0
  -23.0160  -10.4260   20.1880 C   0  0  0  0  0  3  0  0  0  0  0  0
  -21.7000   -7.1130   21.0370 O   0  0  0  0  0  0  0  0  0  0  0  0
  -21.5910   -6.2990   22.1350 C   0  0  0  0  0  0  0  0  0  0  0  0
  -21.4210   -6.8210   23.4350 C   0  0  0  0  0  3  0  0  0  0  0  0
  -21.2440   -5.9480   24.5280 C   0  0  0  0  0  3  0  0  0  0  0  0
  -21.2250   -4.5550   24.3210 C   0  0  0  0  0  0  0  0  0  0  0  0
  -21.3880   -4.0340   23.0260 C   0  0  0  0  0  3  0  0  0  0  0  0
  -21.5660   -4.9030   21.9350 C   0  0  0  0  0  0  0  0  0  0  0  0
  -21.7020   -4.3960   20.6860 F   0  0  0  0  0  0  0  0  0  0  0  0
  -21.0460   -3.7160   25.3680 F   0  0  0  0  0  0  0  0  0  0  0  0
  -23.7300  -13.4910   21.8350 C   0  0  0  0  0  0  0  0  0  0  0  0
  -23.2030  -12.7360   22.7910 N   0  0  0  0  0  0  0  0  0  0  0  0
  -23.2810  -14.6090   21.5850 O   0  0  0  0  0  0  0  0  0  0  0  0
  -23.5830  -11.8260   23.0090 H   0  0  0  0  0  0  0  0  0  0  0  0
  -22.4060  -13.0720   23.3160 H   0  0  0  0  0  0  0  0  0  0  0  0
  -26.3300  -15.0260   20.7140 N   0  0  0  0  0  0  0  0  0  0  0  0
  -25.7260  -15.7070   21.1590 H   0  0  0  0  0  0  0  0  0  0  0  0
  -27.1430  -15.4420   20.2780 H   0  0  0  0  0  0  0  0  0  0  0  0
  -27.4950  -20.0770   18.1350 C   0  0  0  0  0  1  0  0  0  0  0  0
  -29.5890  -21.0390   17.1690 C   0  0  0  0  0  1  0  0  0  0  0  0
  -28.7390  -20.9470   18.4560 C   0  0  2  0  0  0  0  0  0  0  0  0
  -28.1830  -22.3440   18.9440 C   0  0  0  0  0  2  0  0  0  0  0  0
  -29.2070  -24.3150   17.6570 C   0  0  0  0  0  1  0  0  0  0  0  0
  -29.0610  -23.6450   19.0380 C   0  0  2  0  0  0  0  0  0  0  0  0
  -30.3670  -23.3330   19.4860 O   0  0  0  0  0  0  0  0  0  0  0  0
  -30.2750  -22.6810   20.1800 H   0  0  0  0  0  0  0  0  0  0  0  0
  -28.4490  -24.6500   20.0800 C   0  0  0  0  0  2  0  0  0  0  0  0
  -28.5860  -26.0490   19.7450 O   0  0  0  0  0  0  0  0  0  0  0  0
  -24.7850  -31.1730   22.9390 C   0  0  0  0  0  0  0  0  0  0  0  0
  -27.4280  -26.8030   19.7420 C   0  0  0  0  0  0  0  0  0  0  0  0
  -23.5940  -29.8460   21.2280 C   0  0  0  0  0  3  0  0  0  0  0  0
  -25.0550  -28.3440   19.7710 C   0  0  0  0  0  0  0  0  0  0  0  0
  -26.1290  -30.1750   21.0920 C   0  0  0  0  0  2  0  0  0  0  0  0
  -26.2080  -28.8270   20.4020 C   0  0  0  0  0  0  0  0  0  0  0  0
  -27.4000  -28.0640   20.3810 C   0  0  0  0  0  3  0  0  0  0  0  0
  -26.2610  -26.3490   19.0900 C   0  0  0  0  0  3  0  0  0  0  0  0
  -25.0750  -27.1050   19.1120 C   0  0  0  0  0  3  0  0  0  0  0  0
  -23.8200  -29.2140   19.8290 C   0  0  0  0  0  2  0  0  0  0  0  0
  -24.8540  -30.4090   21.8120 N   0  0  0  0  0  0  0  0  0  0  0  0
  -23.6960  -31.4440   23.4640 O   0  0  0  0  0  0  0  0  0  0  0  0
  -22.9110  -28.8000   22.1370 C   0  0  0  0  0  0  0  0  0  0  0  0
  -21.5820  -28.6660   22.0000 N   0  0  0  0  0  0  0  0  0  0  0  0
  -23.5740  -28.1130   22.9190 O   0  0  0  0  0  0  0  0  0  0  0  0
  -21.1120  -29.2770   21.3450 H   0  0  0  0  0  0  0  0  0  0  0  0
  -18.1620  -27.6030   22.4800 C   0  0  0  0  0  0  0  0  0  0  0  0
  -20.7330  -27.7180   22.7190 C   0  0  0  0  0  3  0  0  0  0  0  0
  -20.7550  -26.3270   22.0430 C   0  0  0  0  0  2  0  0  0  0  0  0
  -19.6200  -26.1270   21.0330 C   0  0  0  0  0  2  0  0  0  0  0  0
  -18.2590  -26.2950   21.7130 C   0  0  0  0  0  2  0  0  0  0  0  0
  -19.3240  -28.2800   22.9360 C   0  0  0  0  0  0  0  0  0  0  0  0
  -19.1780  -29.5110   23.6100 C   0  0  0  0  0  3  0  0  0  0  0  0
  -17.9020  -30.0600   23.8410 C   0  0  0  0  0  3  0  0  0  0  0  0
  -16.7540  -29.3790   23.4020 C   0  0  0  0  0  3  0  0  0  0  0  0
  -16.8870  -28.1550   22.7230 C   0  0  0  0  0  3  0  0  0  0  0  0
  -26.0670  -31.7630   23.6050 C   0  0  0  0  0  3  0  0  0  0  0  0
  -25.7460  -33.1240   24.0540 N   0  0  0  0  0  0  0  0  0  0  0  0
  -26.0540  -34.2420   23.3820 C   0  0  0  0  0  0  0  0  0  0  0  0
  -26.7120  -34.2320   22.3380 O   0  0  0  0  0  0  0  0  0  0  0  0
  -25.1670  -33.2070   24.8770 H   0  0  0  0  0  0  0  0  0  0  0  0
  -24.2930  -36.0290   23.2060 C   0  0  0  0  0  1  0  0  0  0  0  0
  -25.5550  -35.5800   23.9590 C   0  0  0  0  0  3  0  0  0  0  0  0
  -27.6850  -36.4350   24.8320 C   0  0  0  0  0  1  0  0  0  0  0  0
  -26.5690  -36.6570   23.9150 N   0  0  0  0  0  0  0  0  0  0  0  0
  -26.1500  -37.5550   24.1380 H   0  0  0  0  0  0  0  0  0  0  0  0
  -26.6020  -30.8900   24.8070 C   0  0  1  0  0  0  0  0  0  0  0  0
  -25.5110  -30.5170   25.8380 C   0  0  0  0  0  1  0  0  0  0  0  0
  -27.2300  -29.5760   24.2860 C   0  0  0  0  0  1  0  0  0  0  0  0
  -27.7220  -31.6560   25.5490 C   0  0  0  0  0  1  0  0  0  0  0  0
  1  3  2  0
  2  1  1  0
  2  9  1  0
  4  2  1  0
  5  9  2  0
  5  8  1  0
  6 10  1  0
  7 10  2  0
  8  6  2  0
  9  7  1  0
 10 11  1  0
 12  8  1  0
 12 13  2  0
 13 14  1  0
 15 12  1  0
 16 21  1  0
 17 18  1  0
 17 16  1  0
 19 18  1  0
 19 26  1  0
 19 20  1  0
 21 15  1  0
 21 20  1  0
 22 15  2  0
 23 48  1  0
 23 24  2  0
 24 43  1  0
 25 28  1  0
 25 24  1  0
 26 27  1  0
 26 23  1  0
 27 25  2  0
 28 29  1  0
 29 30  2  0
 31 34  1  0
 31 30  1  0
 32 31  2  0
 33 32  1  0
 33 28  2  0
 34 35  1  0
 35 36  1  0
 36 37  2  0
 38 37  1  0
 38 42  1  0
 39 38  2  0
 40 35  2  0
 40 39  1  0
 41 40  1  0
 43 44  1  0
 44 46  1  0
 44 47  1  0
 45 43  2  0
 48 49  1  0
 50 48  1  0
 53 51  1  6
 52 53  1  0
 53 54  1  0
 53  1  1  0
 54 56  1  0
 56 55  1  6
 56 57  1  0
 56 59  1  0
 57 58  1  0
 60 59  1  0
 61 72  2  0
 62 60  1  0
 62 67  1  0
 63 71  1  0
 63 73  1  0
 64 70  1  0
 64 66  1  0
 65 71  1  0
 66 65  1  0
 67 66  2  0
 68 69  1  0
 68 62  2  0
 69 64  2  0
 70 63  1  0
 71 61  1  0
 73 75  2  0
 74 73  1  0
 76 74  1  0
 77 86  2  0
 77 82  1  0
 78 74  1  0
 78 82  1  0
 79 78  1  0
 80 81  1  0
 80 79  1  0
 81 77  1  0
 82 83  2  0
 83 84  1  0
 85 84  2  0
 86 85  1  0
 87 61  1  0
 87 88  1  0
 87 97  1  0
 88 91  1  0
 89 93  1  0
 89 88  1  0
 90 89  2  0
 93 92  1  0
 95 93  1  0
 95 96  1  0
 95 94  1  0
 97100  1  1
 97 98  1  0
 99 97  1  0
M  ISO  4  12 100  15 100  59 101  60 101
M  END
>  <TORSDO>  (23) 
F 23

>  <SCORE>  (23) 
-8.432

>  <name>  (23) 
22

>  <ligand_id>  (23) 
22

>  <original_smiles>  (23) 
[H]N=C(C(=O)N1C([H])([H])C([H])([H])C([H])([H])C([H])(n2nc(-c3c([H])c([H])c(Oc4c([H])c([H])c(F)c([H])c4F)c([H])c3[H])c(C(=O)N([H])[H])c2N([H])[H])C1([H])[H])c1c([H])c(F)c([H])c(N([H])C(=O)C(C([H])([H])[H])(C([H])([H])[H])C([H])([H])C(O[H])(C([H])([H])[H])C([H])([H])Oc2c([H])c([H])c3c(c2[H])C([H])([H])N(C(=O)C([H])(N([H])C(=O)C([H])(N([H])C([H])([H])[H])C([H])([H])[H])C(C([H])([H])[H])(C([H])([H])[H])C([H])([H])[H])C([H])(C(=O)N([H])C2([H])c4c([H])c([H])c([H])c([H])c4C([H])([H])C([H])([H])C2([H])[H])C3([H])[H])c1[H]

>  <smiles>  (23) 
[H]N=C(C(=O)N1C([H])([H])C([H])([H])C([H])([H])C([H])(n2nc(-c3c([H])c([H])c(Oc4c([H])c([H])c(F)c([H])c4F)c([H])c3[H])c(C(=O)N([H])[H])c2N([H])[H])C1([H])[H])c1c([H])c(F)c([H])c(N([H])C(=O)C(C([H])([H])[H])(C([H])([H])[H])C([H])([H])C(O[H])(C([H])([H])[H])C([H])([H])Oc2c([H])c([H])c3c(c2[H])C([H])([H])N(C(=O)C([H])(N([H])C(=O)C([H])(N([H])C([H])([H])[H])C([H])([H])[H])C(C([H])([H])[H])(C([H])([H])[H])C([H])([H])[H])C([H])(C(=O)N([H])C2([H])c4c([H])c([H])c([H])c([H])c4C([H])([H])C([H])([H])C2([H])[H])C3([H])[H])c1[H]

$$$$
23:0:0
     RDKit          3D

 94103  0  0  1  0  0  0  0  0999 V2000
  -28.5670  -23.0120   20.9780 C   0  0  0  0  0  0  0  0  0  0  0  0
  -28.3730  -21.8810   20.2560 N   0  0  0  0  0  0  0  0  0  0  0  0
  -29.2410  -23.0260   22.0110 O   0  0  0  0  0  0  0  0  0  0  0  0
  -27.7510  -21.9690   19.4630 H   0  0  0  0  0  0  0  0  0  0  0  0
  -29.9660  -20.2420   21.2680 C   0  0  0  0  0  2  0  0  0  0  0  0
  -30.2110  -18.8510   21.1370 C   0  0  0  0  0  3  0  0  0  0  0  0
  -29.2720  -18.0980   20.3630 C   0  0  0  0  0  3  0  0  0  0  0  0
  -28.9010  -20.6290   20.4570 C   0  0  0  0  0  3  0  0  0  0  0  0
  -31.2310  -17.7640   21.1640 C   0  0  0  0  0  2  0  0  0  0  0  0
  -30.2870  -17.0060   20.1280 C   0  0  0  0  0  3  0  0  0  0  0  0
  -28.3370  -19.2520   19.4500 S   0  0  0  0  0  0  0  0  0  0  0  0
  -30.6830  -14.5540   20.1960 C   0  0  0  0  0  0  0  0  0  0  0  0
  -30.3550  -12.3820   19.0900 C   0  0  0  0  0  2  0  0  0  0  0  0
  -29.3800  -12.5960   17.9140 C   0  0  0  0  0  2  0  0  0  0  0  0
  -27.9190  -12.4610   18.3890 C   0  0  0  0  0  2  0  0  0  0  0  0
  -27.6230  -13.2920   19.6670 C   0  0  0  0  0  3  0  0  0  0  0  0
  -28.7140  -13.0750   20.7420 C   0  0  0  0  0  2  0  0  0  0  0  0
  -30.0170  -13.3700   20.1270 N   0  0  0  0  0  0  0  0  0  0  0  0
  -31.8260  -14.7010   19.7520 O   0  0  0  0  0  0  0  0  0  0  0  0
  -29.9390  -15.6300   20.5340 N   0  0  0  0  0  0  0  0  0  0  0  0
  -29.0050  -15.4630   20.8750 H   0  0  0  0  0  0  0  0  0  0  0  0
  -25.2540  -13.8950   20.4700 C   0  0  0  0  0  0  0  0  0  0  0  0
  -24.1970  -13.1210   20.8650 C   0  0  0  0  0  0  0  0  0  0  0  0
  -24.6520  -11.7680   20.8000 C   0  0  0  0  0  0  0  0  0  0  0  0
  -26.2870  -13.0130   20.1910 N   0  0  0  0  0  0  0  0  0  0  0  0
  -25.9310  -11.7290   20.4480 N   0  0  0  0  0  0  0  0  0  0  0  0
  -23.9270  -10.5060   20.9960 C   0  0  0  0  0  0  0  0  0  0  0  0
  -24.3700   -9.5370   21.9230 C   0  0  0  0  0  3  0  0  0  0  0  0
  -23.6460   -8.3390   22.1080 C   0  0  0  0  0  3  0  0  0  0  0  0
  -22.4660   -8.1020   21.3650 C   0  0  0  0  0  0  0  0  0  0  0  0
  -22.0430   -9.0590   20.4270 C   0  0  0  0  0  3  0  0  0  0  0  0
  -22.7660  -10.2480   20.2400 C   0  0  0  0  0  3  0  0  0  0  0  0
  -21.7130   -6.9560   21.4600 O   0  0  0  0  0  0  0  0  0  0  0  0
  -21.6540   -6.2270   22.6200 C   0  0  0  0  0  0  0  0  0  0  0  0
  -21.1990   -6.7910   23.8320 C   0  0  0  0  0  3  0  0  0  0  0  0
  -21.0880   -5.9870   24.9850 C   0  0  0  0  0  3  0  0  0  0  0  0
  -21.4220   -4.6210   24.9250 C   0  0  0  0  0  0  0  0  0  0  0  0
  -21.8700   -4.0570   23.7180 C   0  0  0  0  0  3  0  0  0  0  0  0
  -21.9830   -4.8570   22.5680 C   0  0  0  0  0  0  0  0  0  0  0  0
  -22.3950   -4.3030   21.4030 F   0  0  0  0  0  0  0  0  0  0  0  0
  -21.3090   -3.8480   26.0290 F   0  0  0  0  0  0  0  0  0  0  0  0
  -22.8100  -13.5980   21.1910 C   0  0  0  0  0  0  0  0  0  0  0  0
  -22.1080  -12.8910   22.0680 N   0  0  0  0  0  0  0  0  0  0  0  0
  -22.3590  -14.6350   20.7040 O   0  0  0  0  0  0  0  0  0  0  0  0
  -22.4850  -12.0520   22.4830 H   0  0  0  0  0  0  0  0  0  0  0  0
  -21.1790  -13.1930   22.3280 H   0  0  0  0  0  0  0  0  0  0  0  0
  -25.4180  -15.2670   20.3030 N   0  0  0  0  0  0  0  0  0  0  0  0
  -24.6590  -15.9230   20.4490 H   0  0  0  0  0  0  0  0  0  0  0  0
  -26.2550  -15.7070   19.9410 H   0  0  0  0  0  0  0  0  0  0  0  0
  -27.8640  -24.3310   20.5400 C   0  0  0  0  0  2  0  0  0  0  0  0
  -28.6210  -25.2880   18.2480 C   0  0  0  0  0  1  0  0  0  0  0  0
  -30.2130  -25.3570   20.1490 C   0  0  0  0  0  1  0  0  0  0  0  0
  -28.7140  -25.4280   19.7830 C   0  0  2  0  0  0  0  0  0  0  0  0
  -28.4540  -26.7910   20.2090 O   0  0  0  0  0  0  0  0  0  0  0  0
  -24.5860  -31.9130   23.2560 C   0  0  0  0  0  0  0  0  0  0  0  0
  -27.2390  -27.4560   20.1730 C   0  0  0  0  0  0  0  0  0  0  0  0
  -23.3820  -30.5100   21.6120 C   0  0  0  0  0  3  0  0  0  0  0  0
  -24.8350  -28.9680   20.1900 C   0  0  0  0  0  0  0  0  0  0  0  0
  -25.9080  -30.8670   21.4160 C   0  0  0  0  0  2  0  0  0  0  0  0
  -25.9930  -29.4950   20.7720 C   0  0  0  0  0  0  0  0  0  0  0  0
  -27.1930  -28.7480   20.7550 C   0  0  0  0  0  3  0  0  0  0  0  0
  -26.0540  -26.9370   19.6050 C   0  0  0  0  0  3  0  0  0  0  0  0
  -24.8610  -27.6880   19.6050 C   0  0  0  0  0  3  0  0  0  0  0  0
  -23.5920  -29.8280   20.2340 C   0  0  0  0  0  2  0  0  0  0  0  0
  -24.6440  -31.1120   22.1530 N   0  0  0  0  0  0  0  0  0  0  0  0
  -23.5040  -32.1850   23.7940 O   0  0  0  0  0  0  0  0  0  0  0  0
  -22.7310  -29.4900   22.5740 C   0  0  0  0  0  0  0  0  0  0  0  0
  -21.4060  -29.3070   22.4460 N   0  0  0  0  0  0  0  0  0  0  0  0
  -23.4150  -28.8640   23.3880 O   0  0  0  0  0  0  0  0  0  0  0  0
  -20.9150  -29.8640   21.7610 H   0  0  0  0  0  0  0  0  0  0  0  0
  -18.0320  -28.1200   22.9500 C   0  0  0  0  0  0  0  0  0  0  0  0
  -20.5920  -28.3680   23.2160 C   0  0  0  0  0  3  0  0  0  0  0  0
  -20.6880  -26.9390   22.6310 C   0  0  0  0  0  2  0  0  0  0  0  0
  -19.5820  -26.6260   21.6180 C   0  0  0  0  0  2  0  0  0  0  0  0
  -18.2020  -26.7730   22.2680 C   0  0  0  0  0  2  0  0  0  0  0  0
  -19.1550  -28.8760   23.3810 C   0  0  0  0  0  0  0  0  0  0  0  0
  -18.9410  -30.1390   23.9760 C   0  0  0  0  0  3  0  0  0  0  0  0
  -17.6390  -30.6440   24.1470 C   0  0  0  0  0  3  0  0  0  0  0  0
  -16.5320  -29.8840   23.7330 C   0  0  0  0  0  3  0  0  0  0  0  0
  -16.7290  -28.6250   23.1390 C   0  0  0  0  0  3  0  0  0  0  0  0
  -25.8710  -32.5460   23.8770 C   0  0  0  0  0  3  0  0  0  0  0  0
  -26.3840  -31.7810   25.1580 C   0  0  1  0  0  0  0  0  0  0  0  0
  -25.2890  -31.5460   26.2240 C   0  0  0  0  0  1  0  0  0  0  0  0
  -26.9690  -30.4030   24.7730 C   0  0  0  0  0  1  0  0  0  0  0  0
  -27.5340  -32.5770   25.8200 C   0  0  0  0  0  1  0  0  0  0  0  0
  -25.5630  -33.9470   24.1970 N   0  0  0  0  0  0  0  0  0  0  0  0
  -25.9050  -34.9930   23.4350 C   0  0  0  0  0  0  0  0  0  0  0  0
  -26.5850  -34.8840   22.4100 O   0  0  0  0  0  0  0  0  0  0  0  0
  -24.9600  -34.1060   24.9900 H   0  0  0  0  0  0  0  0  0  0  0  0
  -24.1920  -36.7920   23.0510 C   0  0  0  0  0  1  0  0  0  0  0  0
  -25.4190  -36.3840   23.8810 C   0  0  0  0  0  3  0  0  0  0  0  0
  -27.5440  -37.2610   24.7420 C   0  0  0  0  0  1  0  0  0  0  0  0
  -26.4580  -37.4320   23.7800 N   0  0  0  0  0  0  0  0  0  0  0  0
  -26.0540  -38.3540   23.9200 H   0  0  0  0  0  0  0  0  0  0  0  0
  1  3  2  0
  2  1  1  0
  4  2  1  0
  6  9  1  0
  6  5  1  0
  7 11  1  0
  7  6  1  0
  8  2  1  0
  8  5  1  0
 10  7  1  0
 10 20  1  0
 10  9  1  0
 11  8  1  0
 12 20  1  0
 13 18  1  0
 14 15  1  0
 14 13  1  0
 16 15  1  0
 16 25  1  0
 16 17  1  0
 18 12  1  0
 18 17  1  0
 19 12  2  0
 20 21  1  0
 22 23  2  0
 23 42  1  0
 24 23  1  0
 24 27  1  0
 25 26  1  0
 25 22  1  0
 26 24  2  0
 27 28  1  0
 28 29  2  0
 30 33  1  0
 30 29  1  0
 31 30  2  0
 32 31  1  0
 32 27  2  0
 33 34  1  0
 34 35  1  0
 35 36  2  0
 37 36  1  0
 37 41  1  0
 38 37  2  0
 39 34  2  0
 39 38  1  0
 40 39  1  0
 42 43  1  0
 43 46  1  0
 43 45  1  0
 44 42  2  0
 47 48  1  0
 47 22  1  0
 49 47  1  0
 50  1  1  0
 53 51  1  6
 53 52  1  0
 53 54  1  0
 53 50  1  0
 55 66  2  0
 56 54  1  0
 56 61  1  0
 57 65  1  0
 57 67  1  0
 58 64  1  0
 58 60  1  0
 59 65  1  0
 60 59  1  0
 61 60  2  0
 62 56  2  0
 63 62  1  0
 63 58  2  0
 64 57  1  0
 65 55  1  0
 67 69  2  0
 68 67  1  0
 70 68  1  0
 71 80  2  0
 71 76  1  0
 72 68  1  0
 72 76  1  0
 73 72  1  0
 74 75  1  0
 74 73  1  0
 75 71  1  0
 76 77  2  0
 77 78  1  0
 79 78  2  0
 80 79  1  0
 81 55  1  0
 81 86  1  0
 81 82  1  0
 82 85  1  1
 82 83  1  0
 84 82  1  0
 86 89  1  0
 87 91  1  0
 87 86  1  0
 88 87  2  0
 91 90  1  0
 93 91  1  0
 93 94  1  0
 93 92  1  0
M  ISO  4  12 100  20 100  53 101  54 101
M  END
>  <TORSDO>  (24) 
F 19

>  <SCORE>  (24) 
-14.548

>  <name>  (24) 
23

>  <ligand_id>  (24) 
23

>  <original_smiles>  (24) 
[H]c1c([H])c([H])c2c(c1[H])C([H])([H])C([H])([H])C([H])([H])C2([H])N([H])C(=O)C1([H])N(C(=O)C([H])(N([H])C(=O)C([H])(N([H])C([H])([H])[H])C([H])([H])[H])C(C([H])([H])[H])(C([H])([H])[H])C([H])([H])[H])C([H])([H])c2c([H])c(OC(C([H])([H])[H])(C([H])([H])[H])C([H])([H])C(=O)N([H])c3sc4c(c3[H])C([H])([H])C4([H])N([H])C(=O)N3C([H])([H])C([H])([H])C([H])([H])C([H])(n4nc(-c5c([H])c([H])c(Oc6c([H])c([H])c(F)c([H])c6F)c([H])c5[H])c(C(=O)N([H])[H])c4N([H])[H])C3([H])[H])c([H])c([H])c2C1([H])[H]

>  <smiles>  (24) 
[H]c1c([H])c([H])c2c(c1[H])C([H])([H])C([H])([H])C([H])([H])C2([H])N([H])C(=O)C1([H])N(C(=O)C([H])(N([H])C(=O)C([H])(N([H])C([H])([H])[H])C([H])([H])[H])C(C([H])([H])[H])(C([H])([H])[H])C([H])([H])[H])C([H])([H])c2c([H])c(OC(C([H])([H])[H])(C([H])([H])[H])C([H])([H])C(=O)N([H])c3sc4c(c3[H])C([H])([H])C4([H])N([H])C(=O)N3C([H])([H])C([H])([H])C([H])([H])C([H])(n4nc(-c5c([H])c([H])c(Oc6c([H])c([H])c(F)c([H])c6F)c([H])c5[H])c(C(=O)N([H])[H])c4N([H])[H])C3([H])[H])c([H])c([H])c2C1([H])[H]

$$$$
24:0:0
     RDKit          3D

 97106  0  0  1  0  0  0  0  0999 V2000
  -29.1880  -24.2700   19.7340 C   0  0  0  0  0  0  0  0  0  0  0  0
  -28.6100  -23.0390   19.5460 C   0  0  0  0  0  0  0  0  0  0  0  0
  -28.8130  -20.5720   20.0270 C   0  0  0  0  0  3  0  0  0  0  0  0
  -30.5580  -24.4370   20.3860 C   0  0  0  0  0  2  0  0  0  0  0  0
  -31.1760  -23.1140   20.8540 C   0  0  0  0  0  2  0  0  0  0  0  0
  -30.8140  -21.9780   19.8930 C   0  0  0  0  0  2  0  0  0  0  0  0
  -27.2890  -22.9050   18.7810 C   0  0  0  0  0  1  0  0  0  0  0  0
  -29.3360  -21.8380   19.8500 N   0  0  0  0  0  0  0  0  0  0  0  0
  -27.5700  -20.4450   20.4940 N   0  0  0  0  0  0  0  0  0  0  0  0
  -27.1480  -19.5340   20.5750 H   0  0  0  0  0  0  0  0  0  0  0  0
  -27.0510  -21.2600   20.7770 H   0  0  0  0  0  0  0  0  0  0  0  0
  -30.8610  -18.1660   17.9530 C   0  0  0  0  0  3  0  0  0  0  0  0
  -30.2290  -19.3230   18.4260 C   0  0  0  0  0  3  0  0  0  0  0  0
  -30.7890  -16.9700   18.6850 C   0  0  0  0  0  3  0  0  0  0  0  0
  -29.4680  -18.0990   20.4000 C   0  0  0  0  0  3  0  0  0  0  0  0
  -29.5350  -19.3200   19.6570 C   0  0  0  0  0  0  0  0  0  0  0  0
  -30.0960  -16.9040   19.9220 C   0  0  0  0  0  0  0  0  0  0  0  0
  -30.7090  -14.5260   20.3790 C   0  0  0  0  0  0  0  0  0  0  0  0
  -30.3910  -12.3400   19.3030 C   0  0  0  0  0  2  0  0  0  0  0  0
  -29.4650  -12.5550   18.0880 C   0  0  0  0  0  2  0  0  0  0  0  0
  -27.9860  -12.4410   18.5060 C   0  0  0  0  0  2  0  0  0  0  0  0
  -27.6520  -13.2820   19.7680 C   0  0  0  0  0  3  0  0  0  0  0  0
  -28.7020  -13.0790   20.8840 C   0  0  0  0  0  2  0  0  0  0  0  0
  -30.0280  -13.3490   20.3120 N   0  0  0  0  0  0  0  0  0  0  0  0
  -31.8890  -14.6160   20.0330 O   0  0  0  0  0  0  0  0  0  0  0  0
  -29.9700  -15.6410   20.6200 N   0  0  0  0  0  0  0  0  0  0  0  0
  -29.1040  -15.4930   21.1150 H   0  0  0  0  0  0  0  0  0  0  0  0
  -25.2610  -13.9090   20.4770 C   0  0  0  0  0  0  0  0  0  0  0  0
  -24.1880  -13.1470   20.8510 C   0  0  0  0  0  0  0  0  0  0  0  0
  -24.6400  -11.7920   20.8290 C   0  0  0  0  0  0  0  0  0  0  0  0
  -26.2980  -13.0190   20.2490 N   0  0  0  0  0  0  0  0  0  0  0  0
  -25.9290  -11.7410   20.5210 N   0  0  0  0  0  0  0  0  0  0  0  0
  -23.9030  -10.5360   21.0240 C   0  0  0  0  0  0  0  0  0  0  0  0
  -24.3310   -9.5640   21.9560 C   0  0  0  0  0  3  0  0  0  0  0  0
  -23.5960   -8.3740   22.1390 C   0  0  0  0  0  3  0  0  0  0  0  0
  -22.4170   -8.1440   21.3890 C   0  0  0  0  0  0  0  0  0  0  0  0
  -22.0080   -9.1040   20.4460 C   0  0  0  0  0  3  0  0  0  0  0  0
  -22.7440  -10.2860   20.2620 C   0  0  0  0  0  3  0  0  0  0  0  0
  -21.6530   -7.0070   21.4820 O   0  0  0  0  0  0  0  0  0  0  0  0
  -21.6070   -6.2620   22.6330 C   0  0  0  0  0  0  0  0  0  0  0  0
  -21.1930   -6.8190   23.8630 C   0  0  0  0  0  3  0  0  0  0  0  0
  -21.0930   -6.0020   25.0060 C   0  0  0  0  0  3  0  0  0  0  0  0
  -21.3980   -4.6300   24.9230 C   0  0  0  0  0  0  0  0  0  0  0  0
  -21.8040   -4.0730   23.6970 C   0  0  0  0  0  3  0  0  0  0  0  0
  -21.9060   -4.8860   22.5550 C   0  0  0  0  0  0  0  0  0  0  0  0
  -22.2780   -4.3410   21.3720 F   0  0  0  0  0  0  0  0  0  0  0  0
  -21.2940   -3.8430   26.0190 F   0  0  0  0  0  0  0  0  0  0  0  0
  -22.7940  -13.6340   21.1180 C   0  0  0  0  0  0  0  0  0  0  0  0
  -22.0610  -12.9490   21.9870 N   0  0  0  0  0  0  0  0  0  0  0  0
  -22.3660  -14.6610   20.5910 O   0  0  0  0  0  0  0  0  0  0  0  0
  -22.4190  -12.1150   22.4320 H   0  0  0  0  0  0  0  0  0  0  0  0
  -21.1260  -13.2590   22.2110 H   0  0  0  0  0  0  0  0  0  0  0  0
  -25.4390  -15.2770   20.2910 N   0  0  0  0  0  0  0  0  0  0  0  0
  -24.6760  -15.9380   20.3910 H   0  0  0  0  0  0  0  0  0  0  0  0
  -26.2840  -15.7030   19.9330 H   0  0  0  0  0  0  0  0  0  0  0  0
  -28.6400  -25.6060   19.1650 C   0  0  0  0  0  2  0  0  0  0  0  0
  -28.4190  -26.6640   20.1290 O   0  0  0  0  0  0  0  0  0  0  0  0
  -24.6070  -31.8700   23.2100 C   0  0  0  0  0  0  0  0  0  0  0  0
  -27.2410  -27.4030   20.1040 C   0  0  0  0  0  0  0  0  0  0  0  0
  -23.3990  -30.4740   21.5680 C   0  0  0  0  0  3  0  0  0  0  0  0
  -24.8480  -28.9420   20.1360 C   0  0  0  0  0  0  0  0  0  0  0  0
  -25.9290  -30.8240   21.3690 C   0  0  0  0  0  2  0  0  0  0  0  0
  -26.0120  -29.4530   20.7220 C   0  0  0  0  0  0  0  0  0  0  0  0
  -27.2070  -28.6900   20.7060 C   0  0  0  0  0  3  0  0  0  0  0  0
  -26.0400  -26.9070   19.5430 C   0  0  0  0  0  3  0  0  0  0  0  0
  -24.8580  -27.6700   19.5460 C   0  0  0  0  0  3  0  0  0  0  0  0
  -23.6070  -29.8040   20.1860 C   0  0  0  0  0  2  0  0  0  0  0  0
  -24.6640  -31.0710   22.1070 N   0  0  0  0  0  0  0  0  0  0  0  0
  -23.5260  -32.1420   23.7500 O   0  0  0  0  0  0  0  0  0  0  0  0
  -22.7490  -29.4490   22.5270 C   0  0  0  0  0  0  0  0  0  0  0  0
  -21.4240  -29.2720   22.4090 N   0  0  0  0  0  0  0  0  0  0  0  0
  -23.4350  -28.8150   23.3330 O   0  0  0  0  0  0  0  0  0  0  0  0
  -20.9290  -29.8340   21.7290 H   0  0  0  0  0  0  0  0  0  0  0  0
  -18.0470  -28.0910   22.9300 C   0  0  0  0  0  0  0  0  0  0  0  0
  -20.6080  -28.3320   23.1790 C   0  0  0  0  0  3  0  0  0  0  0  0
  -20.6970  -26.9050   22.5890 C   0  0  0  0  0  2  0  0  0  0  0  0
  -19.5830  -26.5970   21.5830 C   0  0  0  0  0  2  0  0  0  0  0  0
  -18.2080  -26.7470   22.2420 C   0  0  0  0  0  2  0  0  0  0  0  0
  -19.1740  -28.8430   23.3570 C   0  0  0  0  0  0  0  0  0  0  0  0
  -18.9690  -30.1020   23.9590 C   0  0  0  0  0  3  0  0  0  0  0  0
  -17.6690  -30.6120   24.1390 C   0  0  0  0  0  3  0  0  0  0  0  0
  -16.5560  -29.8560   23.7310 C   0  0  0  0  0  3  0  0  0  0  0  0
  -16.7460  -28.5970   23.1340 C   0  0  0  0  0  3  0  0  0  0  0  0
  -25.8930  -32.5030   23.8290 C   0  0  0  0  0  3  0  0  0  0  0  0
  -25.5790  -33.8970   24.1710 N   0  0  0  0  0  0  0  0  0  0  0  0
  -25.9030  -34.9560   23.4170 C   0  0  0  0  0  0  0  0  0  0  0  0
  -26.5670  -34.8630   22.3810 O   0  0  0  0  0  0  0  0  0  0  0  0
  -24.9870  -34.0440   24.9760 H   0  0  0  0  0  0  0  0  0  0  0  0
  -24.1680  -36.7460   23.0780 C   0  0  0  0  0  1  0  0  0  0  0  0
  -25.4110  -36.3390   23.8860 C   0  0  0  0  0  3  0  0  0  0  0  0
  -27.5440  -37.2240   24.7210 C   0  0  0  0  0  1  0  0  0  0  0  0
  -26.4410  -37.3960   23.7800 N   0  0  0  0  0  0  0  0  0  0  0  0
  -26.0310  -38.3140   23.9350 H   0  0  0  0  0  0  0  0  0  0  0  0
  -26.4210  -31.7240   25.0950 C   0  0  1  0  0  0  0  0  0  0  0  0
  -25.3340  -31.4710   26.1670 C   0  0  0  0  0  1  0  0  0  0  0  0
  -27.0070  -30.3530   24.6860 C   0  0  0  0  0  1  0  0  0  0  0  0
  -27.5720  -32.5160   25.7560 C   0  0  0  0  0  1  0  0  0  0  0  0
  1  4  1  0
  2  1  2  0
  2  8  1  0
  3  9  1  0
  4  5  1  0
  6  5  1  0
  7  2  1  0
  8  6  1  0
  8  3  1  0
  9 10  1  0
  9 11  1  0
 12 13  2  0
 12 14  1  0
 13 16  1  0
 14 17  2  0
 16  3  1  0
 16 15  2  0
 17 15  1  0
 17 26  1  0
 18 26  1  0
 19 24  1  0
 20 21  1  0
 20 19  1  0
 22 21  1  0
 22 31  1  0
 22 23  1  0
 24 18  1  0
 24 23  1  0
 25 18  2  0
 26 27  1  0
 28 29  2  0
 29 48  1  0
 30 29  1  0
 30 33  1  0
 31 28  1  0
 31 32  1  0
 32 30  2  0
 33 34  1  0
 34 35  2  0
 36 39  1  0
 36 35  1  0
 37 36  2  0
 38 37  1  0
 38 33  2  0
 39 40  1  0
 40 41  1  0
 41 42  2  0
 43 42  1  0
 43 47  1  0
 44 43  2  0
 45 40  2  0
 45 44  1  0
 46 45  1  0
 48 49  1  0
 49 52  1  0
 49 51  1  0
 50 48  2  0
 53 54  1  0
 53 28  1  0
 55 53  1  0
 56  1  1  0
 56 57  1  0
 58 69  2  0
 59 57  1  0
 59 64  1  0
 60 68  1  0
 60 70  1  0
 61 67  1  0
 61 63  1  0
 62 68  1  0
 63 62  1  0
 64 63  2  0
 65 66  1  0
 65 59  2  0
 66 61  2  0
 67 60  1  0
 68 58  1  0
 70 72  2  0
 71 70  1  0
 73 71  1  0
 74 83  2  0
 74 79  1  0
 75 71  1  0
 75 79  1  0
 76 75  1  0
 77 78  1  0
 77 76  1  0
 78 74  1  0
 79 80  2  0
 80 81  1  0
 82 81  2  0
 83 82  1  0
 84 58  1  0
 84 85  1  0
 84 94  1  0
 85 88  1  0
 86 90  1  0
 86 85  1  0
 87 86  2  0
 90 89  1  0
 92 90  1  0
 92 93  1  0
 92 91  1  0
 94 97  1  1
 94 95  1  0
 96 94  1  0
M  ISO  4  18 100  26 100  56 101  57 101
M  END
>  <TORSDO>  (25) 
F 18

>  <SCORE>  (25) 
-14.980

>  <name>  (25) 
24

>  <ligand_id>  (25) 
24

>  <original_smiles>  (25) 
[H]c1c([H])c(C(N2C(C([H])([H])[H])=C(C([H])([H])Oc3c([H])c([H])c4c(c3[H])C([H])([H])N(C(=O)C([H])(N([H])C(=O)C([H])(N([H])C([H])([H])[H])C([H])([H])[H])C(C([H])([H])[H])(C([H])([H])[H])C([H])([H])[H])C([H])(C(=O)N([H])C3([H])c5c([H])c([H])c([H])c([H])c5C([H])([H])C([H])([H])C3([H])[H])C4([H])[H])C([H])([H])C([H])([H])C2([H])[H])=[N+]([H])[H])c([H])c(N([H])C(=O)N2C([H])([H])C([H])([H])C([H])([H])C([H])(n3nc(-c4c([H])c([H])c(Oc5c([H])c([H])c(F)c([H])c5F)c([H])c4[H])c(C(=O)N([H])[H])c3N([H])[H])C2([H])[H])c1[H]

>  <smiles>  (25) 
[H]c1c([H])c(C(N2C(C([H])([H])[H])=C(C([H])([H])Oc3c([H])c([H])c4c(c3[H])C([H])([H])N(C(=O)C([H])(N([H])C(=O)C([H])(N([H])C([H])([H])[H])C([H])([H])[H])C(C([H])([H])[H])(C([H])([H])[H])C([H])([H])[H])C([H])(C(=O)N([H])C3([H])c5c([H])c([H])c([H])c([H])c5C([H])([H])C([H])([H])C3([H])[H])C4([H])[H])C([H])([H])C([H])([H])C2([H])[H])=[N+]([H])[H])c([H])c(N([H])C(=O)N2C([H])([H])C([H])([H])C([H])([H])C([H])(n3nc(-c4c([H])c([H])c(Oc5c([H])c([H])c(F)c([H])c5F)c([H])c4[H])c(C(=O)N([H])[H])c3N([H])[H])C2([H])[H])c1[H]

$$$$
25:0:0
     RDKit          3D

 92101  0  0  1  0  0  0  0  0999 V2000
  -27.2850  -22.7890   20.1280 C   0  0  0  0  0  2  0  0  0  0  0  0
  -27.5520  -21.3150   20.5970 C   0  0  0  0  0  2  0  0  0  0  0  0
  -29.6130  -22.4000   20.1680 C   0  0  0  0  0  2  0  0  0  0  0  0
  -28.5670  -23.6120   20.4130 C   0  0  0  0  0  3  0  0  0  0  0  0
  -28.9760  -21.0550   20.3960 N   0  0  0  0  0  0  0  0  0  0  0  0
  -30.9880  -19.5230   20.4480 C   0  0  0  0  0  3  0  0  0  0  0  0
  -31.2290  -18.1000   20.5110 C   0  0  0  0  0  3  0  0  0  0  0  0
  -29.6340  -19.7370   20.4350 C   0  0  0  0  0  0  0  0  0  0  0  0
  -30.0180  -17.4480   20.5050 C   0  0  0  0  0  0  0  0  0  0  0  0
  -29.0080  -18.4610   20.4840 O   0  0  0  0  0  0  0  0  0  0  0  0
  -30.6150  -14.9230   20.3110 C   0  0  0  0  0  0  0  0  0  0  0  0
  -30.4560  -12.6370   19.2750 C   0  0  0  0  0  2  0  0  0  0  0  0
  -29.4980  -12.6930   18.0640 C   0  0  0  0  0  2  0  0  0  0  0  0
  -28.0340  -12.4980   18.5100 C   0  0  0  0  0  2  0  0  0  0  0  0
  -27.6680  -13.3650   19.7440 C   0  0  0  0  0  3  0  0  0  0  0  0
  -28.7420  -13.2790   20.8500 C   0  0  0  0  0  2  0  0  0  0  0  0
  -30.0190  -13.6760   20.2420 N   0  0  0  0  0  0  0  0  0  0  0  0
  -31.8000  -15.0300   19.9740 O   0  0  0  0  0  0  0  0  0  0  0  0
  -29.8040  -16.0440   20.5590 N   0  0  0  0  0  0  0  0  0  0  0  0
  -28.8520  -15.7880   20.7660 H   0  0  0  0  0  0  0  0  0  0  0  0
  -25.2940  -13.9380   20.5240 C   0  0  0  0  0  0  0  0  0  0  0  0
  -24.2340  -13.1570   20.8980 C   0  0  0  0  0  0  0  0  0  0  0  0
  -24.6950  -11.8070   20.8290 C   0  0  0  0  0  0  0  0  0  0  0  0
  -26.3320  -13.0630   20.2490 N   0  0  0  0  0  0  0  0  0  0  0  0
  -25.9790  -11.7750   20.4940 N   0  0  0  0  0  0  0  0  0  0  0  0
  -23.9700  -10.5410   21.0050 C   0  0  0  0  0  0  0  0  0  0  0  0
  -24.3960   -9.5680   21.9340 C   0  0  0  0  0  3  0  0  0  0  0  0
  -23.6720   -8.3670   22.0980 C   0  0  0  0  0  3  0  0  0  0  0  0
  -22.5070   -8.1320   21.3300 C   0  0  0  0  0  0  0  0  0  0  0  0
  -22.0990   -9.0950   20.3900 C   0  0  0  0  0  3  0  0  0  0  0  0
  -22.8230  -10.2860   20.2250 C   0  0  0  0  0  3  0  0  0  0  0  0
  -21.7540   -6.9850   21.4040 O   0  0  0  0  0  0  0  0  0  0  0  0
  -21.6690   -6.2510   22.5600 C   0  0  0  0  0  0  0  0  0  0  0  0
  -21.1580   -6.8030   23.7550 C   0  0  0  0  0  3  0  0  0  0  0  0
  -21.0230   -5.9960   24.9020 C   0  0  0  0  0  3  0  0  0  0  0  0
  -21.3890   -4.6370   24.8550 C   0  0  0  0  0  0  0  0  0  0  0  0
  -21.8930   -4.0850   23.6630 C   0  0  0  0  0  3  0  0  0  0  0  0
  -22.0310   -4.8910   22.5190 C   0  0  0  0  0  0  0  0  0  0  0  0
  -22.4980   -4.3470   21.3690 F   0  0  0  0  0  0  0  0  0  0  0  0
  -21.2520   -3.8590   25.9530 F   0  0  0  0  0  0  0  0  0  0  0  0
  -22.8430  -13.6320   21.2020 C   0  0  0  0  0  0  0  0  0  0  0  0
  -22.1220  -12.9180   22.0580 N   0  0  0  0  0  0  0  0  0  0  0  0
  -22.4040  -14.6730   20.7150 O   0  0  0  0  0  0  0  0  0  0  0  0
  -22.4890  -12.0770   22.4780 H   0  0  0  0  0  0  0  0  0  0  0  0
  -21.1890  -13.2210   22.3010 H   0  0  0  0  0  0  0  0  0  0  0  0
  -25.4560  -15.3110   20.3670 N   0  0  0  0  0  0  0  0  0  0  0  0
  -24.6830  -15.9570   20.4820 H   0  0  0  0  0  0  0  0  0  0  0  0
  -26.2760  -15.7480   19.9630 H   0  0  0  0  0  0  0  0  0  0  0  0
  -30.2860  -25.3230   19.7010 C   0  0  0  0  0  1  0  0  0  0  0  0
  -28.3740  -25.0380   18.1920 C   0  0  0  0  0  1  0  0  0  0  0  0
  -28.7590  -25.0970   19.6870 C   0  0  1  0  0  0  0  0  0  0  0  0
  -28.4200  -26.4550   20.3120 O   0  0  0  0  0  0  0  0  0  0  0  0
  -24.6250  -31.9320   23.2370 C   0  0  0  0  0  0  0  0  0  0  0  0
  -27.2760  -27.2980   20.2090 C   0  0  0  0  0  0  0  0  0  0  0  0
  -23.4430  -30.5170   21.5970 C   0  0  0  0  0  3  0  0  0  0  0  0
  -24.9070  -28.9570   20.1830 C   0  0  0  0  0  0  0  0  0  0  0  0
  -25.9870  -30.8280   21.4300 C   0  0  0  0  0  2  0  0  0  0  0  0
  -26.0750  -29.4420   20.7810 C   0  0  0  0  0  0  0  0  0  0  0  0
  -27.2560  -28.6260   20.7770 C   0  0  0  0  0  3  0  0  0  0  0  0
  -26.0680  -26.8730   19.6180 C   0  0  0  0  0  3  0  0  0  0  0  0
  -24.9110  -27.6840   19.5920 C   0  0  0  0  0  3  0  0  0  0  0  0
  -23.6690  -29.8350   20.2220 C   0  0  0  0  0  2  0  0  0  0  0  0
  -24.7050  -31.1130   22.1440 N   0  0  0  0  0  0  0  0  0  0  0  0
  -23.5350  -32.2050   23.7630 O   0  0  0  0  0  0  0  0  0  0  0  0
  -22.7760  -29.5050   22.5620 C   0  0  0  0  0  0  0  0  0  0  0  0
  -21.4490  -29.3250   22.4340 N   0  0  0  0  0  0  0  0  0  0  0  0
  -23.4530  -28.8860   23.3860 O   0  0  0  0  0  0  0  0  0  0  0  0
  -20.9630  -29.8790   21.7440 H   0  0  0  0  0  0  0  0  0  0  0  0
  -18.0710  -28.1310   22.9520 C   0  0  0  0  0  0  0  0  0  0  0  0
  -20.6320  -28.3870   23.2060 C   0  0  0  0  0  3  0  0  0  0  0  0
  -20.7290  -26.9580   22.6240 C   0  0  0  0  0  2  0  0  0  0  0  0
  -19.6190  -26.6410   21.6160 C   0  0  0  0  0  2  0  0  0  0  0  0
  -18.2430  -26.7840   22.2690 C   0  0  0  0  0  2  0  0  0  0  0  0
  -19.1940  -28.8910   23.3770 C   0  0  0  0  0  0  0  0  0  0  0  0
  -18.9780  -30.1500   23.9780 C   0  0  0  0  0  3  0  0  0  0  0  0
  -17.6740  -30.6510   24.1540 C   0  0  0  0  0  3  0  0  0  0  0  0
  -16.5670  -29.8880   23.7450 C   0  0  0  0  0  3  0  0  0  0  0  0
  -16.7670  -28.6290   23.1500 C   0  0  0  0  0  3  0  0  0  0  0  0
  -25.8970  -32.5800   23.8660 C   0  0  0  0  0  3  0  0  0  0  0  0
  -25.5760  -33.9800   24.1810 N   0  0  0  0  0  0  0  0  0  0  0  0
  -25.9080  -35.0310   23.4190 C   0  0  0  0  0  0  0  0  0  0  0  0
  -26.5860  -34.9230   22.3930 O   0  0  0  0  0  0  0  0  0  0  0  0
  -24.9740  -34.1360   24.9770 H   0  0  0  0  0  0  0  0  0  0  0  0
  -24.1880  -36.8260   23.0240 C   0  0  0  0  0  1  0  0  0  0  0  0
  -25.4130  -36.4210   23.8620 C   0  0  0  0  0  3  0  0  0  0  0  0
  -27.5260  -37.3140   24.7430 C   0  0  0  0  0  1  0  0  0  0  0  0
  -26.4480  -37.4740   23.7700 N   0  0  0  0  0  0  0  0  0  0  0  0
  -26.0380  -38.3950   23.8990 H   0  0  0  0  0  0  0  0  0  0  0  0
  -26.4040  -31.8270   25.1570 C   0  0  1  0  0  0  0  0  0  0  0  0
  -25.3030  -31.5940   26.2170 C   0  0  0  0  0  1  0  0  0  0  0  0
  -26.9990  -30.4480   24.7900 C   0  0  0  0  0  1  0  0  0  0  0  0
  -27.5440  -32.6350   25.8210 C   0  0  0  0  0  1  0  0  0  0  0  0
  1  4  1  0
  1  2  1  0
  3  5  1  0
  3  4  1  0
  4 51  1  0
  5  8  1  0
  5  2  1  0
  6  7  1  0
  8  6  2  0
  8 10  1  0
  9  7  2  0
  9 19  1  0
 10  9  1  0
 11 19  1  0
 12 17  1  0
 13 14  1  0
 13 12  1  0
 15 14  1  0
 15 24  1  0
 15 16  1  0
 17 11  1  0
 17 16  1  0
 18 11  2  0
 19 20  1  0
 21 22  2  0
 22 41  1  0
 23 22  1  0
 23 26  1  0
 24 25  1  0
 24 21  1  0
 25 23  2  0
 26 27  1  0
 27 28  2  0
 29 32  1  0
 29 28  1  0
 30 29  2  0
 31 30  1  0
 31 26  2  0
 32 33  1  0
 33 34  1  0
 34 35  2  0
 36 35  1  0
 36 40  1  0
 37 36  2  0
 38 33  2  0
 38 37  1  0
 39 38  1  0
 41 42  1  0
 42 45  1  0
 42 44  1  0
 43 41  2  0
 46 47  1  0
 46 21  1  0
 48 46  1  0
 51 50  1  6
 51 49  1  0
 51 52  1  0
 53 64  2  0
 54 52  1  0
 54 59  1  0
 55 63  1  0
 55 65  1  0
 56 62  1  0
 56 58  1  0
 57 63  1  0
 58 57  1  0
 59 58  2  0
 60 54  2  0
 61 60  1  0
 61 56  2  0
 62 55  1  0
 63 53  1  0
 65 67  2  0
 66 65  1  0
 68 66  1  0
 69 78  2  0
 69 74  1  0
 70 66  1  0
 70 74  1  0
 71 70  1  0
 72 73  1  0
 72 71  1  0
 73 69  1  0
 74 75  2  0
 75 76  1  0
 77 76  2  0
 78 77  1  0
 79 53  1  0
 79 80  1  0
 79 89  1  0
 80 83  1  0
 81 85  1  0
 81 80  1  0
 82 81  2  0
 85 84  1  0
 87 85  1  0
 87 88  1  0
 87 86  1  0
 89 92  1  1
 89 90  1  0
 91 89  1  0
M  ISO  4  11 100  19 100  51 101  52 101
M  END
>  <TORSDO>  (26) 
F 18

>  <SCORE>  (26) 
-14.656

>  <name>  (26) 
25

>  <ligand_id>  (26) 
25

>  <original_smiles>  (26) 
[H]c1c(N([H])C(=O)N2C([H])([H])C([H])([H])C([H])([H])C([H])(n3nc(-c4c([H])c([H])c(Oc5c([H])c([H])c(F)c([H])c5F)c([H])c4[H])c(C(=O)N([H])[H])c3N([H])[H])C2([H])[H])oc(N2C([H])([H])C([H])([H])C([H])(C(Oc3c([H])c([H])c4c(c3[H])C([H])([H])N(C(=O)C([H])(N([H])C(=O)C([H])(N([H])C([H])([H])[H])C([H])([H])[H])C(C([H])([H])[H])(C([H])([H])[H])C([H])([H])[H])C([H])(C(=O)N([H])C3([H])c5c([H])c([H])c([H])c([H])c5C([H])([H])C([H])([H])C3([H])[H])C4([H])[H])(C([H])([H])[H])C([H])([H])[H])C2([H])[H])c1[H]

>  <smiles>  (26) 
[H]c1c(N([H])C(=O)N2C([H])([H])C([H])([H])C([H])([H])C([H])(n3nc(-c4c([H])c([H])c(Oc5c([H])c([H])c(F)c([H])c5F)c([H])c4[H])c(C(=O)N([H])[H])c3N([H])[H])C2([H])[H])oc(N2C([H])([H])C([H])([H])C([H])(C(Oc3c([H])c([H])c4c(c3[H])C([H])([H])N(C(=O)C([H])(N([H])C(=O)C([H])(N([H])C([H])([H])[H])C([H])([H])[H])C(C([H])([H])[H])(C([H])([H])[H])C([H])([H])[H])C([H])(C(=O)N([H])C3([H])c5c([H])c([H])c([H])c([H])c5C([H])([H])C([H])([H])C3([H])[H])C4([H])[H])(C([H])([H])[H])C([H])([H])[H])C2([H])[H])c1[H]

$$$$
26:0:0
     RDKit          3D

 95104  0  0  1  0  0  0  0  0999 V2000
  -30.2230  -23.0130   21.9540 C   0  0  0  0  0  0  0  0  0  0  0  0
  -30.0300  -24.3500   21.8360 C   0  0  0  0  0  3  0  0  0  0  0  0
  -30.8040  -22.4360   23.2340 C   0  0  0  0  0  2  0  0  0  0  0  0
  -29.8370  -21.9440   20.9240 C   0  0  0  0  0  2  0  0  0  0  0  0
  -29.8180  -21.4090   23.8100 C   0  0  0  0  0  2  0  0  0  0  0  0
  -29.4510  -20.2870   22.8140 C   0  0  0  0  0  2  0  0  0  0  0  0
  -29.9060  -20.5650   21.4450 N   0  0  0  0  0  0  0  0  0  0  0  0
  -32.7500  -18.9920   19.5840 C   0  0  0  0  0  3  0  0  0  0  0  0
  -31.9100  -19.9670   20.1490 C   0  0  0  0  0  3  0  0  0  0  0  0
  -32.4250  -17.6290   19.6900 C   0  0  0  0  0  3  0  0  0  0  0  0
  -30.4200  -18.2080   20.9380 C   0  0  0  0  0  3  0  0  0  0  0  0
  -30.7380  -19.5910   20.8430 C   0  0  0  0  0  0  0  0  0  0  0  0
  -31.2370  -17.2160   20.3410 C   0  0  0  0  0  0  0  0  0  0  0  0
  -31.4020  -14.7820   19.7920 C   0  0  0  0  0  0  0  0  0  0  0  0
  -31.0550  -12.4870   18.9530 C   0  0  0  0  0  2  0  0  0  0  0  0
  -30.0740  -12.5130   17.7640 C   0  0  0  0  0  2  0  0  0  0  0  0
  -28.6200  -12.4220   18.2630 C   0  0  0  0  0  2  0  0  0  0  0  0
  -28.3140  -13.4260   19.4090 C   0  0  0  0  0  3  0  0  0  0  0  0
  -29.4110  -13.3870   20.4980 C   0  0  0  0  0  2  0  0  0  0  0  0
  -30.7120  -13.6080   19.8460 N   0  0  0  0  0  0  0  0  0  0  0  0
  -32.4450  -14.8870   19.1430 O   0  0  0  0  0  0  0  0  0  0  0  0
  -30.8450  -15.8350   20.4250 N   0  0  0  0  0  0  0  0  0  0  0  0
  -29.9660  -15.6400   20.8820 H   0  0  0  0  0  0  0  0  0  0  0  0
  -26.0120  -14.1200   20.3270 C   0  0  0  0  0  0  0  0  0  0  0  0
  -24.9300  -13.3860   20.7360 C   0  0  0  0  0  0  0  0  0  0  0  0
  -25.3090  -12.0150   20.5980 C   0  0  0  0  0  0  0  0  0  0  0  0
  -26.9850  -13.1980   19.9720 N   0  0  0  0  0  0  0  0  0  0  0  0
  -26.5680  -11.9240   20.1910 N   0  0  0  0  0  0  0  0  0  0  0  0
  -24.5270  -10.7850   20.7790 C   0  0  0  0  0  0  0  0  0  0  0  0
  -24.8500   -9.8450   21.7830 C   0  0  0  0  0  3  0  0  0  0  0  0
  -24.0710   -8.6800   21.9510 C   0  0  0  0  0  3  0  0  0  0  0  0
  -22.9560   -8.4440   21.1110 C   0  0  0  0  0  0  0  0  0  0  0  0
  -22.6530   -9.3710   20.0980 C   0  0  0  0  0  3  0  0  0  0  0  0
  -23.4320  -10.5280   19.9300 C   0  0  0  0  0  3  0  0  0  0  0  0
  -22.1610   -7.3250   21.1800 O   0  0  0  0  0  0  0  0  0  0  0  0
  -21.8100   -6.7670   22.3820 C   0  0  0  0  0  0  0  0  0  0  0  0
  -21.1000   -7.4940   23.3640 C   0  0  0  0  0  3  0  0  0  0  0  0
  -20.6980   -6.8600   24.5560 C   0  0  0  0  0  3  0  0  0  0  0  0
  -20.9970   -5.5000   24.7660 C   0  0  0  0  0  0  0  0  0  0  0  0
  -21.7000   -4.7730   23.7890 C   0  0  0  0  0  3  0  0  0  0  0  0
  -22.1030   -5.4060   22.6000 C   0  0  0  0  0  0  0  0  0  0  0  0
  -22.7600   -4.6950   21.6510 F   0  0  0  0  0  0  0  0  0  0  0  0
  -20.6060   -4.8870   25.9080 F   0  0  0  0  0  0  0  0  0  0  0  0
  -23.5870  -13.9220   21.1420 C   0  0  0  0  0  0  0  0  0  0  0  0
  -22.9020  -13.2340   22.0480 N   0  0  0  0  0  0  0  0  0  0  0  0
  -23.1600  -14.9840   20.6920 O   0  0  0  0  0  0  0  0  0  0  0  0
  -23.2640  -12.3720   22.4310 H   0  0  0  0  0  0  0  0  0  0  0  0
  -22.0040  -13.5730   22.3630 H   0  0  0  0  0  0  0  0  0  0  0  0
  -26.2450  -15.4870   20.2070 N   0  0  0  0  0  0  0  0  0  0  0  0
  -25.5290  -16.1780   20.4090 H   0  0  0  0  0  0  0  0  0  0  0  0
  -27.0970  -15.8940   19.8430 H   0  0  0  0  0  0  0  0  0  0  0  0
  -29.4290  -25.0690   20.6940 C   0  0  0  0  0  0  0  0  0  0  0  0
  -29.0920  -24.5260   19.6330 O   0  0  0  0  0  0  0  0  0  0  0  0
  -29.2370  -26.5880   20.8700 C   0  0  0  0  0  2  0  0  0  0  0  0
  -28.7590  -27.1870   19.6630 O   0  0  0  0  0  0  0  0  0  0  0  0
  -24.6270  -31.8030   23.2030 C   0  0  0  0  0  0  0  0  0  0  0  0
  -27.5500  -27.8240   19.7860 C   0  0  0  0  0  0  0  0  0  0  0  0
  -23.5000  -30.4190   21.4900 C   0  0  0  0  0  3  0  0  0  0  0  0
  -25.0410  -29.1010   19.9460 C   0  0  0  0  0  0  0  0  0  0  0  0
  -25.9830  -31.0010   21.2730 C   0  0  0  0  0  2  0  0  0  0  0  0
  -26.1620  -29.6840   20.5500 C   0  0  0  0  0  0  0  0  0  0  0  0
  -27.4220  -29.0490   20.4770 C   0  0  0  0  0  3  0  0  0  0  0  0
  -26.4200  -27.2500   19.1750 C   0  0  0  0  0  3  0  0  0  0  0  0
  -25.1630  -27.8800   19.2590 C   0  0  0  0  0  3  0  0  0  0  0  0
  -23.7320  -29.8480   20.0660 C   0  0  0  0  0  2  0  0  0  0  0  0
  -24.7220  -31.0870   22.0460 N   0  0  0  0  0  0  0  0  0  0  0  0
  -23.5400  -31.9450   23.7810 O   0  0  0  0  0  0  0  0  0  0  0  0
  -22.9540  -29.2870   22.3920 C   0  0  0  0  0  0  0  0  0  0  0  0
  -21.6780  -28.9210   22.1890 N   0  0  0  0  0  0  0  0  0  0  0  0
  -23.6790  -28.7390   23.2270 O   0  0  0  0  0  0  0  0  0  0  0  0
  -21.1470  -29.4200   21.4890 H   0  0  0  0  0  0  0  0  0  0  0  0
  -18.5270  -27.1720   22.3850 C   0  0  0  0  0  0  0  0  0  0  0  0
  -20.9660  -27.8550   22.8900 C   0  0  0  0  0  3  0  0  0  0  0  0
  -21.3640  -26.4660   22.3400 C   0  0  0  0  0  2  0  0  0  0  0  0
  -20.4320  -25.9680   21.2320 C   0  0  0  0  0  2  0  0  0  0  0  0
  -18.9900  -25.8750   21.7430 C   0  0  0  0  0  2  0  0  0  0  0  0
  -19.4550  -28.1090   22.9080 C   0  0  0  0  0  0  0  0  0  0  0  0
  -18.9730  -29.3160   23.4600 C   0  0  0  0  0  3  0  0  0  0  0  0
  -17.5930  -29.5900   23.4970 C   0  0  0  0  0  3  0  0  0  0  0  0
  -16.6760  -28.6510   22.9910 C   0  0  0  0  0  3  0  0  0  0  0  0
  -17.1430  -27.4450   22.4390 C   0  0  0  0  0  3  0  0  0  0  0  0
  -25.8730  -32.4930   23.8420 C   0  0  0  0  0  3  0  0  0  0  0  0
  -26.3970  -31.7540   25.1350 C   0  0  1  0  0  0  0  0  0  0  0  0
  -25.2890  -31.4500   26.1710 C   0  0  0  0  0  1  0  0  0  0  0  0
  -27.0720  -30.4150   24.7600 C   0  0  0  0  0  1  0  0  0  0  0  0
  -27.4770  -32.6170   25.8320 C   0  0  0  0  0  1  0  0  0  0  0  0
  -25.5020  -33.8800   24.1490 N   0  0  0  0  0  0  0  0  0  0  0  0
  -25.8360  -34.9380   23.3990 C   0  0  0  0  0  0  0  0  0  0  0  0
  -26.5580  -34.8530   22.4010 O   0  0  0  0  0  0  0  0  0  0  0  0
  -24.8680  -34.0190   24.9220 H   0  0  0  0  0  0  0  0  0  0  0  0
  -24.0770  -36.6740   22.9340 C   0  0  0  0  0  1  0  0  0  0  0  0
  -25.2790  -36.3110   23.8230 C   0  0  0  0  0  3  0  0  0  0  0  0
  -27.3290  -37.2600   24.7860 C   0  0  0  0  0  1  0  0  0  0  0  0
  -26.2830  -37.3960   23.7740 N   0  0  0  0  0  0  0  0  0  0  0  0
  -25.8400  -38.3030   23.8940 H   0  0  0  0  0  0  0  0  0  0  0  0
  1  3  1  0
  2  1  2  0
  3  5  1  0
  4  7  1  0
  4  1  1  0
  6  5  1  0
  7  6  1  0
  8 10  2  0
  8  9  1  0
  9 12  2  0
 10 13  1  0
 12 11  1  0
 12  7  1  0
 13 22  1  0
 13 11  2  0
 14 20  1  0
 14 22  1  0
 15 20  1  0
 16 17  1  0
 16 15  1  0
 18 17  1  0
 18 27  1  0
 18 19  1  0
 20 19  1  0
 21 14  2  0
 22 23  1  0
 24 25  2  0
 25 44  1  0
 26 25  1  0
 26 29  1  0
 27 28  1  0
 27 24  1  0
 28 26  2  0
 29 30  1  0
 30 31  2  0
 32 35  1  0
 32 31  1  0
 33 32  2  0
 34 33  1  0
 34 29  2  0
 35 36  1  0
 36 41  2  0
 36 37  1  0
 37 38  2  0
 38 39  1  0
 39 43  1  0
 40 39  2  0
 41 40  1  0
 42 41  1  0
 44 45  1  0
 45 48  1  0
 45 47  1  0
 46 44  2  0
 49 24  1  0
 49 50  1  0
 51 49  1  0
 52 54  1  0
 52  2  1  0
 53 52  2  0
 55 57  1  0
 55 54  1  0
 56 67  2  0
 57 62  1  0
 58 66  1  0
 58 68  1  0
 59 65  1  0
 59 61  1  0
 60 66  1  0
 61 60  1  0
 62 61  2  0
 63 64  1  0
 63 57  2  0
 64 59  2  0
 65 58  1  0
 66 56  1  0
 68 70  2  0
 69 68  1  0
 71 69  1  0
 72 81  2  0
 72 77  1  0
 73 69  1  0
 73 77  1  0
 74 73  1  0
 75 76  1  0
 75 74  1  0
 76 72  1  0
 77 78  2  0
 78 79  1  0
 80 79  2  0
 81 80  1  0
 82 56  1  0
 82 87  1  0
 82 83  1  0
 83 86  1  1
 83 84  1  0
 85 83  1  0
 87 90  1  0
 88 92  1  0
 88 87  1  0
 89 88  2  0
 92 91  1  0
 94 92  1  0
 94 95  1  0
 94 93  1  0
M  ISO  4  14 100  22 100  54 101  55 101
M  END
>  <TORSDO>  (27) 
F 19

>  <SCORE>  (27) 
-11.332

>  <name>  (27) 
26

>  <ligand_id>  (27) 
26

>  <original_smiles>  (27) 
[H]C(C(=O)C([H])([H])Oc1c([H])c([H])c2c(c1[H])C([H])([H])N(C(=O)C([H])(N([H])C(=O)C([H])(N([H])C([H])([H])[H])C([H])([H])[H])C(C([H])([H])[H])(C([H])([H])[H])C([H])([H])[H])C([H])(C(=O)N([H])C1([H])c3c([H])c([H])c([H])c([H])c3C([H])([H])C([H])([H])C1([H])[H])C2([H])[H])=C1C([H])([H])N(c2c([H])c([H])c([H])c(N([H])C(=O)N3C([H])([H])C([H])([H])C([H])([H])C([H])(n4nc(-c5c([H])c([H])c(Oc6c([H])c([H])c(F)c([H])c6F)c([H])c5[H])c(C(=O)N([H])[H])c4N([H])[H])C3([H])[H])c2[H])C([H])([H])C([H])([H])C1([H])[H]

>  <smiles>  (27) 
[H]C(C(=O)C([H])([H])Oc1c([H])c([H])c2c(c1[H])C([H])([H])N(C(=O)C([H])(N([H])C(=O)C([H])(N([H])C([H])([H])[H])C([H])([H])[H])C(C([H])([H])[H])(C([H])([H])[H])C([H])([H])[H])C([H])(C(=O)N([H])C1([H])c3c([H])c([H])c([H])c([H])c3C([H])([H])C([H])([H])C1([H])[H])C2([H])[H])=C1C([H])([H])N(c2c([H])c([H])c([H])c(N([H])C(=O)N3C([H])([H])C([H])([H])C([H])([H])C([H])(n4nc(-c5c([H])c([H])c(Oc6c([H])c([H])c(F)c([H])c6F)c([H])c5[H])c(C(=O)N([H])[H])c4N([H])[H])C3([H])[H])c2[H])C([H])([H])C([H])([H])C1([H])[H]

$$$$
27:0:0
     RDKit          3D

 98107  0  0  1  0  0  0  0  0999 V2000
  -30.2740  -23.5130   21.2940 C   0  0  0  0  0  2  0  0  0  0  0  0
  -29.4850  -23.3750   18.8980 C   0  0  0  0  0  2  0  0  0  0  0  0
  -29.7220  -22.0770   21.5080 C   0  0  0  0  0  2  0  0  0  0  0  0
  -28.9760  -21.9390   19.2170 C   0  0  0  0  0  2  0  0  0  0  0  0
  -29.6640  -24.3550   20.1110 C   0  0  2  0  0  0  0  0  0  0  0  0
  -30.7550  -25.3770   19.7050 C   0  0  0  0  0  1  0  0  0  0  0  0
  -29.7850  -21.3160   20.2640 N   0  0  0  0  0  0  0  0  0  0  0  0
  -28.9040  -19.1520   21.0470 C   0  0  0  0  0  3  0  0  0  0  0  0
  -28.9730  -17.7410   21.1450 C   0  0  0  0  0  3  0  0  0  0  0  0
  -30.9820  -17.7390   19.8090 C   0  0  0  0  0  3  0  0  0  0  0  0
  -30.9230  -19.1600   19.6940 C   0  0  0  0  0  0  0  0  0  0  0  0
  -29.8690  -19.8940   20.3240 C   0  0  0  0  0  0  0  0  0  0  0  0
  -30.0120  -17.0020   20.5360 C   0  0  0  0  0  0  0  0  0  0  0  0
  -30.7140  -14.5780   20.0760 C   0  0  0  0  0  0  0  0  0  0  0  0
  -30.3990  -12.4170   18.9100 C   0  0  0  0  0  2  0  0  0  0  0  0
  -29.3780  -12.6370   17.7720 C   0  0  0  0  0  2  0  0  0  0  0  0
  -27.9330  -12.4800   18.2890 C   0  0  0  0  0  2  0  0  0  0  0  0
  -27.6740  -13.2790   19.5940 C   0  0  0  0  0  3  0  0  0  0  0  0
  -28.7980  -13.0280   20.6260 C   0  0  0  0  0  2  0  0  0  0  0  0
  -30.0810  -13.3710   19.9870 N   0  0  0  0  0  0  0  0  0  0  0  0
  -31.8170  -14.7800   19.5590 O   0  0  0  0  0  0  0  0  0  0  0  0
  -29.9870  -15.5610   20.6680 N   0  0  0  0  0  0  0  0  0  0  0  0
  -29.1800  -15.2000   21.1550 H   0  0  0  0  0  0  0  0  0  0  0  0
  -25.3320  -13.8700   20.4790 C   0  0  0  0  0  0  0  0  0  0  0  0
  -24.2840  -13.0900   20.8890 C   0  0  0  0  0  0  0  0  0  0  0  0
  -24.7340  -11.7370   20.7770 C   0  0  0  0  0  0  0  0  0  0  0  0
  -26.3540  -12.9930   20.1490 N   0  0  0  0  0  0  0  0  0  0  0  0
  -26.0000  -11.7030   20.3840 N   0  0  0  0  0  0  0  0  0  0  0  0
  -24.0120  -10.4720   20.9670 C   0  0  0  0  0  0  0  0  0  0  0  0
  -24.4600   -9.4990   21.8870 C   0  0  0  0  0  3  0  0  0  0  0  0
  -23.7400   -8.2980   22.0660 C   0  0  0  0  0  3  0  0  0  0  0  0
  -22.5570   -8.0630   21.3240 C   0  0  0  0  0  0  0  0  0  0  0  0
  -22.1280   -9.0260   20.3940 C   0  0  0  0  0  3  0  0  0  0  0  0
  -22.8490  -10.2180   20.2130 C   0  0  0  0  0  3  0  0  0  0  0  0
  -21.8080   -6.9150   21.4130 O   0  0  0  0  0  0  0  0  0  0  0  0
  -21.7210   -6.1990   22.5790 C   0  0  0  0  0  0  0  0  0  0  0  0
  -21.2390   -6.7790   23.7740 C   0  0  0  0  0  3  0  0  0  0  0  0
  -21.0990   -5.9890   24.9330 C   0  0  0  0  0  3  0  0  0  0  0  0
  -21.4340   -4.6220   24.9000 C   0  0  0  0  0  0  0  0  0  0  0  0
  -21.9090   -4.0420   23.7090 C   0  0  0  0  0  3  0  0  0  0  0  0
  -22.0490   -4.8290   22.5530 C   0  0  0  0  0  0  0  0  0  0  0  0
  -22.4880   -4.2610   21.4040 F   0  0  0  0  0  0  0  0  0  0  0  0
  -21.2930   -3.8620   26.0100 F   0  0  0  0  0  0  0  0  0  0  0  0
  -22.9110  -13.5630   21.2690 C   0  0  0  0  0  0  0  0  0  0  0  0
  -22.2380  -12.8390   22.1580 N   0  0  0  0  0  0  0  0  0  0  0  0
  -22.4460  -14.6070   20.8160 O   0  0  0  0  0  0  0  0  0  0  0  0
  -22.6300  -11.9920   22.5440 H   0  0  0  0  0  0  0  0  0  0  0  0
  -21.3200  -13.1360   22.4560 H   0  0  0  0  0  0  0  0  0  0  0  0
  -25.4960  -15.2460   20.3410 N   0  0  0  0  0  0  0  0  0  0  0  0
  -24.7420  -15.9000   20.5180 H   0  0  0  0  0  0  0  0  0  0  0  0
  -26.3200  -15.6880   19.9520 H   0  0  0  0  0  0  0  0  0  0  0  0
  -32.0140  -19.8800   18.8940 C   0  0  1  0  0  0  0  0  0  0  0  0
  -32.9350  -19.0310   18.4340 F   0  0  0  0  0  0  0  0  0  0  0  0
  -31.4890  -20.5000   17.8370 F   0  0  0  0  0  0  0  0  0  0  0  0
  -32.6470  -20.7760   19.6530 F   0  0  0  0  0  0  0  0  0  0  0  0
  -27.8660  -25.1110   21.8980 C   0  0  0  0  0  1  0  0  0  0  0  0
  -28.3370  -25.1910   20.4300 C   0  0  0  0  0  3  0  0  0  0  0  0
  -28.4340  -26.6190   20.1000 O   0  0  0  0  0  0  0  0  0  0  0  0
  -24.6310  -31.8500   23.1830 C   0  0  0  0  0  0  0  0  0  0  0  0
  -27.2770  -27.3920   20.0780 C   0  0  0  0  0  0  0  0  0  0  0  0
  -23.4300  -30.4600   21.5280 C   0  0  0  0  0  3  0  0  0  0  0  0
  -24.8890  -28.9360   20.0900 C   0  0  0  0  0  0  0  0  0  0  0  0
  -25.9600  -30.8140   21.3390 C   0  0  0  0  0  2  0  0  0  0  0  0
  -26.0500  -29.4470   20.6830 C   0  0  0  0  0  0  0  0  0  0  0  0
  -27.2480  -28.6850   20.6670 C   0  0  0  0  0  3  0  0  0  0  0  0
  -26.0970  -26.9160   19.4650 C   0  0  0  0  0  3  0  0  0  0  0  0
  -24.9100  -27.6740   19.4740 C   0  0  0  0  0  3  0  0  0  0  0  0
  -23.6450  -29.7970   20.1420 C   0  0  0  0  0  2  0  0  0  0  0  0
  -24.6920  -31.0570   22.0750 N   0  0  0  0  0  0  0  0  0  0  0  0
  -23.5480  -32.1160   23.7230 O   0  0  0  0  0  0  0  0  0  0  0  0
  -22.7780  -29.4300   22.4790 C   0  0  0  0  0  0  0  0  0  0  0  0
  -21.4500  -29.2630   22.3640 N   0  0  0  0  0  0  0  0  0  0  0  0
  -23.4620  -28.7850   23.2790 O   0  0  0  0  0  0  0  0  0  0  0  0
  -20.9590  -29.8360   21.6920 H   0  0  0  0  0  0  0  0  0  0  0  0
  -18.0670  -28.1060   22.8960 C   0  0  0  0  0  0  0  0  0  0  0  0
  -20.6330  -28.3190   23.1270 C   0  0  0  0  0  3  0  0  0  0  0  0
  -20.7030  -26.9000   22.5170 C   0  0  0  0  0  2  0  0  0  0  0  0
  -19.5790  -26.6190   21.5150 C   0  0  0  0  0  2  0  0  0  0  0  0
  -18.2110  -26.7690   22.1870 C   0  0  0  0  0  2  0  0  0  0  0  0
  -19.2050  -28.8400   23.3240 C   0  0  0  0  0  0  0  0  0  0  0  0
  -19.0170  -30.0940   23.9470 C   0  0  0  0  0  3  0  0  0  0  0  0
  -17.7240  -30.6110   24.1470 C   0  0  0  0  0  3  0  0  0  0  0  0
  -16.6010  -29.8720   23.7370 C   0  0  0  0  0  3  0  0  0  0  0  0
  -16.7730  -28.6210   23.1180 C   0  0  0  0  0  3  0  0  0  0  0  0
  -25.9150  -32.4790   23.8090 C   0  0  0  0  0  3  0  0  0  0  0  0
  -26.4390  -31.6930   25.0740 C   0  0  1  0  0  0  0  0  0  0  0  0
  -25.3490  -31.4360   26.1400 C   0  0  0  0  0  1  0  0  0  0  0  0
  -27.0280  -30.3250   24.6600 C   0  0  0  0  0  1  0  0  0  0  0  0
  -27.5840  -32.4860   25.7470 C   0  0  0  0  0  1  0  0  0  0  0  0
  -25.6010  -33.8710   24.1570 N   0  0  0  0  0  0  0  0  0  0  0  0
  -25.9220  -34.9350   23.4090 C   0  0  0  0  0  0  0  0  0  0  0  0
  -26.5850  -34.8470   22.3710 O   0  0  0  0  0  0  0  0  0  0  0  0
  -25.0130  -34.0130   24.9650 H   0  0  0  0  0  0  0  0  0  0  0  0
  -24.1830  -36.7240   23.0820 C   0  0  0  0  0  1  0  0  0  0  0  0
  -25.4290  -36.3150   23.8850 C   0  0  0  0  0  3  0  0  0  0  0  0
  -27.5590  -37.2030   24.7240 C   0  0  0  0  0  1  0  0  0  0  0  0
  -26.4560  -37.3740   23.7830 N   0  0  0  0  0  0  0  0  0  0  0  0
  -26.0450  -38.2900   23.9410 H   0  0  0  0  0  0  0  0  0  0  0  0
  1  3  1  0
  2  4  1  0
  2  5  1  0
  4  7  1  0
  5  6  1  6
  5 57  1  0
  5  1  1  0
  7 12  1  0
  7  3  1  0
  8  9  1  0
 10 13  1  0
 11 10  2  0
 11 12  1  0
 12  8  2  0
 13 22  1  0
 13  9  2  0
 14 22  1  0
 15 20  1  0
 16 17  1  0
 16 15  1  0
 18 17  1  0
 18 27  1  0
 18 19  1  0
 20 14  1  0
 20 19  1  0
 21 14  2  0
 22 23  1  0
 24 25  2  0
 25 44  1  0
 26 25  1  0
 26 29  1  0
 27 28  1  0
 27 24  1  0
 28 26  2  0
 29 30  1  0
 30 31  2  0
 32 35  1  0
 32 31  1  0
 33 32  2  0
 34 33  1  0
 34 29  2  0
 35 36  1  0
 36 37  1  0
 37 38  2  0
 39 38  1  0
 39 43  1  0
 40 39  2  0
 41 36  2  0
 41 40  1  0
 42 41  1  0
 44 45  1  0
 45 48  1  0
 45 47  1  0
 46 44  2  0
 49 24  1  0
 49 50  1  0
 51 49  1  0
 52 55  1  1
 52 11  1  0
 53 52  1  0
 54 52  1  0
 57 56  1  0
 58 57  1  0
 59 70  2  0
 60 58  1  0
 60 65  1  0
 61 69  1  0
 61 71  1  0
 62 68  1  0
 62 64  1  0
 63 69  1  0
 64 63  1  0
 65 64  2  0
 66 67  1  0
 66 60  2  0
 67 62  2  0
 68 61  1  0
 69 59  1  0
 71 73  2  0
 72 71  1  0
 74 72  1  0
 75 84  2  0
 75 80  1  0
 76 72  1  0
 76 80  1  0
 77 76  1  0
 78 79  1  0
 78 77  1  0
 79 75  1  0
 80 81  2  0
 81 82  1  0
 83 82  2  0
 84 83  1  0
 85 59  1  0
 85 90  1  0
 85 86  1  0
 86 89  1  1
 86 87  1  0
 88 86  1  0
 90 93  1  0
 91 95  1  0
 91 90  1  0
 92 91  2  0
 95 94  1  0
 97 95  1  0
 97 98  1  0
 97 96  1  0
M  ISO  4  14 100  22 100  57 101  58 101
M  END
>  <TORSDO>  (28) 
F 19

>  <SCORE>  (28) 
-13.921

>  <name>  (28) 
27

>  <ligand_id>  (28) 
27

>  <original_smiles>  (28) 
[H]c1c([H])c([H])c2c(c1[H])C([H])([H])C([H])([H])C([H])([H])C2([H])N([H])C(=O)C1([H])N(C(=O)C([H])(N([H])C(=O)C([H])(N([H])C([H])([H])[H])C([H])([H])[H])C(C([H])([H])[H])(C([H])([H])[H])C([H])([H])[H])C([H])([H])c2c([H])c(OC([H])(C([H])([H])[H])C3(C([H])([H])[H])C([H])([H])C([H])([H])N(c4c([H])c([H])c(N([H])C(=O)N5C([H])([H])C([H])([H])C([H])([H])C([H])(n6nc(-c7c([H])c([H])c(Oc8c([H])c([H])c(F)c([H])c8F)c([H])c7[H])c(C(=O)N([H])[H])c6N([H])[H])C5([H])[H])c([H])c4C(F)(F)F)C([H])([H])C3([H])[H])c([H])c([H])c2C1([H])[H]

>  <smiles>  (28) 
[H]c1c([H])c([H])c2c(c1[H])C([H])([H])C([H])([H])C([H])([H])C2([H])N([H])C(=O)C1([H])N(C(=O)C([H])(N([H])C(=O)C([H])(N([H])C([H])([H])[H])C([H])([H])[H])C(C([H])([H])[H])(C([H])([H])[H])C([H])([H])[H])C([H])([H])c2c([H])c(OC([H])(C([H])([H])[H])C3(C([H])([H])[H])C([H])([H])C([H])([H])N(c4c([H])c([H])c(N([H])C(=O)N5C([H])([H])C([H])([H])C([H])([H])C([H])(n6nc(-c7c([H])c([H])c(Oc8c([H])c([H])c(F)c([H])c8F)c([H])c7[H])c(C(=O)N([H])[H])c6N([H])[H])C5([H])[H])c([H])c4C(F)(F)F)C([H])([H])C3([H])[H])c([H])c([H])c2C1([H])[H]

$$$$
28:0:0
     RDKit          3D

 94103  0  0  1  0  0  0  0  0999 V2000
  -31.0240  -20.7400   19.1910 C   0  0  0  0  0  2  0  0  0  0  0  0
  -30.6870  -22.1970   18.8090 C   0  0  0  0  0  2  0  0  0  0  0  0
  -29.2350  -21.5370   20.6120 C   0  0  0  0  0  2  0  0  0  0  0  0
  -30.4370  -20.5330   20.5850 C   0  0  0  0  0  3  0  0  0  0  0  0
  -29.8350  -22.8320   19.9470 C   0  0  0  0  0  3  0  0  0  0  0  0
  -30.7260  -18.5620   22.3030 C   0  0  0  0  0  3  0  0  0  0  0  0
  -30.6460  -17.1400   22.2290 C   0  0  0  0  0  3  0  0  0  0  0  0
  -30.3710  -19.0780   21.0820 C   0  0  0  0  0  0  0  0  0  0  0  0
  -30.2540  -16.8510   20.9540 C   0  0  0  0  0  0  0  0  0  0  0  0
  -30.0140  -18.0230   20.2450 O   0  0  0  0  0  0  0  0  0  0  0  0
  -30.7060  -14.5290   20.2130 C   0  0  0  0  0  0  0  0  0  0  0  0
  -30.4090  -12.3470   19.0670 C   0  0  0  0  0  2  0  0  0  0  0  0
  -29.4250  -12.5360   17.8910 C   0  0  0  0  0  2  0  0  0  0  0  0
  -27.9640  -12.3990   18.3650 C   0  0  0  0  0  2  0  0  0  0  0  0
  -27.6660  -13.2350   19.6380 C   0  0  0  0  0  3  0  0  0  0  0  0
  -28.7550  -13.0130   20.7120 C   0  0  0  0  0  2  0  0  0  0  0  0
  -30.0530  -13.3350   20.0980 N   0  0  0  0  0  0  0  0  0  0  0  0
  -31.8670  -14.6790   19.8180 O   0  0  0  0  0  0  0  0  0  0  0  0
  -29.9130  -15.5840   20.5490 N   0  0  0  0  0  0  0  0  0  0  0  0
  -28.9490  -15.3340   20.7080 H   0  0  0  0  0  0  0  0  0  0  0  0
  -25.3040  -13.8720   20.4260 C   0  0  0  0  0  0  0  0  0  0  0  0
  -24.2350  -13.1130   20.8200 C   0  0  0  0  0  0  0  0  0  0  0  0
  -24.6740  -11.7550   20.7660 C   0  0  0  0  0  0  0  0  0  0  0  0
  -26.3270  -12.9760   20.1580 N   0  0  0  0  0  0  0  0  0  0  0  0
  -25.9540  -11.6980   20.4210 N   0  0  0  0  0  0  0  0  0  0  0  0
  -23.9330  -10.5030   20.9640 C   0  0  0  0  0  0  0  0  0  0  0  0
  -24.3660   -9.5280   21.8900 C   0  0  0  0  0  3  0  0  0  0  0  0
  -23.6260   -8.3400   22.0770 C   0  0  0  0  0  3  0  0  0  0  0  0
  -22.4420   -8.1190   21.3350 C   0  0  0  0  0  0  0  0  0  0  0  0
  -22.0280   -9.0810   20.3990 C   0  0  0  0  0  3  0  0  0  0  0  0
  -22.7680  -10.2610   20.2110 C   0  0  0  0  0  3  0  0  0  0  0  0
  -21.6730   -6.9830   21.4320 O   0  0  0  0  0  0  0  0  0  0  0  0
  -21.6150   -6.2500   22.5900 C   0  0  0  0  0  0  0  0  0  0  0  0
  -21.1720   -6.8130   23.8070 C   0  0  0  0  0  3  0  0  0  0  0  0
  -21.0620   -6.0060   24.9560 C   0  0  0  0  0  3  0  0  0  0  0  0
  -21.3820   -4.6370   24.8910 C   0  0  0  0  0  0  0  0  0  0  0  0
  -21.8180   -4.0740   23.6780 C   0  0  0  0  0  3  0  0  0  0  0  0
  -21.9310   -4.8780   22.5300 C   0  0  0  0  0  0  0  0  0  0  0  0
  -22.3310   -4.3260   21.3600 F   0  0  0  0  0  0  0  0  0  0  0  0
  -21.2690   -3.8590   25.9920 F   0  0  0  0  0  0  0  0  0  0  0  0
  -22.8530  -13.6110   21.1330 C   0  0  0  0  0  0  0  0  0  0  0  0
  -22.1360  -12.9150   22.0090 N   0  0  0  0  0  0  0  0  0  0  0  0
  -22.4200  -14.6490   20.6370 O   0  0  0  0  0  0  0  0  0  0  0  0
  -22.5000  -12.0740   22.4320 H   0  0  0  0  0  0  0  0  0  0  0  0
  -21.2090  -13.2290   22.2620 H   0  0  0  0  0  0  0  0  0  0  0  0
  -25.4840  -15.2410   20.2530 N   0  0  0  0  0  0  0  0  0  0  0  0
  -24.7260  -15.9020   20.3820 H   0  0  0  0  0  0  0  0  0  0  0  0
  -26.3160  -15.6690   19.8670 H   0  0  0  0  0  0  0  0  0  0  0  0
  -27.7240  -23.6200   18.7210 C   0  0  0  0  0  1  0  0  0  0  0  0
  -29.8140  -24.9710   18.5500 C   0  0  0  0  0  1  0  0  0  0  0  0
  -28.9530  -24.1130   19.5140 C   0  0  2  0  0  0  0  0  0  0  0  0
  -29.2690  -25.0330   21.9570 C   0  0  0  0  0  1  0  0  0  0  0  0
  -28.4460  -25.1110   20.6640 C   0  0  0  0  0  3  0  0  0  0  0  0
  -28.4750  -26.5420   20.3270 O   0  0  0  0  0  0  0  0  0  0  0  0
  -24.6380  -31.8740   23.2520 C   0  0  0  0  0  0  0  0  0  0  0  0
  -27.3060  -27.2990   20.3290 C   0  0  0  0  0  0  0  0  0  0  0  0
  -23.4520  -30.4340   21.6310 C   0  0  0  0  0  3  0  0  0  0  0  0
  -24.9210  -28.8530   20.2660 C   0  0  0  0  0  0  0  0  0  0  0  0
  -25.9860  -30.7720   21.4580 C   0  0  0  0  0  2  0  0  0  0  0  0
  -26.0790  -29.3810   20.8510 C   0  0  0  0  0  0  0  0  0  0  0  0
  -27.2760  -28.6160   20.8670 C   0  0  0  0  0  3  0  0  0  0  0  0
  -26.1250  -26.7990   19.7430 C   0  0  0  0  0  3  0  0  0  0  0  0
  -24.9430  -27.5640   19.7050 C   0  0  0  0  0  3  0  0  0  0  0  0
  -23.6800  -29.7200   20.2720 C   0  0  0  0  0  2  0  0  0  0  0  0
  -24.7100  -31.0450   22.1710 N   0  0  0  0  0  0  0  0  0  0  0  0
  -23.5490  -32.1600   23.7720 O   0  0  0  0  0  0  0  0  0  0  0  0
  -22.7860  -29.4390   22.6100 C   0  0  0  0  0  0  0  0  0  0  0  0
  -21.4610  -29.2610   22.4770 N   0  0  0  0  0  0  0  0  0  0  0  0
  -23.4590  -28.8280   23.4440 O   0  0  0  0  0  0  0  0  0  0  0  0
  -20.9780  -29.8040   21.7750 H   0  0  0  0  0  0  0  0  0  0  0  0
  -18.0760  -28.0930   22.9810 C   0  0  0  0  0  0  0  0  0  0  0  0
  -20.6340  -28.3420   23.2600 C   0  0  0  0  0  3  0  0  0  0  0  0
  -20.7310  -26.9000   22.7100 C   0  0  0  0  0  2  0  0  0  0  0  0
  -19.6320  -26.5660   21.6970 C   0  0  0  0  0  2  0  0  0  0  0  0
  -18.2480  -26.7310   22.3320 C   0  0  0  0  0  2  0  0  0  0  0  0
  -19.1970  -28.8570   23.4030 C   0  0  0  0  0  0  0  0  0  0  0  0
  -18.9830  -30.1320   23.9690 C   0  0  0  0  0  3  0  0  0  0  0  0
  -17.6810  -30.6440   24.1190 C   0  0  0  0  0  3  0  0  0  0  0  0
  -16.5740  -29.8780   23.7140 C   0  0  0  0  0  3  0  0  0  0  0  0
  -16.7730  -28.6040   23.1510 C   0  0  0  0  0  3  0  0  0  0  0  0
  -25.9140  -32.5220   23.8730 C   0  0  0  0  0  3  0  0  0  0  0  0
  -26.4350  -31.7640   25.1550 C   0  0  1  0  0  0  0  0  0  0  0  0
  -25.3420  -31.5190   26.2210 C   0  0  0  0  0  1  0  0  0  0  0  0
  -27.0350  -30.3910   24.7720 C   0  0  0  0  0  1  0  0  0  0  0  0
  -27.5740  -32.5750   25.8180 C   0  0  0  0  0  1  0  0  0  0  0  0
  -25.5920  -33.9200   24.1930 N   0  0  0  0  0  0  0  0  0  0  0  0
  -25.9150  -34.9700   23.4270 C   0  0  0  0  0  0  0  0  0  0  0  0
  -26.5880  -34.8650   22.3980 O   0  0  0  0  0  0  0  0  0  0  0  0
  -24.9940  -34.0740   24.9920 H   0  0  0  0  0  0  0  0  0  0  0  0
  -24.1760  -36.7470   23.0520 C   0  0  0  0  0  1  0  0  0  0  0  0
  -25.4150  -36.3570   23.8730 C   0  0  0  0  0  3  0  0  0  0  0  0
  -27.5340  -37.2670   24.7170 C   0  0  0  0  0  1  0  0  0  0  0  0
  -26.4410  -37.4170   23.7610 N   0  0  0  0  0  0  0  0  0  0  0  0
  -26.0260  -38.3350   23.8950 H   0  0  0  0  0  0  0  0  0  0  0  0
  1  4  1  0
  2  1  1  0
  2  5  1  0
  4  3  1  0
  4  8  1  0
  5 51  1  0
  5  3  1  0
  7  6  1  0
  8  6  2  0
  9  7  2  0
 10  9  1  0
 10  8  1  0
 11 19  1  0
 12 17  1  0
 13 14  1  0
 13 12  1  0
 15 14  1  0
 15 24  1  0
 15 16  1  0
 17 11  1  0
 17 16  1  0
 18 11  2  0
 19 20  1  0
 19  9  1  0
 21 22  2  0
 22 41  1  0
 23 22  1  0
 23 26  1  0
 24 25  1  0
 24 21  1  0
 25 23  2  0
 26 27  1  0
 27 28  2  0
 29 32  1  0
 29 28  1  0
 30 29  2  0
 31 30  1  0
 31 26  2  0
 32 33  1  0
 33 34  1  0
 34 35  2  0
 36 35  1  0
 36 40  1  0
 37 36  2  0
 38 33  2  0
 38 37  1  0
 39 38  1  0
 41 42  1  0
 42 45  1  0
 42 44  1  0
 43 41  2  0
 46 47  1  0
 46 21  1  0
 48 46  1  0
 51 49  1  6
 50 51  1  0
 51 53  1  0
 53 52  1  0
 54 56  1  0
 54 53  1  0
 55 66  2  0
 56 61  1  0
 57 65  1  0
 57 67  1  0
 58 64  1  0
 58 60  1  0
 59 65  1  0
 60 61  2  0
 60 59  1  0
 62 56  2  0
 63 62  1  0
 63 58  2  0
 64 57  1  0
 65 55  1  0
 67 69  2  0
 68 67  1  0
 70 68  1  0
 71 80  2  0
 71 76  1  0
 72 68  1  0
 72 76  1  0
 73 72  1  0
 74 75  1  0
 74 73  1  0
 75 71  1  0
 76 77  2  0
 77 78  1  0
 79 78  2  0
 80 79  1  0
 81 55  1  0
 81 86  1  0
 81 82  1  0
 82 85  1  1
 82 83  1  0
 84 82  1  0
 86 89  1  0
 87 91  1  0
 87 86  1  0
 88 87  2  0
 91 90  1  0
 93 91  1  0
 93 94  1  0
 93 92  1  0
M  ISO  4  11 100  19 100  53 101  54 101
M  END
>  <TORSDO>  (29) 
F 19

>  <SCORE>  (29) 
-14.321

>  <name>  (29) 
28

>  <ligand_id>  (29) 
28

>  <original_smiles>  (29) 
[H]c1c(N([H])C(=O)N2C([H])([H])C([H])([H])C([H])([H])C([H])(n3nc(-c4c([H])c([H])c(Oc5c([H])c([H])c(F)c([H])c5F)c([H])c4[H])c(C(=O)N([H])[H])c3N([H])[H])C2([H])[H])oc(C2([H])C([H])([H])C([H])([H])C([H])(C(C([H])([H])[H])(C([H])([H])[H])C([H])(Oc3c([H])c([H])c4c(c3[H])C([H])([H])N(C(=O)C([H])(N([H])C(=O)C([H])(N([H])C([H])([H])[H])C([H])([H])[H])C(C([H])([H])[H])(C([H])([H])[H])C([H])([H])[H])C([H])(C(=O)N([H])C3([H])c5c([H])c([H])c([H])c([H])c5C([H])([H])C([H])([H])C3([H])[H])C4([H])[H])C([H])([H])[H])C2([H])[H])c1[H]

>  <smiles>  (29) 
[H]c1c(N([H])C(=O)N2C([H])([H])C([H])([H])C([H])([H])C([H])(n3nc(-c4c([H])c([H])c(Oc5c([H])c([H])c(F)c([H])c5F)c([H])c4[H])c(C(=O)N([H])[H])c3N([H])[H])C2([H])[H])oc(C2([H])C([H])([H])C([H])([H])C([H])(C(C([H])([H])[H])(C([H])([H])[H])C([H])(Oc3c([H])c([H])c4c(c3[H])C([H])([H])N(C(=O)C([H])(N([H])C(=O)C([H])(N([H])C([H])([H])[H])C([H])([H])[H])C(C([H])([H])[H])(C([H])([H])[H])C([H])([H])[H])C([H])(C(=O)N([H])C3([H])c5c([H])c([H])c([H])c([H])c5C([H])([H])C([H])([H])C3([H])[H])C4([H])[H])C([H])([H])[H])C2([H])[H])c1[H]

$$$$
29:0:0
     RDKit          3D

 96105  0  0  1  0  0  0  0  0999 V2000
  -28.2640  -20.8850   20.6390 C   0  0  0  0  0  2  0  0  0  0  0  0
  -29.5110  -21.8470   19.2810 C   0  0  0  0  0  2  0  0  0  0  0  0
  -28.8520  -20.4630   19.2920 C   0  0  0  0  0  3  0  0  0  0  0  0
  -28.3920  -22.3740   20.2030 C   0  0  1  0  0  0  0  0  0  0  0  0
  -27.1360  -22.9170   19.5080 C   0  0  0  0  0  1  0  0  0  0  0  0
  -31.6270  -18.2260   17.9990 C   0  0  0  0  0  3  0  0  0  0  0  0
  -30.8040  -19.3350   18.2260 C   0  0  0  0  0  3  0  0  0  0  0  0
  -31.3660  -17.0130   18.6590 C   0  0  0  0  0  3  0  0  0  0  0  0
  -29.4670  -18.0230   19.8030 C   0  0  0  0  0  3  0  0  0  0  0  0
  -29.7250  -19.2370   19.1180 C   0  0  0  0  0  0  0  0  0  0  0  0
  -30.2940  -16.8900   19.5880 C   0  0  0  0  0  0  0  0  0  0  0  0
  -30.7300  -14.5290   20.2600 C   0  0  0  0  0  0  0  0  0  0  0  0
  -30.3780  -12.3600   19.2160 C   0  0  0  0  0  2  0  0  0  0  0  0
  -29.4340  -12.5840   18.0180 C   0  0  0  0  0  2  0  0  0  0  0  0
  -27.9600  -12.4750   18.4560 C   0  0  0  0  0  2  0  0  0  0  0  0
  -27.6360  -13.3020   19.7330 C   0  0  0  0  0  3  0  0  0  0  0  0
  -28.7150  -13.1170   20.8240 C   0  0  0  0  0  2  0  0  0  0  0  0
  -30.0270  -13.3700   20.2180 N   0  0  0  0  0  0  0  0  0  0  0  0
  -31.9400  -14.5680   20.0360 O   0  0  0  0  0  0  0  0  0  0  0  0
  -29.9930  -15.6620   20.2730 N   0  0  0  0  0  0  0  0  0  0  0  0
  -29.0510  -15.5660   20.6200 H   0  0  0  0  0  0  0  0  0  0  0  0
  -25.2530  -13.8900   20.5000 C   0  0  0  0  0  0  0  0  0  0  0  0
  -24.1930  -13.1110   20.8810 C   0  0  0  0  0  0  0  0  0  0  0  0
  -24.6560  -11.7610   20.8290 C   0  0  0  0  0  0  0  0  0  0  0  0
  -26.2950  -13.0130   20.2390 N   0  0  0  0  0  0  0  0  0  0  0  0
  -25.9430  -11.7280   20.5010 N   0  0  0  0  0  0  0  0  0  0  0  0
  -23.9320  -10.4960   21.0160 C   0  0  0  0  0  0  0  0  0  0  0  0
  -24.3620   -9.5310   21.9530 C   0  0  0  0  0  3  0  0  0  0  0  0
  -23.6380   -8.3330   22.1320 C   0  0  0  0  0  3  0  0  0  0  0  0
  -22.4680   -8.0880   21.3740 C   0  0  0  0  0  0  0  0  0  0  0  0
  -22.0560   -9.0430   20.4270 C   0  0  0  0  0  3  0  0  0  0  0  0
  -22.7810  -10.2330   20.2470 C   0  0  0  0  0  3  0  0  0  0  0  0
  -21.7170   -6.9420   21.4600 O   0  0  0  0  0  0  0  0  0  0  0  0
  -21.6480   -6.2110   22.6190 C   0  0  0  0  0  0  0  0  0  0  0  0
  -21.1550   -6.7660   23.8210 C   0  0  0  0  0  3  0  0  0  0  0  0
  -21.0370   -5.9600   24.9700 C   0  0  0  0  0  3  0  0  0  0  0  0
  -21.3980   -4.6000   24.9190 C   0  0  0  0  0  0  0  0  0  0  0  0
  -21.8820   -4.0450   23.7210 C   0  0  0  0  0  3  0  0  0  0  0  0
  -22.0010   -4.8480   22.5740 C   0  0  0  0  0  0  0  0  0  0  0  0
  -22.4470   -4.3010   21.4170 F   0  0  0  0  0  0  0  0  0  0  0  0
  -21.2770   -3.8260   26.0220 F   0  0  0  0  0  0  0  0  0  0  0  0
  -22.7980  -13.5830   21.1740 C   0  0  0  0  0  0  0  0  0  0  0  0
  -22.0780  -12.8800   22.0420 N   0  0  0  0  0  0  0  0  0  0  0  0
  -22.3540  -14.6130   20.6710 O   0  0  0  0  0  0  0  0  0  0  0  0
  -22.4490  -12.0490   22.4790 H   0  0  0  0  0  0  0  0  0  0  0  0
  -21.1410  -13.1750   22.2730 H   0  0  0  0  0  0  0  0  0  0  0  0
  -25.4050  -15.2630   20.3320 N   0  0  0  0  0  0  0  0  0  0  0  0
  -24.6260  -15.9010   20.4570 H   0  0  0  0  0  0  0  0  0  0  0  0
  -26.2370  -15.7150   19.9740 H   0  0  0  0  0  0  0  0  0  0  0  0
  -28.8460  -23.3060   21.3390 C   0  0  0  0  0  0  0  0  0  0  0  0
  -28.8150  -22.9500   22.5210 O   0  0  0  0  0  0  0  0  0  0  0  0
  -30.2670  -25.2540   22.1860 C   0  0  0  0  0  1  0  0  0  0  0  0
  -30.1620  -24.8730   19.7350 C   0  0  0  0  0  1  0  0  0  0  0  0
  -29.3360  -24.7680   21.0430 C   0  0  1  0  0  0  0  0  0  0  0  0
  -28.1190  -25.7350   21.0250 C   0  0  0  0  0  2  0  0  0  0  0  0
  -28.2090  -26.7380   20.0090 O   0  0  0  0  0  0  0  0  0  0  0  0
  -24.5220  -31.8800   23.1950 C   0  0  0  0  0  0  0  0  0  0  0  0
  -27.0810  -27.5090   19.9860 C   0  0  0  0  0  0  0  0  0  0  0  0
  -23.2790  -30.5030   21.5580 C   0  0  0  0  0  3  0  0  0  0  0  0
  -24.6990  -28.9950   20.0740 C   0  0  0  0  0  0  0  0  0  0  0  0
  -25.8010  -30.8680   21.3170 C   0  0  0  0  0  2  0  0  0  0  0  0
  -25.8680  -29.5150   20.6440 C   0  0  0  0  0  0  0  0  0  0  0  0
  -27.0720  -28.7800   20.5930 C   0  0  0  0  0  3  0  0  0  0  0  0
  -25.9060  -26.9970   19.4020 C   0  0  0  0  0  3  0  0  0  0  0  0
  -24.7110  -27.7370   19.4460 C   0  0  0  0  0  3  0  0  0  0  0  0
  -23.4570  -29.8500   20.1630 C   0  0  0  0  0  2  0  0  0  0  0  0
  -24.5520  -31.0970   22.0810 N   0  0  0  0  0  0  0  0  0  0  0  0
  -23.4520  -32.1470   23.7600 O   0  0  0  0  0  0  0  0  0  0  0  0
  -22.6460  -29.4660   22.5160 C   0  0  0  0  0  0  0  0  0  0  0  0
  -21.3200  -29.2860   22.4080 N   0  0  0  0  0  0  0  0  0  0  0  0
  -23.3440  -28.8290   23.3100 O   0  0  0  0  0  0  0  0  0  0  0  0
  -20.8200  -29.8550   21.7400 H   0  0  0  0  0  0  0  0  0  0  0  0
  -17.9520  -28.0850   22.9340 C   0  0  0  0  0  0  0  0  0  0  0  0
  -20.5130  -28.3390   23.1790 C   0  0  0  0  0  3  0  0  0  0  0  0
  -20.6100  -26.9140   22.5850 C   0  0  0  0  0  2  0  0  0  0  0  0
  -19.4940  -26.6050   21.5810 C   0  0  0  0  0  2  0  0  0  0  0  0
  -18.1200  -26.7420   22.2430 C   0  0  0  0  0  2  0  0  0  0  0  0
  -19.0760  -28.8420   23.3590 C   0  0  0  0  0  0  0  0  0  0  0  0
  -18.8650  -30.1000   23.9630 C   0  0  0  0  0  3  0  0  0  0  0  0
  -17.5620  -30.6020   24.1460 C   0  0  0  0  0  3  0  0  0  0  0  0
  -16.4530  -29.8410   23.7400 C   0  0  0  0  0  3  0  0  0  0  0  0
  -16.6490  -28.5850   23.1400 C   0  0  0  0  0  3  0  0  0  0  0  0
  -25.8210  -32.4970   23.7990 C   0  0  0  0  0  3  0  0  0  0  0  0
  -26.3560  -31.7140   25.0620 C   0  0  1  0  0  0  0  0  0  0  0  0
  -25.2780  -31.4810   26.1470 C   0  0  0  0  0  1  0  0  0  0  0  0
  -26.9200  -30.3340   24.6500 C   0  0  0  0  0  1  0  0  0  0  0  0
  -27.5270  -32.4950   25.7030 C   0  0  0  0  0  1  0  0  0  0  0  0
  -25.5270  -33.8960   24.1380 N   0  0  0  0  0  0  0  0  0  0  0  0
  -25.8720  -34.9480   23.3860 C   0  0  0  0  0  0  0  0  0  0  0  0
  -26.5430  -34.8430   22.3540 O   0  0  0  0  0  0  0  0  0  0  0  0
  -24.9210  -34.0510   24.9320 H   0  0  0  0  0  0  0  0  0  0  0  0
  -24.1800  -36.7750   23.0240 C   0  0  0  0  0  1  0  0  0  0  0  0
  -25.4000  -36.3390   23.8510 C   0  0  0  0  0  3  0  0  0  0  0  0
  -27.5340  -37.1780   24.7300 C   0  0  0  0  0  1  0  0  0  0  0  0
  -26.4530  -37.3740   23.7670 N   0  0  0  0  0  0  0  0  0  0  0  0
  -26.0610  -38.3010   23.9160 H   0  0  0  0  0  0  0  0  0  0  0  0
  2  3  1  0
  2  4  1  0
  3 10  1  0
  3  1  1  0
  4  5  1  6
  4  1  1  0
  4 50  1  0
  6  7  2  0
  6  8  1  0
  7 10  1  0
  8 11  2  0
 10  9  2  0
 11  9  1  0
 11 20  1  0
 12 20  1  0
 13 18  1  0
 14 15  1  0
 14 13  1  0
 16 15  1  0
 16 25  1  0
 16 17  1  0
 18 12  1  0
 18 17  1  0
 19 12  2  0
 20 21  1  0
 22 23  2  0
 23 42  1  0
 24 23  1  0
 24 27  1  0
 25 22  1  0
 25 26  1  0
 26 24  2  0
 27 28  1  0
 28 29  2  0
 30 33  1  0
 30 29  1  0
 31 30  2  0
 32 31  1  0
 32 27  2  0
 33 34  1  0
 34 35  1  0
 35 36  2  0
 37 36  1  0
 37 41  1  0
 38 37  2  0
 39 34  2  0
 39 38  1  0
 40 39  1  0
 42 43  1  0
 43 46  1  0
 43 45  1  0
 44 42  2  0
 47 48  1  0
 47 22  1  0
 49 47  1  0
 50 51  2  0
 54 53  1  6
 54 50  1  0
 54 52  1  0
 55 54  1  0
 56 55  1  0
 57 68  2  0
 58 56  1  0
 58 63  1  0
 59 67  1  0
 59 69  1  0
 60 66  1  0
 60 62  1  0
 61 67  1  0
 62 61  1  0
 63 62  2  0
 64 65  1  0
 64 58  2  0
 65 60  2  0
 66 59  1  0
 67 57  1  0
 69 71  2  0
 70 69  1  0
 72 70  1  0
 73 82  2  0
 73 78  1  0
 74 70  1  0
 74 78  1  0
 75 74  1  0
 76 77  1  0
 76 75  1  0
 77 73  1  0
 78 79  2  0
 79 80  1  0
 81 80  2  0
 82 81  1  0
 83 57  1  0
 83 88  1  0
 83 84  1  0
 84 87  1  1
 84 85  1  0
 86 84  1  0
 88 91  1  0
 89 93  1  0
 89 88  1  0
 90 89  2  0
 93 92  1  0
 95 93  1  0
 95 96  1  0
 95 94  1  0
M  ISO  4  12 100  20 100  55 101  56 101
M  END
>  <TORSDO>  (30) 
F 20

>  <SCORE>  (30) 
-13.977

>  <name>  (30) 
29

>  <ligand_id>  (30) 
29

>  <original_smiles>  (30) 
[H]c1c([H])c([H])c2c(c1[H])C([H])([H])C([H])([H])C([H])([H])C2([H])N([H])C(=O)C1([H])N(C(=O)C([H])(N([H])C(=O)C([H])(N([H])C([H])([H])[H])C([H])([H])[H])C(C([H])([H])[H])(C([H])([H])[H])C([H])([H])[H])C([H])([H])c2c([H])c(OC([H])([H])C(C(=O)C3(C([H])([H])[H])C([H])([H])C([H])(c4c([H])c([H])c([H])c(N([H])C(=O)N5C([H])([H])C([H])([H])C([H])([H])C([H])(n6nc(-c7c([H])c([H])c(Oc8c([H])c([H])c(F)c([H])c8F)c([H])c7[H])c(C(=O)N([H])[H])c6N([H])[H])C5([H])[H])c4[H])C3([H])[H])(C([H])([H])[H])C([H])([H])[H])c([H])c([H])c2C1([H])[H]

>  <smiles>  (30) 
[H]c1c([H])c([H])c2c(c1[H])C([H])([H])C([H])([H])C([H])([H])C2([H])N([H])C(=O)C1([H])N(C(=O)C([H])(N([H])C(=O)C([H])(N([H])C([H])([H])[H])C([H])([H])[H])C(C([H])([H])[H])(C([H])([H])[H])C([H])([H])[H])C([H])([H])c2c([H])c(OC([H])([H])C(C(=O)C3(C([H])([H])[H])C([H])([H])C([H])(c4c([H])c([H])c([H])c(N([H])C(=O)N5C([H])([H])C([H])([H])C([H])([H])C([H])(n6nc(-c7c([H])c([H])c(Oc8c([H])c([H])c(F)c([H])c8F)c([H])c7[H])c(C(=O)N([H])[H])c6N([H])[H])C5([H])[H])c4[H])C3([H])[H])(C([H])([H])[H])C([H])([H])[H])c([H])c([H])c2C1([H])[H]

$$$$
30:0:0
     RDKit          3D

 98107  0  0  1  0  0  0  0  0999 V2000
  -29.9140  -21.9320   22.8300 C   0  0  0  0  0  3  0  0  0  0  0  0
  -29.2710  -21.9530   20.5740 C   0  0  0  0  0  3  0  0  0  0  0  0
  -29.2730  -22.6280   21.7620 C   0  0  0  0  0  0  0  0  0  0  0  0
  -30.4480  -20.7240   22.4350 C   0  0  0  0  0  0  0  0  0  0  0  0
  -30.1330  -20.4520   20.7260 S   0  0  0  0  0  0  0  0  0  0  0  0
  -29.4940  -24.8680   21.7420 C   0  0  0  0  0  3  0  0  0  0  0  0
  -28.6990  -23.8880   21.9000 N   0  0  0  0  0  0  0  0  0  0  0  0
  -29.7540  -27.0900   22.9100 C   0  0  0  0  0  1  0  0  0  0  0  0
  -29.0720  -26.3320   21.7560 C   0  0  0  0  0  3  0  0  0  0  0  0
  -29.3610  -26.9930   20.3810 C   0  0  0  0  0  2  0  0  0  0  0  0
  -28.2760  -26.8250   19.4650 O   0  0  0  0  0  0  0  0  0  0  0  0
  -24.6430  -31.7930   23.0930 C   0  0  0  0  0  0  0  0  0  0  0  0
  -27.1390  -27.5870   19.6280 C   0  0  0  0  0  0  0  0  0  0  0  0
  -23.3460  -30.4930   21.4310 C   0  0  0  0  0  3  0  0  0  0  0  0
  -24.7260  -29.0510   19.8430 C   0  0  0  0  0  0  0  0  0  0  0  0
  -25.8510  -30.8860   21.1160 C   0  0  0  0  0  2  0  0  0  0  0  0
  -25.9040  -29.5530   20.4040 C   0  0  0  0  0  0  0  0  0  0  0  0
  -27.1080  -28.8290   20.3070 C   0  0  0  0  0  3  0  0  0  0  0  0
  -25.9450  -27.0950   19.0630 C   0  0  0  0  0  3  0  0  0  0  0  0
  -24.7380  -27.8130   19.1750 C   0  0  0  0  0  3  0  0  0  0  0  0
  -23.4800  -29.8920   20.0060 C   0  0  0  0  0  2  0  0  0  0  0  0
  -24.6350  -31.0690   21.9390 N   0  0  0  0  0  0  0  0  0  0  0  0
  -23.5930  -32.0270   23.7080 O   0  0  0  0  0  0  0  0  0  0  0  0
  -22.7520  -29.4140   22.3610 C   0  0  0  0  0  0  0  0  0  0  0  0
  -21.4340  -29.1910   22.2450 N   0  0  0  0  0  0  0  0  0  0  0  0
  -23.4720  -28.7770   23.1360 O   0  0  0  0  0  0  0  0  0  0  0  0
  -20.9170  -29.7470   21.5790 H   0  0  0  0  0  0  0  0  0  0  0  0
  -18.1260  -27.8070   22.6790 C   0  0  0  0  0  0  0  0  0  0  0  0
  -20.6630  -28.1980   22.9890 C   0  0  0  0  0  3  0  0  0  0  0  0
  -20.8510  -26.7850   22.3870 C   0  0  0  0  0  2  0  0  0  0  0  0
  -19.7800  -26.4240   21.3510 C   0  0  0  0  0  2  0  0  0  0  0  0
  -18.3830  -26.4820   21.9790 C   0  0  0  0  0  2  0  0  0  0  0  0
  -19.1970  -28.6200   23.1370 C   0  0  0  0  0  0  0  0  0  0  0  0
  -18.9050  -29.8580   23.7470 C   0  0  0  0  0  3  0  0  0  0  0  0
  -17.5740  -30.2880   23.9040 C   0  0  0  0  0  3  0  0  0  0  0  0
  -16.5170  -29.4740   23.4610 C   0  0  0  0  0  3  0  0  0  0  0  0
  -16.7940  -28.2340   22.8570 C   0  0  0  0  0  3  0  0  0  0  0  0
  -25.9630  -32.3850   23.6800 C   0  0  0  0  0  3  0  0  0  0  0  0
  -25.6870  -33.7700   24.0820 N   0  0  0  0  0  0  0  0  0  0  0  0
  -26.0280  -34.8500   23.3640 C   0  0  0  0  0  0  0  0  0  0  0  0
  -26.6810  -34.7810   22.3190 O   0  0  0  0  0  0  0  0  0  0  0  0
  -25.1190  -33.8960   24.9060 H   0  0  0  0  0  0  0  0  0  0  0  0
  -24.3370  -36.6880   23.1010 C   0  0  0  0  0  1  0  0  0  0  0  0
  -25.5720  -36.2230   23.8890 C   0  0  0  0  0  3  0  0  0  0  0  0
  -27.7290  -37.0180   24.7500 C   0  0  0  0  0  1  0  0  0  0  0  0
  -26.6270  -37.2590   23.8230 N   0  0  0  0  0  0  0  0  0  0  0  0
  -26.2420  -38.1780   24.0210 H   0  0  0  0  0  0  0  0  0  0  0  0
  -26.5330  -31.5510   24.8920 C   0  0  1  0  0  0  0  0  0  0  0  0
  -25.4700  -31.2100   25.9630 C   0  0  0  0  0  1  0  0  0  0  0  0
  -27.1530  -30.2250   24.3950 C   0  0  0  0  0  1  0  0  0  0  0  0
  -27.6750  -32.3370   25.5800 C   0  0  0  0  0  1  0  0  0  0  0  0
  -30.5950  -19.5520   24.7000 C   0  0  0  0  0  1  0  0  0  0  0  0
  -31.1920  -19.7140   23.2870 C   0  0  1  0  0  0  0  0  0  0  0  0
  -30.4120  -14.4790   19.7230 C   0  0  0  0  0  0  0  0  0  0  0  0
  -29.9010  -12.4740   18.3670 C   0  0  0  0  0  2  0  0  0  0  0  0
  -28.7750  -12.7110   17.3450 C   0  0  0  0  0  2  0  0  0  0  0  0
  -27.4000  -12.4720   17.9930 C   0  0  0  0  0  2  0  0  0  0  0  0
  -27.2340  -13.2380   19.3300 C   0  0  0  0  0  3  0  0  0  0  0  0
  -28.4470  -12.9900   20.2540 C   0  0  0  0  0  2  0  0  0  0  0  0
  -29.6820  -13.3500   19.5280 N   0  0  0  0  0  0  0  0  0  0  0  0
  -31.2460  -14.8800   18.9030 O   0  0  0  0  0  0  0  0  0  0  0  0
  -32.2760  -17.8950   21.8000 C   0  0  0  0  0  3  0  0  0  0  0  0
  -31.2500  -18.3810   22.5790 C   0  0  0  0  0  0  0  0  0  0  0  0
  -30.7480  -16.2590   21.4300 C   0  0  0  0  0  0  0  0  0  0  0  0
  -31.9830  -16.6880   21.1540 N   0  0  0  0  0  0  0  0  0  0  0  0
  -30.1980  -15.0650   20.9120 N   0  0  0  0  0  0  0  0  0  0  0  0
  -29.8830  -17.2840   22.5610 S   0  0  0  0  0  0  0  0  0  0  0  0
  -29.4740  -14.6390   21.4690 H   0  0  0  0  0  0  0  0  0  0  0  0
  -24.9670  -13.7150   20.4560 C   0  0  0  0  0  0  0  0  0  0  0  0
  -23.9870  -12.8860   20.9290 C   0  0  0  0  0  0  0  0  0  0  0  0
  -24.4630  -11.5550   20.7170 C   0  0  0  0  0  0  0  0  0  0  0  0
  -25.9770  -12.8880   19.9910 N   0  0  0  0  0  0  0  0  0  0  0  0
  -25.6850  -11.5790   20.2010 N   0  0  0  0  0  0  0  0  0  0  0  0
  -23.8020  -10.2590   20.9210 C   0  0  0  0  0  0  0  0  0  0  0  0
  -24.3070   -9.3060   21.8340 C   0  0  0  0  0  3  0  0  0  0  0  0
  -23.6420   -8.0760   22.0230 C   0  0  0  0  0  3  0  0  0  0  0  0
  -22.4590   -7.7890   21.3020 C   0  0  0  0  0  0  0  0  0  0  0  0
  -21.9740   -8.7330   20.3790 C   0  0  0  0  0  3  0  0  0  0  0  0
  -22.6400   -9.9540   20.1860 C   0  0  0  0  0  3  0  0  0  0  0  0
  -21.7610   -6.6100   21.4030 O   0  0  0  0  0  0  0  0  0  0  0  0
  -21.6810   -5.9210   22.5870 C   0  0  0  0  0  0  0  0  0  0  0  0
  -21.1290   -6.5020   23.7500 C   0  0  0  0  0  3  0  0  0  0  0  0
  -20.9980   -5.7380   24.9260 C   0  0  0  0  0  3  0  0  0  0  0  0
  -21.4090   -4.3910   24.9410 C   0  0  0  0  0  0  0  0  0  0  0  0
  -21.9540   -3.8090   23.7830 C   0  0  0  0  0  3  0  0  0  0  0  0
  -22.0850   -4.5710   22.6080 C   0  0  0  0  0  0  0  0  0  0  0  0
  -22.5910   -3.9990   21.4890 F   0  0  0  0  0  0  0  0  0  0  0  0
  -21.2780   -3.6550   26.0690 F   0  0  0  0  0  0  0  0  0  0  0  0
  -22.6460  -13.2960   21.4640 C   0  0  0  0  0  0  0  0  0  0  0  0
  -22.1070  -12.5400   22.4130 N   0  0  0  0  0  0  0  0  0  0  0  0
  -22.0890  -14.3230   21.0720 O   0  0  0  0  0  0  0  0  0  0  0  0
  -22.5770  -11.7090   22.7450 H   0  0  0  0  0  0  0  0  0  0  0  0
  -21.2150  -12.7910   22.8140 H   0  0  0  0  0  0  0  0  0  0  0  0
  -25.0770  -15.1000   20.3630 N   0  0  0  0  0  0  0  0  0  0  0  0
  -24.3330  -15.7280   20.6510 H   0  0  0  0  0  0  0  0  0  0  0  0
  -25.8640  -15.5800   19.9440 H   0  0  0  0  0  0  0  0  0  0  0  0
  -32.8710  -21.4060   23.9240 C   0  0  0  0  0  1  0  0  0  0  0  0
  -32.5640  -20.1300   23.3650 O   0  0  0  0  0  0  0  0  0  0  0  0
  2  5  1  0
  2  3  2  0
  3  7  1  0
  3  1  1  0
  4  1  2  0
  4 53  1  0
  5  4  1  0
  6  9  1  0
  6  7  2  0
  9  8  1  0
 10  9  1  0
 11 13  1  0
 11 10  1  0
 12 23  2  0
 13 18  1  0
 14 22  1  0
 14 24  1  0
 15 21  1  0
 15 17  1  0
 16 22  1  0
 17 16  1  0
 18 17  2  0
 19 20  1  0
 19 13  2  0
 20 15  2  0
 21 14  1  0
 22 12  1  0
 24 26  2  0
 25 24  1  0
 27 25  1  0
 28 37  2  0
 28 33  1  0
 29 25  1  0
 29 33  1  0
 30 29  1  0
 31 32  1  0
 31 30  1  0
 32 28  1  0
 33 34  2  0
 34 35  1  0
 36 35  2  0
 37 36  1  0
 38 12  1  0
 38 39  1  0
 38 48  1  0
 39 42  1  0
 40 44  1  0
 40 39  1  0
 41 40  2  0
 44 43  1  0
 46 44  1  0
 46 47  1  0
 46 45  1  0
 48 51  1  1
 48 49  1  0
 50 48  1  0
 53 98  1  0
 53 52  1  1
 54 66  1  0
 55 60  1  0
 56 57  1  0
 56 55  1  0
 58 57  1  0
 58 72  1  0
 58 59  1  0
 60 54  1  0
 60 59  1  0
 61 54  2  0
 62 63  2  0
 63 53  1  0
 64 67  1  0
 65 64  2  0
 65 62  1  0
 66 64  1  0
 66 68  1  0
 67 63  1  0
 69 70  2  0
 70 89  1  0
 71 74  1  0
 71 70  1  0
 72 73  1  0
 72 69  1  0
 73 71  2  0
 74 75  1  0
 75 76  2  0
 77 80  1  0
 77 76  1  0
 78 77  2  0
 79 78  1  0
 79 74  2  0
 80 81  1  0
 81 86  2  0
 81 82  1  0
 82 83  2  0
 83 84  1  0
 84 88  1  0
 85 84  2  0
 86 85  1  0
 87 86  1  0
 89 90  1  0
 90 92  1  0
 90 93  1  0
 91 89  2  0
 94 69  1  0
 94 95  1  0
 96 94  1  0
 98 97  1  0
M  ISO  4  10 101  11 101  54 100  66 100
M  END
>  <TORSDO>  (31) 
F 21

>  <SCORE>  (31) 
-9.725

>  <name>  (31) 
30

>  <ligand_id>  (31) 
30

>  <original_smiles>  (31) 
[H]C(=Nc1c([H])sc(C(OC([H])([H])[H])(c2sc(N([H])C(=O)N3C([H])([H])C([H])([H])C([H])([H])C([H])(n4nc(-c5c([H])c([H])c(Oc6c([H])c([H])c(F)c([H])c6F)c([H])c5[H])c(C(=O)N([H])[H])c4N([H])[H])C3([H])[H])nc2[H])C([H])([H])[H])c1[H])C([H])(C([H])([H])[H])C([H])([H])Oc1c([H])c([H])c2c(c1[H])C([H])([H])N(C(=O)C([H])(N([H])C(=O)C([H])(N([H])C([H])([H])[H])C([H])([H])[H])C(C([H])([H])[H])(C([H])([H])[H])C([H])([H])[H])C([H])(C(=O)N([H])C1([H])c3c([H])c([H])c([H])c([H])c3C([H])([H])C([H])([H])C1([H])[H])C2([H])[H]

>  <smiles>  (31) 
[H]C(=Nc1c([H])sc(C(OC([H])([H])[H])(c2sc(N([H])C(=O)N3C([H])([H])C([H])([H])C([H])([H])C([H])(n4nc(-c5c([H])c([H])c(Oc6c([H])c([H])c(F)c([H])c6F)c([H])c5[H])c(C(=O)N([H])[H])c4N([H])[H])C3([H])[H])nc2[H])C([H])([H])[H])c1[H])C([H])(C([H])([H])[H])C([H])([H])Oc1c([H])c([H])c2c(c1[H])C([H])([H])N(C(=O)C([H])(N([H])C(=O)C([H])(N([H])C([H])([H])[H])C([H])([H])[H])C(C([H])([H])[H])(C([H])([H])[H])C([H])([H])[H])C([H])(C(=O)N([H])C1([H])c3c([H])c([H])c([H])c([H])c3C([H])([H])C([H])([H])C1([H])[H])C2([H])[H]

$$$$
31:0:0
     RDKit          3D

105115  0  0  1  0  0  0  0  0999 V2000
  -30.9840  -22.9060   15.7060 C   0  0  0  0  0  3  0  0  0  0  0  0
  -30.9710  -24.2380   16.1800 C   0  0  0  0  0  3  0  0  0  0  0  0
  -31.0200  -23.4430   18.5110 C   0  0  0  0  0  3  0  0  0  0  0  0
  -31.0270  -22.1330   18.0130 C   0  0  0  0  0  0  0  0  0  0  0  0
  -31.0060  -21.8780   16.6620 C   0  0  0  0  0  0  0  0  0  0  0  0
  -30.9730  -24.5080   17.5790 C   0  0  0  0  0  0  0  0  0  0  0  0
  -31.0610  -20.8590   18.7710 C   0  0  0  0  0  0  0  0  0  0  0  0
  -31.0510  -20.3910   16.4770 C   0  0  0  0  0  2  0  0  0  0  0  0
  -31.0390  -19.8490   17.8600 N   0  0  0  0  0  0  0  0  0  0  0  0
  -31.1220  -20.7990   20.0030 O   0  0  0  0  0  0  0  0  0  0  0  0
  -30.4400  -17.8830   19.3490 C   0  0  0  0  0  3  0  0  0  0  0  0
  -31.0400  -18.4380   18.1570 C   0  0  0  0  0  0  0  0  0  0  0  0
  -31.6250  -17.4790   17.3460 C   0  0  0  0  0  0  0  0  0  0  0  0
  -30.6300  -16.5280   19.4840 C   0  0  0  0  0  0  0  0  0  0  0  0
  -31.4330  -15.9100   18.0540 S   0  0  0  0  0  0  0  0  0  0  0  0
  -31.0010  -14.5960   20.7840 C   0  0  0  0  0  0  0  0  0  0  0  0
  -30.7330  -12.3900   19.7920 C   0  0  0  0  0  2  0  0  0  0  0  0
  -29.8720  -12.5260   18.5180 C   0  0  0  0  0  2  0  0  0  0  0  0
  -28.3730  -12.4470   18.8520 C   0  0  0  0  0  2  0  0  0  0  0  0
  -27.9590  -13.3420   20.0510 C   0  0  0  0  0  3  0  0  0  0  0  0
  -28.9450  -13.2090   21.2350 C   0  0  0  0  0  2  0  0  0  0  0  0
  -30.3020  -13.4360   20.7270 N   0  0  0  0  0  0  0  0  0  0  0  0
  -32.2280  -14.6520   20.6880 O   0  0  0  0  0  0  0  0  0  0  0  0
  -30.2840  -15.7030   20.5180 N   0  0  0  0  0  0  0  0  0  0  0  0
  -29.3160  -15.7070   20.8030 H   0  0  0  0  0  0  0  0  0  0  0  0
  -25.5230  -13.9620   20.5950 C   0  0  0  0  0  0  0  0  0  0  0  0
  -24.4320  -13.1950   20.9060 C   0  0  0  0  0  0  0  0  0  0  0  0
  -24.8930  -11.8430   20.9330 C   0  0  0  0  0  0  0  0  0  0  0  0
  -26.5810  -13.0760   20.4550 N   0  0  0  0  0  0  0  0  0  0  0  0
  -26.2020  -11.8000   20.7190 N   0  0  0  0  0  0  0  0  0  0  0  0
  -24.1540  -10.5850   21.0940 C   0  0  0  0  0  0  0  0  0  0  0  0
  -24.5270   -9.6290   22.0650 C   0  0  0  0  0  3  0  0  0  0  0  0
  -23.7930   -8.4320   22.2110 C   0  0  0  0  0  3  0  0  0  0  0  0
  -22.6680   -8.1860   21.3870 C   0  0  0  0  0  0  0  0  0  0  0  0
  -22.3150   -9.1290   20.4060 C   0  0  0  0  0  3  0  0  0  0  0  0
  -23.0520  -10.3170   20.2570 C   0  0  0  0  0  3  0  0  0  0  0  0
  -21.9070   -7.0430   21.4450 O   0  0  0  0  0  0  0  0  0  0  0  0
  -21.7780   -6.3210   22.6040 C   0  0  0  0  0  0  0  0  0  0  0  0
  -21.2570   -6.8940   23.7860 C   0  0  0  0  0  3  0  0  0  0  0  0
  -21.0770   -6.0970   24.9340 C   0  0  0  0  0  3  0  0  0  0  0  0
  -21.4060   -4.7290   24.9010 C   0  0  0  0  0  0  0  0  0  0  0  0
  -21.9190   -4.1560   23.7240 C   0  0  0  0  0  3  0  0  0  0  0  0
  -22.1010   -4.9490   22.5790 C   0  0  0  0  0  0  0  0  0  0  0  0
  -22.5760   -4.3860   21.4410 F   0  0  0  0  0  0  0  0  0  0  0  0
  -21.2260   -3.9610   26.0020 F   0  0  0  0  0  0  0  0  0  0  0  0
  -23.0200  -13.6770   21.0700 C   0  0  0  0  0  0  0  0  0  0  0  0
  -22.2310  -13.0020   21.8990 N   0  0  0  0  0  0  0  0  0  0  0  0
  -22.6190  -14.6870   20.4940 O   0  0  0  0  0  0  0  0  0  0  0  0
  -22.5650  -12.1860   22.3910 H   0  0  0  0  0  0  0  0  0  0  0  0
  -21.2790  -13.3070   22.0440 H   0  0  0  0  0  0  0  0  0  0  0  0
  -25.7030  -15.3280   20.3980 N   0  0  0  0  0  0  0  0  0  0  0  0
  -24.9320  -15.9860   20.4360 H   0  0  0  0  0  0  0  0  0  0  0  0
  -26.5720  -15.7560   20.1060 H   0  0  0  0  0  0  0  0  0  0  0  0
  -32.3880  -17.5240   16.0500 C   0  0  0  0  0  2  0  0  0  0  0  0
  -33.8050  -17.8690   16.2440 N   0  0  0  0  0  4  0  0  0  0  0  0
  -33.9180  -18.7740   16.6590 H   0  0  0  0  0  0  0  0  0  0  0  0
  -34.2810  -17.8640   15.3580 H   0  0  0  0  0  0  0  0  0  0  0  0
  -34.2450  -17.1880   16.8360 H   0  0  0  0  0  0  0  0  0  0  0  0
  -30.3060  -26.9040   17.6800 C   0  0  0  0  0  0  0  0  0  0  0  0
  -30.9480  -25.8100   18.1250 N   0  0  0  0  0  0  0  0  0  0  0  0
  -29.9200  -27.0610   16.5190 O   0  0  0  0  0  0  0  0  0  0  0  0
  -31.2340  -25.8690   19.0930 H   0  0  0  0  0  0  0  0  0  0  0  0
  -30.0980  -28.0250   18.7050 C   0  0  0  0  0  2  0  0  0  0  0  0
  -29.7490  -27.4920   20.1140 C   0  0  0  0  0  2  0  0  0  0  0  0
  -28.4800  -26.8310   20.0940 O   0  0  0  0  0  0  0  0  0  0  0  0
  -24.6580  -31.9350   23.2630 C   0  0  0  0  0  0  0  0  0  0  0  0
  -27.3290  -27.5860   20.1400 C   0  0  0  0  0  0  0  0  0  0  0  0
  -23.4380  -30.5340   21.6220 C   0  0  0  0  0  3  0  0  0  0  0  0
  -24.8920  -29.0170   20.1740 C   0  0  0  0  0  0  0  0  0  0  0  0
  -25.9460  -30.9350   21.3870 C   0  0  0  0  0  2  0  0  0  0  0  0
  -26.0390  -29.5670   20.7530 C   0  0  0  0  0  0  0  0  0  0  0  0
  -27.2530  -28.8610   20.7450 C   0  0  0  0  0  3  0  0  0  0  0  0
  -26.1630  -27.0330   19.5700 C   0  0  0  0  0  3  0  0  0  0  0  0
  -24.9450  -27.7430   19.5790 C   0  0  0  0  0  3  0  0  0  0  0  0
  -23.6370  -29.8590   20.2360 C   0  0  0  0  0  2  0  0  0  0  0  0
  -24.6990  -31.1480   22.1510 N   0  0  0  0  0  0  0  0  0  0  0  0
  -23.5840  -32.1950   23.8220 O   0  0  0  0  0  0  0  0  0  0  0  0
  -22.8110  -29.5050   22.5880 C   0  0  0  0  0  0  0  0  0  0  0  0
  -21.4890  -29.3030   22.4660 N   0  0  0  0  0  0  0  0  0  0  0  0
  -23.5080  -28.8880   23.3990 O   0  0  0  0  0  0  0  0  0  0  0  0
  -20.9890  -29.8480   21.7780 H   0  0  0  0  0  0  0  0  0  0  0  0
  -18.1410  -28.0430   22.9590 C   0  0  0  0  0  0  0  0  0  0  0  0
  -20.6900  -28.3560   23.2430 C   0  0  0  0  0  3  0  0  0  0  0  0
  -20.8280  -26.9230   22.6810 C   0  0  0  0  0  2  0  0  0  0  0  0
  -19.7400  -26.5680   21.6630 C   0  0  0  0  0  2  0  0  0  0  0  0
  -18.3500  -26.6930   22.2960 C   0  0  0  0  0  2  0  0  0  0  0  0
  -19.2400  -28.8310   23.3900 C   0  0  0  0  0  0  0  0  0  0  0  0
  -18.9940  -30.0940   23.9690 C   0  0  0  0  0  3  0  0  0  0  0  0
  -17.6800  -30.5720   24.1230 C   0  0  0  0  0  3  0  0  0  0  0  0
  -16.5930  -29.7840   23.7070 C   0  0  0  0  0  3  0  0  0  0  0  0
  -16.8250  -28.5210   23.1310 C   0  0  0  0  0  3  0  0  0  0  0  0
  -25.9520  -32.5690   23.8670 C   0  0  0  0  0  3  0  0  0  0  0  0
  -25.6490  -33.9700   24.1890 N   0  0  0  0  0  0  0  0  0  0  0  0
  -25.9930  -35.0160   23.4250 C   0  0  0  0  0  0  0  0  0  0  0  0
  -26.6730  -34.9020   22.4020 O   0  0  0  0  0  0  0  0  0  0  0  0
  -25.0490  -34.1310   24.9850 H   0  0  0  0  0  0  0  0  0  0  0  0
  -24.2910  -36.8240   23.0200 C   0  0  0  0  0  1  0  0  0  0  0  0
  -25.5050  -36.4100   23.8660 C   0  0  0  0  0  3  0  0  0  0  0  0
  -27.6280  -37.2760   24.7470 C   0  0  0  0  0  1  0  0  0  0  0  0
  -26.5490  -37.4530   23.7780 N   0  0  0  0  0  0  0  0  0  0  0  0
  -26.1480  -38.3760   23.9150 H   0  0  0  0  0  0  0  0  0  0  0  0
  -26.4860  -31.8010   25.1390 C   0  0  1  0  0  0  0  0  0  0  0  0
  -25.4050  -31.5570   26.2180 C   0  0  0  0  0  1  0  0  0  0  0  0
  -27.0760  -30.4270   24.7410 C   0  0  0  0  0  1  0  0  0  0  0  0
  -27.6370  -32.6010   25.7920 C   0  0  0  0  0  1  0  0  0  0  0  0
  1  2  2  0
  1  5  1  0
  2  6  1  0
  4  3  1  0
  4  7  1  0
  5  4  2  0
  6 60  1  0
  6  3  2  0
  7 10  2  0
  8  5  1  0
  8  9  1  0
  9 12  1  0
  9  7  1  0
 11 14  2  0
 12 11  1  0
 13 15  1  0
 13 12  2  0
 14 24  1  0
 15 14  1  0
 17 22  1  0
 18 19  1  0
 18 17  1  0
 20 19  1  0
 20 29  1  0
 20 21  1  0
 22 16  1  0
 22 21  1  0
 23 16  2  0
 24 16  1  0
 24 25  1  0
 26 27  2  0
 27 28  1  0
 27 46  1  0
 28 31  1  0
 29 26  1  0
 29 30  1  0
 30 28  2  0
 31 32  1  0
 32 33  2  0
 34 37  1  0
 34 33  1  0
 35 34  2  0
 36 35  1  0
 36 31  2  0
 37 38  1  0
 38 39  1  0
 39 40  2  0
 41 40  1  0
 41 45  1  0
 42 41  2  0
 43 38  2  0
 43 42  1  0
 44 43  1  0
 46 47  1  0
 47 50  1  0
 47 49  1  0
 48 46  2  0
 51 52  1  0
 51 26  1  0
 53 51  1  0
 54 55  1  0
 54 13  1  0
 55 56  1  0
 55 58  1  0
 57 55  1  0
 59 60  1  0
 59 63  1  0
 60 62  1  0
 61 59  2  0
 63 64  1  0
 65 64  1  0
 65 67  1  0
 66 77  2  0
 67 72  1  0
 68 76  1  0
 68 78  1  0
 69 75  1  0
 69 71  1  0
 70 76  1  0
 71 70  1  0
 72 71  2  0
 73 74  1  0
 73 67  2  0
 74 69  2  0
 75 68  1  0
 76 66  1  0
 78 80  2  0
 79 78  1  0
 81 79  1  0
 82 91  2  0
 82 87  1  0
 83 79  1  0
 83 87  1  0
 84 83  1  0
 85 86  1  0
 85 84  1  0
 86 82  1  0
 87 88  2  0
 88 89  1  0
 90 89  2  0
 91 90  1  0
 92 66  1  0
 92 93  1  0
 92102  1  0
 93 96  1  0
 94 98  1  0
 94 93  1  0
 95 94  2  0
 98 97  1  0
100 98  1  0
100101  1  0
100 99  1  0
102105  1  1
102103  1  0
104102  1  0
M  ISO  4  16 100  24 100  64 101  65 101
M  END
>  <TORSDO>  (32) 
F 22

>  <SCORE>  (32) 
-12.888

>  <name>  (32) 
31

>  <ligand_id>  (32) 
31

>  <original_smiles>  (32) 
[H]c1c([H])c([H])c2c(c1[H])C([H])([H])C([H])([H])C([H])([H])C2([H])N([H])C(=O)C1([H])N(C(=O)C([H])(N([H])C(=O)C([H])(N([H])C([H])([H])[H])C([H])([H])[H])C(C([H])([H])[H])(C([H])([H])[H])C([H])([H])[H])C([H])([H])c2c([H])c(OC([H])([H])C([H])([H])C(=O)N([H])c3c([H])c([H])c4c(c3[H])C(=O)N(c3c(C([H])([H])[N+]([H])([H])[H])sc(N([H])C(=O)N5C([H])([H])C([H])([H])C([H])([H])C([H])(n6nc(-c7c([H])c([H])c(Oc8c([H])c([H])c(F)c([H])c8F)c([H])c7[H])c(C(=O)N([H])[H])c6N([H])[H])C5([H])[H])c3[H])C4([H])[H])c([H])c([H])c2C1([H])[H]

>  <smiles>  (32) 
[H]c1c([H])c([H])c2c(c1[H])C([H])([H])C([H])([H])C([H])([H])C2([H])N([H])C(=O)C1([H])N(C(=O)C([H])(N([H])C(=O)C([H])(N([H])C([H])([H])[H])C([H])([H])[H])C(C([H])([H])[H])(C([H])([H])[H])C([H])([H])[H])C([H])([H])c2c([H])c(OC([H])([H])C([H])([H])C(=O)N([H])c3c([H])c([H])c4c(c3[H])C(=O)N(c3c(C([H])([H])[N+]([H])([H])[H])sc(N([H])C(=O)N5C([H])([H])C([H])([H])C([H])([H])C([H])(n6nc(-c7c([H])c([H])c(Oc8c([H])c([H])c(F)c([H])c8F)c([H])c7[H])c(C(=O)N([H])[H])c6N([H])[H])C5([H])[H])c3[H])C4([H])[H])c([H])c([H])c2C1([H])[H]

$$$$
32:0:0
     RDKit          3D

 94103  0  0  1  0  0  0  0  0999 V2000
  -28.8120  -23.1190   21.2220 C   0  0  0  0  0  0  0  0  0  0  0  0
  -28.5410  -24.4630   21.1450 C   0  0  0  0  0  0  0  0  0  0  0  0
  -28.9640  -22.3550   22.5270 C   0  0  0  0  0  2  0  0  0  0  0  0
  -29.0140  -22.0930   20.1000 C   0  0  0  0  0  2  0  0  0  0  0  0
  -29.3310  -20.9040   22.1770 C   0  0  0  0  0  2  0  0  0  0  0  0
  -28.3940  -25.3120   22.4040 C   0  0  0  0  0  1  0  0  0  0  0  0
  -29.1770  -20.7650   20.7370 N   0  0  0  0  0  0  0  0  0  0  0  0
  -29.8760  -19.6170   18.6880 C   0  0  0  0  0  3  0  0  0  0  0  0
  -30.4390  -17.2350   18.6540 C   0  0  0  0  0  3  0  0  0  0  0  0
  -29.7120  -18.2920   20.7230 C   0  0  0  0  0  3  0  0  0  0  0  0
  -30.2980  -18.4680   17.9870 C   0  0  0  0  0  0  0  0  0  0  0  0
  -29.5860  -19.5670   20.0700 C   0  0  0  0  0  0  0  0  0  0  0  0
  -30.1440  -17.1140   20.0310 C   0  0  0  0  0  0  0  0  0  0  0  0
  -30.5970  -18.5580   16.5050 C   0  0  0  0  0  1  0  0  0  0  0  0
  -30.9380  -14.7370   20.2650 C   0  0  0  0  0  0  0  0  0  0  0  0
  -30.6770  -12.5410   19.1750 C   0  0  0  0  0  2  0  0  0  0  0  0
  -29.7340  -12.7250   17.9670 C   0  0  0  0  0  2  0  0  0  0  0  0
  -28.2610  -12.5750   18.3980 C   0  0  0  0  0  2  0  0  0  0  0  0
  -27.9200  -13.4150   19.6590 C   0  0  0  0  0  3  0  0  0  0  0  0
  -28.9800  -13.2210   20.7680 C   0  0  0  0  0  2  0  0  0  0  0  0
  -30.2970  -13.5340   20.1940 N   0  0  0  0  0  0  0  0  0  0  0  0
  -32.0890  -14.8850   19.8430 O   0  0  0  0  0  0  0  0  0  0  0  0
  -30.1950  -15.8070   20.6630 N   0  0  0  0  0  0  0  0  0  0  0  0
  -29.3930  -15.5750   21.2300 H   0  0  0  0  0  0  0  0  0  0  0  0
  -25.5240  -14.0150   20.3720 C   0  0  0  0  0  0  0  0  0  0  0  0
  -24.4610  -13.2400   20.7490 C   0  0  0  0  0  0  0  0  0  0  0  0
  -24.9280  -11.8900   20.7240 C   0  0  0  0  0  0  0  0  0  0  0  0
  -26.5710  -13.1360   20.1430 N   0  0  0  0  0  0  0  0  0  0  0  0
  -26.2170  -11.8540   20.4130 N   0  0  0  0  0  0  0  0  0  0  0  0
  -24.2070  -10.6260   20.9230 C   0  0  0  0  0  0  0  0  0  0  0  0
  -24.6150   -9.6880   21.8970 C   0  0  0  0  0  3  0  0  0  0  0  0
  -23.8950   -8.4880   22.0820 C   0  0  0  0  0  3  0  0  0  0  0  0
  -22.7510   -8.2180   21.2930 C   0  0  0  0  0  0  0  0  0  0  0  0
  -22.3620   -9.1440   20.3100 C   0  0  0  0  0  3  0  0  0  0  0  0
  -23.0840  -10.3350   20.1220 C   0  0  0  0  0  3  0  0  0  0  0  0
  -22.0060   -7.0670   21.3850 O   0  0  0  0  0  0  0  0  0  0  0  0
  -21.8800   -6.3830   22.5670 C   0  0  0  0  0  0  0  0  0  0  0  0
  -21.3430   -6.9870   23.7250 C   0  0  0  0  0  3  0  0  0  0  0  0
  -21.1680   -6.2270   24.8990 C   0  0  0  0  0  3  0  0  0  0  0  0
  -21.5210   -4.8650   24.9150 C   0  0  0  0  0  0  0  0  0  0  0  0
  -22.0500   -4.2600   23.7620 C   0  0  0  0  0  3  0  0  0  0  0  0
  -22.2270   -5.0170   22.5900 C   0  0  0  0  0  0  0  0  0  0  0  0
  -22.7180   -4.4250   21.4750 F   0  0  0  0  0  0  0  0  0  0  0  0
  -21.3450   -4.1320   26.0400 F   0  0  0  0  0  0  0  0  0  0  0  0
  -23.0610  -13.7140   21.0210 C   0  0  0  0  0  0  0  0  0  0  0  0
  -22.3390  -13.0220   21.8960 N   0  0  0  0  0  0  0  0  0  0  0  0
  -22.6170  -14.7330   20.4970 O   0  0  0  0  0  0  0  0  0  0  0  0
  -22.7110  -12.1980   22.3450 H   0  0  0  0  0  0  0  0  0  0  0  0
  -21.4010  -13.3200   22.1220 H   0  0  0  0  0  0  0  0  0  0  0  0
  -25.6830  -15.3840   20.1840 N   0  0  0  0  0  0  0  0  0  0  0  0
  -24.9130  -16.0350   20.2930 H   0  0  0  0  0  0  0  0  0  0  0  0
  -26.5300  -15.8250   19.8480 H   0  0  0  0  0  0  0  0  0  0  0  0
  -28.3930  -25.2910   19.8480 C   0  0  0  0  0  2  0  0  0  0  0  0
  -28.3630  -26.7440   20.0430 O   0  0  0  0  0  0  0  0  0  0  0  0
  -24.5750  -31.9410   23.2100 C   0  0  0  0  0  0  0  0  0  0  0  0
  -27.1780  -27.4760   20.0570 C   0  0  0  0  0  0  0  0  0  0  0  0
  -23.3510  -30.5470   21.5780 C   0  0  0  0  0  3  0  0  0  0  0  0
  -24.7840  -29.0220   20.1170 C   0  0  0  0  0  0  0  0  0  0  0  0
  -25.8780  -30.9000   21.3470 C   0  0  0  0  0  2  0  0  0  0  0  0
  -25.9540  -29.5310   20.6920 C   0  0  0  0  0  0  0  0  0  0  0  0
  -27.1510  -28.7680   20.6540 C   0  0  0  0  0  3  0  0  0  0  0  0
  -25.9800  -26.9980   19.4760 C   0  0  0  0  0  3  0  0  0  0  0  0
  -24.7960  -27.7580   19.5040 C   0  0  0  0  0  3  0  0  0  0  0  0
  -23.5410  -29.8820   20.1900 C   0  0  0  0  0  2  0  0  0  0  0  0
  -24.6200  -31.1450   22.1010 N   0  0  0  0  0  0  0  0  0  0  0  0
  -23.5000  -32.2060   23.7660 O   0  0  0  0  0  0  0  0  0  0  0  0
  -22.7170  -29.5160   22.5410 C   0  0  0  0  0  0  0  0  0  0  0  0
  -21.3930  -29.3220   22.4260 N   0  0  0  0  0  0  0  0  0  0  0  0
  -23.4130  -28.8940   23.3480 O   0  0  0  0  0  0  0  0  0  0  0  0
  -20.8910  -29.8750   21.7450 H   0  0  0  0  0  0  0  0  0  0  0  0
  -18.0340  -28.0930   22.9540 C   0  0  0  0  0  0  0  0  0  0  0  0
  -20.5930  -28.3730   23.1990 C   0  0  0  0  0  3  0  0  0  0  0  0
  -20.7010  -26.9460   22.6130 C   0  0  0  0  0  2  0  0  0  0  0  0
  -19.5910  -26.6200   21.6100 C   0  0  0  0  0  2  0  0  0  0  0  0
  -18.2160  -26.7490   22.2690 C   0  0  0  0  0  2  0  0  0  0  0  0
  -19.1510  -28.8620   23.3760 C   0  0  0  0  0  0  0  0  0  0  0  0
  -18.9270  -30.1210   23.9750 C   0  0  0  0  0  3  0  0  0  0  0  0
  -17.6190  -30.6100   24.1580 C   0  0  0  0  0  3  0  0  0  0  0  0
  -16.5180  -29.8370   23.7520 C   0  0  0  0  0  3  0  0  0  0  0  0
  -16.7260  -28.5810   23.1560 C   0  0  0  0  0  3  0  0  0  0  0  0
  -25.8670  -32.5730   23.8150 C   0  0  0  0  0  3  0  0  0  0  0  0
  -25.5590  -33.9690   24.1540 N   0  0  0  0  0  0  0  0  0  0  0  0
  -25.8930  -35.0270   23.4050 C   0  0  0  0  0  0  0  0  0  0  0  0
  -26.5670  -34.9310   22.3750 O   0  0  0  0  0  0  0  0  0  0  0  0
  -24.9620  -34.1190   24.9560 H   0  0  0  0  0  0  0  0  0  0  0  0
  -24.1820  -36.8350   23.0390 C   0  0  0  0  0  1  0  0  0  0  0  0
  -25.4060  -36.4130   23.8710 C   0  0  0  0  0  3  0  0  0  0  0  0
  -27.5270  -37.2760   24.7560 C   0  0  0  0  0  1  0  0  0  0  0  0
  -26.4460  -37.4610   23.7910 N   0  0  0  0  0  0  0  0  0  0  0  0
  -26.0430  -38.3820   23.9390 H   0  0  0  0  0  0  0  0  0  0  0  0
  -26.4060  -31.7980   25.0790 C   0  0  1  0  0  0  0  0  0  0  0  0
  -25.3290  -31.5460   26.1600 C   0  0  0  0  0  1  0  0  0  0  0  0
  -26.9920  -30.4270   24.6680 C   0  0  0  0  0  1  0  0  0  0  0  0
  -27.5610  -32.5940   25.7300 C   0  0  0  0  0  1  0  0  0  0  0  0
  1  3  1  0
  2  1  2  0
  2  6  1  0
  4  7  1  0
  4  1  1  0
  5  3  1  0
  7  5  1  0
  8 12  1  0
  9 13  2  0
 11  9  1  0
 11  8  2  0
 12 10  2  0
 12  7  1  0
 13 23  1  0
 13 10  1  0
 14 11  1  0
 15 23  1  0
 16 21  1  0
 17 18  1  0
 17 16  1  0
 19 18  1  0
 19 28  1  0
 19 20  1  0
 21 15  1  0
 21 20  1  0
 22 15  2  0
 23 24  1  0
 25 26  2  0
 26 45  1  0
 27 26  1  0
 27 30  1  0
 28 25  1  0
 28 29  1  0
 29 27  2  0
 30 31  1  0
 31 32  2  0
 33 36  1  0
 33 32  1  0
 34 33  2  0
 35 34  1  0
 35 30  2  0
 36 37  1  0
 37 42  2  0
 37 38  1  0
 38 39  2  0
 39 40  1  0
 40 44  1  0
 41 40  2  0
 42 41  1  0
 43 42  1  0
 45 46  1  0
 46 49  1  0
 46 48  1  0
 47 45  2  0
 50 51  1  0
 50 25  1  0
 52 50  1  0
 53 54  1  0
 53  2  1  0
 54 56  1  0
 55 66  2  0
 56 61  1  0
 57 65  1  0
 57 67  1  0
 58 64  1  0
 58 60  1  0
 59 65  1  0
 60 59  1  0
 61 60  2  0
 62 63  1  0
 62 56  2  0
 63 58  2  0
 64 57  1  0
 65 55  1  0
 67 69  2  0
 68 67  1  0
 70 68  1  0
 71 80  2  0
 71 76  1  0
 72 68  1  0
 72 76  1  0
 73 72  1  0
 74 75  1  0
 74 73  1  0
 75 71  1  0
 76 77  2  0
 77 78  1  0
 79 78  2  0
 80 79  1  0
 81 55  1  0
 81 82  1  0
 81 91  1  0
 82 85  1  0
 83 87  1  0
 83 82  1  0
 84 83  2  0
 87 86  1  0
 89 87  1  0
 89 90  1  0
 89 88  1  0
 91 94  1  1
 91 92  1  0
 93 91  1  0
M  ISO  4  15 100  23 100  53 101  54 101
M  END
>  <TORSDO>  (33) 
F 18

>  <SCORE>  (33) 
-14.404

>  <name>  (33) 
32

>  <ligand_id>  (33) 
32

>  <original_smiles>  (33) 
[H]c1c([H])c([H])c2c(c1[H])C([H])([H])C([H])([H])C([H])([H])C2([H])N([H])C(=O)C1([H])N(C(=O)C([H])(N([H])C(=O)C([H])(N([H])C([H])([H])[H])C([H])([H])[H])C(C([H])([H])[H])(C([H])([H])[H])C([H])([H])[H])C([H])([H])c2c([H])c(OC([H])([H])C(=C3C([H])([H])N(c4c([H])c(N([H])C(=O)N5C([H])([H])C([H])([H])C([H])([H])C([H])(n6nc(-c7c([H])c([H])c(Oc8c([H])c([H])c(F)c([H])c8F)c([H])c7[H])c(C(=O)N([H])[H])c6N([H])[H])C5([H])[H])c([H])c(C([H])([H])[H])c4[H])C([H])([H])C3([H])[H])C([H])([H])[H])c([H])c([H])c2C1([H])[H]

>  <smiles>  (33) 
[H]c1c([H])c([H])c2c(c1[H])C([H])([H])C([H])([H])C([H])([H])C2([H])N([H])C(=O)C1([H])N(C(=O)C([H])(N([H])C(=O)C([H])(N([H])C([H])([H])[H])C([H])([H])[H])C(C([H])([H])[H])(C([H])([H])[H])C([H])([H])[H])C([H])([H])c2c([H])c(OC([H])([H])C(=C3C([H])([H])N(c4c([H])c(N([H])C(=O)N5C([H])([H])C([H])([H])C([H])([H])C([H])(n6nc(-c7c([H])c([H])c(Oc8c([H])c([H])c(F)c([H])c8F)c([H])c7[H])c(C(=O)N([H])[H])c6N([H])[H])C5([H])[H])c([H])c(C([H])([H])[H])c4[H])C([H])([H])C3([H])[H])C([H])([H])[H])c([H])c([H])c2C1([H])[H]

$$$$
33:0:0
     RDKit          3D

 95103  0  0  1  0  0  0  0  0999 V2000
  -29.8590  -23.4580   22.5180 C   0  0  0  0  0  1  0  0  0  0  0  0
  -31.4880  -22.9050   20.7170 C   0  0  0  0  0  1  0  0  0  0  0  0
  -30.0570  -23.4480   20.9820 C   0  0  2  0  0  0  0  0  0  0  0  0
  -30.7260  -25.9470   21.1960 C   0  0  0  0  0  1  0  0  0  0  0  0
  -30.3770  -24.9950   18.9150 C   0  0  0  0  0  1  0  0  0  0  0  0
  -29.8870  -24.9180   20.3860 C   0  0  1  0  0  0  0  0  0  0  0  0
  -28.4030  -25.4110   20.3950 C   0  0  0  0  0  2  0  0  0  0  0  0
  -28.3760  -26.7990   20.0620 O   0  0  0  0  0  0  0  0  0  0  0  0
  -24.5620  -31.8960   23.2180 C   0  0  0  0  0  0  0  0  0  0  0  0
  -27.1720  -27.4560   20.1230 C   0  0  0  0  0  0  0  0  0  0  0  0
  -23.3380  -30.4930   21.5910 C   0  0  0  0  0  3  0  0  0  0  0  0
  -24.7720  -28.9410   20.1640 C   0  0  0  0  0  0  0  0  0  0  0  0
  -25.8590  -30.8470   21.3660 C   0  0  0  0  0  2  0  0  0  0  0  0
  -25.9350  -29.4740   20.7350 C   0  0  0  0  0  0  0  0  0  0  0  0
  -27.1380  -28.7400   20.7070 C   0  0  0  0  0  3  0  0  0  0  0  0
  -25.9930  -26.9240   19.5590 C   0  0  0  0  0  3  0  0  0  0  0  0
  -24.7930  -27.6620   19.5790 C   0  0  0  0  0  3  0  0  0  0  0  0
  -23.5330  -29.8030   20.2140 C   0  0  0  0  0  2  0  0  0  0  0  0
  -24.6060  -31.0940   22.1180 N   0  0  0  0  0  0  0  0  0  0  0  0
  -23.4860  -32.1730   23.7660 O   0  0  0  0  0  0  0  0  0  0  0  0
  -22.6940  -29.4760   22.5590 C   0  0  0  0  0  0  0  0  0  0  0  0
  -21.3680  -29.2960   22.4410 N   0  0  0  0  0  0  0  0  0  0  0  0
  -23.3830  -28.8510   23.3700 O   0  0  0  0  0  0  0  0  0  0  0  0
  -20.8740  -29.8510   21.7580 H   0  0  0  0  0  0  0  0  0  0  0  0
  -17.9970  -28.1090   22.9570 C   0  0  0  0  0  0  0  0  0  0  0  0
  -20.5560  -28.3610   23.2170 C   0  0  0  0  0  3  0  0  0  0  0  0
  -20.6520  -26.9260   22.6460 C   0  0  0  0  0  2  0  0  0  0  0  0
  -19.5470  -26.6050   21.6360 C   0  0  0  0  0  2  0  0  0  0  0  0
  -18.1680  -26.7570   22.2830 C   0  0  0  0  0  2  0  0  0  0  0  0
  -19.1190  -28.8680   23.3800 C   0  0  0  0  0  0  0  0  0  0  0  0
  -18.9070  -30.1360   23.9670 C   0  0  0  0  0  3  0  0  0  0  0  0
  -17.6050  -30.6430   24.1340 C   0  0  0  0  0  3  0  0  0  0  0  0
  -16.4970  -29.8780   23.7280 C   0  0  0  0  0  3  0  0  0  0  0  0
  -16.6930  -28.6140   23.1460 C   0  0  0  0  0  3  0  0  0  0  0  0
  -25.8540  -32.5270   23.8240 C   0  0  0  0  0  3  0  0  0  0  0  0
  -25.5480  -33.9230   24.1640 N   0  0  0  0  0  0  0  0  0  0  0  0
  -25.8720  -34.9790   23.4060 C   0  0  0  0  0  0  0  0  0  0  0  0
  -26.5330  -34.8800   22.3670 O   0  0  0  0  0  0  0  0  0  0  0  0
  -24.9620  -34.0730   24.9720 H   0  0  0  0  0  0  0  0  0  0  0  0
  -24.1380  -36.7690   23.0750 C   0  0  0  0  0  1  0  0  0  0  0  0
  -25.3880  -36.3650   23.8730 C   0  0  0  0  0  3  0  0  0  0  0  0
  -27.5350  -37.2430   24.6810 C   0  0  0  0  0  1  0  0  0  0  0  0
  -26.4180  -37.4210   23.7560 N   0  0  0  0  0  0  0  0  0  0  0  0
  -26.0150  -38.3380   23.9200 H   0  0  0  0  0  0  0  0  0  0  0  0
  -26.3930  -31.7510   25.0880 C   0  0  1  0  0  0  0  0  0  0  0  0
  -25.3170  -31.5100   26.1740 C   0  0  0  0  0  1  0  0  0  0  0  0
  -26.9700  -30.3780   24.6780 C   0  0  0  0  0  1  0  0  0  0  0  0
  -27.5560  -32.5440   25.7310 C   0  0  0  0  0  1  0  0  0  0  0  0
  -29.0310  -22.4440   20.3620 C   0  0  0  0  0  2  0  0  0  0  0  0
  -29.2530  -20.9430   20.7080 C   0  0  0  0  0  2  0  0  0  0  0  0
  -28.4250  -19.9690   19.8690 C   0  0  0  0  0  0  0  0  0  0  0  0
  -27.5060  -20.3680   19.1470 O   0  0  0  0  0  0  0  0  0  0  0  0
  -29.5870  -17.7980   20.8870 C   0  0  0  0  0  3  0  0  0  0  0  0
  -28.3570  -17.6280   19.0260 C   0  0  0  0  0  3  0  0  0  0  0  0
  -28.8030  -18.5390   19.9480 C   0  0  0  0  0  0  0  0  0  0  0  0
  -29.5360  -16.5030   20.4560 C   0  0  0  0  0  0  0  0  0  0  0  0
  -28.8070  -16.3760   19.3150 O   0  0  0  0  0  0  0  0  0  0  0  0
  -30.6530  -14.4390   20.4910 C   0  0  0  0  0  0  0  0  0  0  0  0
  -30.3330  -12.2880   19.3440 C   0  0  0  0  0  2  0  0  0  0  0  0
  -29.3970  -12.5380   18.1430 C   0  0  0  0  0  2  0  0  0  0  0  0
  -27.9210  -12.4000   18.5670 C   0  0  0  0  0  2  0  0  0  0  0  0
  -27.5910  -13.2170   19.8440 C   0  0  0  0  0  3  0  0  0  0  0  0
  -28.6470  -12.9760   20.9490 C   0  0  0  0  0  2  0  0  0  0  0  0
  -29.9830  -13.2590   20.3910 N   0  0  0  0  0  0  0  0  0  0  0  0
  -31.7460  -14.6500   19.9560 O   0  0  0  0  0  0  0  0  0  0  0  0
  -30.0050  -15.4220   21.1260 N   0  0  0  0  0  0  0  0  0  0  0  0
  -29.3520  -15.0730   21.8110 H   0  0  0  0  0  0  0  0  0  0  0  0
  -25.1910  -13.8350   20.5450 C   0  0  0  0  0  0  0  0  0  0  0  0
  -24.1230  -13.0660   20.9220 C   0  0  0  0  0  0  0  0  0  0  0  0
  -24.5800  -11.7130   20.8900 C   0  0  0  0  0  0  0  0  0  0  0  0
  -26.2360  -12.9500   20.3190 N   0  0  0  0  0  0  0  0  0  0  0  0
  -25.8700  -11.6720   20.5800 N   0  0  0  0  0  0  0  0  0  0  0  0
  -23.8540  -10.4510   21.0820 C   0  0  0  0  0  0  0  0  0  0  0  0
  -24.2980   -9.4750   22.0010 C   0  0  0  0  0  3  0  0  0  0  0  0
  -23.5720   -8.2790   22.1820 C   0  0  0  0  0  3  0  0  0  0  0  0
  -22.3870   -8.0490   21.4450 C   0  0  0  0  0  0  0  0  0  0  0  0
  -21.9600   -9.0120   20.5160 C   0  0  0  0  0  3  0  0  0  0  0  0
  -22.6870  -10.2010   20.3320 C   0  0  0  0  0  3  0  0  0  0  0  0
  -21.6330   -6.9030   21.5340 O   0  0  0  0  0  0  0  0  0  0  0  0
  -21.6150   -6.1450   22.6750 C   0  0  0  0  0  0  0  0  0  0  0  0
  -21.2370   -6.6840   23.9250 C   0  0  0  0  0  3  0  0  0  0  0  0
  -21.1620   -5.8500   25.0580 C   0  0  0  0  0  3  0  0  0  0  0  0
  -21.4540   -4.4770   24.9450 C   0  0  0  0  0  0  0  0  0  0  0  0
  -21.8290   -3.9390   23.7010 C   0  0  0  0  0  3  0  0  0  0  0  0
  -21.9070   -4.7690   22.5710 C   0  0  0  0  0  0  0  0  0  0  0  0
  -22.2450   -4.2430   21.3690 F   0  0  0  0  0  0  0  0  0  0  0  0
  -21.3760   -3.6740   26.0310 F   0  0  0  0  0  0  0  0  0  0  0  0
  -22.7270  -13.5480   21.1960 C   0  0  0  0  0  0  0  0  0  0  0  0
  -21.9980  -12.8560   22.0650 N   0  0  0  0  0  0  0  0  0  0  0  0
  -22.2890  -14.5730   20.6770 O   0  0  0  0  0  0  0  0  0  0  0  0
  -22.3640  -12.0300   22.5140 H   0  0  0  0  0  0  0  0  0  0  0  0
  -21.0630  -13.1660   22.2910 H   0  0  0  0  0  0  0  0  0  0  0  0
  -25.3540  -15.2030   20.3510 N   0  0  0  0  0  0  0  0  0  0  0  0
  -24.5690  -15.8430   20.3930 H   0  0  0  0  0  0  0  0  0  0  0  0
  -26.1890  -15.6200   19.9540 H   0  0  0  0  0  0  0  0  0  0  0  0
  3  2  1  1
  3  1  1  0
  6  5  1  6
  6  7  1  0
  6  3  1  0
  6  4  1  0
  8 10  1  0
  8  7  1  0
  9 20  2  0
 10 15  1  0
 11 19  1  0
 11 21  1  0
 12 18  1  0
 12 14  1  0
 13 19  1  0
 14 13  1  0
 15 14  2  0
 16 17  1  0
 16 10  2  0
 17 12  2  0
 18 11  1  0
 19  9  1  0
 21 23  2  0
 22 21  1  0
 24 22  1  0
 25 34  2  0
 25 30  1  0
 26 22  1  0
 26 30  1  0
 27 26  1  0
 28 29  1  0
 28 27  1  0
 29 25  1  0
 30 31  2  0
 31 32  1  0
 33 32  2  0
 34 33  1  0
 35  9  1  0
 35 36  1  0
 35 45  1  0
 36 39  1  0
 37 41  1  0
 37 36  1  0
 38 37  2  0
 41 40  1  0
 43 41  1  0
 43 44  1  0
 43 42  1  0
 45 48  1  1
 45 46  1  0
 47 45  1  0
 49 50  1  0
 49  3  1  0
 51 55  1  0
 51 50  1  0
 52 51  2  0
 54 57  1  0
 54 55  2  0
 55 53  1  0
 56 53  2  0
 56 66  1  0
 57 56  1  0
 58 66  1  0
 59 64  1  0
 60 61  1  0
 60 59  1  0
 62 61  1  0
 62 71  1  0
 62 63  1  0
 64 58  1  0
 64 63  1  0
 65 58  2  0
 66 67  1  0
 68 69  2  0
 69 88  1  0
 70 69  1  0
 70 73  1  0
 71 68  1  0
 71 72  1  0
 72 70  2  0
 73 74  1  0
 74 75  2  0
 76 79  1  0
 76 75  1  0
 77 76  2  0
 78 77  1  0
 78 73  2  0
 79 80  1  0
 80 81  1  0
 81 82  2  0
 83 82  1  0
 83 87  1  0
 84 83  2  0
 85 80  2  0
 85 84  1  0
 86 85  1  0
 88 89  1  0
 89 92  1  0
 89 91  1  0
 90 88  2  0
 93 94  1  0
 93 68  1  0
 95 93  1  0
M  ISO  4   7 101   8 101  58 100  66 100
M  END
>  <TORSDO>  (34) 
F 22

>  <SCORE>  (34) 
-13.625

>  <name>  (34) 
33

>  <ligand_id>  (34) 
33

>  <original_smiles>  (34) 
[H]c1oc(N([H])C(=O)N2C([H])([H])C([H])([H])C([H])([H])C([H])(n3nc(-c4c([H])c([H])c(Oc5c([H])c([H])c(F)c([H])c5F)c([H])c4[H])c(C(=O)N([H])[H])c3N([H])[H])C2([H])[H])c([H])c1C(=O)C([H])([H])C([H])([H])C(C([H])([H])[H])(C([H])([H])[H])C(C([H])([H])[H])(C([H])([H])[H])C([H])([H])Oc1c([H])c([H])c2c(c1[H])C([H])([H])N(C(=O)C([H])(N([H])C(=O)C([H])(N([H])C([H])([H])[H])C([H])([H])[H])C(C([H])([H])[H])(C([H])([H])[H])C([H])([H])[H])C([H])(C(=O)N([H])C1([H])c3c([H])c([H])c([H])c([H])c3C([H])([H])C([H])([H])C1([H])[H])C2([H])[H]

>  <smiles>  (34) 
[H]c1oc(N([H])C(=O)N2C([H])([H])C([H])([H])C([H])([H])C([H])(n3nc(-c4c([H])c([H])c(Oc5c([H])c([H])c(F)c([H])c5F)c([H])c4[H])c(C(=O)N([H])[H])c3N([H])[H])C2([H])[H])c([H])c1C(=O)C([H])([H])C([H])([H])C(C([H])([H])[H])(C([H])([H])[H])C(C([H])([H])[H])(C([H])([H])[H])C([H])([H])Oc1c([H])c([H])c2c(c1[H])C([H])([H])N(C(=O)C([H])(N([H])C(=O)C([H])(N([H])C([H])([H])[H])C([H])([H])[H])C(C([H])([H])[H])(C([H])([H])[H])C([H])([H])[H])C([H])(C(=O)N([H])C1([H])c3c([H])c([H])c([H])c([H])c3C([H])([H])C([H])([H])C1([H])[H])C2([H])[H]

$$$$
34:0:0
     RDKit          3D

 94103  0  0  1  0  0  0  0  0999 V2000
  -30.3010  -23.4720   20.6410 C   0  0  0  0  0  2  0  0  0  0  0  0
  -30.7520  -21.9560   20.6920 C   0  0  0  0  0  2  0  0  0  0  0  0
  -29.1800  -22.2540   19.0370 C   0  0  0  0  0  2  0  0  0  0  0  0
  -29.7600  -23.7340   19.2260 C   0  0  2  0  0  0  0  0  0  0  0  0
  -30.9900  -23.9180   18.2830 C   0  0  0  0  0  1  0  0  0  0  0  0
  -30.0590  -21.1970   19.6400 N   0  0  0  0  0  0  0  0  0  0  0  0
  -30.7310  -18.6180   20.0810 C   0  0  0  0  0  3  0  0  0  0  0  0
  -29.7990  -19.7250   19.6840 C   0  0  0  0  0  0  0  0  0  0  0  0
  -28.5780  -19.1610   19.3610 C   0  0  0  0  0  0  0  0  0  0  0  0
  -30.2250  -17.2830   20.0210 C   0  0  0  0  0  0  0  0  0  0  0  0
  -28.5720  -17.4200   19.5140 S   0  0  0  0  0  0  0  0  0  0  0  0
  -31.1690  -14.8450   19.7880 C   0  0  0  0  0  0  0  0  0  0  0  0
  -30.8440  -12.4790   18.9890 C   0  0  0  0  0  2  0  0  0  0  0  0
  -29.8730  -12.4750   17.7840 C   0  0  0  0  0  2  0  0  0  0  0  0
  -28.4110  -12.4010   18.2600 C   0  0  0  0  0  2  0  0  0  0  0  0
  -28.1110  -13.4040   19.4050 C   0  0  0  0  0  3  0  0  0  0  0  0
  -29.2010  -13.3730   20.5020 C   0  0  0  0  0  2  0  0  0  0  0  0
  -30.5030  -13.6330   19.8620 N   0  0  0  0  0  0  0  0  0  0  0  0
  -32.2660  -14.9140   19.2300 O   0  0  0  0  0  0  0  0  0  0  0  0
  -30.5740  -15.9580   20.3730 N   0  0  0  0  0  0  0  0  0  0  0  0
  -29.8990  -15.5950   21.0280 H   0  0  0  0  0  0  0  0  0  0  0  0
  -25.8060  -14.1640   20.2400 C   0  0  0  0  0  0  0  0  0  0  0  0
  -24.7010  -13.4720   20.6540 C   0  0  0  0  0  0  0  0  0  0  0  0
  -25.0530  -12.0900   20.5840 C   0  0  0  0  0  0  0  0  0  0  0  0
  -26.7680  -13.2110   19.9520 N   0  0  0  0  0  0  0  0  0  0  0  0
  -26.3220  -11.9540   20.2160 N   0  0  0  0  0  0  0  0  0  0  0  0
  -24.2320  -10.8880   20.7910 C   0  0  0  0  0  0  0  0  0  0  0  0
  -24.6140   -9.8810   21.7050 C   0  0  0  0  0  3  0  0  0  0  0  0
  -23.7950   -8.7480   21.9030 C   0  0  0  0  0  3  0  0  0  0  0  0
  -22.5820   -8.6120   21.1870 C   0  0  0  0  0  0  0  0  0  0  0  0
  -22.2180   -9.6080   20.2630 C   0  0  0  0  0  3  0  0  0  0  0  0
  -23.0360  -10.7330   20.0620 C   0  0  0  0  0  3  0  0  0  0  0  0
  -21.7370   -7.5320   21.2940 O   0  0  0  0  0  0  0  0  0  0  0  0
  -21.6420   -6.8070   22.4560 C   0  0  0  0  0  0  0  0  0  0  0  0
  -21.3000   -7.4140   23.6850 C   0  0  0  0  0  3  0  0  0  0  0  0
  -21.1410   -6.6210   24.8390 C   0  0  0  0  0  3  0  0  0  0  0  0
  -21.3190   -5.2250   24.7670 C   0  0  0  0  0  0  0  0  0  0  0  0
  -21.6610   -4.6210   23.5440 C   0  0  0  0  0  3  0  0  0  0  0  0
  -21.8180   -5.4100   22.3910 C   0  0  0  0  0  0  0  0  0  0  0  0
  -22.1230   -4.8190   21.2100 F   0  0  0  0  0  0  0  0  0  0  0  0
  -21.1610   -4.4650   25.8740 F   0  0  0  0  0  0  0  0  0  0  0  0
  -23.3640  -14.0590   21.0000 C   0  0  0  0  0  0  0  0  0  0  0  0
  -22.6370  -13.4230   21.9130 N   0  0  0  0  0  0  0  0  0  0  0  0
  -22.9790  -15.1140   20.4980 O   0  0  0  0  0  0  0  0  0  0  0  0
  -22.9640  -12.5650   22.3360 H   0  0  0  0  0  0  0  0  0  0  0  0
  -21.7440  -13.7970   22.1950 H   0  0  0  0  0  0  0  0  0  0  0  0
  -26.0640  -15.5190   20.0670 N   0  0  0  0  0  0  0  0  0  0  0  0
  -25.3580  -16.2260   20.2430 H   0  0  0  0  0  0  0  0  0  0  0  0
  -26.9270  -15.9030   19.7090 H   0  0  0  0  0  0  0  0  0  0  0  0
  -26.6420  -20.5600   20.1770 C   0  0  0  0  0  1  0  0  0  0  0  0
  -27.2600  -19.7810   19.0060 C   0  0  0  0  0  2  0  0  0  0  0  0
  -28.3550  -24.8680   17.4520 C   0  0  0  0  0  1  0  0  0  0  0  0
  -28.6440  -24.9470   18.9920 C   0  0  0  0  0  3  0  0  0  0  0  0
  -28.7200  -26.4020   19.5190 O   0  0  0  0  0  0  0  0  0  0  0  0
  -24.5480  -31.4680   23.0040 C   0  0  0  0  0  0  0  0  0  0  0  0
  -27.5390  -27.2160   19.6800 C   0  0  0  0  0  0  0  0  0  0  0  0
  -23.4800  -30.0480   21.3110 C   0  0  0  0  0  3  0  0  0  0  0  0
  -25.0470  -28.7020   19.8260 C   0  0  0  0  0  0  0  0  0  0  0  0
  -26.0020  -30.5820   21.1360 C   0  0  0  0  0  2  0  0  0  0  0  0
  -26.2060  -29.2510   20.3930 C   0  0  0  0  0  0  0  0  0  0  0  0
  -27.4620  -28.5400   20.2710 C   0  0  0  0  0  3  0  0  0  0  0  0
  -26.2920  -26.7000   19.2660 C   0  0  0  0  0  3  0  0  0  0  0  0
  -25.0950  -27.4270   19.2670 C   0  0  0  0  0  3  0  0  0  0  0  0
  -23.7470  -29.4790   19.9030 C   0  0  0  0  0  2  0  0  0  0  0  0
  -24.6990  -30.7130   21.8740 N   0  0  0  0  0  0  0  0  0  0  0  0
  -23.4380  -31.6180   23.5400 O   0  0  0  0  0  0  0  0  0  0  0  0
  -22.9110  -28.9260   22.2150 C   0  0  0  0  0  0  0  0  0  0  0  0
  -21.6000  -28.6500   22.0950 N   0  0  0  0  0  0  0  0  0  0  0  0
  -23.6480  -28.3090   22.9890 O   0  0  0  0  0  0  0  0  0  0  0  0
  -21.0590  -29.2040   21.4440 H   0  0  0  0  0  0  0  0  0  0  0  0
  -18.3270  -27.1810   22.6060 C   0  0  0  0  0  0  0  0  0  0  0  0
  -20.8680  -27.6110   22.8240 C   0  0  0  0  0  3  0  0  0  0  0  0
  -21.0520  -26.2290   22.1550 C   0  0  0  0  0  2  0  0  0  0  0  0
  -19.9460  -25.8900   21.1520 C   0  0  0  0  0  2  0  0  0  0  0  0
  -18.5780  -25.8930   21.8410 C   0  0  0  0  0  2  0  0  0  0  0  0
  -19.4010  -27.9960   23.0540 C   0  0  0  0  0  0  0  0  0  0  0  0
  -19.1100  -29.1990   23.7340 C   0  0  0  0  0  3  0  0  0  0  0  0
  -17.7780  -29.5900   23.9680 C   0  0  0  0  0  3  0  0  0  0  0  0
  -16.7180  -28.7730   23.5320 C   0  0  0  0  0  3  0  0  0  0  0  0
  -16.9950  -27.5710   22.8580 C   0  0  0  0  0  3  0  0  0  0  0  0
  -25.7540  -32.1970   23.6650 C   0  0  0  0  0  3  0  0  0  0  0  0
  -26.3120  -31.4440   24.9340 C   0  0  1  0  0  0  0  0  0  0  0  0
  -25.2290  -31.0960   25.9820 C   0  0  0  0  0  1  0  0  0  0  0  0
  -27.0090  -30.1250   24.5250 C   0  0  0  0  0  1  0  0  0  0  0  0
  -27.3870  -32.3150   25.6250 C   0  0  0  0  0  1  0  0  0  0  0  0
  -25.3080  -33.5540   24.0290 N   0  0  0  0  0  0  0  0  0  0  0  0
  -25.5730  -34.6580   23.3190 C   0  0  0  0  0  0  0  0  0  0  0  0
  -26.2830  -34.6470   22.3090 O   0  0  0  0  0  0  0  0  0  0  0  0
  -24.6750  -33.6290   24.8110 H   0  0  0  0  0  0  0  0  0  0  0  0
  -23.7150  -36.3190   22.9640 C   0  0  0  0  0  1  0  0  0  0  0  0
  -24.9580  -35.9860   23.8060 C   0  0  0  0  0  3  0  0  0  0  0  0
  -26.9870  -37.0100   24.7400 C   0  0  0  0  0  1  0  0  0  0  0  0
  -25.9050  -37.1230   23.7630 N   0  0  0  0  0  0  0  0  0  0  0  0
  -25.4220  -38.0020   23.9200 H   0  0  0  0  0  0  0  0  0  0  0  0
  1  2  1  0
  3  4  1  0
  3  6  1  0
  4  5  1  6
  4  1  1  0
  6  8  1  0
  6  2  1  0
  8  7  1  0
  9 11  1  0
  9  8  2  0
 10  7  2  0
 10 20  1  0
 11 10  1  0
 12 18  1  0
 12 20  1  0
 13 18  1  0
 14 15  1  0
 14 13  1  0
 16 15  1  0
 16 25  1  0
 16 17  1  0
 18 17  1  0
 19 12  2  0
 20 21  1  0
 22 23  2  0
 23 42  1  0
 24 23  1  0
 24 27  1  0
 25 26  1  0
 25 22  1  0
 26 24  2  0
 27 28  1  0
 28 29  2  0
 30 33  1  0
 30 29  1  0
 31 30  2  0
 32 31  1  0
 32 27  2  0
 33 34  1  0
 34 35  1  0
 35 36  2  0
 37 36  1  0
 37 41  1  0
 38 37  2  0
 39 34  2  0
 39 38  1  0
 40 39  1  0
 42 43  1  0
 43 46  1  0
 43 45  1  0
 44 42  2  0
 47 22  1  0
 47 48  1  0
 49 47  1  0
 51  9  1  0
 51 50  1  0
 53 52  1  0
 53  4  1  0
 53 54  1  0
 54 56  1  0
 55 66  2  0
 56 61  1  0
 57 65  1  0
 57 67  1  0
 58 64  1  0
 58 60  1  0
 59 65  1  0
 60 59  1  0
 61 60  2  0
 62 63  1  0
 62 56  2  0
 63 58  2  0
 64 57  1  0
 65 55  1  0
 67 69  2  0
 68 67  1  0
 70 68  1  0
 71 80  2  0
 71 76  1  0
 72 68  1  0
 72 76  1  0
 73 72  1  0
 74 75  1  0
 74 73  1  0
 75 71  1  0
 76 77  2  0
 77 78  1  0
 79 78  2  0
 80 79  1  0
 81 55  1  0
 81 86  1  0
 81 82  1  0
 82 85  1  1
 82 83  1  0
 84 82  1  0
 86 89  1  0
 87 91  1  0
 87 86  1  0
 88 87  2  0
 91 90  1  0
 93 91  1  0
 93 94  1  0
 93 92  1  0
M  ISO  4  12 100  20 100  53 101  54 101
M  END
>  <TORSDO>  (35) 
F 19

>  <SCORE>  (35) 
-11.587

>  <name>  (35) 
34

>  <ligand_id>  (35) 
34

>  <original_smiles>  (35) 
[H]c1c([H])c([H])c2c(c1[H])C([H])([H])C([H])([H])C([H])([H])C2([H])N([H])C(=O)C1([H])N(C(=O)C([H])(N([H])C(=O)C([H])(N([H])C([H])([H])[H])C([H])([H])[H])C(C([H])([H])[H])(C([H])([H])[H])C([H])([H])[H])C([H])([H])c2c([H])c(OC([H])(C([H])([H])[H])C3(C([H])([H])[H])C([H])([H])N(c4c(C([H])([H])C([H])([H])[H])sc(N([H])C(=O)N5C([H])([H])C([H])([H])C([H])([H])C([H])(n6nc(-c7c([H])c([H])c(Oc8c([H])c([H])c(F)c([H])c8F)c([H])c7[H])c(C(=O)N([H])[H])c6N([H])[H])C5([H])[H])c4[H])C([H])([H])C3([H])[H])c([H])c([H])c2C1([H])[H]

>  <smiles>  (35) 
[H]c1c([H])c([H])c2c(c1[H])C([H])([H])C([H])([H])C([H])([H])C2([H])N([H])C(=O)C1([H])N(C(=O)C([H])(N([H])C(=O)C([H])(N([H])C([H])([H])[H])C([H])([H])[H])C(C([H])([H])[H])(C([H])([H])[H])C([H])([H])[H])C([H])([H])c2c([H])c(OC([H])(C([H])([H])[H])C3(C([H])([H])[H])C([H])([H])N(c4c(C([H])([H])C([H])([H])[H])sc(N([H])C(=O)N5C([H])([H])C([H])([H])C([H])([H])C([H])(n6nc(-c7c([H])c([H])c(Oc8c([H])c([H])c(F)c([H])c8F)c([H])c7[H])c(C(=O)N([H])[H])c6N([H])[H])C5([H])[H])c4[H])C([H])([H])C3([H])[H])c([H])c([H])c2C1([H])[H]

$$$$
35:0:0
     RDKit          3D

101110  0  0  1  0  0  0  0  0999 V2000
  -27.8740  -20.7730   19.5390 C   0  0  0  0  0  3  0  0  0  0  0  0
  -26.7620  -23.9240   21.1180 C   0  0  0  0  0  2  0  0  0  0  0  0
  -26.6040  -22.8620   20.0220 C   0  0  0  0  0  2  0  0  0  0  0  0
  -28.8520  -22.8220   20.8440 C   0  0  0  0  0  2  0  0  0  0  0  0
  -28.2510  -24.2580   21.0600 C   0  0  0  0  0  3  0  0  0  0  0  0
  -27.8490  -22.0500   20.0580 N   0  0  0  0  0  0  0  0  0  0  0  0
  -27.0010  -20.5940   18.5440 N   0  0  0  0  0  0  0  0  0  0  0  0
  -26.8810  -19.6760   18.1400 H   0  0  0  0  0  0  0  0  0  0  0  0
  -26.6910  -21.3800   17.9970 H   0  0  0  0  0  0  0  0  0  0  0  0
  -27.9000  -18.3600   20.0440 C   0  0  0  0  0  3  0  0  0  0  0  0
  -28.4400  -17.1090   20.3960 C   0  0  0  0  0  3  0  0  0  0  0  0
  -30.6120  -18.1170   20.6100 C   0  0  0  0  0  3  0  0  0  0  0  0
  -28.6740  -19.5460   19.9430 C   0  0  0  0  0  0  0  0  0  0  0  0
  -29.7970  -16.9420   20.6960 C   0  0  0  0  0  0  0  0  0  0  0  0
  -30.0830  -19.4000   20.1970 C   0  0  0  0  0  0  0  0  0  0  0  0
  -30.7250  -14.6300   20.3670 C   0  0  0  0  0  0  0  0  0  0  0  0
  -30.3990  -12.4270   19.2570 C   0  0  0  0  0  2  0  0  0  0  0  0
  -29.4550  -12.6140   18.0500 C   0  0  0  0  0  2  0  0  0  0  0  0
  -27.9870  -12.4630   18.4860 C   0  0  0  0  0  2  0  0  0  0  0  0
  -27.6520  -13.3000   19.7480 C   0  0  0  0  0  3  0  0  0  0  0  0
  -28.7280  -13.1360   20.8540 C   0  0  0  0  0  2  0  0  0  0  0  0
  -30.0500  -13.4390   20.2740 N   0  0  0  0  0  0  0  0  0  0  0  0
  -31.7870  -14.8250   19.7700 O   0  0  0  0  0  0  0  0  0  0  0  0
  -30.1670  -15.6060   21.1290 N   0  0  0  0  0  0  0  0  0  0  0  0
  -29.4820  -15.1990   21.7430 H   0  0  0  0  0  0  0  0  0  0  0  0
  -25.2490  -13.8830   20.4700 C   0  0  0  0  0  0  0  0  0  0  0  0
  -24.1930  -13.1100   20.8620 C   0  0  0  0  0  0  0  0  0  0  0  0
  -24.6580  -11.7590   20.8200 C   0  0  0  0  0  0  0  0  0  0  0  0
  -26.3020  -13.0130   20.2350 N   0  0  0  0  0  0  0  0  0  0  0  0
  -25.9460  -11.7270   20.4980 N   0  0  0  0  0  0  0  0  0  0  0  0
  -23.9290  -10.4960   21.0050 C   0  0  0  0  0  0  0  0  0  0  0  0
  -24.3510   -9.5300   21.9430 C   0  0  0  0  0  3  0  0  0  0  0  0
  -23.6220   -8.3360   22.1210 C   0  0  0  0  0  3  0  0  0  0  0  0
  -22.4540   -8.0970   21.3560 C   0  0  0  0  0  0  0  0  0  0  0  0
  -22.0510   -9.0510   20.4060 C   0  0  0  0  0  3  0  0  0  0  0  0
  -22.7820  -10.2380   20.2280 C   0  0  0  0  0  3  0  0  0  0  0  0
  -21.6970   -6.9540   21.4430 O   0  0  0  0  0  0  0  0  0  0  0  0
  -21.6240   -6.2240   22.6020 C   0  0  0  0  0  0  0  0  0  0  0  0
  -21.1380   -6.7820   23.8040 C   0  0  0  0  0  3  0  0  0  0  0  0
  -21.0130   -5.9780   24.9550 C   0  0  0  0  0  3  0  0  0  0  0  0
  -21.3670   -4.6160   24.9040 C   0  0  0  0  0  0  0  0  0  0  0  0
  -21.8470   -4.0560   23.7070 C   0  0  0  0  0  3  0  0  0  0  0  0
  -21.9710   -4.8580   22.5580 C   0  0  0  0  0  0  0  0  0  0  0  0
  -22.4140   -4.3090   21.4030 F   0  0  0  0  0  0  0  0  0  0  0  0
  -21.2410   -3.8420   26.0080 F   0  0  0  0  0  0  0  0  0  0  0  0
  -22.8000  -13.5860   21.1560 C   0  0  0  0  0  0  0  0  0  0  0  0
  -22.0800  -12.8860   22.0250 N   0  0  0  0  0  0  0  0  0  0  0  0
  -22.3590  -14.6180   20.6520 O   0  0  0  0  0  0  0  0  0  0  0  0
  -22.4550  -12.0560   22.4620 H   0  0  0  0  0  0  0  0  0  0  0  0
  -21.1460  -13.1900   22.2640 H   0  0  0  0  0  0  0  0  0  0  0  0
  -25.3770  -15.2540   20.2640 N   0  0  0  0  0  0  0  0  0  0  0  0
  -24.5020  -15.7660   20.2120 H   0  0  0  0  0  0  0  0  0  0  0  0
  -26.0680  -15.6180   19.6230 H   0  0  0  0  0  0  0  0  0  0  0  0
  -30.9900  -20.4280   20.0280 O   0  0  0  0  0  0  0  0  0  0  0  0
  -31.0770  -20.9790   18.7030 C   0  0  0  0  0  2  0  0  0  0  0  0
  -32.8870  -22.5630   19.5600 C   0  0  0  0  0  1  0  0  0  0  0  0
  -32.3460  -22.4440   17.1150 C   0  0  0  0  0  1  0  0  0  0  0  0
  -33.5090  -20.5150   18.2320 C   0  0  0  0  0  1  0  0  0  0  0  0
  -32.4540  -21.6200   18.4140 C   0  0  2  0  0  0  0  0  0  0  0  0
  -28.5900  -25.3270   19.9520 C   0  0  0  0  0  2  0  0  0  0  0  0
  -28.4530  -26.7290   20.3020 O   0  0  0  0  0  0  0  0  0  0  0  0
  -24.5920  -31.9110   23.2310 C   0  0  0  0  0  0  0  0  0  0  0  0
  -27.2610  -27.4370   20.2090 C   0  0  0  0  0  0  0  0  0  0  0  0
  -23.3910  -30.4910   21.5940 C   0  0  0  0  0  3  0  0  0  0  0  0
  -24.8560  -28.9570   20.1650 C   0  0  0  0  0  0  0  0  0  0  0  0
  -25.9110  -30.8580   21.3960 C   0  0  0  0  0  2  0  0  0  0  0  0
  -26.0050  -29.4790   20.7710 C   0  0  0  0  0  0  0  0  0  0  0  0
  -27.2000  -28.7260   20.7920 C   0  0  0  0  0  3  0  0  0  0  0  0
  -26.1060  -26.9490   19.5530 C   0  0  0  0  0  3  0  0  0  0  0  0
  -24.9080  -27.6970   19.5440 C   0  0  0  0  0  3  0  0  0  0  0  0
  -23.6060  -29.8100   20.2130 C   0  0  0  0  0  2  0  0  0  0  0  0
  -24.6500  -31.1020   22.1350 N   0  0  0  0  0  0  0  0  0  0  0  0
  -23.5090  -32.1830   23.7670 O   0  0  0  0  0  0  0  0  0  0  0  0
  -22.7440  -29.4740   22.5600 C   0  0  0  0  0  0  0  0  0  0  0  0
  -21.4180  -29.2920   22.4310 N   0  0  0  0  0  0  0  0  0  0  0  0
  -23.4270  -28.8570   23.3810 O   0  0  0  0  0  0  0  0  0  0  0  0
  -20.9300  -29.8440   21.7400 H   0  0  0  0  0  0  0  0  0  0  0  0
  -18.0360  -28.1300   22.9550 C   0  0  0  0  0  0  0  0  0  0  0  0
  -20.5990  -28.3560   23.2010 C   0  0  0  0  0  3  0  0  0  0  0  0
  -20.6810  -26.9310   22.6050 C   0  0  0  0  0  2  0  0  0  0  0  0
  -19.5610  -26.6290   21.6030 C   0  0  0  0  0  2  0  0  0  0  0  0
  -18.1890  -26.7840   22.2620 C   0  0  0  0  0  2  0  0  0  0  0  0
  -19.1680  -28.8740   23.3790 C   0  0  0  0  0  0  0  0  0  0  0  0
  -18.9700  -30.1360   23.9810 C   0  0  0  0  0  3  0  0  0  0  0  0
  -17.6730  -30.6510   24.1650 C   0  0  0  0  0  3  0  0  0  0  0  0
  -16.5550  -29.9000   23.7610 C   0  0  0  0  0  3  0  0  0  0  0  0
  -16.7380  -28.6420   23.1600 C   0  0  0  0  0  3  0  0  0  0  0  0
  -25.8780  -32.5490   23.8520 C   0  0  0  0  0  3  0  0  0  0  0  0
  -25.5680  -33.9460   24.1810 N   0  0  0  0  0  0  0  0  0  0  0  0
  -25.8870  -34.9960   23.4150 C   0  0  0  0  0  0  0  0  0  0  0  0
  -26.5520  -34.8930   22.3790 O   0  0  0  0  0  0  0  0  0  0  0  0
  -25.0060  -34.1050   25.0060 H   0  0  0  0  0  0  0  0  0  0  0  0
  -24.1660  -36.7860   23.0270 C   0  0  0  0  0  1  0  0  0  0  0  0
  -25.3910  -36.3830   23.8650 C   0  0  0  0  0  3  0  0  0  0  0  0
  -27.5040  -37.2710   24.7430 C   0  0  0  0  0  1  0  0  0  0  0  0
  -26.4250  -37.4360   23.7720 N   0  0  0  0  0  0  0  0  0  0  0  0
  -26.0170  -38.3570   23.9040 H   0  0  0  0  0  0  0  0  0  0  0  0
  -26.3990  -31.7780   25.1260 C   0  0  1  0  0  0  0  0  0  0  0  0
  -25.3050  -31.5280   26.1900 C   0  0  0  0  0  1  0  0  0  0  0  0
  -26.9950  -30.4110   24.7230 C   0  0  0  0  0  1  0  0  0  0  0  0
  -27.5450  -32.5770   25.7930 C   0  0  0  0  0  1  0  0  0  0  0  0
  1  7  1  0
  1 13  1  0
  1  6  1  0
  3  6  1  0
  3  2  1  0
  4  5  1  0
  5 60  1  0
  5  2  1  0
  6  4  1  0
  8  7  1  0
  9  7  1  0
 10 11  1  0
 11 14  2  0
 12 14  1  0
 13 10  2  0
 13 15  1  0
 14 24  1  0
 15 12  2  0
 16 24  1  0
 17 22  1  0
 18 19  1  0
 18 17  1  0
 20 19  1  0
 20 29  1  0
 20 21  1  0
 22 16  1  0
 22 21  1  0
 23 16  2  0
 24 25  1  0
 26 27  2  0
 27 46  1  0
 28 27  1  0
 28 31  1  0
 29 26  1  0
 29 30  1  0
 30 28  2  0
 31 32  1  0
 32 33  2  0
 34 37  1  0
 34 33  1  0
 35 34  2  0
 36 35  1  0
 36 31  2  0
 37 38  1  0
 38 39  1  0
 39 40  2  0
 41 40  1  0
 41 45  1  0
 42 41  2  0
 43 38  2  0
 43 42  1  0
 44 43  1  0
 46 47  1  0
 47 50  1  0
 47 49  1  0
 48 46  2  0
 51 26  1  0
 52 51  1  0
 53 51  1  0
 54 15  1  0
 55 54  1  0
 59 57  1  6
 58 59  1  0
 59 55  1  0
 59 56  1  0
 60 61  1  0
 62 73  2  0
 63 61  1  0
 63 68  1  0
 64 72  1  0
 64 74  1  0
 65 71  1  0
 65 67  1  0
 66 72  1  0
 67 68  2  0
 67 66  1  0
 69 63  2  0
 70 69  1  0
 70 65  2  0
 71 64  1  0
 72 62  1  0
 74 76  2  0
 75 74  1  0
 77 75  1  0
 78 87  2  0
 78 83  1  0
 79 75  1  0
 79 83  1  0
 80 79  1  0
 81 82  1  0
 81 80  1  0
 82 78  1  0
 83 84  2  0
 84 85  1  0
 86 85  2  0
 87 86  1  0
 88 62  1  0
 88 89  1  0
 88 98  1  0
 89 92  1  0
 90 94  1  0
 90 89  1  0
 91 90  2  0
 94 93  1  0
 96 94  1  0
 96 97  1  0
 96 95  1  0
 98101  1  1
 98 99  1  0
100 98  1  0
M  ISO  4  16 100  24 100  60 101  61 101
M  END
>  <TORSDO>  (36) 
F 21

>  <SCORE>  (36) 
-14.239

>  <name>  (36) 
35

>  <ligand_id>  (36) 
35

>  <original_smiles>  (36) 
[H]c1c([H])c([H])c2c(c1[H])C([H])([H])C([H])([H])C([H])([H])C2([H])N([H])C(=O)C1([H])N(C(=O)C([H])(N([H])C(=O)C([H])(N([H])C([H])([H])[H])C([H])([H])[H])C(C([H])([H])[H])(C([H])([H])[H])C([H])([H])[H])C([H])([H])c2c([H])c(OC([H])([H])C3([H])C([H])([H])N(C(c4c([H])c([H])c(N([H])C(=O)N5C([H])([H])C([H])([H])C([H])([H])C([H])(n6nc(-c7c([H])c([H])c(Oc8c([H])c([H])c(F)c([H])c8F)c([H])c7[H])c(C(=O)N([H])[H])c6N([H])[H])C5([H])[H])c([H])c4OC([H])([H])C(C([H])([H])[H])(C([H])([H])[H])C([H])([H])[H])=[N+]([H])[H])C([H])([H])C3([H])[H])c([H])c([H])c2C1([H])[H]

>  <smiles>  (36) 
[H]c1c([H])c([H])c2c(c1[H])C([H])([H])C([H])([H])C([H])([H])C2([H])N([H])C(=O)C1([H])N(C(=O)C([H])(N([H])C(=O)C([H])(N([H])C([H])([H])[H])C([H])([H])[H])C(C([H])([H])[H])(C([H])([H])[H])C([H])([H])[H])C([H])([H])c2c([H])c(OC([H])([H])C3([H])C([H])([H])N(C(c4c([H])c([H])c(N([H])C(=O)N5C([H])([H])C([H])([H])C([H])([H])C([H])(n6nc(-c7c([H])c([H])c(Oc8c([H])c([H])c(F)c([H])c8F)c([H])c7[H])c(C(=O)N([H])[H])c6N([H])[H])C5([H])[H])c([H])c4OC([H])([H])C(C([H])([H])[H])(C([H])([H])[H])C([H])([H])[H])=[N+]([H])[H])C([H])([H])C3([H])[H])c([H])c([H])c2C1([H])[H]

$$$$
36:0:0
     RDKit          3D

 96105  0  0  1  0  0  0  0  0999 V2000
  -28.8600  -20.6830   20.8100 C   0  0  0  0  0  0  0  0  0  0  0  0
  -30.1300  -24.2240   20.2750 C   0  0  0  0  0  2  0  0  0  0  0  0
  -30.3740  -22.7440   20.6640 C   0  0  0  0  0  2  0  0  0  0  0  0
  -28.9200  -24.1620   19.3490 C   0  0  2  0  0  0  0  0  0  0  0  0
  -28.0900  -22.9940   20.0360 C   0  0  2  0  0  0  0  0  0  0  0  0
  -29.4430  -23.7220   17.9460 C   0  0  0  0  0  1  0  0  0  0  0  0
  -27.0480  -22.3890   19.0430 C   0  0  0  0  0  1  0  0  0  0  0  0
  -27.3310  -23.4460   21.3280 C   0  0  0  0  0  1  0  0  0  0  0  0
  -29.1150  -21.9960   20.4730 N   0  0  0  0  0  0  0  0  0  0  0  0
  -27.7050  -20.2860   20.9980 O   0  0  0  0  0  0  0  0  0  0  0  0
  -32.2100  -18.8070   21.3350 C   0  0  0  0  0  3  0  0  0  0  0  0
  -31.2740  -19.8540   21.2350 C   0  0  0  0  0  3  0  0  0  0  0  0
  -31.8360  -17.4740   21.0720 C   0  0  0  0  0  3  0  0  0  0  0  0
  -29.5700  -18.2350   20.6220 C   0  0  0  0  0  3  0  0  0  0  0  0
  -29.9360  -19.5980   20.8520 C   0  0  0  0  0  0  0  0  0  0  0  0
  -30.5030  -17.1640   20.7140 C   0  0  0  0  0  0  0  0  0  0  0  0
  -30.7450  -14.7500   20.0000 C   0  0  0  0  0  0  0  0  0  0  0  0
  -30.3960  -12.5330   18.9450 C   0  0  0  0  0  2  0  0  0  0  0  0
  -29.3990  -12.6690   17.7760 C   0  0  0  0  0  2  0  0  0  0  0  0
  -27.9530  -12.5290   18.2880 C   0  0  0  0  0  2  0  0  0  0  0  0
  -27.6720  -13.4160   19.5310 C   0  0  0  0  0  3  0  0  0  0  0  0
  -28.7830  -13.2670   20.5950 C   0  0  0  0  0  2  0  0  0  0  0  0
  -30.0650  -13.5680   19.9380 N   0  0  0  0  0  0  0  0  0  0  0  0
  -31.8530  -14.8910   19.4700 O   0  0  0  0  0  0  0  0  0  0  0  0
  -30.0650  -15.8050   20.5130 N   0  0  0  0  0  0  0  0  0  0  0  0
  -29.0970  -15.6150   20.7290 H   0  0  0  0  0  0  0  0  0  0  0  0
  -25.3410  -14.0480   20.4150 C   0  0  0  0  0  0  0  0  0  0  0  0
  -24.2850  -13.2880   20.8320 C   0  0  0  0  0  0  0  0  0  0  0  0
  -24.7090  -11.9270   20.7240 C   0  0  0  0  0  0  0  0  0  0  0  0
  -26.3460  -13.1540   20.0860 N   0  0  0  0  0  0  0  0  0  0  0  0
  -25.9730  -11.8720   20.3260 N   0  0  0  0  0  0  0  0  0  0  0  0
  -23.9670  -10.6760   20.9200 C   0  0  0  0  0  0  0  0  0  0  0  0
  -24.3800   -9.7080   21.8640 C   0  0  0  0  0  3  0  0  0  0  0  0
  -23.6360   -8.5220   22.0440 C   0  0  0  0  0  3  0  0  0  0  0  0
  -22.4680   -8.2920   21.2810 C   0  0  0  0  0  0  0  0  0  0  0  0
  -22.0730   -9.2480   20.3290 C   0  0  0  0  0  3  0  0  0  0  0  0
  -22.8140  -10.4280   20.1480 C   0  0  0  0  0  3  0  0  0  0  0  0
  -21.7010   -7.1560   21.3720 O   0  0  0  0  0  0  0  0  0  0  0  0
  -21.5800   -6.4610   22.5500 C   0  0  0  0  0  0  0  0  0  0  0  0
  -21.0280   -7.0510   23.7090 C   0  0  0  0  0  3  0  0  0  0  0  0
  -20.8590   -6.2790   24.8770 C   0  0  0  0  0  3  0  0  0  0  0  0
  -21.2280   -4.9200   24.8850 C   0  0  0  0  0  0  0  0  0  0  0  0
  -21.7690   -4.3310   23.7310 C   0  0  0  0  0  3  0  0  0  0  0  0
  -21.9420   -5.1000   22.5650 C   0  0  0  0  0  0  0  0  0  0  0  0
  -22.4450   -4.5190   21.4480 F   0  0  0  0  0  0  0  0  0  0  0  0
  -21.0600   -4.1800   26.0040 F   0  0  0  0  0  0  0  0  0  0  0  0
  -22.9200  -13.7850   21.2160 C   0  0  0  0  0  0  0  0  0  0  0  0
  -22.2290  -13.0690   22.0970 N   0  0  0  0  0  0  0  0  0  0  0  0
  -22.4790  -14.8440   20.7690 O   0  0  0  0  0  0  0  0  0  0  0  0
  -22.6010  -12.2100   22.4740 H   0  0  0  0  0  0  0  0  0  0  0  0
  -21.3180  -13.3870   22.3970 H   0  0  0  0  0  0  0  0  0  0  0  0
  -25.5270  -15.4190   20.2690 N   0  0  0  0  0  0  0  0  0  0  0  0
  -24.7720  -16.0760   20.4360 H   0  0  0  0  0  0  0  0  0  0  0  0
  -26.3470  -15.8450   19.8550 H   0  0  0  0  0  0  0  0  0  0  0  0
  -28.0970  -25.4910   19.1110 C   0  0  0  0  0  2  0  0  0  0  0  0
  -28.3200  -26.8040   19.7250 O   0  0  0  0  0  0  0  0  0  0  0  0
  -24.4870  -31.8240   23.1950 C   0  0  0  0  0  0  0  0  0  0  0  0
  -27.1840  -27.6270   19.7470 C   0  0  0  0  0  0  0  0  0  0  0  0
  -23.3010  -30.4950   21.4950 C   0  0  0  0  0  3  0  0  0  0  0  0
  -24.7660  -29.1290   19.9300 C   0  0  0  0  0  0  0  0  0  0  0  0
  -25.8230  -30.9250   21.2860 C   0  0  0  0  0  2  0  0  0  0  0  0
  -25.9340  -29.6110   20.5350 C   0  0  0  0  0  0  0  0  0  0  0  0
  -27.1450  -28.8640   20.4540 C   0  0  0  0  0  3  0  0  0  0  0  0
  -25.9880  -27.2300   19.0870 C   0  0  0  0  0  3  0  0  0  0  0  0
  -24.7900  -27.9360   19.2080 C   0  0  0  0  0  3  0  0  0  0  0  0
  -23.5000  -29.9420   20.0650 C   0  0  0  0  0  2  0  0  0  0  0  0
  -24.5560  -31.0920   22.0490 N   0  0  0  0  0  0  0  0  0  0  0  0
  -23.4060  -32.0180   23.7680 O   0  0  0  0  0  0  0  0  0  0  0  0
  -22.7080  -29.3770   22.3840 C   0  0  0  0  0  0  0  0  0  0  0  0
  -21.3970  -29.1250   22.2370 N   0  0  0  0  0  0  0  0  0  0  0  0
  -23.4260  -28.7500   23.1690 O   0  0  0  0  0  0  0  0  0  0  0  0
  -20.8750  -29.6920   21.5830 H   0  0  0  0  0  0  0  0  0  0  0  0
  -18.0990  -27.7000   22.6550 C   0  0  0  0  0  0  0  0  0  0  0  0
  -20.6340  -28.1000   22.9510 C   0  0  0  0  0  3  0  0  0  0  0  0
  -20.8260  -26.7070   22.3050 C   0  0  0  0  0  2  0  0  0  0  0  0
  -19.7470  -26.3660   21.2700 C   0  0  0  0  0  2  0  0  0  0  0  0
  -18.3580  -26.4000   21.9110 C   0  0  0  0  0  2  0  0  0  0  0  0
  -19.1670  -28.5070   23.1280 C   0  0  0  0  0  0  0  0  0  0  0  0
  -18.8720  -29.7230   23.7760 C   0  0  0  0  0  3  0  0  0  0  0  0
  -17.5390  -30.1430   23.9530 C   0  0  0  0  0  3  0  0  0  0  0  0
  -16.4830  -29.3320   23.4980 C   0  0  0  0  0  3  0  0  0  0  0  0
  -16.7640  -28.1110   22.8590 C   0  0  0  0  0  3  0  0  0  0  0  0
  -25.7590  -32.4660   23.8270 C   0  0  0  0  0  3  0  0  0  0  0  0
  -25.4270  -33.8540   24.1740 N   0  0  0  0  0  0  0  0  0  0  0  0
  -25.7140  -34.9190   23.4160 C   0  0  0  0  0  0  0  0  0  0  0  0
  -26.3580  -34.8400   22.3670 O   0  0  0  0  0  0  0  0  0  0  0  0
  -24.8600  -33.9880   24.9980 H   0  0  0  0  0  0  0  0  0  0  0  0
  -23.9240  -36.6640   23.1210 C   0  0  0  0  0  1  0  0  0  0  0  0
  -25.1990  -36.2910   23.8950 C   0  0  0  0  0  3  0  0  0  0  0  0
  -27.3220  -37.2340   24.6880 C   0  0  0  0  0  1  0  0  0  0  0  0
  -26.1980  -37.3750   23.7660 N   0  0  0  0  0  0  0  0  0  0  0  0
  -25.7680  -38.2810   23.9340 H   0  0  0  0  0  0  0  0  0  0  0  0
  -26.2870  -31.6870   25.0920 C   0  0  1  0  0  0  0  0  0  0  0  0
  -25.1900  -31.3900   26.1430 C   0  0  0  0  0  1  0  0  0  0  0  0
  -26.9190  -30.3390   24.6800 C   0  0  0  0  0  1  0  0  0  0  0  0
  -27.4080  -32.5010   25.7800 C   0  0  0  0  0  1  0  0  0  0  0  0
  1 15  1  0
  1 10  2  0
  2  3  1  0
  4  6  1  6
  4  5  1  0
  4  2  1  0
  5  9  1  0
  5  8  1  1
  7  5  1  0
  9  3  1  0
  9  1  1  0
 12 11  1  0
 13 11  2  0
 14 16  2  0
 14 15  1  0
 15 12  2  0
 16 13  1  0
 17 25  1  0
 18 23  1  0
 19 20  1  0
 19 18  1  0
 21 20  1  0
 21 30  1  0
 21 22  1  0
 23 17  1  0
 23 22  1  0
 24 17  2  0
 25 16  1  0
 25 26  1  0
 27 28  2  0
 28 47  1  0
 29 28  1  0
 29 32  1  0
 30 31  1  0
 30 27  1  0
 31 29  2  0
 32 33  1  0
 33 34  2  0
 35 38  1  0
 35 34  1  0
 36 35  2  0
 37 36  1  0
 37 32  2  0
 38 39  1  0
 39 44  2  0
 39 40  1  0
 40 41  2  0
 41 42  1  0
 42 46  1  0
 43 42  2  0
 44 43  1  0
 45 44  1  0
 47 48  1  0
 48 51  1  0
 48 50  1  0
 49 47  2  0
 52 27  1  0
 52 53  1  0
 54 52  1  0
 55  4  1  0
 55 56  1  0
 56 58  1  0
 57 68  2  0
 58 63  1  0
 59 67  1  0
 59 69  1  0
 60 66  1  0
 60 62  1  0
 61 67  1  0
 62 61  1  0
 63 62  2  0
 64 65  1  0
 64 58  2  0
 65 60  2  0
 66 59  1  0
 67 57  1  0
 69 71  2  0
 70 69  1  0
 72 70  1  0
 73 82  2  0
 73 78  1  0
 74 70  1  0
 74 78  1  0
 75 74  1  0
 76 77  1  0
 76 75  1  0
 77 73  1  0
 78 79  2  0
 79 80  1  0
 81 80  2  0
 82 81  1  0
 83 57  1  0
 83 84  1  0
 83 93  1  0
 84 87  1  0
 85 89  1  0
 85 84  1  0
 86 85  2  0
 89 88  1  0
 91 89  1  0
 91 92  1  0
 91 90  1  0
 93 96  1  1
 93 94  1  0
 95 93  1  0
M  ISO  4  17 100  25 100  55 101  56 101
M  END
>  <TORSDO>  (37) 
F 18

>  <SCORE>  (37) 
-14.363

>  <name>  (37) 
36

>  <ligand_id>  (37) 
36

>  <original_smiles>  (37) 
[H]c1c([H])c(C(=O)N2C([H])([H])C([H])([H])C(C([H])([H])[H])(C([H])([H])Oc3c([H])c([H])c4c(c3[H])C([H])([H])N(C(=O)C([H])(N([H])C(=O)C([H])(N([H])C([H])([H])[H])C([H])([H])[H])C(C([H])([H])[H])(C([H])([H])[H])C([H])([H])[H])C([H])(C(=O)N([H])C3([H])c5c([H])c([H])c([H])c([H])c5C([H])([H])C([H])([H])C3([H])[H])C4([H])[H])C2(C([H])([H])[H])C([H])([H])[H])c([H])c(N([H])C(=O)N2C([H])([H])C([H])([H])C([H])([H])C([H])(n3nc(-c4c([H])c([H])c(Oc5c([H])c([H])c(F)c([H])c5F)c([H])c4[H])c(C(=O)N([H])[H])c3N([H])[H])C2([H])[H])c1[H]

>  <smiles>  (37) 
[H]c1c([H])c(C(=O)N2C([H])([H])C([H])([H])C(C([H])([H])[H])(C([H])([H])Oc3c([H])c([H])c4c(c3[H])C([H])([H])N(C(=O)C([H])(N([H])C(=O)C([H])(N([H])C([H])([H])[H])C([H])([H])[H])C(C([H])([H])[H])(C([H])([H])[H])C([H])([H])[H])C([H])(C(=O)N([H])C3([H])c5c([H])c([H])c([H])c([H])c5C([H])([H])C([H])([H])C3([H])[H])C4([H])[H])C2(C([H])([H])[H])C([H])([H])[H])c([H])c(N([H])C(=O)N2C([H])([H])C([H])([H])C([H])([H])C([H])(n3nc(-c4c([H])c([H])c(Oc5c([H])c([H])c(F)c([H])c5F)c([H])c4[H])c(C(=O)N([H])[H])c3N([H])[H])C2([H])[H])c1[H]

$$$$
37:0:0
     RDKit          3D

 98106  0  0  1  0  0  0  0  0999 V2000
  -29.2830  -20.8450   20.6440 N   0  0  0  0  0  0  0  0  0  0  0  0
  -28.7800  -21.0880   21.4900 H   0  0  0  0  0  0  0  0  0  0  0  0
  -31.4800  -14.7040   19.7290 C   0  0  0  0  0  0  0  0  0  0  0  0
  -31.0010  -12.5690   18.5690 C   0  0  0  0  0  2  0  0  0  0  0  0
  -29.8820  -12.7790   17.5270 C   0  0  0  0  0  2  0  0  0  0  0  0
  -28.4910  -12.6350   18.1740 C   0  0  0  0  0  2  0  0  0  0  0  0
  -28.3500  -13.4670   19.4750 C   0  0  0  0  0  3  0  0  0  0  0  0
  -29.5560  -13.2180   20.4110 C   0  0  0  0  0  2  0  0  0  0  0  0
  -30.8000  -13.5230   19.6730 N   0  0  0  0  0  0  0  0  0  0  0  0
  -32.3760  -15.0020   18.9240 O   0  0  0  0  0  0  0  0  0  0  0  0
  -30.3330  -17.5060   21.9050 C   0  0  0  0  0  3  0  0  0  0  0  0
  -30.2680  -18.8940   19.4960 C   0  0  0  0  0  2  0  0  0  0  0  0
  -29.8440  -18.8290   21.8850 C   0  0  0  0  0  0  0  0  0  0  0  0
  -29.7960  -19.5390   20.6620 C   0  0  0  0  0  0  0  0  0  0  0  0
  -30.7610  -16.8840   20.7070 C   0  0  0  0  0  0  0  0  0  0  0  0
  -30.7230  -17.6190   19.5590 N   0  0  0  0  0  0  0  0  0  0  0  0
  -31.1250  -15.5030   20.7500 N   0  0  0  0  0  0  0  0  0  0  0  0
  -31.0420  -17.1930   18.6810 H   0  0  0  0  0  0  0  0  0  0  0  0
  -30.7230  -14.9900   21.5160 H   0  0  0  0  0  0  0  0  0  0  0  0
  -26.1680  -14.0870   20.6960 C   0  0  0  0  0  0  0  0  0  0  0  0
  -25.1260  -13.3220   21.1490 C   0  0  0  0  0  0  0  0  0  0  0  0
  -25.4650  -11.9710   20.8370 C   0  0  0  0  0  0  0  0  0  0  0  0
  -27.0820  -13.1980   20.1500 N   0  0  0  0  0  0  0  0  0  0  0  0
  -26.6720  -11.9130   20.2880 N   0  0  0  0  0  0  0  0  0  0  0  0
  -24.6890  -10.7330   20.9790 C   0  0  0  0  0  0  0  0  0  0  0  0
  -25.0980   -9.7000   21.8520 C   0  0  0  0  0  3  0  0  0  0  0  0
  -24.3250   -8.5270   21.9870 C   0  0  0  0  0  3  0  0  0  0  0  0
  -23.1290   -8.3780   21.2470 C   0  0  0  0  0  0  0  0  0  0  0  0
  -22.7370   -9.3980   20.3620 C   0  0  0  0  0  3  0  0  0  0  0  0
  -23.5100  -10.5630   20.2250 C   0  0  0  0  0  3  0  0  0  0  0  0
  -22.3290   -7.2610   21.2910 O   0  0  0  0  0  0  0  0  0  0  0  0
  -22.1170   -6.5730   22.4600 C   0  0  0  0  0  0  0  0  0  0  0  0
  -21.5620   -7.1960   23.5990 C   0  0  0  0  0  3  0  0  0  0  0  0
  -21.2960   -6.4380   24.7570 C   0  0  0  0  0  3  0  0  0  0  0  0
  -21.5730   -5.0570   24.7740 C   0  0  0  0  0  0  0  0  0  0  0  0
  -22.1210   -4.4350   23.6390 C   0  0  0  0  0  3  0  0  0  0  0  0
  -22.3890   -5.1910   22.4840 C   0  0  0  0  0  0  0  0  0  0  0  0
  -22.8950   -4.5820   21.3850 F   0  0  0  0  0  0  0  0  0  0  0  0
  -21.3080   -4.3280   25.8820 F   0  0  0  0  0  0  0  0  0  0  0  0
  -23.8420  -13.8210   21.7490 C   0  0  0  0  0  0  0  0  0  0  0  0
  -23.2580  -13.0590   22.6670 N   0  0  0  0  0  0  0  0  0  0  0  0
  -23.3740  -14.9160   21.4400 O   0  0  0  0  0  0  0  0  0  0  0  0
  -23.6560  -12.1700   22.9340 H   0  0  0  0  0  0  0  0  0  0  0  0
  -22.4030  -13.3670   23.1080 H   0  0  0  0  0  0  0  0  0  0  0  0
  -26.4040  -15.4590   20.6870 N   0  0  0  0  0  0  0  0  0  0  0  0
  -25.7160  -16.1210   21.0280 H   0  0  0  0  0  0  0  0  0  0  0  0
  -27.1950  -15.9050   20.2420 H   0  0  0  0  0  0  0  0  0  0  0  0
  -29.3700  -19.4370   23.0530 N   0  0  0  0  0  0  0  0  0  0  0  0
  -29.1520  -18.8000   23.8090 H   0  0  0  0  0  0  0  0  0  0  0  0
  -28.6000  -20.0700   22.8890 H   0  0  0  0  0  0  0  0  0  0  0  0
  -28.6860  -21.3040   19.3930 C   0  0  0  0  0  2  0  0  0  0  0  0
  -26.5960  -22.1380   20.5560 C   0  0  0  0  0  1  0  0  0  0  0  0
  -27.0760  -22.8220   18.2160 C   0  0  0  0  0  1  0  0  0  0  0  0
  -27.7290  -22.5110   19.5760 C   0  0  2  0  0  0  0  0  0  0  0  0
  -28.4510  -23.7750   20.1200 C   0  0  0  0  0  2  0  0  0  0  0  0
  -29.2780  -24.5900   19.0950 C   0  0  0  0  0  2  0  0  0  0  0  0
  -29.7940  -25.9460   19.6470 C   0  0  0  0  0  2  0  0  0  0  0  0
  -29.4150  -27.3030   19.3100 O   0  0  0  0  0  0  0  0  0  0  0  0
  -24.7450  -31.1370   23.0260 C   0  0  0  0  0  0  0  0  0  0  0  0
  -28.1090  -27.7570   19.3830 C   0  0  0  0  0  0  0  0  0  0  0  0
  -23.7930  -29.8110   21.1660 C   0  0  0  0  0  3  0  0  0  0  0  0
  -25.4820  -28.7770   19.5660 C   0  0  0  0  0  0  0  0  0  0  0  0
  -26.2100  -30.6350   21.0740 C   0  0  0  0  0  2  0  0  0  0  0  0
  -26.5300  -29.4110   20.2450 C   0  0  0  0  0  0  0  0  0  0  0  0
  -27.8440  -28.9120   20.1480 C   0  0  0  0  0  3  0  0  0  0  0  0
  -27.0450  -27.1220   18.7060 C   0  0  0  0  0  3  0  0  0  0  0  0
  -25.7330  -27.6270   18.7950 C   0  0  0  0  0  3  0  0  0  0  0  0
  -24.1090  -29.3870   19.7060 C   0  0  0  0  0  2  0  0  0  0  0  0
  -24.9320  -30.5370   21.8160 N   0  0  0  0  0  0  0  0  0  0  0  0
  -23.6340  -31.1340   23.5750 O   0  0  0  0  0  0  0  0  0  0  0  0
  -23.3340  -28.5620   21.9500 C   0  0  0  0  0  0  0  0  0  0  0  0
  -22.0730  -28.1540   21.7350 N   0  0  0  0  0  0  0  0  0  0  0  0
  -24.1090  -27.9680   22.7050 O   0  0  0  0  0  0  0  0  0  0  0  0
  -21.5030  -28.6950   21.0980 H   0  0  0  0  0  0  0  0  0  0  0  0
  -18.9870  -26.2860   21.8890 C   0  0  0  0  0  0  0  0  0  0  0  0
  -21.4350  -26.9850   22.3360 C   0  0  0  0  0  3  0  0  0  0  0  0
  -21.8310  -25.6910   21.5900 C   0  0  0  0  0  2  0  0  0  0  0  0
  -20.8490  -25.3160   20.4770 C   0  0  0  0  0  2  0  0  0  0  0  0
  -19.4460  -25.1020   21.0540 C   0  0  0  0  0  2  0  0  0  0  0  0
  -19.9210  -27.1800   22.4750 C   0  0  0  0  0  0  0  0  0  0  0  0
  -19.4430  -28.2870   23.2100 C   0  0  0  0  0  3  0  0  0  0  0  0
  -18.0620  -28.5050   23.3660 C   0  0  0  0  0  3  0  0  0  0  0  0
  -17.1410  -27.6090   22.7980 C   0  0  0  0  0  3  0  0  0  0  0  0
  -17.6040  -26.5000   22.0660 C   0  0  0  0  0  3  0  0  0  0  0  0
  -25.9050  -31.8770   23.7620 C   0  0  0  0  0  3  0  0  0  0  0  0
  -25.3950  -33.1870   24.1870 N   0  0  0  0  0  0  0  0  0  0  0  0
  -25.6190  -34.3370   23.5370 C   0  0  0  0  0  0  0  0  0  0  0  0
  -26.3480  -34.4140   22.5430 O   0  0  0  0  0  0  0  0  0  0  0  0
  -24.7450  -33.1930   24.9600 H   0  0  0  0  0  0  0  0  0  0  0  0
  -23.6850  -35.9120   23.2200 C   0  0  0  0  0  1  0  0  0  0  0  0
  -24.9250  -35.6030   24.0730 C   0  0  0  0  0  3  0  0  0  0  0  0
  -26.8740  -36.6800   25.1080 C   0  0  0  0  0  1  0  0  0  0  0  0
  -25.8110  -36.7860   24.1120 N   0  0  0  0  0  0  0  0  0  0  0  0
  -25.2770  -37.6310   24.3030 H   0  0  0  0  0  0  0  0  0  0  0  0
  -26.4760  -31.0710   24.9930 C   0  0  1  0  0  0  0  0  0  0  0  0
  -25.3890  -30.5880   25.9790 C   0  0  0  0  0  1  0  0  0  0  0  0
  -27.2620  -29.8290   24.5120 C   0  0  0  0  0  1  0  0  0  0  0  0
  -27.4770  -31.9500   25.7790 C   0  0  0  0  0  1  0  0  0  0  0  0
  1 14  1  0
  1  2  1  0
  3 17  1  0
  4  9  1  0
  5  6  1  0
  5  4  1  0
  7  6  1  0
  7 23  1  0
  7  8  1  0
  9  3  1  0
  9  8  1  0
 10  3  2  0
 12 16  1  0
 12 14  1  0
 13 11  1  0
 13 48  1  0
 14 13  2  0
 15 17  1  0
 15 11  2  0
 16 15  1  0
 17 19  1  0
 18 16  1  0
 20 21  2  0
 21 40  1  0
 22 25  1  0
 22 21  1  0
 23 24  1  0
 23 20  1  0
 24 22  2  0
 25 26  1  0
 26 27  2  0
 28 31  1  0
 28 27  1  0
 29 28  2  0
 30 29  1  0
 30 25  2  0
 31 32  1  0
 32 37  2  0
 32 33  1  0
 33 34  2  0
 34 35  1  0
 35 39  1  0
 36 35  2  0
 37 36  1  0
 38 37  1  0
 40 41  1  0
 41 43  1  0
 41 44  1  0
 42 40  2  0
 45 20  1  0
 45 46  1  0
 47 45  1  0
 48 49  1  0
 50 48  1  0
 51 54  1  0
 51  1  1  0
 54 53  1  6
 54 55  1  0
 54 52  1  0
 56 57  1  0
 56 55  1  0
 58 60  1  0
 58 57  1  0
 59 70  2  0
 60 65  1  0
 61 69  1  0
 61 71  1  0
 62 68  1  0
 62 64  1  0
 63 69  1  0
 64 63  1  0
 65 64  2  0
 66 67  1  0
 66 60  2  0
 67 62  2  0
 68 61  1  0
 69 59  1  0
 71 73  2  0
 72 71  1  0
 74 72  1  0
 75 84  2  0
 75 80  1  0
 76 72  1  0
 76 80  1  0
 77 76  1  0
 78 79  1  0
 78 77  1  0
 79 75  1  0
 80 81  2  0
 81 82  1  0
 83 82  2  0
 84 83  1  0
 85 59  1  0
 85 86  1  0
 85 95  1  0
 86 89  1  0
 87 91  1  0
 87 86  1  0
 88 87  2  0
 91 90  1  0
 91 93  1  0
 93 94  1  0
 93 92  1  0
 95 98  1  1
 95 96  1  0
 97 95  1  0
M  ISO  4   3 100  17 100  57 101  58 101
M  END
>  <TORSDO>  (38) 
F 22

>  <SCORE>  (38) 
-5.751

>  <name>  (38) 
37

>  <ligand_id>  (38) 
37

>  <original_smiles>  (38) 
[H]c1c([H])c([H])c2c(c1[H])C([H])([H])C([H])([H])C([H])([H])C2([H])N([H])C(=O)C1([H])N(C(=O)C([H])(N([H])C(=O)C([H])(N([H])C([H])([H])[H])C([H])([H])[H])C(C([H])([H])[H])(C([H])([H])[H])C([H])([H])[H])C([H])([H])c2c([H])c(OC([H])([H])C([H])([H])C([H])([H])C(C([H])([H])[H])(C([H])([H])[H])C([H])([H])N([H])c3c(N([H])[H])c([H])c(N([H])C(=O)N4C([H])([H])C([H])([H])C([H])([H])C([H])(n5nc(-c6c([H])c([H])c(Oc7c([H])c([H])c(F)c([H])c7F)c([H])c6[H])c(C(=O)N([H])[H])c5N([H])[H])C4([H])[H])[n+]([H])c3[H])c([H])c([H])c2C1([H])[H]

>  <smiles>  (38) 
[H]c1c([H])c([H])c2c(c1[H])C([H])([H])C([H])([H])C([H])([H])C2([H])N([H])C(=O)C1([H])N(C(=O)C([H])(N([H])C(=O)C([H])(N([H])C([H])([H])[H])C([H])([H])[H])C(C([H])([H])[H])(C([H])([H])[H])C([H])([H])[H])C([H])([H])c2c([H])c(OC([H])([H])C([H])([H])C([H])([H])C(C([H])([H])[H])(C([H])([H])[H])C([H])([H])N([H])c3c(N([H])[H])c([H])c(N([H])C(=O)N4C([H])([H])C([H])([H])C([H])([H])C([H])(n5nc(-c6c([H])c([H])c(Oc7c([H])c([H])c(F)c([H])c7F)c([H])c6[H])c(C(=O)N([H])[H])c5N([H])[H])C4([H])[H])[n+]([H])c3[H])c([H])c([H])c2C1([H])[H]

$$$$
38:0:0
     RDKit          3D

 94102  0  0  1  0  0  0  0  0999 V2000
  -29.9220  -21.2510   20.4160 C   0  0  0  0  0  0  0  0  0  0  0  0
  -30.7140  -20.1590   20.2820 N   0  0  0  0  0  0  0  0  0  0  0  0
  -28.7840  -21.2040   20.8920 O   0  0  0  0  0  0  0  0  0  0  0  0
  -31.5390  -20.2820   19.7090 H   0  0  0  0  0  0  0  0  0  0  0  0
  -30.9890  -17.7030   20.4320 C   0  0  0  0  0  3  0  0  0  0  0  0
  -30.2100  -17.0710   22.5540 C   0  0  0  0  0  3  0  0  0  0  0  0
  -30.7600  -16.6430   21.3780 C   0  0  0  0  0  0  0  0  0  0  0  0
  -30.5840  -18.9450   20.9010 C   0  0  0  0  0  0  0  0  0  0  0  0
  -29.9380  -18.7820   22.5310 S   0  0  0  0  0  0  0  0  0  0  0  0
  -31.4270  -14.5450   20.1650 C   0  0  0  0  0  0  0  0  0  0  0  0
  -30.9860  -12.4670   18.8820 C   0  0  0  0  0  2  0  0  0  0  0  0
  -29.9380  -12.7290   17.7810 C   0  0  0  0  0  2  0  0  0  0  0  0
  -28.5030  -12.6050   18.3310 C   0  0  0  0  0  2  0  0  0  0  0  0
  -28.3010  -13.4050   19.6430 C   0  0  0  0  0  3  0  0  0  0  0  0
  -29.4310  -13.0810   20.6440 C   0  0  0  0  0  2  0  0  0  0  0  0
  -30.7290  -13.3850   20.0020 N   0  0  0  0  0  0  0  0  0  0  0  0
  -32.3840  -14.8720   19.4530 O   0  0  0  0  0  0  0  0  0  0  0  0
  -31.0400  -15.2510   21.2410 N   0  0  0  0  0  0  0  0  0  0  0  0
  -30.5040  -14.6720   21.8680 H   0  0  0  0  0  0  0  0  0  0  0  0
  -26.0290  -14.0720   20.6630 C   0  0  0  0  0  0  0  0  0  0  0  0
  -24.9460  -13.3280   21.0480 C   0  0  0  0  0  0  0  0  0  0  0  0
  -25.2990  -11.9660   20.8070 C   0  0  0  0  0  0  0  0  0  0  0  0
  -26.9790  -13.1630   20.2210 N   0  0  0  0  0  0  0  0  0  0  0  0
  -26.5460  -11.8840   20.3600 N   0  0  0  0  0  0  0  0  0  0  0  0
  -24.5020  -10.7370   20.9220 C   0  0  0  0  0  0  0  0  0  0  0  0
  -24.8620   -9.7050   21.8180 C   0  0  0  0  0  3  0  0  0  0  0  0
  -24.0710   -8.5420   21.9230 C   0  0  0  0  0  3  0  0  0  0  0  0
  -22.9070   -8.4000   21.1320 C   0  0  0  0  0  0  0  0  0  0  0  0
  -22.5660   -9.4200   20.2270 C   0  0  0  0  0  3  0  0  0  0  0  0
  -23.3560  -10.5760   20.1190 C   0  0  0  0  0  3  0  0  0  0  0  0
  -22.0930   -7.2930   21.1490 O   0  0  0  0  0  0  0  0  0  0  0  0
  -21.8680   -6.5810   22.3000 C   0  0  0  0  0  0  0  0  0  0  0  0
  -21.3320   -7.1870   23.4570 C   0  0  0  0  0  3  0  0  0  0  0  0
  -21.0530   -6.4040   24.5950 C   0  0  0  0  0  3  0  0  0  0  0  0
  -21.3000   -5.0170   24.5760 C   0  0  0  0  0  0  0  0  0  0  0  0
  -21.8270   -4.4130   23.4210 C   0  0  0  0  0  3  0  0  0  0  0  0
  -22.1080   -5.1930   22.2850 C   0  0  0  0  0  0  0  0  0  0  0  0
  -22.5970   -4.6020   21.1690 F   0  0  0  0  0  0  0  0  0  0  0  0
  -21.0240   -4.2640   25.6650 F   0  0  0  0  0  0  0  0  0  0  0  0
  -23.6220  -13.8530   21.5260 C   0  0  0  0  0  0  0  0  0  0  0  0
  -22.9570  -13.1220   22.4140 N   0  0  0  0  0  0  0  0  0  0  0  0
  -23.1910  -14.9410   21.1480 O   0  0  0  0  0  0  0  0  0  0  0  0
  -23.3200  -12.2380   22.7400 H   0  0  0  0  0  0  0  0  0  0  0  0
  -22.0720  -13.4510   22.7720 H   0  0  0  0  0  0  0  0  0  0  0  0
  -26.2800  -15.4410   20.6340 N   0  0  0  0  0  0  0  0  0  0  0  0
  -25.5840  -16.1270   20.9060 H   0  0  0  0  0  0  0  0  0  0  0  0
  -27.1400  -15.8600   20.3020 H   0  0  0  0  0  0  0  0  0  0  0  0
  -30.4650  -22.5990   19.8950 C   0  0  0  0  0  2  0  0  0  0  0  0
  -29.5210  -23.8270   20.1370 C   0  0  0  0  0  2  0  0  0  0  0  0
  -31.2520  -25.4420   21.0540 C   0  0  0  0  0  1  0  0  0  0  0  0
  -30.7790  -25.4280   18.5920 C   0  0  0  0  0  1  0  0  0  0  0  0
  -30.1500  -25.2510   19.9890 C   0  0  1  0  0  0  0  0  0  0  0  0
  -29.0870  -26.3740   20.2190 C   0  0  0  0  0  2  0  0  0  0  0  0
  -28.2350  -26.5360   19.0880 O   0  0  0  0  0  0  0  0  0  0  0  0
  -24.4490  -31.4020   22.7640 C   0  0  0  0  0  0  0  0  0  0  0  0
  -27.0860  -27.2740   19.2700 C   0  0  0  0  0  0  0  0  0  0  0  0
  -23.2120  -30.0810   21.0770 C   0  0  0  0  0  3  0  0  0  0  0  0
  -24.6490  -28.6900   19.4910 C   0  0  0  0  0  0  0  0  0  0  0  0
  -25.7160  -30.5300   20.8040 C   0  0  0  0  0  2  0  0  0  0  0  0
  -25.8140  -29.2060   20.0750 C   0  0  0  0  0  0  0  0  0  0  0  0
  -27.0360  -28.4990   19.9750 C   0  0  0  0  0  3  0  0  0  0  0  0
  -25.9080  -26.7780   18.6770 C   0  0  0  0  0  3  0  0  0  0  0  0
  -24.6890  -27.4710   18.7940 C   0  0  0  0  0  3  0  0  0  0  0  0
  -23.3830  -29.5050   19.6460 C   0  0  0  0  0  2  0  0  0  0  0  0
  -24.4790  -30.6830   21.6070 N   0  0  0  0  0  0  0  0  0  0  0  0
  -23.3850  -31.6020   23.3670 O   0  0  0  0  0  0  0  0  0  0  0  0
  -22.6320  -28.9760   21.9880 C   0  0  0  0  0  0  0  0  0  0  0  0
  -21.3140  -28.7420   21.8830 N   0  0  0  0  0  0  0  0  0  0  0  0
  -23.3640  -28.3340   22.7470 O   0  0  0  0  0  0  0  0  0  0  0  0
  -20.7820  -29.3160   21.2450 H   0  0  0  0  0  0  0  0  0  0  0  0
  -18.0080  -27.3770   22.3950 C   0  0  0  0  0  0  0  0  0  0  0  0
  -20.5610  -27.7240   22.6140 C   0  0  0  0  0  3  0  0  0  0  0  0
  -20.7030  -26.3380   21.9430 C   0  0  0  0  0  2  0  0  0  0  0  0
  -19.5850  -26.0340   20.9410 C   0  0  0  0  0  2  0  0  0  0  0  0
  -18.2170  -26.0810   21.6310 C   0  0  0  0  0  2  0  0  0  0  0  0
  -19.1080  -28.1560   22.8430 C   0  0  0  0  0  0  0  0  0  0  0  0
  -18.8580  -29.3710   23.5190 C   0  0  0  0  0  3  0  0  0  0  0  0
  -17.5400  -29.8070   23.7510 C   0  0  0  0  0  3  0  0  0  0  0  0
  -16.4550  -29.0250   23.3200 C   0  0  0  0  0  3  0  0  0  0  0  0
  -16.6900  -27.8110   22.6480 C   0  0  0  0  0  3  0  0  0  0  0  0
  -25.7440  -32.0260   23.3720 C   0  0  0  0  0  3  0  0  0  0  0  0
  -25.3970  -33.3620   23.8750 N   0  0  0  0  0  0  0  0  0  0  0  0
  -25.6870  -34.5090   23.2480 C   0  0  0  0  0  0  0  0  0  0  0  0
  -26.3460  -34.5550   22.2050 O   0  0  0  0  0  0  0  0  0  0  0  0
  -24.8070  -33.3980   24.6940 H   0  0  0  0  0  0  0  0  0  0  0  0
  -23.9350  -36.3050   23.0900 C   0  0  0  0  0  1  0  0  0  0  0  0
  -25.1610  -35.8140   23.8760 C   0  0  0  0  0  3  0  0  0  0  0  0
  -27.2520  -36.6090   24.8860 C   0  0  0  0  0  1  0  0  0  0  0  0
  -26.1760  -36.8880   23.9380 N   0  0  0  0  0  0  0  0  0  0  0  0
  -25.7490  -37.7730   24.1950 H   0  0  0  0  0  0  0  0  0  0  0  0
  -26.3810  -31.1460   24.5160 C   0  0  1  0  0  0  0  0  0  0  0  0
  -25.3730  -30.7250   25.6090 C   0  0  0  0  0  1  0  0  0  0  0  0
  -27.0090  -29.8600   23.9280 C   0  0  0  0  0  1  0  0  0  0  0  0
  -27.5290  -31.9260   25.1980 C   0  0  0  0  0  1  0  0  0  0  0  0
  1  3  2  0
  2  1  1  0
  2  8  1  0
  4  2  1  0
  5  8  2  0
  5  7  1  0
  7  6  2  0
  8  9  1  0
  9  6  1  0
 10 18  1  0
 11 16  1  0
 12 13  1  0
 12 11  1  0
 14 13  1  0
 14 23  1  0
 14 15  1  0
 16 10  1  0
 16 15  1  0
 17 10  2  0
 18  7  1  0
 18 19  1  0
 20 21  2  0
 21 40  1  0
 22 25  1  0
 22 21  1  0
 23 24  1  0
 23 20  1  0
 24 22  2  0
 25 26  1  0
 26 27  2  0
 28 31  1  0
 28 27  1  0
 29 28  2  0
 30 29  1  0
 30 25  2  0
 31 32  1  0
 32 33  1  0
 33 34  2  0
 35 34  1  0
 35 39  1  0
 36 35  2  0
 37 32  2  0
 37 36  1  0
 38 37  1  0
 40 41  1  0
 41 43  1  0
 41 44  1  0
 42 40  2  0
 45 20  1  0
 45 46  1  0
 47 45  1  0
 48 49  1  0
 48  1  1  0
 52 51  1  6
 52 49  1  0
 52 53  1  0
 52 50  1  0
 54 56  1  0
 54 53  1  0
 55 66  2  0
 56 61  1  0
 57 65  1  0
 57 67  1  0
 58 64  1  0
 58 60  1  0
 59 65  1  0
 60 59  1  0
 61 60  2  0
 62 63  1  0
 62 56  2  0
 63 58  2  0
 64 57  1  0
 65 55  1  0
 67 69  2  0
 68 67  1  0
 70 68  1  0
 71 80  2  0
 71 76  1  0
 72 68  1  0
 72 76  1  0
 73 72  1  0
 74 75  1  0
 74 73  1  0
 75 71  1  0
 76 77  2  0
 77 78  1  0
 79 78  2  0
 80 79  1  0
 81 55  1  0
 81 82  1  0
 81 91  1  0
 82 85  1  0
 83 82  1  0
 83 87  1  0
 84 83  2  0
 87 86  1  0
 87 89  1  0
 89 90  1  0
 89 88  1  0
 91 94  1  1
 91 92  1  0
 93 91  1  0
M  ISO  4  10 100  18 100  53 101  54 101
M  END
>  <TORSDO>  (39) 
F 21

>  <SCORE>  (39) 
-9.955

>  <name>  (39) 
38

>  <ligand_id>  (39) 
38

>  <original_smiles>  (39) 
[H]c1sc(N([H])C(=O)C([H])([H])C([H])([H])C(C([H])([H])[H])(C([H])([H])[H])C([H])([H])Oc2c([H])c([H])c3c(c2[H])C([H])([H])N(C(=O)C([H])(N([H])C(=O)C([H])(N([H])C([H])([H])[H])C([H])([H])[H])C(C([H])([H])[H])(C([H])([H])[H])C([H])([H])[H])C([H])(C(=O)N([H])C2([H])c4c([H])c([H])c([H])c([H])c4C([H])([H])C([H])([H])C2([H])[H])C3([H])[H])c([H])c1N([H])C(=O)N1C([H])([H])C([H])([H])C([H])([H])C([H])(n2nc(-c3c([H])c([H])c(Oc4c([H])c([H])c(F)c([H])c4F)c([H])c3[H])c(C(=O)N([H])[H])c2N([H])[H])C1([H])[H]

>  <smiles>  (39) 
[H]c1sc(N([H])C(=O)C([H])([H])C([H])([H])C(C([H])([H])[H])(C([H])([H])[H])C([H])([H])Oc2c([H])c([H])c3c(c2[H])C([H])([H])N(C(=O)C([H])(N([H])C(=O)C([H])(N([H])C([H])([H])[H])C([H])([H])[H])C(C([H])([H])[H])(C([H])([H])[H])C([H])([H])[H])C([H])(C(=O)N([H])C2([H])c4c([H])c([H])c([H])c([H])c4C([H])([H])C([H])([H])C2([H])[H])C3([H])[H])c([H])c1N([H])C(=O)N1C([H])([H])C([H])([H])C([H])([H])C([H])(n2nc(-c3c([H])c([H])c(Oc4c([H])c([H])c(F)c([H])c4F)c([H])c3[H])c(C(=O)N([H])[H])c2N([H])[H])C1([H])[H]

$$$$
39:0:0
     RDKit          3D

 95103  0  0  1  0  0  0  0  0999 V2000
  -29.2100  -22.0490   20.3060 C   0  0  0  0  0  0  0  0  0  0  0  0
  -29.8940  -20.8770   20.3960 N   0  0  0  0  0  0  0  0  0  0  0  0
  -27.9810  -22.1160   20.3600 O   0  0  0  0  0  0  0  0  0  0  0  0
  -30.8770  -20.9840   20.6030 H   0  0  0  0  0  0  0  0  0  0  0  0
  -29.2040  -16.8910   19.0070 C   0  0  0  0  0  3  0  0  0  0  0  0
  -29.9100  -18.4060   20.7710 C   0  0  0  0  0  3  0  0  0  0  0  0
  -28.7630  -17.9860   18.2410 C   0  0  0  0  0  0  0  0  0  0  0  0
  -29.7630  -17.0700   20.2890 C   0  0  0  0  0  0  0  0  0  0  0  0
  -29.5140  -19.5400   19.9930 C   0  0  0  0  0  0  0  0  0  0  0  0
  -28.9060  -19.3110   18.7280 C   0  0  0  0  0  0  0  0  0  0  0  0
  -28.1710  -17.6980   16.8710 C   0  0  0  0  0  1  0  0  0  0  0  0
  -30.8310  -14.8490   20.5900 C   0  0  0  0  0  0  0  0  0  0  0  0
  -30.5630  -12.6820   19.4290 C   0  0  0  0  0  2  0  0  0  0  0  0
  -29.6390  -12.8540   18.2050 C   0  0  0  0  0  2  0  0  0  0  0  0
  -28.1630  -12.6890   18.6130 C   0  0  0  0  0  2  0  0  0  0  0  0
  -27.7860  -13.5150   19.8730 C   0  0  0  0  0  3  0  0  0  0  0  0
  -28.8320  -13.3490   20.9960 C   0  0  0  0  0  2  0  0  0  0  0  0
  -30.1520  -13.6740   20.4360 N   0  0  0  0  0  0  0  0  0  0  0  0
  -31.9870  -14.9940   20.1880 O   0  0  0  0  0  0  0  0  0  0  0  0
  -30.1540  -15.9200   21.0720 N   0  0  0  0  0  0  0  0  0  0  0  0
  -30.4220  -16.1390   22.0200 H   0  0  0  0  0  0  0  0  0  0  0  0
  -25.3670  -14.0790   20.5340 C   0  0  0  0  0  0  0  0  0  0  0  0
  -24.3060  -13.2870   20.8760 C   0  0  0  0  0  0  0  0  0  0  0  0
  -24.7910  -11.9430   20.8570 C   0  0  0  0  0  0  0  0  0  0  0  0
  -26.4330  -13.2150   20.3290 N   0  0  0  0  0  0  0  0  0  0  0  0
  -26.0890  -11.9260   20.5810 N   0  0  0  0  0  0  0  0  0  0  0  0
  -24.0820  -10.6680   21.0290 C   0  0  0  0  0  0  0  0  0  0  0  0
  -24.4970   -9.7140   21.9840 C   0  0  0  0  0  3  0  0  0  0  0  0
  -23.7890   -8.5040   22.1410 C   0  0  0  0  0  3  0  0  0  0  0  0
  -22.6510   -8.2390   21.3440 C   0  0  0  0  0  0  0  0  0  0  0  0
  -22.2540   -9.1810   20.3800 C   0  0  0  0  0  3  0  0  0  0  0  0
  -22.9640  -10.3840   20.2190 C   0  0  0  0  0  3  0  0  0  0  0  0
  -21.9150   -7.0800   21.4130 O   0  0  0  0  0  0  0  0  0  0  0  0
  -21.8250   -6.3510   22.5720 C   0  0  0  0  0  0  0  0  0  0  0  0
  -21.3040   -6.9050   23.7630 C   0  0  0  0  0  3  0  0  0  0  0  0
  -21.1640   -6.1000   24.9110 C   0  0  0  0  0  3  0  0  0  0  0  0
  -21.5370   -4.7440   24.8710 C   0  0  0  0  0  0  0  0  0  0  0  0
  -22.0510   -4.1890   23.6850 C   0  0  0  0  0  3  0  0  0  0  0  0
  -22.1910   -4.9910   22.5390 C   0  0  0  0  0  0  0  0  0  0  0  0
  -22.6680   -4.4460   21.3940 F   0  0  0  0  0  0  0  0  0  0  0  0
  -21.3960   -3.9680   25.9710 F   0  0  0  0  0  0  0  0  0  0  0  0
  -22.8930  -13.7390   21.1150 C   0  0  0  0  0  0  0  0  0  0  0  0
  -22.1600  -13.0360   21.9710 N   0  0  0  0  0  0  0  0  0  0  0  0
  -22.4480  -14.7520   20.5780 O   0  0  0  0  0  0  0  0  0  0  0  0
  -22.5300  -12.2180   22.4310 H   0  0  0  0  0  0  0  0  0  0  0  0
  -21.2130  -13.3240   22.1710 H   0  0  0  0  0  0  0  0  0  0  0  0
  -25.5130  -15.4530   20.3590 N   0  0  0  0  0  0  0  0  0  0  0  0
  -24.7360  -16.0980   20.4510 H   0  0  0  0  0  0  0  0  0  0  0  0
  -26.3760  -15.9060   20.0870 H   0  0  0  0  0  0  0  0  0  0  0  0
  -27.1400  -20.5680   17.8170 C   0  0  0  0  0  1  0  0  0  0  0  0
  -28.5460  -20.3740   17.9350 O   0  0  0  0  0  0  0  0  0  0  0  0
  -30.0480  -23.3490   20.1710 C   0  0  0  0  0  2  0  0  0  0  0  0
  -29.5340  -24.6950   20.7940 C   0  0  0  0  0  2  0  0  0  0  0  0
  -28.4180  -25.4930   20.0580 C   0  0  0  0  0  2  0  0  0  0  0  0
  -28.4530  -26.9090   20.3880 O   0  0  0  0  0  0  0  0  0  0  0  0
  -24.5950  -32.1100   23.4190 C   0  0  0  0  0  0  0  0  0  0  0  0
  -27.2820  -27.6580   20.3370 C   0  0  0  0  0  0  0  0  0  0  0  0
  -23.4080  -30.6970   21.7720 C   0  0  0  0  0  3  0  0  0  0  0  0
  -24.8810  -29.1820   20.3380 C   0  0  0  0  0  0  0  0  0  0  0  0
  -25.9350  -31.0690   21.5880 C   0  0  0  0  0  2  0  0  0  0  0  0
  -26.0340  -29.7010   20.9370 C   0  0  0  0  0  0  0  0  0  0  0  0
  -27.2360  -28.9470   20.9310 C   0  0  0  0  0  3  0  0  0  0  0  0
  -26.1080  -27.1750   19.7110 C   0  0  0  0  0  3  0  0  0  0  0  0
  -24.9160  -27.9230   19.7180 C   0  0  0  0  0  3  0  0  0  0  0  0
  -23.6290  -30.0320   20.3880 C   0  0  0  0  0  2  0  0  0  0  0  0
  -24.6640  -31.3080   22.3180 N   0  0  0  0  0  0  0  0  0  0  0  0
  -23.5080  -32.3710   23.9540 O   0  0  0  0  0  0  0  0  0  0  0  0
  -22.7630  -29.6670   22.7280 C   0  0  0  0  0  0  0  0  0  0  0  0
  -21.4520  -29.4250   22.5560 N   0  0  0  0  0  0  0  0  0  0  0  0
  -23.4400  -29.0870   23.5800 O   0  0  0  0  0  0  0  0  0  0  0  0
  -20.9640  -29.9480   21.8430 H   0  0  0  0  0  0  0  0  0  0  0  0
  -18.1250  -28.0650   22.9240 C   0  0  0  0  0  0  0  0  0  0  0  0
  -20.6490  -28.4660   23.3130 C   0  0  0  0  0  3  0  0  0  0  0  0
  -20.8560  -27.0260   22.7880 C   0  0  0  0  0  2  0  0  0  0  0  0
  -19.8260  -26.6160   21.7310 C   0  0  0  0  0  2  0  0  0  0  0  0
  -18.4070  -26.7070   22.3020 C   0  0  0  0  0  2  0  0  0  0  0  0
  -19.1790  -28.8970   23.3860 C   0  0  0  0  0  0  0  0  0  0  0  0
  -18.8640  -30.1640   23.9230 C   0  0  0  0  0  3  0  0  0  0  0  0
  -17.5280  -30.5990   24.0110 C   0  0  0  0  0  3  0  0  0  0  0  0
  -16.4870  -29.7640   23.5690 C   0  0  0  0  0  3  0  0  0  0  0  0
  -16.7870  -28.5000   23.0290 C   0  0  0  0  0  3  0  0  0  0  0  0
  -25.8730  -32.7540   24.0410 C   0  0  0  0  0  3  0  0  0  0  0  0
  -25.5720  -34.1670   24.3070 N   0  0  0  0  0  0  0  0  0  0  0  0
  -25.9330  -35.1850   23.5140 C   0  0  0  0  0  0  0  0  0  0  0  0
  -26.6260  -35.0340   22.5050 O   0  0  0  0  0  0  0  0  0  0  0  0
  -24.9640  -34.3610   25.0880 H   0  0  0  0  0  0  0  0  0  0  0  0
  -24.2360  -36.9790   23.0440 C   0  0  0  0  0  1  0  0  0  0  0  0
  -25.4490  -36.5930   23.9050 C   0  0  0  0  0  3  0  0  0  0  0  0
  -27.5640  -37.4940   24.7680 C   0  0  0  0  0  1  0  0  0  0  0  0
  -26.4940  -37.6310   23.7840 N   0  0  0  0  0  0  0  0  0  0  0  0
  -26.0930  -38.5600   23.8830 H   0  0  0  0  0  0  0  0  0  0  0  0
  -26.3590  -32.0300   25.3570 C   0  0  1  0  0  0  0  0  0  0  0  0
  -25.2400  -31.8270   26.4040 C   0  0  0  0  0  1  0  0  0  0  0  0
  -26.9520  -30.6410   25.0300 C   0  0  0  0  0  1  0  0  0  0  0  0
  -27.4880  -32.8500   26.0250 C   0  0  0  0  0  1  0  0  0  0  0  0
  1  3  2  0
  1  2  1  0
  2  4  1  0
  5  8  1  0
  7 10  1  0
  7  5  2  0
  8  6  2  0
  8 20  1  0
  9  2  1  0
  9  6  1  0
 10  9  2  0
 11  7  1  0
 12 20  1  0
 13 18  1  0
 14 15  1  0
 14 13  1  0
 16 15  1  0
 16 25  1  0
 16 17  1  0
 18 12  1  0
 18 17  1  0
 19 12  2  0
 20 21  1  0
 22 23  2  0
 23 42  1  0
 24 23  1  0
 24 27  1  0
 25 22  1  0
 25 26  1  0
 26 24  2  0
 27 28  1  0
 28 29  2  0
 30 33  1  0
 30 29  1  0
 31 30  2  0
 32 31  1  0
 32 27  2  0
 33 34  1  0
 34 35  1  0
 35 36  2  0
 37 36  1  0
 37 41  1  0
 38 37  2  0
 39 34  2  0
 39 38  1  0
 40 39  1  0
 42 43  1  0
 43 46  1  0
 43 45  1  0
 44 42  2  0
 47 48  1  0
 47 22  1  0
 49 47  1  0
 50 51  1  0
 51 10  1  0
 52  1  1  0
 52 53  1  0
 54 55  1  0
 54 53  1  0
 56 67  2  0
 57 55  1  0
 57 62  1  0
 58 66  1  0
 58 68  1  0
 59 65  1  0
 59 61  1  0
 60 66  1  0
 61 60  1  0
 62 61  2  0
 63 64  1  0
 63 57  2  0
 64 59  2  0
 65 58  1  0
 66 56  1  0
 68 70  2  0
 69 68  1  0
 71 69  1  0
 72 81  2  0
 72 77  1  0
 73 69  1  0
 73 77  1  0
 74 73  1  0
 75 76  1  0
 75 74  1  0
 76 72  1  0
 77 78  2  0
 78 79  1  0
 80 79  2  0
 81 80  1  0
 82 56  1  0
 82 83  1  0
 82 92  1  0
 83 86  1  0
 84 88  1  0
 84 83  1  0
 85 84  2  0
 88 87  1  0
 90 91  1  0
 90 88  1  0
 90 89  1  0
 92 95  1  1
 92 93  1  0
 94 92  1  0
M  ISO  4  12 100  20 100  54 101  55 101
M  END
>  <TORSDO>  (40) 
F 21

>  <SCORE>  (40) 
-12.611

>  <name>  (40) 
39

>  <ligand_id>  (40) 
39

>  <original_smiles>  (40) 
[H]c1c([H])c([H])c2c(c1[H])C([H])([H])C([H])([H])C([H])([H])C2([H])N([H])C(=O)C1([H])N(C(=O)C([H])(N([H])C(=O)C([H])(N([H])C([H])([H])[H])C([H])([H])[H])C(C([H])([H])[H])(C([H])([H])[H])C([H])([H])[H])C([H])([H])c2c([H])c(OC([H])([H])C([H])([H])C([H])([H])C(=O)N([H])c3c([H])c(N([H])C(=O)N4C([H])([H])C([H])([H])C([H])([H])C([H])(n5nc(-c6c([H])c([H])c(Oc7c([H])c([H])c(F)c([H])c7F)c([H])c6[H])c(C(=O)N([H])[H])c5N([H])[H])C4([H])[H])c([H])c(C([H])([H])[H])c3OC([H])([H])[H])c([H])c([H])c2C1([H])[H]

>  <smiles>  (40) 
[H]c1c([H])c([H])c2c(c1[H])C([H])([H])C([H])([H])C([H])([H])C2([H])N([H])C(=O)C1([H])N(C(=O)C([H])(N([H])C(=O)C([H])(N([H])C([H])([H])[H])C([H])([H])[H])C(C([H])([H])[H])(C([H])([H])[H])C([H])([H])[H])C([H])([H])c2c([H])c(OC([H])([H])C([H])([H])C([H])([H])C(=O)N([H])c3c([H])c(N([H])C(=O)N4C([H])([H])C([H])([H])C([H])([H])C([H])(n5nc(-c6c([H])c([H])c(Oc7c([H])c([H])c(F)c([H])c7F)c([H])c6[H])c(C(=O)N([H])[H])c5N([H])[H])C4([H])[H])c([H])c(C([H])([H])[H])c3OC([H])([H])[H])c([H])c([H])c2C1([H])[H]

$$$$
40:0:0
     RDKit          3D

106116  0  0  1  0  0  0  0  0999 V2000
  -29.4220  -22.5860   15.9440 C   0  0  0  0  0  3  0  0  0  0  0  0
  -29.8200  -23.1840   17.1770 C   0  0  0  0  0  3  0  0  0  0  0  0
  -30.1070  -20.9990   18.3880 C   0  0  0  0  0  3  0  0  0  0  0  0
  -29.3950  -21.1960   16.0020 C   0  0  0  0  0  0  0  0  0  0  0  0
  -29.7080  -20.4420   17.1720 C   0  0  0  0  0  0  0  0  0  0  0  0
  -30.1350  -22.4270   18.3680 C   0  0  0  0  0  0  0  0  0  0  0  0
  -29.0310  -19.9830   15.2470 C   0  0  0  0  0  0  0  0  0  0  0  0
  -28.8820  -18.0860   16.9980 C   0  0  0  0  0  3  0  0  0  0  0  0
  -29.3690  -19.2230   16.4610 N   0  0  0  0  0  0  0  0  0  0  0  0
  -27.9580  -17.3340   16.3880 N   0  0  0  0  0  0  0  0  0  0  0  0
  -28.1950  -19.7370   14.3960 O   0  0  0  0  0  0  0  0  0  0  0  0
  -27.7000  -16.4460   16.7940 H   0  0  0  0  0  0  0  0  0  0  0  0
  -27.5830  -17.5870   15.4880 H   0  0  0  0  0  0  0  0  0  0  0  0
  -28.6100  -17.5420   19.4280 C   0  0  0  0  0  3  0  0  0  0  0  0
  -29.1160  -16.9410   20.5980 C   0  0  0  0  0  3  0  0  0  0  0  0
  -30.7520  -17.1810   18.3290 C   0  0  0  0  0  3  0  0  0  0  0  0
  -29.4150  -17.6130   18.2730 C   0  0  0  0  0  0  0  0  0  0  0  0
  -30.4040  -16.3590   20.6070 C   0  0  0  0  0  0  0  0  0  0  0  0
  -31.2540  -16.5640   19.4850 C   0  0  0  0  0  0  0  0  0  0  0  0
  -32.5400  -16.1510   19.4570 F   0  0  0  0  0  0  0  0  0  0  0  0
  -31.4630  -14.4050   21.5340 C   0  0  0  0  0  0  0  0  0  0  0  0
  -31.2490  -12.2030   20.4810 C   0  0  0  0  0  2  0  0  0  0  0  0
  -30.5160  -12.3710   19.1320 C   0  0  0  0  0  2  0  0  0  0  0  0
  -28.9900  -12.2810   19.3330 C   0  0  0  0  0  2  0  0  0  0  0  0
  -28.4810  -13.1950   20.4800 C   0  0  0  0  0  3  0  0  0  0  0  0
  -29.3490  -13.0400   21.7520 C   0  0  0  0  0  2  0  0  0  0  0  0
  -30.7580  -13.2540   21.3820 N   0  0  0  0  0  0  0  0  0  0  0  0
  -32.6730  -14.4840   21.3280 O   0  0  0  0  0  0  0  0  0  0  0  0
  -30.7230  -15.5100   21.7060 N   0  0  0  0  0  0  0  0  0  0  0  0
  -29.9280  -15.3420   22.3010 H   0  0  0  0  0  0  0  0  0  0  0  0
  -26.0260  -13.8930   20.8310 C   0  0  0  0  0  0  0  0  0  0  0  0
  -24.8890  -13.1640   21.0420 C   0  0  0  0  0  0  0  0  0  0  0  0
  -25.3000  -11.7950   21.0680 C   0  0  0  0  0  0  0  0  0  0  0  0
  -27.0630  -12.9750   20.7550 N   0  0  0  0  0  0  0  0  0  0  0  0
  -26.6190  -11.7070   20.9510 N   0  0  0  0  0  0  0  0  0  0  0  0
  -24.5080  -10.5620   21.1380 C   0  0  0  0  0  0  0  0  0  0  0  0
  -24.6660   -9.6450   22.2000 C   0  0  0  0  0  3  0  0  0  0  0  0
  -23.8790   -8.4740   22.2550 C   0  0  0  0  0  3  0  0  0  0  0  0
  -22.9230   -8.2130   21.2450 C   0  0  0  0  0  0  0  0  0  0  0  0
  -22.7870   -9.1190   20.1780 C   0  0  0  0  0  3  0  0  0  0  0  0
  -23.5740  -10.2810   20.1220 C   0  0  0  0  0  3  0  0  0  0  0  0
  -22.1360   -7.0880   21.2020 O   0  0  0  0  0  0  0  0  0  0  0  0
  -21.6200   -6.5280   22.3440 C   0  0  0  0  0  0  0  0  0  0  0  0
  -20.7520   -7.2430   23.1970 C   0  0  0  0  0  3  0  0  0  0  0  0
  -20.1890   -6.6070   24.3210 C   0  0  0  0  0  3  0  0  0  0  0  0
  -20.4850   -5.2570   24.5880 C   0  0  0  0  0  0  0  0  0  0  0  0
  -21.3450   -4.5420   23.7370 C   0  0  0  0  0  3  0  0  0  0  0  0
  -21.9080   -5.1760   22.6150 C   0  0  0  0  0  0  0  0  0  0  0  0
  -22.7200   -4.4780   21.7870 F   0  0  0  0  0  0  0  0  0  0  0  0
  -19.9380   -4.6420   25.6640 F   0  0  0  0  0  0  0  0  0  0  0  0
  -23.4870  -13.6960   21.1110 C   0  0  0  0  0  0  0  0  0  0  0  0
  -22.6270  -13.0530   21.8920 N   0  0  0  0  0  0  0  0  0  0  0  0
  -23.1590  -14.7170   20.5080 O   0  0  0  0  0  0  0  0  0  0  0  0
  -22.9020  -12.2310   22.4080 H   0  0  0  0  0  0  0  0  0  0  0  0
  -21.6800  -13.3950   21.9800 H   0  0  0  0  0  0  0  0  0  0  0  0
  -26.2550  -15.2540   20.6720 N   0  0  0  0  0  0  0  0  0  0  0  0
  -25.4810  -15.9050   20.6090 H   0  0  0  0  0  0  0  0  0  0  0  0
  -27.1270  -15.6330   20.3340 H   0  0  0  0  0  0  0  0  0  0  0  0
  -30.4370  -23.0920   19.5640 N   0  0  0  0  0  0  0  0  0  0  0  0
  -30.7790  -22.5060   20.3200 H   0  0  0  0  0  0  0  0  0  0  0  0
  -29.4080  -24.0410   19.9790 C   0  0  0  0  0  2  0  0  0  0  0  0
  -29.6110  -23.5660   22.4670 C   0  0  0  0  0  1  0  0  0  0  0  0
  -30.9770  -25.4160   21.4330 C   0  0  0  0  0  1  0  0  0  0  0  0
  -29.6350  -24.6580   21.3790 C   0  0  1  0  0  0  0  0  0  0  0  0
  -28.4800  -25.6470   21.6540 C   0  0  0  0  0  2  0  0  0  0  0  0
  -28.3490  -26.5310   20.5470 O   0  0  0  0  0  0  0  0  0  0  0  0
  -24.6410  -31.7560   23.5690 C   0  0  0  0  0  0  0  0  0  0  0  0
  -27.1920  -27.2560   20.5620 C   0  0  0  0  0  0  0  0  0  0  0  0
  -23.4030  -30.3620   21.9400 C   0  0  0  0  0  3  0  0  0  0  0  0
  -24.8240  -28.7720   20.5440 C   0  0  0  0  0  0  0  0  0  0  0  0
  -25.9300  -30.6730   21.7390 C   0  0  0  0  0  2  0  0  0  0  0  0
  -25.9860  -29.2930   21.1270 C   0  0  0  0  0  0  0  0  0  0  0  0
  -27.1760  -28.5390   21.1360 C   0  0  0  0  0  3  0  0  0  0  0  0
  -26.0210  -26.7320   19.9770 C   0  0  0  0  0  3  0  0  0  0  0  0
  -24.8320  -27.4870   19.9680 C   0  0  0  0  0  3  0  0  0  0  0  0
  -23.5980  -29.6550   20.5720 C   0  0  0  0  0  2  0  0  0  0  0  0
  -24.6760  -30.9450   22.4760 N   0  0  0  0  0  0  0  0  0  0  0  0
  -23.5670  -32.0630   24.1030 O   0  0  0  0  0  0  0  0  0  0  0  0
  -22.7250  -29.3720   22.9120 C   0  0  0  0  0  0  0  0  0  0  0  0
  -21.4310  -29.1010   22.6800 N   0  0  0  0  0  0  0  0  0  0  0  0
  -23.3630  -28.8460   23.8270 O   0  0  0  0  0  0  0  0  0  0  0  0
  -20.9780  -29.5790   21.9140 H   0  0  0  0  0  0  0  0  0  0  0  0
  -18.1360  -27.6340   22.8620 C   0  0  0  0  0  0  0  0  0  0  0  0
  -20.5970  -28.1720   23.4390 C   0  0  0  0  0  3  0  0  0  0  0  0
  -20.9020  -26.7070   23.0510 C   0  0  0  0  0  2  0  0  0  0  0  0
  -19.9870  -26.1730   21.9450 C   0  0  0  0  0  2  0  0  0  0  0  0
  -18.5200  -26.2460   22.3790 C   0  0  0  0  0  2  0  0  0  0  0  0
  -19.1130  -28.5440   23.3450 C   0  0  0  0  0  0  0  0  0  0  0  0
  -18.7070  -29.8340   23.7480 C   0  0  0  0  0  3  0  0  0  0  0  0
  -17.3540  -30.2190   23.6780 C   0  0  0  0  0  3  0  0  0  0  0  0
  -16.3900  -29.3080   23.2140 C   0  0  0  0  0  3  0  0  0  0  0  0
  -16.7800  -28.0190   22.8110 C   0  0  0  0  0  3  0  0  0  0  0  0
  -25.9430  -32.3590   24.1850 C   0  0  0  0  0  3  0  0  0  0  0  0
  -25.7050  -33.7900   24.4110 N   0  0  0  0  0  0  0  0  0  0  0  0
  -26.1630  -34.7700   23.6200 C   0  0  0  0  0  0  0  0  0  0  0  0
  -26.9020  -34.5610   22.6540 O   0  0  0  0  0  0  0  0  0  0  0  0
  -25.0640  -34.0310   25.1530 H   0  0  0  0  0  0  0  0  0  0  0  0
  -24.6120  -36.6480   23.0020 C   0  0  0  0  0  1  0  0  0  0  0  0
  -25.7330  -36.2100   23.9560 C   0  0  0  0  0  3  0  0  0  0  0  0
  -27.8360  -36.9930   24.9530 C   0  0  0  0  0  1  0  0  0  0  0  0
  -26.8460  -37.1840   23.8980 N   0  0  0  0  0  0  0  0  0  0  0  0
  -26.4950  -38.1360   23.9630 H   0  0  0  0  0  0  0  0  0  0  0  0
  -26.3880  -31.6460   25.5210 C   0  0  1  0  0  0  0  0  0  0  0  0
  -25.2490  -31.5050   26.5570 C   0  0  0  0  0  1  0  0  0  0  0  0
  -26.9380  -30.2310   25.2260 C   0  0  0  0  0  1  0  0  0  0  0  0
  -27.5420  -32.4390   26.1800 C   0  0  0  0  0  1  0  0  0  0  0  0
  1  4  2  0
  1  2  1  0
  2  6  2  0
  4  5  1  0
  5  3  2  0
  6  3  1  0
  6 59  1  0
  7  4  1  0
  7  9  1  0
  8 10  1  0
  8 17  1  0
  9  8  1  0
  9  5  1  0
 10 12  1  0
 11  7  2  0
 13 10  1  0
 14 15  1  0
 15 18  2  0
 16 19  2  0
 17 16  1  0
 17 14  2  0
 18 29  1  0
 19 18  1  0
 20 19  1  0
 21 29  1  0
 22 27  1  0
 23 24  1  0
 23 22  1  0
 25 24  1  0
 25 34  1  0
 25 26  1  0
 27 21  1  0
 27 26  1  0
 28 21  2  0
 29 30  1  0
 31 32  2  0
 32 33  1  0
 32 51  1  0
 33 36  1  0
 34 31  1  0
 34 35  1  0
 35 33  2  0
 36 37  1  0
 37 38  2  0
 39 38  1  0
 40 39  2  0
 41 40  1  0
 41 36  2  0
 42 39  1  0
 42 43  1  0
 43 48  2  0
 43 44  1  0
 44 45  2  0
 45 46  1  0
 46 50  1  0
 47 46  2  0
 48 47  1  0
 49 48  1  0
 51 52  1  0
 52 55  1  0
 52 54  1  0
 53 51  2  0
 56 31  1  0
 57 56  1  0
 58 56  1  0
 59 61  1  0
 59 60  1  0
 61 64  1  0
 64 63  1  6
 64 65  1  0
 64 62  1  0
 66 68  1  0
 66 65  1  0
 67 78  2  0
 68 73  1  0
 69 77  1  0
 69 79  1  0
 70 76  1  0
 70 72  1  0
 71 77  1  0
 72 73  2  0
 72 71  1  0
 74 68  2  0
 75 74  1  0
 75 70  2  0
 76 69  1  0
 77 67  1  0
 79 81  2  0
 80 79  1  0
 82 80  1  0
 83 88  1  0
 84 80  1  0
 85 84  1  0
 86 87  1  0
 86 85  1  0
 87 83  1  0
 88 84  1  0
 88 89  2  0
 90 89  1  0
 91 90  2  0
 92 83  2  0
 92 91  1  0
 93 67  1  0
 93 94  1  0
 93103  1  0
 94 97  1  0
 95 99  1  0
 95 94  1  0
 96 95  2  0
 99 98  1  0
101 99  1  0
101102  1  0
101100  1  0
103106  1  1
103104  1  0
105103  1  0
M  ISO  4  21 100  29 100  65 101  66 101
M  END
>  <TORSDO>  (41) 
F 21

>  <SCORE>  (41) 
-7.685

>  <name>  (41) 
40

>  <ligand_id>  (41) 
40

>  <original_smiles>  (41) 
[H]c1c([H])c([H])c2c(c1[H])C([H])([H])C([H])([H])C([H])([H])C2([H])N([H])C(=O)C1([H])N(C(=O)C([H])(N([H])C(=O)C([H])(N([H])C([H])([H])[H])C([H])([H])[H])C(C([H])([H])[H])(C([H])([H])[H])C([H])([H])[H])C([H])([H])c2c([H])c(OC([H])([H])C(C([H])([H])[H])(C([H])([H])[H])C([H])([H])N([H])c3c([H])c([H])c4c(c3[H])N(C(c3c([H])c([H])c(N([H])C(=O)N5C([H])([H])C([H])([H])C([H])([H])C([H])(n6nc(-c7c([H])c([H])c(Oc8c([H])c([H])c(F)c([H])c8F)c([H])c7[H])c(C(=O)N([H])[H])c6N([H])[H])C5([H])[H])c(F)c3[H])=[N+]([H])[H])C4=O)c([H])c([H])c2C1([H])[H]

>  <smiles>  (41) 
[H]c1c([H])c([H])c2c(c1[H])C([H])([H])C([H])([H])C([H])([H])C2([H])N([H])C(=O)C1([H])N(C(=O)C([H])(N([H])C(=O)C([H])(N([H])C([H])([H])[H])C([H])([H])[H])C(C([H])([H])[H])(C([H])([H])[H])C([H])([H])[H])C([H])([H])c2c([H])c(OC([H])([H])C(C([H])([H])[H])(C([H])([H])[H])C([H])([H])N([H])c3c([H])c([H])c4c(c3[H])N(C(c3c([H])c([H])c(N([H])C(=O)N5C([H])([H])C([H])([H])C([H])([H])C([H])(n6nc(-c7c([H])c([H])c(Oc8c([H])c([H])c(F)c([H])c8F)c([H])c7[H])c(C(=O)N([H])[H])c6N([H])[H])C5([H])[H])c(F)c3[H])=[N+]([H])[H])C4=O)c([H])c([H])c2C1([H])[H]

$$$$
41:0:0
     RDKit          3D

 94102  0  0  1  0  0  0  0  0999 V2000
  -29.5290  -21.7560   19.8090 C   0  0  0  0  0  2  0  0  0  0  0  0
  -27.4050  -22.5590   21.0510 C   0  0  0  0  0  1  0  0  0  0  0  0
  -29.6640  -22.7060   22.1450 C   0  0  0  0  0  1  0  0  0  0  0  0
  -28.9150  -22.8190   20.8000 C   0  0  1  0  0  0  0  0  0  0  0  0
  -29.0850  -24.2710   20.2350 C   0  0  0  0  0  0  0  0  0  0  0  0
  -29.8720  -24.5010   19.3090 O   0  0  0  0  0  0  0  0  0  0  0  0
  -28.2820  -25.4310   20.8880 C   0  0  0  0  0  2  0  0  0  0  0  0
  -28.4470  -26.7060   20.2270 O   0  0  0  0  0  0  0  0  0  0  0  0
  -24.5990  -31.9150   23.2380 C   0  0  0  0  0  0  0  0  0  0  0  0
  -27.2950  -27.4670   20.2010 C   0  0  0  0  0  0  0  0  0  0  0  0
  -23.4160  -30.4990   21.5910 C   0  0  0  0  0  3  0  0  0  0  0  0
  -24.8920  -28.9640   20.1850 C   0  0  0  0  0  0  0  0  0  0  0  0
  -25.9420  -30.8700   21.4130 C   0  0  0  0  0  2  0  0  0  0  0  0
  -26.0430  -29.4960   20.7800 C   0  0  0  0  0  0  0  0  0  0  0  0
  -27.2500  -28.7560   20.7820 C   0  0  0  0  0  3  0  0  0  0  0  0
  -26.1310  -26.9590   19.5850 C   0  0  0  0  0  3  0  0  0  0  0  0
  -24.9320  -27.6940   19.5840 C   0  0  0  0  0  3  0  0  0  0  0  0
  -23.6420  -29.8140   20.2170 C   0  0  0  0  0  2  0  0  0  0  0  0
  -24.6700  -31.1090   22.1400 N   0  0  0  0  0  0  0  0  0  0  0  0
  -23.5090  -32.1830   23.7660 O   0  0  0  0  0  0  0  0  0  0  0  0
  -22.7590  -29.4810   22.5500 C   0  0  0  0  0  0  0  0  0  0  0  0
  -21.4350  -29.2960   22.4140 N   0  0  0  0  0  0  0  0  0  0  0  0
  -23.4370  -28.8600   23.3730 O   0  0  0  0  0  0  0  0  0  0  0  0
  -20.9480  -29.8480   21.7210 H   0  0  0  0  0  0  0  0  0  0  0  0
  -18.0580  -28.1010   22.8930 C   0  0  0  0  0  0  0  0  0  0  0  0
  -20.6140  -28.3560   23.1800 C   0  0  0  0  0  3  0  0  0  0  0  0
  -20.7200  -26.9260   22.6020 C   0  0  0  0  0  2  0  0  0  0  0  0
  -19.6220  -26.6050   21.5830 C   0  0  0  0  0  2  0  0  0  0  0  0
  -18.2370  -26.7520   22.2190 C   0  0  0  0  0  2  0  0  0  0  0  0
  -19.1750  -28.8600   23.3310 C   0  0  0  0  0  0  0  0  0  0  0  0
  -18.9530  -30.1240   23.9190 C   0  0  0  0  0  3  0  0  0  0  0  0
  -17.6460  -30.6250   24.0800 C   0  0  0  0  0  3  0  0  0  0  0  0
  -16.5440  -29.8590   23.6610 C   0  0  0  0  0  3  0  0  0  0  0  0
  -16.7510  -28.5990   23.0720 C   0  0  0  0  0  3  0  0  0  0  0  0
  -25.8720  -32.5550   23.8690 C   0  0  0  0  0  3  0  0  0  0  0  0
  -25.5550  -33.9530   24.1880 N   0  0  0  0  0  0  0  0  0  0  0  0
  -25.9000  -35.0020   23.4290 C   0  0  0  0  0  0  0  0  0  0  0  0
  -26.5870  -34.8950   22.4110 O   0  0  0  0  0  0  0  0  0  0  0  0
  -24.9490  -34.1120   24.9790 H   0  0  0  0  0  0  0  0  0  0  0  0
  -24.1810  -36.7920   23.0280 C   0  0  0  0  0  1  0  0  0  0  0  0
  -25.4010  -36.3920   23.8720 C   0  0  0  0  0  3  0  0  0  0  0  0
  -27.5140  -37.2780   24.7540 C   0  0  0  0  0  1  0  0  0  0  0  0
  -26.4360  -37.4450   23.7810 N   0  0  0  0  0  0  0  0  0  0  0  0
  -26.0270  -38.3650   23.9160 H   0  0  0  0  0  0  0  0  0  0  0  0
  -26.3810  -31.7930   25.1540 C   0  0  1  0  0  0  0  0  0  0  0  0
  -25.2790  -31.5530   26.2110 C   0  0  0  0  0  1  0  0  0  0  0  0
  -26.9750  -30.4180   24.7680 C   0  0  0  0  0  1  0  0  0  0  0  0
  -27.5220  -32.5960   25.8230 C   0  0  0  0  0  1  0  0  0  0  0  0
  -29.0640  -20.2790   19.9290 C   0  0  0  0  0  0  0  0  0  0  0  0
  -27.9500  -19.9850   19.4780 O   0  0  0  0  0  0  0  0  0  0  0  0
  -31.6870  -17.2950   21.5320 C   0  0  0  0  0  3  0  0  0  0  0  0
  -29.5810  -17.8730   20.5190 C   0  0  0  0  0  3  0  0  0  0  0  0
  -31.9990  -18.6670   21.5310 C   0  0  0  0  0  3  0  0  0  0  0  0
  -30.4530  -16.8710   20.9960 C   0  0  0  0  0  0  0  0  0  0  0  0
  -29.9780  -19.2380   20.5280 C   0  0  0  0  0  0  0  0  0  0  0  0
  -31.1740  -19.6150   21.0380 N   0  0  0  0  0  0  0  0  0  0  0  0
  -30.6820  -14.4990   20.3050 C   0  0  0  0  0  0  0  0  0  0  0  0
  -30.3020  -12.3870   19.0830 C   0  0  0  0  0  2  0  0  0  0  0  0
  -29.3300  -12.6270   17.9110 C   0  0  0  0  0  2  0  0  0  0  0  0
  -27.8670  -12.4850   18.3770 C   0  0  0  0  0  2  0  0  0  0  0  0
  -27.5700  -13.2870   19.6720 C   0  0  0  0  0  3  0  0  0  0  0  0
  -28.6570  -13.0410   20.7450 C   0  0  0  0  0  2  0  0  0  0  0  0
  -29.9700  -13.3470   20.1490 N   0  0  0  0  0  0  0  0  0  0  0  0
  -31.7820  -14.6690   19.7700 O   0  0  0  0  0  0  0  0  0  0  0  0
  -30.0620  -15.4940   20.9720 N   0  0  0  0  0  0  0  0  0  0  0  0
  -29.1290  -15.2790   21.2840 H   0  0  0  0  0  0  0  0  0  0  0  0
  -25.1830  -13.8820   20.4330 C   0  0  0  0  0  0  0  0  0  0  0  0
  -24.1250  -13.1060   20.8200 C   0  0  0  0  0  0  0  0  0  0  0  0
  -24.5880  -11.7550   20.7730 C   0  0  0  0  0  0  0  0  0  0  0  0
  -26.2270  -13.0070   20.1780 N   0  0  0  0  0  0  0  0  0  0  0  0
  -25.8730  -11.7200   20.4380 N   0  0  0  0  0  0  0  0  0  0  0  0
  -23.8670  -10.4910   20.9720 C   0  0  0  0  0  0  0  0  0  0  0  0
  -24.3060   -9.5310   21.9110 C   0  0  0  0  0  3  0  0  0  0  0  0
  -23.5850   -8.3320   22.0980 C   0  0  0  0  0  3  0  0  0  0  0  0
  -22.4130   -8.0830   21.3460 C   0  0  0  0  0  0  0  0  0  0  0  0
  -21.9950   -9.0300   20.3950 C   0  0  0  0  0  3  0  0  0  0  0  0
  -22.7150  -10.2210   20.2060 C   0  0  0  0  0  3  0  0  0  0  0  0
  -21.6640   -6.9340   21.4410 O   0  0  0  0  0  0  0  0  0  0  0  0
  -21.6120   -6.2040   22.6010 C   0  0  0  0  0  0  0  0  0  0  0  0
  -21.1630   -6.7660   23.8160 C   0  0  0  0  0  3  0  0  0  0  0  0
  -21.0590   -5.9610   24.9680 C   0  0  0  0  0  3  0  0  0  0  0  0
  -21.3910   -4.5950   24.9050 C   0  0  0  0  0  0  0  0  0  0  0  0
  -21.8320   -4.0320   23.6960 C   0  0  0  0  0  3  0  0  0  0  0  0
  -21.9390   -4.8330   22.5450 C   0  0  0  0  0  0  0  0  0  0  0  0
  -22.3440   -4.2810   21.3760 F   0  0  0  0  0  0  0  0  0  0  0  0
  -21.2840   -3.8200   26.0090 F   0  0  0  0  0  0  0  0  0  0  0  0
  -22.7320  -13.5790   21.1250 C   0  0  0  0  0  0  0  0  0  0  0  0
  -22.0200  -12.8710   21.9950 N   0  0  0  0  0  0  0  0  0  0  0  0
  -22.2840  -14.6120   20.6270 O   0  0  0  0  0  0  0  0  0  0  0  0
  -22.3970  -12.0360   22.4190 H   0  0  0  0  0  0  0  0  0  0  0  0
  -21.0860  -13.1660   22.2390 H   0  0  0  0  0  0  0  0  0  0  0  0
  -25.3410  -15.2540   20.2550 N   0  0  0  0  0  0  0  0  0  0  0  0
  -24.5720  -15.9050   20.3710 H   0  0  0  0  0  0  0  0  0  0  0  0
  -26.1750  -15.6920   19.8860 H   0  0  0  0  0  0  0  0  0  0  0  0
  1 49  1  0
  1  4  1  0
  4  2  1  1
  4  3  1  0
  5  4  1  0
  5  7  1  0
  6  5  2  0
  8  7  1  0
  9 20  2  0
 10  8  1  0
 10 15  1  0
 11 19  1  0
 11 21  1  0
 12 18  1  0
 12 14  1  0
 13 19  1  0
 14 15  2  0
 14 13  1  0
 16 10  2  0
 17 16  1  0
 17 12  2  0
 18 11  1  0
 19  9  1  0
 21 23  2  0
 22 21  1  0
 24 22  1  0
 25 34  2  0
 25 30  1  0
 26 22  1  0
 26 30  1  0
 27 26  1  0
 28 29  1  0
 28 27  1  0
 29 25  1  0
 30 31  2  0
 31 32  1  0
 33 32  2  0
 34 33  1  0
 35  9  1  0
 35 36  1  0
 35 45  1  0
 36 39  1  0
 37 41  1  0
 37 36  1  0
 38 37  2  0
 41 40  1  0
 43 41  1  0
 43 44  1  0
 43 42  1  0
 45 48  1  1
 45 46  1  0
 47 45  1  0
 49 55  1  0
 50 49  2  0
 52 55  2  0
 52 54  1  0
 53 51  1  0
 54 51  2  0
 55 56  1  0
 56 53  2  0
 57 65  1  0
 58 63  1  0
 59 60  1  0
 59 58  1  0
 61 60  1  0
 61 70  1  0
 61 62  1  0
 63 57  1  0
 63 62  1  0
 64 57  2  0
 65 54  1  0
 65 66  1  0
 67 68  2  0
 68 87  1  0
 69 68  1  0
 69 72  1  0
 70 67  1  0
 70 71  1  0
 71 69  2  0
 72 73  1  0
 73 74  2  0
 75 78  1  0
 75 74  1  0
 76 75  2  0
 77 76  1  0
 77 72  2  0
 78 79  1  0
 79 80  1  0
 80 81  2  0
 82 81  1  0
 82 86  1  0
 83 82  2  0
 84 79  2  0
 84 83  1  0
 85 84  1  0
 87 88  1  0
 88 91  1  0
 88 90  1  0
 89 87  2  0
 92 93  1  0
 92 67  1  0
 94 92  1  0
M  ISO  4   7 101   8 101  57 100  65 100
M  END
>  <TORSDO>  (42) 
F 21

>  <SCORE>  (42) 
-13.714

>  <name>  (42) 
41

>  <ligand_id>  (42) 
41

>  <original_smiles>  (42) 
[H]c1nc(C(=O)C([H])([H])C(C(=O)C([H])([H])Oc2c([H])c([H])c3c(c2[H])C([H])([H])N(C(=O)C([H])(N([H])C(=O)C([H])(N([H])C([H])([H])[H])C([H])([H])[H])C(C([H])([H])[H])(C([H])([H])[H])C([H])([H])[H])C([H])(C(=O)N([H])C2([H])c4c([H])c([H])c([H])c([H])c4C([H])([H])C([H])([H])C2([H])[H])C3([H])[H])(C([H])([H])[H])C([H])([H])[H])c([H])c(N([H])C(=O)N2C([H])([H])C([H])([H])C([H])([H])C([H])(n3nc(-c4c([H])c([H])c(Oc5c([H])c([H])c(F)c([H])c5F)c([H])c4[H])c(C(=O)N([H])[H])c3N([H])[H])C2([H])[H])c1[H]

>  <smiles>  (42) 
[H]c1nc(C(=O)C([H])([H])C(C(=O)C([H])([H])Oc2c([H])c([H])c3c(c2[H])C([H])([H])N(C(=O)C([H])(N([H])C(=O)C([H])(N([H])C([H])([H])[H])C([H])([H])[H])C(C([H])([H])[H])(C([H])([H])[H])C([H])([H])[H])C([H])(C(=O)N([H])C2([H])c4c([H])c([H])c([H])c([H])c4C([H])([H])C([H])([H])C2([H])[H])C3([H])[H])(C([H])([H])[H])C([H])([H])[H])c([H])c(N([H])C(=O)N2C([H])([H])C([H])([H])C([H])([H])C([H])(n3nc(-c4c([H])c([H])c(Oc5c([H])c([H])c(F)c([H])c5F)c([H])c4[H])c(C(=O)N([H])[H])c3N([H])[H])C2([H])[H])c1[H]

$$$$
42:0:0
     RDKit          3D

 97106  0  0  1  0  0  0  0  0999 V2000
  -28.5330  -24.4690   20.0610 C   0  0  0  0  0  0  0  0  0  0  0  0
  -28.5300  -25.5360   19.2070 C   0  0  0  0  0  3  0  0  0  0  0  0
  -29.2170  -20.9500   21.3510 C   0  0  0  0  0  3  0  0  0  0  0  0
  -28.2130  -24.5570   21.5260 C   0  0  0  0  0  2  0  0  0  0  0  0
  -28.8860  -22.9970   19.7270 C   0  0  0  0  0  2  0  0  0  0  0  0
  -28.1250  -23.1070   22.0200 C   0  0  0  0  0  2  0  0  0  0  0  0
  -28.7880  -22.2300   21.0150 N   0  0  0  0  0  0  0  0  0  0  0  0
  -28.8030  -20.5070   22.5440 N   0  0  0  0  0  0  0  0  0  0  0  0
  -29.1560  -19.6260   22.8850 H   0  0  0  0  0  0  0  0  0  0  0  0
  -28.1380  -21.0060   23.1060 H   0  0  0  0  0  0  0  0  0  0  0  0
  -31.9090  -18.0060   19.5780 C   0  0  0  0  0  3  0  0  0  0  0  0
  -32.2310  -19.3730   19.5410 C   0  0  0  0  0  3  0  0  0  0  0  0
  -29.8050  -18.5620   20.6350 C   0  0  0  0  0  3  0  0  0  0  0  0
  -30.1120  -19.9740   20.6200 C   0  0  0  0  0  0  0  0  0  0  0  0
  -30.7050  -17.5470   20.1660 C   0  0  0  0  0  0  0  0  0  0  0  0
  -31.3770  -20.3490   20.0860 C   0  0  0  0  0  0  0  0  0  0  0  0
  -31.1320  -15.0100   19.9780 C   0  0  0  0  0  0  0  0  0  0  0  0
  -30.8250  -12.7770   18.9570 C   0  0  0  0  0  2  0  0  0  0  0  0
  -29.8280  -12.9090   17.7860 C   0  0  0  0  0  2  0  0  0  0  0  0
  -28.3780  -12.7650   18.2900 C   0  0  0  0  0  2  0  0  0  0  0  0
  -28.0850  -13.6350   19.5420 C   0  0  0  0  0  3  0  0  0  0  0  0
  -29.1990  -13.4980   20.6050 C   0  0  0  0  0  2  0  0  0  0  0  0
  -30.4770  -13.8110   19.9510 N   0  0  0  0  0  0  0  0  0  0  0  0
  -32.2880  -15.0920   19.5560 O   0  0  0  0  0  0  0  0  0  0  0  0
  -30.3940  -16.1200   20.3070 N   0  0  0  0  0  0  0  0  0  0  0  0
  -29.4720  -15.9070   20.6520 H   0  0  0  0  0  0  0  0  0  0  0  0
  -25.7690  -14.2380   20.4690 C   0  0  0  0  0  0  0  0  0  0  0  0
  -24.7070  -13.4680   20.8580 C   0  0  0  0  0  0  0  0  0  0  0  0
  -25.1250  -12.1110   20.7010 C   0  0  0  0  0  0  0  0  0  0  0  0
  -26.7670  -13.3520   20.1000 N   0  0  0  0  0  0  0  0  0  0  0  0
  -26.3890  -12.0620   20.2990 N   0  0  0  0  0  0  0  0  0  0  0  0
  -24.3760  -10.8570   20.8520 C   0  0  0  0  0  0  0  0  0  0  0  0
  -24.7470   -9.8860   21.8090 C   0  0  0  0  0  3  0  0  0  0  0  0
  -24.0000   -8.6970   21.9470 C   0  0  0  0  0  3  0  0  0  0  0  0
  -22.8670   -8.4700   21.1290 C   0  0  0  0  0  0  0  0  0  0  0  0
  -22.5160   -9.4300   20.1630 C   0  0  0  0  0  3  0  0  0  0  0  0
  -23.2650  -10.6100   20.0220 C   0  0  0  0  0  3  0  0  0  0  0  0
  -22.0970   -7.3330   21.1770 O   0  0  0  0  0  0  0  0  0  0  0  0
  -21.8390   -6.6880   22.3590 C   0  0  0  0  0  0  0  0  0  0  0  0
  -21.1860   -7.3320   23.4320 C   0  0  0  0  0  3  0  0  0  0  0  0
  -20.8770   -6.6120   24.6030 C   0  0  0  0  0  3  0  0  0  0  0  0
  -21.2090   -5.2470   24.7010 C   0  0  0  0  0  0  0  0  0  0  0  0
  -21.8540   -4.6030   23.6300 C   0  0  0  0  0  3  0  0  0  0  0  0
  -22.1650   -5.3200   22.4620 C   0  0  0  0  0  0  0  0  0  0  0  0
  -22.7670   -4.6890   21.4250 F   0  0  0  0  0  0  0  0  0  0  0  0
  -20.9060   -4.5530   25.8220 F   0  0  0  0  0  0  0  0  0  0  0  0
  -23.3460  -13.9600   21.2580 C   0  0  0  0  0  0  0  0  0  0  0  0
  -22.6640  -13.2320   22.1360 N   0  0  0  0  0  0  0  0  0  0  0  0
  -22.8990  -15.0220   20.8280 O   0  0  0  0  0  0  0  0  0  0  0  0
  -23.0400  -12.3740   22.5090 H   0  0  0  0  0  0  0  0  0  0  0  0
  -21.7530  -13.5420   22.4420 H   0  0  0  0  0  0  0  0  0  0  0  0
  -25.9600  -15.6140   20.3740 N   0  0  0  0  0  0  0  0  0  0  0  0
  -25.2130  -16.2710   20.5690 H   0  0  0  0  0  0  0  0  0  0  0  0
  -26.7710  -16.0530   19.9590 H   0  0  0  0  0  0  0  0  0  0  0  0
  -31.8580  -21.6280   20.1420 O   0  0  0  0  0  0  0  0  0  0  0  0
  -32.7540  -21.7100   19.8290 H   0  0  0  0  0  0  0  0  0  0  0  0
  -28.4450  -26.8840   19.5670 O   0  0  0  0  0  0  0  0  0  0  0  0
  -24.6690  -31.8190   23.1080 C   0  0  0  0  0  0  0  0  0  0  0  0
  -27.2560  -27.6050   19.6170 C   0  0  0  0  0  0  0  0  0  0  0  0
  -23.4180  -30.4910   21.4390 C   0  0  0  0  0  3  0  0  0  0  0  0
  -24.8340  -29.0880   19.8390 C   0  0  0  0  0  0  0  0  0  0  0  0
  -25.9240  -30.9220   21.1410 C   0  0  0  0  0  2  0  0  0  0  0  0
  -26.0090  -29.5930   20.4060 C   0  0  0  0  0  0  0  0  0  0  0  0
  -27.2180  -28.8590   20.2900 C   0  0  0  0  0  3  0  0  0  0  0  0
  -26.0600  -27.1310   19.0380 C   0  0  0  0  0  3  0  0  0  0  0  0
  -24.8570  -27.8600   19.1500 C   0  0  0  0  0  3  0  0  0  0  0  0
  -23.5750  -29.9120   20.0080 C   0  0  0  0  0  2  0  0  0  0  0  0
  -24.6920  -31.0910   21.9550 N   0  0  0  0  0  0  0  0  0  0  0  0
  -23.6100  -32.0250   23.7190 O   0  0  0  0  0  0  0  0  0  0  0  0
  -22.8420  -29.3930   22.3630 C   0  0  0  0  0  0  0  0  0  0  0  0
  -21.5300  -29.1300   22.2430 N   0  0  0  0  0  0  0  0  0  0  0  0
  -23.5730  -28.7810   23.1470 O   0  0  0  0  0  0  0  0  0  0  0  0
  -20.9970  -29.6800   21.5830 H   0  0  0  0  0  0  0  0  0  0  0  0
  -18.2600  -27.6560   22.6820 C   0  0  0  0  0  0  0  0  0  0  0  0
  -20.7860  -28.1110   22.9820 C   0  0  0  0  0  3  0  0  0  0  0  0
  -21.0060  -26.7080   22.3700 C   0  0  0  0  0  2  0  0  0  0  0  0
  -19.9410  -26.3270   21.3370 C   0  0  0  0  0  2  0  0  0  0  0  0
  -18.5470  -26.3460   21.9690 C   0  0  0  0  0  2  0  0  0  0  0  0
  -19.3110  -28.4920   23.1430 C   0  0  0  0  0  0  0  0  0  0  0  0
  -18.9880  -29.7160   23.7700 C   0  0  0  0  0  3  0  0  0  0  0  0
  -17.6470  -30.1070   23.9380 C   0  0  0  0  0  3  0  0  0  0  0  0
  -16.6100  -29.2700   23.4900 C   0  0  0  0  0  3  0  0  0  0  0  0
  -16.9170  -28.0460   22.8710 C   0  0  0  0  0  3  0  0  0  0  0  0
  -25.9670  -32.4500   23.7030 C   0  0  0  0  0  3  0  0  0  0  0  0
  -25.6410  -33.8180   24.1300 N   0  0  0  0  0  0  0  0  0  0  0  0
  -25.8900  -34.9190   23.4090 C   0  0  0  0  0  0  0  0  0  0  0  0
  -26.4910  -34.8920   22.3300 O   0  0  0  0  0  0  0  0  0  0  0  0
  -25.0990  -33.9110   24.9760 H   0  0  0  0  0  0  0  0  0  0  0  0
  -24.0770  -36.6580   23.2850 C   0  0  0  0  0  1  0  0  0  0  0  0
  -25.3950  -36.2650   23.9730 C   0  0  0  0  0  3  0  0  0  0  0  0
  -27.5550  -37.1940   24.6800 C   0  0  0  0  0  1  0  0  0  0  0  0
  -26.3770  -37.3610   23.8310 N   0  0  0  0  0  0  0  0  0  0  0  0
  -25.9520  -38.2580   24.0520 H   0  0  0  0  0  0  0  0  0  0  0  0
  -26.5650  -31.6230   24.9060 C   0  0  1  0  0  0  0  0  0  0  0  0
  -25.5340  -31.2980   26.0120 C   0  0  0  0  0  1  0  0  0  0  0  0
  -27.1580  -30.2840   24.4080 C   0  0  0  0  0  1  0  0  0  0  0  0
  -27.7310  -32.4070   25.5540 C   0  0  0  0  0  1  0  0  0  0  0  0
  1  4  1  0
  2 57  1  0
  2  1  2  0
  3  8  1  0
  4  6  1  0
  5  1  1  0
  5  7  1  0
  7  3  1  0
  7  6  1  0
  8  9  1  0
  8 10  1  0
 11 15  1  0
 12 11  2  0
 12 16  1  0
 14 13  1  0
 14  3  1  0
 15 25  1  0
 15 13  2  0
 16 55  1  0
 16 14  2  0
 17 25  1  0
 18 23  1  0
 19 20  1  0
 19 18  1  0
 21 20  1  0
 21 30  1  0
 21 22  1  0
 23 17  1  0
 23 22  1  0
 24 17  2  0
 25 26  1  0
 27 28  2  0
 28 47  1  0
 29 32  1  0
 29 28  1  0
 30 31  1  0
 30 27  1  0
 31 29  2  0
 32 33  1  0
 33 34  2  0
 35 38  1  0
 35 34  1  0
 36 35  2  0
 37 36  1  0
 37 32  2  0
 38 39  1  0
 39 44  2  0
 39 40  1  0
 40 41  2  0
 41 42  1  0
 42 46  1  0
 43 42  2  0
 44 43  1  0
 45 44  1  0
 47 48  1  0
 48 51  1  0
 48 50  1  0
 49 47  2  0
 52 27  1  0
 52 53  1  0
 54 52  1  0
 56 55  1  0
 57 59  1  0
 58 69  2  0
 59 64  1  0
 60 68  1  0
 60 70  1  0
 61 67  1  0
 61 63  1  0
 62 68  1  0
 63 62  1  0
 64 63  2  0
 65 66  1  0
 65 59  2  0
 66 61  2  0
 67 60  1  0
 68 58  1  0
 70 72  2  0
 71 70  1  0
 73 71  1  0
 74 83  2  0
 74 79  1  0
 75 71  1  0
 75 79  1  0
 76 75  1  0
 77 78  1  0
 77 76  1  0
 78 74  1  0
 79 80  2  0
 80 81  1  0
 82 81  2  0
 83 82  1  0
 84 58  1  0
 84 85  1  0
 84 94  1  0
 85 88  1  0
 86 90  1  0
 86 85  1  0
 87 86  2  0
 90 89  1  0
 92 90  1  0
 92 93  1  0
 92 91  1  0
 94 97  1  1
 94 95  1  0
 96 94  1  0
M  ISO  4   2 101  17 100  25 100  57 101
M  END
>  <TORSDO>  (43) 
F 18

>  <SCORE>  (43) 
-12.431

>  <name>  (43) 
42

>  <ligand_id>  (43) 
42

>  <original_smiles>  (43) 
[H]Oc1c([H])c([H])c(N([H])C(=O)N2C([H])([H])C([H])([H])C([H])([H])C([H])(n3nc(-c4c([H])c([H])c(Oc5c([H])c([H])c(F)c([H])c5F)c([H])c4[H])c(C(=O)N([H])[H])c3N([H])[H])C2([H])[H])c([H])c1C(N1C([H])([H])C(=C([H])Oc2c([H])c([H])c3c(c2[H])C([H])([H])N(C(=O)C([H])(N([H])C(=O)C([H])(N([H])C([H])([H])[H])C([H])([H])[H])C(C([H])([H])[H])(C([H])([H])[H])C([H])([H])[H])C([H])(C(=O)N([H])C2([H])c4c([H])c([H])c([H])c([H])c4C([H])([H])C([H])([H])C2([H])[H])C3([H])[H])C([H])([H])C1([H])[H])=[N+]([H])[H]

>  <smiles>  (43) 
[H]Oc1c([H])c([H])c(N([H])C(=O)N2C([H])([H])C([H])([H])C([H])([H])C([H])(n3nc(-c4c([H])c([H])c(Oc5c([H])c([H])c(F)c([H])c5F)c([H])c4[H])c(C(=O)N([H])[H])c3N([H])[H])C2([H])[H])c([H])c1C(N1C([H])([H])C(=C([H])Oc2c([H])c([H])c3c(c2[H])C([H])([H])N(C(=O)C([H])(N([H])C(=O)C([H])(N([H])C([H])([H])[H])C([H])([H])[H])C(C([H])([H])[H])(C([H])([H])[H])C([H])([H])[H])C([H])(C(=O)N([H])C2([H])c4c([H])c([H])c([H])c([H])c4C([H])([H])C([H])([H])C2([H])[H])C3([H])[H])C([H])([H])C1([H])[H])=[N+]([H])[H]

$$$$
43:0:0
     RDKit          3D

 99107  0  0  1  0  0  0  0  0999 V2000
  -28.7410  -21.5930   18.5740 C   0  0  0  0  0  1  0  0  0  0  0  0
  -30.9500  -20.5140   18.3620 C   0  0  0  0  0  1  0  0  0  0  0  0
  -30.0030  -21.2100   19.3680 C   0  0  2  0  0  0  0  0  0  0  0  0
  -29.5750  -20.2750   20.4200 N   0  0  0  0  0  0  0  0  0  0  0  0
  -28.5770  -20.1000   20.3910 H   0  0  0  0  0  0  0  0  0  0  0  0
  -31.9210  -16.9740   21.4530 C   0  0  0  0  0  3  0  0  0  0  0  0
  -31.6760  -19.2540   21.2270 C   0  0  0  0  0  3  0  0  0  0  0  0
  -29.7650  -17.8420   20.7430 C   0  0  0  0  0  0  0  0  0  0  0  0
  -30.5900  -16.7340   21.0520 C   0  0  0  0  0  0  0  0  0  0  0  0
  -30.3340  -19.1450   20.7930 C   0  0  0  0  0  0  0  0  0  0  0  0
  -32.4530  -18.2050   21.5580 N   0  0  0  0  0  0  0  0  0  0  0  0
  -30.6900  -14.4500   20.1850 C   0  0  0  0  0  0  0  0  0  0  0  0
  -30.2760  -12.3640   18.9430 C   0  0  0  0  0  2  0  0  0  0  0  0
  -29.2800  -12.6280   17.7980 C   0  0  0  0  0  2  0  0  0  0  0  0
  -27.8300  -12.4880   18.2990 C   0  0  0  0  0  2  0  0  0  0  0  0
  -27.5660  -13.2850   19.6040 C   0  0  0  0  0  3  0  0  0  0  0  0
  -28.6700  -13.0110   20.6490 C   0  0  0  0  0  2  0  0  0  0  0  0
  -29.9730  -13.3080   20.0290 N   0  0  0  0  0  0  0  0  0  0  0  0
  -31.7570  -14.6630   19.6010 O   0  0  0  0  0  0  0  0  0  0  0  0
  -30.1140  -15.3950   20.9430 N   0  0  0  0  0  0  0  0  0  0  0  0
  -29.1880  -15.1880   21.2870 H   0  0  0  0  0  0  0  0  0  0  0  0
  -25.1990  -13.8880   20.4210 C   0  0  0  0  0  0  0  0  0  0  0  0
  -24.1480  -13.1110   20.8310 C   0  0  0  0  0  0  0  0  0  0  0  0
  -24.6080  -11.7600   20.7660 C   0  0  0  0  0  0  0  0  0  0  0  0
  -26.2330  -13.0090   20.1370 N   0  0  0  0  0  0  0  0  0  0  0  0
  -25.8820  -11.7240   20.3990 N   0  0  0  0  0  0  0  0  0  0  0  0
  -23.8900  -10.4960   20.9770 C   0  0  0  0  0  0  0  0  0  0  0  0
  -24.3430   -9.5370   21.9090 C   0  0  0  0  0  3  0  0  0  0  0  0
  -23.6270   -8.3370   22.1060 C   0  0  0  0  0  3  0  0  0  0  0  0
  -22.4430   -8.0870   21.3710 C   0  0  0  0  0  0  0  0  0  0  0  0
  -22.0090   -9.0360   20.4270 C   0  0  0  0  0  3  0  0  0  0  0  0
  -22.7270  -10.2270   20.2280 C   0  0  0  0  0  3  0  0  0  0  0  0
  -21.6950   -6.9400   21.4790 O   0  0  0  0  0  0  0  0  0  0  0  0
  -21.6510   -6.2160   22.6440 C   0  0  0  0  0  0  0  0  0  0  0  0
  -21.2150   -6.7870   23.8590 C   0  0  0  0  0  3  0  0  0  0  0  0
  -21.1190   -5.9890   25.0160 C   0  0  0  0  0  3  0  0  0  0  0  0
  -21.4490   -4.6220   24.9600 C   0  0  0  0  0  0  0  0  0  0  0  0
  -21.8770   -4.0510   23.7490 C   0  0  0  0  0  3  0  0  0  0  0  0
  -21.9760   -4.8450   22.5930 C   0  0  0  0  0  0  0  0  0  0  0  0
  -22.3690   -4.2860   21.4240 F   0  0  0  0  0  0  0  0  0  0  0  0
  -21.3500   -3.8530   26.0690 F   0  0  0  0  0  0  0  0  0  0  0  0
  -22.7660  -13.5850   21.1730 C   0  0  0  0  0  0  0  0  0  0  0  0
  -22.0770  -12.8760   22.0600 N   0  0  0  0  0  0  0  0  0  0  0  0
  -22.3070  -14.6190   20.6880 O   0  0  0  0  0  0  0  0  0  0  0  0
  -22.4620  -12.0380   22.4700 H   0  0  0  0  0  0  0  0  0  0  0  0
  -21.1510  -13.1740   22.3340 H   0  0  0  0  0  0  0  0  0  0  0  0
  -25.3540  -15.2590   20.2440 N   0  0  0  0  0  0  0  0  0  0  0  0
  -24.5860  -15.9070   20.3770 H   0  0  0  0  0  0  0  0  0  0  0  0
  -26.1710  -15.6900   19.8330 H   0  0  0  0  0  0  0  0  0  0  0  0
  -28.1780  -17.3350   18.8150 C   0  0  0  0  0  1  0  0  0  0  0  0
  -28.3140  -17.6240   20.3160 C   0  0  0  0  0  2  0  0  0  0  0  0
  -30.7460  -22.4670   19.9390 C   0  0  0  0  0  2  0  0  0  0  0  0
  -29.0900  -22.9690   21.8610 C   0  0  0  0  0  1  0  0  0  0  0  0
  -31.1060  -24.3950   21.5010 C   0  0  0  0  0  1  0  0  0  0  0  0
  -30.0090  -23.5790   20.7760 C   0  0  1  0  0  0  0  0  0  0  0  0
  -29.2340  -24.5890   19.8810 C   0  0  0  0  0  0  0  0  0  0  0  0
  -29.4640  -24.6870   18.6700 O   0  0  0  0  0  0  0  0  0  0  0  0
  -28.2210  -25.5390   20.5460 C   0  0  0  0  0  2  0  0  0  0  0  0
  -28.2290  -26.8090   19.8900 O   0  0  0  0  0  0  0  0  0  0  0  0
  -24.5240  -31.9080   23.1880 C   0  0  0  0  0  0  0  0  0  0  0  0
  -27.0540  -27.5130   19.9730 C   0  0  0  0  0  0  0  0  0  0  0  0
  -23.2600  -30.5370   21.5590 C   0  0  0  0  0  3  0  0  0  0  0  0
  -24.6640  -29.0080   20.0770 C   0  0  0  0  0  0  0  0  0  0  0  0
  -25.7790  -30.8890   21.2920 C   0  0  0  0  0  2  0  0  0  0  0  0
  -25.8390  -29.5270   20.6360 C   0  0  0  0  0  0  0  0  0  0  0  0
  -27.0390  -28.7860   20.5790 C   0  0  0  0  0  3  0  0  0  0  0  0
  -25.8650  -26.9970   19.4160 C   0  0  0  0  0  3  0  0  0  0  0  0
  -24.6690  -27.7410   19.4660 C   0  0  0  0  0  3  0  0  0  0  0  0
  -23.4260  -29.8710   20.1670 C   0  0  0  0  0  2  0  0  0  0  0  0
  -24.5410  -31.1250   22.0720 N   0  0  0  0  0  0  0  0  0  0  0  0
  -23.4590  -32.1810   23.7610 O   0  0  0  0  0  0  0  0  0  0  0  0
  -22.6280  -29.5090   22.5230 C   0  0  0  0  0  0  0  0  0  0  0  0
  -21.3010  -29.3320   22.4200 N   0  0  0  0  0  0  0  0  0  0  0  0
  -23.3270  -28.8730   23.3160 O   0  0  0  0  0  0  0  0  0  0  0  0
  -20.8000  -29.8950   21.7490 H   0  0  0  0  0  0  0  0  0  0  0  0
  -17.9370  -28.1300   22.9540 C   0  0  0  0  0  0  0  0  0  0  0  0
  -20.4970  -28.3890   23.1960 C   0  0  0  0  0  3  0  0  0  0  0  0
  -20.5950  -26.9620   22.6090 C   0  0  0  0  0  2  0  0  0  0  0  0
  -19.4810  -26.6430   21.6080 C   0  0  0  0  0  2  0  0  0  0  0  0
  -18.1070  -26.7840   22.2690 C   0  0  0  0  0  2  0  0  0  0  0  0
  -19.0600  -28.8900   23.3750 C   0  0  0  0  0  0  0  0  0  0  0  0
  -18.8470  -30.1510   23.9730 C   0  0  0  0  0  3  0  0  0  0  0  0
  -17.5440  -30.6520   24.1570 C   0  0  0  0  0  3  0  0  0  0  0  0
  -16.4360  -29.8870   23.7540 C   0  0  0  0  0  3  0  0  0  0  0  0
  -16.6340  -28.6290   23.1580 C   0  0  0  0  0  3  0  0  0  0  0  0
  -25.8320  -32.5180   23.7810 C   0  0  0  0  0  3  0  0  0  0  0  0
  -25.5490  -33.9140   24.1350 N   0  0  0  0  0  0  0  0  0  0  0  0
  -25.8870  -34.9720   23.3840 C   0  0  0  0  0  0  0  0  0  0  0  0
  -26.5410  -34.8710   22.3420 O   0  0  0  0  0  0  0  0  0  0  0  0
  -24.9660  -34.0670   24.9450 H   0  0  0  0  0  0  0  0  0  0  0  0
  -24.1860  -36.7950   23.0640 C   0  0  0  0  0  1  0  0  0  0  0  0
  -25.4240  -36.3600   23.8640 C   0  0  0  0  0  3  0  0  0  0  0  0
  -27.5770  -37.1950   24.6980 C   0  0  0  0  0  1  0  0  0  0  0  0
  -26.4740  -37.3970   23.7620 N   0  0  0  0  0  0  0  0  0  0  0  0
  -26.0840  -38.3210   23.9280 H   0  0  0  0  0  0  0  0  0  0  0  0
  -26.3770  -31.7230   25.0310 C   0  0  1  0  0  0  0  0  0  0  0  0
  -25.3120  -31.4820   26.1260 C   0  0  0  0  0  1  0  0  0  0  0  0
  -26.9330  -30.3460   24.6020 C   0  0  0  0  0  1  0  0  0  0  0  0
  -27.5550  -32.4960   25.6710 C   0  0  0  0  0  1  0  0  0  0  0  0
  3  1  1  6
  2  3  1  0
  3 52  1  0
  3  4  1  0
  4 10  1  0
  5  4  1  0
  6 11  1  0
  7 11  2  0
  8 10  2  0
  8  9  1  0
  9  6  2  0
 10  7  1  0
 12 20  1  0
 13 18  1  0
 14 15  1  0
 14 13  1  0
 16 15  1  0
 16 25  1  0
 16 17  1  0
 18 12  1  0
 18 17  1  0
 19 12  2  0
 20  9  1  0
 20 21  1  0
 22 23  2  0
 23 42  1  0
 24 23  1  0
 24 27  1  0
 25 26  1  0
 25 22  1  0
 26 24  2  0
 27 28  1  0
 28 29  2  0
 30 33  1  0
 30 29  1  0
 31 30  2  0
 32 31  1  0
 32 27  2  0
 33 34  1  0
 34 35  1  0
 35 36  2  0
 37 36  1  0
 37 41  1  0
 38 37  2  0
 39 34  2  0
 39 38  1  0
 40 39  1  0
 42 43  1  0
 43 46  1  0
 43 45  1  0
 44 42  2  0
 47 48  1  0
 47 22  1  0
 49 47  1  0
 50 51  1  0
 51  8  1  0
 52 55  1  0
 55 54  1  1
 55 53  1  0
 56 58  1  0
 56 55  1  0
 57 56  2  0
 59 61  1  0
 59 58  1  0
 60 71  2  0
 61 66  1  0
 62 70  1  0
 62 72  1  0
 63 69  1  0
 63 65  1  0
 64 70  1  0
 65 64  1  0
 66 65  2  0
 67 68  1  0
 67 61  2  0
 68 63  2  0
 69 62  1  0
 70 60  1  0
 72 74  2  0
 73 72  1  0
 75 73  1  0
 76 85  2  0
 76 81  1  0
 77 73  1  0
 77 81  1  0
 78 77  1  0
 79 80  1  0
 79 78  1  0
 80 76  1  0
 81 82  2  0
 82 83  1  0
 84 83  2  0
 85 84  1  0
 86 60  1  0
 86 87  1  0
 86 96  1  0
 87 90  1  0
 88 92  1  0
 88 87  1  0
 89 88  2  0
 92 91  1  0
 94 92  1  0
 94 95  1  0
 94 93  1  0
 96 99  1  1
 96 97  1  0
 98 96  1  0
M  ISO  4  12 100  20 100  58 101  59 101
M  END
>  <TORSDO>  (44) 
F 23

>  <SCORE>  (44) 
-12.624

>  <name>  (44) 
43

>  <ligand_id>  (44) 
43

>  <original_smiles>  (44) 
[H]c1nc([H])c(N([H])C(C([H])([H])[H])(C([H])([H])[H])C([H])([H])C(C(=O)C([H])([H])Oc2c([H])c([H])c3c(c2[H])C([H])([H])N(C(=O)C([H])(N([H])C(=O)C([H])(N([H])C([H])([H])[H])C([H])([H])[H])C(C([H])([H])[H])(C([H])([H])[H])C([H])([H])[H])C([H])(C(=O)N([H])C2([H])c4c([H])c([H])c([H])c([H])c4C([H])([H])C([H])([H])C2([H])[H])C3([H])[H])(C([H])([H])[H])C([H])([H])[H])c(C([H])([H])C([H])([H])[H])c1N([H])C(=O)N1C([H])([H])C([H])([H])C([H])([H])C([H])(n2nc(-c3c([H])c([H])c(Oc4c([H])c([H])c(F)c([H])c4F)c([H])c3[H])c(C(=O)N([H])[H])c2N([H])[H])C1([H])[H]

>  <smiles>  (44) 
[H]c1nc([H])c(N([H])C(C([H])([H])[H])(C([H])([H])[H])C([H])([H])C(C(=O)C([H])([H])Oc2c([H])c([H])c3c(c2[H])C([H])([H])N(C(=O)C([H])(N([H])C(=O)C([H])(N([H])C([H])([H])[H])C([H])([H])[H])C(C([H])([H])[H])(C([H])([H])[H])C([H])([H])[H])C([H])(C(=O)N([H])C2([H])c4c([H])c([H])c([H])c([H])c4C([H])([H])C([H])([H])C2([H])[H])C3([H])[H])(C([H])([H])[H])C([H])([H])[H])c(C([H])([H])C([H])([H])[H])c1N([H])C(=O)N1C([H])([H])C([H])([H])C([H])([H])C([H])(n2nc(-c3c([H])c([H])c(Oc4c([H])c([H])c(F)c([H])c4F)c([H])c3[H])c(C(=O)N([H])[H])c2N([H])[H])C1([H])[H]

$$$$
44:0:0
     RDKit          3D

 94101  0  0  1  0  0  0  0  0999 V2000
  -28.2010  -24.9290   24.2930 C   0  0  0  0  0  0  0  0  0  0  0  0
  -27.8490  -25.7450   23.3130 N   0  0  0  0  0  0  0  0  0  0  0  0
  -28.2870  -25.2800   25.4720 O   0  0  0  0  0  0  0  0  0  0  0  0
  -27.7700  -26.7450   23.4370 H   0  0  0  0  0  0  0  0  0  0  0  0
  -27.6550  -22.8860   20.1040 C   0  0  0  0  0  2  0  0  0  0  0  0
  -26.9960  -24.1650   21.1610 C   0  0  0  0  0  2  0  0  0  0  0  0
  -29.8770  -24.7800   21.7540 C   0  0  0  0  0  3  0  0  0  0  0  0
  -29.2310  -22.1640   20.0580 C   0  0  0  0  0  2  0  0  0  0  0  0
  -30.2340  -23.4370   20.6460 C   0  0  0  0  0  3  0  0  0  0  0  0
  -28.1730  -25.1710   22.1040 C   0  0  0  0  0  3  0  0  0  0  0  0
  -31.7200  -23.2320   20.4140 C   0  0  0  0  0  1  0  0  0  0  0  0
  -29.8800  -20.1210   19.8700 C   0  0  0  0  0  1  0  0  0  0  0  0
  -29.7280  -18.4680   19.9240 N   0  0  0  0  0  2  0  0  0  0  0  0
  -30.5340  -16.8030   19.8050 C   0  0  0  0  0  0  0  0  0  0  0  0
  -30.8370  -14.0360   19.1510 C   0  0  0  0  0  2  0  0  0  0  0  0
  -30.0210  -13.2670   18.0400 C   0  0  0  0  0  2  0  0  0  0  0  0
  -28.6780  -12.7510   18.5630 C   0  0  0  0  0  2  0  0  0  0  0  0
  -28.0700  -13.8060   19.4990 C   0  0  0  0  0  3  0  0  0  0  0  0
  -29.0560  -14.4670   20.5210 C   0  0  0  0  0  2  0  0  0  0  0  0
  -30.1110  -15.2950   19.8090 N   0  0  0  0  0  0  0  0  0  0  0  0
  -31.7610  -16.5950   19.6070 O   0  0  0  0  0  0  0  0  0  0  0  0
  -25.7900  -14.2750   20.4690 C   0  0  0  0  0  0  0  0  0  0  0  0
  -24.7300  -13.4960   20.8310 C   0  0  0  0  0  0  0  0  0  0  0  0
  -25.1510  -12.1400   20.6480 C   0  0  0  0  0  0  0  0  0  0  0  0
  -26.7920  -13.4090   20.0830 N   0  0  0  0  0  0  0  0  0  0  0  0
  -26.4240  -12.1050   20.2450 N   0  0  0  0  0  0  0  0  0  0  0  0
  -24.3810  -10.8910   20.7770 C   0  0  0  0  0  0  0  0  0  0  0  0
  -24.7210   -9.9010   21.7250 C   0  0  0  0  0  3  0  0  0  0  0  0
  -23.9450   -8.7260   21.8480 C   0  0  0  0  0  3  0  0  0  0  0  0
  -22.8120   -8.5340   21.0230 C   0  0  0  0  0  0  0  0  0  0  0  0
  -22.4880   -9.5120   20.0670 C   0  0  0  0  0  3  0  0  0  0  0  0
  -23.2640  -10.6770   19.9420 C   0  0  0  0  0  3  0  0  0  0  0  0
  -22.0160   -7.4130   21.0540 O   0  0  0  0  0  0  0  0  0  0  0  0
  -21.7250   -6.7630   22.2270 C   0  0  0  0  0  0  0  0  0  0  0  0
  -21.1010   -7.4240   23.3080 C   0  0  0  0  0  3  0  0  0  0  0  0
  -20.7590   -6.7040   24.4700 C   0  0  0  0  0  3  0  0  0  0  0  0
  -21.0300   -5.3250   24.5510 C   0  0  0  0  0  0  0  0  0  0  0  0
  -21.6450   -4.6640   23.4730 C   0  0  0  0  0  3  0  0  0  0  0  0
  -21.9890   -5.3810   22.3130 C   0  0  0  0  0  0  0  0  0  0  0  0
  -22.5620   -4.7350   21.2700 F   0  0  0  0  0  0  0  0  0  0  0  0
  -20.6960   -4.6310   25.6640 F   0  0  0  0  0  0  0  0  0  0  0  0
  -23.3720  -13.9930   21.2230 C   0  0  0  0  0  0  0  0  0  0  0  0
  -22.6790  -13.2690   22.0940 N   0  0  0  0  0  0  0  0  0  0  0  0
  -22.9400  -15.0640   20.7970 O   0  0  0  0  0  0  0  0  0  0  0  0
  -23.0430  -12.4030   22.4630 H   0  0  0  0  0  0  0  0  0  0  0  0
  -21.7690  -13.5860   22.3940 H   0  0  0  0  0  0  0  0  0  0  0  0
  -25.9820  -15.6510   20.4000 N   0  0  0  0  0  0  0  0  0  0  0  0
  -25.2490  -16.3170   20.6220 H   0  0  0  0  0  0  0  0  0  0  0  0
  -26.8390  -16.0980   20.0940 H   0  0  0  0  0  0  0  0  0  0  0  0
  -28.4950  -23.4760   23.8460 C   0  0  0  0  0  2  0  0  0  0  0  0
  -28.7340  -21.6360   22.4900 C   0  0  0  0  0  1  0  0  0  0  0  0
  -30.7340  -22.8270   23.1260 C   0  0  0  0  0  1  0  0  0  0  0  0
  -29.3120  -23.1800   22.3920 C   0  0  1  0  0  0  0  0  0  0  0  0
  -28.9470  -25.1600   20.1370 O   0  0  0  0  0  1  0  0  0  0  0  0
  -24.8460  -31.8440   22.9590 C   0  0  0  0  0  0  0  0  0  0  0  0
  -28.0520  -26.6730   20.0480 C   0  0  0  0  0  0  0  0  0  0  0  0
  -23.9190  -30.3650   21.2360 C   0  0  0  0  0  3  0  0  0  0  0  0
  -25.6190  -28.8150   19.8940 C   0  0  0  0  0  0  0  0  0  0  0  0
  -26.5020  -30.6110   21.3350 C   0  0  0  0  0  2  0  0  0  0  0  0
  -26.7460  -29.1560   20.6520 C   0  0  0  0  0  0  0  0  0  0  0  0
  -27.9070  -28.1210   20.7050 C   0  0  0  0  0  3  0  0  0  0  0  0
  -26.8780  -26.7080   19.2030 C   0  0  0  0  0  3  0  0  0  0  0  0
  -25.7560  -27.6290   19.1460 C   0  0  0  0  0  3  0  0  0  0  0  0
  -24.3330  -29.6960   19.8840 C   0  0  0  0  0  2  0  0  0  0  0  0
  -25.1110  -30.9870   21.8980 N   0  0  0  0  0  0  0  0  0  0  0  0
  -23.6900  -32.0440   23.3810 O   0  0  0  0  0  0  0  0  0  0  0  0
  -23.1970  -29.3390   22.1560 C   0  0  0  0  0  0  0  0  0  0  0  0
  -21.8630  -29.1690   22.0270 N   0  0  0  0  0  0  0  0  0  0  0  0
  -23.8590  -28.6920   22.9710 O   0  0  0  0  0  0  0  0  0  0  0  0
  -21.3710  -29.7420   21.3560 H   0  0  0  0  0  0  0  0  0  0  0  0
  -18.4940  -27.8930   22.5960 C   0  0  0  0  0  0  0  0  0  0  0  0
  -21.0660  -28.1540   22.7380 C   0  0  0  0  0  3  0  0  0  0  0  0
  -21.1310  -26.7900   22.0100 C   0  0  0  0  0  2  0  0  0  0  0  0
  -19.9760  -26.5770   21.0260 C   0  0  0  0  0  2  0  0  0  0  0  0
  -18.6330  -26.6340   21.7570 C   0  0  0  0  0  2  0  0  0  0  0  0
  -19.6340  -28.6180   23.0410 C   0  0  0  0  0  0  0  0  0  0  0  0
  -19.4400  -29.7950   23.7960 C   0  0  0  0  0  3  0  0  0  0  0  0
  -18.1430  -30.2480   24.1070 C   0  0  0  0  0  3  0  0  0  0  0  0
  -17.0200  -29.5220   23.6720 C   0  0  0  0  0  3  0  0  0  0  0  0
  -17.1970  -28.3470   22.9210 C   0  0  0  0  0  3  0  0  0  0  0  0
  -25.9740  -32.6230   23.7040 C   0  0  0  0  0  3  0  0  0  0  0  0
  -26.5010  -31.8620   24.9850 C   0  0  1  0  0  0  0  0  0  0  0  0
  -25.3820  -31.4330   25.9660 C   0  0  0  0  0  1  0  0  0  0  0  0
  -27.2830  -30.5880   24.6000 C   0  0  0  0  0  1  0  0  0  0  0  0
  -27.4920  -32.7610   25.7590 C   0  0  0  0  0  1  0  0  0  0  0  0
  -25.4530  -33.9510   24.1090 N   0  0  0  0  0  0  0  0  0  0  0  0
  -25.7000  -35.1130   23.4890 C   0  0  0  0  0  0  0  0  0  0  0  0
  -26.4330  -35.1890   22.5000 O   0  0  0  0  0  0  0  0  0  0  0  0
  -24.7970  -33.9570   24.8770 H   0  0  0  0  0  0  0  0  0  0  0  0
  -23.7860  -36.7380   23.2090 C   0  0  0  0  0  1  0  0  0  0  0  0
  -25.0350  -36.3960   24.0410 C   0  0  0  0  0  3  0  0  0  0  0  0
  -27.0150  -37.4480   25.0510 C   0  0  0  0  0  1  0  0  0  0  0  0
  -25.9370  -37.5710   24.0730 N   0  0  0  0  0  0  0  0  0  0  0  0
  -25.4160  -38.4180   24.2810 H   0  0  0  0  0  0  0  0  0  0  0  0
  1  3  2  0
  2  4  1  0
  2  1  1  0
  5  6  1  0
  7 10  1  0
  7 53  1  0
  8  5  1  0
  8  9  1  0
  9 11  1  0
  9  7  1  0
 10  6  1  0
 10  2  1  0
 12 13  1  0
 14 20  1  0
 14 13  1  0
 15 20  1  0
 16 17  1  0
 16 15  1  0
 18 17  1  0
 18 25  1  0
 18 19  1  0
 20 19  1  0
 21 14  2  0
 22 23  2  0
 23 42  1  0
 24 27  1  0
 24 23  1  0
 25 26  1  0
 25 22  1  0
 26 24  2  0
 27 28  1  0
 28 29  2  0
 30 33  1  0
 30 29  1  0
 31 30  2  0
 32 31  1  0
 32 27  2  0
 33 34  1  0
 34 39  2  0
 34 35  1  0
 35 36  2  0
 36 37  1  0
 37 41  1  0
 38 37  2  0
 39 38  1  0
 40 39  1  0
 42 43  1  0
 43 46  1  0
 43 45  1  0
 44 42  2  0
 47 22  1  0
 47 48  1  0
 49 47  1  0
 50  1  1  0
 53 51  1  6
 53 52  1  0
 53 50  1  0
 55 66  2  0
 56 54  1  0
 56 61  1  0
 57 65  1  0
 57 67  1  0
 58 60  1  0
 59 65  1  0
 60 61  2  0
 60 59  1  0
 62 56  2  0
 63 62  1  0
 63 58  2  0
 64 58  1  0
 64 57  1  0
 65 55  1  0
 67 69  2  0
 68 67  1  0
 70 68  1  0
 71 80  2  0
 71 76  1  0
 72 68  1  0
 72 76  1  0
 73 72  1  0
 74 75  1  0
 74 73  1  0
 75 71  1  0
 76 77  2  0
 77 78  1  0
 79 78  2  0
 80 79  1  0
 81 55  1  0
 81 86  1  0
 81 82  1  0
 82 85  1  1
 82 83  1  0
 84 82  1  0
 86 89  1  0
 87 91  1  0
 87 86  1  0
 88 87  2  0
 91 90  1  0
 91 93  1  0
 93 94  1  0
 93 92  1  0
M  ISO  4  13 100  14 100  53 101  54 101
M  END
>  <TORSDO>  (45) 
F 20

>  <SCORE>  (45) 
-10.683

>  <name>  (45) 
44

>  <ligand_id>  (45) 
44

>  <original_smiles>  (45) 
[H]C(=NC(=O)N1C([H])([H])C([H])([H])C([H])([H])C([H])(n2nc(-c3c([H])c([H])c(Oc4c([H])c([H])c(F)c([H])c4F)c([H])c3[H])c(C(=O)N([H])[H])c2N([H])[H])C1([H])[H])c1c([H])c([H])c(N([H])C(=O)C([H])([H])C(Oc2c([H])c([H])c3c(c2[H])C([H])([H])N(C(=O)C([H])(N([H])C(=O)C([H])(N([H])C([H])([H])[H])C([H])([H])[H])C(C([H])([H])[H])(C([H])([H])[H])C([H])([H])[H])C([H])(C(=O)N([H])C2([H])c4c([H])c([H])c([H])c([H])c4C([H])([H])C([H])([H])C2([H])[H])C3([H])[H])(C([H])([H])[H])C([H])([H])[H])c([H])c1C([H])([H])[H]

>  <smiles>  (45) 
[H]C(=NC(=O)N1C([H])([H])C([H])([H])C([H])([H])C([H])(n2nc(-c3c([H])c([H])c(Oc4c([H])c([H])c(F)c([H])c4F)c([H])c3[H])c(C(=O)N([H])[H])c2N([H])[H])C1([H])[H])c1c([H])c([H])c(N([H])C(=O)C([H])([H])C(Oc2c([H])c([H])c3c(c2[H])C([H])([H])N(C(=O)C([H])(N([H])C(=O)C([H])(N([H])C([H])([H])[H])C([H])([H])[H])C(C([H])([H])[H])(C([H])([H])[H])C([H])([H])[H])C([H])(C(=O)N([H])C2([H])c4c([H])c([H])c([H])c([H])c4C([H])([H])C([H])([H])C2([H])[H])C3([H])[H])(C([H])([H])[H])C([H])([H])[H])c([H])c1C([H])([H])[H]

$$$$
45:0:0
     RDKit          3D

 94103  0  0  1  0  0  0  0  0999 V2000
  -28.0100  -21.8850   20.1710 N   0  0  0  0  0  0  0  0  0  0  0  0
  -27.7870  -22.1920   19.2250 H   0  0  0  0  0  0  0  0  0  0  0  0
  -29.8320  -18.8790   21.6200 C   0  0  0  0  0  3  0  0  0  0  0  0
  -29.1650  -20.1390   21.5020 C   0  0  0  0  0  3  0  0  0  0  0  0
  -28.8320  -19.9110   19.0420 C   0  0  0  0  0  3  0  0  0  0  0  0
  -29.9710  -18.1740   20.4200 C   0  0  0  0  0  0  0  0  0  0  0  0
  -29.4950  -18.6880   19.1770 C   0  0  0  0  0  0  0  0  0  0  0  0
  -28.6730  -20.6490   20.2510 C   0  0  0  0  0  0  0  0  0  0  0  0
  -30.0800  -17.5490   18.3810 C   0  0  0  0  0  2  0  0  0  0  0  0
  -30.6690  -16.9870   19.7740 C   0  0  0  0  0  3  0  0  0  0  0  0
  -30.8930  -14.5270   19.7200 C   0  0  0  0  0  0  0  0  0  0  0  0
  -30.5880  -12.2180   18.9160 C   0  0  0  0  0  2  0  0  0  0  0  0
  -29.5770  -12.2310   17.7500 C   0  0  0  0  0  2  0  0  0  0  0  0
  -28.1350  -12.1150   18.2790 C   0  0  0  0  0  2  0  0  0  0  0  0
  -27.8420  -13.1100   19.4340 C   0  0  0  0  0  3  0  0  0  0  0  0
  -28.9640  -13.0960   20.4960 C   0  0  0  0  0  2  0  0  0  0  0  0
  -30.2410  -13.3360   19.8080 N   0  0  0  0  0  0  0  0  0  0  0  0
  -31.9950  -14.6390   19.1780 O   0  0  0  0  0  0  0  0  0  0  0  0
  -30.2040  -15.6260   20.0860 N   0  0  0  0  0  0  0  0  0  0  0  0
  -29.2910  -15.5150   20.4960 H   0  0  0  0  0  0  0  0  0  0  0  0
  -25.5580  -13.7720   20.4110 C   0  0  0  0  0  0  0  0  0  0  0  0
  -24.4930  -13.0270   20.8420 C   0  0  0  0  0  0  0  0  0  0  0  0
  -24.8810  -11.6590   20.6870 C   0  0  0  0  0  0  0  0  0  0  0  0
  -26.5300  -12.8630   20.0270 N   0  0  0  0  0  0  0  0  0  0  0  0
  -26.1330  -11.5840   20.2490 N   0  0  0  0  0  0  0  0  0  0  0  0
  -24.1140  -10.4210   20.8730 C   0  0  0  0  0  0  0  0  0  0  0  0
  -24.5050   -9.4430   21.8150 C   0  0  0  0  0  3  0  0  0  0  0  0
  -23.7400   -8.2700   21.9880 C   0  0  0  0  0  3  0  0  0  0  0  0
  -22.5680   -8.0660   21.2200 C   0  0  0  0  0  0  0  0  0  0  0  0
  -22.1960   -9.0320   20.2680 C   0  0  0  0  0  3  0  0  0  0  0  0
  -22.9620  -10.1960   20.0930 C   0  0  0  0  0  3  0  0  0  0  0  0
  -21.7750   -6.9470   21.3050 O   0  0  0  0  0  0  0  0  0  0  0  0
  -21.5830   -6.2890   22.4920 C   0  0  0  0  0  0  0  0  0  0  0  0
  -21.0090   -6.9270   23.6130 C   0  0  0  0  0  3  0  0  0  0  0  0
  -20.7660   -6.1930   24.7920 C   0  0  0  0  0  3  0  0  0  0  0  0
  -21.0850   -4.8250   24.8500 C   0  0  0  0  0  0  0  0  0  0  0  0
  -21.6530   -4.1870   23.7330 C   0  0  0  0  0  3  0  0  0  0  0  0
  -21.8990   -4.9170   22.5570 C   0  0  0  0  0  0  0  0  0  0  0  0
  -22.4260   -4.2910   21.4770 F   0  0  0  0  0  0  0  0  0  0  0  0
  -20.8440   -4.1190   25.9790 F   0  0  0  0  0  0  0  0  0  0  0  0
  -23.1540  -13.5470   21.2790 C   0  0  0  0  0  0  0  0  0  0  0  0
  -22.4840  -12.8340   22.1790 N   0  0  0  0  0  0  0  0  0  0  0  0
  -22.7150  -14.6160   20.8610 O   0  0  0  0  0  0  0  0  0  0  0  0
  -22.8540  -11.9660   22.5370 H   0  0  0  0  0  0  0  0  0  0  0  0
  -21.5900  -13.1620   22.5150 H   0  0  0  0  0  0  0  0  0  0  0  0
  -25.7770  -15.1420   20.2950 N   0  0  0  0  0  0  0  0  0  0  0  0
  -25.0600  -15.8270   20.5110 H   0  0  0  0  0  0  0  0  0  0  0  0
  -26.6150  -15.5590   19.9100 H   0  0  0  0  0  0  0  0  0  0  0  0
  -28.5170  -23.0260   20.9470 C   0  0  0  0  0  2  0  0  0  0  0  0
  -28.4540  -24.3450   20.1390 C   0  0  0  0  0  0  0  0  0  0  0  0
  -28.2690  -24.3070   18.9160 O   0  0  0  0  0  0  0  0  0  0  0  0
  -29.9810  -25.7750   21.6050 C   0  0  0  0  0  1  0  0  0  0  0  0
  -28.6240  -25.6900   20.8920 C   0  0  0  0  0  3  0  0  0  0  0  0
  -28.5670  -26.8130   19.9940 O   0  0  0  0  0  0  0  0  0  0  0  0
  -24.5300  -31.7850   23.1060 C   0  0  0  0  0  0  0  0  0  0  0  0
  -27.3780  -27.5000   20.0080 C   0  0  0  0  0  0  0  0  0  0  0  0
  -23.3950  -30.3530   21.4370 C   0  0  0  0  0  3  0  0  0  0  0  0
  -24.9230  -28.8940   20.0090 C   0  0  0  0  0  0  0  0  0  0  0  0
  -25.9020  -30.8250   21.2610 C   0  0  0  0  0  2  0  0  0  0  0  0
  -26.0510  -29.4660   20.6100 C   0  0  0  0  0  0  0  0  0  0  0  0
  -27.2850  -28.7770   20.6050 C   0  0  0  0  0  3  0  0  0  0  0  0
  -26.2360  -26.9390   19.3990 C   0  0  0  0  0  3  0  0  0  0  0  0
  -25.0090  -27.6280   19.4000 C   0  0  0  0  0  3  0  0  0  0  0  0
  -23.6430  -29.6980   20.0530 C   0  0  0  0  0  2  0  0  0  0  0  0
  -24.6260  -31.0020   21.9950 N   0  0  0  0  0  0  0  0  0  0  0  0
  -23.4330  -32.0050   23.6410 O   0  0  0  0  0  0  0  0  0  0  0  0
  -22.7800  -29.2950   22.3810 C   0  0  0  0  0  0  0  0  0  0  0  0
  -21.4660  -29.0560   22.2360 N   0  0  0  0  0  0  0  0  0  0  0  0
  -23.4810  -28.6910   23.1970 O   0  0  0  0  0  0  0  0  0  0  0  0
  -20.9600  -29.5970   21.5490 H   0  0  0  0  0  0  0  0  0  0  0  0
  -18.1430  -27.7090   22.6730 C   0  0  0  0  0  0  0  0  0  0  0  0
  -20.6830  -28.0750   22.9850 C   0  0  0  0  0  3  0  0  0  0  0  0
  -20.8560  -26.6560   22.3970 C   0  0  0  0  0  2  0  0  0  0  0  0
  -19.7840  -26.2970   21.3640 C   0  0  0  0  0  2  0  0  0  0  0  0
  -18.3880  -26.3740   21.9890 C   0  0  0  0  0  2  0  0  0  0  0  0
  -19.2210  -28.5150   23.1260 C   0  0  0  0  0  0  0  0  0  0  0  0
  -18.9390  -29.7620   23.7230 C   0  0  0  0  0  3  0  0  0  0  0  0
  -17.6120  -30.2050   23.8760 C   0  0  0  0  0  3  0  0  0  0  0  0
  -16.5480  -29.3950   23.4390 C   0  0  0  0  0  3  0  0  0  0  0  0
  -16.8140  -28.1510   22.8430 C   0  0  0  0  0  3  0  0  0  0  0  0
  -25.7840  -32.4590   23.7450 C   0  0  0  0  0  3  0  0  0  0  0  0
  -26.3250  -31.6910   25.0140 C   0  0  1  0  0  0  0  0  0  0  0  0
  -25.2360  -31.3890   26.0690 C   0  0  0  0  0  1  0  0  0  0  0  0
  -26.9730  -30.3480   24.6020 C   0  0  0  0  0  1  0  0  0  0  0  0
  -27.4340  -32.5260   25.6970 C   0  0  0  0  0  1  0  0  0  0  0  0
  -25.4150  -33.8380   24.0900 N   0  0  0  0  0  0  0  0  0  0  0  0
  -25.6950  -34.9100   23.3370 C   0  0  0  0  0  0  0  0  0  0  0  0
  -26.3610  -34.8460   22.3000 O   0  0  0  0  0  0  0  0  0  0  0  0
  -24.8160  -33.9590   24.8930 H   0  0  0  0  0  0  0  0  0  0  0  0
  -23.8790  -36.6210   23.0190 C   0  0  0  0  0  1  0  0  0  0  0  0
  -25.1480  -36.2710   23.8110 C   0  0  0  0  0  3  0  0  0  0  0  0
  -27.2480  -37.2550   24.6200 C   0  0  0  0  0  1  0  0  0  0  0  0
  -26.1280  -37.3720   23.6890 N   0  0  0  0  0  0  0  0  0  0  0  0
  -25.6790  -38.2720   23.8430 H   0  0  0  0  0  0  0  0  0  0  0  0
  1  8  1  0
  1 49  1  0
  2  1  1  0
  4  3  1  0
  5  7  2  0
  5  8  1  0
  6  3  2  0
  7  6  1  0
  8  4  2  0
  9  7  1  0
  9 10  1  0
 10 19  1  0
 10  6  1  0
 11 17  1  0
 11 19  1  0
 12 17  1  0
 13 14  1  0
 13 12  1  0
 15 14  1  0
 15 24  1  0
 15 16  1  0
 17 16  1  0
 18 11  2  0
 19 20  1  0
 21 22  2  0
 22 41  1  0
 23 22  1  0
 23 26  1  0
 24 25  1  0
 24 21  1  0
 25 23  2  0
 26 27  1  0
 27 28  2  0
 29 32  1  0
 29 28  1  0
 30 29  2  0
 31 30  1  0
 31 26  2  0
 32 33  1  0
 33 38  2  0
 33 34  1  0
 34 35  2  0
 35 36  1  0
 36 40  1  0
 37 36  2  0
 38 37  1  0
 39 38  1  0
 41 42  1  0
 42 45  1  0
 42 44  1  0
 43 41  2  0
 46 21  1  0
 46 47  1  0
 48 46  1  0
 50 53  1  0
 50 49  1  0
 51 50  2  0
 53 52  1  0
 54 56  1  0
 54 53  1  0
 55 66  2  0
 56 61  1  0
 57 65  1  0
 57 67  1  0
 58 64  1  0
 58 60  1  0
 59 65  1  0
 60 59  1  0
 61 60  2  0
 62 63  1  0
 62 56  2  0
 63 58  2  0
 64 57  1  0
 65 55  1  0
 67 69  2  0
 68 67  1  0
 70 68  1  0
 71 80  2  0
 71 76  1  0
 72 68  1  0
 72 76  1  0
 73 72  1  0
 74 75  1  0
 74 73  1  0
 75 71  1  0
 76 77  2  0
 77 78  1  0
 79 78  2  0
 80 79  1  0
 81 55  1  0
 81 86  1  0
 81 82  1  0
 82 85  1  1
 82 83  1  0
 84 82  1  0
 86 89  1  0
 87 91  1  0
 87 86  1  0
 88 87  2  0
 91 90  1  0
 93 91  1  0
 93 94  1  0
 93 92  1  0
M  ISO  4  11 100  19 100  53 101  54 101
M  END
>  <TORSDO>  (46) 
F 20

>  <SCORE>  (46) 
-12.656

>  <name>  (46) 
45

>  <ligand_id>  (46) 
45

>  <original_smiles>  (46) 
[H]c1c([H])c([H])c2c(c1[H])C([H])([H])C([H])([H])C([H])([H])C2([H])N([H])C(=O)C1([H])N(C(=O)C([H])(N([H])C(=O)C([H])(N([H])C([H])([H])[H])C([H])([H])[H])C(C([H])([H])[H])(C([H])([H])[H])C([H])([H])[H])C([H])([H])c2c([H])c(OC([H])(C(=O)C([H])([H])N([H])c3c([H])c([H])c4c(c3[H])C([H])([H])C4([H])N([H])C(=O)N3C([H])([H])C([H])([H])C([H])([H])C([H])(n4nc(-c5c([H])c([H])c(Oc6c([H])c([H])c(F)c([H])c6F)c([H])c5[H])c(C(=O)N([H])[H])c4N([H])[H])C3([H])[H])C([H])([H])[H])c([H])c([H])c2C1([H])[H]

>  <smiles>  (46) 
[H]c1c([H])c([H])c2c(c1[H])C([H])([H])C([H])([H])C([H])([H])C2([H])N([H])C(=O)C1([H])N(C(=O)C([H])(N([H])C(=O)C([H])(N([H])C([H])([H])[H])C([H])([H])[H])C(C([H])([H])[H])(C([H])([H])[H])C([H])([H])[H])C([H])([H])c2c([H])c(OC([H])(C(=O)C([H])([H])N([H])c3c([H])c([H])c4c(c3[H])C([H])([H])C4([H])N([H])C(=O)N3C([H])([H])C([H])([H])C([H])([H])C([H])(n4nc(-c5c([H])c([H])c(Oc6c([H])c([H])c(F)c([H])c6F)c([H])c5[H])c(C(=O)N([H])[H])c4N([H])[H])C3([H])[H])C([H])([H])[H])c([H])c([H])c2C1([H])[H]

$$$$
46:0:0
     RDKit          3D

 97106  0  0  1  0  0  0  0  0999 V2000
  -30.3640  -20.6700   21.5100 C   0  0  0  0  0  3  0  0  0  0  0  0
  -29.4990  -24.2850   22.0290 C   0  0  0  0  0  2  0  0  0  0  0  0
  -30.2520  -23.0020   22.4130 C   0  0  0  0  0  2  0  0  0  0  0  0
  -29.0550  -22.6440   20.3720 C   0  0  0  0  0  2  0  0  0  0  0  0
  -29.3100  -24.1950   20.5120 C   0  0  2  0  0  0  0  0  0  0  0  0
  -30.6060  -24.5930   19.7720 C   0  0  0  0  0  1  0  0  0  0  0  0
  -29.9280  -21.9760   21.3890 N   0  0  0  0  0  0  0  0  0  0  0  0
  -31.1490  -20.4110   22.5570 N   0  0  0  0  0  0  0  0  0  0  0  0
  -31.5610  -19.4950   22.6400 H   0  0  0  0  0  0  0  0  0  0  0  0
  -31.4250  -21.1190   23.2140 H   0  0  0  0  0  0  0  0  0  0  0  0
  -30.0030  -18.1690   21.1630 C   0  0  0  0  0  3  0  0  0  0  0  0
  -30.2140  -19.6310   19.2200 C   0  0  0  0  0  3  0  0  0  0  0  0
  -30.0970  -17.1980   18.9370 C   0  0  0  0  0  3  0  0  0  0  0  0
  -30.1310  -19.4930   20.6210 C   0  0  0  0  0  0  0  0  0  0  0  0
  -30.0280  -17.0020   20.3370 C   0  0  0  0  0  0  0  0  0  0  0  0
  -30.1760  -18.4960   18.3890 C   0  0  0  0  0  0  0  0  0  0  0  0
  -30.2480  -18.6510   17.0450 F   0  0  0  0  0  0  0  0  0  0  0  0
  -30.6410  -14.5760   20.4330 C   0  0  0  0  0  0  0  0  0  0  0  0
  -30.3540  -12.3680   19.3600 C   0  0  0  0  0  2  0  0  0  0  0  0
  -29.4240  -12.5490   18.1400 C   0  0  0  0  0  2  0  0  0  0  0  0
  -27.9480  -12.4130   18.5610 C   0  0  0  0  0  2  0  0  0  0  0  0
  -27.6020  -13.2640   19.8140 C   0  0  0  0  0  3  0  0  0  0  0  0
  -28.6550  -13.0860   20.9330 C   0  0  0  0  0  2  0  0  0  0  0  0
  -29.9790  -13.3810   20.3660 N   0  0  0  0  0  0  0  0  0  0  0  0
  -31.7790  -14.7110   19.9770 O   0  0  0  0  0  0  0  0  0  0  0  0
  -29.9430  -15.6560   20.8780 N   0  0  0  0  0  0  0  0  0  0  0  0
  -29.1280  -15.4560   21.4390 H   0  0  0  0  0  0  0  0  0  0  0  0
  -25.2070  -13.8770   20.5180 C   0  0  0  0  0  0  0  0  0  0  0  0
  -24.1370  -13.1100   20.8890 C   0  0  0  0  0  0  0  0  0  0  0  0
  -24.5930  -11.7570   20.8670 C   0  0  0  0  0  0  0  0  0  0  0  0
  -26.2500  -12.9920   20.2940 N   0  0  0  0  0  0  0  0  0  0  0  0
  -25.8840  -11.7120   20.5630 N   0  0  0  0  0  0  0  0  0  0  0  0
  -23.8610  -10.4980   21.0620 C   0  0  0  0  0  0  0  0  0  0  0  0
  -24.3050   -9.5220   21.9820 C   0  0  0  0  0  3  0  0  0  0  0  0
  -23.5730   -8.3300   22.1660 C   0  0  0  0  0  3  0  0  0  0  0  0
  -22.3840   -8.1040   21.4330 C   0  0  0  0  0  0  0  0  0  0  0  0
  -21.9610   -9.0690   20.5020 C   0  0  0  0  0  3  0  0  0  0  0  0
  -22.6920  -10.2540   20.3160 C   0  0  0  0  0  3  0  0  0  0  0  0
  -21.6240   -6.9640   21.5260 O   0  0  0  0  0  0  0  0  0  0  0  0
  -21.6080   -6.2010   22.6660 C   0  0  0  0  0  0  0  0  0  0  0  0
  -21.2460   -6.7390   23.9190 C   0  0  0  0  0  3  0  0  0  0  0  0
  -21.1790   -5.9030   25.0530 C   0  0  0  0  0  3  0  0  0  0  0  0
  -21.4610   -4.5300   24.9330 C   0  0  0  0  0  0  0  0  0  0  0  0
  -21.8150   -3.9900   23.6840 C   0  0  0  0  0  3  0  0  0  0  0  0
  -21.8870   -4.8230   22.5540 C   0  0  0  0  0  0  0  0  0  0  0  0
  -22.2080   -4.2940   21.3490 F   0  0  0  0  0  0  0  0  0  0  0  0
  -21.3880   -3.7250   26.0190 F   0  0  0  0  0  0  0  0  0  0  0  0
  -22.7410  -13.5940   21.1550 C   0  0  0  0  0  0  0  0  0  0  0  0
  -22.0100  -12.9080   22.0260 N   0  0  0  0  0  0  0  0  0  0  0  0
  -22.3060  -14.6170   20.6250 O   0  0  0  0  0  0  0  0  0  0  0  0
  -22.3740  -12.0810   22.4760 H   0  0  0  0  0  0  0  0  0  0  0  0
  -21.0720  -13.2110   22.2440 H   0  0  0  0  0  0  0  0  0  0  0  0
  -25.3790  -15.2460   20.3340 N   0  0  0  0  0  0  0  0  0  0  0  0
  -24.6090  -15.9010   20.4300 H   0  0  0  0  0  0  0  0  0  0  0  0
  -26.2310  -15.6860   20.0090 H   0  0  0  0  0  0  0  0  0  0  0  0
  -28.1420  -25.1250   20.0160 C   0  0  0  0  0  2  0  0  0  0  0  0
  -28.3180  -26.5660   20.2120 O   0  0  0  0  0  0  0  0  0  0  0  0
  -24.5980  -31.8990   23.2340 C   0  0  0  0  0  0  0  0  0  0  0  0
  -27.1780  -27.3710   20.1610 C   0  0  0  0  0  0  0  0  0  0  0  0
  -23.3740  -30.5040   21.6030 C   0  0  0  0  0  3  0  0  0  0  0  0
  -24.8060  -28.9510   20.1700 C   0  0  0  0  0  0  0  0  0  0  0  0
  -25.9070  -30.8250   21.3970 C   0  0  0  0  0  2  0  0  0  0  0  0
  -25.9780  -29.4500   20.7530 C   0  0  0  0  0  0  0  0  0  0  0  0
  -27.1660  -28.6710   20.7410 C   0  0  0  0  0  3  0  0  0  0  0  0
  -25.9830  -26.9140   19.5560 C   0  0  0  0  0  3  0  0  0  0  0  0
  -24.8080  -27.6840   19.5670 C   0  0  0  0  0  3  0  0  0  0  0  0
  -23.5710  -29.8240   20.2240 C   0  0  0  0  0  2  0  0  0  0  0  0
  -24.6460  -31.0920   22.1350 N   0  0  0  0  0  0  0  0  0  0  0  0
  -23.5200  -32.1820   23.7760 O   0  0  0  0  0  0  0  0  0  0  0  0
  -22.7190  -29.4890   22.5690 C   0  0  0  0  0  0  0  0  0  0  0  0
  -21.3930  -29.3120   22.4450 N   0  0  0  0  0  0  0  0  0  0  0  0
  -23.4000  -28.8640   23.3850 O   0  0  0  0  0  0  0  0  0  0  0  0
  -20.9030  -29.8670   21.7580 H   0  0  0  0  0  0  0  0  0  0  0  0
  -18.0160  -28.1230   22.9520 C   0  0  0  0  0  0  0  0  0  0  0  0
  -20.5740  -28.3800   23.2220 C   0  0  0  0  0  3  0  0  0  0  0  0
  -20.6750  -26.9450   22.6560 C   0  0  0  0  0  2  0  0  0  0  0  0
  -19.5720  -26.6160   21.6440 C   0  0  0  0  0  2  0  0  0  0  0  0
  -18.1900  -26.7680   22.2870 C   0  0  0  0  0  2  0  0  0  0  0  0
  -19.1350  -28.8860   23.3770 C   0  0  0  0  0  0  0  0  0  0  0  0
  -18.9190  -30.1550   23.9590 C   0  0  0  0  0  3  0  0  0  0  0  0
  -17.6150  -30.6590   24.1200 C   0  0  0  0  0  3  0  0  0  0  0  0
  -16.5090  -29.8930   23.7090 C   0  0  0  0  0  3  0  0  0  0  0  0
  -16.7110  -28.6270   23.1320 C   0  0  0  0  0  3  0  0  0  0  0  0
  -25.8890  -32.5250   23.8440 C   0  0  0  0  0  3  0  0  0  0  0  0
  -25.5850  -33.9220   24.1840 N   0  0  0  0  0  0  0  0  0  0  0  0
  -25.9090  -34.9780   23.4260 C   0  0  0  0  0  0  0  0  0  0  0  0
  -26.5690  -34.8780   22.3870 O   0  0  0  0  0  0  0  0  0  0  0  0
  -24.9960  -34.0730   24.9900 H   0  0  0  0  0  0  0  0  0  0  0  0
  -24.1770  -36.7730   23.0980 C   0  0  0  0  0  1  0  0  0  0  0  0
  -25.4280  -36.3650   23.8930 C   0  0  0  0  0  3  0  0  0  0  0  0
  -27.5760  -37.2440   24.6980 C   0  0  0  0  0  1  0  0  0  0  0  0
  -26.4610  -37.4180   23.7710 N   0  0  0  0  0  0  0  0  0  0  0  0
  -26.0580  -38.3380   23.9280 H   0  0  0  0  0  0  0  0  0  0  0  0
  -26.4150  -31.7460   25.1120 C   0  0  1  0  0  0  0  0  0  0  0  0
  -25.3340  -31.5070   26.1910 C   0  0  0  0  0  1  0  0  0  0  0  0
  -26.9900  -30.3680   24.7080 C   0  0  0  0  0  1  0  0  0  0  0  0
  -27.5740  -32.5350   25.7670 C   0  0  0  0  0  1  0  0  0  0  0  0
  1  8  1  0
  2  3  1  0
  4  5  1  0
  4  7  1  0
  5  6  1  6
  5  2  1  0
  7  1  1  0
  7  3  1  0
  8  9  1  0
  8 10  1  0
 12 14  2  0
 13 15  1  0
 14 11  1  0
 14  1  1  0
 15 26  1  0
 15 11  2  0
 16 13  2  0
 16 12  1  0
 17 16  1  0
 18 26  1  0
 19 24  1  0
 20 21  1  0
 20 19  1  0
 22 21  1  0
 22 31  1  0
 22 23  1  0
 24 18  1  0
 24 23  1  0
 25 18  2  0
 26 27  1  0
 28 29  2  0
 29 48  1  0
 30 29  1  0
 30 33  1  0
 31 28  1  0
 31 32  1  0
 32 30  2  0
 33 34  1  0
 34 35  2  0
 36 39  1  0
 36 35  1  0
 37 36  2  0
 38 37  1  0
 38 33  2  0
 39 40  1  0
 40 41  1  0
 41 42  2  0
 43 42  1  0
 43 47  1  0
 44 43  2  0
 45 40  2  0
 45 44  1  0
 46 45  1  0
 48 49  1  0
 49 52  1  0
 49 51  1  0
 50 48  2  0
 53 54  1  0
 53 28  1  0
 55 53  1  0
 56 57  1  0
 56  5  1  0
 58 69  2  0
 59 57  1  0
 59 64  1  0
 60 68  1  0
 60 70  1  0
 61 67  1  0
 61 63  1  0
 62 68  1  0
 63 62  1  0
 64 63  2  0
 65 66  1  0
 65 59  2  0
 66 61  2  0
 67 60  1  0
 68 58  1  0
 70 72  2  0
 71 70  1  0
 73 71  1  0
 74 83  2  0
 74 79  1  0
 75 71  1  0
 75 79  1  0
 76 75  1  0
 77 78  1  0
 77 76  1  0
 78 74  1  0
 79 80  2  0
 80 81  1  0
 82 81  2  0
 83 82  1  0
 84 58  1  0
 84 85  1  0
 84 94  1  0
 85 88  1  0
 86 90  1  0
 86 85  1  0
 87 86  2  0
 90 89  1  0
 92 90  1  0
 92 93  1  0
 92 91  1  0
 94 97  1  1
 94 95  1  0
 96 94  1  0
M  ISO  4  18 100  26 100  56 101  57 101
M  END
>  <TORSDO>  (47) 
F 18

>  <SCORE>  (47) 
-15.145

>  <name>  (47) 
46

>  <ligand_id>  (47) 
46

>  <original_smiles>  (47) 
[H]c1c([H])c([H])c2c(c1[H])C([H])([H])C([H])([H])C([H])([H])C2([H])N([H])C(=O)C1([H])N(C(=O)C([H])(N([H])C(=O)C([H])(N([H])C([H])([H])[H])C([H])([H])[H])C(C([H])([H])[H])(C([H])([H])[H])C([H])([H])[H])C([H])([H])c2c([H])c(OC([H])([H])C3(C([H])([H])[H])C([H])([H])N(C(c4c([H])c(F)c([H])c(N([H])C(=O)N5C([H])([H])C([H])([H])C([H])([H])C([H])(n6nc(-c7c([H])c([H])c(Oc8c([H])c([H])c(F)c([H])c8F)c([H])c7[H])c(C(=O)N([H])[H])c6N([H])[H])C5([H])[H])c4[H])=[N+]([H])[H])C([H])([H])C3([H])[H])c([H])c([H])c2C1([H])[H]

>  <smiles>  (47) 
[H]c1c([H])c([H])c2c(c1[H])C([H])([H])C([H])([H])C([H])([H])C2([H])N([H])C(=O)C1([H])N(C(=O)C([H])(N([H])C(=O)C([H])(N([H])C([H])([H])[H])C([H])([H])[H])C(C([H])([H])[H])(C([H])([H])[H])C([H])([H])[H])C([H])([H])c2c([H])c(OC([H])([H])C3(C([H])([H])[H])C([H])([H])N(C(c4c([H])c(F)c([H])c(N([H])C(=O)N5C([H])([H])C([H])([H])C([H])([H])C([H])(n6nc(-c7c([H])c([H])c(Oc8c([H])c([H])c(F)c([H])c8F)c([H])c7[H])c(C(=O)N([H])[H])c6N([H])[H])C5([H])[H])c4[H])=[N+]([H])[H])C([H])([H])C3([H])[H])c([H])c([H])c2C1([H])[H]

$$$$
47:0:0
     RDKit          3D

 99108  0  0  1  0  0  0  0  0999 V2000
  -28.0160  -21.2290   20.1820 C   0  0  0  0  0  0  0  0  0  0  0  0
  -26.6840  -21.8420   19.7890 C   0  0  0  0  0  1  0  0  0  0  0  0
  -28.2590  -20.0420   19.7490 N   0  0  0  0  0  0  0  0  0  0  0  0
  -30.7190  -19.8040   19.8600 C   0  0  0  0  0  3  0  0  0  0  0  0
  -31.6870  -17.6340   20.4200 C   0  0  0  0  0  3  0  0  0  0  0  0
  -29.2700  -17.9050   20.3160 C   0  0  0  0  0  3  0  0  0  0  0  0
  -31.8510  -18.9950   20.0960 C   0  0  0  0  0  0  0  0  0  0  0  0
  -29.4140  -19.2810   20.0060 C   0  0  0  0  0  0  0  0  0  0  0  0
  -30.3960  -17.0620   20.4910 C   0  0  0  0  0  0  0  0  0  0  0  0
  -30.9250  -14.6450   20.2500 C   0  0  0  0  0  0  0  0  0  0  0  0
  -30.6330  -12.4430   19.1860 C   0  0  0  0  0  2  0  0  0  0  0  0
  -29.6600  -12.6020   18.0000 C   0  0  0  0  0  2  0  0  0  0  0  0
  -28.1990  -12.4620   18.4700 C   0  0  0  0  0  2  0  0  0  0  0  0
  -27.8840  -13.3400   19.7100 C   0  0  0  0  0  3  0  0  0  0  0  0
  -28.9630  -13.1590   20.8000 C   0  0  0  0  0  2  0  0  0  0  0  0
  -30.2720  -13.4530   20.1920 N   0  0  0  0  0  0  0  0  0  0  0  0
  -32.0460  -14.8070   19.7580 O   0  0  0  0  0  0  0  0  0  0  0  0
  -30.1990  -15.6690   20.7450 N   0  0  0  0  0  0  0  0  0  0  0  0
  -29.2840  -15.4010   21.0720 H   0  0  0  0  0  0  0  0  0  0  0  0
  -25.5180  -13.9650   20.5100 C   0  0  0  0  0  0  0  0  0  0  0  0
  -24.4520  -13.1970   20.8980 C   0  0  0  0  0  0  0  0  0  0  0  0
  -24.8950  -11.8420   20.8230 C   0  0  0  0  0  0  0  0  0  0  0  0
  -26.5430  -13.0760   20.2260 N   0  0  0  0  0  0  0  0  0  0  0  0
  -26.1730  -11.7930   20.4710 N   0  0  0  0  0  0  0  0  0  0  0  0
  -24.1600  -10.5840   21.0090 C   0  0  0  0  0  0  0  0  0  0  0  0
  -24.5780   -9.6170   21.9510 C   0  0  0  0  0  3  0  0  0  0  0  0
  -23.8440   -8.4240   22.1250 C   0  0  0  0  0  3  0  0  0  0  0  0
  -22.6800   -8.1890   21.3560 C   0  0  0  0  0  0  0  0  0  0  0  0
  -22.2820   -9.1440   20.4030 C   0  0  0  0  0  3  0  0  0  0  0  0
  -23.0150  -10.3290   20.2280 C   0  0  0  0  0  3  0  0  0  0  0  0
  -21.9190   -7.0480   21.4380 O   0  0  0  0  0  0  0  0  0  0  0  0
  -21.8070   -6.3400   22.6070 C   0  0  0  0  0  0  0  0  0  0  0  0
  -21.2750   -6.9180   23.7800 C   0  0  0  0  0  3  0  0  0  0  0  0
  -21.1150   -6.1340   24.9410 C   0  0  0  0  0  3  0  0  0  0  0  0
  -21.4770   -4.7740   24.9270 C   0  0  0  0  0  0  0  0  0  0  0  0
  -22.0030   -4.1960   23.7580 C   0  0  0  0  0  3  0  0  0  0  0  0
  -22.1650   -4.9770   22.6010 C   0  0  0  0  0  0  0  0  0  0  0  0
  -22.6520   -4.4090   21.4700 F   0  0  0  0  0  0  0  0  0  0  0  0
  -21.3170   -4.0180   26.0390 F   0  0  0  0  0  0  0  0  0  0  0  0
  -23.0700  -13.6860   21.2280 C   0  0  0  0  0  0  0  0  0  0  0  0
  -22.3650  -12.9820   22.1070 N   0  0  0  0  0  0  0  0  0  0  0  0
  -22.6260  -14.7240   20.7430 O   0  0  0  0  0  0  0  0  0  0  0  0
  -22.7360  -12.1400   22.5230 H   0  0  0  0  0  0  0  0  0  0  0  0
  -21.4390  -13.2910   22.3690 H   0  0  0  0  0  0  0  0  0  0  0  0
  -25.6940  -15.3380   20.3530 N   0  0  0  0  0  0  0  0  0  0  0  0
  -24.9380  -15.9980   20.4970 H   0  0  0  0  0  0  0  0  0  0  0  0
  -26.5250  -15.7660   19.9690 H   0  0  0  0  0  0  0  0  0  0  0  0
  -34.9580  -20.2000   18.8940 C   0  0  0  0  0  2  0  0  0  0  0  0
  -34.3800  -18.8380   19.2950 C   0  0  0  0  0  2  0  0  0  0  0  0
  -33.5440  -20.7640   19.0570 C   0  0  0  0  0  2  0  0  0  0  0  0
  -33.2440  -19.5910   20.0040 C   0  0  0  0  0  3  0  0  0  0  0  0
  -29.1990  -21.3160   22.4230 C   0  0  0  0  0  1  0  0  0  0  0  0
  -28.9180  -22.0820   21.1130 C   0  0  0  0  0  3  0  0  0  0  0  0
  -28.4440  -23.5260   21.4770 C   0  0  0  0  0  2  0  0  0  0  0  0
  -28.4250  -24.6280   20.3760 C   0  0  0  0  0  2  0  0  0  0  0  0
  -30.2590  -26.2060   21.1220 C   0  0  0  0  0  1  0  0  0  0  0  0
  -27.9950  -26.4350   22.1860 C   0  0  0  0  0  1  0  0  0  0  0  0
  -28.7460  -26.0760   20.8730 C   0  0  2  0  0  0  0  0  0  0  0  0
  -28.5090  -27.0320   19.8090 O   0  0  0  0  0  0  0  0  0  0  0  0
  -24.5450  -31.8700   23.1710 C   0  0  0  0  0  0  0  0  0  0  0  0
  -27.3210  -27.7290   19.8280 C   0  0  0  0  0  0  0  0  0  0  0  0
  -23.3680  -30.4970   21.4790 C   0  0  0  0  0  3  0  0  0  0  0  0
  -24.8610  -29.1080   19.9460 C   0  0  0  0  0  0  0  0  0  0  0  0
  -25.8640  -30.9970   21.2470 C   0  0  0  0  0  2  0  0  0  0  0  0
  -26.0030  -29.6660   20.5340 C   0  0  0  0  0  0  0  0  0  0  0  0
  -27.2380  -28.9880   20.4650 C   0  0  0  0  0  3  0  0  0  0  0  0
  -26.1700  -27.1850   19.2240 C   0  0  0  0  0  3  0  0  0  0  0  0
  -24.9380  -27.8680   19.2850 C   0  0  0  0  0  3  0  0  0  0  0  0
  -23.5780  -29.9000   20.0620 C   0  0  0  0  0  2  0  0  0  0  0  0
  -24.6110  -31.1330   22.0260 N   0  0  0  0  0  0  0  0  0  0  0  0
  -23.4650  -32.0620   23.7470 O   0  0  0  0  0  0  0  0  0  0  0  0
  -22.7850  -29.4000   22.3990 C   0  0  0  0  0  0  0  0  0  0  0  0
  -21.4730  -29.1490   22.2710 N   0  0  0  0  0  0  0  0  0  0  0  0
  -23.5100  -28.7800   23.1800 O   0  0  0  0  0  0  0  0  0  0  0  0
  -20.9470  -29.7090   21.6150 H   0  0  0  0  0  0  0  0  0  0  0  0
  -18.1820  -27.7220   22.6980 C   0  0  0  0  0  0  0  0  0  0  0  0
  -20.7160  -28.1330   23.0020 C   0  0  0  0  0  3  0  0  0  0  0  0
  -20.9140  -26.7330   22.3780 C   0  0  0  0  0  2  0  0  0  0  0  0
  -19.8420  -26.3750   21.3440 C   0  0  0  0  0  2  0  0  0  0  0  0
  -18.4500  -26.4100   21.9810 C   0  0  0  0  0  2  0  0  0  0  0  0
  -19.2460  -28.5390   23.1640 C   0  0  0  0  0  0  0  0  0  0  0  0
  -18.9440  -29.7650   23.7940 C   0  0  0  0  0  3  0  0  0  0  0  0
  -17.6080  -30.1760   23.9650 C   0  0  0  0  0  3  0  0  0  0  0  0
  -16.5580  -29.3560   23.5180 C   0  0  0  0  0  3  0  0  0  0  0  0
  -16.8450  -28.1320   22.8890 C   0  0  0  0  0  3  0  0  0  0  0  0
  -25.8140  -32.5260   23.7970 C   0  0  0  0  0  3  0  0  0  0  0  0
  -25.4650  -33.9080   24.1520 N   0  0  0  0  0  0  0  0  0  0  0  0
  -25.7870  -34.9850   23.4220 C   0  0  0  0  0  0  0  0  0  0  0  0
  -26.4750  -34.9190   22.4000 O   0  0  0  0  0  0  0  0  0  0  0  0
  -24.8490  -34.0310   24.9420 H   0  0  0  0  0  0  0  0  0  0  0  0
  -24.0280  -36.7490   23.0670 C   0  0  0  0  0  1  0  0  0  0  0  0
  -25.2570  -36.3500   23.9000 C   0  0  0  0  0  3  0  0  0  0  0  0
  -27.3450  -37.2630   24.8130 C   0  0  0  0  0  1  0  0  0  0  0  0
  -26.2680  -37.4270   23.8400 N   0  0  0  0  0  0  0  0  0  0  0  0
  -25.8370  -38.3340   23.9940 H   0  0  0  0  0  0  0  0  0  0  0  0
  -26.3610  -31.7460   25.0550 C   0  0  1  0  0  0  0  0  0  0  0  0
  -25.2840  -31.4570   26.1260 C   0  0  0  0  0  1  0  0  0  0  0  0
  -26.9780  -30.3930   24.6280 C   0  0  0  0  0  1  0  0  0  0  0  0
  -27.4940  -32.5590   25.7240 C   0  0  0  0  0  1  0  0  0  0  0  0
  1 53  1  0
  2  1  1  0
  3  8  1  0
  3  1  2  0
  4  8  2  0
  4  7  1  0
  5  9  1  0
  6  9  2  0
  7  5  2  0
  8  6  1  0
  9 18  1  0
 10 18  1  0
 11 16  1  0
 12 13  1  0
 12 11  1  0
 14 13  1  0
 14 23  1  0
 14 15  1  0
 16 10  1  0
 16 15  1  0
 17 10  2  0
 18 19  1  0
 20 21  2  0
 21 40  1  0
 22 21  1  0
 22 25  1  0
 23 24  1  0
 23 20  1  0
 24 22  2  0
 25 26  1  0
 26 27  2  0
 28 31  1  0
 28 27  1  0
 29 28  2  0
 30 29  1  0
 30 25  2  0
 31 32  1  0
 32 33  1  0
 33 34  2  0
 35 34  1  0
 35 39  1  0
 36 35  2  0
 37 32  2  0
 37 36  1  0
 38 37  1  0
 40 41  1  0
 41 44  1  0
 41 43  1  0
 42 40  2  0
 45 46  1  0
 45 20  1  0
 47 45  1  0
 48 50  1  0
 48 49  1  0
 49 51  1  0
 50 51  1  0
 51  7  1  0
 53 54  1  0
 53 52  1  0
 55 58  1  0
 55 54  1  0
 58 56  1  1
 58 57  1  0
 59 61  1  0
 59 58  1  0
 60 71  2  0
 61 66  1  0
 62 70  1  0
 62 72  1  0
 63 69  1  0
 63 65  1  0
 64 70  1  0
 65 64  1  0
 66 65  2  0
 67 68  1  0
 67 61  2  0
 68 63  2  0
 69 62  1  0
 70 60  1  0
 72 74  2  0
 73 72  1  0
 75 73  1  0
 76 85  2  0
 76 81  1  0
 77 73  1  0
 77 81  1  0
 78 77  1  0
 79 80  1  0
 79 78  1  0
 80 76  1  0
 81 82  2  0
 82 83  1  0
 84 83  2  0
 85 84  1  0
 86 60  1  0
 86 87  1  0
 86 96  1  0
 87 90  1  0
 88 92  1  0
 88 87  1  0
 89 88  2  0
 92 91  1  0
 94 92  1  0
 94 95  1  0
 94 93  1  0
 96 99  1  1
 96 97  1  0
 98 96  1  0
M  ISO  4  10 100  18 100  58 101  59 101
M  END
>  <TORSDO>  (48) 
F 22

>  <SCORE>  (48) 
-12.876

>  <name>  (48) 
47

>  <ligand_id>  (48) 
47

>  <original_smiles>  (48) 
[H]c1c([H])c([H])c2c(c1[H])C([H])([H])C([H])([H])C([H])([H])C2([H])N([H])C(=O)C1([H])N(C(=O)C([H])(N([H])C(=O)C([H])(N([H])C([H])([H])[H])C([H])([H])[H])C(C([H])([H])[H])(C([H])([H])[H])C([H])([H])[H])C([H])([H])c2c([H])c(OC(C([H])([H])[H])(C([H])([H])[H])C([H])([H])C([H])([H])C([H])(C(=Nc3c([H])c(N([H])C(=O)N4C([H])([H])C([H])([H])C([H])([H])C([H])(n5nc(-c6c([H])c([H])c(Oc7c([H])c([H])c(F)c([H])c7F)c([H])c6[H])c(C(=O)N([H])[H])c5N([H])[H])C4([H])[H])c([H])c(C4([H])C([H])([H])C([H])([H])C4([H])[H])c3[H])C([H])([H])[H])C([H])([H])[H])c([H])c([H])c2C1([H])[H]

>  <smiles>  (48) 
[H]c1c([H])c([H])c2c(c1[H])C([H])([H])C([H])([H])C([H])([H])C2([H])N([H])C(=O)C1([H])N(C(=O)C([H])(N([H])C(=O)C([H])(N([H])C([H])([H])[H])C([H])([H])[H])C(C([H])([H])[H])(C([H])([H])[H])C([H])([H])[H])C([H])([H])c2c([H])c(OC(C([H])([H])[H])(C([H])([H])[H])C([H])([H])C([H])([H])C([H])(C(=Nc3c([H])c(N([H])C(=O)N4C([H])([H])C([H])([H])C([H])([H])C([H])(n5nc(-c6c([H])c([H])c(Oc7c([H])c([H])c(F)c([H])c7F)c([H])c6[H])c(C(=O)N([H])[H])c5N([H])[H])C4([H])[H])c([H])c(C4([H])C([H])([H])C([H])([H])C4([H])[H])c3[H])C([H])([H])[H])C([H])([H])[H])c([H])c([H])c2C1([H])[H]

$$$$
48:0:0
     RDKit          3D

 94102  0  0  1  0  0  0  0  0999 V2000
  -29.1170  -22.6860   18.8150 C   0  0  0  0  0  0  0  0  0  0  0  0
  -28.5560  -22.3220   17.7760 O   0  0  0  0  0  0  0  0  0  0  0  0
  -29.1220  -24.1530   19.2840 C   0  0  0  0  0  2  0  0  0  0  0  0
  -28.0140  -25.2170   17.1940 C   0  0  0  0  0  1  0  0  0  0  0  0
  -30.4990  -25.2120   17.4200 C   0  0  0  0  0  1  0  0  0  0  0  0
  -29.1750  -25.2960   18.2130 C   0  0  2  0  0  0  0  0  0  0  0  0
  -29.1520  -26.6830   18.9330 C   0  0  0  0  0  2  0  0  0  0  0  0
  -28.3790  -26.7140   20.1310 O   0  0  0  0  0  0  0  0  0  0  0  0
  -24.5930  -31.8770   23.2270 C   0  0  0  0  0  0  0  0  0  0  0  0
  -27.2310  -27.4650   20.1120 C   0  0  0  0  0  0  0  0  0  0  0  0
  -23.3800  -30.4770   21.5880 C   0  0  0  0  0  3  0  0  0  0  0  0
  -24.8300  -28.9470   20.1540 C   0  0  0  0  0  0  0  0  0  0  0  0
  -25.9030  -30.8460   21.3750 C   0  0  0  0  0  2  0  0  0  0  0  0
  -25.9900  -29.4770   20.7340 C   0  0  0  0  0  0  0  0  0  0  0  0
  -27.1960  -28.7400   20.7170 C   0  0  0  0  0  3  0  0  0  0  0  0
  -26.0500  -26.9320   19.5610 C   0  0  0  0  0  3  0  0  0  0  0  0
  -24.8530  -27.6700   19.5680 C   0  0  0  0  0  3  0  0  0  0  0  0
  -23.5830  -29.8010   20.2060 C   0  0  0  0  0  2  0  0  0  0  0  0
  -24.6440  -31.0800   22.1230 N   0  0  0  0  0  0  0  0  0  0  0  0
  -23.5150  -32.1460   23.7740 O   0  0  0  0  0  0  0  0  0  0  0  0
  -22.7350  -29.4530   22.5500 C   0  0  0  0  0  0  0  0  0  0  0  0
  -21.4100  -29.2710   22.4290 N   0  0  0  0  0  0  0  0  0  0  0  0
  -23.4240  -28.8250   23.3590 O   0  0  0  0  0  0  0  0  0  0  0  0
  -20.9180  -29.8300   21.7480 H   0  0  0  0  0  0  0  0  0  0  0  0
  -18.0380  -28.0780   22.9360 C   0  0  0  0  0  0  0  0  0  0  0  0
  -20.5970  -28.3320   23.2010 C   0  0  0  0  0  3  0  0  0  0  0  0
  -20.6960  -26.9020   22.6240 C   0  0  0  0  0  2  0  0  0  0  0  0
  -19.5910  -26.5820   21.6120 C   0  0  0  0  0  2  0  0  0  0  0  0
  -18.2110  -26.7290   22.2620 C   0  0  0  0  0  2  0  0  0  0  0  0
  -19.1590  -28.8390   23.3650 C   0  0  0  0  0  0  0  0  0  0  0  0
  -18.9440  -30.1030   23.9540 C   0  0  0  0  0  3  0  0  0  0  0  0
  -17.6410  -30.6070   24.1240 C   0  0  0  0  0  3  0  0  0  0  0  0
  -16.5350  -29.8440   23.7130 C   0  0  0  0  0  3  0  0  0  0  0  0
  -16.7340  -28.5820   23.1250 C   0  0  0  0  0  3  0  0  0  0  0  0
  -25.8830  -32.5070   23.8410 C   0  0  0  0  0  3  0  0  0  0  0  0
  -25.5740  -33.9020   24.1790 N   0  0  0  0  0  0  0  0  0  0  0  0
  -25.9030  -34.9580   23.4230 C   0  0  0  0  0  0  0  0  0  0  0  0
  -26.5690  -34.8600   22.3890 O   0  0  0  0  0  0  0  0  0  0  0  0
  -24.9830  -34.0520   24.9840 H   0  0  0  0  0  0  0  0  0  0  0  0
  -24.1720  -36.7500   23.0760 C   0  0  0  0  0  1  0  0  0  0  0  0
  -25.4140  -36.3440   23.8860 C   0  0  0  0  0  3  0  0  0  0  0  0
  -27.5500  -37.2240   24.7180 C   0  0  0  0  0  1  0  0  0  0  0  0
  -26.4460  -37.3980   23.7780 N   0  0  0  0  0  0  0  0  0  0  0  0
  -26.0400  -38.3180   23.9320 H   0  0  0  0  0  0  0  0  0  0  0  0
  -26.4150  -31.7280   25.1050 C   0  0  1  0  0  0  0  0  0  0  0  0
  -25.3340  -31.4790   26.1830 C   0  0  0  0  0  1  0  0  0  0  0  0
  -26.9960  -30.3550   24.6940 C   0  0  0  0  0  1  0  0  0  0  0  0
  -27.5710  -32.5190   25.7610 C   0  0  0  0  0  1  0  0  0  0  0  0
  -29.7730  -21.6420   19.7380 C   0  0  0  0  0  2  0  0  0  0  0  0
  -29.1100  -20.3380   19.6540 N   0  0  0  0  0  0  0  0  0  0  0  0
  -28.2120  -20.3480   19.1720 H   0  0  0  0  0  0  0  0  0  0  0  0
  -31.1710  -17.5840   21.0160 C   0  0  0  0  0  3  0  0  0  0  0  0
  -30.9530  -18.9460   20.6380 C   0  0  0  0  0  3  0  0  0  0  0  0
  -30.0760  -16.7730   20.8340 C   0  0  0  0  0  0  0  0  0  0  0  0
  -29.6900  -19.1710   20.1510 C   0  0  0  0  0  0  0  0  0  0  0  0
  -28.7380  -17.7080   20.2050 S   0  0  0  0  0  0  0  0  0  0  0  0
  -30.6570  -14.4610   20.5250 C   0  0  0  0  0  0  0  0  0  0  0  0
  -30.3730  -12.3130   19.3520 C   0  0  0  0  0  2  0  0  0  0  0  0
  -29.4370  -12.5440   18.1480 C   0  0  0  0  0  2  0  0  0  0  0  0
  -27.9590  -12.4080   18.5670 C   0  0  0  0  0  2  0  0  0  0  0  0
  -27.6180  -13.2260   19.8410 C   0  0  0  0  0  3  0  0  0  0  0  0
  -28.6650  -12.9750   20.9490 C   0  0  0  0  0  2  0  0  0  0  0  0
  -29.9970  -13.2790   20.3950 N   0  0  0  0  0  0  0  0  0  0  0  0
  -31.7830  -14.6610   20.0560 O   0  0  0  0  0  0  0  0  0  0  0  0
  -29.9340  -15.4450   21.0860 N   0  0  0  0  0  0  0  0  0  0  0  0
  -29.0180  -15.1470   21.3890 H   0  0  0  0  0  0  0  0  0  0  0  0
  -25.2120  -13.8370   20.5290 C   0  0  0  0  0  0  0  0  0  0  0  0
  -24.1420  -13.0640   20.8950 C   0  0  0  0  0  0  0  0  0  0  0  0
  -24.6050  -11.7130   20.8720 C   0  0  0  0  0  0  0  0  0  0  0  0
  -26.2600  -12.9550   20.3080 N   0  0  0  0  0  0  0  0  0  0  0  0
  -25.8960  -11.6730   20.5700 N   0  0  0  0  0  0  0  0  0  0  0  0
  -23.8790  -10.4510   21.0620 C   0  0  0  0  0  0  0  0  0  0  0  0
  -24.3180   -9.4800   21.9890 C   0  0  0  0  0  3  0  0  0  0  0  0
  -23.5940   -8.2810   22.1680 C   0  0  0  0  0  3  0  0  0  0  0  0
  -22.4160   -8.0450   21.4200 C   0  0  0  0  0  0  0  0  0  0  0  0
  -21.9960   -9.0050   20.4820 C   0  0  0  0  0  3  0  0  0  0  0  0
  -22.7210  -10.1960   20.3020 C   0  0  0  0  0  3  0  0  0  0  0  0
  -21.6620   -6.9000   21.5080 O   0  0  0  0  0  0  0  0  0  0  0  0
  -21.6330   -6.1440   22.6530 C   0  0  0  0  0  0  0  0  0  0  0  0
  -21.2380   -6.6870   23.8960 C   0  0  0  0  0  3  0  0  0  0  0  0
  -21.1550   -5.8580   25.0320 C   0  0  0  0  0  3  0  0  0  0  0  0
  -21.4580   -4.4870   24.9260 C   0  0  0  0  0  0  0  0  0  0  0  0
  -21.8450   -3.9430   23.6890 C   0  0  0  0  0  3  0  0  0  0  0  0
  -21.9290   -4.7700   22.5550 C   0  0  0  0  0  0  0  0  0  0  0  0
  -22.2830   -4.2370   21.3610 F   0  0  0  0  0  0  0  0  0  0  0  0
  -21.3700   -3.6880   26.0160 F   0  0  0  0  0  0  0  0  0  0  0  0
  -22.7420  -13.5400   21.1580 C   0  0  0  0  0  0  0  0  0  0  0  0
  -22.0090  -12.8460   22.0220 N   0  0  0  0  0  0  0  0  0  0  0  0
  -22.3060  -14.5630   20.6320 O   0  0  0  0  0  0  0  0  0  0  0  0
  -22.3730  -12.0200   22.4720 H   0  0  0  0  0  0  0  0  0  0  0  0
  -21.0690  -13.1470   22.2360 H   0  0  0  0  0  0  0  0  0  0  0  0
  -25.3750  -15.2070   20.3460 N   0  0  0  0  0  0  0  0  0  0  0  0
  -24.6010  -15.8570   20.4360 H   0  0  0  0  0  0  0  0  0  0  0  0
  -26.2220  -15.6480   20.0090 H   0  0  0  0  0  0  0  0  0  0  0  0
  1  3  1  0
  1 49  1  0
  2  1  2  0
  6  4  1  6
  5  6  1  0
  6  7  1  0
  6  3  1  0
  7  8  1  0
  9 20  2  0
 10  8  1  0
 10 15  1  0
 11 19  1  0
 11 21  1  0
 12 18  1  0
 12 14  1  0
 13 19  1  0
 14 13  1  0
 15 14  2  0
 16 17  1  0
 16 10  2  0
 17 12  2  0
 18 11  1  0
 19  9  1  0
 21 23  2  0
 22 21  1  0
 24 22  1  0
 25 34  2  0
 25 30  1  0
 26 22  1  0
 26 30  1  0
 27 26  1  0
 28 29  1  0
 28 27  1  0
 29 25  1  0
 30 31  2  0
 31 32  1  0
 33 32  2  0
 34 33  1  0
 35  9  1  0
 35 36  1  0
 35 45  1  0
 36 39  1  0
 37 41  1  0
 37 36  1  0
 38 37  2  0
 41 40  1  0
 43 41  1  0
 43 44  1  0
 43 42  1  0
 45 48  1  1
 45 46  1  0
 47 45  1  0
 50 49  1  0
 50 55  1  0
 51 50  1  0
 53 52  1  0
 54 52  2  0
 54 65  1  0
 55 56  1  0
 55 53  2  0
 56 54  1  0
 57 65  1  0
 58 63  1  0
 59 60  1  0
 59 58  1  0
 61 60  1  0
 61 70  1  0
 61 62  1  0
 63 57  1  0
 63 62  1  0
 64 57  2  0
 65 66  1  0
 67 68  2  0
 68 87  1  0
 69 68  1  0
 69 72  1  0
 70 67  1  0
 70 71  1  0
 71 69  2  0
 72 73  1  0
 73 74  2  0
 75 78  1  0
 75 74  1  0
 76 75  2  0
 77 76  1  0
 77 72  2  0
 78 79  1  0
 79 80  1  0
 80 81  2  0
 82 81  1  0
 82 86  1  0
 83 82  2  0
 84 79  2  0
 84 83  1  0
 85 84  1  0
 87 88  1  0
 88 91  1  0
 88 90  1  0
 89 87  2  0
 92 93  1  0
 92 67  1  0
 94 92  1  0
M  ISO  4   7 101   8 101  57 100  65 100
M  END
>  <TORSDO>  (49) 
F 22

>  <SCORE>  (49) 
-13.285

>  <name>  (49) 
48

>  <ligand_id>  (49) 
48

>  <original_smiles>  (49) 
[H]c1c(N([H])C(=O)N2C([H])([H])C([H])([H])C([H])([H])C([H])(n3nc(-c4c([H])c([H])c(Oc5c([H])c([H])c(F)c([H])c5F)c([H])c4[H])c(C(=O)N([H])[H])c3N([H])[H])C2([H])[H])sc(N([H])C([H])([H])C(=O)C([H])([H])C(C([H])([H])[H])(C([H])([H])[H])C([H])([H])Oc2c([H])c([H])c3c(c2[H])C([H])([H])N(C(=O)C([H])(N([H])C(=O)C([H])(N([H])C([H])([H])[H])C([H])([H])[H])C(C([H])([H])[H])(C([H])([H])[H])C([H])([H])[H])C([H])(C(=O)N([H])C2([H])c4c([H])c([H])c([H])c([H])c4C([H])([H])C([H])([H])C2([H])[H])C3([H])[H])c1[H]

>  <smiles>  (49) 
[H]c1c(N([H])C(=O)N2C([H])([H])C([H])([H])C([H])([H])C([H])(n3nc(-c4c([H])c([H])c(Oc5c([H])c([H])c(F)c([H])c5F)c([H])c4[H])c(C(=O)N([H])[H])c3N([H])[H])C2([H])[H])sc(N([H])C([H])([H])C(=O)C([H])([H])C(C([H])([H])[H])(C([H])([H])[H])C([H])([H])Oc2c([H])c([H])c3c(c2[H])C([H])([H])N(C(=O)C([H])(N([H])C(=O)C([H])(N([H])C([H])([H])[H])C([H])([H])[H])C(C([H])([H])[H])(C([H])([H])[H])C([H])([H])[H])C([H])(C(=O)N([H])C2([H])c4c([H])c([H])c([H])c([H])c4C([H])([H])C([H])([H])C2([H])[H])C3([H])[H])c1[H]

$$$$
49:0:0
     RDKit          3D

101109  0  0  1  0  0  0  0  0999 V2000
  -30.6200  -19.8250   22.9700 O   0  0  0  0  0  0  0  0  0  0  0  0
  -29.6990  -17.0710   19.9430 C   0  0  0  0  0  3  0  0  0  0  0  0
  -30.7500  -17.6340   22.0610 C   0  0  0  0  0  3  0  0  0  0  0  0
  -29.1440  -18.3650   19.8360 C   0  0  0  0  0  0  0  0  0  0  0  0
  -30.4540  -16.6810   21.0670 C   0  0  0  0  0  0  0  0  0  0  0  0
  -30.2650  -18.9560   21.9580 C   0  0  0  0  0  0  0  0  0  0  0  0
  -29.3920  -19.2910   20.8900 C   0  0  0  0  0  0  0  0  0  0  0  0
  -31.2180  -14.5070   20.2800 C   0  0  0  0  0  0  0  0  0  0  0  0
  -30.7860  -12.4200   19.0360 C   0  0  0  0  0  2  0  0  0  0  0  0
  -29.8240  -12.6910   17.8610 C   0  0  0  0  0  2  0  0  0  0  0  0
  -28.3560  -12.5980   18.3150 C   0  0  0  0  0  2  0  0  0  0  0  0
  -28.0790  -13.4250   19.5960 C   0  0  0  0  0  3  0  0  0  0  0  0
  -29.1420  -13.1310   20.6810 C   0  0  0  0  0  2  0  0  0  0  0  0
  -30.4870  -13.3720   20.1160 N   0  0  0  0  0  0  0  0  0  0  0  0
  -32.2220  -14.7780   19.6150 O   0  0  0  0  0  0  0  0  0  0  0  0
  -30.7950  -15.3190   21.2580 N   0  0  0  0  0  0  0  0  0  0  0  0
  -30.2240  -14.8450   21.9410 H   0  0  0  0  0  0  0  0  0  0  0  0
  -25.7260  -14.1340   20.3750 C   0  0  0  0  0  0  0  0  0  0  0  0
  -24.6270  -13.4060   20.7440 C   0  0  0  0  0  0  0  0  0  0  0  0
  -25.0180  -12.0340   20.6570 C   0  0  0  0  0  0  0  0  0  0  0  0
  -26.7200  -13.2090   20.0920 N   0  0  0  0  0  0  0  0  0  0  0  0
  -26.2960  -11.9390   20.3150 N   0  0  0  0  0  0  0  0  0  0  0  0
  -24.2340  -10.8040   20.8220 C   0  0  0  0  0  0  0  0  0  0  0  0
  -24.6220   -9.8010   21.7380 C   0  0  0  0  0  3  0  0  0  0  0  0
  -23.8430   -8.6340   21.8920 C   0  0  0  0  0  3  0  0  0  0  0  0
  -22.6620   -8.4630   21.1300 C   0  0  0  0  0  0  0  0  0  0  0  0
  -22.2940   -9.4530   20.2040 C   0  0  0  0  0  3  0  0  0  0  0  0
  -23.0730  -10.6130   20.0470 C   0  0  0  0  0  3  0  0  0  0  0  0
  -21.8590   -7.3510   21.1930 O   0  0  0  0  0  0  0  0  0  0  0  0
  -21.7420   -6.6140   22.3450 C   0  0  0  0  0  0  0  0  0  0  0  0
  -21.3050   -7.1890   23.5580 C   0  0  0  0  0  3  0  0  0  0  0  0
  -21.1320   -6.3790   24.6980 C   0  0  0  0  0  3  0  0  0  0  0  0
  -21.3850   -4.9960   24.6270 C   0  0  0  0  0  0  0  0  0  0  0  0
  -21.8130   -4.4200   23.4180 C   0  0  0  0  0  3  0  0  0  0  0  0
  -21.9880   -5.2270   22.2790 C   0  0  0  0  0  0  0  0  0  0  0  0
  -22.3800   -4.6630   21.1120 F   0  0  0  0  0  0  0  0  0  0  0  0
  -21.2120   -4.2170   25.7200 F   0  0  0  0  0  0  0  0  0  0  0  0
  -23.2620  -13.9410   21.0690 C   0  0  0  0  0  0  0  0  0  0  0  0
  -22.5270  -13.2600   21.9420 N   0  0  0  0  0  0  0  0  0  0  0  0
  -22.8560  -14.9970   20.5850 O   0  0  0  0  0  0  0  0  0  0  0  0
  -22.8670  -12.4050   22.3580 H   0  0  0  0  0  0  0  0  0  0  0  0
  -21.6100  -13.5980   22.1990 H   0  0  0  0  0  0  0  0  0  0  0  0
  -25.9540  -15.5010   20.2400 N   0  0  0  0  0  0  0  0  0  0  0  0
  -25.2260  -16.1890   20.3990 H   0  0  0  0  0  0  0  0  0  0  0  0
  -26.8150  -15.9110   19.9090 H   0  0  0  0  0  0  0  0  0  0  0  0
  -28.2780  -18.6550   18.6510 C   0  0  0  0  0  0  0  0  0  0  0  0
  -28.7390  -18.1210   17.3070 C   0  0  0  0  0  1  0  0  0  0  0  0
  -27.2040  -19.3220   18.7040 N   0  0  0  0  0  0  0  0  0  0  0  0
  -27.0540  -19.6540   19.6530 H   0  0  0  0  0  0  0  0  0  0  0  0
  -28.7410  -20.4890   20.9290 O   0  0  0  0  0  0  0  0  0  0  0  0
  -28.8650  -20.9310   21.7620 H   0  0  0  0  0  0  0  0  0  0  0  0
  -31.0170  -21.1660   22.6540 C   0  0  0  0  0  2  0  0  0  0  0  0
  -29.8800  -23.3900   23.2450 C   0  0  0  0  0  3  0  0  0  0  0  0
  -30.3480  -22.1700   23.5900 C   0  0  0  0  0  0  0  0  0  0  0  0
  -30.2380  -21.7040   25.0330 C   0  0  0  0  0  1  0  0  0  0  0  0
  -29.8870  -24.0870   21.8840 C   0  0  0  0  0  2  0  0  0  0  0  0
  -27.7680  -25.3790   22.5080 C   0  0  0  0  0  1  0  0  0  0  0  0
  -27.6090  -23.3990   21.0170 C   0  0  0  0  0  1  0  0  0  0  0  0
  -28.4990  -24.5990   21.3860 C   0  0  2  0  0  0  0  0  0  0  0  0
  -28.7020  -25.4560   20.0860 C   0  0  0  0  0  2  0  0  0  0  0  0
  -28.6770  -26.8810   20.2580 O   0  0  0  0  0  0  0  0  0  0  0  0
  -24.6370  -31.9000   23.2150 C   0  0  0  0  0  0  0  0  0  0  0  0
  -27.4760  -27.5600   20.1690 C   0  0  0  0  0  0  0  0  0  0  0  0
  -23.5110  -30.4830   21.5280 C   0  0  0  0  0  3  0  0  0  0  0  0
  -25.0400  -29.0010   20.1300 C   0  0  0  0  0  0  0  0  0  0  0  0
  -26.0320  -30.9090   21.4040 C   0  0  0  0  0  2  0  0  0  0  0  0
  -26.1680  -29.5490   20.7510 C   0  0  0  0  0  0  0  0  0  0  0  0
  -27.3860  -28.8370   20.7670 C   0  0  0  0  0  3  0  0  0  0  0  0
  -26.3270  -27.0300   19.5320 C   0  0  0  0  0  3  0  0  0  0  0  0
  -25.1150  -27.7390   19.5190 C   0  0  0  0  0  3  0  0  0  0  0  0
  -23.7740  -29.8240   20.1490 C   0  0  0  0  0  2  0  0  0  0  0  0
  -24.7430  -31.1110   22.1080 N   0  0  0  0  0  0  0  0  0  0  0  0
  -23.5340  -32.1410   23.7240 O   0  0  0  0  0  0  0  0  0  0  0  0
  -22.8620  -29.4360   22.4610 C   0  0  0  0  0  0  0  0  0  0  0  0
  -21.5450  -29.2290   22.3000 N   0  0  0  0  0  0  0  0  0  0  0  0
  -23.5390  -28.8160   23.2850 O   0  0  0  0  0  0  0  0  0  0  0  0
  -21.0610  -29.7860   21.6100 H   0  0  0  0  0  0  0  0  0  0  0  0
  -18.1810  -27.9740   22.7100 C   0  0  0  0  0  0  0  0  0  0  0  0
  -20.7290  -28.2680   23.0400 C   0  0  0  0  0  3  0  0  0  0  0  0
  -20.8660  -26.8470   22.4460 C   0  0  0  0  0  2  0  0  0  0  0  0
  -19.7910  -26.5210   21.4040 C   0  0  0  0  0  2  0  0  0  0  0  0
  -18.3940  -26.6360   22.0210 C   0  0  0  0  0  2  0  0  0  0  0  0
  -19.2790  -28.7470   23.1740 C   0  0  0  0  0  0  0  0  0  0  0  0
  -19.0280  -30.0000   23.7750 C   0  0  0  0  0  3  0  0  0  0  0  0
  -17.7130  -30.4790   23.9190 C   0  0  0  0  0  3  0  0  0  0  0  0
  -16.6290  -29.7030   23.4720 C   0  0  0  0  0  3  0  0  0  0  0  0
  -16.8650  -28.4520   22.8730 C   0  0  0  0  0  3  0  0  0  0  0  0
  -25.8910  -32.5560   23.8740 C   0  0  0  0  0  3  0  0  0  0  0  0
  -25.5450  -33.9480   24.1890 N   0  0  0  0  0  0  0  0  0  0  0  0
  -25.8810  -35.0040   23.4360 C   0  0  0  0  0  0  0  0  0  0  0  0
  -26.5870  -34.9100   22.4280 O   0  0  0  0  0  0  0  0  0  0  0  0
  -24.9220  -34.0950   24.9690 H   0  0  0  0  0  0  0  0  0  0  0  0
  -24.1280  -36.7570   23.0160 C   0  0  0  0  0  1  0  0  0  0  0  0
  -25.3500  -36.3830   23.8700 C   0  0  0  0  0  3  0  0  0  0  0  0
  -27.4380  -37.3160   24.7650 C   0  0  0  0  0  1  0  0  0  0  0  0
  -26.3640  -37.4570   23.7860 N   0  0  0  0  0  0  0  0  0  0  0  0
  -25.9340  -38.3690   23.9150 H   0  0  0  0  0  0  0  0  0  0  0  0
  -26.3820  -31.7970   25.1680 C   0  0  1  0  0  0  0  0  0  0  0  0
  -25.2610  -31.5360   26.2000 C   0  0  0  0  0  1  0  0  0  0  0  0
  -27.0070  -30.4320   24.7940 C   0  0  0  0  0  1  0  0  0  0  0  0
  -27.4920  -32.6170   25.8680 C   0  0  0  0  0  1  0  0  0  0  0  0
  2  5  1  0
  4  2  2  0
  4  7  1  0
  5 16  1  0
  5  3  2  0
  6  3  1  0
  6  1  1  0
  7 50  1  0
  7  6  2  0
  8 16  1  0
  9 14  1  0
 10 11  1  0
 10  9  1  0
 12 11  1  0
 12 21  1  0
 12 13  1  0
 14  8  1  0
 14 13  1  0
 15  8  2  0
 16 17  1  0
 18 19  2  0
 19 38  1  0
 20 19  1  0
 20 23  1  0
 21 22  1  0
 21 18  1  0
 22 20  2  0
 23 24  1  0
 24 25  2  0
 26 29  1  0
 26 25  1  0
 27 26  2  0
 28 27  1  0
 28 23  2  0
 29 30  1  0
 30 31  1  0
 31 32  2  0
 33 32  1  0
 33 37  1  0
 34 33  2  0
 35 30  2  0
 35 34  1  0
 36 35  1  0
 38 39  1  0
 39 42  1  0
 39 41  1  0
 40 38  2  0
 43 18  1  0
 43 44  1  0
 45 43  1  0
 46 48  2  0
 46  4  1  0
 47 46  1  0
 48 49  1  0
 50 51  1  0
 52  1  1  0
 52 54  1  0
 53 54  2  0
 54 55  1  0
 56 53  1  0
 59 58  1  6
 59 56  1  0
 59 57  1  0
 60 61  1  0
 60 59  1  0
 62 73  2  0
 63 61  1  0
 63 68  1  0
 64 72  1  0
 64 74  1  0
 65 71  1  0
 65 67  1  0
 66 72  1  0
 67 68  2  0
 67 66  1  0
 69 63  2  0
 70 69  1  0
 70 65  2  0
 71 64  1  0
 72 62  1  0
 74 76  2  0
 75 74  1  0
 77 75  1  0
 78 87  2  0
 78 83  1  0
 79 75  1  0
 79 83  1  0
 80 79  1  0
 81 82  1  0
 81 80  1  0
 82 78  1  0
 83 84  2  0
 84 85  1  0
 86 85  2  0
 87 86  1  0
 88 62  1  0
 88 89  1  0
 88 98  1  0
 89 92  1  0
 90 94  1  0
 90 89  1  0
 91 90  2  0
 94 93  1  0
 96 94  1  0
 96 97  1  0
 96 95  1  0
 98101  1  1
 98 99  1  0
100 98  1  0
M  ISO  4   8 100  16 100  60 101  61 101
M  END
>  <TORSDO>  (50) 
F 24

>  <SCORE>  (50) 
-12.794

>  <name>  (50) 
49

>  <ligand_id>  (50) 
49

>  <original_smiles>  (50) 
[H]N=C(c1c([H])c(N([H])C(=O)N2C([H])([H])C([H])([H])C([H])([H])C([H])(n3nc(-c4c([H])c([H])c(Oc5c([H])c([H])c(F)c([H])c5F)c([H])c4[H])c(C(=O)N([H])[H])c3N([H])[H])C2([H])[H])c([H])c(OC([H])([H])C(=C([H])C([H])([H])C(C([H])([H])[H])(C([H])([H])[H])C([H])([H])Oc2c([H])c([H])c3c(c2[H])C([H])([H])N(C(=O)C([H])(N([H])C(=O)C([H])(N([H])C([H])([H])[H])C([H])([H])[H])C(C([H])([H])[H])(C([H])([H])[H])C([H])([H])[H])C([H])(C(=O)N([H])C2([H])c4c([H])c([H])c([H])c([H])c4C([H])([H])C([H])([H])C2([H])[H])C3([H])[H])C([H])([H])[H])c1O[H])C([H])([H])[H]

>  <smiles>  (50) 
[H]N=C(c1c([H])c(N([H])C(=O)N2C([H])([H])C([H])([H])C([H])([H])C([H])(n3nc(-c4c([H])c([H])c(Oc5c([H])c([H])c(F)c([H])c5F)c([H])c4[H])c(C(=O)N([H])[H])c3N([H])[H])C2([H])[H])c([H])c(OC([H])([H])C(=C([H])C([H])([H])C(C([H])([H])[H])(C([H])([H])[H])C([H])([H])Oc2c([H])c([H])c3c(c2[H])C([H])([H])N(C(=O)C([H])(N([H])C(=O)C([H])(N([H])C([H])([H])[H])C([H])([H])[H])C(C([H])([H])[H])(C([H])([H])[H])C([H])([H])[H])C([H])(C(=O)N([H])C2([H])c4c([H])c([H])c([H])c([H])c4C([H])([H])C([H])([H])C2([H])[H])C3([H])[H])C([H])([H])[H])c1O[H])C([H])([H])[H]

$$$$
50:0:0
     RDKit          3D

 96104  0  0  1  0  0  0  0  0999 V2000
  -30.3900  -18.7740   20.8400 C   0  0  0  0  0  3  0  0  0  0  0  0
  -31.6260  -17.3390   18.7800 C   0  0  0  0  0  3  0  0  0  0  0  0
  -30.3270  -17.3540   20.8590 C   0  0  0  0  0  0  0  0  0  0  0  0
  -31.0620  -19.4780   19.8180 C   0  0  0  0  0  0  0  0  0  0  0  0
  -30.9410  -16.6160   19.7930 C   0  0  0  0  0  0  0  0  0  0  0  0
  -31.6980  -18.7460   18.8000 C   0  0  0  0  0  0  0  0  0  0  0  0
  -32.3790  -19.4010   17.8270 F   0  0  0  0  0  0  0  0  0  0  0  0
  -31.2120  -14.2700   18.8380 C   0  0  0  0  0  0  0  0  0  0  0  0
  -30.4760  -12.2070   17.6930 C   0  0  0  0  0  2  0  0  0  0  0  0
  -29.2710  -12.5380   16.7860 C   0  0  0  0  0  2  0  0  0  0  0  0
  -27.9470  -12.4880   17.5760 C   0  0  0  0  0  2  0  0  0  0  0  0
  -28.0170  -13.2760   18.9110 C   0  0  0  0  0  3  0  0  0  0  0  0
  -29.2870  -12.8780   19.6940 C   0  0  0  0  0  2  0  0  0  0  0  0
  -30.4560  -13.1380   18.8310 N   0  0  0  0  0  0  0  0  0  0  0  0
  -32.1390  -14.4530   18.0430 O   0  0  0  0  0  0  0  0  0  0  0  0
  -30.8360  -15.1790   19.7610 N   0  0  0  0  0  0  0  0  0  0  0  0
  -30.1880  -14.8050   20.4440 H   0  0  0  0  0  0  0  0  0  0  0  0
  -26.0050  -14.0340   20.3300 C   0  0  0  0  0  0  0  0  0  0  0  0
  -24.9640  -13.3380   20.8850 C   0  0  0  0  0  0  0  0  0  0  0  0
  -25.1870  -11.9660   20.5550 C   0  0  0  0  0  0  0  0  0  0  0  0
  -26.8070  -13.0880   19.7100 N   0  0  0  0  0  0  0  0  0  0  0  0
  -26.3300  -11.8310   19.8940 N   0  0  0  0  0  0  0  0  0  0  0  0
  -24.3520  -10.7800   20.7820 C   0  0  0  0  0  0  0  0  0  0  0  0
  -24.7410   -9.7650   21.6840 C   0  0  0  0  0  3  0  0  0  0  0  0
  -23.9130   -8.6430   21.8980 C   0  0  0  0  0  3  0  0  0  0  0  0
  -22.6810   -8.5280   21.2110 C   0  0  0  0  0  0  0  0  0  0  0  0
  -22.3090   -9.5290   20.2970 C   0  0  0  0  0  3  0  0  0  0  0  0
  -23.1370  -10.6440   20.0800 C   0  0  0  0  0  3  0  0  0  0  0  0
  -21.8230   -7.4610   21.3370 O   0  0  0  0  0  0  0  0  0  0  0  0
  -21.5480   -6.9000   22.5580 C   0  0  0  0  0  0  0  0  0  0  0  0
  -21.0060   -7.6560   23.6200 C   0  0  0  0  0  3  0  0  0  0  0  0
  -20.6730   -7.0240   24.8350 C   0  0  0  0  0  3  0  0  0  0  0  0
  -20.8700   -5.6400   24.9870 C   0  0  0  0  0  0  0  0  0  0  0  0
  -21.4050   -4.8840   23.9280 C   0  0  0  0  0  3  0  0  0  0  0  0
  -21.7390   -5.5120   22.7160 C   0  0  0  0  0  0  0  0  0  0  0  0
  -22.2340   -4.7760   21.6920 F   0  0  0  0  0  0  0  0  0  0  0  0
  -20.5430   -5.0310   26.1510 F   0  0  0  0  0  0  0  0  0  0  0  0
  -23.7780  -13.9190   21.6000 C   0  0  0  0  0  0  0  0  0  0  0  0
  -23.2410  -13.2000   22.5790 N   0  0  0  0  0  0  0  0  0  0  0  0
  -23.3500  -15.0380   21.3240 O   0  0  0  0  0  0  0  0  0  0  0  0
  -23.6030  -12.2890   22.8180 H   0  0  0  0  0  0  0  0  0  0  0  0
  -22.4540  -13.5660   23.0970 H   0  0  0  0  0  0  0  0  0  0  0  0
  -26.3260  -15.3880   20.2840 N   0  0  0  0  0  0  0  0  0  0  0  0
  -25.7280  -16.1020   20.6880 H   0  0  0  0  0  0  0  0  0  0  0  0
  -27.1350  -15.7670   19.8120 H   0  0  0  0  0  0  0  0  0  0  0  0
  -30.3140  -21.8350   20.1920 C   0  0  0  0  0  0  0  0  0  0  0  0
  -31.2020  -20.8970   19.8110 N   0  0  0  0  0  0  0  0  0  0  0  0
  -29.1350  -21.5880   20.4550 O   0  0  0  0  0  0  0  0  0  0  0  0
  -32.0800  -21.2380   19.4430 H   0  0  0  0  0  0  0  0  0  0  0  0
  -30.8240  -23.2820   20.2960 C   0  0  0  0  0  2  0  0  0  0  0  0
  -30.0030  -24.3220   19.4960 C   0  0  0  0  0  2  0  0  0  0  0  0
  -30.2460  -25.7670   19.9820 C   0  0  0  0  0  2  0  0  0  0  0  0
  -29.7490  -26.7200   19.0470 O   0  0  0  0  0  0  0  0  0  0  0  0
  -25.2010  -30.7440   22.8060 C   0  0  0  0  0  0  0  0  0  0  0  0
  -28.4660  -27.1620   19.2530 C   0  0  0  0  0  0  0  0  0  0  0  0
  -24.1890  -29.2360   21.1230 C   0  0  0  0  0  3  0  0  0  0  0  0
  -25.8240  -28.1210   19.5140 C   0  0  0  0  0  0  0  0  0  0  0  0
  -26.5700  -30.1180   20.8210 C   0  0  0  0  0  2  0  0  0  0  0  0
  -26.8870  -28.8350   20.0810 C   0  0  0  0  0  0  0  0  0  0  0  0
  -28.2120  -28.3630   19.9530 C   0  0  0  0  0  3  0  0  0  0  0  0
  -27.3920  -26.4490   18.6880 C   0  0  0  0  0  3  0  0  0  0  0  0
  -26.0700  -26.9210   18.8180 C   0  0  0  0  0  3  0  0  0  0  0  0
  -24.4390  -28.7020   19.6870 C   0  0  0  0  0  2  0  0  0  0  0  0
  -25.3380  -30.0470   21.6430 N   0  0  0  0  0  0  0  0  0  0  0  0
  -24.1270  -30.7540   23.4240 O   0  0  0  0  0  0  0  0  0  0  0  0
  -23.8220  -28.0440   22.0350 C   0  0  0  0  0  0  0  0  0  0  0  0
  -22.5880  -27.5360   21.8850 N   0  0  0  0  0  0  0  0  0  0  0  0
  -24.6430  -27.5780   22.8300 O   0  0  0  0  0  0  0  0  0  0  0  0
  -21.9720  -27.9790   21.2180 H   0  0  0  0  0  0  0  0  0  0  0  0
  -19.6410  -25.4810   22.2650 C   0  0  0  0  0  0  0  0  0  0  0  0
  -22.0360  -26.3880   22.6050 C   0  0  0  0  0  3  0  0  0  0  0  0
  -22.5190  -25.0580   21.9820 C   0  0  0  0  0  2  0  0  0  0  0  0
  -21.5540  -24.4970   20.9330 C   0  0  0  0  0  2  0  0  0  0  0  0
  -20.1740  -24.2510   21.5500 C   0  0  0  0  0  2  0  0  0  0  0  0
  -20.5150  -26.4920   22.7470 C   0  0  0  0  0  0  0  0  0  0  0  0
  -19.9640  -27.6320   23.3710 C   0  0  0  0  0  3  0  0  0  0  0  0
  -18.5710  -27.7700   23.5210 C   0  0  0  0  0  3  0  0  0  0  0  0
  -17.7120  -26.7570   23.0590 C   0  0  0  0  0  3  0  0  0  0  0  0
  -18.2470  -25.6160   22.4360 C   0  0  0  0  0  3  0  0  0  0  0  0
  -26.3760  -31.5780   23.4050 C   0  0  0  0  0  3  0  0  0  0  0  0
  -25.8410  -32.8950   23.7710 N   0  0  0  0  0  0  0  0  0  0  0  0
  -25.9780  -34.0050   23.0320 C   0  0  0  0  0  0  0  0  0  0  0  0
  -26.6410  -34.0380   21.9920 O   0  0  0  0  0  0  0  0  0  0  0  0
  -25.2420  -32.9290   24.5830 H   0  0  0  0  0  0  0  0  0  0  0  0
  -23.9800  -35.4960   22.7170 C   0  0  0  0  0  1  0  0  0  0  0  0
  -25.2680  -35.2780   23.5260 C   0  0  0  0  0  3  0  0  0  0  0  0
  -27.2140  -36.4850   24.4120 C   0  0  0  0  0  1  0  0  0  0  0  0
  -26.1130  -36.4890   23.4520 N   0  0  0  0  0  0  0  0  0  0  0  0
  -25.5580  -37.3260   23.6100 H   0  0  0  0  0  0  0  0  0  0  0  0
  -27.0610  -30.8870   24.6480 C   0  0  1  0  0  0  0  0  0  0  0  0
  -26.0580  -30.3970   25.7170 C   0  0  0  0  0  1  0  0  0  0  0  0
  -27.9040  -29.6720   24.1970 C   0  0  0  0  0  1  0  0  0  0  0  0
  -28.0370  -31.8770   25.3260 C   0  0  0  0  0  1  0  0  0  0  0  0
  -29.5940  -16.6980   22.0020 C   0  0  0  0  0  0  0  0  0  0  0  0
  -30.0130  -17.0480   23.4270 C   0  0  0  0  0  1  0  0  0  0  0  0
  -28.6900  -15.8720   21.8570 O   0  0  0  0  0  0  0  0  0  0  0  0
  1  3  1  0
  2  6  2  0
  2  5  1  0
  3 94  1  0
  4  1  2  0
  5  3  2  0
  6  4  1  0
  7  6  1  0
  8 16  1  0
  9 14  1  0
 10 11  1  0
 10  9  1  0
 12 11  1  0
 12 13  1  0
 12 21  1  0
 14  8  1  0
 14 13  1  0
 15  8  2  0
 16  5  1  0
 16 17  1  0
 18 19  2  0
 19 38  1  0
 20 23  1  0
 20 19  1  0
 21 22  1  0
 21 18  1  0
 22 20  2  0
 23 24  1  0
 24 25  2  0
 26 29  1  0
 26 25  1  0
 27 26  2  0
 28 27  1  0
 28 23  2  0
 29 30  1  0
 30 35  2  0
 30 31  1  0
 31 32  2  0
 32 33  1  0
 33 37  1  0
 34 33  2  0
 35 34  1  0
 36 35  1  0
 38 39  1  0
 39 41  1  0
 39 42  1  0
 40 38  2  0
 43 18  1  0
 43 44  1  0
 45 43  1  0
 46 50  1  0
 46 48  2  0
 47  4  1  0
 47 46  1  0
 49 47  1  0
 51 52  1  0
 51 50  1  0
 53 55  1  0
 53 52  1  0
 54 65  2  0
 55 60  1  0
 56 64  1  0
 56 66  1  0
 57 63  1  0
 57 59  1  0
 58 64  1  0
 59 58  1  0
 60 59  2  0
 61 62  1  0
 61 55  2  0
 62 57  2  0
 63 56  1  0
 64 54  1  0
 66 68  2  0
 67 66  1  0
 69 67  1  0
 70 79  2  0
 70 75  1  0
 71 67  1  0
 71 75  1  0
 72 71  1  0
 73 74  1  0
 73 72  1  0
 74 70  1  0
 75 76  2  0
 76 77  1  0
 78 77  2  0
 79 78  1  0
 80 54  1  0
 80 81  1  0
 80 90  1  0
 81 84  1  0
 82 86  1  0
 82 81  1  0
 83 82  2  0
 86 85  1  0
 88 86  1  0
 88 89  1  0
 88 87  1  0
 90 93  1  1
 90 91  1  0
 92 90  1  0
 94 95  1  0
 96 94  2  0
M  ISO  4   8 100  16 100  52 101  53 101
M  END
>  <TORSDO>  (51) 
F 21

>  <SCORE>  (51) 
-2.956

>  <name>  (51) 
50

>  <ligand_id>  (51) 
50

>  <original_smiles>  (51) 
[H]c1c([H])c([H])c2c(c1[H])C([H])([H])C([H])([H])C([H])([H])C2([H])N([H])C(=O)C1([H])N(C(=O)C([H])(N([H])C(=O)C([H])(N([H])C([H])([H])[H])C([H])([H])[H])C(C([H])([H])[H])(C([H])([H])[H])C([H])([H])[H])C([H])([H])c2c([H])c(OC([H])([H])C([H])([H])C([H])([H])C(=O)N([H])c3c([H])c(C(=O)C([H])([H])[H])c(N([H])C(=O)N4C([H])([H])C([H])([H])C([H])([H])C([H])(n5nc(-c6c([H])c([H])c(Oc7c([H])c([H])c(F)c([H])c7F)c([H])c6[H])c(C(=O)N([H])[H])c5N([H])[H])C4([H])[H])c([H])c3F)c([H])c([H])c2C1([H])[H]

>  <smiles>  (51) 
[H]c1c([H])c([H])c2c(c1[H])C([H])([H])C([H])([H])C([H])([H])C2([H])N([H])C(=O)C1([H])N(C(=O)C([H])(N([H])C(=O)C([H])(N([H])C([H])([H])[H])C([H])([H])[H])C(C([H])([H])[H])(C([H])([H])[H])C([H])([H])[H])C([H])([H])c2c([H])c(OC([H])([H])C([H])([H])C([H])([H])C(=O)N([H])c3c([H])c(C(=O)C([H])([H])[H])c(N([H])C(=O)N4C([H])([H])C([H])([H])C([H])([H])C([H])(n5nc(-c6c([H])c([H])c(Oc7c([H])c([H])c(F)c([H])c7F)c([H])c6[H])c(C(=O)N([H])[H])c5N([H])[H])C4([H])[H])c([H])c3F)c([H])c([H])c2C1([H])[H]

$$$$
51:0:0
     RDKit          3D

 93102  0  0  1  0  0  0  0  0999 V2000
  -31.1600  -18.4750   20.3790 C   0  0  0  0  0  3  0  0  0  0  0  0
  -30.0560  -17.6480   20.3130 C   0  0  0  0  0  0  0  0  0  0  0  0
  -29.5790  -20.1590   20.5860 C   0  0  0  0  0  0  0  0  0  0  0  0
  -27.3770  -23.3010   20.5300 C   0  0  0  0  0  2  0  0  0  0  0  0
  -27.6570  -21.8430   20.9610 C   0  0  0  0  0  2  0  0  0  0  0  0
  -29.6260  -22.7990   20.2040 C   0  0  0  0  0  2  0  0  0  0  0  0
  -28.7210  -24.0420   20.6290 C   0  0  2  0  0  0  0  0  0  0  0  0
  -30.8820  -19.8630   20.4980 N   0  0  0  0  0  0  0  0  0  0  0  0
  -29.0280  -21.4830   20.5960 N   0  0  0  0  0  0  0  0  0  0  0  0
  -28.6170  -18.6490   20.6330 S   0  0  0  0  0  0  0  0  0  0  0  0
  -29.0290  -24.4710   22.0860 C   0  0  0  0  0  0  0  0  0  0  0  0
  -27.9980  -25.3130   22.8310 C   0  0  0  0  0  1  0  0  0  0  0  0
  -30.0830  -24.1670   22.6530 O   0  0  0  0  0  0  0  0  0  0  0  0
  -28.8360  -16.1800   18.6420 C   0  0  0  0  0  1  0  0  0  0  0  0
  -29.9810  -16.2300   19.6680 C   0  0  0  0  0  3  0  0  0  0  0  0
  -30.6070  -14.8530   20.2480 C   0  0  0  0  0  0  0  0  0  0  0  0
  -30.3880  -12.5380   19.3970 C   0  0  0  0  0  2  0  0  0  0  0  0
  -29.4700  -12.5220   18.1570 C   0  0  0  0  0  2  0  0  0  0  0  0
  -27.9850  -12.4010   18.5690 C   0  0  0  0  0  2  0  0  0  0  0  0
  -27.5820  -13.3130   19.7600 C   0  0  0  0  0  3  0  0  0  0  0  0
  -28.6460  -13.3420   20.8750 C   0  0  0  0  0  2  0  0  0  0  0  0
  -29.9450  -13.6460   20.2650 N   0  0  0  0  0  0  0  0  0  0  0  0
  -31.8400  -14.8370   20.2760 O   0  0  0  0  0  0  0  0  0  0  0  0
  -25.1970  -13.9210   20.4650 C   0  0  0  0  0  0  0  0  0  0  0  0
  -24.1270  -13.1480   20.8230 C   0  0  0  0  0  0  0  0  0  0  0  0
  -24.6000  -11.7990   20.8190 C   0  0  0  0  0  0  0  0  0  0  0  0
  -26.2450  -13.0370   20.2560 N   0  0  0  0  0  0  0  0  0  0  0  0
  -25.8940  -11.7600   20.5390 N   0  0  0  0  0  0  0  0  0  0  0  0
  -23.8810  -10.5360   21.0110 C   0  0  0  0  0  0  0  0  0  0  0  0
  -24.3090   -9.5840   21.9620 C   0  0  0  0  0  3  0  0  0  0  0  0
  -23.5930   -8.3820   22.1400 C   0  0  0  0  0  3  0  0  0  0  0  0
  -22.4350   -8.1260   21.3670 C   0  0  0  0  0  0  0  0  0  0  0  0
  -22.0290   -9.0670   20.4040 C   0  0  0  0  0  3  0  0  0  0  0  0
  -22.7470  -10.2600   20.2240 C   0  0  0  0  0  3  0  0  0  0  0  0
  -21.6890   -6.9760   21.4560 O   0  0  0  0  0  0  0  0  0  0  0  0
  -21.6270   -6.2480   22.6170 C   0  0  0  0  0  0  0  0  0  0  0  0
  -21.1740   -6.8130   23.8280 C   0  0  0  0  0  3  0  0  0  0  0  0
  -21.0590   -6.0110   24.9800 C   0  0  0  0  0  3  0  0  0  0  0  0
  -21.3890   -4.6430   24.9220 C   0  0  0  0  0  0  0  0  0  0  0  0
  -21.8370   -4.0770   23.7150 C   0  0  0  0  0  3  0  0  0  0  0  0
  -21.9520   -4.8770   22.5650 C   0  0  0  0  0  0  0  0  0  0  0  0
  -22.3650   -4.3230   21.4000 F   0  0  0  0  0  0  0  0  0  0  0  0
  -21.2710   -3.8700   26.0260 F   0  0  0  0  0  0  0  0  0  0  0  0
  -22.7230  -13.6200   21.0600 C   0  0  0  0  0  0  0  0  0  0  0  0
  -21.9820  -12.9280   21.9180 N   0  0  0  0  0  0  0  0  0  0  0  0
  -22.2900  -14.6370   20.5200 O   0  0  0  0  0  0  0  0  0  0  0  0
  -22.3450  -12.1050   22.3750 H   0  0  0  0  0  0  0  0  0  0  0  0
  -21.0380  -13.2260   22.1210 H   0  0  0  0  0  0  0  0  0  0  0  0
  -25.3550  -15.2920   20.2740 N   0  0  0  0  0  0  0  0  0  0  0  0
  -24.5840  -15.9430   20.3790 H   0  0  0  0  0  0  0  0  0  0  0  0
  -26.2160  -15.7390   19.9880 H   0  0  0  0  0  0  0  0  0  0  0  0
  -28.8190  -25.3320   19.6690 C   0  0  0  0  0  2  0  0  0  0  0  0
  -28.6420  -26.7160   20.1600 O   0  0  0  0  0  0  0  0  0  0  0  0
  -24.7020  -31.8860   23.1890 C   0  0  0  0  0  0  0  0  0  0  0  0
  -27.4570  -27.4580   20.0840 C   0  0  0  0  0  0  0  0  0  0  0  0
  -23.5410  -30.4820   21.5170 C   0  0  0  0  0  3  0  0  0  0  0  0
  -25.0380  -28.9850   20.0780 C   0  0  0  0  0  0  0  0  0  0  0  0
  -26.0670  -30.8740   21.3510 C   0  0  0  0  0  2  0  0  0  0  0  0
  -26.1830  -29.5070   20.6880 C   0  0  0  0  0  0  0  0  0  0  0  0
  -27.3900  -28.7520   20.6830 C   0  0  0  0  0  3  0  0  0  0  0  0
  -26.2840  -26.9740   19.4620 C   0  0  0  0  0  3  0  0  0  0  0  0
  -25.0890  -27.7240   19.4570 C   0  0  0  0  0  3  0  0  0  0  0  0
  -23.7770  -29.8260   20.1300 C   0  0  0  0  0  2  0  0  0  0  0  0
  -24.7880  -31.0970   22.0770 N   0  0  0  0  0  0  0  0  0  0  0  0
  -23.6100  -32.1290   23.7220 O   0  0  0  0  0  0  0  0  0  0  0  0
  -22.8980  -29.4380   22.4610 C   0  0  0  0  0  0  0  0  0  0  0  0
  -21.5750  -29.2440   22.3350 N   0  0  0  0  0  0  0  0  0  0  0  0
  -23.5880  -28.8050   23.2640 O   0  0  0  0  0  0  0  0  0  0  0  0
  -21.0760  -29.8110   21.6620 H   0  0  0  0  0  0  0  0  0  0  0  0
  -18.2130  -28.0060   22.8290 C   0  0  0  0  0  0  0  0  0  0  0  0
  -20.7700  -28.2800   23.0860 C   0  0  0  0  0  3  0  0  0  0  0  0
  -20.8790  -26.8650   22.4700 C   0  0  0  0  0  2  0  0  0  0  0  0
  -19.7710  -26.5610   21.4560 C   0  0  0  0  0  2  0  0  0  0  0  0
  -18.3940  -26.6770   22.1150 C   0  0  0  0  0  2  0  0  0  0  0  0
  -19.3280  -28.7660   23.2700 C   0  0  0  0  0  0  0  0  0  0  0  0
  -19.1040  -30.0100   23.8970 C   0  0  0  0  0  3  0  0  0  0  0  0
  -17.7980  -30.4970   24.0870 C   0  0  0  0  0  3  0  0  0  0  0  0
  -16.6960  -29.7340   23.6620 C   0  0  0  0  0  3  0  0  0  0  0  0
  -16.9050  -28.4910   23.0390 C   0  0  0  0  0  3  0  0  0  0  0  0
  -25.9670  -32.5370   23.8300 C   0  0  0  0  0  3  0  0  0  0  0  0
  -26.4950  -31.7540   25.0950 C   0  0  1  0  0  0  0  0  0  0  0  0
  -25.4030  -31.4740   26.1540 C   0  0  0  0  0  1  0  0  0  0  0  0
  -27.1090  -30.3970   24.6810 C   0  0  0  0  0  1  0  0  0  0  0  0
  -27.6250  -32.5620   25.7760 C   0  0  0  0  0  1  0  0  0  0  0  0
  -25.6240  -33.9210   24.1840 N   0  0  0  0  0  0  0  0  0  0  0  0
  -25.9360  -34.9950   23.4470 C   0  0  0  0  0  0  0  0  0  0  0  0
  -26.6120  -34.9260   22.4180 O   0  0  0  0  0  0  0  0  0  0  0  0
  -25.0220  -34.0470   24.9840 H   0  0  0  0  0  0  0  0  0  0  0  0
  -24.1680  -36.7560   23.1160 C   0  0  0  0  0  1  0  0  0  0  0  0
  -25.4140  -36.3630   23.9270 C   0  0  0  0  0  3  0  0  0  0  0  0
  -27.5230  -37.2810   24.7890 C   0  0  0  0  0  1  0  0  0  0  0  0
  -26.4230  -37.4420   23.8410 N   0  0  0  0  0  0  0  0  0  0  0  0
  -25.9950  -38.3500   24.0010 H   0  0  0  0  0  0  0  0  0  0  0  0
  1  8  1  0
  2  1  2  0
  2 10  1  0
  3  9  1  0
  3 10  1  0
  4  7  1  0
  4  5  1  0
  6  9  1  0
  6  7  1  0
  7 52  1  6
  7 11  1  0
  8  3  2  0
  9  5  1  0
 11 13  2  0
 11 12  1  0
 15 14  1  0
 15 16  1  0
 15  2  1  0
 16 22  1  0
 16 23  2  0
 17 22  1  0
 18 19  1  0
 18 17  1  0
 20 19  1  0
 20 27  1  0
 20 21  1  0
 22 21  1  0
 24 25  2  0
 25 44  1  0
 26 25  1  0
 26 29  1  0
 27 24  1  0
 27 28  1  0
 28 26  2  0
 29 30  1  0
 30 31  2  0
 32 35  1  0
 32 31  1  0
 33 32  2  0
 34 33  1  0
 34 29  2  0
 35 36  1  0
 36 37  1  0
 37 38  2  0
 39 38  1  0
 39 43  1  0
 40 39  2  0
 41 36  2  0
 41 40  1  0
 42 41  1  0
 44 45  1  0
 45 48  1  0
 45 47  1  0
 46 44  2  0
 49 50  1  0
 49 24  1  0
 51 49  1  0
 52 53  1  0
 54 65  2  0
 55 53  1  0
 55 60  1  0
 56 64  1  0
 56 66  1  0
 57 63  1  0
 57 59  1  0
 58 64  1  0
 59 58  1  0
 60 59  2  0
 61 55  2  0
 62 61  1  0
 62 57  2  0
 63 56  1  0
 64 54  1  0
 66 68  2  0
 67 66  1  0
 69 67  1  0
 70 79  2  0
 70 75  1  0
 71 67  1  0
 71 75  1  0
 72 71  1  0
 73 74  1  0
 73 72  1  0
 74 70  1  0
 75 76  2  0
 76 77  1  0
 78 77  2  0
 79 78  1  0
 80 54  1  0
 80 85  1  0
 80 81  1  0
 81 84  1  1
 81 82  1  0
 83 81  1  0
 85 88  1  0
 86 90  1  0
 86 85  1  0
 87 86  2  0
 90 89  1  0
 92 90  1  0
 92 93  1  0
 92 91  1  0
M  ISO  4  15 100  16 100  52 101  53 101
M  END
>  <TORSDO>  (52) 
F 19

>  <SCORE>  (52) 
-13.894

>  <name>  (52) 
51

>  <ligand_id>  (52) 
51

>  <original_smiles>  (52) 
[H]c1nc(N2C([H])([H])C([H])([H])C(C(=O)C([H])([H])[H])(C([H])([H])Oc3c([H])c([H])c4c(c3[H])C([H])([H])N(C(=O)C([H])(N([H])C(=O)C([H])(N([H])C([H])([H])[H])C([H])([H])[H])C(C([H])([H])[H])(C([H])([H])[H])C([H])([H])[H])C([H])(C(=O)N([H])C3([H])c5c([H])c([H])c([H])c([H])c5C([H])([H])C([H])([H])C3([H])[H])C4([H])[H])C2([H])[H])sc1C([H])(C(=O)N1C([H])([H])C([H])([H])C([H])([H])C([H])(n2nc(-c3c([H])c([H])c(Oc4c([H])c([H])c(F)c([H])c4F)c([H])c3[H])c(C(=O)N([H])[H])c2N([H])[H])C1([H])[H])C([H])([H])[H]

>  <smiles>  (52) 
[H]c1nc(N2C([H])([H])C([H])([H])C(C(=O)C([H])([H])[H])(C([H])([H])Oc3c([H])c([H])c4c(c3[H])C([H])([H])N(C(=O)C([H])(N([H])C(=O)C([H])(N([H])C([H])([H])[H])C([H])([H])[H])C(C([H])([H])[H])(C([H])([H])[H])C([H])([H])[H])C([H])(C(=O)N([H])C3([H])c5c([H])c([H])c([H])c([H])c5C([H])([H])C([H])([H])C3([H])[H])C4([H])[H])C2([H])[H])sc1C([H])(C(=O)N1C([H])([H])C([H])([H])C([H])([H])C([H])(n2nc(-c3c([H])c([H])c(Oc4c([H])c([H])c(F)c([H])c4F)c([H])c3[H])c(C(=O)N([H])[H])c2N([H])[H])C1([H])[H])C([H])([H])[H]

$$$$
52:0:0
     RDKit          3D

 97105  0  0  1  0  0  0  0  0999 V2000
  -27.5760  -20.4080   20.3930 C   0  0  0  0  0  0  0  0  0  0  0  0
  -27.6370  -19.4520   19.4540 N   0  0  0  0  0  0  0  0  0  0  0  0
  -28.4470  -20.5850   21.2480 O   0  0  0  0  0  0  0  0  0  0  0  0
  -26.8890  -19.4550   18.7730 H   0  0  0  0  0  0  0  0  0  0  0  0
  -29.1810  -18.5230   17.8470 C   0  0  0  0  0  3  0  0  0  0  0  0
  -30.9470  -16.9980   18.5270 C   0  0  0  0  0  3  0  0  0  0  0  0
  -29.3550  -17.8110   20.1780 C   0  0  0  0  0  3  0  0  0  0  0  0
  -30.2970  -17.7330   17.5190 C   0  0  0  0  0  0  0  0  0  0  0  0
  -28.7320  -18.5980   19.1800 C   0  0  0  0  0  0  0  0  0  0  0  0
  -30.4570  -16.9890   19.8570 C   0  0  0  0  0  0  0  0  0  0  0  0
  -30.7950  -17.6780   16.0890 C   0  0  0  0  0  1  0  0  0  0  0  0
  -31.7080  -15.0510   20.6510 C   0  0  0  0  0  0  0  0  0  0  0  0
  -31.3140  -12.9110   19.4900 C   0  0  0  0  0  2  0  0  0  0  0  0
  -30.4970  -13.1170   18.1970 C   0  0  0  0  0  2  0  0  0  0  0  0
  -28.9850  -13.1290   18.4980 C   0  0  0  0  0  2  0  0  0  0  0  0
  -28.6050  -14.0390   19.6960 C   0  0  0  0  0  3  0  0  0  0  0  0
  -29.5410  -13.7960   20.9000 C   0  0  0  0  0  2  0  0  0  0  0  0
  -30.9250  -13.9640   20.4330 N   0  0  0  0  0  0  0  0  0  0  0  0
  -32.9140  -15.0840   20.4070 O   0  0  0  0  0  0  0  0  0  0  0  0
  -31.0600  -16.2030   20.8830 N   0  0  0  0  0  0  0  0  0  0  0  0
  -31.4930  -16.7650   21.6010 H   0  0  0  0  0  0  0  0  0  0  0  0
  -26.2080  -14.8600   20.1400 C   0  0  0  0  0  0  0  0  0  0  0  0
  -25.0520  -14.1830   20.4300 C   0  0  0  0  0  0  0  0  0  0  0  0
  -25.4120  -12.8030   20.5050 C   0  0  0  0  0  0  0  0  0  0  0  0
  -27.1990  -13.8920   20.0560 N   0  0  0  0  0  0  0  0  0  0  0  0
  -26.7180  -12.6550   20.3370 N   0  0  0  0  0  0  0  0  0  0  0  0
  -24.5810  -11.6030   20.6680 C   0  0  0  0  0  0  0  0  0  0  0  0
  -24.9160  -10.5940   21.5980 C   0  0  0  0  0  3  0  0  0  0  0  0
  -24.0920   -9.4590   21.7460 C   0  0  0  0  0  3  0  0  0  0  0  0
  -22.9180   -9.3250   20.9660 C   0  0  0  0  0  0  0  0  0  0  0  0
  -22.6030  -10.3220   20.0260 C   0  0  0  0  0  3  0  0  0  0  0  0
  -23.4270  -11.4490   19.8750 C   0  0  0  0  0  3  0  0  0  0  0  0
  -22.0700   -8.2450   21.0270 O   0  0  0  0  0  0  0  0  0  0  0  0
  -21.9510   -7.4870   22.1650 C   0  0  0  0  0  0  0  0  0  0  0  0
  -21.6270   -8.0620   23.4140 C   0  0  0  0  0  3  0  0  0  0  0  0
  -21.4450   -7.2370   24.5430 C   0  0  0  0  0  3  0  0  0  0  0  0
  -21.5790   -5.8410   24.4250 C   0  0  0  0  0  0  0  0  0  0  0  0
  -21.8990   -5.2670   23.1820 C   0  0  0  0  0  3  0  0  0  0  0  0
  -22.0810   -6.0880   22.0550 C   0  0  0  0  0  0  0  0  0  0  0  0
  -22.3670   -5.5270   20.8570 F   0  0  0  0  0  0  0  0  0  0  0  0
  -21.3980   -5.0480   25.5070 F   0  0  0  0  0  0  0  0  0  0  0  0
  -23.6730  -14.7690   20.5310 C   0  0  0  0  0  0  0  0  0  0  0  0
  -22.8250  -14.1850   21.3710 N   0  0  0  0  0  0  0  0  0  0  0  0
  -23.3550  -15.7780   19.9020 O   0  0  0  0  0  0  0  0  0  0  0  0
  -23.0980  -13.3730   21.9050 H   0  0  0  0  0  0  0  0  0  0  0  0
  -21.8970  -14.5630   21.4900 H   0  0  0  0  0  0  0  0  0  0  0  0
  -26.4920  -16.2020   19.9200 N   0  0  0  0  0  0  0  0  0  0  0  0
  -25.7790  -16.9210   19.9320 H   0  0  0  0  0  0  0  0  0  0  0  0
  -27.4090  -16.5550   19.6710 H   0  0  0  0  0  0  0  0  0  0  0  0
  -26.3320  -21.3040   20.3580 C   0  0  0  0  0  2  0  0  0  0  0  0
  -26.5950  -22.7740   20.7520 C   0  0  0  0  0  2  0  0  0  0  0  0
  -27.5390  -23.5420   19.7980 C   0  0  0  0  0  2  0  0  0  0  0  0
  -28.0340  -24.8710   20.4000 C   0  0  0  0  0  3  0  0  0  0  0  0
  -28.9650  -24.5670   21.4240 O   0  0  0  0  0  0  0  0  0  0  0  0
  -28.5240  -24.0030   22.0520 H   0  0  0  0  0  0  0  0  0  0  0  0
  -28.7130  -25.7980   19.3570 C   0  0  0  0  0  2  0  0  0  0  0  0
  -28.6540  -27.1700   19.7550 O   0  0  0  0  0  0  0  0  0  0  0  0
  -24.7240  -31.8370   23.3800 C   0  0  0  0  0  0  0  0  0  0  0  0
  -27.4290  -27.8020   19.8360 C   0  0  0  0  0  0  0  0  0  0  0  0
  -23.5180  -30.5510   21.6460 C   0  0  0  0  0  3  0  0  0  0  0  0
  -24.9790  -29.2010   20.0570 C   0  0  0  0  0  0  0  0  0  0  0  0
  -26.0250  -31.0150   21.4210 C   0  0  0  0  0  2  0  0  0  0  0  0
  -26.1340  -29.7130   20.6580 C   0  0  0  0  0  0  0  0  0  0  0  0
  -27.3580  -29.0190   20.5480 C   0  0  0  0  0  3  0  0  0  0  0  0
  -26.2470  -27.2950   19.2420 C   0  0  0  0  0  3  0  0  0  0  0  0
  -25.0280  -27.9870   19.3520 C   0  0  0  0  0  3  0  0  0  0  0  0
  -23.7110  -30.0080   20.2060 C   0  0  0  0  0  2  0  0  0  0  0  0
  -24.7760  -31.1440   22.2090 N   0  0  0  0  0  0  0  0  0  0  0  0
  -23.6480  -32.0220   23.9670 O   0  0  0  0  0  0  0  0  0  0  0  0
  -22.9280  -29.4240   22.5220 C   0  0  0  0  0  0  0  0  0  0  0  0
  -21.6240  -29.1560   22.3510 N   0  0  0  0  0  0  0  0  0  0  0  0
  -23.6390  -28.7970   23.3100 O   0  0  0  0  0  0  0  0  0  0  0  0
  -21.1070  -29.7180   21.6890 H   0  0  0  0  0  0  0  0  0  0  0  0
  -18.3540  -27.6440   22.6250 C   0  0  0  0  0  0  0  0  0  0  0  0
  -20.8620  -28.1140   23.0380 C   0  0  0  0  0  3  0  0  0  0  0  0
  -21.1230  -26.7270   22.4100 C   0  0  0  0  0  2  0  0  0  0  0  0
  -20.1050  -26.3550   21.3280 C   0  0  0  0  0  2  0  0  0  0  0  0
  -18.6860  -26.3460   21.9040 C   0  0  0  0  0  2  0  0  0  0  0  0
  -19.3770  -28.4810   23.1420 C   0  0  0  0  0  0  0  0  0  0  0  0
  -19.0180  -29.6910   23.7720 C   0  0  0  0  0  3  0  0  0  0  0  0
  -17.6690  -30.0700   23.8890 C   0  0  0  0  0  3  0  0  0  0  0  0
  -16.6590  -29.2320   23.3880 C   0  0  0  0  0  3  0  0  0  0  0  0
  -17.0010  -28.0190   22.7630 C   0  0  0  0  0  3  0  0  0  0  0  0
  -26.0070  -32.4500   24.0250 C   0  0  0  0  0  3  0  0  0  0  0  0
  -25.6940  -33.8380   24.3930 N   0  0  0  0  0  0  0  0  0  0  0  0
  -26.0250  -34.9100   23.6620 C   0  0  0  0  0  0  0  0  0  0  0  0
  -26.6980  -34.8350   22.6290 O   0  0  0  0  0  0  0  0  0  0  0  0
  -25.0960  -33.9700   25.1960 H   0  0  0  0  0  0  0  0  0  0  0  0
  -24.2900  -36.7040   23.3510 C   0  0  0  0  0  1  0  0  0  0  0  0
  -25.5320  -36.2850   24.1520 C   0  0  0  0  0  3  0  0  0  0  0  0
  -27.6610  -37.1610   25.0060 C   0  0  0  0  0  1  0  0  0  0  0  0
  -26.5600  -37.3440   24.0640 N   0  0  0  0  0  0  0  0  0  0  0  0
  -26.1490  -38.2600   24.2290 H   0  0  0  0  0  0  0  0  0  0  0  0
  -26.5220  -31.6390   25.2760 C   0  0  1  0  0  0  0  0  0  0  0  0
  -25.4260  -31.3540   26.3270 C   0  0  0  0  0  1  0  0  0  0  0  0
  -27.1240  -30.2820   24.8370 C   0  0  0  0  0  1  0  0  0  0  0  0
  -27.6580  -32.4210   25.9720 C   0  0  0  0  0  1  0  0  0  0  0  0
  1  3  2  0
  2  1  1  0
  4  2  1  0
  5  9  1  0
  6 10  2  0
  8  5  2  0
  8  6  1  0
  9  2  1  0
  9  7  2  0
 10  7  1  0
 10 20  1  0
 11  8  1  0
 12 20  1  0
 13 18  1  0
 14 15  1  0
 14 13  1  0
 16 15  1  0
 16 25  1  0
 16 17  1  0
 18 12  1  0
 18 17  1  0
 19 12  2  0
 20 21  1  0
 22 23  2  0
 23 24  1  0
 23 42  1  0
 24 27  1  0
 25 22  1  0
 25 26  1  0
 26 24  2  0
 27 28  1  0
 28 29  2  0
 30 33  1  0
 30 29  1  0
 31 30  2  0
 32 31  1  0
 32 27  2  0
 33 34  1  0
 34 35  1  0
 35 36  2  0
 37 36  1  0
 37 41  1  0
 38 37  2  0
 39 34  2  0
 39 38  1  0
 40 39  1  0
 42 43  1  0
 43 46  1  0
 43 45  1  0
 44 42  2  0
 47 48  1  0
 47 22  1  0
 49 47  1  0
 50  1  1  0
 50 51  1  0
 52 53  1  0
 52 51  1  0
 53 56  1  0
 53 54  1  0
 54 55  1  0
 56 57  1  0
 57 59  1  0
 58 69  2  0
 59 64  1  0
 60 68  1  0
 60 70  1  0
 61 67  1  0
 61 63  1  0
 62 68  1  0
 63 62  1  0
 64 63  2  0
 65 66  1  0
 65 59  2  0
 66 61  2  0
 67 60  1  0
 68 58  1  0
 70 72  2  0
 71 70  1  0
 73 71  1  0
 74 83  2  0
 74 79  1  0
 75 71  1  0
 75 79  1  0
 76 75  1  0
 77 78  1  0
 77 76  1  0
 78 74  1  0
 79 80  2  0
 80 81  1  0
 82 81  2  0
 83 82  1  0
 84 58  1  0
 84 85  1  0
 84 94  1  0
 85 88  1  0
 86 90  1  0
 86 85  1  0
 87 86  2  0
 90 89  1  0
 92 90  1  0
 92 93  1  0
 92 91  1  0
 94 97  1  1
 94 95  1  0
 96 94  1  0
M  ISO  4  12 100  20 100  56 101  57 101
M  END
>  <TORSDO>  (53) 
F 23

>  <SCORE>  (53) 
-9.039

>  <name>  (53) 
52

>  <ligand_id>  (53) 
52

>  <original_smiles>  (53) 
[H]OC([H])(C([H])([H])Oc1c([H])c([H])c2c(c1[H])C([H])([H])N(C(=O)C([H])(N([H])C(=O)C([H])(N([H])C([H])([H])[H])C([H])([H])[H])C(C([H])([H])[H])(C([H])([H])[H])C([H])([H])[H])C([H])(C(=O)N([H])C1([H])c3c([H])c([H])c([H])c([H])c3C([H])([H])C([H])([H])C1([H])[H])C2([H])[H])C([H])([H])C([H])([H])C([H])([H])C(=O)N([H])c1c([H])c(N([H])C(=O)N2C([H])([H])C([H])([H])C([H])([H])C([H])(n3nc(-c4c([H])c([H])c(Oc5c([H])c([H])c(F)c([H])c5F)c([H])c4[H])c(C(=O)N([H])[H])c3N([H])[H])C2([H])[H])c([H])c(C([H])([H])[H])c1[H]

>  <smiles>  (53) 
[H]OC([H])(C([H])([H])Oc1c([H])c([H])c2c(c1[H])C([H])([H])N(C(=O)C([H])(N([H])C(=O)C([H])(N([H])C([H])([H])[H])C([H])([H])[H])C(C([H])([H])[H])(C([H])([H])[H])C([H])([H])[H])C([H])(C(=O)N([H])C1([H])c3c([H])c([H])c([H])c([H])c3C([H])([H])C([H])([H])C1([H])[H])C2([H])[H])C([H])([H])C([H])([H])C([H])([H])C(=O)N([H])c1c([H])c(N([H])C(=O)N2C([H])([H])C([H])([H])C([H])([H])C([H])(n3nc(-c4c([H])c([H])c(Oc5c([H])c([H])c(F)c([H])c5F)c([H])c4[H])c(C(=O)N([H])[H])c3N([H])[H])C2([H])[H])c([H])c(C([H])([H])[H])c1[H]

$$$$
53:0:0
     RDKit          3D

 97106  0  0  1  0  0  0  0  0999 V2000
  -27.8290  -20.8380   19.4160 C   0  0  0  0  0  2  0  0  0  0  0  0
  -28.8130  -19.3880   16.2880 C   0  0  0  0  0  2  0  0  0  0  0  0
  -27.9100  -18.2480   16.7330 C   0  0  0  0  0  2  0  0  0  0  0  0
  -29.4400  -19.9270   17.5790 C   0  0  0  0  0  2  0  0  0  0  0  0
  -27.3600  -18.7350   18.0740 C   0  0  0  0  0  2  0  0  0  0  0  0
  -28.4880  -19.5750   18.7540 C   0  0  2  0  0  0  0  0  0  0  0  0
  -29.3370  -17.2440   19.7070 C   0  0  0  0  0  3  0  0  0  0  0  0
  -29.8900  -19.0100   20.9150 C   0  0  0  0  0  3  0  0  0  0  0  0
  -29.2180  -18.6710   19.7630 C   0  0  0  0  0  0  0  0  0  0  0  0
  -30.0430  -16.8540   20.8100 C   0  0  0  0  0  0  0  0  0  0  0  0
  -30.3760  -17.9170   21.5790 O   0  0  0  0  0  0  0  0  0  0  0  0
  -30.9220  -14.6350   20.5960 C   0  0  0  0  0  0  0  0  0  0  0  0
  -30.7100  -12.4890   19.4020 C   0  0  0  0  0  2  0  0  0  0  0  0
  -29.8090  -12.7190   18.1690 C   0  0  0  0  0  2  0  0  0  0  0  0
  -28.3160  -12.5800   18.5360 C   0  0  0  0  0  2  0  0  0  0  0  0
  -27.9330  -13.3950   19.8010 C   0  0  0  0  0  3  0  0  0  0  0  0
  -28.9400  -13.1240   20.9390 C   0  0  0  0  0  2  0  0  0  0  0  0
  -30.2910  -13.4400   20.4410 N   0  0  0  0  0  0  0  0  0  0  0  0
  -32.0440  -14.8720   20.1360 O   0  0  0  0  0  0  0  0  0  0  0  0
  -30.1880  -15.5700   21.2220 N   0  0  0  0  0  0  0  0  0  0  0  0
  -29.3570  -15.1820   21.6410 H   0  0  0  0  0  0  0  0  0  0  0  0
  -25.5050  -14.0170   20.3900 C   0  0  0  0  0  0  0  0  0  0  0  0
  -24.4220  -13.2490   20.7230 C   0  0  0  0  0  0  0  0  0  0  0  0
  -24.8850  -11.8980   20.7380 C   0  0  0  0  0  0  0  0  0  0  0  0
  -26.5580  -13.1310   20.2190 N   0  0  0  0  0  0  0  0  0  0  0  0
  -26.1860  -11.8540   20.4850 N   0  0  0  0  0  0  0  0  0  0  0  0
  -24.1540  -10.6390   20.9270 C   0  0  0  0  0  0  0  0  0  0  0  0
  -24.5290   -9.7100   21.9220 C   0  0  0  0  0  3  0  0  0  0  0  0
  -23.8010   -8.5130   22.0970 C   0  0  0  0  0  3  0  0  0  0  0  0
  -22.6870   -8.2330   21.2720 C   0  0  0  0  0  0  0  0  0  0  0  0
  -22.3290   -9.1490   20.2670 C   0  0  0  0  0  3  0  0  0  0  0  0
  -23.0570  -10.3390   20.0920 C   0  0  0  0  0  3  0  0  0  0  0  0
  -21.9390   -7.0840   21.3480 O   0  0  0  0  0  0  0  0  0  0  0  0
  -21.7970   -6.3940   22.5250 C   0  0  0  0  0  0  0  0  0  0  0  0
  -21.2320   -6.9900   23.6740 C   0  0  0  0  0  3  0  0  0  0  0  0
  -21.0380   -6.2250   24.8400 C   0  0  0  0  0  3  0  0  0  0  0  0
  -21.4010   -4.8650   24.8610 C   0  0  0  0  0  0  0  0  0  0  0  0
  -21.9600   -4.2690   23.7170 C   0  0  0  0  0  3  0  0  0  0  0  0
  -22.1550   -5.0310   22.5510 C   0  0  0  0  0  0  0  0  0  0  0  0
  -22.6730   -4.4450   21.4450 F   0  0  0  0  0  0  0  0  0  0  0  0
  -21.2080   -4.1280   25.9780 F   0  0  0  0  0  0  0  0  0  0  0  0
  -23.0130  -13.7270   20.9320 C   0  0  0  0  0  0  0  0  0  0  0  0
  -22.2550  -13.0450   21.7870 N   0  0  0  0  0  0  0  0  0  0  0  0
  -22.5890  -14.7380   20.3720 O   0  0  0  0  0  0  0  0  0  0  0  0
  -22.6090  -12.2250   22.2540 H   0  0  0  0  0  0  0  0  0  0  0  0
  -21.3110  -13.3500   21.9750 H   0  0  0  0  0  0  0  0  0  0  0  0
  -25.6810  -15.3840   20.2010 N   0  0  0  0  0  0  0  0  0  0  0  0
  -24.9210  -16.0500   20.2950 H   0  0  0  0  0  0  0  0  0  0  0  0
  -26.5600  -15.8170   19.9500 H   0  0  0  0  0  0  0  0  0  0  0  0
  -28.6670  -22.1290   19.6830 C   0  0  0  0  0  2  0  0  0  0  0  0
  -28.0490  -22.5420   22.0950 C   0  0  0  0  0  1  0  0  0  0  0  0
  -26.5220  -23.4070   20.3140 C   0  0  0  0  0  1  0  0  0  0  0  0
  -28.0070  -23.1530   20.6720 C   0  0  2  0  0  0  0  0  0  0  0  0
  -28.7710  -24.5210   20.7050 C   0  0  0  0  0  0  0  0  0  0  0  0
  -29.5760  -24.7630   21.6100 O   0  0  0  0  0  0  0  0  0  0  0  0
  -28.5740  -25.5660   19.5820 C   0  0  0  0  0  2  0  0  0  0  0  0
  -28.4690  -26.9040   20.1270 O   0  0  0  0  0  0  0  0  0  0  0  0
  -24.5580  -32.0020   23.2570 C   0  0  0  0  0  0  0  0  0  0  0  0
  -27.2590  -27.5780   20.1470 C   0  0  0  0  0  0  0  0  0  0  0  0
  -23.3670  -30.5790   21.6230 C   0  0  0  0  0  3  0  0  0  0  0  0
  -24.8350  -29.0610   20.1980 C   0  0  0  0  0  0  0  0  0  0  0  0
  -25.8910  -30.9680   21.4160 C   0  0  0  0  0  2  0  0  0  0  0  0
  -25.9920  -29.5960   20.7770 C   0  0  0  0  0  0  0  0  0  0  0  0
  -27.2020  -28.8600   20.7530 C   0  0  0  0  0  3  0  0  0  0  0  0
  -26.0720  -27.0610   19.5750 C   0  0  0  0  0  3  0  0  0  0  0  0
  -24.8710  -27.7920   19.6010 C   0  0  0  0  0  3  0  0  0  0  0  0
  -23.5820  -29.9050   20.2440 C   0  0  0  0  0  2  0  0  0  0  0  0
  -24.6240  -31.1980   22.1570 N   0  0  0  0  0  0  0  0  0  0  0  0
  -23.4750  -32.2570   23.8010 O   0  0  0  0  0  0  0  0  0  0  0  0
  -22.7370  -29.5470   22.5870 C   0  0  0  0  0  0  0  0  0  0  0  0
  -21.4180  -29.3280   22.4540 N   0  0  0  0  0  0  0  0  0  0  0  0
  -23.4320  -28.9450   23.4110 O   0  0  0  0  0  0  0  0  0  0  0  0
  -20.9140  -29.8680   21.7650 H   0  0  0  0  0  0  0  0  0  0  0  0
  -18.0740  -28.0550   22.9530 C   0  0  0  0  0  0  0  0  0  0  0  0
  -20.6240  -28.3740   23.2280 C   0  0  0  0  0  3  0  0  0  0  0  0
  -20.7620  -26.9440   22.6600 C   0  0  0  0  0  2  0  0  0  0  0  0
  -19.6710  -26.5900   21.6450 C   0  0  0  0  0  2  0  0  0  0  0  0
  -18.2840  -26.7070   22.2850 C   0  0  0  0  0  2  0  0  0  0  0  0
  -19.1730  -28.8450   23.3820 C   0  0  0  0  0  0  0  0  0  0  0  0
  -18.9250  -30.1060   23.9660 C   0  0  0  0  0  3  0  0  0  0  0  0
  -17.6090  -30.5790   24.1250 C   0  0  0  0  0  3  0  0  0  0  0  0
  -16.5230  -29.7860   23.7120 C   0  0  0  0  0  3  0  0  0  0  0  0
  -16.7560  -28.5260   23.1320 C   0  0  0  0  0  3  0  0  0  0  0  0
  -25.8370  -32.6560   23.8670 C   0  0  0  0  0  3  0  0  0  0  0  0
  -25.5060  -34.0480   24.1990 N   0  0  0  0  0  0  0  0  0  0  0  0
  -25.8380  -35.1070   23.4480 C   0  0  0  0  0  0  0  0  0  0  0  0
  -26.5260  -35.0160   22.4270 O   0  0  0  0  0  0  0  0  0  0  0  0
  -24.8970  -34.1940   24.9900 H   0  0  0  0  0  0  0  0  0  0  0  0
  -24.1120  -36.8940   23.0510 C   0  0  0  0  0  1  0  0  0  0  0  0
  -25.3260  -36.4880   23.9020 C   0  0  0  0  0  3  0  0  0  0  0  0
  -27.4230  -37.3790   24.8200 C   0  0  0  0  0  1  0  0  0  0  0  0
  -26.3560  -37.5480   23.8360 N   0  0  0  0  0  0  0  0  0  0  0  0
  -25.9380  -38.4640   23.9770 H   0  0  0  0  0  0  0  0  0  0  0  0
  -26.3780  -31.8930   25.1380 C   0  0  1  0  0  0  0  0  0  0  0  0
  -25.2920  -31.6090   26.2020 C   0  0  0  0  0  1  0  0  0  0  0  0
  -27.0110  -30.5410   24.7370 C   0  0  0  0  0  1  0  0  0  0  0  0
  -27.4980  -32.7230   25.8110 C   0  0  0  0  0  1  0  0  0  0  0  0
  1 50  1  0
  2  3  1  0
  2  4  1  0
  3  5  1  0
  4  6  1  0
  5  6  1  0
  6  1  1  1
  6  9  1  0
  7  9  1  0
  7 10  2  0
  8 11  1  0
  9  8  2  0
 10 20  1  0
 10 11  1  0
 12 20  1  0
 13 18  1  0
 14 15  1  0
 14 13  1  0
 16 15  1  0
 16 25  1  0
 16 17  1  0
 18 12  1  0
 18 17  1  0
 19 12  2  0
 20 21  1  0
 22 23  2  0
 23 24  1  0
 23 42  1  0
 24 27  1  0
 25 22  1  0
 25 26  1  0
 26 24  2  0
 27 28  1  0
 28 29  2  0
 30 33  1  0
 30 29  1  0
 31 30  2  0
 32 31  1  0
 32 27  2  0
 33 34  1  0
 34 39  2  0
 34 35  1  0
 35 36  2  0
 36 37  1  0
 37 41  1  0
 38 37  2  0
 39 38  1  0
 40 39  1  0
 42 43  1  0
 43 46  1  0
 43 45  1  0
 44 42  2  0
 47 48  1  0
 47 22  1  0
 49 47  1  0
 50 53  1  0
 53 52  1  6
 53 54  1  0
 53 51  1  0
 54 55  2  0
 56 57  1  0
 56 54  1  0
 57 59  1  0
 58 69  2  0
 59 64  1  0
 60 68  1  0
 60 70  1  0
 61 67  1  0
 61 63  1  0
 62 68  1  0
 63 62  1  0
 64 63  2  0
 65 66  1  0
 65 59  2  0
 66 61  2  0
 67 60  1  0
 68 58  1  0
 70 72  2  0
 71 70  1  0
 73 71  1  0
 74 83  2  0
 74 79  1  0
 75 71  1  0
 75 79  1  0
 76 75  1  0
 77 78  1  0
 77 76  1  0
 78 74  1  0
 79 80  2  0
 80 81  1  0
 82 81  2  0
 83 82  1  0
 84 58  1  0
 84 85  1  0
 84 94  1  0
 85 88  1  0
 86 90  1  0
 86 85  1  0
 87 86  2  0
 90 89  1  0
 92 90  1  0
 92 93  1  0
 92 91  1  0
 94 97  1  1
 94 95  1  0
 96 94  1  0
M  ISO  4  12 100  20 100  56 101  57 101
M  END
>  <TORSDO>  (54) 
F 22

>  <SCORE>  (54) 
-12.851

>  <name>  (54) 
53

>  <ligand_id>  (54) 
53

>  <original_smiles>  (54) 
[H]c1oc(N([H])C(=O)N2C([H])([H])C([H])([H])C([H])([H])C([H])(n3nc(-c4c([H])c([H])c(Oc5c([H])c([H])c(F)c([H])c5F)c([H])c4[H])c(C(=O)N([H])[H])c3N([H])[H])C2([H])[H])c([H])c1C1(C([H])([H])C([H])([H])C(C(=O)C([H])([H])Oc2c([H])c([H])c3c(c2[H])C([H])([H])N(C(=O)C([H])(N([H])C(=O)C([H])(N([H])C([H])([H])[H])C([H])([H])[H])C(C([H])([H])[H])(C([H])([H])[H])C([H])([H])[H])C([H])(C(=O)N([H])C2([H])c4c([H])c([H])c([H])c([H])c4C([H])([H])C([H])([H])C2([H])[H])C3([H])[H])(C([H])([H])[H])C([H])([H])[H])C([H])([H])C([H])([H])C([H])([H])C1([H])[H]

>  <smiles>  (54) 
[H]c1oc(N([H])C(=O)N2C([H])([H])C([H])([H])C([H])([H])C([H])(n3nc(-c4c([H])c([H])c(Oc5c([H])c([H])c(F)c([H])c5F)c([H])c4[H])c(C(=O)N([H])[H])c3N([H])[H])C2([H])[H])c([H])c1C1(C([H])([H])C([H])([H])C(C(=O)C([H])([H])Oc2c([H])c([H])c3c(c2[H])C([H])([H])N(C(=O)C([H])(N([H])C(=O)C([H])(N([H])C([H])([H])[H])C([H])([H])[H])C(C([H])([H])[H])(C([H])([H])[H])C([H])([H])[H])C([H])(C(=O)N([H])C2([H])c4c([H])c([H])c([H])c([H])c4C([H])([H])C([H])([H])C2([H])[H])C3([H])[H])(C([H])([H])[H])C([H])([H])[H])C([H])([H])C([H])([H])C([H])([H])C1([H])[H]

$$$$
54:0:0
     RDKit          3D

 97106  0  0  1  0  0  0  0  0999 V2000
  -29.2460  -20.7900   20.9670 C   0  0  0  0  0  3  0  0  0  0  0  0
  -30.8690  -23.6770   21.0660 C   0  0  0  0  0  2  0  0  0  0  0  0
  -30.8820  -22.5690   20.0210 C   0  0  0  0  0  2  0  0  0  0  0  0
  -29.3610  -23.4350   21.2730 C   0  0  2  0  0  0  0  0  0  0  0  0
  -28.9050  -23.3230   22.7420 C   0  0  0  0  0  1  0  0  0  0  0  0
  -29.6620  -22.0690   20.6810 N   0  0  0  0  0  0  0  0  0  0  0  0
  -27.9980  -20.6370   21.4080 N   0  0  0  0  0  0  0  0  0  0  0  0
  -27.6740  -19.7320   21.7060 H   0  0  0  0  0  0  0  0  0  0  0  0
  -27.3700  -21.4230   21.4210 H   0  0  0  0  0  0  0  0  0  0  0  0
  -32.3080  -18.5980   21.4910 C   0  0  0  0  0  3  0  0  0  0  0  0
  -31.4570  -19.7140   21.4030 C   0  0  0  0  0  3  0  0  0  0  0  0
  -31.8430  -17.3220   21.1360 C   0  0  0  0  0  3  0  0  0  0  0  0
  -29.6680  -18.2830   20.5720 C   0  0  0  0  0  3  0  0  0  0  0  0
  -30.1320  -19.5880   20.9230 C   0  0  0  0  0  0  0  0  0  0  0  0
  -30.5160  -17.1370   20.6820 C   0  0  0  0  0  0  0  0  0  0  0  0
  -30.7210  -14.7410   19.9660 C   0  0  0  0  0  0  0  0  0  0  0  0
  -30.3810  -12.5370   18.9070 C   0  0  0  0  0  2  0  0  0  0  0  0
  -29.3620  -12.6700   17.7580 C   0  0  0  0  0  2  0  0  0  0  0  0
  -27.9210  -12.5190   18.2860 C   0  0  0  0  0  2  0  0  0  0  0  0
  -27.6460  -13.3950   19.5390 C   0  0  0  0  0  3  0  0  0  0  0  0
  -28.7750  -13.2510   20.5840 C   0  0  0  0  0  2  0  0  0  0  0  0
  -30.0470  -13.5580   19.9120 N   0  0  0  0  0  0  0  0  0  0  0  0
  -31.8340  -14.8830   19.4530 O   0  0  0  0  0  0  0  0  0  0  0  0
  -30.0220  -15.8080   20.4240 N   0  0  0  0  0  0  0  0  0  0  0  0
  -29.0480  -15.6410   20.6230 H   0  0  0  0  0  0  0  0  0  0  0  0
  -25.3230  -13.9920   20.4660 C   0  0  0  0  0  0  0  0  0  0  0  0
  -24.2770  -13.2150   20.8860 C   0  0  0  0  0  0  0  0  0  0  0  0
  -24.7170  -11.8610   20.7610 C   0  0  0  0  0  0  0  0  0  0  0  0
  -26.3340  -13.1110   20.1150 N   0  0  0  0  0  0  0  0  0  0  0  0
  -25.9780  -11.8230   20.3500 N   0  0  0  0  0  0  0  0  0  0  0  0
  -23.9900  -10.5990   20.9530 C   0  0  0  0  0  0  0  0  0  0  0  0
  -24.4210   -9.6340   21.8890 C   0  0  0  0  0  3  0  0  0  0  0  0
  -23.6950   -8.4370   22.0690 C   0  0  0  0  0  3  0  0  0  0  0  0
  -22.5240   -8.1970   21.3110 C   0  0  0  0  0  0  0  0  0  0  0  0
  -22.1140   -9.1500   20.3620 C   0  0  0  0  0  3  0  0  0  0  0  0
  -22.8410  -10.3390   20.1810 C   0  0  0  0  0  3  0  0  0  0  0  0
  -21.7700   -7.0520   21.3980 O   0  0  0  0  0  0  0  0  0  0  0  0
  -21.6560   -6.3550   22.5740 C   0  0  0  0  0  0  0  0  0  0  0  0
  -21.1050   -6.9380   23.7370 C   0  0  0  0  0  3  0  0  0  0  0  0
  -20.9430   -6.1640   24.9030 C   0  0  0  0  0  3  0  0  0  0  0  0
  -21.3200   -4.8080   24.9060 C   0  0  0  0  0  0  0  0  0  0  0  0
  -21.8620   -4.2240   23.7480 C   0  0  0  0  0  3  0  0  0  0  0  0
  -22.0270   -4.9950   22.5850 C   0  0  0  0  0  0  0  0  0  0  0  0
  -22.5310   -4.4210   21.4650 F   0  0  0  0  0  0  0  0  0  0  0  0
  -21.1560   -4.0610   26.0240 F   0  0  0  0  0  0  0  0  0  0  0  0
  -22.9130  -13.6950   21.2890 C   0  0  0  0  0  0  0  0  0  0  0  0
  -22.2400  -12.9600   22.1670 N   0  0  0  0  0  0  0  0  0  0  0  0
  -22.4540  -14.7520   20.8590 O   0  0  0  0  0  0  0  0  0  0  0  0
  -22.6240  -12.1030   22.5360 H   0  0  0  0  0  0  0  0  0  0  0  0
  -21.3260  -13.2600   22.4770 H   0  0  0  0  0  0  0  0  0  0  0  0
  -25.4910  -15.3680   20.3320 N   0  0  0  0  0  0  0  0  0  0  0  0
  -24.7330  -16.0180   20.5130 H   0  0  0  0  0  0  0  0  0  0  0  0
  -26.2990  -15.8110   19.9140 H   0  0  0  0  0  0  0  0  0  0  0  0
  -28.4320  -24.3940   20.4310 C   0  0  0  0  0  2  0  0  0  0  0  0
  -27.6690  -26.2620   22.1270 C   0  0  0  0  0  1  0  0  0  0  0  0
  -28.4620  -25.9260   20.8380 C   0  0  0  0  0  3  0  0  0  0  0  0
  -28.1690  -26.8360   19.7360 O   0  0  0  0  0  0  0  0  0  0  0  0
  -24.4620  -31.9330   23.0950 C   0  0  0  0  0  0  0  0  0  0  0  0
  -27.0190  -27.6030   19.7910 C   0  0  0  0  0  0  0  0  0  0  0  0
  -23.2100  -30.5830   21.4410 C   0  0  0  0  0  3  0  0  0  0  0  0
  -24.6240  -29.1040   19.9150 C   0  0  0  0  0  0  0  0  0  0  0  0
  -25.7250  -30.9640   21.1740 C   0  0  0  0  0  2  0  0  0  0  0  0
  -25.7980  -29.6160   20.4830 C   0  0  0  0  0  0  0  0  0  0  0  0
  -27.0010  -28.8780   20.4100 C   0  0  0  0  0  3  0  0  0  0  0  0
  -25.8350  -27.1080   19.2110 C   0  0  0  0  0  3  0  0  0  0  0  0
  -24.6390  -27.8520   19.2710 C   0  0  0  0  0  3  0  0  0  0  0  0
  -23.3770  -29.9530   20.0330 C   0  0  0  0  0  2  0  0  0  0  0  0
  -24.4860  -31.1740   21.9620 N   0  0  0  0  0  0  0  0  0  0  0  0
  -23.3980  -32.1790   23.6790 O   0  0  0  0  0  0  0  0  0  0  0  0
  -22.5930  -29.5290   22.3890 C   0  0  0  0  0  0  0  0  0  0  0  0
  -21.2650  -29.3470   22.3000 N   0  0  0  0  0  0  0  0  0  0  0  0
  -23.3050  -28.8770   23.1570 O   0  0  0  0  0  0  0  0  0  0  0  0
  -20.7510  -29.9300   21.6530 H   0  0  0  0  0  0  0  0  0  0  0  0
  -17.9100  -28.1280   22.8620 C   0  0  0  0  0  0  0  0  0  0  0  0
  -20.4760  -28.3790   23.0590 C   0  0  0  0  0  3  0  0  0  0  0  0
  -20.5610  -26.9720   22.4240 C   0  0  0  0  0  2  0  0  0  0  0  0
  -19.4260  -26.6860   21.4360 C   0  0  0  0  0  2  0  0  0  0  0  0
  -18.0650  -26.8050   22.1300 C   0  0  0  0  0  2  0  0  0  0  0  0
  -19.0420  -28.8740   23.2840 C   0  0  0  0  0  0  0  0  0  0  0  0
  -18.8420  -30.1150   23.9280 C   0  0  0  0  0  3  0  0  0  0  0  0
  -17.5440  -30.6070   24.1560 C   0  0  0  0  0  3  0  0  0  0  0  0
  -16.4260  -29.8560   23.7520 C   0  0  0  0  0  3  0  0  0  0  0  0
  -16.6110  -28.6190   23.1090 C   0  0  0  0  0  3  0  0  0  0  0  0
  -25.7650  -32.5480   23.6960 C   0  0  0  0  0  3  0  0  0  0  0  0
  -26.3220  -31.7380   24.9310 C   0  0  1  0  0  0  0  0  0  0  0  0
  -25.2630  -31.4610   26.0230 C   0  0  0  0  0  1  0  0  0  0  0  0
  -26.8970  -30.3780   24.4730 C   0  0  0  0  0  1  0  0  0  0  0  0
  -27.4880  -32.5160   25.5860 C   0  0  0  0  0  1  0  0  0  0  0  0
  -25.4650  -33.9360   24.0760 N   0  0  0  0  0  0  0  0  0  0  0  0
  -25.7900  -35.0110   23.3480 C   0  0  0  0  0  0  0  0  0  0  0  0
  -26.4440  -34.9400   22.3030 O   0  0  0  0  0  0  0  0  0  0  0  0
  -24.8840  -34.0670   24.8920 H   0  0  0  0  0  0  0  0  0  0  0  0
  -24.0700  -36.8260   23.0700 C   0  0  0  0  0  1  0  0  0  0  0  0
  -25.3140  -36.3850   23.8580 C   0  0  0  0  0  3  0  0  0  0  0  0
  -27.4540  -37.2330   24.7110 C   0  0  0  0  0  1  0  0  0  0  0  0
  -26.3510  -37.4360   23.7750 N   0  0  0  0  0  0  0  0  0  0  0  0
  -25.9510  -38.3540   23.9500 H   0  0  0  0  0  0  0  0  0  0  0  0
  1  7  1  0
  2  4  1  0
  3  6  1  0
  3  2  1  0
  4  5  1  1
  6  1  1  0
  6  4  1  0
  7  9  1  0
  7  8  1  0
 11 10  1  0
 12 10  2  0
 13 15  2  0
 13 14  1  0
 14  1  1  0
 14 11  2  0
 15 12  1  0
 16 24  1  0
 17 22  1  0
 18 19  1  0
 18 17  1  0
 20 19  1  0
 20 29  1  0
 20 21  1  0
 22 16  1  0
 22 21  1  0
 23 16  2  0
 24 25  1  0
 24 15  1  0
 26 27  2  0
 27 46  1  0
 28 27  1  0
 28 31  1  0
 29 30  1  0
 29 26  1  0
 30 28  2  0
 31 32  1  0
 32 33  2  0
 34 37  1  0
 34 33  1  0
 35 34  2  0
 36 35  1  0
 36 31  2  0
 37 38  1  0
 38 43  2  0
 38 39  1  0
 39 40  2  0
 40 41  1  0
 41 45  1  0
 42 41  2  0
 43 42  1  0
 44 43  1  0
 46 47  1  0
 47 50  1  0
 47 49  1  0
 48 46  2  0
 51 26  1  0
 51 52  1  0
 53 51  1  0
 54 56  1  0
 54  4  1  0
 56 55  1  0
 57 59  1  0
 57 56  1  0
 58 69  2  0
 59 64  1  0
 60 68  1  0
 60 70  1  0
 61 67  1  0
 61 63  1  0
 62 68  1  0
 63 62  1  0
 64 63  2  0
 65 66  1  0
 65 59  2  0
 66 61  2  0
 67 60  1  0
 68 58  1  0
 70 72  2  0
 71 70  1  0
 73 71  1  0
 74 83  2  0
 74 79  1  0
 75 71  1  0
 75 79  1  0
 76 75  1  0
 77 78  1  0
 77 76  1  0
 78 74  1  0
 79 80  2  0
 80 81  1  0
 82 81  2  0
 83 82  1  0
 84 58  1  0
 84 89  1  0
 84 85  1  0
 85 88  1  1
 85 86  1  0
 87 85  1  0
 89 92  1  0
 90 94  1  0
 90 89  1  0
 91 90  2  0
 94 93  1  0
 96 94  1  0
 96 97  1  0
 96 95  1  0
M  ISO  4  16 100  24 100  56 101  57 101
M  END
>  <TORSDO>  (55) 
F 19

>  <SCORE>  (55) 
-13.854

>  <name>  (55) 
54

>  <ligand_id>  (55) 
54

>  <original_smiles>  (55) 
[H]c1c([H])c(C(N2C([H])([H])C([H])([H])C2(C([H])([H])[H])C([H])([H])C([H])(Oc2c([H])c([H])c3c(c2[H])C([H])([H])N(C(=O)C([H])(N([H])C(=O)C([H])(N([H])C([H])([H])[H])C([H])([H])[H])C(C([H])([H])[H])(C([H])([H])[H])C([H])([H])[H])C([H])(C(=O)N([H])C2([H])c4c([H])c([H])c([H])c([H])c4C([H])([H])C([H])([H])C2([H])[H])C3([H])[H])C([H])([H])[H])=[N+]([H])[H])c([H])c(N([H])C(=O)N2C([H])([H])C([H])([H])C([H])([H])C([H])(n3nc(-c4c([H])c([H])c(Oc5c([H])c([H])c(F)c([H])c5F)c([H])c4[H])c(C(=O)N([H])[H])c3N([H])[H])C2([H])[H])c1[H]

>  <smiles>  (55) 
[H]c1c([H])c(C(N2C([H])([H])C([H])([H])C2(C([H])([H])[H])C([H])([H])C([H])(Oc2c([H])c([H])c3c(c2[H])C([H])([H])N(C(=O)C([H])(N([H])C(=O)C([H])(N([H])C([H])([H])[H])C([H])([H])[H])C(C([H])([H])[H])(C([H])([H])[H])C([H])([H])[H])C([H])(C(=O)N([H])C2([H])c4c([H])c([H])c([H])c([H])c4C([H])([H])C([H])([H])C2([H])[H])C3([H])[H])C([H])([H])[H])=[N+]([H])[H])c([H])c(N([H])C(=O)N2C([H])([H])C([H])([H])C([H])([H])C([H])(n3nc(-c4c([H])c([H])c(Oc5c([H])c([H])c(F)c([H])c5F)c([H])c4[H])c(C(=O)N([H])[H])c3N([H])[H])C2([H])[H])c1[H]

$$$$
55:0:0
     RDKit          3D

 98107  0  0  1  0  0  0  0  0999 V2000
  -28.6600  -21.5010   20.1660 C   0  0  0  0  0  2  0  0  0  0  0  0
  -30.9180  -24.0460   21.9380 C   0  0  0  0  0  2  0  0  0  0  0  0
  -30.7410  -24.7050   20.5600 C   0  0  0  0  0  2  0  0  0  0  0  0
  -30.0840  -22.7570   21.8980 C   0  0  0  0  0  2  0  0  0  0  0  0
  -29.4620  -24.0850   19.9600 C   0  0  1  0  0  0  0  0  0  0  0  0
  -29.5440  -24.0860   18.4190 C   0  0  0  0  0  1  0  0  0  0  0  0
  -29.5940  -22.6520   20.5090 N   0  0  2  0  0  4  0  0  0  0  0  0
  -30.4310  -22.3410   20.0400 H   0  0  0  0  0  0  0  0  0  0  0  0
  -28.2240  -25.0090   20.4060 C   0  0  0  0  0  2  0  0  0  0  0  0
  -28.3600  -26.4730   20.1350 O   0  0  0  0  0  0  0  0  0  0  0  0
  -24.6270  -31.8580   23.2010 C   0  0  0  0  0  0  0  0  0  0  0  0
  -27.2270  -27.3030   20.1260 C   0  0  0  0  0  0  0  0  0  0  0  0
  -23.4210  -30.4800   21.5440 C   0  0  0  0  0  3  0  0  0  0  0  0
  -24.8680  -28.9280   20.1170 C   0  0  0  0  0  0  0  0  0  0  0  0
  -25.9630  -30.7850   21.3730 C   0  0  0  0  0  2  0  0  0  0  0  0
  -26.0370  -29.4090   20.7190 C   0  0  0  0  0  0  0  0  0  0  0  0
  -27.2200  -28.6100   20.7090 C   0  0  0  0  0  3  0  0  0  0  0  0
  -26.0360  -26.8780   19.4970 C   0  0  0  0  0  3  0  0  0  0  0  0
  -24.8710  -27.6680   19.4960 C   0  0  0  0  0  3  0  0  0  0  0  0
  -23.6370  -29.8100   20.1610 C   0  0  0  0  0  2  0  0  0  0  0  0
  -24.6890  -31.0580   22.0960 N   0  0  0  0  0  0  0  0  0  0  0  0
  -23.5430  -32.1390   23.7330 O   0  0  0  0  0  0  0  0  0  0  0  0
  -22.7470  -29.4630   22.4940 C   0  0  0  0  0  0  0  0  0  0  0  0
  -21.4180  -29.3050   22.3670 N   0  0  0  0  0  0  0  0  0  0  0  0
  -23.4190  -28.8170   23.3030 O   0  0  0  0  0  0  0  0  0  0  0  0
  -20.9360  -29.8750   21.6860 H   0  0  0  0  0  0  0  0  0  0  0  0
  -18.0280  -28.1400   22.8490 C   0  0  0  0  0  0  0  0  0  0  0  0
  -20.5890  -28.3700   23.1280 C   0  0  0  0  0  3  0  0  0  0  0  0
  -20.6780  -26.9420   22.5410 C   0  0  0  0  0  2  0  0  0  0  0  0
  -19.5750  -26.6390   21.5210 C   0  0  0  0  0  2  0  0  0  0  0  0
  -18.1930  -26.7940   22.1620 C   0  0  0  0  0  2  0  0  0  0  0  0
  -19.1540  -28.8860   23.2880 C   0  0  0  0  0  0  0  0  0  0  0  0
  -18.9460  -30.1460   23.8900 C   0  0  0  0  0  3  0  0  0  0  0  0
  -17.6460  -30.6600   24.0570 C   0  0  0  0  0  3  0  0  0  0  0  0
  -16.5350  -29.9100   23.6340 C   0  0  0  0  0  3  0  0  0  0  0  0
  -16.7270  -28.6510   23.0350 C   0  0  0  0  0  3  0  0  0  0  0  0
  -25.9120  -32.4770   23.8330 C   0  0  0  0  0  3  0  0  0  0  0  0
  -26.4500  -31.6590   25.0710 C   0  0  1  0  0  0  0  0  0  0  0  0
  -25.3720  -31.3720   26.1430 C   0  0  0  0  0  1  0  0  0  0  0  0
  -27.0340  -30.3000   24.6180 C   0  0  0  0  0  1  0  0  0  0  0  0
  -27.6050  -32.4330   25.7490 C   0  0  0  0  0  1  0  0  0  0  0  0
  -25.5930  -33.8580   24.2270 N   0  0  0  0  0  0  0  0  0  0  0  0
  -25.9050  -34.9450   23.5100 C   0  0  0  0  0  0  0  0  0  0  0  0
  -26.5630  -34.8920   22.4660 O   0  0  0  0  0  0  0  0  0  0  0  0
  -25.0080  -33.9720   25.0410 H   0  0  0  0  0  0  0  0  0  0  0  0
  -24.1490  -36.7280   23.2640 C   0  0  0  0  0  1  0  0  0  0  0  0
  -25.4120  -36.3080   24.0320 C   0  0  0  0  0  3  0  0  0  0  0  0
  -27.5580  -37.1800   24.8470 C   0  0  0  0  0  1  0  0  0  0  0  0
  -26.4290  -37.3780   23.9410 N   0  0  0  0  0  0  0  0  0  0  0  0
  -26.0170  -38.2850   24.1420 H   0  0  0  0  0  0  0  0  0  0  0  0
  -30.1020  -19.3470   19.8720 C   0  0  0  0  0  3  0  0  0  0  0  0
  -30.4150  -17.9550   20.0030 C   0  0  0  0  0  3  0  0  0  0  0  0
  -28.6270  -17.7600   21.5720 C   0  0  0  0  0  3  0  0  0  0  0  0
  -29.0340  -19.9990   20.5680 C   0  0  0  0  0  0  0  0  0  0  0  0
  -28.2830  -19.1550   21.4740 C   0  0  0  0  0  0  0  0  0  0  0  0
  -29.6590  -17.1100   20.8520 C   0  0  0  0  0  0  0  0  0  0  0  0
  -30.5880  -14.6650   20.5160 C   0  0  0  0  0  0  0  0  0  0  0  0
  -30.4500  -12.4120   19.4530 C   0  0  0  0  0  2  0  0  0  0  0  0
  -29.5150  -12.5200   18.2270 C   0  0  0  0  0  2  0  0  0  0  0  0
  -28.0350  -12.3540   18.6340 C   0  0  0  0  0  2  0  0  0  0  0  0
  -27.6580  -13.2140   19.8700 C   0  0  0  0  0  3  0  0  0  0  0  0
  -28.7010  -13.0470   20.9970 C   0  0  0  0  0  2  0  0  0  0  0  0
  -30.0150  -13.4180   20.4450 N   0  0  0  0  0  0  0  0  0  0  0  0
  -31.7260  -14.8730   20.0810 O   0  0  0  0  0  0  0  0  0  0  0  0
  -29.7760  -15.6530   21.0140 N   0  0  0  0  0  0  0  0  0  0  0  0
  -28.9790  -15.2440   21.4790 H   0  0  0  0  0  0  0  0  0  0  0  0
  -25.2580  -13.8170   20.5700 C   0  0  0  0  0  0  0  0  0  0  0  0
  -24.1840  -13.0440   20.9200 C   0  0  0  0  0  0  0  0  0  0  0  0
  -24.6400  -11.6910   20.8740 C   0  0  0  0  0  0  0  0  0  0  0  0
  -26.3010  -12.9340   20.3340 N   0  0  0  0  0  0  0  0  0  0  0  0
  -25.9330  -11.6490   20.5750 N   0  0  0  0  0  0  0  0  0  0  0  0
  -23.9070  -10.4290   21.0400 C   0  0  0  0  0  0  0  0  0  0  0  0
  -24.3630   -9.4210   21.9180 C   0  0  0  0  0  3  0  0  0  0  0  0
  -23.6300   -8.2250   22.0750 C   0  0  0  0  0  3  0  0  0  0  0  0
  -22.4280   -8.0290   21.3550 C   0  0  0  0  0  0  0  0  0  0  0  0
  -21.9920   -9.0260   20.4640 C   0  0  0  0  0  3  0  0  0  0  0  0
  -22.7250  -10.2140   20.3050 C   0  0  0  0  0  3  0  0  0  0  0  0
  -21.6640   -6.8890   21.4250 O   0  0  0  0  0  0  0  0  0  0  0  0
  -21.6850   -6.0740   22.5280 C   0  0  0  0  0  0  0  0  0  0  0  0
  -21.4010   -6.5640   23.8220 C   0  0  0  0  0  3  0  0  0  0  0  0
  -21.3660   -5.6780   24.9180 C   0  0  0  0  0  3  0  0  0  0  0  0
  -21.6050   -4.3050   24.7220 C   0  0  0  0  0  0  0  0  0  0  0  0
  -21.8820   -3.8150   23.4340 C   0  0  0  0  0  3  0  0  0  0  0  0
  -21.9200   -4.6970   22.3400 C   0  0  0  0  0  0  0  0  0  0  0  0
  -22.1660   -4.2160   21.0980 F   0  0  0  0  0  0  0  0  0  0  0  0
  -21.5640   -3.4540   25.7740 F   0  0  0  0  0  0  0  0  0  0  0  0
  -22.7860  -13.5240   21.1860 C   0  0  0  0  0  0  0  0  0  0  0  0
  -22.0480  -12.8230   22.0410 N   0  0  0  0  0  0  0  0  0  0  0  0
  -22.3550  -14.5550   20.6720 O   0  0  0  0  0  0  0  0  0  0  0  0
  -22.4090  -11.9890   22.4800 H   0  0  0  0  0  0  0  0  0  0  0  0
  -21.1100  -13.1240   22.2590 H   0  0  0  0  0  0  0  0  0  0  0  0
  -25.4300  -15.1900   20.4130 N   0  0  0  0  0  0  0  0  0  0  0  0
  -24.6630  -15.8420   20.5270 H   0  0  0  0  0  0  0  0  0  0  0  0
  -26.2790  -15.6300   20.0840 H   0  0  0  0  0  0  0  0  0  0  0  0
  -26.6130  -18.6310   23.4010 C   0  0  0  0  0  1  0  0  0  0  0  0
  -25.8240  -19.8190   21.3950 C   0  0  0  0  0  1  0  0  0  0  0  0
  -27.3420  -20.9400   23.1020 C   0  0  0  0  0  1  0  0  0  0  0  0
  -27.0540  -19.6450   22.3110 C   0  0  2  0  0  0  0  0  0  0  0  0
  1  7  1  0
  1 54  1  0
  3  2  1  0
  4  2  1  0
  5  6  1  6
  5  9  1  0
  5  7  1  0
  5  3  1  0
  7  4  1  0
  7  8  1  6
 10  9  1  0
 11 22  2  0
 12 10  1  0
 12 17  1  0
 13 21  1  0
 13 23  1  0
 14 20  1  0
 14 16  1  0
 15 21  1  0
 16 15  1  0
 17 16  2  0
 18 12  2  0
 19 18  1  0
 19 14  2  0
 20 13  1  0
 21 11  1  0
 23 25  2  0
 24 23  1  0
 26 24  1  0
 27 36  2  0
 27 32  1  0
 28 24  1  0
 28 32  1  0
 29 28  1  0
 30 31  1  0
 30 29  1  0
 31 27  1  0
 32 33  2  0
 33 34  1  0
 35 34  2  0
 36 35  1  0
 37 11  1  0
 37 42  1  0
 37 38  1  0
 38 41  1  1
 38 39  1  0
 40 38  1  0
 42 45  1  0
 43 47  1  0
 43 42  1  0
 44 43  2  0
 47 46  1  0
 49 47  1  0
 49 50  1  0
 49 48  1  0
 51 52  2  0
 51 54  1  0
 52 56  1  0
 54 55  2  0
 55 53  1  0
 55 98  1  0
 56 65  1  0
 56 53  2  0
 57 65  1  0
 58 63  1  0
 59 60  1  0
 59 58  1  0
 61 60  1  0
 61 70  1  0
 61 62  1  0
 63 57  1  0
 63 62  1  0
 64 57  2  0
 65 66  1  0
 67 68  2  0
 68 87  1  0
 69 68  1  0
 69 72  1  0
 70 67  1  0
 70 71  1  0
 71 69  2  0
 72 73  1  0
 73 74  2  0
 75 78  1  0
 75 74  1  0
 76 75  2  0
 77 76  1  0
 77 72  2  0
 78 79  1  0
 79 80  1  0
 80 81  2  0
 82 81  1  0
 82 86  1  0
 83 82  2  0
 84 79  2  0
 84 83  1  0
 85 84  1  0
 87 88  1  0
 88 91  1  0
 88 90  1  0
 89 87  2  0
 92 93  1  0
 92 67  1  0
 94 92  1  0
 98 96  1  6
 98 97  1  0
 98 95  1  0
M  ISO  4   9 101  10 101  57 100  65 100
M  END
>  <TORSDO>  (56) 
F 20

>  <SCORE>  (56) 
19.963

>  <name>  (56) 
55

>  <ligand_id>  (56) 
55

>  <original_smiles>  (56) 
[H]c1c([H])c([H])c2c(c1[H])C([H])([H])C([H])([H])C([H])([H])C2([H])N([H])C(=O)C1([H])N(C(=O)C([H])(N([H])C(=O)C([H])(N([H])C([H])([H])[H])C([H])([H])[H])C(C([H])([H])[H])(C([H])([H])[H])C([H])([H])[H])C([H])([H])c2c([H])c(OC([H])([H])C3(C([H])([H])[H])C([H])([H])C([H])([H])C([H])([H])[N+]3([H])C([H])([H])c3c([H])c([H])c(N([H])C(=O)N4C([H])([H])C([H])([H])C([H])([H])C([H])(n5nc(-c6c([H])c([H])c(Oc7c([H])c([H])c(F)c([H])c7F)c([H])c6[H])c(C(=O)N([H])[H])c5N([H])[H])C4([H])[H])c([H])c3C(C([H])([H])[H])(C([H])([H])[H])C([H])([H])[H])c([H])c([H])c2C1([H])[H]

>  <smiles>  (56) 
[H]c1c([H])c([H])c2c(c1[H])C([H])([H])C([H])([H])C([H])([H])C2([H])N([H])C(=O)C1([H])N(C(=O)C([H])(N([H])C(=O)C([H])(N([H])C([H])([H])[H])C([H])([H])[H])C(C([H])([H])[H])(C([H])([H])[H])C([H])([H])[H])C([H])([H])c2c([H])c(OC([H])([H])C3(C([H])([H])[H])C([H])([H])C([H])([H])C([H])([H])[N+]3([H])C([H])([H])c3c([H])c([H])c(N([H])C(=O)N4C([H])([H])C([H])([H])C([H])([H])C([H])(n5nc(-c6c([H])c([H])c(Oc7c([H])c([H])c(F)c([H])c7F)c([H])c6[H])c(C(=O)N([H])[H])c5N([H])[H])C4([H])[H])c([H])c3C(C([H])([H])[H])(C([H])([H])[H])C([H])([H])[H])c([H])c([H])c2C1([H])[H]

$$$$
56:0:0
     RDKit          3D

 96104  0  0  1  0  0  0  0  0999 V2000
  -27.9720  -20.5810   20.6480 C   0  0  0  0  0  0  0  0  0  0  0  0
  -28.7010  -19.5200   20.2590 N   0  0  0  0  0  0  0  0  0  0  0  0
  -28.0930  -21.1460   21.7370 O   0  0  0  0  0  0  0  0  0  0  0  0
  -28.4410  -19.1310   19.3630 H   0  0  0  0  0  0  0  0  0  0  0  0
  -29.8300  -17.4190   20.7210 C   0  0  0  0  0  3  0  0  0  0  0  0
  -30.5140  -19.3940   21.9740 C   0  0  0  0  0  3  0  0  0  0  0  0
  -31.5470  -17.2350   22.4460 C   0  0  0  0  0  3  0  0  0  0  0  0
  -29.6830  -18.7970   20.9960 C   0  0  0  0  0  0  0  0  0  0  0  0
  -30.7560  -16.6350   21.4460 C   0  0  0  0  0  0  0  0  0  0  0  0
  -31.4340  -18.6140   22.6990 C   0  0  0  0  0  0  0  0  0  0  0  0
  -32.1960  -19.1890   23.6590 F   0  0  0  0  0  0  0  0  0  0  0  0
  -31.1290  -14.5670   20.1680 C   0  0  0  0  0  0  0  0  0  0  0  0
  -30.7630  -12.4580   18.9330 C   0  0  0  0  0  2  0  0  0  0  0  0
  -29.7770  -12.6340   17.7630 C   0  0  0  0  0  2  0  0  0  0  0  0
  -28.3200  -12.4970   18.2440 C   0  0  0  0  0  2  0  0  0  0  0  0
  -28.0210  -13.3800   19.4800 C   0  0  0  0  0  3  0  0  0  0  0  0
  -29.0910  -13.1500   20.5690 C   0  0  0  0  0  2  0  0  0  0  0  0
  -30.4260  -13.4200   19.9920 N   0  0  0  0  0  0  0  0  0  0  0  0
  -32.0780  -14.9110   19.4550 O   0  0  0  0  0  0  0  0  0  0  0  0
  -30.7970  -15.2300   21.2830 N   0  0  0  0  0  0  0  0  0  0  0  0
  -30.1900  -14.7100   21.8980 H   0  0  0  0  0  0  0  0  0  0  0  0
  -25.6530  -14.0430   20.2580 C   0  0  0  0  0  0  0  0  0  0  0  0
  -24.5780  -13.2940   20.6540 C   0  0  0  0  0  0  0  0  0  0  0  0
  -25.0060  -11.9320   20.5980 C   0  0  0  0  0  0  0  0  0  0  0  0
  -26.6710  -13.1410   19.9910 N   0  0  0  0  0  0  0  0  0  0  0  0
  -26.2850  -11.8650   20.2480 N   0  0  0  0  0  0  0  0  0  0  0  0
  -24.2570  -10.6860   20.8010 C   0  0  0  0  0  0  0  0  0  0  0  0
  -24.6470   -9.7420   21.7760 C   0  0  0  0  0  3  0  0  0  0  0  0
  -23.9030   -8.5570   21.9640 C   0  0  0  0  0  3  0  0  0  0  0  0
  -22.7550   -8.3090   21.1740 C   0  0  0  0  0  0  0  0  0  0  0  0
  -22.3840   -9.2410   20.1890 C   0  0  0  0  0  3  0  0  0  0  0  0
  -23.1290  -10.4170   20.0000 C   0  0  0  0  0  3  0  0  0  0  0  0
  -21.9870   -7.1740   21.2680 O   0  0  0  0  0  0  0  0  0  0  0  0
  -21.8230   -6.5120   22.4580 C   0  0  0  0  0  0  0  0  0  0  0  0
  -21.2870   -7.1490   23.5990 C   0  0  0  0  0  3  0  0  0  0  0  0
  -21.0710   -6.4110   24.7810 C   0  0  0  0  0  3  0  0  0  0  0  0
  -21.3810   -5.0400   24.8220 C   0  0  0  0  0  0  0  0  0  0  0  0
  -21.9110   -4.4020   23.6870 C   0  0  0  0  0  3  0  0  0  0  0  0
  -22.1290   -5.1360   22.5070 C   0  0  0  0  0  0  0  0  0  0  0  0
  -22.6180   -4.5130   21.4080 F   0  0  0  0  0  0  0  0  0  0  0  0
  -21.1660   -4.3290   25.9550 F   0  0  0  0  0  0  0  0  0  0  0  0
  -23.2010  -13.7990   20.9780 C   0  0  0  0  0  0  0  0  0  0  0  0
  -22.4940  -13.1180   21.8720 N   0  0  0  0  0  0  0  0  0  0  0  0
  -22.7650  -14.8350   20.4760 O   0  0  0  0  0  0  0  0  0  0  0  0
  -22.8600  -12.2820   22.3020 H   0  0  0  0  0  0  0  0  0  0  0  0
  -21.5710  -13.4380   22.1310 H   0  0  0  0  0  0  0  0  0  0  0  0
  -25.8470  -15.4120   20.0890 N   0  0  0  0  0  0  0  0  0  0  0  0
  -25.1100  -16.0900   20.2470 H   0  0  0  0  0  0  0  0  0  0  0  0
  -26.7130  -15.8310   19.7760 H   0  0  0  0  0  0  0  0  0  0  0  0
  -26.9240  -21.0840   19.6500 C   0  0  0  0  0  2  0  0  0  0  0  0
  -26.9620  -22.6080   19.4210 C   0  0  0  0  0  2  0  0  0  0  0  0
  -28.3100  -23.1270   18.8760 C   0  0  0  0  0  2  0  0  0  0  0  0
  -28.3040  -24.6400   18.6710 C   0  0  0  0  0  0  0  0  0  0  0  0
  -28.2960  -25.1260   17.5370 O   0  0  0  0  0  0  0  0  0  0  0  0
  -28.3090  -25.5090   19.9360 C   0  0  0  0  0  2  0  0  0  0  0  0
  -28.3210  -26.9010   19.6200 O   0  0  0  0  0  0  0  0  0  0  0  0
  -24.5380  -31.7540   23.1510 C   0  0  0  0  0  0  0  0  0  0  0  0
  -27.1190  -27.5620   19.7170 C   0  0  0  0  0  0  0  0  0  0  0  0
  -23.2860  -30.4420   21.4700 C   0  0  0  0  0  3  0  0  0  0  0  0
  -24.7020  -29.0070   19.9110 C   0  0  0  0  0  0  0  0  0  0  0  0
  -25.7950  -30.8500   21.2000 C   0  0  0  0  0  2  0  0  0  0  0  0
  -25.8730  -29.5200   20.4800 C   0  0  0  0  0  0  0  0  0  0  0  0
  -27.0850  -28.8080   20.3750 C   0  0  0  0  0  3  0  0  0  0  0  0
  -25.9280  -27.0480   19.1550 C   0  0  0  0  0  3  0  0  0  0  0  0
  -24.7220  -27.7680   19.2480 C   0  0  0  0  0  3  0  0  0  0  0  0
  -23.4510  -29.8440   20.0470 C   0  0  0  0  0  2  0  0  0  0  0  0
  -24.5600  -31.0250   22.0000 N   0  0  0  0  0  0  0  0  0  0  0  0
  -23.4760  -31.9820   23.7460 O   0  0  0  0  0  0  0  0  0  0  0  0
  -22.6800  -29.3590   22.3890 C   0  0  0  0  0  0  0  0  0  0  0  0
  -21.3620  -29.1330   22.2570 N   0  0  0  0  0  0  0  0  0  0  0  0
  -23.3900  -28.7250   23.1740 O   0  0  0  0  0  0  0  0  0  0  0  0
  -20.8520  -29.7000   21.5950 H   0  0  0  0  0  0  0  0  0  0  0  0
  -18.0500  -27.7590   22.6620 C   0  0  0  0  0  0  0  0  0  0  0  0
  -20.5840  -28.1340   22.9890 C   0  0  0  0  0  3  0  0  0  0  0  0
  -20.7690  -26.7260   22.3760 C   0  0  0  0  0  2  0  0  0  0  0  0
  -19.7030  -26.3780   21.3340 C   0  0  0  0  0  2  0  0  0  0  0  0
  -18.3060  -26.4380   21.9560 C   0  0  0  0  0  2  0  0  0  0  0  0
  -19.1210  -28.5630   23.1320 C   0  0  0  0  0  0  0  0  0  0  0  0
  -18.8290  -29.7990   23.7500 C   0  0  0  0  0  3  0  0  0  0  0  0
  -17.4980  -30.2300   23.9030 C   0  0  0  0  0  3  0  0  0  0  0  0
  -16.4410  -29.4230   23.4490 C   0  0  0  0  0  3  0  0  0  0  0  0
  -16.7170  -28.1890   22.8340 C   0  0  0  0  0  3  0  0  0  0  0  0
  -25.8420  -32.3590   23.7630 C   0  0  0  0  0  3  0  0  0  0  0  0
  -25.5450  -33.7420   24.1550 N   0  0  0  0  0  0  0  0  0  0  0  0
  -25.8790  -34.8230   23.4360 C   0  0  0  0  0  0  0  0  0  0  0  0
  -26.5390  -34.7590   22.3950 O   0  0  0  0  0  0  0  0  0  0  0  0
  -24.9570  -33.8680   24.9660 H   0  0  0  0  0  0  0  0  0  0  0  0
  -24.1640  -36.6430   23.1640 C   0  0  0  0  0  1  0  0  0  0  0  0
  -25.4040  -36.1940   23.9550 C   0  0  0  0  0  3  0  0  0  0  0  0
  -27.5470  -37.0240   24.8200 C   0  0  0  0  0  1  0  0  0  0  0  0
  -26.4440  -37.2430   23.8860 N   0  0  0  0  0  0  0  0  0  0  0  0
  -26.0470  -38.1590   24.0750 H   0  0  0  0  0  0  0  0  0  0  0  0
  -26.3950  -31.5350   24.9900 C   0  0  1  0  0  0  0  0  0  0  0  0
  -25.3320  -31.2480   26.0760 C   0  0  0  0  0  1  0  0  0  0  0  0
  -26.9650  -30.1770   24.5180 C   0  0  0  0  0  1  0  0  0  0  0  0
  -27.5640  -32.3010   25.6520 C   0  0  0  0  0  1  0  0  0  0  0  0
  1  3  2  0
  2  1  1  0
  2  8  1  0
  4  2  1  0
  5  8  2  0
  5  9  1  0
  6 10  2  0
  7 10  1  0
  8  6  1  0
  9  7  2  0
 10 11  1  0
 12 20  1  0
 13 18  1  0
 14 15  1  0
 14 13  1  0
 16 15  1  0
 16 25  1  0
 16 17  1  0
 18 12  1  0
 18 17  1  0
 19 12  2  0
 20  9  1  0
 20 21  1  0
 22 23  2  0
 23 42  1  0
 24 23  1  0
 24 27  1  0
 25 26  1  0
 25 22  1  0
 26 24  2  0
 27 28  1  0
 28 29  2  0
 30 33  1  0
 30 29  1  0
 31 30  2  0
 32 31  1  0
 32 27  2  0
 33 34  1  0
 34 39  2  0
 34 35  1  0
 35 36  2  0
 36 37  1  0
 37 41  1  0
 38 37  2  0
 39 38  1  0
 40 39  1  0
 42 43  1  0
 43 46  1  0
 43 45  1  0
 44 42  2  0
 47 48  1  0
 47 22  1  0
 49 47  1  0
 50  1  1  0
 51 50  1  0
 52 51  1  0
 53 52  1  0
 53 55  1  0
 54 53  2  0
 56 58  1  0
 56 55  1  0
 57 68  2  0
 58 63  1  0
 59 67  1  0
 59 69  1  0
 60 66  1  0
 60 62  1  0
 61 67  1  0
 62 61  1  0
 63 62  2  0
 64 65  1  0
 64 58  2  0
 65 60  2  0
 66 59  1  0
 67 57  1  0
 69 71  2  0
 70 69  1  0
 72 70  1  0
 73 82  2  0
 73 78  1  0
 74 70  1  0
 74 78  1  0
 75 74  1  0
 76 77  1  0
 76 75  1  0
 77 73  1  0
 78 79  2  0
 79 80  1  0
 81 80  2  0
 82 81  1  0
 83 57  1  0
 83 84  1  0
 83 93  1  0
 84 87  1  0
 85 89  1  0
 85 84  1  0
 86 85  2  0
 89 88  1  0
 91 89  1  0
 91 92  1  0
 91 90  1  0
 93 96  1  1
 93 94  1  0
 95 93  1  0
M  ISO  4  12 100  20 100  55 101  56 101
M  END
>  <TORSDO>  (57) 
F 22

>  <SCORE>  (57) 
-11.063

>  <name>  (57) 
56

>  <ligand_id>  (57) 
56

>  <original_smiles>  (57) 
[H]c1c([H])c([H])c2c(c1[H])C([H])([H])C([H])([H])C([H])([H])C2([H])N([H])C(=O)C1([H])N(C(=O)C([H])(N([H])C(=O)C([H])(N([H])C([H])([H])[H])C([H])([H])[H])C(C([H])([H])[H])(C([H])([H])[H])C([H])([H])[H])C([H])([H])c2c([H])c(OC([H])([H])C(=O)C([H])([H])C([H])([H])C([H])([H])C(=O)N([H])c3c([H])c(F)c([H])c(N([H])C(=O)N4C([H])([H])C([H])([H])C([H])([H])C([H])(n5nc(-c6c([H])c([H])c(Oc7c([H])c([H])c(F)c([H])c7F)c([H])c6[H])c(C(=O)N([H])[H])c5N([H])[H])C4([H])[H])c3[H])c([H])c([H])c2C1([H])[H]

>  <smiles>  (57) 
[H]c1c([H])c([H])c2c(c1[H])C([H])([H])C([H])([H])C([H])([H])C2([H])N([H])C(=O)C1([H])N(C(=O)C([H])(N([H])C(=O)C([H])(N([H])C([H])([H])[H])C([H])([H])[H])C(C([H])([H])[H])(C([H])([H])[H])C([H])([H])[H])C([H])([H])c2c([H])c(OC([H])([H])C(=O)C([H])([H])C([H])([H])C([H])([H])C(=O)N([H])c3c([H])c(F)c([H])c(N([H])C(=O)N4C([H])([H])C([H])([H])C([H])([H])C([H])(n5nc(-c6c([H])c([H])c(Oc7c([H])c([H])c(F)c([H])c7F)c([H])c6[H])c(C(=O)N([H])[H])c5N([H])[H])C4([H])[H])c3[H])c([H])c([H])c2C1([H])[H]

$$$$
57:0:0
     RDKit          3D

 92101  0  0  1  0  0  0  0  0999 V2000
  -31.5110  -19.0610   20.4360 C   0  0  0  0  0  3  0  0  0  0  0  0
  -31.3930  -17.6510   20.5440 C   0  0  0  0  0  3  0  0  0  0  0  0
  -28.9610  -17.8410   20.6650 C   0  0  0  0  0  3  0  0  0  0  0  0
  -30.3410  -19.8430   20.4370 C   0  0  0  0  0  0  0  0  0  0  0  0
  -29.1010  -19.2460   20.5540 C   0  0  0  0  0  0  0  0  0  0  0  0
  -30.1220  -17.0150   20.6460 C   0  0  0  0  0  0  0  0  0  0  0  0
  -28.0930  -22.7980   20.2890 C   0  0  0  0  0  0  0  0  0  0  0  0
  -30.2010  -21.3530   20.3280 C   0  0  0  0  0  3  0  0  0  0  0  0
  -28.0270  -20.3120   20.5340 C   0  0  0  0  0  3  0  0  0  0  0  0
  -28.7450  -21.6030   20.3790 N   0  0  0  0  0  0  0  0  0  0  0  0
  -26.8610  -22.8350   20.3740 O   0  0  0  0  0  0  0  0  0  0  0  0
  -30.6850  -14.5700   20.2400 C   0  0  0  0  0  0  0  0  0  0  0  0
  -30.3730  -12.4200   19.0640 C   0  0  0  0  0  2  0  0  0  0  0  0
  -29.3970  -12.6550   17.8900 C   0  0  0  0  0  2  0  0  0  0  0  0
  -27.9360  -12.5070   18.3570 C   0  0  0  0  0  2  0  0  0  0  0  0
  -27.6350  -13.3080   19.6530 C   0  0  0  0  0  3  0  0  0  0  0  0
  -28.7220  -13.0570   20.7230 C   0  0  0  0  0  2  0  0  0  0  0  0
  -30.0270  -13.3820   20.1250 N   0  0  0  0  0  0  0  0  0  0  0  0
  -31.8160  -14.7370   19.7730 O   0  0  0  0  0  0  0  0  0  0  0  0
  -29.9480  -15.5870   20.7540 N   0  0  0  0  0  0  0  0  0  0  0  0
  -29.0430  -15.2880   21.0860 H   0  0  0  0  0  0  0  0  0  0  0  0
  -25.2510  -13.9030   20.4150 C   0  0  0  0  0  0  0  0  0  0  0  0
  -24.1960  -13.1250   20.8120 C   0  0  0  0  0  0  0  0  0  0  0  0
  -24.6640  -11.7760   20.7730 C   0  0  0  0  0  0  0  0  0  0  0  0
  -26.2950  -13.0260   20.1620 N   0  0  0  0  0  0  0  0  0  0  0  0
  -25.9470  -11.7430   20.4340 N   0  0  0  0  0  0  0  0  0  0  0  0
  -23.9500  -10.5100   20.9820 C   0  0  0  0  0  0  0  0  0  0  0  0
  -24.3980   -9.5560   21.9220 C   0  0  0  0  0  3  0  0  0  0  0  0
  -23.6850   -8.3550   22.1180 C   0  0  0  0  0  3  0  0  0  0  0  0
  -22.5080   -8.0980   21.3750 C   0  0  0  0  0  0  0  0  0  0  0  0
  -22.0790   -9.0410   20.4240 C   0  0  0  0  0  3  0  0  0  0  0  0
  -22.7940  -10.2340   20.2260 C   0  0  0  0  0  3  0  0  0  0  0  0
  -21.7650   -6.9470   21.4800 O   0  0  0  0  0  0  0  0  0  0  0  0
  -21.7220   -6.2210   22.6430 C   0  0  0  0  0  0  0  0  0  0  0  0
  -21.2790   -6.7870   23.8580 C   0  0  0  0  0  3  0  0  0  0  0  0
  -21.1840   -5.9870   25.0140 C   0  0  0  0  0  3  0  0  0  0  0  0
  -21.5230   -4.6220   24.9570 C   0  0  0  0  0  0  0  0  0  0  0  0
  -21.9600   -4.0550   23.7460 C   0  0  0  0  0  3  0  0  0  0  0  0
  -22.0560   -4.8530   22.5920 C   0  0  0  0  0  0  0  0  0  0  0  0
  -22.4580   -4.2970   21.4230 F   0  0  0  0  0  0  0  0  0  0  0  0
  -21.4260   -3.8510   26.0650 F   0  0  0  0  0  0  0  0  0  0  0  0
  -22.8020  -13.5950   21.1140 C   0  0  0  0  0  0  0  0  0  0  0  0
  -22.0960  -12.8930   21.9920 N   0  0  0  0  0  0  0  0  0  0  0  0
  -22.3490  -14.6200   20.6070 O   0  0  0  0  0  0  0  0  0  0  0  0
  -22.4750  -12.0640   22.4260 H   0  0  0  0  0  0  0  0  0  0  0  0
  -21.1620  -13.1900   22.2370 H   0  0  0  0  0  0  0  0  0  0  0  0
  -25.4030  -15.2730   20.2270 N   0  0  0  0  0  0  0  0  0  0  0  0
  -24.6270  -15.9170   20.3370 H   0  0  0  0  0  0  0  0  0  0  0  0
  -26.2250  -15.7090   19.8290 H   0  0  0  0  0  0  0  0  0  0  0  0
  -28.8430  -24.1380   20.0310 C   0  0  0  0  0  2  0  0  0  0  0  0
  -28.2730  -25.3700   20.8150 C   0  0  0  0  0  2  0  0  0  0  0  0
  -28.4340  -26.6660   20.1760 O   0  0  0  0  0  0  0  0  0  0  0  0
  -24.6130  -31.8780   23.2260 C   0  0  0  0  0  0  0  0  0  0  0  0
  -27.2900  -27.4440   20.1470 C   0  0  0  0  0  0  0  0  0  0  0  0
  -23.4240  -30.4790   21.5700 C   0  0  0  0  0  3  0  0  0  0  0  0
  -24.8940  -28.9580   20.1410 C   0  0  0  0  0  0  0  0  0  0  0  0
  -25.9510  -30.8480   21.3890 C   0  0  0  0  0  2  0  0  0  0  0  0
  -26.0490  -29.4810   20.7380 C   0  0  0  0  0  0  0  0  0  0  0  0
  -27.2530  -28.7340   20.7320 C   0  0  0  0  0  3  0  0  0  0  0  0
  -26.1220  -26.9450   19.5350 C   0  0  0  0  0  3  0  0  0  0  0  0
  -24.9270  -27.6910   19.5330 C   0  0  0  0  0  3  0  0  0  0  0  0
  -23.6440  -29.8090   20.1880 C   0  0  0  0  0  2  0  0  0  0  0  0
  -24.6810  -31.0830   22.1200 N   0  0  0  0  0  0  0  0  0  0  0  0
  -23.5280  -32.1420   23.7620 O   0  0  0  0  0  0  0  0  0  0  0  0
  -22.7720  -29.4500   22.5220 C   0  0  0  0  0  0  0  0  0  0  0  0
  -21.4460  -29.2750   22.4010 N   0  0  0  0  0  0  0  0  0  0  0  0
  -23.4570  -28.8120   23.3260 O   0  0  0  0  0  0  0  0  0  0  0  0
  -20.9550  -29.8410   21.7230 H   0  0  0  0  0  0  0  0  0  0  0  0
  -18.0660  -28.1040   22.9160 C   0  0  0  0  0  0  0  0  0  0  0  0
  -20.6290  -28.3320   23.1640 C   0  0  0  0  0  3  0  0  0  0  0  0
  -20.7120  -26.9100   22.5630 C   0  0  0  0  0  2  0  0  0  0  0  0
  -19.5960  -26.6170   21.5550 C   0  0  0  0  0  2  0  0  0  0  0  0
  -18.2220  -26.7650   22.2160 C   0  0  0  0  0  2  0  0  0  0  0  0
  -19.1970  -28.8480   23.3480 C   0  0  0  0  0  0  0  0  0  0  0  0
  -18.9960  -30.1020   23.9620 C   0  0  0  0  0  3  0  0  0  0  0  0
  -17.6980  -30.6140   24.1510 C   0  0  0  0  0  3  0  0  0  0  0  0
  -16.5830  -29.8660   23.7360 C   0  0  0  0  0  3  0  0  0  0  0  0
  -16.7680  -28.6140   23.1240 C   0  0  0  0  0  3  0  0  0  0  0  0
  -25.8920  -32.5130   23.8570 C   0  0  0  0  0  3  0  0  0  0  0  0
  -25.5780  -33.9110   24.1800 N   0  0  0  0  0  0  0  0  0  0  0  0
  -25.9170  -34.9620   23.4210 C   0  0  0  0  0  0  0  0  0  0  0  0
  -26.5950  -34.8560   22.3950 O   0  0  0  0  0  0  0  0  0  0  0  0
  -24.9750  -34.0670   24.9740 H   0  0  0  0  0  0  0  0  0  0  0  0
  -24.1930  -36.7530   23.0400 C   0  0  0  0  0  1  0  0  0  0  0  0
  -25.4220  -36.3500   23.8690 C   0  0  0  0  0  3  0  0  0  0  0  0
  -27.5430  -37.2400   24.7310 C   0  0  0  0  0  1  0  0  0  0  0  0
  -26.4560  -37.4030   23.7680 N   0  0  0  0  0  0  0  0  0  0  0  0
  -26.0470  -38.3240   23.9050 H   0  0  0  0  0  0  0  0  0  0  0  0
  -26.4010  -31.7450   25.1380 C   0  0  1  0  0  0  0  0  0  0  0  0
  -25.3000  -31.5060   26.1980 C   0  0  0  0  0  1  0  0  0  0  0  0
  -26.9910  -30.3680   24.7510 C   0  0  0  0  0  1  0  0  0  0  0  0
  -27.5450  -32.5430   25.8070 C   0  0  0  0  0  1  0  0  0  0  0  0
  1  4  1  0
  1  2  2  0
  2  6  1  0
  4  5  1  0
  5  3  1  0
  6  3  2  0
  6 20  1  0
  7 11  2  0
  7 10  1  0
  8 10  1  0
  8  4  2  0
  9  5  2  0
 10  9  1  0
 12 20  1  0
 13 18  1  0
 14 15  1  0
 14 13  1  0
 16 15  1  0
 16 25  1  0
 16 17  1  0
 18 12  1  0
 18 17  1  0
 19 12  2  0
 20 21  1  0
 22 23  2  0
 23 42  1  0
 24 23  1  0
 24 27  1  0
 25 22  1  0
 25 26  1  0
 26 24  2  0
 27 28  1  0
 28 29  2  0
 30 33  1  0
 30 29  1  0
 31 30  2  0
 32 31  1  0
 32 27  2  0
 33 34  1  0
 34 35  1  0
 35 36  2  0
 37 36  1  0
 37 41  1  0
 38 37  2  0
 39 34  2  0
 39 38  1  0
 40 39  1  0
 42 43  1  0
 43 46  1  0
 43 45  1  0
 44 42  2  0
 47 48  1  0
 47 22  1  0
 49 47  1  0
 50  7  1  0
 50 51  1  0
 52 51  1  0
 53 64  2  0
 54 52  1  0
 54 59  1  0
 55 63  1  0
 55 65  1  0
 56 62  1  0
 56 58  1  0
 57 63  1  0
 58 57  1  0
 59 58  2  0
 60 54  2  0
 61 60  1  0
 61 56  2  0
 62 55  1  0
 63 53  1  0
 65 67  2  0
 66 65  1  0
 68 66  1  0
 69 78  2  0
 69 74  1  0
 70 66  1  0
 70 74  1  0
 71 70  1  0
 72 73  1  0
 72 71  1  0
 73 69  1  0
 74 75  2  0
 75 76  1  0
 77 76  2  0
 78 77  1  0
 79 53  1  0
 79 80  1  0
 79 89  1  0
 80 83  1  0
 81 85  1  0
 81 80  1  0
 82 81  2  0
 85 84  1  0
 87 85  1  0
 87 88  1  0
 87 86  1  0
 89 92  1  1
 89 90  1  0
 91 89  1  0
M  ISO  4  12 100  20 100  51 101  52 101
M  END
>  <TORSDO>  (58) 
F 18

>  <SCORE>  (58) 
-14.832

>  <name>  (58) 
57

>  <ligand_id>  (58) 
57

>  <original_smiles>  (58) 
[H]c1c([H])c([H])c2c(c1[H])C([H])([H])C([H])([H])C([H])([H])C2([H])N([H])C(=O)C1([H])N(C(=O)C([H])(N([H])C(=O)C([H])(N([H])C([H])([H])[H])C([H])([H])[H])C(C([H])([H])[H])(C([H])([H])[H])C([H])([H])[H])C([H])([H])c2c([H])c(OC([H])([H])C([H])([H])C(=O)N3C([H])([H])c4c([H])c([H])c(N([H])C(=O)N5C([H])([H])C([H])([H])C([H])([H])C([H])(n6nc(-c7c([H])c([H])c(Oc8c([H])c([H])c(F)c([H])c8F)c([H])c7[H])c(C(=O)N([H])[H])c6N([H])[H])C5([H])[H])c([H])c4C3([H])[H])c([H])c([H])c2C1([H])[H]

>  <smiles>  (58) 
[H]c1c([H])c([H])c2c(c1[H])C([H])([H])C([H])([H])C([H])([H])C2([H])N([H])C(=O)C1([H])N(C(=O)C([H])(N([H])C(=O)C([H])(N([H])C([H])([H])[H])C([H])([H])[H])C(C([H])([H])[H])(C([H])([H])[H])C([H])([H])[H])C([H])([H])c2c([H])c(OC([H])([H])C([H])([H])C(=O)N3C([H])([H])c4c([H])c([H])c(N([H])C(=O)N5C([H])([H])C([H])([H])C([H])([H])C([H])(n6nc(-c7c([H])c([H])c(Oc8c([H])c([H])c(F)c([H])c8F)c([H])c7[H])c(C(=O)N([H])[H])c6N([H])[H])C5([H])[H])c([H])c4C3([H])[H])c([H])c([H])c2C1([H])[H]

$$$$
58:0:0
     RDKit          3D

 97106  0  0  1  0  0  0  0  0999 V2000
  -32.5970  -18.2970   21.6540 C   0  0  0  0  0  3  0  0  0  0  0  0
  -31.8550  -17.1140   21.4870 C   0  0  0  0  0  3  0  0  0  0  0  0
  -29.9250  -18.4030   20.6930 C   0  0  0  0  0  3  0  0  0  0  0  0
  -32.0200  -19.5220   21.2880 C   0  0  0  0  0  0  0  0  0  0  0  0
  -30.6960  -19.6030   20.8560 C   0  0  0  0  0  0  0  0  0  0  0  0
  -30.5380  -17.1220   20.9530 C   0  0  0  0  0  0  0  0  0  0  0  0
  -29.3540  -21.7610   20.4630 C   0  0  0  0  0  0  0  0  0  0  0  0
  -31.8150  -21.5850   20.3810 C   0  0  0  0  0  2  0  0  0  0  0  0
  -34.1320  -20.7630   21.0560 C   0  0  0  0  0  1  0  0  0  0  0  0
  -30.4820  -20.9770   20.4720 N   0  0  0  0  0  0  0  0  0  0  0  0
  -32.6800  -20.7520   21.2230 N   0  0  0  0  0  0  0  0  0  0  0  0
  -28.3030  -21.4090   21.0110 O   0  0  0  0  0  0  0  0  0  0  0  0
  -30.4760  -14.7460   20.1160 C   0  0  0  0  0  0  0  0  0  0  0  0
  -30.0780  -12.5940   18.9470 C   0  0  0  0  0  2  0  0  0  0  0  0
  -29.0690  -12.7840   17.7960 C   0  0  0  0  0  2  0  0  0  0  0  0
  -27.6370  -12.5810   18.3210 C   0  0  0  0  0  2  0  0  0  0  0  0
  -27.3580  -13.3880   19.6180 C   0  0  0  0  0  3  0  0  0  0  0  0
  -28.4950  -13.2430   20.6560 C   0  0  0  0  0  2  0  0  0  0  0  0
  -29.7580  -13.5860   19.9920 N   0  0  0  0  0  0  0  0  0  0  0  0
  -31.5760  -14.8540   19.5700 O   0  0  0  0  0  0  0  0  0  0  0  0
  -29.8900  -15.8420   20.6890 N   0  0  0  0  0  0  0  0  0  0  0  0
  -28.9040  -15.7740   20.8850 H   0  0  0  0  0  0  0  0  0  0  0  0
  -25.0060  -13.8780   20.5180 C   0  0  0  0  0  0  0  0  0  0  0  0
  -23.9900  -13.0570   20.9270 C   0  0  0  0  0  0  0  0  0  0  0  0
  -24.4920  -11.7220   20.8170 C   0  0  0  0  0  0  0  0  0  0  0  0
  -26.0570  -13.0440   20.1850 N   0  0  0  0  0  0  0  0  0  0  0  0
  -25.7600  -11.7390   20.4260 N   0  0  0  0  0  0  0  0  0  0  0  0
  -23.8180  -10.4310   21.0040 C   0  0  0  0  0  0  0  0  0  0  0  0
  -24.3080   -9.4660   21.9130 C   0  0  0  0  0  3  0  0  0  0  0  0
  -23.6300   -8.2400   22.0910 C   0  0  0  0  0  3  0  0  0  0  0  0
  -22.4490   -7.9700   21.3610 C   0  0  0  0  0  0  0  0  0  0  0  0
  -21.9780   -8.9230   20.4410 C   0  0  0  0  0  3  0  0  0  0  0  0
  -22.6560  -10.1410   20.2620 C   0  0  0  0  0  3  0  0  0  0  0  0
  -21.7370   -6.7990   21.4490 O   0  0  0  0  0  0  0  0  0  0  0  0
  -21.7100   -6.0580   22.6050 C   0  0  0  0  0  0  0  0  0  0  0  0
  -21.2240   -6.5910   23.8190 C   0  0  0  0  0  3  0  0  0  0  0  0
  -21.1510   -5.7750   24.9650 C   0  0  0  0  0  3  0  0  0  0  0  0
  -21.5530   -4.4260   24.8990 C   0  0  0  0  0  0  0  0  0  0  0  0
  -22.0320   -3.8950   23.6890 C   0  0  0  0  0  3  0  0  0  0  0  0
  -22.1070   -4.7080   22.5430 C   0  0  0  0  0  0  0  0  0  0  0  0
  -22.5510   -4.1840   21.3760 F   0  0  0  0  0  0  0  0  0  0  0  0
  -21.4740   -3.6400   25.9970 F   0  0  0  0  0  0  0  0  0  0  0  0
  -22.6000  -13.4780   21.3050 C   0  0  0  0  0  0  0  0  0  0  0  0
  -21.9540  -12.7230   22.1880 N   0  0  0  0  0  0  0  0  0  0  0  0
  -22.0990  -14.5060   20.8560 O   0  0  0  0  0  0  0  0  0  0  0  0
  -22.3750  -11.8890   22.5680 H   0  0  0  0  0  0  0  0  0  0  0  0
  -21.0250  -12.9840   22.4900 H   0  0  0  0  0  0  0  0  0  0  0  0
  -25.1150  -15.2580   20.3780 N   0  0  0  0  0  0  0  0  0  0  0  0
  -24.3350  -15.8820   20.5550 H   0  0  0  0  0  0  0  0  0  0  0  0
  -25.9240  -15.7350   19.9980 H   0  0  0  0  0  0  0  0  0  0  0  0
  -29.3580  -23.0960   19.6200 C   0  0  0  0  0  2  0  0  0  0  0  0
  -30.3500  -25.3790   19.2370 C   0  0  0  0  0  1  0  0  0  0  0  0
  -30.1330  -24.6620   21.6000 C   0  0  0  0  0  1  0  0  0  0  0  0
  -29.4350  -24.5860   20.2140 C   0  0  2  0  0  0  0  0  0  0  0  0
  -27.2910  -25.1630   21.6020 C   0  0  0  0  0  1  0  0  0  0  0  0
  -28.0230  -25.3380   20.2470 C   0  0  0  0  0  3  0  0  0  0  0  0
  -28.1080  -26.7670   19.9270 O   0  0  0  0  0  0  0  0  0  0  0  0
  -24.4570  -31.9480   23.1760 C   0  0  0  0  0  0  0  0  0  0  0  0
  -26.9470  -27.5310   19.9020 C   0  0  0  0  0  0  0  0  0  0  0  0
  -23.1770  -30.5900   21.5490 C   0  0  0  0  0  3  0  0  0  0  0  0
  -24.5660  -29.0810   20.0220 C   0  0  0  0  0  0  0  0  0  0  0  0
  -25.6980  -30.9410   21.2550 C   0  0  0  0  0  2  0  0  0  0  0  0
  -25.7510  -29.5850   20.5670 C   0  0  0  0  0  0  0  0  0  0  0  0
  -26.9460  -28.8250   20.4840 C   0  0  0  0  0  3  0  0  0  0  0  0
  -25.7390  -27.0580   19.3340 C   0  0  0  0  0  3  0  0  0  0  0  0
  -24.5560  -27.8220   19.3950 C   0  0  0  0  0  3  0  0  0  0  0  0
  -23.3290  -29.9420   20.1450 C   0  0  0  0  0  2  0  0  0  0  0  0
  -24.4630  -31.1770   22.0510 N   0  0  0  0  0  0  0  0  0  0  0  0
  -23.4000  -32.2050   23.7740 O   0  0  0  0  0  0  0  0  0  0  0  0
  -22.5590  -29.5520   22.5170 C   0  0  0  0  0  0  0  0  0  0  0  0
  -21.2330  -29.3510   22.4200 N   0  0  0  0  0  0  0  0  0  0  0  0
  -23.2720  -28.9290   23.3080 O   0  0  0  0  0  0  0  0  0  0  0  0
  -20.7220  -29.9080   21.7500 H   0  0  0  0  0  0  0  0  0  0  0  0
  -17.8980  -28.0560   22.9450 C   0  0  0  0  0  0  0  0  0  0  0  0
  -20.4510  -28.3870   23.1980 C   0  0  0  0  0  3  0  0  0  0  0  0
  -20.5880  -26.9590   22.6220 C   0  0  0  0  0  2  0  0  0  0  0  0
  -19.4880  -26.6060   21.6130 C   0  0  0  0  0  2  0  0  0  0  0  0
  -18.1100  -26.7110   22.2700 C   0  0  0  0  0  2  0  0  0  0  0  0
  -18.9990  -28.8510   23.3640 C   0  0  0  0  0  0  0  0  0  0  0  0
  -18.7520  -30.1030   23.9630 C   0  0  0  0  0  3  0  0  0  0  0  0
  -17.4380  -30.5690   24.1440 C   0  0  0  0  0  3  0  0  0  0  0  0
  -16.3510  -29.7730   23.7430 C   0  0  0  0  0  3  0  0  0  0  0  0
  -16.5810  -28.5190   23.1500 C   0  0  0  0  0  3  0  0  0  0  0  0
  -25.7710  -32.5580   23.7520 C   0  0  0  0  0  3  0  0  0  0  0  0
  -26.3320  -31.7710   25.0000 C   0  0  1  0  0  0  0  0  0  0  0  0
  -25.2740  -31.5210   26.1040 C   0  0  0  0  0  1  0  0  0  0  0  0
  -26.9020  -30.4000   24.5700 C   0  0  0  0  0  1  0  0  0  0  0  0
  -27.5130  -32.5520   25.6250 C   0  0  0  0  0  1  0  0  0  0  0  0
  -25.4920  -33.9560   24.1060 N   0  0  0  0  0  0  0  0  0  0  0  0
  -25.8310  -35.0150   23.3530 C   0  0  0  0  0  0  0  0  0  0  0  0
  -26.4740  -34.9120   22.3050 O   0  0  0  0  0  0  0  0  0  0  0  0
  -24.9100  -34.1070   24.9170 H   0  0  0  0  0  0  0  0  0  0  0  0
  -24.1320  -36.8430   23.0550 C   0  0  0  0  0  1  0  0  0  0  0  0
  -25.3810  -36.4060   23.8380 C   0  0  0  0  0  3  0  0  0  0  0  0
  -27.5400  -37.2430   24.6480 C   0  0  0  0  0  1  0  0  0  0  0  0
  -26.4320  -37.4390   23.7170 N   0  0  0  0  0  0  0  0  0  0  0  0
  -26.0490  -38.3650   23.8780 H   0  0  0  0  0  0  0  0  0  0  0  0
  2  1  1  0
  3  5  2  0
  3  6  1  0
  4  1  2  0
  5  4  1  0
  6  2  2  0
  7 10  1  0
  7 12  2  0
  8 10  1  0
  8 11  1  0
  9 11  1  0
 10  5  1  0
 11  4  1  0
 13 21  1  0
 14 19  1  0
 15 16  1  0
 15 14  1  0
 17 16  1  0
 17 26  1  0
 17 18  1  0
 19 13  1  0
 19 18  1  0
 20 13  2  0
 21 22  1  0
 21  6  1  0
 23 24  2  0
 24 43  1  0
 25 24  1  0
 25 28  1  0
 26 27  1  0
 26 23  1  0
 27 25  2  0
 28 29  1  0
 29 30  2  0
 31 34  1  0
 31 30  1  0
 32 31  2  0
 33 32  1  0
 33 28  2  0
 34 35  1  0
 35 36  1  0
 36 37  2  0
 38 37  1  0
 38 42  1  0
 39 38  2  0
 40 35  2  0
 40 39  1  0
 41 40  1  0
 43 44  1  0
 44 47  1  0
 44 46  1  0
 45 43  2  0
 48 23  1  0
 48 49  1  0
 50 48  1  0
 51 54  1  0
 51  7  1  0
 54 52  1  6
 54 56  1  0
 54 53  1  0
 56 55  1  0
 57 56  1  0
 58 69  2  0
 59 57  1  0
 59 64  1  0
 60 68  1  0
 60 70  1  0
 61 67  1  0
 61 63  1  0
 62 68  1  0
 63 62  1  0
 64 63  2  0
 65 66  1  0
 65 59  2  0
 66 61  2  0
 67 60  1  0
 68 58  1  0
 70 72  2  0
 71 70  1  0
 73 71  1  0
 74 83  2  0
 74 79  1  0
 75 71  1  0
 75 79  1  0
 76 75  1  0
 77 78  1  0
 77 76  1  0
 78 74  1  0
 79 80  2  0
 80 81  1  0
 82 81  2  0
 83 82  1  0
 84 58  1  0
 84 89  1  0
 84 85  1  0
 85 88  1  1
 85 86  1  0
 87 85  1  0
 89 92  1  0
 90 94  1  0
 90 89  1  0
 91 90  2  0
 94 93  1  0
 96 94  1  0
 96 97  1  0
 96 95  1  0
M  ISO  4  13 100  21 100  56 101  57 101
M  END
>  <TORSDO>  (59) 
F 19

>  <SCORE>  (59) 
-13.653

>  <name>  (59) 
58

>  <ligand_id>  (59) 
58

>  <original_smiles>  (59) 
[H]c1c([H])c([H])c2c(c1[H])C([H])([H])C([H])([H])C([H])([H])C2([H])N([H])C(=O)C1([H])N(C(=O)C([H])(N([H])C(=O)C([H])(N([H])C([H])([H])[H])C([H])([H])[H])C(C([H])([H])[H])(C([H])([H])[H])C([H])([H])[H])C([H])([H])c2c([H])c(OC([H])(C([H])([H])[H])C(C([H])([H])[H])(C([H])([H])[H])C([H])([H])C(=O)N3c4c([H])c(N([H])C(=O)N5C([H])([H])C([H])([H])C([H])([H])C([H])(n6nc(-c7c([H])c([H])c(Oc8c([H])c([H])c(F)c([H])c8F)c([H])c7[H])c(C(=O)N([H])[H])c6N([H])[H])C5([H])[H])c([H])c([H])c4N(C([H])([H])[H])C3([H])[H])c([H])c([H])c2C1([H])[H]

>  <smiles>  (59) 
[H]c1c([H])c([H])c2c(c1[H])C([H])([H])C([H])([H])C([H])([H])C2([H])N([H])C(=O)C1([H])N(C(=O)C([H])(N([H])C(=O)C([H])(N([H])C([H])([H])[H])C([H])([H])[H])C(C([H])([H])[H])(C([H])([H])[H])C([H])([H])[H])C([H])([H])c2c([H])c(OC([H])(C([H])([H])[H])C(C([H])([H])[H])(C([H])([H])[H])C([H])([H])C(=O)N3c4c([H])c(N([H])C(=O)N5C([H])([H])C([H])([H])C([H])([H])C([H])(n6nc(-c7c([H])c([H])c(Oc8c([H])c([H])c(F)c([H])c8F)c([H])c7[H])c(C(=O)N([H])[H])c6N([H])[H])C5([H])[H])c([H])c([H])c4N(C([H])([H])[H])C3([H])[H])c([H])c([H])c2C1([H])[H]

$$$$
59:0:0
     RDKit          3D

 99107  0  0  1  0  0  0  0  0999 V2000
  -29.2510  -21.2090   22.5040 C   0  0  0  0  0  0  0  0  0  0  0  0
  -29.2150  -20.4280   21.4160 N   0  0  0  0  0  0  0  0  0  0  0  0
  -29.9260  -20.9470   23.5030 O   0  0  0  0  0  0  0  0  0  0  0  0
  -28.5810  -20.7020   20.6790 H   0  0  0  0  0  0  0  0  0  0  0  0
  -32.2490  -17.6930   20.3590 C   0  0  0  0  0  3  0  0  0  0  0  0
  -30.0190  -18.1250   21.2160 C   0  0  0  0  0  3  0  0  0  0  0  0
  -32.4710  -19.0720   20.1860 C   0  0  0  0  0  0  0  0  0  0  0  0
  -31.4520  -19.9970   20.5130 C   0  0  0  0  0  0  0  0  0  0  0  0
  -31.0150  -17.1900   20.8500 C   0  0  0  0  0  0  0  0  0  0  0  0
  -30.2380  -19.5140   21.0660 C   0  0  0  0  0  0  0  0  0  0  0  0
  -33.8120  -19.5320   19.6370 C   0  0  0  0  0  1  0  0  0  0  0  0
  -31.6690  -21.4920   20.2840 C   0  0  0  0  0  1  0  0  0  0  0  0
  -31.3310  -14.7380   20.4090 C   0  0  0  0  0  0  0  0  0  0  0  0
  -30.9430  -12.5670   19.3210 C   0  0  0  0  0  2  0  0  0  0  0  0
  -30.0350  -12.7820   18.0940 C   0  0  0  0  0  2  0  0  0  0  0  0
  -28.5510  -12.7070   18.5010 C   0  0  0  0  0  2  0  0  0  0  0  0
  -28.2220  -13.5880   19.7360 C   0  0  0  0  0  3  0  0  0  0  0  0
  -29.2520  -13.3720   20.8690 C   0  0  0  0  0  2  0  0  0  0  0  0
  -30.5970  -13.5980   20.3150 N   0  0  0  0  0  0  0  0  0  0  0  0
  -32.4570  -14.8200   19.9190 O   0  0  0  0  0  0  0  0  0  0  0  0
  -30.7120  -15.7920   20.9800 N   0  0  0  0  0  0  0  0  0  0  0  0
  -29.8180  -15.5720   21.3910 H   0  0  0  0  0  0  0  0  0  0  0  0
  -25.8470  -14.2850   20.4460 C   0  0  0  0  0  0  0  0  0  0  0  0
  -24.7430  -13.5520   20.7890 C   0  0  0  0  0  0  0  0  0  0  0  0
  -25.1430  -12.1810   20.7250 C   0  0  0  0  0  0  0  0  0  0  0  0
  -26.8530  -13.3630   20.1990 N   0  0  0  0  0  0  0  0  0  0  0  0
  -26.4320  -12.0920   20.4230 N   0  0  0  0  0  0  0  0  0  0  0  0
  -24.3600  -10.9490   20.8790 C   0  0  0  0  0  0  0  0  0  0  0  0
  -24.7360   -9.9430   21.7970 C   0  0  0  0  0  3  0  0  0  0  0  0
  -23.9570   -8.7760   21.9400 C   0  0  0  0  0  3  0  0  0  0  0  0
  -22.7850   -8.6050   21.1640 C   0  0  0  0  0  0  0  0  0  0  0  0
  -22.4280   -9.5980   20.2350 C   0  0  0  0  0  3  0  0  0  0  0  0
  -23.2070  -10.7570   20.0910 C   0  0  0  0  0  3  0  0  0  0  0  0
  -21.9810   -7.4930   21.2170 O   0  0  0  0  0  0  0  0  0  0  0  0
  -21.8650   -6.7410   22.3600 C   0  0  0  0  0  0  0  0  0  0  0  0
  -21.4260   -7.3020   23.5790 C   0  0  0  0  0  3  0  0  0  0  0  0
  -21.2560   -6.4800   24.7100 C   0  0  0  0  0  3  0  0  0  0  0  0
  -21.5120   -5.0980   24.6230 C   0  0  0  0  0  0  0  0  0  0  0  0
  -21.9440   -4.5370   23.4090 C   0  0  0  0  0  3  0  0  0  0  0  0
  -22.1170   -5.3570   22.2790 C   0  0  0  0  0  0  0  0  0  0  0  0
  -22.5120   -4.8080   21.1050 F   0  0  0  0  0  0  0  0  0  0  0  0
  -21.3410   -4.3070   25.7080 F   0  0  0  0  0  0  0  0  0  0  0  0
  -23.3660  -14.0840   21.0670 C   0  0  0  0  0  0  0  0  0  0  0  0
  -22.6090  -13.4070   21.9230 N   0  0  0  0  0  0  0  0  0  0  0  0
  -22.9740  -15.1340   20.5620 O   0  0  0  0  0  0  0  0  0  0  0  0
  -22.9390  -12.5560   22.3530 H   0  0  0  0  0  0  0  0  0  0  0  0
  -21.6840  -13.7440   22.1510 H   0  0  0  0  0  0  0  0  0  0  0  0
  -26.0740  -15.6500   20.3040 N   0  0  0  0  0  0  0  0  0  0  0  0
  -25.3360  -16.3350   20.4210 H   0  0  0  0  0  0  0  0  0  0  0  0
  -26.9450  -16.0580   19.9850 H   0  0  0  0  0  0  0  0  0  0  0  0
  -28.3960  -22.4770   22.4690 C   0  0  0  0  0  2  0  0  0  0  0  0
  -29.2720  -23.7550   22.5610 C   0  0  0  0  0  2  0  0  0  0  0  0
  -27.1550  -25.1660   22.7660 C   0  0  0  0  0  1  0  0  0  0  0  0
  -29.4050  -26.2330   22.9270 C   0  0  0  0  0  1  0  0  0  0  0  0
  -28.5990  -25.1190   22.2160 C   0  0  1  0  0  0  0  0  0  0  0  0
  -28.5580  -25.3300   20.6740 C   0  0  0  0  0  0  0  0  0  0  0  0
  -28.0300  -24.4810   19.9480 O   0  0  0  0  0  0  0  0  0  0  0  0
  -29.1950  -26.5900   20.0450 C   0  0  0  0  0  2  0  0  0  0  0  0
  -28.5370  -26.9450   18.8220 O   0  0  0  0  0  0  0  0  0  0  0  0
  -24.6050  -31.3450   22.8020 C   0  0  0  0  0  0  0  0  0  0  0  0
  -27.3440  -27.5980   19.0030 C   0  0  0  0  0  0  0  0  0  0  0  0
  -23.3920  -30.0820   21.0530 C   0  0  0  0  0  3  0  0  0  0  0  0
  -24.8520  -28.8690   19.3490 C   0  0  0  0  0  0  0  0  0  0  0  0
  -25.8600  -30.6710   20.7620 C   0  0  0  0  0  2  0  0  0  0  0  0
  -26.0010  -29.4060   19.9430 C   0  0  0  0  0  0  0  0  0  0  0  0
  -27.2490  -28.7750   19.7770 C   0  0  0  0  0  3  0  0  0  0  0  0
  -26.1870  -27.0750   18.3940 C   0  0  0  0  0  3  0  0  0  0  0  0
  -24.9370  -27.6980   18.5740 C   0  0  0  0  0  3  0  0  0  0  0  0
  -23.5540  -29.6070   19.5820 C   0  0  0  0  0  2  0  0  0  0  0  0
  -24.6390  -30.7080   21.5980 N   0  0  0  0  0  0  0  0  0  0  0  0
  -23.5470  -31.4570   23.4360 O   0  0  0  0  0  0  0  0  0  0  0  0
  -22.8810  -28.8950   21.8990 C   0  0  0  0  0  0  0  0  0  0  0  0
  -21.5700  -28.6180   21.8090 N   0  0  0  0  0  0  0  0  0  0  0  0
  -23.6570  -28.2320   22.5920 O   0  0  0  0  0  0  0  0  0  0  0  0
  -21.0000  -29.2120   21.2250 H   0  0  0  0  0  0  0  0  0  0  0  0
  -18.3420  -27.0610   22.2540 C   0  0  0  0  0  0  0  0  0  0  0  0
  -20.8730  -27.5250   22.4840 C   0  0  0  0  0  3  0  0  0  0  0  0
  -21.0840  -26.1870   21.7380 C   0  0  0  0  0  2  0  0  0  0  0  0
  -19.9770  -25.8820   20.7230 C   0  0  0  0  0  2  0  0  0  0  0  0
  -18.6140  -25.8210   21.4180 C   0  0  0  0  0  2  0  0  0  0  0  0
  -19.4020  -27.8700   22.7410 C   0  0  0  0  0  0  0  0  0  0  0  0
  -19.0940  -29.0300   23.4820 C   0  0  0  0  0  3  0  0  0  0  0  0
  -17.7580  -29.3850   23.7420 C   0  0  0  0  0  3  0  0  0  0  0  0
  -16.7120  -28.5720   23.2710 C   0  0  0  0  0  3  0  0  0  0  0  0
  -17.0040  -27.4120   22.5330 C   0  0  0  0  0  3  0  0  0  0  0  0
  -25.8850  -31.9840   23.4280 C   0  0  0  0  0  3  0  0  0  0  0  0
  -25.5030  -33.2910   23.9760 N   0  0  0  0  0  0  0  0  0  0  0  0
  -25.7250  -34.4630   23.3670 C   0  0  0  0  0  0  0  0  0  0  0  0
  -26.3440  -34.5600   22.3040 O   0  0  0  0  0  0  0  0  0  0  0  0
  -24.9410  -33.2840   24.8150 H   0  0  0  0  0  0  0  0  0  0  0  0
  -23.8610  -36.1530   23.3530 C   0  0  0  0  0  1  0  0  0  0  0  0
  -25.1680  -35.7310   24.0440 C   0  0  0  0  0  3  0  0  0  0  0  0
  -27.2790  -36.6440   24.9060 C   0  0  0  0  0  1  0  0  0  0  0  0
  -26.1210  -36.8630   24.0420 N   0  0  0  0  0  0  0  0  0  0  0  0
  -25.6620  -37.7200   24.3390 H   0  0  0  0  0  0  0  0  0  0  0  0
  -26.5490  -31.0820   24.5400 C   0  0  1  0  0  0  0  0  0  0  0  0
  -25.5600  -30.6110   25.6310 C   0  0  0  0  0  1  0  0  0  0  0  0
  -27.1930  -29.8260   23.9090 C   0  0  0  0  0  1  0  0  0  0  0  0
  -27.6910  -31.8630   25.2340 C   0  0  0  0  0  1  0  0  0  0  0  0
  1  3  2  0
  2  1  1  0
  4  2  1  0
  5  9  1  0
  7  5  2  0
  7  8  1  0
  8 10  2  0
  9 21  1  0
  9  6  2  0
 10  6  1  0
 10  2  1  0
 11  7  1  0
 12  8  1  0
 13 21  1  0
 14 19  1  0
 15 16  1  0
 15 14  1  0
 17 16  1  0
 17 26  1  0
 17 18  1  0
 19 13  1  0
 19 18  1  0
 20 13  2  0
 21 22  1  0
 23 24  2  0
 24 43  1  0
 25 24  1  0
 25 28  1  0
 26 27  1  0
 26 23  1  0
 27 25  2  0
 28 29  1  0
 29 30  2  0
 31 34  1  0
 31 30  1  0
 32 31  2  0
 33 32  1  0
 33 28  2  0
 34 35  1  0
 35 36  1  0
 36 37  2  0
 38 37  1  0
 38 42  1  0
 39 38  2  0
 40 35  2  0
 40 39  1  0
 41 40  1  0
 43 44  1  0
 44 47  1  0
 44 46  1  0
 45 43  2  0
 48 49  1  0
 48 23  1  0
 50 48  1  0
 51  1  1  0
 51 52  1  0
 55 52  1  0
 55 53  1  1
 55 54  1  0
 56 55  1  0
 57 56  2  0
 58 56  1  0
 59 61  1  0
 59 58  1  0
 60 71  2  0
 61 66  1  0
 62 70  1  0
 62 72  1  0
 63 69  1  0
 63 65  1  0
 64 70  1  0
 65 64  1  0
 66 65  2  0
 67 68  1  0
 67 61  2  0
 68 63  2  0
 69 62  1  0
 70 60  1  0
 72 74  2  0
 73 72  1  0
 75 73  1  0
 76 85  2  0
 76 81  1  0
 77 73  1  0
 77 81  1  0
 78 77  1  0
 79 80  1  0
 79 78  1  0
 80 76  1  0
 81 82  2  0
 82 83  1  0
 84 83  2  0
 85 84  1  0
 86 60  1  0
 86 87  1  0
 86 96  1  0
 87 90  1  0
 88 87  1  0
 88 92  1  0
 89 88  2  0
 92 91  1  0
 94 92  1  0
 94 95  1  0
 94 93  1  0
 96 99  1  1
 96 97  1  0
 98 96  1  0
M  ISO  4  13 100  21 100  58 101  59 101
M  END
>  <TORSDO>  (60) 
F 22

>  <SCORE>  (60) 
-10.581

>  <name>  (60) 
59

>  <ligand_id>  (60) 
59

>  <original_smiles>  (60) 
[H]c1c([H])c([H])c2c(c1[H])C([H])([H])C([H])([H])C([H])([H])C2([H])N([H])C(=O)C1([H])N(C(=O)C([H])(N([H])C(=O)C([H])(N([H])C([H])([H])[H])C([H])([H])[H])C(C([H])([H])[H])(C([H])([H])[H])C([H])([H])[H])C([H])([H])c2c([H])c(OC([H])([H])C(=O)C(C([H])([H])[H])(C([H])([H])[H])C([H])([H])C([H])([H])C(=O)N([H])c3c([H])c(N([H])C(=O)N4C([H])([H])C([H])([H])C([H])([H])C([H])(n5nc(-c6c([H])c([H])c(Oc7c([H])c([H])c(F)c([H])c7F)c([H])c6[H])c(C(=O)N([H])[H])c5N([H])[H])C4([H])[H])c([H])c(C([H])([H])[H])c3C([H])([H])[H])c([H])c([H])c2C1([H])[H]

>  <smiles>  (60) 
[H]c1c([H])c([H])c2c(c1[H])C([H])([H])C([H])([H])C([H])([H])C2([H])N([H])C(=O)C1([H])N(C(=O)C([H])(N([H])C(=O)C([H])(N([H])C([H])([H])[H])C([H])([H])[H])C(C([H])([H])[H])(C([H])([H])[H])C([H])([H])[H])C([H])([H])c2c([H])c(OC([H])([H])C(=O)C(C([H])([H])[H])(C([H])([H])[H])C([H])([H])C([H])([H])C(=O)N([H])c3c([H])c(N([H])C(=O)N4C([H])([H])C([H])([H])C([H])([H])C([H])(n5nc(-c6c([H])c([H])c(Oc7c([H])c([H])c(F)c([H])c7F)c([H])c6[H])c(C(=O)N([H])[H])c5N([H])[H])C4([H])[H])c([H])c(C([H])([H])[H])c3C([H])([H])[H])c([H])c([H])c2C1([H])[H]

$$$$
60:0:0
     RDKit          3D

 97105  0  0  1  0  0  0  0  0999 V2000
  -28.9280  -22.8230   19.6300 C   0  0  1  0  0  0  0  0  0  0  0  0
  -31.3550  -23.0400   20.6610 C   0  0  0  0  0  1  0  0  0  0  0  0
  -31.1110  -21.8300   18.4460 C   0  0  0  0  0  1  0  0  0  0  0  0
  -30.4960  -22.9010   19.3780 C   0  0  0  0  0  3  0  0  0  0  0  0
  -28.5070  -24.2130   20.2640 C   0  0  0  0  0  0  0  0  0  0  0  0
  -28.1380  -24.3000   21.4400 O   0  0  0  0  0  0  0  0  0  0  0  0
  -28.5780  -25.5070   19.3890 C   0  0  0  0  0  2  0  0  0  0  0  0
  -28.4240  -26.7260   20.1520 O   0  0  0  0  0  0  0  0  0  0  0  0
  -24.5890  -31.8870   23.2450 C   0  0  0  0  0  0  0  0  0  0  0  0
  -27.2320  -27.4330   20.1330 C   0  0  0  0  0  0  0  0  0  0  0  0
  -23.3850  -30.4940   21.5930 C   0  0  0  0  0  3  0  0  0  0  0  0
  -24.8370  -28.9620   20.1650 C   0  0  0  0  0  0  0  0  0  0  0  0
  -25.9190  -30.8360   21.4180 C   0  0  0  0  0  2  0  0  0  0  0  0
  -25.9980  -29.4720   20.7570 C   0  0  0  0  0  0  0  0  0  0  0  0
  -27.1940  -28.7140   20.7370 C   0  0  0  0  0  3  0  0  0  0  0  0
  -26.0400  -26.9340   19.5540 C   0  0  0  0  0  3  0  0  0  0  0  0
  -24.8530  -27.6920   19.5640 C   0  0  0  0  0  3  0  0  0  0  0  0
  -23.5980  -29.8270   20.2100 C   0  0  0  0  0  2  0  0  0  0  0  0
  -24.6480  -31.0880   22.1420 N   0  0  0  0  0  0  0  0  0  0  0  0
  -23.5060  -32.1580   23.7830 O   0  0  0  0  0  0  0  0  0  0  0  0
  -22.7310  -29.4670   22.5460 C   0  0  0  0  0  0  0  0  0  0  0  0
  -21.4090  -29.2800   22.4070 N   0  0  0  0  0  0  0  0  0  0  0  0
  -23.4100  -28.8420   23.3650 O   0  0  0  0  0  0  0  0  0  0  0  0
  -20.9240  -29.8340   21.7130 H   0  0  0  0  0  0  0  0  0  0  0  0
  -18.0350  -28.0690   22.8610 C   0  0  0  0  0  0  0  0  0  0  0  0
  -20.5870  -28.3410   23.1700 C   0  0  0  0  0  3  0  0  0  0  0  0
  -20.7050  -26.9080   22.6010 C   0  0  0  0  0  2  0  0  0  0  0  0
  -19.6210  -26.5780   21.5700 C   0  0  0  0  0  2  0  0  0  0  0  0
  -18.2280  -26.7210   22.1890 C   0  0  0  0  0  2  0  0  0  0  0  0
  -19.1440  -28.8370   23.3070 C   0  0  0  0  0  0  0  0  0  0  0  0
  -18.9100  -30.1000   23.8940 C   0  0  0  0  0  3  0  0  0  0  0  0
  -17.6010  -30.5950   24.0410 C   0  0  0  0  0  3  0  0  0  0  0  0
  -16.5060  -29.8230   23.6140 C   0  0  0  0  0  3  0  0  0  0  0  0
  -16.7240  -28.5620   23.0290 C   0  0  0  0  0  3  0  0  0  0  0  0
  -25.8760  -32.5090   23.8720 C   0  0  0  0  0  3  0  0  0  0  0  0
  -25.5700  -33.9040   24.2100 N   0  0  0  0  0  0  0  0  0  0  0  0
  -25.8970  -34.9610   23.4540 C   0  0  0  0  0  0  0  0  0  0  0  0
  -26.5630  -34.8650   22.4180 O   0  0  0  0  0  0  0  0  0  0  0  0
  -24.9820  -34.0560   25.0160 H   0  0  0  0  0  0  0  0  0  0  0  0
  -24.1680  -36.7550   23.1120 C   0  0  0  0  0  1  0  0  0  0  0  0
  -25.4090  -36.3460   23.9210 C   0  0  0  0  0  3  0  0  0  0  0  0
  -27.5490  -37.2220   24.7500 C   0  0  0  0  0  1  0  0  0  0  0  0
  -26.4400  -37.4020   23.8160 N   0  0  0  0  0  0  0  0  0  0  0  0
  -26.0350  -38.3190   23.9800 H   0  0  0  0  0  0  0  0  0  0  0  0
  -26.3920  -31.7310   25.1450 C   0  0  1  0  0  0  0  0  0  0  0  0
  -25.2980  -31.5080   26.2140 C   0  0  0  0  0  1  0  0  0  0  0  0
  -26.9600  -30.3460   24.7540 C   0  0  0  0  0  1  0  0  0  0  0  0
  -27.5510  -32.5170   25.8000 C   0  0  0  0  0  1  0  0  0  0  0  0
  -26.6290  -22.7310   18.2740 C   0  0  0  0  0  1  0  0  0  0  0  0
  -28.1780  -22.7270   18.2570 C   0  0  0  0  0  2  0  0  0  0  0  0
  -28.5010  -21.5820   20.5580 C   0  0  0  0  0  2  0  0  0  0  0  0
  -29.4150  -20.4230   20.7460 N   0  0  0  0  0  0  0  0  0  0  0  0
  -29.9190  -20.4130   21.6260 H   0  0  0  0  0  0  0  0  0  0  0  0
  -30.6070  -14.5550   20.4360 C   0  0  0  0  0  0  0  0  0  0  0  0
  -30.3370  -12.3850   19.2980 C   0  0  0  0  0  2  0  0  0  0  0  0
  -29.3790  -12.5760   18.1030 C   0  0  0  0  0  2  0  0  0  0  0  0
  -27.9210  -12.3760   18.5510 C   0  0  0  0  0  2  0  0  0  0  0  0
  -27.5730  -13.2280   19.8000 C   0  0  0  0  0  3  0  0  0  0  0  0
  -28.6350  -13.0330   20.9070 C   0  0  0  0  0  2  0  0  0  0  0  0
  -29.9580  -13.3570   20.3400 N   0  0  0  0  0  0  0  0  0  0  0  0
  -31.7290  -14.7350   19.9470 O   0  0  0  0  0  0  0  0  0  0  0  0
  -28.5020  -17.7820   18.3000 C   0  0  0  0  0  3  0  0  0  0  0  0
  -29.0200  -16.6690   18.9770 C   0  0  0  0  0  3  0  0  0  0  0  0
  -28.5570  -19.0390   18.9220 C   0  0  0  0  0  3  0  0  0  0  0  0
  -29.5740  -16.8070   20.2700 C   0  0  0  0  0  0  0  0  0  0  0  0
  -29.1870  -19.1550   20.1700 C   0  0  0  0  0  0  0  0  0  0  0  0
  -29.6530  -18.0560   20.8340 N   0  0  0  0  0  0  0  0  0  0  0  0
  -29.9030  -15.5910   20.9660 N   0  0  0  0  0  0  0  0  0  0  0  0
  -29.1870  -15.2960   21.6160 H   0  0  0  0  0  0  0  0  0  0  0  0
  -25.1770  -13.8410   20.5070 C   0  0  0  0  0  0  0  0  0  0  0  0
  -24.1110  -13.0740   20.8870 C   0  0  0  0  0  0  0  0  0  0  0  0
  -24.5680  -11.7190   20.8530 C   0  0  0  0  0  0  0  0  0  0  0  0
  -26.2220  -12.9580   20.2800 N   0  0  0  0  0  0  0  0  0  0  0  0
  -25.8580  -11.6760   20.5420 N   0  0  0  0  0  0  0  0  0  0  0  0
  -23.8420  -10.4590   21.0460 C   0  0  0  0  0  0  0  0  0  0  0  0
  -24.2860   -9.4850   21.9680 C   0  0  0  0  0  3  0  0  0  0  0  0
  -23.5620   -8.2860   22.1440 C   0  0  0  0  0  3  0  0  0  0  0  0
  -22.3810   -8.0550   21.4000 C   0  0  0  0  0  0  0  0  0  0  0  0
  -21.9570   -9.0170   20.4670 C   0  0  0  0  0  3  0  0  0  0  0  0
  -22.6820  -10.2080   20.2880 C   0  0  0  0  0  3  0  0  0  0  0  0
  -21.6280   -6.9080   21.4890 O   0  0  0  0  0  0  0  0  0  0  0  0
  -21.5950   -6.1560   22.6350 C   0  0  0  0  0  0  0  0  0  0  0  0
  -21.1790   -6.6960   23.8710 C   0  0  0  0  0  3  0  0  0  0  0  0
  -21.0930   -5.8690   25.0080 C   0  0  0  0  0  3  0  0  0  0  0  0
  -21.4150   -4.5010   24.9110 C   0  0  0  0  0  0  0  0  0  0  0  0
  -21.8260   -3.9620   23.6810 C   0  0  0  0  0  3  0  0  0  0  0  0
  -21.9140   -4.7840   22.5460 C   0  0  0  0  0  0  0  0  0  0  0  0
  -22.2900   -4.2550   21.3580 F   0  0  0  0  0  0  0  0  0  0  0  0
  -21.3270   -3.7050   26.0010 F   0  0  0  0  0  0  0  0  0  0  0  0
  -22.7150  -13.5530   21.1670 C   0  0  0  0  0  0  0  0  0  0  0  0
  -21.9910  -12.8600   22.0410 N   0  0  0  0  0  0  0  0  0  0  0  0
  -22.2760  -14.5800   20.6540 O   0  0  0  0  0  0  0  0  0  0  0  0
  -22.3590  -12.0340   22.4890 H   0  0  0  0  0  0  0  0  0  0  0  0
  -21.0610  -13.1750   22.2770 H   0  0  0  0  0  0  0  0  0  0  0  0
  -25.3510  -15.2110   20.3210 N   0  0  0  0  0  0  0  0  0  0  0  0
  -24.5880  -15.8730   20.4060 H   0  0  0  0  0  0  0  0  0  0  0  0
  -26.2020  -15.6310   19.9680 H   0  0  0  0  0  0  0  0  0  0  0  0
  1 50  1  6
  1  5  1  0
  1 51  1  0
  3  4  1  0
  4  1  1  0
  4  2  1  0
  5  6  2  0
  7  8  1  0
  7  5  1  0
  9 20  2  0
 10  8  1  0
 10 15  1  0
 11 19  1  0
 11 21  1  0
 12 18  1  0
 12 14  1  0
 13 19  1  0
 14 13  1  0
 15 14  2  0
 16 17  1  0
 16 10  2  0
 17 12  2  0
 18 11  1  0
 19  9  1  0
 21 23  2  0
 22 21  1  0
 24 22  1  0
 25 34  2  0
 25 30  1  0
 26 22  1  0
 26 30  1  0
 27 26  1  0
 28 29  1  0
 28 27  1  0
 29 25  1  0
 30 31  2  0
 31 32  1  0
 33 32  2  0
 34 33  1  0
 35  9  1  0
 35 36  1  0
 35 45  1  0
 36 39  1  0
 37 41  1  0
 37 36  1  0
 38 37  2  0
 41 40  1  0
 43 41  1  0
 43 44  1  0
 43 42  1  0
 45 48  1  1
 45 46  1  0
 47 45  1  0
 50 49  1  0
 51 52  1  0
 52 53  1  0
 54 68  1  0
 55 60  1  0
 56 57  1  0
 56 55  1  0
 58 57  1  0
 58 73  1  0
 58 59  1  0
 60 54  1  0
 60 59  1  0
 61 54  2  0
 62 64  2  0
 62 63  1  0
 63 65  2  0
 64 66  1  0
 65 67  1  0
 65 68  1  0
 66 52  1  0
 66 67  2  0
 68 69  1  0
 70 71  2  0
 71 90  1  0
 72 71  1  0
 72 75  1  0
 73 70  1  0
 73 74  1  0
 74 72  2  0
 75 76  1  0
 76 77  2  0
 78 81  1  0
 78 77  1  0
 79 78  2  0
 80 79  1  0
 80 75  2  0
 81 82  1  0
 82 83  1  0
 83 84  2  0
 85 84  1  0
 85 89  1  0
 86 85  2  0
 87 82  2  0
 87 86  1  0
 88 87  1  0
 90 91  1  0
 91 94  1  0
 91 93  1  0
 92 90  2  0
 95 96  1  0
 95 70  1  0
 97 95  1  0
M  ISO  4   7 101   8 101  54 100  68 100
M  END
>  <TORSDO>  (61) 
F 22

>  <SCORE>  (61) 
-13.578

>  <name>  (61) 
60

>  <ligand_id>  (61) 
60

>  <original_smiles>  (61) 
[H]c1c(N([H])C(=O)N2C([H])([H])C([H])([H])C([H])([H])C([H])(n3nc(-c4c([H])c([H])c(Oc5c([H])c([H])c(F)c([H])c5F)c([H])c4[H])c(C(=O)N([H])[H])c3N([H])[H])C2([H])[H])nc(N([H])C([H])([H])C(C(=O)C([H])([H])Oc2c([H])c([H])c3c(c2[H])C([H])([H])N(C(=O)C([H])(N([H])C(=O)C([H])(N([H])C([H])([H])[H])C([H])([H])[H])C(C([H])([H])[H])(C([H])([H])[H])C([H])([H])[H])C([H])(C(=O)N([H])C2([H])c4c([H])c([H])c([H])c([H])c4C([H])([H])C([H])([H])C2([H])[H])C3([H])[H])(C([H])([H])C([H])([H])[H])C([H])(C([H])([H])[H])C([H])([H])[H])c([H])c1[H]

>  <smiles>  (61) 
[H]c1c(N([H])C(=O)N2C([H])([H])C([H])([H])C([H])([H])C([H])(n3nc(-c4c([H])c([H])c(Oc5c([H])c([H])c(F)c([H])c5F)c([H])c4[H])c(C(=O)N([H])[H])c3N([H])[H])C2([H])[H])nc(N([H])C([H])([H])C(C(=O)C([H])([H])Oc2c([H])c([H])c3c(c2[H])C([H])([H])N(C(=O)C([H])(N([H])C(=O)C([H])(N([H])C([H])([H])[H])C([H])([H])[H])C(C([H])([H])[H])(C([H])([H])[H])C([H])([H])[H])C([H])(C(=O)N([H])C2([H])c4c([H])c([H])c([H])c([H])c4C([H])([H])C([H])([H])C2([H])[H])C3([H])[H])(C([H])([H])C([H])([H])[H])C([H])(C([H])([H])[H])C([H])([H])[H])c([H])c1[H]

$$$$
61:0:0
     RDKit          3D

 93102  0  0  1  0  0  0  0  0999 V2000
  -29.2720  -23.3570   19.3800 C   0  0  0  0  0  2  0  0  0  0  0  0
  -28.4680  -22.8330   21.6580 C   0  0  0  0  0  2  0  0  0  0  0  0
  -30.0450  -21.9930   19.3790 C   0  0  0  0  0  2  0  0  0  0  0  0
  -29.2400  -21.4810   21.6380 C   0  0  0  0  0  2  0  0  0  0  0  0
  -29.0600  -23.9830   20.7860 C   0  0  1  0  0  0  0  0  0  0  0  0
  -29.4820  -20.9700   20.2830 N   0  0  0  0  0  0  0  0  0  0  0  0
  -30.7440  -19.0550   19.2150 C   0  0  0  0  0  3  0  0  0  0  0  0
  -30.9010  -17.6280   19.2990 C   0  0  0  0  0  3  0  0  0  0  0  0
  -29.8580  -19.5960   20.1170 C   0  0  0  0  0  0  0  0  0  0  0  0
  -30.1270  -17.0060   20.2570 C   0  0  0  0  0  0  0  0  0  0  0  0
  -29.2000  -18.2670   21.0910 S   0  0  0  0  0  0  0  0  0  0  0  0
  -30.7040  -14.5980   20.0620 C   0  0  0  0  0  0  0  0  0  0  0  0
  -30.3780  -12.4130   18.9520 C   0  0  0  0  0  2  0  0  0  0  0  0
  -29.3750  -12.6120   17.7950 C   0  0  0  0  0  2  0  0  0  0  0  0
  -27.9270  -12.4590   18.2990 C   0  0  0  0  0  2  0  0  0  0  0  0
  -27.6490  -13.2820   19.5850 C   0  0  0  0  0  3  0  0  0  0  0  0
  -28.7650  -13.0740   20.6360 C   0  0  0  0  0  2  0  0  0  0  0  0
  -30.0500  -13.3990   19.9990 N   0  0  0  0  0  0  0  0  0  0  0  0
  -31.8320  -14.7420   19.5810 O   0  0  0  0  0  0  0  0  0  0  0  0
  -29.9920  -15.6580   20.5450 N   0  0  0  0  0  0  0  0  0  0  0  0
  -29.1580  -15.4040   21.0550 H   0  0  0  0  0  0  0  0  0  0  0  0
  -25.2970  -13.8740   20.4360 C   0  0  0  0  0  0  0  0  0  0  0  0
  -24.2480  -13.0950   20.8460 C   0  0  0  0  0  0  0  0  0  0  0  0
  -24.7040  -11.7440   20.7660 C   0  0  0  0  0  0  0  0  0  0  0  0
  -26.3250  -12.9950   20.1320 N   0  0  0  0  0  0  0  0  0  0  0  0
  -25.9760  -11.7090   20.3890 N   0  0  0  0  0  0  0  0  0  0  0  0
  -23.9850  -10.4790   20.9690 C   0  0  0  0  0  0  0  0  0  0  0  0
  -24.4370   -9.5130   21.8950 C   0  0  0  0  0  3  0  0  0  0  0  0
  -23.7170   -8.3140   22.0860 C   0  0  0  0  0  3  0  0  0  0  0  0
  -22.5310   -8.0720   21.3540 C   0  0  0  0  0  0  0  0  0  0  0  0
  -22.0980   -9.0280   20.4170 C   0  0  0  0  0  3  0  0  0  0  0  0
  -22.8180  -10.2190   20.2230 C   0  0  0  0  0  3  0  0  0  0  0  0
  -21.7820   -6.9250   21.4550 O   0  0  0  0  0  0  0  0  0  0  0  0
  -21.7250   -6.2030   22.6210 C   0  0  0  0  0  0  0  0  0  0  0  0
  -21.2590   -6.7710   23.8260 C   0  0  0  0  0  3  0  0  0  0  0  0
  -21.1500   -5.9740   24.9830 C   0  0  0  0  0  3  0  0  0  0  0  0
  -21.4990   -4.6110   24.9370 C   0  0  0  0  0  0  0  0  0  0  0  0
  -21.9600   -4.0440   23.7360 C   0  0  0  0  0  3  0  0  0  0  0  0
  -22.0690   -4.8370   22.5800 C   0  0  0  0  0  0  0  0  0  0  0  0
  -22.4930   -4.2800   21.4200 F   0  0  0  0  0  0  0  0  0  0  0  0
  -21.3890   -3.8440   26.0460 F   0  0  0  0  0  0  0  0  0  0  0  0
  -22.8680  -13.5710   21.2010 C   0  0  0  0  0  0  0  0  0  0  0  0
  -22.1810  -12.8540   22.0840 N   0  0  0  0  0  0  0  0  0  0  0  0
  -22.4090  -14.6100   20.7300 O   0  0  0  0  0  0  0  0  0  0  0  0
  -22.5660  -12.0120   22.4860 H   0  0  0  0  0  0  0  0  0  0  0  0
  -21.2570  -13.1530   22.3630 H   0  0  0  0  0  0  0  0  0  0  0  0
  -25.4560  -15.2470   20.2750 N   0  0  0  0  0  0  0  0  0  0  0  0
  -24.6980  -15.9020   20.4370 H   0  0  0  0  0  0  0  0  0  0  0  0
  -26.2870  -15.6900   19.9030 H   0  0  0  0  0  0  0  0  0  0  0  0
  -30.2980  -24.3730   21.3590 O   0  0  0  0  0  0  0  0  0  0  0  0
  -30.8630  -23.6110   21.3700 H   0  0  0  0  0  0  0  0  0  0  0  0
  -28.0980  -25.2420   20.8660 C   0  0  0  0  0  2  0  0  0  0  0  0
  -28.4070  -26.5300   20.2310 O   0  0  0  0  0  0  0  0  0  0  0  0
  -24.6220  -31.8650   23.2080 C   0  0  0  0  0  0  0  0  0  0  0  0
  -27.3060  -27.3810   20.1620 C   0  0  0  0  0  0  0  0  0  0  0  0
  -23.4440  -30.4610   21.5530 C   0  0  0  0  0  3  0  0  0  0  0  0
  -24.9230  -28.9380   20.1320 C   0  0  0  0  0  0  0  0  0  0  0  0
  -25.9790  -30.8150   21.3910 C   0  0  0  0  0  2  0  0  0  0  0  0
  -26.0790  -29.4440   20.7430 C   0  0  0  0  0  0  0  0  0  0  0  0
  -27.2760  -28.6750   20.7530 C   0  0  0  0  0  3  0  0  0  0  0  0
  -26.1380  -26.9250   19.5110 C   0  0  0  0  0  3  0  0  0  0  0  0
  -24.9520  -27.6820   19.5070 C   0  0  0  0  0  3  0  0  0  0  0  0
  -23.6760  -29.7930   20.1720 C   0  0  0  0  0  2  0  0  0  0  0  0
  -24.6990  -31.0630   22.1080 N   0  0  0  0  0  0  0  0  0  0  0  0
  -23.5320  -32.1310   23.7360 O   0  0  0  0  0  0  0  0  0  0  0  0
  -22.7850  -29.4330   22.5030 C   0  0  0  0  0  0  0  0  0  0  0  0
  -21.4580  -29.2660   22.3800 N   0  0  0  0  0  0  0  0  0  0  0  0
  -23.4650  -28.7930   23.3080 O   0  0  0  0  0  0  0  0  0  0  0  0
  -20.9690  -29.8340   21.7020 H   0  0  0  0  0  0  0  0  0  0  0  0
  -18.0710  -28.1100   22.9020 C   0  0  0  0  0  0  0  0  0  0  0  0
  -20.6350  -28.3260   23.1440 C   0  0  0  0  0  3  0  0  0  0  0  0
  -20.7090  -26.9050   22.5400 C   0  0  0  0  0  2  0  0  0  0  0  0
  -19.5890  -26.6170   21.5340 C   0  0  0  0  0  2  0  0  0  0  0  0
  -18.2180  -26.7710   22.1980 C   0  0  0  0  0  2  0  0  0  0  0  0
  -19.2060  -28.8480   23.3310 C   0  0  0  0  0  0  0  0  0  0  0  0
  -19.0140  -30.1030   23.9480 C   0  0  0  0  0  3  0  0  0  0  0  0
  -17.7190  -30.6200   24.1400 C   0  0  0  0  0  3  0  0  0  0  0  0
  -16.5980  -29.8790   23.7270 C   0  0  0  0  0  3  0  0  0  0  0  0
  -16.7750  -28.6260   23.1130 C   0  0  0  0  0  3  0  0  0  0  0  0
  -25.8960  -32.5050   23.8440 C   0  0  0  0  0  3  0  0  0  0  0  0
  -26.4030  -31.7360   25.1260 C   0  0  1  0  0  0  0  0  0  0  0  0
  -25.2980  -31.4910   26.1800 C   0  0  0  0  0  1  0  0  0  0  0  0
  -27.0000  -30.3630   24.7410 C   0  0  0  0  0  1  0  0  0  0  0  0
  -27.5390  -32.5380   25.8020 C   0  0  0  0  0  1  0  0  0  0  0  0
  -25.5760  -33.9010   24.1690 N   0  0  0  0  0  0  0  0  0  0  0  0
  -25.9140  -34.9550   23.4140 C   0  0  0  0  0  0  0  0  0  0  0  0
  -26.6010  -34.8530   22.3930 O   0  0  0  0  0  0  0  0  0  0  0  0
  -24.9690  -34.0530   24.9610 H   0  0  0  0  0  0  0  0  0  0  0  0
  -24.1950  -36.7470   23.0200 C   0  0  0  0  0  1  0  0  0  0  0  0
  -25.4140  -36.3420   23.8620 C   0  0  0  0  0  3  0  0  0  0  0  0
  -27.5220  -37.2290   24.7550 C   0  0  0  0  0  1  0  0  0  0  0  0
  -26.4490  -37.3950   23.7780 N   0  0  0  0  0  0  0  0  0  0  0  0
  -26.0390  -38.3140   23.9110 H   0  0  0  0  0  0  0  0  0  0  0  0
  1  5  1  0
  3  1  1  0
  3  6  1  0
  4  2  1  0
  5 52  1  6
  5 50  1  0
  5  2  1  0
  6  4  1  0
  7  8  1  0
  7  9  2  0
  8 10  2  0
  9  6  1  0
  9 11  1  0
 10 20  1  0
 10 11  1  0
 12 20  1  0
 13 18  1  0
 14 15  1  0
 14 13  1  0
 16 15  1  0
 16 25  1  0
 16 17  1  0
 18 12  1  0
 18 17  1  0
 19 12  2  0
 20 21  1  0
 22 23  2  0
 23 42  1  0
 24 23  1  0
 24 27  1  0
 25 26  1  0
 25 22  1  0
 26 24  2  0
 27 28  1  0
 28 29  2  0
 30 33  1  0
 30 29  1  0
 31 30  2  0
 32 31  1  0
 32 27  2  0
 33 34  1  0
 34 35  1  0
 35 36  2  0
 37 36  1  0
 37 41  1  0
 38 37  2  0
 39 34  2  0
 39 38  1  0
 40 39  1  0
 42 43  1  0
 43 46  1  0
 43 45  1  0
 44 42  2  0
 47 22  1  0
 47 48  1  0
 49 47  1  0
 50 51  1  0
 53 52  1  0
 54 65  2  0
 55 53  1  0
 55 60  1  0
 56 64  1  0
 56 66  1  0
 57 63  1  0
 57 59  1  0
 58 64  1  0
 59 60  2  0
 59 58  1  0
 61 55  2  0
 62 61  1  0
 62 57  2  0
 63 56  1  0
 64 54  1  0
 66 68  2  0
 67 66  1  0
 69 67  1  0
 70 79  2  0
 70 75  1  0
 71 67  1  0
 71 75  1  0
 72 71  1  0
 73 74  1  0
 73 72  1  0
 74 70  1  0
 75 76  2  0
 76 77  1  0
 78 77  2  0
 79 78  1  0
 80 54  1  0
 80 85  1  0
 80 81  1  0
 81 84  1  1
 81 82  1  0
 83 81  1  0
 85 88  1  0
 86 90  1  0
 86 85  1  0
 87 86  2  0
 90 89  1  0
 92 90  1  0
 92 93  1  0
 92 91  1  0
M  ISO  4  12 100  20 100  52 101  53 101
M  END
>  <TORSDO>  (62) 
F 19

>  <SCORE>  (62) 
-14.291

>  <name>  (62) 
61

>  <ligand_id>  (62) 
61

>  <original_smiles>  (62) 
[H]OC1(C([H])([H])Oc2c([H])c([H])c3c(c2[H])C([H])([H])N(C(=O)C([H])(N([H])C(=O)C([H])(N([H])C([H])([H])[H])C([H])([H])[H])C(C([H])([H])[H])(C([H])([H])[H])C([H])([H])[H])C([H])(C(=O)N([H])C2([H])c4c([H])c([H])c([H])c([H])c4C([H])([H])C([H])([H])C2([H])[H])C3([H])[H])C([H])([H])C([H])([H])N(c2sc(N([H])C(=O)N3C([H])([H])C([H])([H])C([H])([H])C([H])(n4nc(-c5c([H])c([H])c(Oc6c([H])c([H])c(F)c([H])c6F)c([H])c5[H])c(C(=O)N([H])[H])c4N([H])[H])C3([H])[H])c([H])c2[H])C([H])([H])C1([H])[H]

>  <smiles>  (62) 
[H]OC1(C([H])([H])Oc2c([H])c([H])c3c(c2[H])C([H])([H])N(C(=O)C([H])(N([H])C(=O)C([H])(N([H])C([H])([H])[H])C([H])([H])[H])C(C([H])([H])[H])(C([H])([H])[H])C([H])([H])[H])C([H])(C(=O)N([H])C2([H])c4c([H])c([H])c([H])c([H])c4C([H])([H])C([H])([H])C2([H])[H])C3([H])[H])C([H])([H])C([H])([H])N(c2sc(N([H])C(=O)N3C([H])([H])C([H])([H])C([H])([H])C([H])(n4nc(-c5c([H])c([H])c(Oc6c([H])c([H])c(F)c([H])c6F)c([H])c5[H])c(C(=O)N([H])[H])c4N([H])[H])C3([H])[H])c([H])c2[H])C([H])([H])C1([H])[H]

$$$$
62:0:0
     RDKit          3D

 96105  0  0  1  0  0  0  0  0999 V2000
  -29.0400  -20.0190   22.6750 C   0  0  0  0  0  2  0  0  0  0  0  0
  -29.8700  -19.2290   21.6930 C   0  0  0  0  0  2  0  0  0  0  0  0
  -28.9390  -21.3890   22.0180 C   0  0  0  0  0  2  0  0  0  0  0  0
  -29.3430  -19.6280   20.3110 C   0  0  0  0  0  3  0  0  0  0  0  0
  -28.7240  -21.1990   20.4840 C   0  0  1  0  0  0  0  0  0  0  0  0
  -27.2020  -21.0250   20.2250 C   0  0  0  0  0  1  0  0  0  0  0  0
  -31.5480  -17.5670   17.8320 C   0  0  0  0  0  3  0  0  0  0  0  0
  -31.8710  -18.7820   17.3070 C   0  0  0  0  0  3  0  0  0  0  0  0
  -30.7290  -17.6310   19.0110 C   0  0  0  0  0  0  0  0  0  0  0  0
  -30.2890  -18.9730   19.2630 C   0  0  0  0  0  0  0  0  0  0  0  0
  -31.1430  -20.0670   18.1980 S   0  0  0  0  0  0  0  0  0  0  0  0
  -31.2140  -15.1680   19.6270 C   0  0  0  0  0  0  0  0  0  0  0  0
  -30.9520  -12.8680   18.7260 C   0  0  0  0  0  2  0  0  0  0  0  0
  -29.9190  -12.9280   17.5810 C   0  0  0  0  0  2  0  0  0  0  0  0
  -28.4900  -12.7520   18.1330 C   0  0  0  0  0  2  0  0  0  0  0  0
  -28.2110  -13.6450   19.3710 C   0  0  0  0  0  3  0  0  0  0  0  0
  -29.3620  -13.5970   20.3970 C   0  0  0  0  0  2  0  0  0  0  0  0
  -30.5930  -13.9420   19.6800 N   0  0  0  0  0  0  0  0  0  0  0  0
  -32.4060  -15.2100   19.3080 O   0  0  0  0  0  0  0  0  0  0  0  0
  -30.4500  -16.3380   19.7000 N   0  0  0  0  0  0  0  0  0  0  0  0
  -29.5290  -16.2400   20.0990 H   0  0  0  0  0  0  0  0  0  0  0  0
  -25.9420  -14.2160   20.4210 C   0  0  0  0  0  0  0  0  0  0  0  0
  -24.8930  -13.4330   20.8210 C   0  0  0  0  0  0  0  0  0  0  0  0
  -25.2970  -12.0800   20.5970 C   0  0  0  0  0  0  0  0  0  0  0  0
  -26.9190  -13.3390   19.9800 N   0  0  0  0  0  0  0  0  0  0  0  0
  -26.5470  -12.0440   20.1490 N   0  0  0  0  0  0  0  0  0  0  0  0
  -24.5430  -10.8260   20.7250 C   0  0  0  0  0  0  0  0  0  0  0  0
  -25.0010   -9.7720   21.5460 C   0  0  0  0  0  3  0  0  0  0  0  0
  -24.2490   -8.5840   21.6750 C   0  0  0  0  0  3  0  0  0  0  0  0
  -23.0230   -8.4420   20.9830 C   0  0  0  0  0  0  0  0  0  0  0  0
  -22.5830   -9.4840   20.1480 C   0  0  0  0  0  3  0  0  0  0  0  0
  -23.3360  -10.6630   20.0170 C   0  0  0  0  0  3  0  0  0  0  0  0
  -22.2400   -7.3120   21.0280 O   0  0  0  0  0  0  0  0  0  0  0  0
  -22.0970   -6.5800   22.1790 C   0  0  0  0  0  0  0  0  0  0  0  0
  -21.5980   -7.1520   23.3690 C   0  0  0  0  0  3  0  0  0  0  0  0
  -21.4010   -6.3480   24.5110 C   0  0  0  0  0  3  0  0  0  0  0  0
  -21.6930   -4.9720   24.4610 C   0  0  0  0  0  0  0  0  0  0  0  0
  -22.1820   -4.3980   23.2740 C   0  0  0  0  0  3  0  0  0  0  0  0
  -22.3800   -5.2000   22.1360 C   0  0  0  0  0  0  0  0  0  0  0  0
  -22.8320   -4.6380   20.9890 F   0  0  0  0  0  0  0  0  0  0  0  0
  -21.4950   -4.1980   25.5520 F   0  0  0  0  0  0  0  0  0  0  0  0
  -23.5510  -13.9140   21.2900 C   0  0  0  0  0  0  0  0  0  0  0  0
  -22.9130  -13.1670   22.1860 N   0  0  0  0  0  0  0  0  0  0  0  0
  -23.0810  -14.9810   20.8960 O   0  0  0  0  0  0  0  0  0  0  0  0
  -23.3040  -12.2960   22.5160 H   0  0  0  0  0  0  0  0  0  0  0  0
  -22.0200  -13.4680   22.5450 H   0  0  0  0  0  0  0  0  0  0  0  0
  -26.1350  -15.5920   20.3680 N   0  0  0  0  0  0  0  0  0  0  0  0
  -25.4090  -16.2500   20.6300 H   0  0  0  0  0  0  0  0  0  0  0  0
  -26.9380  -16.0420   19.9480 H   0  0  0  0  0  0  0  0  0  0  0  0
  -29.0960  -22.6040   19.7090 C   0  0  0  0  0  0  0  0  0  0  0  0
  -29.4810  -22.5350   18.5430 O   0  0  0  0  0  0  0  0  0  0  0  0
  -30.1660  -24.4770   21.1290 C   0  0  0  0  0  1  0  0  0  0  0  0
  -27.6350  -24.2810   21.1740 C   0  0  0  0  0  1  0  0  0  0  0  0
  -28.9020  -24.1290   20.3050 C   0  0  2  0  0  0  0  0  0  0  0  0
  -28.7340  -25.3450   19.2310 C   0  0  0  0  0  2  0  0  0  0  0  0
  -28.6230  -26.7930   19.6620 O   0  0  0  0  0  0  0  0  0  0  0  0
  -24.6340  -31.8360   23.0170 C   0  0  0  0  0  0  0  0  0  0  0  0
  -27.4430  -27.5760   19.6510 C   0  0  0  0  0  0  0  0  0  0  0  0
  -23.4920  -30.4860   21.2940 C   0  0  0  0  0  3  0  0  0  0  0  0
  -25.0050  -29.0990   19.7580 C   0  0  0  0  0  0  0  0  0  0  0  0
  -26.0110  -30.9270   21.1250 C   0  0  0  0  0  2  0  0  0  0  0  0
  -26.1510  -29.5940   20.3890 C   0  0  0  0  0  0  0  0  0  0  0  0
  -27.3680  -28.8440   20.3260 C   0  0  0  0  0  3  0  0  0  0  0  0
  -26.2680  -27.1480   18.9950 C   0  0  0  0  0  3  0  0  0  0  0  0
  -25.0690  -27.8890   19.0480 C   0  0  0  0  0  3  0  0  0  0  0  0
  -23.7270  -29.9060   19.8740 C   0  0  0  0  0  2  0  0  0  0  0  0
  -24.7310  -31.1010   21.8690 N   0  0  0  0  0  0  0  0  0  0  0  0
  -23.5400  -32.0280   23.5690 O   0  0  0  0  0  0  0  0  0  0  0  0
  -22.8820  -29.3830   22.1950 C   0  0  0  0  0  0  0  0  0  0  0  0
  -21.5530  -29.2090   22.1170 N   0  0  0  0  0  0  0  0  0  0  0  0
  -23.6020  -28.6940   22.9230 O   0  0  0  0  0  0  0  0  0  0  0  0
  -21.0310  -29.8260   21.5100 H   0  0  0  0  0  0  0  0  0  0  0  0
  -18.2150  -27.9210   22.6480 C   0  0  0  0  0  0  0  0  0  0  0  0
  -20.7780  -28.1940   22.8330 C   0  0  0  0  0  3  0  0  0  0  0  0
  -20.8690  -26.8250   22.1200 C   0  0  0  0  0  2  0  0  0  0  0  0
  -19.7280  -26.5790   21.1280 C   0  0  0  0  0  2  0  0  0  0  0  0
  -18.3740  -26.6440   21.8390 C   0  0  0  0  0  2  0  0  0  0  0  0
  -19.3410  -28.6580   23.0980 C   0  0  0  0  0  0  0  0  0  0  0  0
  -19.1350  -29.8560   23.8160 C   0  0  0  0  0  3  0  0  0  0  0  0
  -17.8350  -30.3190   24.0870 C   0  0  0  0  0  3  0  0  0  0  0  0
  -16.7220  -29.5770   23.6550 C   0  0  0  0  0  3  0  0  0  0  0  0
  -16.9120  -28.3830   22.9360 C   0  0  0  0  0  3  0  0  0  0  0  0
  -25.8860  -32.4890   23.6810 C   0  0  0  0  0  3  0  0  0  0  0  0
  -26.3660  -31.7340   24.9810 C   0  0  1  0  0  0  0  0  0  0  0  0
  -25.2400  -31.5000   26.0160 C   0  0  0  0  0  1  0  0  0  0  0  0
  -26.9670  -30.3560   24.6230 C   0  0  0  0  0  1  0  0  0  0  0  0
  -27.4910  -32.5420   25.6720 C   0  0  0  0  0  1  0  0  0  0  0  0
  -25.5490  -33.8860   23.9890 N   0  0  0  0  0  0  0  0  0  0  0  0
  -25.9050  -34.9400   23.2400 C   0  0  0  0  0  0  0  0  0  0  0  0
  -26.6150  -34.8370   22.2370 O   0  0  0  0  0  0  0  0  0  0  0  0
  -24.9220  -34.0410   24.7640 H   0  0  0  0  0  0  0  0  0  0  0  0
  -24.1830  -36.7230   22.8080 C   0  0  0  0  0  1  0  0  0  0  0  0
  -25.3910  -36.3270   23.6740 C   0  0  0  0  0  3  0  0  0  0  0  0
  -27.4830  -37.2240   24.5920 C   0  0  0  0  0  1  0  0  0  0  0  0
  -26.4220  -37.3860   23.6030 N   0  0  0  0  0  0  0  0  0  0  0  0
  -26.0040  -38.3030   23.7340 H   0  0  0  0  0  0  0  0  0  0  0  0
  2  1  1  0
  3  1  1  0
  4 10  1  0
  4  5  1  0
  4  2  1  0
  5  6  1  1
  5  3  1  0
  7  9  1  0
  8  7  2  0
  8 11  1  0
  9 10  2  0
  9 20  1  0
 11 10  1  0
 12 18  1  0
 12 20  1  0
 13 18  1  0
 14 15  1  0
 14 13  1  0
 16 15  1  0
 16 25  1  0
 16 17  1  0
 18 17  1  0
 19 12  2  0
 20 21  1  0
 22 23  2  0
 23 42  1  0
 24 27  1  0
 24 23  1  0
 25 26  1  0
 25 22  1  0
 26 24  2  0
 27 28  1  0
 28 29  2  0
 30 33  1  0
 30 29  1  0
 31 30  2  0
 32 31  1  0
 32 27  2  0
 33 34  1  0
 34 35  1  0
 35 36  2  0
 37 36  1  0
 37 41  1  0
 38 37  2  0
 39 34  2  0
 39 38  1  0
 40 39  1  0
 42 43  1  0
 43 45  1  0
 43 46  1  0
 44 42  2  0
 47 22  1  0
 47 48  1  0
 49 47  1  0
 50 54  1  0
 50  5  1  0
 51 50  2  0
 54 52  1  1
 54 53  1  0
 55 56  1  0
 55 54  1  0
 57 68  2  0
 58 56  1  0
 58 63  1  0
 59 67  1  0
 59 69  1  0
 60 66  1  0
 60 62  1  0
 61 67  1  0
 62 61  1  0
 63 62  2  0
 64 65  1  0
 64 58  2  0
 65 60  2  0
 66 59  1  0
 67 57  1  0
 69 71  2  0
 70 69  1  0
 72 70  1  0
 73 82  2  0
 73 78  1  0
 74 70  1  0
 74 78  1  0
 75 74  1  0
 76 77  1  0
 76 75  1  0
 77 73  1  0
 78 79  2  0
 79 80  1  0
 81 80  2  0
 82 81  1  0
 83 57  1  0
 83 88  1  0
 83 84  1  0
 84 87  1  1
 84 85  1  0
 86 84  1  0
 88 91  1  0
 89 93  1  0
 89 88  1  0
 90 89  2  0
 93 92  1  0
 95 93  1  0
 95 96  1  0
 95 94  1  0
M  ISO  4  12 100  20 100  55 101  56 101
M  END
>  <TORSDO>  (63) 
F 20

>  <SCORE>  (63) 
-9.301

>  <name>  (63) 
62

>  <ligand_id>  (63) 
62

>  <original_smiles>  (63) 
[H]c1sc(C2([H])C([H])([H])C([H])([H])C([H])([H])C2(C(=O)C(C([H])([H])[H])(C([H])([H])[H])C([H])([H])Oc2c([H])c([H])c3c(c2[H])C([H])([H])N(C(=O)C([H])(N([H])C(=O)C([H])(N([H])C([H])([H])[H])C([H])([H])[H])C(C([H])([H])[H])(C([H])([H])[H])C([H])([H])[H])C([H])(C(=O)N([H])C2([H])c4c([H])c([H])c([H])c([H])c4C([H])([H])C([H])([H])C2([H])[H])C3([H])[H])C([H])([H])[H])c(N([H])C(=O)N2C([H])([H])C([H])([H])C([H])([H])C([H])(n3nc(-c4c([H])c([H])c(Oc5c([H])c([H])c(F)c([H])c5F)c([H])c4[H])c(C(=O)N([H])[H])c3N([H])[H])C2([H])[H])c1[H]

>  <smiles>  (63) 
[H]c1sc(C2([H])C([H])([H])C([H])([H])C([H])([H])C2(C(=O)C(C([H])([H])[H])(C([H])([H])[H])C([H])([H])Oc2c([H])c([H])c3c(c2[H])C([H])([H])N(C(=O)C([H])(N([H])C(=O)C([H])(N([H])C([H])([H])[H])C([H])([H])[H])C(C([H])([H])[H])(C([H])([H])[H])C([H])([H])[H])C([H])(C(=O)N([H])C2([H])c4c([H])c([H])c([H])c([H])c4C([H])([H])C([H])([H])C2([H])[H])C3([H])[H])C([H])([H])[H])c(N([H])C(=O)N2C([H])([H])C([H])([H])C([H])([H])C([H])(n3nc(-c4c([H])c([H])c(Oc5c([H])c([H])c(F)c([H])c5F)c([H])c4[H])c(C(=O)N([H])[H])c3N([H])[H])C2([H])[H])c1[H]

$$$$
63:0:0
     RDKit          3D

 96104  0  0  1  0  0  0  0  0999 V2000
  -28.5630  -23.4410   19.9070 C   0  0  0  0  0  3  0  0  0  0  0  0
  -27.6100  -22.5880   19.1640 N   0  0  0  0  0  4  0  0  0  0  0  0
  -27.1800  -21.9060   19.7630 H   0  0  0  0  0  0  0  0  0  0  0  0
  -28.0840  -22.1130   18.4170 H   0  0  0  0  0  0  0  0  0  0  0  0
  -26.8840  -23.1470   18.7490 H   0  0  0  0  0  0  0  0  0  0  0  0
  -29.7930  -22.6270   20.4360 C   0  0  0  0  0  2  0  0  0  0  0  0
  -30.4380  -20.4210   21.4990 C   0  0  0  0  0  3  0  0  0  0  0  0
  -29.7200  -21.0950   20.5750 C   0  0  0  0  0  3  0  0  0  0  0  0
  -30.5210  -14.5300   20.1390 C   0  0  0  0  0  0  0  0  0  0  0  0
  -30.1410  -12.4140   18.9180 C   0  0  0  0  0  2  0  0  0  0  0  0
  -29.1310  -12.6420   17.7760 C   0  0  0  0  0  2  0  0  0  0  0  0
  -27.6860  -12.4830   18.2900 C   0  0  0  0  0  2  0  0  0  0  0  0
  -27.4190  -13.2980   19.5830 C   0  0  0  0  0  3  0  0  0  0  0  0
  -28.5330  -13.0590   20.6240 C   0  0  0  0  0  2  0  0  0  0  0  0
  -29.8200  -13.3740   19.9850 N   0  0  0  0  0  0  0  0  0  0  0  0
  -31.6400  -14.6990   19.6420 O   0  0  0  0  0  0  0  0  0  0  0  0
  -31.6240  -18.4660   22.4530 C   0  0  0  0  0  3  0  0  0  0  0  0
  -30.6080  -18.9600   21.6720 C   0  0  0  0  0  0  0  0  0  0  0  0
  -30.3970  -16.7400   21.2180 C   0  0  0  0  0  0  0  0  0  0  0  0
  -29.8860  -17.9670   20.9820 N   0  0  0  0  0  0  0  0  0  0  0  0
  -29.8320  -15.5620   20.6680 N   0  0  0  0  0  0  0  0  0  0  0  0
  -31.7690  -16.7370   22.3240 S   0  0  0  0  0  0  0  0  0  0  0  0
  -28.8430  -15.4330   20.8040 H   0  0  0  0  0  0  0  0  0  0  0  0
  -25.0640  -13.8980   20.4320 C   0  0  0  0  0  0  0  0  0  0  0  0
  -24.0180  -13.1210   20.8500 C   0  0  0  0  0  0  0  0  0  0  0  0
  -24.4750  -11.7690   20.7760 C   0  0  0  0  0  0  0  0  0  0  0  0
  -26.0930  -13.0190   20.1310 N   0  0  0  0  0  0  0  0  0  0  0  0
  -25.7450  -11.7330   20.3970 N   0  0  0  0  0  0  0  0  0  0  0  0
  -23.7590  -10.5060   20.9930 C   0  0  0  0  0  0  0  0  0  0  0  0
  -24.2380   -9.5310   21.8970 C   0  0  0  0  0  3  0  0  0  0  0  0
  -23.5250   -8.3290   22.0980 C   0  0  0  0  0  3  0  0  0  0  0  0
  -22.3180   -8.0950   21.3990 C   0  0  0  0  0  0  0  0  0  0  0  0
  -21.8570   -9.0590   20.4840 C   0  0  0  0  0  3  0  0  0  0  0  0
  -22.5700  -10.2520   20.2810 C   0  0  0  0  0  3  0  0  0  0  0  0
  -21.5700   -6.9470   21.5120 O   0  0  0  0  0  0  0  0  0  0  0  0
  -21.5900   -6.1870   22.6530 C   0  0  0  0  0  0  0  0  0  0  0  0
  -21.2360   -6.7200   23.9110 C   0  0  0  0  0  3  0  0  0  0  0  0
  -21.2030   -5.8840   25.0460 C   0  0  0  0  0  3  0  0  0  0  0  0
  -21.5130   -4.5170   24.9220 C   0  0  0  0  0  0  0  0  0  0  0  0
  -21.8610   -3.9830   23.6680 C   0  0  0  0  0  3  0  0  0  0  0  0
  -21.8960   -4.8160   22.5370 C   0  0  0  0  0  0  0  0  0  0  0  0
  -22.2110   -4.2930   21.3280 F   0  0  0  0  0  0  0  0  0  0  0  0
  -21.4740   -3.7120   26.0100 F   0  0  0  0  0  0  0  0  0  0  0  0
  -22.6360  -13.5950   21.2010 C   0  0  0  0  0  0  0  0  0  0  0  0
  -21.9510  -12.8890   22.0940 N   0  0  0  0  0  0  0  0  0  0  0  0
  -22.1730  -14.6270   20.7190 O   0  0  0  0  0  0  0  0  0  0  0  0
  -22.3340  -12.0520   22.5110 H   0  0  0  0  0  0  0  0  0  0  0  0
  -21.0250  -13.1920   22.3630 H   0  0  0  0  0  0  0  0  0  0  0  0
  -25.2210  -15.2700   20.2600 N   0  0  0  0  0  0  0  0  0  0  0  0
  -24.4640  -15.9250   20.4220 H   0  0  0  0  0  0  0  0  0  0  0  0
  -26.0450  -15.7130   19.8730 H   0  0  0  0  0  0  0  0  0  0  0  0
  -27.8420  -24.3200   20.9750 C   0  0  0  0  0  2  0  0  0  0  0  0
  -29.9320  -25.6980   21.6650 C   0  0  0  0  0  1  0  0  0  0  0  0
  -27.7130  -26.2090   22.6290 C   0  0  0  0  0  1  0  0  0  0  0  0
  -28.4270  -25.7310   21.3370 C   0  0  2  0  0  0  0  0  0  0  0  0
  -28.3180  -26.6860   20.2390 O   0  0  0  0  0  0  0  0  0  0  0  0
  -24.5420  -31.8980   23.2340 C   0  0  0  0  0  0  0  0  0  0  0  0
  -27.1790  -27.4620   20.1700 C   0  0  0  0  0  0  0  0  0  0  0  0
  -23.3340  -30.5020   21.5860 C   0  0  0  0  0  3  0  0  0  0  0  0
  -24.7920  -28.9760   20.1440 C   0  0  0  0  0  0  0  0  0  0  0  0
  -25.8540  -30.8720   21.3800 C   0  0  0  0  0  2  0  0  0  0  0  0
  -25.9450  -29.5020   20.7400 C   0  0  0  0  0  0  0  0  0  0  0  0
  -27.1440  -28.7530   20.7470 C   0  0  0  0  0  3  0  0  0  0  0  0
  -26.0230  -26.9630   19.5400 C   0  0  0  0  0  3  0  0  0  0  0  0
  -24.8280  -27.7090   19.5320 C   0  0  0  0  0  3  0  0  0  0  0  0
  -23.5440  -29.8320   20.1990 C   0  0  0  0  0  2  0  0  0  0  0  0
  -24.5950  -31.1050   22.1260 N   0  0  0  0  0  0  0  0  0  0  0  0
  -23.4620  -32.1650   23.7800 O   0  0  0  0  0  0  0  0  0  0  0  0
  -22.6880  -29.4730   22.5430 C   0  0  0  0  0  0  0  0  0  0  0  0
  -21.3650  -29.2860   22.4160 N   0  0  0  0  0  0  0  0  0  0  0  0
  -23.3740  -28.8490   23.3550 O   0  0  0  0  0  0  0  0  0  0  0  0
  -20.8690  -29.8370   21.7300 H   0  0  0  0  0  0  0  0  0  0  0  0
  -17.9970  -28.0800   22.9120 C   0  0  0  0  0  0  0  0  0  0  0  0
  -20.5530  -28.3440   23.1870 C   0  0  0  0  0  3  0  0  0  0  0  0
  -20.6610  -26.9160   22.6090 C   0  0  0  0  0  2  0  0  0  0  0  0
  -19.5620  -26.5920   21.5920 C   0  0  0  0  0  2  0  0  0  0  0  0
  -18.1790  -26.7320   22.2340 C   0  0  0  0  0  2  0  0  0  0  0  0
  -19.1110  -28.8440   23.3450 C   0  0  0  0  0  0  0  0  0  0  0  0
  -18.8890  -30.1060   23.9370 C   0  0  0  0  0  3  0  0  0  0  0  0
  -17.5820  -30.6030   24.1030 C   0  0  0  0  0  3  0  0  0  0  0  0
  -16.4820  -29.8350   23.6880 C   0  0  0  0  0  3  0  0  0  0  0  0
  -16.6890  -28.5760   23.0960 C   0  0  0  0  0  3  0  0  0  0  0  0
  -25.8290  -32.5280   23.8520 C   0  0  0  0  0  3  0  0  0  0  0  0
  -25.5250  -33.9270   24.1810 N   0  0  0  0  0  0  0  0  0  0  0  0
  -25.8660  -34.9780   23.4230 C   0  0  0  0  0  0  0  0  0  0  0  0
  -26.5440  -34.8710   22.3970 O   0  0  0  0  0  0  0  0  0  0  0  0
  -24.9270  -34.0840   24.9780 H   0  0  0  0  0  0  0  0  0  0  0  0
  -24.1540  -36.7790   23.0420 C   0  0  0  0  0  1  0  0  0  0  0  0
  -25.3790  -36.3670   23.8740 C   0  0  0  0  0  3  0  0  0  0  0  0
  -27.5060  -37.2360   24.7380 C   0  0  0  0  0  1  0  0  0  0  0  0
  -26.4170  -37.4160   23.7840 N   0  0  0  0  0  0  0  0  0  0  0  0
  -26.0120  -38.3360   23.9370 H   0  0  0  0  0  0  0  0  0  0  0  0
  -26.3520  -31.7530   25.1230 C   0  0  1  0  0  0  0  0  0  0  0  0
  -25.2650  -31.5180   26.1980 C   0  0  0  0  0  1  0  0  0  0  0  0
  -26.9310  -30.3750   24.7240 C   0  0  0  0  0  1  0  0  0  0  0  0
  -27.5080  -32.5430   25.7820 C   0  0  0  0  0  1  0  0  0  0  0  0
  1  6  1  0
  1 52  1  0
  2  3  1  0
  2  1  1  0
  4  2  1  0
  5  2  1  0
  6  8  1  0
  7 18  1  0
  8  7  2  0
  9 21  1  0
 10 15  1  0
 11 12  1  0
 11 10  1  0
 13 12  1  0
 13 27  1  0
 13 14  1  0
 15  9  1  0
 15 14  1  0
 16  9  2  0
 18 17  2  0
 19 22  1  0
 20 19  2  0
 20 18  1  0
 21 23  1  0
 21 19  1  0
 22 17  1  0
 24 25  2  0
 25 44  1  0
 26 25  1  0
 26 29  1  0
 27 28  1  0
 27 24  1  0
 28 26  2  0
 29 30  1  0
 30 31  2  0
 32 35  1  0
 32 31  1  0
 33 32  2  0
 34 33  1  0
 34 29  2  0
 35 36  1  0
 36 37  1  0
 37 38  2  0
 39 38  1  0
 39 43  1  0
 40 39  2  0
 41 36  2  0
 41 40  1  0
 42 41  1  0
 44 45  1  0
 45 48  1  0
 45 47  1  0
 46 44  2  0
 49 50  1  0
 49 24  1  0
 51 49  1  0
 52 55  1  0
 55 53  1  1
 55 54  1  0
 56 55  1  0
 57 68  2  0
 58 56  1  0
 58 63  1  0
 59 67  1  0
 59 69  1  0
 60 66  1  0
 60 62  1  0
 61 67  1  0
 62 63  2  0
 62 61  1  0
 64 58  2  0
 65 64  1  0
 65 60  2  0
 66 59  1  0
 67 57  1  0
 69 71  2  0
 70 69  1  0
 72 70  1  0
 73 82  2  0
 73 78  1  0
 74 70  1  0
 74 78  1  0
 75 74  1  0
 76 77  1  0
 76 75  1  0
 77 73  1  0
 78 79  2  0
 79 80  1  0
 81 80  2  0
 82 81  1  0
 83 57  1  0
 83 84  1  0
 83 93  1  0
 84 87  1  0
 85 89  1  0
 85 84  1  0
 86 85  2  0
 89 88  1  0
 91 89  1  0
 91 92  1  0
 91 90  1  0
 93 96  1  1
 93 94  1  0
 95 93  1  0
M  ISO  4   9 100  21 100  55 101  56 101
M  END
>  <TORSDO>  (64) 
F 21

>  <SCORE>  (64) 
-12.096

>  <name>  (64) 
63

>  <ligand_id>  (64) 
63

>  <original_smiles>  (64) 
[H]C(=C([H])C([H])([H])C([H])(C([H])([H])C(Oc1c([H])c([H])c2c(c1[H])C([H])([H])N(C(=O)C([H])(N([H])C(=O)C([H])(N([H])C([H])([H])[H])C([H])([H])[H])C(C([H])([H])[H])(C([H])([H])[H])C([H])([H])[H])C([H])(C(=O)N([H])C1([H])c3c([H])c([H])c([H])c([H])c3C([H])([H])C([H])([H])C1([H])[H])C2([H])[H])(C([H])([H])[H])C([H])([H])[H])[N+]([H])([H])[H])c1nc(N([H])C(=O)N2C([H])([H])C([H])([H])C([H])([H])C([H])(n3nc(-c4c([H])c([H])c(Oc5c([H])c([H])c(F)c([H])c5F)c([H])c4[H])c(C(=O)N([H])[H])c3N([H])[H])C2([H])[H])sc1[H]

>  <smiles>  (64) 
[H]C(=C([H])C([H])([H])C([H])(C([H])([H])C(Oc1c([H])c([H])c2c(c1[H])C([H])([H])N(C(=O)C([H])(N([H])C(=O)C([H])(N([H])C([H])([H])[H])C([H])([H])[H])C(C([H])([H])[H])(C([H])([H])[H])C([H])([H])[H])C([H])(C(=O)N([H])C1([H])c3c([H])c([H])c([H])c([H])c3C([H])([H])C([H])([H])C1([H])[H])C2([H])[H])(C([H])([H])[H])C([H])([H])[H])[N+]([H])([H])[H])c1nc(N([H])C(=O)N2C([H])([H])C([H])([H])C([H])([H])C([H])(n3nc(-c4c([H])c([H])c(Oc5c([H])c([H])c(F)c([H])c5F)c([H])c4[H])c(C(=O)N([H])[H])c3N([H])[H])C2([H])[H])sc1[H]

$$$$
64:0:0
     RDKit          3D

 97106  0  0  1  0  0  0  0  0999 V2000
  -30.0020  -18.8950   17.8150 C   0  0  0  0  0  3  0  0  0  0  0  0
  -30.0460  -17.7200   18.5870 C   0  0  0  0  0  3  0  0  0  0  0  0
  -29.6950  -19.1290   20.5360 C   0  0  0  0  0  3  0  0  0  0  0  0
  -29.8870  -20.1860   18.3820 C   0  0  0  0  0  0  0  0  0  0  0  0
  -29.7090  -20.4280   19.7720 C   0  0  0  0  0  0  0  0  0  0  0  0
  -29.9090  -17.7450   19.9870 C   0  0  0  0  0  0  0  0  0  0  0  0
  -30.2560  -21.3470   17.4920 C   0  0  0  0  0  2  0  0  0  0  0  0
  -31.4870  -21.9890   18.1170 C   0  0  0  0  0  2  0  0  0  0  0  0
  -31.2940  -22.3490   19.6140 C   0  0  0  0  0  2  0  0  0  0  0  0
  -29.8790  -22.0630   20.2400 C   0  0  2  0  0  0  0  0  0  0  0  0
  -30.6570  -15.1690   20.5170 C   0  0  0  0  0  0  0  0  0  0  0  0
  -30.6250  -12.7400   19.7780 C   0  0  0  0  0  2  0  0  0  0  0  0
  -29.7830  -12.6170   18.4850 C   0  0  0  0  0  2  0  0  0  0  0  0
  -28.3010  -12.3950   18.8390 C   0  0  0  0  0  2  0  0  0  0  0  0
  -27.8030  -13.3790   19.9300 C   0  0  0  0  0  3  0  0  0  0  0  0
  -28.7830  -13.5050   21.1170 C   0  0  0  0  0  2  0  0  0  0  0  0
  -30.0920  -13.8920   20.5700 N   0  0  0  0  0  0  0  0  0  0  0  0
  -31.8590  -15.2260   20.2310 O   0  0  0  0  0  0  0  0  0  0  0  0
  -29.8820  -16.3610   20.6710 N   0  0  0  0  0  0  0  0  0  0  0  0
  -29.0140  -16.1820   21.1550 H   0  0  0  0  0  0  0  0  0  0  0  0
  -25.3850  -13.9400   20.5430 C   0  0  0  0  0  0  0  0  0  0  0  0
  -24.3110  -13.1550   20.8720 C   0  0  0  0  0  0  0  0  0  0  0  0
  -24.7920  -11.8120   20.8890 C   0  0  0  0  0  0  0  0  0  0  0  0
  -26.4470  -13.0690   20.3690 N   0  0  0  0  0  0  0  0  0  0  0  0
  -26.0960  -11.7870   20.6430 N   0  0  0  0  0  0  0  0  0  0  0  0
  -24.0690  -10.5450   21.0690 C   0  0  0  0  0  0  0  0  0  0  0  0
  -24.4710   -9.5910   22.0300 C   0  0  0  0  0  3  0  0  0  0  0  0
  -23.7450   -8.3910   22.1960 C   0  0  0  0  0  3  0  0  0  0  0  0
  -22.6050   -8.1360   21.3980 C   0  0  0  0  0  0  0  0  0  0  0  0
  -22.2210   -9.0780   20.4280 C   0  0  0  0  0  3  0  0  0  0  0  0
  -22.9490  -10.2700   20.2610 C   0  0  0  0  0  3  0  0  0  0  0  0
  -21.8550   -6.9870   21.4700 O   0  0  0  0  0  0  0  0  0  0  0  0
  -21.7730   -6.2510   22.6250 C   0  0  0  0  0  0  0  0  0  0  0  0
  -21.3090   -6.8130   23.8330 C   0  0  0  0  0  3  0  0  0  0  0  0
  -21.1740   -6.0040   24.9810 C   0  0  0  0  0  3  0  0  0  0  0  0
  -21.4950   -4.6350   24.9200 C   0  0  0  0  0  0  0  0  0  0  0  0
  -21.9530   -4.0720   23.7150 C   0  0  0  0  0  3  0  0  0  0  0  0
  -22.0880   -4.8780   22.5710 C   0  0  0  0  0  0  0  0  0  0  0  0
  -22.5100   -4.3260   21.4070 F   0  0  0  0  0  0  0  0  0  0  0  0
  -21.3590   -3.8560   26.0180 F   0  0  0  0  0  0  0  0  0  0  0  0
  -22.8990  -13.6250   21.0650 C   0  0  0  0  0  0  0  0  0  0  0  0
  -22.1360  -12.9360   21.9090 N   0  0  0  0  0  0  0  0  0  0  0  0
  -22.4790  -14.6340   20.5040 O   0  0  0  0  0  0  0  0  0  0  0  0
  -22.4920  -12.1190   22.3820 H   0  0  0  0  0  0  0  0  0  0  0  0
  -21.1870  -13.2330   22.0830 H   0  0  0  0  0  0  0  0  0  0  0  0
  -25.5420  -15.3080   20.3530 N   0  0  0  0  0  0  0  0  0  0  0  0
  -24.7600  -15.9510   20.4050 H   0  0  0  0  0  0  0  0  0  0  0  0
  -26.4060  -15.7580   20.0740 H   0  0  0  0  0  0  0  0  0  0  0  0
  -31.1160  -21.4000   22.4950 C   0  0  0  0  0  1  0  0  0  0  0  0
  -28.6490  -21.8530   22.5230 C   0  0  0  0  0  1  0  0  0  0  0  0
  -30.3110  -23.6960   22.2400 C   0  0  0  0  0  1  0  0  0  0  0  0
  -29.9850  -22.2310   21.8290 C   0  0  2  0  0  0  0  0  0  0  0  0
  -28.8040  -23.3500   19.7410 C   0  0  0  0  0  2  0  0  0  0  0  0
  -30.4110  -25.4600   19.1580 C   0  0  0  0  0  1  0  0  0  0  0  0
  -28.3800  -25.1260   17.8950 C   0  0  0  0  0  1  0  0  0  0  0  0
  -28.9460  -25.0340   19.3250 C   0  0  1  0  0  0  0  0  0  0  0  0
  -28.5130  -26.3520   20.0680 O   0  0  0  0  0  0  0  0  0  0  0  0
  -24.5830  -31.8200   23.0280 C   0  0  0  0  0  0  0  0  0  0  0  0
  -27.3860  -27.2580   19.9390 C   0  0  0  0  0  0  0  0  0  0  0  0
  -23.4490  -30.4010   21.3630 C   0  0  0  0  0  3  0  0  0  0  0  0
  -24.9720  -28.9080   19.9360 C   0  0  0  0  0  0  0  0  0  0  0  0
  -25.9940  -30.7830   21.2090 C   0  0  0  0  0  2  0  0  0  0  0  0
  -26.1340  -29.4050   20.5350 C   0  0  0  0  0  0  0  0  0  0  0  0
  -27.3390  -28.5990   20.5120 C   0  0  0  0  0  3  0  0  0  0  0  0
  -26.1670  -26.8480   19.3530 C   0  0  0  0  0  3  0  0  0  0  0  0
  -24.9980  -27.6420   19.3400 C   0  0  0  0  0  3  0  0  0  0  0  0
  -23.7010  -29.7360   19.9850 C   0  0  0  0  0  2  0  0  0  0  0  0
  -24.6940  -31.0240   21.9220 N   0  0  0  0  0  0  0  0  0  0  0  0
  -23.4810  -32.0570   23.5500 O   0  0  0  0  0  0  0  0  0  0  0  0
  -22.7960  -29.3650   22.3150 C   0  0  0  0  0  0  0  0  0  0  0  0
  -21.4710  -29.1700   22.1990 N   0  0  0  0  0  0  0  0  0  0  0  0
  -23.4900  -28.7310   23.1150 O   0  0  0  0  0  0  0  0  0  0  0  0
  -20.9700  -29.7390   21.5310 H   0  0  0  0  0  0  0  0  0  0  0  0
  -18.1130  -27.9000   22.7270 C   0  0  0  0  0  0  0  0  0  0  0  0
  -20.6740  -28.1930   22.9490 C   0  0  0  0  0  3  0  0  0  0  0  0
  -20.7830  -26.7810   22.3270 C   0  0  0  0  0  2  0  0  0  0  0  0
  -19.6670  -26.4730   21.3230 C   0  0  0  0  0  2  0  0  0  0  0  0
  -18.2940  -26.5790   21.9960 C   0  0  0  0  0  2  0  0  0  0  0  0
  -19.2300  -28.6650   23.1580 C   0  0  0  0  0  0  0  0  0  0  0  0
  -19.0050  -29.9000   23.8030 C   0  0  0  0  0  3  0  0  0  0  0  0
  -17.6970  -30.3750   24.0150 C   0  0  0  0  0  3  0  0  0  0  0  0
  -16.5950  -29.6080   23.6010 C   0  0  0  0  0  3  0  0  0  0  0  0
  -16.8030  -28.3730   22.9630 C   0  0  0  0  0  3  0  0  0  0  0  0
  -25.8260  -32.4950   23.6800 C   0  0  0  0  0  3  0  0  0  0  0  0
  -26.3580  -31.7220   24.9490 C   0  0  1  0  0  0  0  0  0  0  0  0
  -25.2650  -31.4300   26.0020 C   0  0  0  0  0  1  0  0  0  0  0  0
  -27.0000  -30.3740   24.5470 C   0  0  0  0  0  1  0  0  0  0  0  0
  -27.4640  -32.5560   25.6330 C   0  0  0  0  0  1  0  0  0  0  0  0
  -25.4470  -33.8690   24.0430 N   0  0  0  0  0  0  0  0  0  0  0  0
  -25.7490  -34.9600   23.3280 C   0  0  0  0  0  0  0  0  0  0  0  0
  -26.4390  -34.9170   22.3060 O   0  0  0  0  0  0  0  0  0  0  0  0
  -24.8200  -33.9710   24.8280 H   0  0  0  0  0  0  0  0  0  0  0  0
  -23.9600  -36.7090   23.0270 C   0  0  0  0  0  1  0  0  0  0  0  0
  -25.2060  -36.3110   23.8320 C   0  0  0  0  0  3  0  0  0  0  0  0
  -27.2970  -37.2440   24.7200 C   0  0  0  0  0  1  0  0  0  0  0  0
  -26.1990  -37.4020   23.7730 N   0  0  0  0  0  0  0  0  0  0  0  0
  -25.7550  -38.2980   23.9510 H   0  0  0  0  0  0  0  0  0  0  0  0
  1  4  2  0
  1  2  1  0
  2  6  2  0
  4  5  1  0
  5 10  1  0
  5  3  2  0
  6  3  1  0
  6 19  1  0
  7  8  1  0
  7  4  1  0
  8  9  1  0
  9 10  1  0
 10 53  1  6
 10 52  1  0
 11 17  1  0
 11 19  1  0
 12 17  1  0
 13 14  1  0
 13 12  1  0
 15 14  1  0
 15 24  1  0
 15 16  1  0
 17 16  1  0
 18 11  2  0
 19 20  1  0
 21 22  2  0
 22 23  1  0
 22 41  1  0
 23 26  1  0
 24 21  1  0
 24 25  1  0
 25 23  2  0
 26 27  1  0
 27 28  2  0
 29 32  1  0
 29 28  1  0
 30 29  2  0
 31 30  1  0
 31 26  2  0
 32 33  1  0
 33 34  1  0
 34 35  2  0
 36 35  1  0
 36 40  1  0
 37 36  2  0
 38 33  2  0
 38 37  1  0
 39 38  1  0
 41 42  1  0
 42 45  1  0
 42 44  1  0
 43 41  2  0
 46 47  1  0
 46 21  1  0
 48 46  1  0
 52 51  1  6
 52 49  1  0
 52 50  1  0
 56 54  1  6
 55 56  1  0
 56 53  1  0
 56 57  1  0
 58 69  2  0
 59 57  1  0
 59 64  1  0
 60 68  1  0
 60 70  1  0
 61 67  1  0
 61 63  1  0
 62 68  1  0
 63 62  1  0
 64 63  2  0
 65 59  2  0
 66 65  1  0
 66 61  2  0
 67 60  1  0
 68 58  1  0
 70 72  2  0
 71 70  1  0
 73 71  1  0
 74 83  2  0
 74 79  1  0
 75 71  1  0
 75 79  1  0
 76 75  1  0
 77 78  1  0
 77 76  1  0
 78 74  1  0
 79 80  2  0
 80 81  1  0
 82 81  2  0
 83 82  1  0
 84 58  1  0
 84 89  1  0
 84 85  1  0
 85 88  1  1
 85 86  1  0
 87 85  1  0
 89 92  1  0
 90 94  1  0
 90 89  1  0
 91 90  2  0
 94 93  1  0
 96 94  1  0
 96 97  1  0
 96 95  1  0
M  ISO  4  11 100  19 100  56 101  57 101
M  END
>  <TORSDO>  (65) 
F 19

>  <SCORE>  (65) 
-14.885

>  <name>  (65) 
64

>  <ligand_id>  (65) 
64

>  <original_smiles>  (65) 
[H]c1c([H])c([H])c2c(c1[H])C([H])([H])C([H])([H])C([H])([H])C2([H])N([H])C(=O)C1([H])N(C(=O)C([H])(N([H])C(=O)C([H])(N([H])C([H])([H])[H])C([H])([H])[H])C(C([H])([H])[H])(C([H])([H])[H])C([H])([H])[H])C([H])([H])c2c([H])c(OC(C([H])([H])[H])(C([H])([H])[H])C([H])([H])C3(C(C([H])([H])[H])(C([H])([H])[H])C([H])([H])[H])c4c([H])c(N([H])C(=O)N5C([H])([H])C([H])([H])C([H])([H])C([H])(n6nc(-c7c([H])c([H])c(Oc8c([H])c([H])c(F)c([H])c8F)c([H])c7[H])c(C(=O)N([H])[H])c6N([H])[H])C5([H])[H])c([H])c([H])c4C([H])([H])C([H])([H])C3([H])[H])c([H])c([H])c2C1([H])[H]

>  <smiles>  (65) 
[H]c1c([H])c([H])c2c(c1[H])C([H])([H])C([H])([H])C([H])([H])C2([H])N([H])C(=O)C1([H])N(C(=O)C([H])(N([H])C(=O)C([H])(N([H])C([H])([H])[H])C([H])([H])[H])C(C([H])([H])[H])(C([H])([H])[H])C([H])([H])[H])C([H])([H])c2c([H])c(OC(C([H])([H])[H])(C([H])([H])[H])C([H])([H])C3(C(C([H])([H])[H])(C([H])([H])[H])C([H])([H])[H])c4c([H])c(N([H])C(=O)N5C([H])([H])C([H])([H])C([H])([H])C([H])(n6nc(-c7c([H])c([H])c(Oc8c([H])c([H])c(F)c([H])c8F)c([H])c7[H])c(C(=O)N([H])[H])c6N([H])[H])C5([H])[H])c([H])c([H])c4C([H])([H])C([H])([H])C3([H])[H])c([H])c([H])c2C1([H])[H]

$$$$
65:0:0
     RDKit          3D

103112  0  0  1  0  0  0  0  0999 V2000
  -31.8220  -21.9610   19.7700 C   0  0  0  0  0  3  0  0  0  0  0  0
  -31.9790  -23.3400   19.5530 C   0  0  0  0  0  3  0  0  0  0  0  0
  -30.6810  -23.1470   17.4990 C   0  0  0  0  0  3  0  0  0  0  0  0
  -31.0650  -21.1670   18.8790 C   0  0  0  0  0  0  0  0  0  0  0  0
  -30.5170  -21.7620   17.7100 C   0  0  0  0  0  0  0  0  0  0  0  0
  -31.3680  -23.9450   18.4350 C   0  0  0  0  0  0  0  0  0  0  0  0
  -29.7080  -20.9660   16.6940 C   0  0  0  0  0  1  0  0  0  0  0  0
  -30.8650  -19.7190   19.2180 C   0  0  0  0  0  0  0  0  0  0  0  0
  -30.7960  -19.4950   20.5390 N   0  0  0  0  0  0  0  0  0  0  0  0
  -30.7260  -18.8610   18.3410 O   0  0  0  0  0  0  0  0  0  0  0  0
  -30.7680  -20.3330   21.1020 H   0  0  0  0  0  0  0  0  0  0  0  0
  -30.4880  -18.2930   22.6170 C   0  0  0  0  0  3  0  0  0  0  0  0
  -30.9330  -15.9020   22.7750 C   0  0  0  0  0  3  0  0  0  0  0  0
  -31.1690  -17.0450   20.6370 C   0  0  0  0  0  3  0  0  0  0  0  0
  -30.5520  -17.1130   23.3850 C   0  0  0  0  0  0  0  0  0  0  0  0
  -30.7930  -18.2660   21.2420 C   0  0  0  0  0  0  0  0  0  0  0  0
  -31.2480  -15.8570   21.3980 C   0  0  0  0  0  0  0  0  0  0  0  0
  -30.2310  -17.1410   24.8650 C   0  0  0  0  0  1  0  0  0  0  0  0
  -31.5540  -14.3640   19.4950 C   0  0  0  0  0  0  0  0  0  0  0  0
  -30.7300  -12.5900   17.9970 C   0  0  0  0  0  2  0  0  0  0  0  0
  -29.6310  -13.0350   17.0220 C   0  0  0  0  0  2  0  0  0  0  0  0
  -28.2470  -12.9270   17.6830 C   0  0  0  0  0  2  0  0  0  0  0  0
  -28.1980  -13.6280   19.0640 C   0  0  0  0  0  3  0  0  0  0  0  0
  -29.3810  -13.1850   19.9500 C   0  0  0  0  0  2  0  0  0  0  0  0
  -30.6420  -13.4010   19.2160 N   0  0  0  0  0  0  0  0  0  0  0  0
  -32.3650  -14.8020   18.6690 O   0  0  0  0  0  0  0  0  0  0  0  0
  -32.3730  -13.6440   21.6510 C   0  0  0  0  0  1  0  0  0  0  0  0
  -31.6790  -14.6290   20.8130 N   0  0  0  0  0  0  0  0  0  0  0  0
  -25.9610  -14.3200   20.1390 C   0  0  0  0  0  0  0  0  0  0  0  0
  -24.9190  -13.5820   20.6340 C   0  0  0  0  0  0  0  0  0  0  0  0
  -25.2990  -12.2130   20.4870 C   0  0  0  0  0  0  0  0  0  0  0  0
  -26.9140  -13.4020   19.7270 N   0  0  0  0  0  0  0  0  0  0  0  0
  -26.5250  -12.1270   19.9900 N   0  0  0  0  0  0  0  0  0  0  0  0
  -24.5440  -10.9790   20.7380 C   0  0  0  0  0  0  0  0  0  0  0  0
  -24.9990  -10.0070   21.6570 C   0  0  0  0  0  3  0  0  0  0  0  0
  -24.2460   -8.8380   21.8940 C   0  0  0  0  0  3  0  0  0  0  0  0
  -23.0230   -8.6300   21.2130 C   0  0  0  0  0  0  0  0  0  0  0  0
  -22.5850   -9.5900   20.2820 C   0  0  0  0  0  3  0  0  0  0  0  0
  -23.3390  -10.7520   20.0440 C   0  0  0  0  0  3  0  0  0  0  0  0
  -22.2370   -7.5130   21.3590 O   0  0  0  0  0  0  0  0  0  0  0  0
  -22.1220   -6.8680   22.5650 C   0  0  0  0  0  0  0  0  0  0  0  0
  -21.7300   -7.5470   23.7400 C   0  0  0  0  0  3  0  0  0  0  0  0
  -21.5580   -6.8330   24.9420 C   0  0  0  0  0  3  0  0  0  0  0  0
  -21.7660   -5.4410   24.9700 C   0  0  0  0  0  0  0  0  0  0  0  0
  -22.1500   -4.7620   23.8000 C   0  0  0  0  0  3  0  0  0  0  0  0
  -22.3240   -5.4740   22.6010 C   0  0  0  0  0  0  0  0  0  0  0  0
  -22.6740   -4.8110   21.4710 F   0  0  0  0  0  0  0  0  0  0  0  0
  -21.5930   -4.7520   26.1220 F   0  0  0  0  0  0  0  0  0  0  0  0
  -23.6030  -14.1110   21.1290 C   0  0  0  0  0  0  0  0  0  0  0  0
  -23.0310  -13.4760   22.1470 N   0  0  0  0  0  0  0  0  0  0  0  0
  -23.0970  -15.1220   20.6440 O   0  0  0  0  0  0  0  0  0  0  0  0
  -23.4550  -12.6570   22.5560 H   0  0  0  0  0  0  0  0  0  0  0  0
  -22.1560  -13.8150   22.5220 H   0  0  0  0  0  0  0  0  0  0  0  0
  -26.1700  -15.6870   19.9870 N   0  0  0  0  0  0  0  0  0  0  0  0
  -25.4690  -16.3760   20.2380 H   0  0  0  0  0  0  0  0  0  0  0  0
  -27.0020  -16.0980   19.5820 H   0  0  0  0  0  0  0  0  0  0  0  0
  -31.2340  -26.2760   19.1770 C   0  0  0  0  0  0  0  0  0  0  0  0
  -31.3790  -25.3420   18.2210 N   0  0  0  0  0  0  0  0  0  0  0  0
  -31.6320  -26.1490   20.3380 O   0  0  0  0  0  0  0  0  0  0  0  0
  -31.0930  -25.6380   17.2980 H   0  0  0  0  0  0  0  0  0  0  0  0
  -30.5720  -27.5810   18.7480 C   0  0  0  0  0  2  0  0  0  0  0  0
  -29.1780  -27.3480   18.1360 C   0  0  0  0  0  2  0  0  0  0  0  0
  -28.3100  -26.6650   19.0480 O   0  0  0  0  0  0  0  0  0  0  0  0
  -24.7570  -31.4840   22.8910 C   0  0  0  0  0  0  0  0  0  0  0  0
  -27.1430  -27.3370   19.2830 C   0  0  0  0  0  0  0  0  0  0  0  0
  -23.4190  -30.2160   21.2380 C   0  0  0  0  0  3  0  0  0  0  0  0
  -24.7530  -28.7830   19.6060 C   0  0  0  0  0  0  0  0  0  0  0  0
  -25.9200  -30.5950   20.8810 C   0  0  0  0  0  2  0  0  0  0  0  0
  -25.9490  -29.2760   20.1450 C   0  0  0  0  0  0  0  0  0  0  0  0
  -27.1470  -28.5550   19.9910 C   0  0  0  0  0  3  0  0  0  0  0  0
  -25.9350  -26.8270   18.7700 C   0  0  0  0  0  3  0  0  0  0  0  0
  -24.7360  -27.5510   18.9250 C   0  0  0  0  0  3  0  0  0  0  0  0
  -23.5200  -29.6350   19.8010 C   0  0  0  0  0  2  0  0  0  0  0  0
  -24.7210  -30.7750   21.7290 N   0  0  0  0  0  0  0  0  0  0  0  0
  -23.7220  -31.7190   23.5300 O   0  0  0  0  0  0  0  0  0  0  0  0
  -22.8330  -29.1280   22.1630 C   0  0  0  0  0  0  0  0  0  0  0  0
  -21.5050  -28.9410   22.0970 N   0  0  0  0  0  0  0  0  0  0  0  0
  -23.5660  -28.4550   22.8950 O   0  0  0  0  0  0  0  0  0  0  0  0
  -20.9760  -29.5370   21.4760 H   0  0  0  0  0  0  0  0  0  0  0  0
  -18.1740  -27.6740   22.6750 C   0  0  0  0  0  0  0  0  0  0  0  0
  -20.7370  -27.9490   22.8470 C   0  0  0  0  0  3  0  0  0  0  0  0
  -20.8290  -26.5570   22.1800 C   0  0  0  0  0  2  0  0  0  0  0  0
  -19.6850  -26.2810   21.1990 C   0  0  0  0  0  2  0  0  0  0  0  0
  -18.3330  -26.3710   21.9110 C   0  0  0  0  0  2  0  0  0  0  0  0
  -19.3030  -28.4240   23.0990 C   0  0  0  0  0  0  0  0  0  0  0  0
  -19.0990  -29.6480   23.7730 C   0  0  0  0  0  3  0  0  0  0  0  0
  -17.7980  -30.1220   24.0260 C   0  0  0  0  0  3  0  0  0  0  0  0
  -16.6840  -29.3680   23.6170 C   0  0  0  0  0  3  0  0  0  0  0  0
  -16.8730  -28.1470   22.9480 C   0  0  0  0  0  3  0  0  0  0  0  0
  -26.0940  -32.0580   23.4600 C   0  0  0  0  0  3  0  0  0  0  0  0
  -25.8180  -33.4120   23.9560 N   0  0  0  0  0  0  0  0  0  0  0  0
  -26.1130  -34.5390   23.2920 C   0  0  0  0  0  0  0  0  0  0  0  0
  -26.7190  -34.5450   22.2180 O   0  0  0  0  0  0  0  0  0  0  0  0
  -25.2750  -33.4810   24.8030 H   0  0  0  0  0  0  0  0  0  0  0  0
  -24.3880  -36.3660   23.2200 C   0  0  0  0  0  1  0  0  0  0  0  0
  -25.6610  -35.8690   23.9220 C   0  0  0  0  0  3  0  0  0  0  0  0
  -27.8440  -36.6400   24.7390 C   0  0  0  0  0  1  0  0  0  0  0  0
  -26.6990  -36.9240   23.8790 N   0  0  0  0  0  0  0  0  0  0  0  0
  -26.3120  -37.8220   24.1540 H   0  0  0  0  0  0  0  0  0  0  0  0
  -26.7220  -31.1610   24.5960 C   0  0  1  0  0  0  0  0  0  0  0  0
  -25.7240  -30.7900   25.7160 C   0  0  0  0  0  1  0  0  0  0  0  0
  -27.2800  -29.8450   24.0060 C   0  0  0  0  0  1  0  0  0  0  0  0
  -27.9190  -31.8980   25.2450 C   0  0  0  0  0  1  0  0  0  0  0  0
  2  1  1  0
  3  5  2  0
  3  6  1  0
  4  8  1  0
  4  1  2  0
  5  4  1  0
  6  2  2  0
  7  5  1  0
  8  9  1  0
  9 11  1  0
  9 16  1  0
 10  8  2  0
 12 15  1  0
 13 15  2  0
 14 16  1  0
 14 17  2  0
 15 18  1  0
 16 12  2  0
 17 13  1  0
 19 28  1  0
 20 25  1  0
 21 22  1  0
 21 20  1  0
 23 22  1  0
 23 32  1  0
 23 24  1  0
 25 19  1  0
 25 24  1  0
 26 19  2  0
 28 17  1  0
 28 27  1  0
 29 30  2  0
 30 49  1  0
 31 30  1  0
 31 34  1  0
 32 33  1  0
 32 29  1  0
 33 31  2  0
 34 35  1  0
 35 36  2  0
 37 40  1  0
 37 36  1  0
 38 37  2  0
 39 38  1  0
 39 34  2  0
 40 41  1  0
 41 46  2  0
 41 42  1  0
 42 43  2  0
 43 44  1  0
 44 48  1  0
 45 44  2  0
 46 45  1  0
 47 46  1  0
 49 50  1  0
 50 53  1  0
 50 52  1  0
 51 49  2  0
 54 29  1  0
 54 55  1  0
 56 54  1  0
 57 59  2  0
 58  6  1  0
 58 57  1  0
 60 58  1  0
 61 57  1  0
 62 61  1  0
 62 63  1  0
 63 65  1  0
 64 75  2  0
 65 70  1  0
 66 74  1  0
 66 76  1  0
 67 73  1  0
 67 69  1  0
 68 74  1  0
 69 68  1  0
 70 69  2  0
 71 72  1  0
 71 65  2  0
 72 67  2  0
 73 66  1  0
 74 64  1  0
 76 78  2  0
 77 76  1  0
 79 77  1  0
 80 89  2  0
 80 85  1  0
 81 77  1  0
 81 85  1  0
 82 81  1  0
 83 84  1  0
 83 82  1  0
 84 80  1  0
 85 86  2  0
 86 87  1  0
 88 87  2  0
 89 88  1  0
 90 64  1  0
 90 91  1  0
 90100  1  0
 91 94  1  0
 92 96  1  0
 92 91  1  0
 93 92  2  0
 96 95  1  0
 98 96  1  0
 98 99  1  0
 98 97  1  0
100103  1  1
100101  1  0
102100  1  0
M  ISO  4  19 100  28 100  62 101  63 101
M  END
>  <TORSDO>  (66) 
F 21

>  <SCORE>  (66) 
-4.613

>  <name>  (66) 
65

>  <ligand_id>  (66) 
65

>  <original_smiles>  (66) 
[H]c1c([H])c([H])c2c(c1[H])C([H])([H])C([H])([H])C([H])([H])C2([H])N([H])C(=O)C1([H])N(C(=O)C([H])(N([H])C(=O)C([H])(N([H])C([H])([H])[H])C([H])([H])[H])C(C([H])([H])[H])(C([H])([H])[H])C([H])([H])[H])C([H])([H])c2c([H])c(OC([H])([H])C([H])([H])C(=O)N([H])c3c([H])c([H])c(C(=O)N([H])c4c([H])c(N(C(=O)N5C([H])([H])C([H])([H])C([H])([H])C([H])(n6nc(-c7c([H])c([H])c(Oc8c([H])c([H])c(F)c([H])c8F)c([H])c7[H])c(C(=O)N([H])[H])c6N([H])[H])C5([H])[H])C([H])([H])[H])c([H])c(C([H])([H])[H])c4[H])c(C([H])([H])[H])c3[H])c([H])c([H])c2C1([H])[H]

>  <smiles>  (66) 
[H]c1c([H])c([H])c2c(c1[H])C([H])([H])C([H])([H])C([H])([H])C2([H])N([H])C(=O)C1([H])N(C(=O)C([H])(N([H])C(=O)C([H])(N([H])C([H])([H])[H])C([H])([H])[H])C(C([H])([H])[H])(C([H])([H])[H])C([H])([H])[H])C([H])([H])c2c([H])c(OC([H])([H])C([H])([H])C(=O)N([H])c3c([H])c([H])c(C(=O)N([H])c4c([H])c(N(C(=O)N5C([H])([H])C([H])([H])C([H])([H])C([H])(n6nc(-c7c([H])c([H])c(Oc8c([H])c([H])c(F)c([H])c8F)c([H])c7[H])c(C(=O)N([H])[H])c6N([H])[H])C5([H])[H])C([H])([H])[H])c([H])c(C([H])([H])[H])c4[H])c(C([H])([H])[H])c3[H])c([H])c([H])c2C1([H])[H]

$$$$
66:0:0
     RDKit          3D

 96104  0  0  1  0  0  0  0  0999 V2000
  -31.9190  -21.8760   20.4570 C   0  0  0  0  0  1  0  0  0  0  0  0
  -30.3910  -21.9960   20.1700 C   0  0  1  0  0  0  0  0  0  0  0  0
  -29.6520  -20.6790   20.6630 C   0  0  0  0  0  0  0  0  0  0  0  0
  -28.6130  -20.7700   21.3270 O   0  0  0  0  0  0  0  0  0  0  0  0
  -29.7220  -18.1050   20.8910 C   0  0  0  0  0  3  0  0  0  0  0  0
  -31.0090  -19.0750   19.2220 C   0  0  0  0  0  3  0  0  0  0  0  0
  -30.1520  -19.3340   20.2650 C   0  0  0  0  0  0  0  0  0  0  0  0
  -30.2610  -16.9500   20.3580 C   0  0  0  0  0  0  0  0  0  0  0  0
  -31.2910  -17.3800   19.0010 S   0  0  0  0  0  0  0  0  0  0  0  0
  -30.7190  -14.5540   20.3770 C   0  0  0  0  0  0  0  0  0  0  0  0
  -30.4020  -12.3700   19.2940 C   0  0  0  0  0  2  0  0  0  0  0  0
  -29.4830  -12.5700   18.0700 C   0  0  0  0  0  2  0  0  0  0  0  0
  -28.0050  -12.4400   18.4890 C   0  0  0  0  0  2  0  0  0  0  0  0
  -27.6520  -13.2910   19.7380 C   0  0  0  0  0  3  0  0  0  0  0  0
  -28.7010  -13.1080   20.8610 C   0  0  0  0  0  2  0  0  0  0  0  0
  -30.0280  -13.3840   20.2950 N   0  0  0  0  0  0  0  0  0  0  0  0
  -31.8900  -14.6400   20.0000 O   0  0  0  0  0  0  0  0  0  0  0  0
  -30.0160  -15.6530   20.7420 N   0  0  0  0  0  0  0  0  0  0  0  0
  -29.1310  -15.4770   21.1940 H   0  0  0  0  0  0  0  0  0  0  0  0
  -25.2420  -13.8880   20.4190 C   0  0  0  0  0  0  0  0  0  0  0  0
  -24.1740  -13.1130   20.7850 C   0  0  0  0  0  0  0  0  0  0  0  0
  -24.6440  -11.7640   20.7770 C   0  0  0  0  0  0  0  0  0  0  0  0
  -26.2950  -13.0110   20.2090 N   0  0  0  0  0  0  0  0  0  0  0  0
  -25.9380  -11.7300   20.4820 N   0  0  0  0  0  0  0  0  0  0  0  0
  -23.9220  -10.5000   20.9740 C   0  0  0  0  0  0  0  0  0  0  0  0
  -24.3460   -9.5490   21.9290 C   0  0  0  0  0  3  0  0  0  0  0  0
  -23.6260   -8.3490   22.1140 C   0  0  0  0  0  3  0  0  0  0  0  0
  -22.4660   -8.0920   21.3440 C   0  0  0  0  0  0  0  0  0  0  0  0
  -22.0610   -9.0310   20.3790 C   0  0  0  0  0  3  0  0  0  0  0  0
  -22.7830  -10.2220   20.1920 C   0  0  0  0  0  3  0  0  0  0  0  0
  -21.7190   -6.9430   21.4370 O   0  0  0  0  0  0  0  0  0  0  0  0
  -21.6540   -6.2180   22.6000 C   0  0  0  0  0  0  0  0  0  0  0  0
  -21.1950   -6.7860   23.8080 C   0  0  0  0  0  3  0  0  0  0  0  0
  -21.0800   -5.9850   24.9610 C   0  0  0  0  0  3  0  0  0  0  0  0
  -21.4130   -4.6190   24.9090 C   0  0  0  0  0  0  0  0  0  0  0  0
  -21.8650   -4.0510   23.7050 C   0  0  0  0  0  3  0  0  0  0  0  0
  -21.9820   -4.8480   22.5530 C   0  0  0  0  0  0  0  0  0  0  0  0
  -22.3980   -4.2900   21.3900 F   0  0  0  0  0  0  0  0  0  0  0  0
  -21.2950   -3.8490   26.0160 F   0  0  0  0  0  0  0  0  0  0  0  0
  -22.7710  -13.5860   21.0350 C   0  0  0  0  0  0  0  0  0  0  0  0
  -22.0340  -12.8940   21.8980 N   0  0  0  0  0  0  0  0  0  0  0  0
  -22.3350  -14.6050   20.5030 O   0  0  0  0  0  0  0  0  0  0  0  0
  -22.4000  -12.0710   22.3530 H   0  0  0  0  0  0  0  0  0  0  0  0
  -21.0910  -13.1920   22.1050 H   0  0  0  0  0  0  0  0  0  0  0  0
  -25.4040  -15.2550   20.2240 N   0  0  0  0  0  0  0  0  0  0  0  0
  -24.6350  -15.9100   20.3120 H   0  0  0  0  0  0  0  0  0  0  0  0
  -26.2540  -15.6870   19.8830 H   0  0  0  0  0  0  0  0  0  0  0  0
  -29.9280  -23.2580   21.0040 C   0  0  0  0  0  0  0  0  0  0  0  0
  -29.8330  -23.1810   22.2360 O   0  0  0  0  0  0  0  0  0  0  0  0
  -29.7810  -24.6910   20.3900 C   0  0  0  0  0  2  0  0  0  0  0  0
  -27.2850  -24.5440   20.8750 C   0  0  0  0  0  1  0  0  0  0  0  0
  -28.1530  -24.9910   18.4500 C   0  0  0  0  0  1  0  0  0  0  0  0
  -28.3570  -25.2320   19.9710 C   0  0  2  0  0  0  0  0  0  0  0  0
  -28.3710  -26.6810   20.1810 O   0  0  0  0  0  0  0  0  0  0  0  0
  -24.6020  -31.9090   23.2640 C   0  0  0  0  0  0  0  0  0  0  0  0
  -27.2040  -27.4480   20.1340 C   0  0  0  0  0  0  0  0  0  0  0  0
  -23.3850  -30.5250   21.6210 C   0  0  0  0  0  3  0  0  0  0  0  0
  -24.8220  -29.0060   20.1710 C   0  0  0  0  0  0  0  0  0  0  0  0
  -25.9170  -30.8670   21.4160 C   0  0  0  0  0  2  0  0  0  0  0  0
  -25.9920  -29.5030   20.7580 C   0  0  0  0  0  0  0  0  0  0  0  0
  -27.1840  -28.7340   20.7360 C   0  0  0  0  0  3  0  0  0  0  0  0
  -26.0090  -27.0020   19.5190 C   0  0  0  0  0  3  0  0  0  0  0  0
  -24.8270  -27.7530   19.5490 C   0  0  0  0  0  3  0  0  0  0  0  0
  -23.5860  -29.8710   20.2320 C   0  0  0  0  0  2  0  0  0  0  0  0
  -24.6540  -31.1130   22.1580 N   0  0  0  0  0  0  0  0  0  0  0  0
  -23.5220  -32.1790   23.8080 O   0  0  0  0  0  0  0  0  0  0  0  0
  -22.7370  -29.4900   22.5710 C   0  0  0  0  0  0  0  0  0  0  0  0
  -21.4140  -29.3000   22.4380 N   0  0  0  0  0  0  0  0  0  0  0  0
  -23.4210  -28.8660   23.3860 O   0  0  0  0  0  0  0  0  0  0  0  0
  -20.9210  -29.8580   21.7540 H   0  0  0  0  0  0  0  0  0  0  0  0
  -18.0450  -28.0760   22.9120 C   0  0  0  0  0  0  0  0  0  0  0  0
  -20.5980  -28.3570   23.2040 C   0  0  0  0  0  3  0  0  0  0  0  0
  -20.7170  -26.9240   22.6320 C   0  0  0  0  0  2  0  0  0  0  0  0
  -19.6250  -26.5900   21.6110 C   0  0  0  0  0  2  0  0  0  0  0  0
  -18.2380  -26.7260   22.2430 C   0  0  0  0  0  2  0  0  0  0  0  0
  -19.1540  -28.8480   23.3500 C   0  0  0  0  0  0  0  0  0  0  0  0
  -18.9190  -30.1120   23.9340 C   0  0  0  0  0  3  0  0  0  0  0  0
  -17.6090  -30.6020   24.0870 C   0  0  0  0  0  3  0  0  0  0  0  0
  -16.5150  -29.8270   23.6660 C   0  0  0  0  0  3  0  0  0  0  0  0
  -16.7340  -28.5660   23.0830 C   0  0  0  0  0  3  0  0  0  0  0  0
  -25.8900  -32.5340   23.8810 C   0  0  0  0  0  3  0  0  0  0  0  0
  -25.5870  -33.9340   24.2050 N   0  0  0  0  0  0  0  0  0  0  0  0
  -25.9180  -34.9800   23.4380 C   0  0  0  0  0  0  0  0  0  0  0  0
  -26.5820  -34.8700   22.4040 O   0  0  0  0  0  0  0  0  0  0  0  0
  -24.9960  -34.0940   25.0070 H   0  0  0  0  0  0  0  0  0  0  0  0
  -24.1960  -36.7790   23.0770 C   0  0  0  0  0  1  0  0  0  0  0  0
  -25.4360  -36.3730   23.8890 C   0  0  0  0  0  3  0  0  0  0  0  0
  -27.5760  -37.2520   24.7140 C   0  0  0  0  0  1  0  0  0  0  0  0
  -26.4740  -37.4200   23.7700 N   0  0  0  0  0  0  0  0  0  0  0  0
  -26.0730  -38.3430   23.9120 H   0  0  0  0  0  0  0  0  0  0  0  0
  -26.4030  -31.7620   25.1570 C   0  0  1  0  0  0  0  0  0  0  0  0
  -25.3100  -31.5310   26.2260 C   0  0  0  0  0  1  0  0  0  0  0  0
  -26.9790  -30.3810   24.7650 C   0  0  0  0  0  1  0  0  0  0  0  0
  -27.5570  -32.5520   25.8170 C   0  0  0  0  0  1  0  0  0  0  0  0
  -31.1590  -22.7950   17.7510 C   0  0  0  0  0  1  0  0  0  0  0  0
  -30.0750  -22.1560   18.6450 C   0  0  0  0  0  2  0  0  0  0  0  0
  2  1  1  6
  2  3  1  0
  2 48  1  0
  3  4  2  0
  6  7  2  0
  7  3  1  0
  7  5  1  0
  8 18  1  0
  8  5  2  0
  9  6  1  0
  9  8  1  0
 10 18  1  0
 11 16  1  0
 12 13  1  0
 12 11  1  0
 14 13  1  0
 14 23  1  0
 14 15  1  0
 16 10  1  0
 16 15  1  0
 17 10  2  0
 18 19  1  0
 20 21  2  0
 21 40  1  0
 22 21  1  0
 22 25  1  0
 23 20  1  0
 23 24  1  0
 24 22  2  0
 25 26  1  0
 26 27  2  0
 28 31  1  0
 28 27  1  0
 29 28  2  0
 30 29  1  0
 30 25  2  0
 31 32  1  0
 32 33  1  0
 33 34  2  0
 35 34  1  0
 35 39  1  0
 36 35  2  0
 37 32  2  0
 37 36  1  0
 38 37  1  0
 40 41  1  0
 41 44  1  0
 41 43  1  0
 42 40  2  0
 45 46  1  0
 45 20  1  0
 47 45  1  0
 48 49  2  0
 50 48  1  0
 53 52  1  6
 53 54  1  0
 53 50  1  0
 53 51  1  0
 55 66  2  0
 56 54  1  0
 56 61  1  0
 57 65  1  0
 57 67  1  0
 58 64  1  0
 58 60  1  0
 59 65  1  0
 60 59  1  0
 61 60  2  0
 62 63  1  0
 62 56  2  0
 63 58  2  0
 64 57  1  0
 65 55  1  0
 67 69  2  0
 68 67  1  0
 70 68  1  0
 71 80  2  0
 71 76  1  0
 72 68  1  0
 72 76  1  0
 73 72  1  0
 74 75  1  0
 74 73  1  0
 75 71  1  0
 76 77  2  0
 77 78  1  0
 79 78  2  0
 80 79  1  0
 81 55  1  0
 81 82  1  0
 81 91  1  0
 82 85  1  0
 83 87  1  0
 83 82  1  0
 84 83  2  0
 87 86  1  0
 89 87  1  0
 89 90  1  0
 89 88  1  0
 91 94  1  1
 91 92  1  0
 93 91  1  0
 95 96  1  0
 96  2  1  0
M  ISO  4  10 100  18 100  53 101  54 101
M  END
>  <TORSDO>  (67) 
F 22

>  <SCORE>  (67) 
-13.459

>  <name>  (67) 
66

>  <ligand_id>  (67) 
66

>  <original_smiles>  (67) 
[H]c1sc(N([H])C(=O)N2C([H])([H])C([H])([H])C([H])([H])C([H])(n3nc(-c4c([H])c([H])c(Oc5c([H])c([H])c(F)c([H])c5F)c([H])c4[H])c(C(=O)N([H])[H])c3N([H])[H])C2([H])[H])c([H])c1C(=O)C(C(=O)C([H])([H])C(Oc1c([H])c([H])c2c(c1[H])C([H])([H])N(C(=O)C([H])(N([H])C(=O)C([H])(N([H])C([H])([H])[H])C([H])([H])[H])C(C([H])([H])[H])(C([H])([H])[H])C([H])([H])[H])C([H])(C(=O)N([H])C1([H])c3c([H])c([H])c([H])c([H])c3C([H])([H])C([H])([H])C1([H])[H])C2([H])[H])(C([H])([H])[H])C([H])([H])[H])(C([H])([H])[H])C([H])([H])C([H])([H])[H]

>  <smiles>  (67) 
[H]c1sc(N([H])C(=O)N2C([H])([H])C([H])([H])C([H])([H])C([H])(n3nc(-c4c([H])c([H])c(Oc5c([H])c([H])c(F)c([H])c5F)c([H])c4[H])c(C(=O)N([H])[H])c3N([H])[H])C2([H])[H])c([H])c1C(=O)C(C(=O)C([H])([H])C(Oc1c([H])c([H])c2c(c1[H])C([H])([H])N(C(=O)C([H])(N([H])C(=O)C([H])(N([H])C([H])([H])[H])C([H])([H])[H])C(C([H])([H])[H])(C([H])([H])[H])C([H])([H])[H])C([H])(C(=O)N([H])C1([H])c3c([H])c([H])c([H])c([H])c3C([H])([H])C([H])([H])C1([H])[H])C2([H])[H])(C([H])([H])[H])C([H])([H])[H])(C([H])([H])[H])C([H])([H])C([H])([H])[H]

$$$$
67:0:0
     RDKit          3D

 96105  0  0  1  0  0  0  0  0999 V2000
  -28.6310  -24.4140   20.1200 C   0  0  0  0  0  0  0  0  0  0  0  0
  -28.4140  -25.4470   19.2550 C   0  0  0  0  0  3  0  0  0  0  0  0
  -29.5760  -20.9400   21.3810 C   0  0  0  0  0  3  0  0  0  0  0  0
  -28.6310  -24.5620   21.6150 C   0  0  0  0  0  2  0  0  0  0  0  0
  -28.9490  -22.9360   19.7740 C   0  0  0  0  0  2  0  0  0  0  0  0
  -28.6850  -23.1360   22.1750 C   0  0  0  0  0  2  0  0  0  0  0  0
  -29.1150  -22.2170   21.0850 N   0  0  0  0  0  0  0  0  0  0  0  0
  -29.4910  -20.5690   22.6580 N   0  0  0  0  0  0  0  0  0  0  0  0
  -29.8930  -19.6860   22.9320 H   0  0  0  0  0  0  0  0  0  0  0  0
  -29.0500  -21.1330   23.3630 H   0  0  0  0  0  0  0  0  0  0  0  0
  -29.9820  -18.5010   20.6820 C   0  0  0  0  0  3  0  0  0  0  0  0
  -31.2270  -20.2890   19.5900 C   0  0  0  0  0  3  0  0  0  0  0  0
  -31.7210  -17.9410   19.0870 C   0  0  0  0  0  3  0  0  0  0  0  0
  -30.2200  -19.9100   20.4990 C   0  0  0  0  0  0  0  0  0  0  0  0
  -30.7500  -17.4880   20.0170 C   0  0  0  0  0  0  0  0  0  0  0  0
  -31.9530  -19.3170   18.8790 C   0  0  0  0  0  0  0  0  0  0  0  0
  -32.9080  -19.7100   18.0030 F   0  0  0  0  0  0  0  0  0  0  0  0
  -31.2780  -14.9730   19.9700 C   0  0  0  0  0  0  0  0  0  0  0  0
  -31.0040  -12.7270   18.9680 C   0  0  0  0  0  2  0  0  0  0  0  0
  -30.0310  -12.8480   17.7740 C   0  0  0  0  0  2  0  0  0  0  0  0
  -28.5710  -12.7090   18.2480 C   0  0  0  0  0  2  0  0  0  0  0  0
  -28.2500  -13.5910   19.4840 C   0  0  0  0  0  3  0  0  0  0  0  0
  -29.3410  -13.4600   20.5720 C   0  0  0  0  0  2  0  0  0  0  0  0
  -30.6340  -13.7660   19.9470 N   0  0  0  0  0  0  0  0  0  0  0  0
  -32.4380  -15.0750   19.5660 O   0  0  0  0  0  0  0  0  0  0  0  0
  -30.5200  -16.0680   20.2870 N   0  0  0  0  0  0  0  0  0  0  0  0
  -29.6240  -15.8400   20.6920 H   0  0  0  0  0  0  0  0  0  0  0  0
  -25.8920  -14.2020   20.2970 C   0  0  0  0  0  0  0  0  0  0  0  0
  -24.8320  -13.4330   20.6950 C   0  0  0  0  0  0  0  0  0  0  0  0
  -25.2800  -12.0780   20.6310 C   0  0  0  0  0  0  0  0  0  0  0  0
  -26.9180  -13.3150   20.0130 N   0  0  0  0  0  0  0  0  0  0  0  0
  -26.5580  -12.0320   20.2750 N   0  0  0  0  0  0  0  0  0  0  0  0
  -24.5500  -10.8200   20.8310 C   0  0  0  0  0  0  0  0  0  0  0  0
  -24.9300   -9.8980   21.8310 C   0  0  0  0  0  3  0  0  0  0  0  0
  -24.2000   -8.7030   22.0170 C   0  0  0  0  0  3  0  0  0  0  0  0
  -23.0770   -8.4230   21.2020 C   0  0  0  0  0  0  0  0  0  0  0  0
  -22.7170   -9.3340   20.1950 C   0  0  0  0  0  3  0  0  0  0  0  0
  -23.4470  -10.5200   20.0070 C   0  0  0  0  0  3  0  0  0  0  0  0
  -22.3240   -7.2770   21.2940 O   0  0  0  0  0  0  0  0  0  0  0  0
  -22.0850   -6.6670   22.4990 C   0  0  0  0  0  0  0  0  0  0  0  0
  -21.4330   -7.3390   23.5570 C   0  0  0  0  0  3  0  0  0  0  0  0
  -21.1440   -6.6530   24.7540 C   0  0  0  0  0  3  0  0  0  0  0  0
  -21.4950   -5.2970   24.8910 C   0  0  0  0  0  0  0  0  0  0  0  0
  -22.1390   -4.6260   23.8370 C   0  0  0  0  0  3  0  0  0  0  0  0
  -22.4300   -5.3090   22.6430 C   0  0  0  0  0  0  0  0  0  0  0  0
  -23.0310   -4.6510   21.6220 F   0  0  0  0  0  0  0  0  0  0  0  0
  -21.2120   -4.6360   26.0370 F   0  0  0  0  0  0  0  0  0  0  0  0
  -23.4490  -13.9180   21.0230 C   0  0  0  0  0  0  0  0  0  0  0  0
  -22.7540  -13.2280   21.9190 N   0  0  0  0  0  0  0  0  0  0  0  0
  -22.9970  -14.9450   20.5180 O   0  0  0  0  0  0  0  0  0  0  0  0
  -23.1360  -12.3980   22.3500 H   0  0  0  0  0  0  0  0  0  0  0  0
  -21.8270  -13.5350   22.1800 H   0  0  0  0  0  0  0  0  0  0  0  0
  -26.0600  -15.5720   20.1300 N   0  0  0  0  0  0  0  0  0  0  0  0
  -25.2920  -16.2230   20.2570 H   0  0  0  0  0  0  0  0  0  0  0  0
  -26.8800  -16.0060   19.7250 H   0  0  0  0  0  0  0  0  0  0  0  0
  -28.3590  -26.8020   19.5950 O   0  0  0  0  0  0  0  0  0  0  0  0
  -24.5860  -31.7700   23.1070 C   0  0  0  0  0  0  0  0  0  0  0  0
  -27.1770  -27.5360   19.6400 C   0  0  0  0  0  0  0  0  0  0  0  0
  -23.3410  -30.4420   21.4350 C   0  0  0  0  0  3  0  0  0  0  0  0
  -24.7600  -29.0290   19.8470 C   0  0  0  0  0  0  0  0  0  0  0  0
  -25.8510  -30.8610   21.1520 C   0  0  0  0  0  2  0  0  0  0  0  0
  -25.9350  -29.5300   20.4180 C   0  0  0  0  0  0  0  0  0  0  0  0
  -27.1420  -28.7910   20.3100 C   0  0  0  0  0  3  0  0  0  0  0  0
  -25.9800  -27.0670   19.0560 C   0  0  0  0  0  3  0  0  0  0  0  0
  -24.7800  -27.8010   19.1610 C   0  0  0  0  0  3  0  0  0  0  0  0
  -23.5040  -29.8600   20.0060 C   0  0  0  0  0  2  0  0  0  0  0  0
  -24.6140  -31.0380   21.9550 N   0  0  0  0  0  0  0  0  0  0  0  0
  -23.5230  -31.9820   23.7100 O   0  0  0  0  0  0  0  0  0  0  0  0
  -22.7550  -29.3490   22.3580 C   0  0  0  0  0  0  0  0  0  0  0  0
  -21.4380  -29.1050   22.2420 N   0  0  0  0  0  0  0  0  0  0  0  0
  -23.4810  -28.7230   23.1350 O   0  0  0  0  0  0  0  0  0  0  0  0
  -20.9080  -29.6620   21.5860 H   0  0  0  0  0  0  0  0  0  0  0  0
  -18.1510  -27.6740   22.6940 C   0  0  0  0  0  0  0  0  0  0  0  0
  -20.6860  -28.0930   22.9820 C   0  0  0  0  0  3  0  0  0  0  0  0
  -20.8830  -26.6900   22.3620 C   0  0  0  0  0  2  0  0  0  0  0  0
  -19.8060  -26.3280   21.3340 C   0  0  0  0  0  2  0  0  0  0  0  0
  -18.4170  -26.3610   21.9760 C   0  0  0  0  0  2  0  0  0  0  0  0
  -19.2150  -28.4940   23.1520 C   0  0  0  0  0  0  0  0  0  0  0  0
  -18.9120  -29.7210   23.7820 C   0  0  0  0  0  3  0  0  0  0  0  0
  -17.5770  -30.1280   23.9590 C   0  0  0  0  0  3  0  0  0  0  0  0
  -16.5270  -29.3060   23.5150 C   0  0  0  0  0  3  0  0  0  0  0  0
  -16.8140  -28.0800   22.8880 C   0  0  0  0  0  3  0  0  0  0  0  0
  -25.8830  -32.3970   23.7090 C   0  0  0  0  0  3  0  0  0  0  0  0
  -25.5570  -33.7630   24.1390 N   0  0  0  0  0  0  0  0  0  0  0  0
  -25.8290  -34.8690   23.4320 C   0  0  0  0  0  0  0  0  0  0  0  0
  -26.4530  -34.8440   22.3670 O   0  0  0  0  0  0  0  0  0  0  0  0
  -24.9970  -33.8530   24.9730 H   0  0  0  0  0  0  0  0  0  0  0  0
  -24.0370  -36.6250   23.2730 C   0  0  0  0  0  1  0  0  0  0  0  0
  -25.3310  -36.2130   23.9950 C   0  0  0  0  0  3  0  0  0  0  0  0
  -27.4780  -37.1140   24.7730 C   0  0  0  0  0  1  0  0  0  0  0  0
  -26.3280  -37.3010   23.8920 N   0  0  0  0  0  0  0  0  0  0  0  0
  -25.9040  -38.1990   24.1080 H   0  0  0  0  0  0  0  0  0  0  0  0
  -26.4750  -31.5640   24.9120 C   0  0  1  0  0  0  0  0  0  0  0  0
  -25.4390  -31.2390   26.0120 C   0  0  0  0  0  1  0  0  0  0  0  0
  -27.0660  -30.2260   24.4100 C   0  0  0  0  0  1  0  0  0  0  0  0
  -27.6400  -32.3440   25.5650 C   0  0  0  0  0  1  0  0  0  0  0  0
  1  4  1  0
  2 56  1  0
  2  1  2  0
  3  8  1  0
  4  6  1  0
  5  1  1  0
  5  7  1  0
  7  3  1  0
  7  6  1  0
  8  9  1  0
  8 10  1  0
 12 14  2  0
 13 15  1  0
 14 11  1  0
 14  3  1  0
 15 26  1  0
 15 11  2  0
 16 13  2  0
 16 12  1  0
 17 16  1  0
 18 26  1  0
 19 24  1  0
 20 21  1  0
 20 19  1  0
 22 21  1  0
 22 31  1  0
 22 23  1  0
 24 18  1  0
 24 23  1  0
 25 18  2  0
 26 27  1  0
 28 29  2  0
 29 48  1  0
 30 29  1  0
 30 33  1  0
 31 32  1  0
 31 28  1  0
 32 30  2  0
 33 34  1  0
 34 35  2  0
 36 39  1  0
 36 35  1  0
 37 36  2  0
 38 37  1  0
 38 33  2  0
 39 40  1  0
 40 45  2  0
 40 41  1  0
 41 42  2  0
 42 43  1  0
 43 47  1  0
 44 43  2  0
 45 44  1  0
 46 45  1  0
 48 49  1  0
 49 52  1  0
 49 51  1  0
 50 48  2  0
 53 54  1  0
 53 28  1  0
 55 53  1  0
 56 58  1  0
 57 68  2  0
 58 63  1  0
 59 67  1  0
 59 69  1  0
 60 66  1  0
 60 62  1  0
 61 67  1  0
 62 61  1  0
 63 62  2  0
 64 65  1  0
 64 58  2  0
 65 60  2  0
 66 59  1  0
 67 57  1  0
 69 71  2  0
 70 69  1  0
 72 70  1  0
 73 82  2  0
 73 78  1  0
 74 70  1  0
 74 78  1  0
 75 74  1  0
 76 77  1  0
 76 75  1  0
 77 73  1  0
 78 79  2  0
 79 80  1  0
 81 80  2  0
 82 81  1  0
 83 57  1  0
 83 84  1  0
 83 93  1  0
 84 87  1  0
 85 89  1  0
 85 84  1  0
 86 85  2  0
 89 88  1  0
 91 89  1  0
 91 92  1  0
 91 90  1  0
 93 96  1  1
 93 94  1  0
 95 93  1  0
M  ISO  4   2 101  18 100  26 100  56 101
M  END
>  <TORSDO>  (68) 
F 17

>  <SCORE>  (68) 
-13.573

>  <name>  (68) 
67

>  <ligand_id>  (68) 
67

>  <original_smiles>  (68) 
[H]C(Oc1c([H])c([H])c2c(c1[H])C([H])([H])N(C(=O)C([H])(N([H])C(=O)C([H])(N([H])C([H])([H])[H])C([H])([H])[H])C(C([H])([H])[H])(C([H])([H])[H])C([H])([H])[H])C([H])(C(=O)N([H])C1([H])c3c([H])c([H])c([H])c([H])c3C([H])([H])C([H])([H])C1([H])[H])C2([H])[H])=C1C([H])([H])N(C(c2c([H])c(F)c([H])c(N([H])C(=O)N3C([H])([H])C([H])([H])C([H])([H])C([H])(n4nc(-c5c([H])c([H])c(Oc6c([H])c([H])c(F)c([H])c6F)c([H])c5[H])c(C(=O)N([H])[H])c4N([H])[H])C3([H])[H])c2[H])=[N+]([H])[H])C([H])([H])C1([H])[H]

>  <smiles>  (68) 
[H]C(Oc1c([H])c([H])c2c(c1[H])C([H])([H])N(C(=O)C([H])(N([H])C(=O)C([H])(N([H])C([H])([H])[H])C([H])([H])[H])C(C([H])([H])[H])(C([H])([H])[H])C([H])([H])[H])C([H])(C(=O)N([H])C1([H])c3c([H])c([H])c([H])c([H])c3C([H])([H])C([H])([H])C1([H])[H])C2([H])[H])=C1C([H])([H])N(C(c2c([H])c(F)c([H])c(N([H])C(=O)N3C([H])([H])C([H])([H])C([H])([H])C([H])(n4nc(-c5c([H])c([H])c(Oc6c([H])c([H])c(F)c([H])c6F)c([H])c5[H])c(C(=O)N([H])[H])c4N([H])[H])C3([H])[H])c2[H])=[N+]([H])[H])C([H])([H])C1([H])[H]

$$$$
68:0:0
     RDKit          3D

 96104  0  0  1  0  0  0  0  0999 V2000
  -27.5240  -21.9520   21.1840 C   0  0  0  0  0  2  0  0  0  0  0  0
  -25.6680  -23.6440   21.0700 C   0  0  0  0  0  1  0  0  0  0  0  0
  -26.8940  -23.0210   18.9670 C   0  0  0  0  0  1  0  0  0  0  0  0
  -27.0550  -23.2720   20.4850 C   0  0  2  0  0  0  0  0  0  0  0  0
  -28.0110  -24.4600   20.8040 C   0  0  0  0  0  0  0  0  0  0  0  0
  -28.3980  -24.6580   21.9610 O   0  0  0  0  0  0  0  0  0  0  0  0
  -28.4350  -25.4350   19.6790 C   0  0  0  0  0  2  0  0  0  0  0  0
  -28.4030  -26.8030   20.1170 O   0  0  0  0  0  0  0  0  0  0  0  0
  -24.5780  -31.9110   23.2250 C   0  0  0  0  0  0  0  0  0  0  0  0
  -27.2030  -27.4900   20.1100 C   0  0  0  0  0  0  0  0  0  0  0  0
  -23.3520  -30.5110   21.5910 C   0  0  0  0  0  3  0  0  0  0  0  0
  -24.7940  -28.9780   20.1560 C   0  0  0  0  0  0  0  0  0  0  0  0
  -25.8750  -30.8750   21.3690 C   0  0  0  0  0  2  0  0  0  0  0  0
  -25.9550  -29.5070   20.7310 C   0  0  0  0  0  0  0  0  0  0  0  0
  -27.1600  -28.7670   20.7080 C   0  0  0  0  0  3  0  0  0  0  0  0
  -26.0190  -26.9780   19.5240 C   0  0  0  0  0  3  0  0  0  0  0  0
  -24.8190  -27.7100   19.5540 C   0  0  0  0  0  3  0  0  0  0  0  0
  -23.5470  -29.8270   20.2130 C   0  0  0  0  0  2  0  0  0  0  0  0
  -24.6190  -31.1140   22.1200 N   0  0  0  0  0  0  0  0  0  0  0  0
  -23.5020  -32.1790   23.7780 O   0  0  0  0  0  0  0  0  0  0  0  0
  -22.7130  -29.4880   22.5570 C   0  0  0  0  0  0  0  0  0  0  0  0
  -21.3900  -29.2980   22.4370 N   0  0  0  0  0  0  0  0  0  0  0  0
  -23.4100  -28.8670   23.3650 O   0  0  0  0  0  0  0  0  0  0  0  0
  -20.8880  -29.8600   21.7620 H   0  0  0  0  0  0  0  0  0  0  0  0
  -18.0250  -28.0870   22.9370 C   0  0  0  0  0  0  0  0  0  0  0  0
  -20.5820  -28.3550   23.2110 C   0  0  0  0  0  3  0  0  0  0  0  0
  -20.6940  -26.9230   22.6400 C   0  0  0  0  0  2  0  0  0  0  0  0
  -19.5930  -26.5910   21.6270 C   0  0  0  0  0  2  0  0  0  0  0  0
  -18.2070  -26.7380   22.2630 C   0  0  0  0  0  2  0  0  0  0  0  0
  -19.1430  -28.8500   23.3700 C   0  0  0  0  0  0  0  0  0  0  0  0
  -18.9210  -30.1100   23.9630 C   0  0  0  0  0  3  0  0  0  0  0  0
  -17.6170  -30.6090   24.1260 C   0  0  0  0  0  3  0  0  0  0  0  0
  -16.5160  -29.8440   23.7080 C   0  0  0  0  0  3  0  0  0  0  0  0
  -16.7190  -28.5830   23.1210 C   0  0  0  0  0  3  0  0  0  0  0  0
  -25.8710  -32.5390   23.8340 C   0  0  0  0  0  3  0  0  0  0  0  0
  -25.5670  -33.9360   24.1700 N   0  0  0  0  0  0  0  0  0  0  0  0
  -25.8940  -34.9910   23.4090 C   0  0  0  0  0  0  0  0  0  0  0  0
  -26.5600  -34.8910   22.3760 O   0  0  0  0  0  0  0  0  0  0  0  0
  -24.9800  -34.0890   24.9770 H   0  0  0  0  0  0  0  0  0  0  0  0
  -24.1690  -36.7860   23.0690 C   0  0  0  0  0  1  0  0  0  0  0  0
  -25.4110  -36.3770   23.8740 C   0  0  0  0  0  3  0  0  0  0  0  0
  -27.5490  -37.2580   24.7010 C   0  0  0  0  0  1  0  0  0  0  0  0
  -26.4450  -37.4280   23.7590 N   0  0  0  0  0  0  0  0  0  0  0  0
  -26.0410  -38.3490   23.9090 H   0  0  0  0  0  0  0  0  0  0  0  0
  -26.4050  -31.7630   25.1010 C   0  0  1  0  0  0  0  0  0  0  0  0
  -25.3250  -31.5190   26.1810 C   0  0  0  0  0  1  0  0  0  0  0  0
  -26.9870  -30.3880   24.6950 C   0  0  0  0  0  1  0  0  0  0  0  0
  -27.5600  -32.5570   25.7550 C   0  0  0  0  0  1  0  0  0  0  0  0
  -28.7020  -21.3520   20.6170 O   0  0  0  0  0  0  0  0  0  0  0  0
  -28.5740  -20.0700   20.1260 C   0  0  0  0  0  0  0  0  0  0  0  0
  -27.7270  -19.7910   19.2290 N   0  0  0  0  0  0  0  0  0  0  0  0
  -27.7740  -18.8200   18.9500 H   0  0  0  0  0  0  0  0  0  0  0  0
  -31.5660  -18.6640   22.0560 C   0  0  0  0  0  3  0  0  0  0  0  0
  -30.6490  -19.5680   21.4800 C   0  0  0  0  0  3  0  0  0  0  0  0
  -31.4000  -17.2750   21.8810 C   0  0  0  0  0  3  0  0  0  0  0  0
  -29.3810  -17.7000   20.5770 C   0  0  0  0  0  3  0  0  0  0  0  0
  -29.5400  -19.1020   20.7330 C   0  0  0  0  0  0  0  0  0  0  0  0
  -30.3160  -16.7850   21.1190 C   0  0  0  0  0  0  0  0  0  0  0  0
  -30.6890  -14.5090   20.1780 C   0  0  0  0  0  0  0  0  0  0  0  0
  -30.3380  -12.3980   18.9260 C   0  0  0  0  0  2  0  0  0  0  0  0
  -29.3240  -12.6080   17.7800 C   0  0  0  0  0  2  0  0  0  0  0  0
  -27.8710  -12.4760   18.2830 C   0  0  0  0  0  2  0  0  0  0  0  0
  -27.6110  -13.2810   19.5800 C   0  0  0  0  0  3  0  0  0  0  0  0
  -28.7140  -13.0060   20.6260 C   0  0  0  0  0  2  0  0  0  0  0  0
  -30.0150  -13.3390   20.0110 N   0  0  0  0  0  0  0  0  0  0  0  0
  -31.7480  -14.7670   19.5890 O   0  0  0  0  0  0  0  0  0  0  0  0
  -30.0870  -15.3840   21.0040 N   0  0  0  0  0  0  0  0  0  0  0  0
  -29.2200  -15.0440   21.3950 H   0  0  0  0  0  0  0  0  0  0  0  0
  -25.2430  -13.8960   20.3870 C   0  0  0  0  0  0  0  0  0  0  0  0
  -24.1930  -13.1280   20.8060 C   0  0  0  0  0  0  0  0  0  0  0  0
  -24.6440  -11.7750   20.7440 C   0  0  0  0  0  0  0  0  0  0  0  0
  -26.2770  -13.0130   20.1100 N   0  0  0  0  0  0  0  0  0  0  0  0
  -25.9190  -11.7300   20.3750 N   0  0  0  0  0  0  0  0  0  0  0  0
  -23.9170  -10.5160   20.9570 C   0  0  0  0  0  0  0  0  0  0  0  0
  -24.3730   -9.5510   21.8810 C   0  0  0  0  0  3  0  0  0  0  0  0
  -23.6510   -8.3550   22.0830 C   0  0  0  0  0  3  0  0  0  0  0  0
  -22.4590   -8.1160   21.3590 C   0  0  0  0  0  0  0  0  0  0  0  0
  -22.0210   -9.0700   20.4210 C   0  0  0  0  0  3  0  0  0  0  0  0
  -22.7430  -10.2570   20.2180 C   0  0  0  0  0  3  0  0  0  0  0  0
  -21.7040   -6.9740   21.4710 O   0  0  0  0  0  0  0  0  0  0  0  0
  -21.6630   -6.2480   22.6330 C   0  0  0  0  0  0  0  0  0  0  0  0
  -21.2550   -6.8200   23.8570 C   0  0  0  0  0  3  0  0  0  0  0  0
  -21.1620   -6.0180   25.0130 C   0  0  0  0  0  3  0  0  0  0  0  0
  -21.4710   -4.6460   24.9450 C   0  0  0  0  0  0  0  0  0  0  0  0
  -21.8720   -4.0740   23.7260 C   0  0  0  0  0  3  0  0  0  0  0  0
  -21.9660   -4.8720   22.5730 C   0  0  0  0  0  0  0  0  0  0  0  0
  -22.3320   -4.3100   21.3950 F   0  0  0  0  0  0  0  0  0  0  0  0
  -21.3730   -3.8740   26.0530 F   0  0  0  0  0  0  0  0  0  0  0  0
  -22.8130  -13.6120   21.1500 C   0  0  0  0  0  0  0  0  0  0  0  0
  -22.1190  -12.9150   22.0420 N   0  0  0  0  0  0  0  0  0  0  0  0
  -22.3570  -14.6450   20.6610 O   0  0  0  0  0  0  0  0  0  0  0  0
  -22.4990  -12.0870   22.4760 H   0  0  0  0  0  0  0  0  0  0  0  0
  -21.1900  -13.2200   22.2960 H   0  0  0  0  0  0  0  0  0  0  0  0
  -25.4000  -15.2680   20.2050 N   0  0  0  0  0  0  0  0  0  0  0  0
  -24.6200  -15.9060   20.3270 H   0  0  0  0  0  0  0  0  0  0  0  0
  -26.2160  -15.7110   19.8050 H   0  0  0  0  0  0  0  0  0  0  0  0
  4  3  1  6
  4  5  1  0
  4  2  1  0
  4  1  1  0
  5  6  2  0
  7  8  1  0
  7  5  1  0
  9 20  2  0
 10  8  1  0
 10 15  1  0
 11 19  1  0
 11 21  1  0
 12 18  1  0
 12 14  1  0
 13 19  1  0
 14 13  1  0
 15 14  2  0
 16 17  1  0
 16 10  2  0
 17 12  2  0
 18 11  1  0
 19  9  1  0
 21 23  2  0
 22 21  1  0
 24 22  1  0
 25 34  2  0
 25 30  1  0
 26 22  1  0
 26 30  1  0
 27 26  1  0
 28 29  1  0
 28 27  1  0
 29 25  1  0
 30 31  2  0
 31 32  1  0
 33 32  2  0
 34 33  1  0
 35  9  1  0
 35 36  1  0
 35 45  1  0
 36 39  1  0
 37 41  1  0
 37 36  1  0
 38 37  2  0
 41 40  1  0
 43 41  1  0
 43 44  1  0
 43 42  1  0
 45 48  1  1
 45 46  1  0
 47 45  1  0
 49  1  1  0
 50 49  1  0
 50 57  1  0
 51 50  2  0
 52 51  1  0
 54 53  2  0
 55 53  1  0
 56 57  2  0
 56 58  1  0
 57 54  1  0
 58 55  2  0
 59 67  1  0
 60 65  1  0
 61 62  1  0
 61 60  1  0
 63 62  1  0
 63 72  1  0
 63 64  1  0
 65 59  1  0
 65 64  1  0
 66 59  2  0
 67 58  1  0
 67 68  1  0
 69 70  2  0
 70 89  1  0
 71 70  1  0
 71 74  1  0
 72 73  1  0
 72 69  1  0
 73 71  2  0
 74 75  1  0
 75 76  2  0
 77 80  1  0
 77 76  1  0
 78 77  2  0
 79 78  1  0
 79 74  2  0
 80 81  1  0
 81 82  1  0
 82 83  2  0
 84 83  1  0
 84 88  1  0
 85 84  2  0
 86 81  2  0
 86 85  1  0
 87 86  1  0
 89 90  1  0
 90 93  1  0
 90 92  1  0
 91 89  2  0
 94 95  1  0
 94 69  1  0
 96 94  1  0
M  ISO  4   7 101   8 101  59 100  67 100
M  END
>  <TORSDO>  (69) 
F 22

>  <SCORE>  (69) 
-13.351

>  <name>  (69) 
68

>  <ligand_id>  (69) 
68

>  <original_smiles>  (69) 
[H]N=C(OC([H])([H])C(C(=O)C([H])([H])Oc1c([H])c([H])c2c(c1[H])C([H])([H])N(C(=O)C([H])(N([H])C(=O)C([H])(N([H])C([H])([H])[H])C([H])([H])[H])C(C([H])([H])[H])(C([H])([H])[H])C([H])([H])[H])C([H])(C(=O)N([H])C1([H])c3c([H])c([H])c([H])c([H])c3C([H])([H])C([H])([H])C1([H])[H])C2([H])[H])(C([H])([H])[H])C([H])([H])[H])c1c([H])c([H])c([H])c(N([H])C(=O)N2C([H])([H])C([H])([H])C([H])([H])C([H])(n3nc(-c4c([H])c([H])c(Oc5c([H])c([H])c(F)c([H])c5F)c([H])c4[H])c(C(=O)N([H])[H])c3N([H])[H])C2([H])[H])c1[H]

>  <smiles>  (69) 
[H]N=C(OC([H])([H])C(C(=O)C([H])([H])Oc1c([H])c([H])c2c(c1[H])C([H])([H])N(C(=O)C([H])(N([H])C(=O)C([H])(N([H])C([H])([H])[H])C([H])([H])[H])C(C([H])([H])[H])(C([H])([H])[H])C([H])([H])[H])C([H])(C(=O)N([H])C1([H])c3c([H])c([H])c([H])c([H])c3C([H])([H])C([H])([H])C1([H])[H])C2([H])[H])(C([H])([H])[H])C([H])([H])[H])c1c([H])c([H])c([H])c(N([H])C(=O)N2C([H])([H])C([H])([H])C([H])([H])C([H])(n3nc(-c4c([H])c([H])c(Oc5c([H])c([H])c(F)c([H])c5F)c([H])c4[H])c(C(=O)N([H])[H])c3N([H])[H])C2([H])[H])c1[H]

$$$$
69:0:0
     RDKit          3D

 94103  0  0  1  0  0  0  0  0999 V2000
  -31.1510  -21.3380   18.9900 C   0  0  0  0  0  2  0  0  0  0  0  0
  -29.7780  -21.9950   18.8400 C   0  0  0  0  0  2  0  0  0  0  0  0
  -31.1930  -21.9910   20.3670 C   0  0  0  0  0  2  0  0  0  0  0  0
  -29.6410  -21.9780   20.3880 C   0  0  1  0  0  0  0  0  0  0  0  0
  -29.0950  -23.3000   20.9900 C   0  0  0  0  0  0  0  0  0  0  0  0
  -29.4990  -23.7880   22.0490 O   0  0  0  0  0  0  0  0  0  0  0  0
  -28.0140  -24.1010   20.2130 C   0  0  0  0  0  2  0  0  0  0  0  0
  -28.5140  -25.3900   19.4690 C   0  0  0  0  0  2  0  0  0  0  0  0
  -28.4080  -26.6740   20.1380 O   0  0  0  0  0  0  0  0  0  0  0  0
  -24.5930  -31.8730   23.2180 C   0  0  0  0  0  0  0  0  0  0  0  0
  -27.2330  -27.4160   20.0980 C   0  0  0  0  0  0  0  0  0  0  0  0
  -23.3880  -30.4900   21.5620 C   0  0  0  0  0  3  0  0  0  0  0  0
  -24.8410  -28.9610   20.1200 C   0  0  0  0  0  0  0  0  0  0  0  0
  -25.9180  -30.8350   21.3770 C   0  0  0  0  0  2  0  0  0  0  0  0
  -26.0050  -29.4700   20.7130 C   0  0  0  0  0  0  0  0  0  0  0  0
  -27.2000  -28.7070   20.6940 C   0  0  0  0  0  3  0  0  0  0  0  0
  -26.0450  -26.9340   19.5030 C   0  0  0  0  0  3  0  0  0  0  0  0
  -24.8580  -27.6950   19.5150 C   0  0  0  0  0  3  0  0  0  0  0  0
  -23.5990  -29.8260   20.1750 C   0  0  0  0  0  2  0  0  0  0  0  0
  -24.6500  -31.0810   22.1100 N   0  0  0  0  0  0  0  0  0  0  0  0
  -23.5120  -32.1420   23.7600 O   0  0  0  0  0  0  0  0  0  0  0  0
  -22.7350  -29.4580   22.5100 C   0  0  0  0  0  0  0  0  0  0  0  0
  -21.4100  -29.2810   22.3830 N   0  0  0  0  0  0  0  0  0  0  0  0
  -23.4210  -28.8200   23.3140 O   0  0  0  0  0  0  0  0  0  0  0  0
  -20.9220  -29.8470   21.7030 H   0  0  0  0  0  0  0  0  0  0  0  0
  -18.0300  -28.1100   22.8900 C   0  0  0  0  0  0  0  0  0  0  0  0
  -20.5920  -28.3350   23.1440 C   0  0  0  0  0  3  0  0  0  0  0  0
  -20.6760  -26.9170   22.5370 C   0  0  0  0  0  2  0  0  0  0  0  0
  -19.5620  -26.6250   21.5260 C   0  0  0  0  0  2  0  0  0  0  0  0
  -18.1870  -26.7710   22.1840 C   0  0  0  0  0  2  0  0  0  0  0  0
  -19.1600  -28.8510   23.3250 C   0  0  0  0  0  0  0  0  0  0  0  0
  -18.9600  -30.1050   23.9400 C   0  0  0  0  0  3  0  0  0  0  0  0
  -17.6630  -30.6220   24.1220 C   0  0  0  0  0  3  0  0  0  0  0  0
  -16.5470  -29.8750   23.7070 C   0  0  0  0  0  3  0  0  0  0  0  0
  -16.7310  -28.6200   23.0980 C   0  0  0  0  0  3  0  0  0  0  0  0
  -25.8780  -32.4980   23.8460 C   0  0  0  0  0  3  0  0  0  0  0  0
  -25.5740  -33.8940   24.1830 N   0  0  0  0  0  0  0  0  0  0  0  0
  -25.9110  -34.9510   23.4320 C   0  0  0  0  0  0  0  0  0  0  0  0
  -26.5840  -34.8520   22.4030 O   0  0  0  0  0  0  0  0  0  0  0  0
  -24.9800  -34.0480   24.9850 H   0  0  0  0  0  0  0  0  0  0  0  0
  -24.1910  -36.7490   23.0710 C   0  0  0  0  0  1  0  0  0  0  0  0
  -25.4230  -36.3370   23.8940 C   0  0  0  0  0  3  0  0  0  0  0  0
  -27.5490  -37.2090   24.7560 C   0  0  0  0  0  1  0  0  0  0  0  0
  -26.4590  -37.3890   23.8000 N   0  0  0  0  0  0  0  0  0  0  0  0
  -26.0550  -38.3100   23.9520 H   0  0  0  0  0  0  0  0  0  0  0  0
  -26.3920  -31.7190   25.1190 C   0  0  1  0  0  0  0  0  0  0  0  0
  -25.2960  -31.4730   26.1820 C   0  0  0  0  0  1  0  0  0  0  0  0
  -26.9760  -30.3440   24.7190 C   0  0  0  0  0  1  0  0  0  0  0  0
  -27.5400  -32.5090   25.7890 C   0  0  0  0  0  1  0  0  0  0  0  0
  -28.9000  -20.7090   20.9910 C   0  0  0  0  0  2  0  0  0  0  0  0
  -31.3660  -18.2380   22.6500 C   0  0  0  0  0  3  0  0  0  0  0  0
  -30.6560  -19.4040   22.3120 C   0  0  0  0  0  3  0  0  0  0  0  0
  -31.1220  -17.0270   21.9800 C   0  0  0  0  0  3  0  0  0  0  0  0
  -29.4320  -18.1510   20.6240 C   0  0  0  0  0  3  0  0  0  0  0  0
  -29.6960  -19.3990   21.2770 C   0  0  0  0  0  0  0  0  0  0  0  0
  -30.1370  -16.9510   20.9720 C   0  0  0  0  0  0  0  0  0  0  0  0
  -30.5580  -14.6010   20.1070 C   0  0  0  0  0  0  0  0  0  0  0  0
  -30.2470  -12.4420   18.9270 C   0  0  0  0  0  2  0  0  0  0  0  0
  -29.2330  -12.6540   17.7840 C   0  0  0  0  0  2  0  0  0  0  0  0
  -27.7830  -12.4930   18.2900 C   0  0  0  0  0  2  0  0  0  0  0  0
  -27.5160  -13.2930   19.5950 C   0  0  0  0  0  3  0  0  0  0  0  0
  -28.6370  -13.0580   20.6290 C   0  0  0  0  0  2  0  0  0  0  0  0
  -29.9100  -13.4100   19.9810 N   0  0  0  0  0  0  0  0  0  0  0  0
  -31.7160  -14.7640   19.7070 O   0  0  0  0  0  0  0  0  0  0  0  0
  -29.7710  -15.6620   20.4350 N   0  0  0  0  0  0  0  0  0  0  0  0
  -28.7800  -15.4710   20.4160 H   0  0  0  0  0  0  0  0  0  0  0  0
  -25.1630  -13.8810   20.4360 C   0  0  0  0  0  0  0  0  0  0  0  0
  -24.1170  -13.1020   20.8520 C   0  0  0  0  0  0  0  0  0  0  0  0
  -24.5790  -11.7500   20.7770 C   0  0  0  0  0  0  0  0  0  0  0  0
  -26.1960  -13.0060   20.1440 N   0  0  0  0  0  0  0  0  0  0  0  0
  -25.8520  -11.7190   20.4030 N   0  0  0  0  0  0  0  0  0  0  0  0
  -23.8610  -10.4850   20.9810 C   0  0  0  0  0  0  0  0  0  0  0  0
  -24.3240   -9.5170   21.9010 C   0  0  0  0  0  3  0  0  0  0  0  0
  -23.6110   -8.3150   22.0940 C   0  0  0  0  0  3  0  0  0  0  0  0
  -22.4180   -8.0730   21.3710 C   0  0  0  0  0  0  0  0  0  0  0  0
  -21.9730   -9.0310   20.4450 C   0  0  0  0  0  3  0  0  0  0  0  0
  -22.6880  -10.2250   20.2490 C   0  0  0  0  0  3  0  0  0  0  0  0
  -21.6670   -6.9290   21.4830 O   0  0  0  0  0  0  0  0  0  0  0  0
  -21.6490   -6.1910   22.6400 C   0  0  0  0  0  0  0  0  0  0  0  0
  -21.2370   -6.7440   23.8700 C   0  0  0  0  0  3  0  0  0  0  0  0
  -21.1640   -5.9280   25.0180 C   0  0  0  0  0  3  0  0  0  0  0  0
  -21.4950   -4.5630   24.9350 C   0  0  0  0  0  0  0  0  0  0  0  0
  -21.8990   -4.0090   23.7070 C   0  0  0  0  0  3  0  0  0  0  0  0
  -21.9730   -4.8220   22.5620 C   0  0  0  0  0  0  0  0  0  0  0  0
  -22.3430   -4.2780   21.3780 F   0  0  0  0  0  0  0  0  0  0  0  0
  -21.4160   -3.7790   26.0350 F   0  0  0  0  0  0  0  0  0  0  0  0
  -22.7360  -13.5730   21.2010 C   0  0  0  0  0  0  0  0  0  0  0  0
  -22.0510  -12.8620   22.0910 N   0  0  0  0  0  0  0  0  0  0  0  0
  -22.2740  -14.6060   20.7200 O   0  0  0  0  0  0  0  0  0  0  0  0
  -22.4420  -12.0290   22.5050 H   0  0  0  0  0  0  0  0  0  0  0  0
  -21.1250  -13.1590   22.3660 H   0  0  0  0  0  0  0  0  0  0  0  0
  -25.3170  -15.2510   20.2630 N   0  0  0  0  0  0  0  0  0  0  0  0
  -24.5550  -15.9010   20.4100 H   0  0  0  0  0  0  0  0  0  0  0  0
  -26.1310  -15.6960   19.8590 H   0  0  0  0  0  0  0  0  0  0  0  0
  1  3  1  0
  2  1  1  0
  2  4  1  0
  3  4  1  0
  4  5  1  0
  4 50  1  6
  5  6  2  0
  7  5  1  0
  8  9  1  0
  8  7  1  0
 10 21  2  0
 11  9  1  0
 11 16  1  0
 12 20  1  0
 12 22  1  0
 13 19  1  0
 13 15  1  0
 14 20  1  0
 15 14  1  0
 16 15  2  0
 17 18  1  0
 17 11  2  0
 18 13  2  0
 19 12  1  0
 20 10  1  0
 22 24  2  0
 23 22  1  0
 25 23  1  0
 26 35  2  0
 26 31  1  0
 27 23  1  0
 27 31  1  0
 28 27  1  0
 29 30  1  0
 29 28  1  0
 30 26  1  0
 31 32  2  0
 32 33  1  0
 34 33  2  0
 35 34  1  0
 36 10  1  0
 36 37  1  0
 36 46  1  0
 37 40  1  0
 38 42  1  0
 38 37  1  0
 39 38  2  0
 42 41  1  0
 44 42  1  0
 44 45  1  0
 44 43  1  0
 46 49  1  1
 46 47  1  0
 48 46  1  0
 50 55  1  0
 52 51  1  0
 53 51  2  0
 54 56  2  0
 54 55  1  0
 55 52  2  0
 56 53  1  0
 57 65  1  0
 58 63  1  0
 59 60  1  0
 59 58  1  0
 61 60  1  0
 61 70  1  0
 61 62  1  0
 63 57  1  0
 63 62  1  0
 64 57  2  0
 65 56  1  0
 66 65  1  0
 67 68  2  0
 68 87  1  0
 69 68  1  0
 69 72  1  0
 70 71  1  0
 70 67  1  0
 71 69  2  0
 72 73  1  0
 73 74  2  0
 75 78  1  0
 75 74  1  0
 76 75  2  0
 77 76  1  0
 77 72  2  0
 78 79  1  0
 79 80  1  0
 80 81  2  0
 82 81  1  0
 82 86  1  0
 83 82  2  0
 84 79  2  0
 84 83  1  0
 85 84  1  0
 87 88  1  0
 88 91  1  0
 88 90  1  0
 89 87  2  0
 92 93  1  0
 92 67  1  0
 94 92  1  0
M  ISO  4   8 101   9 101  57 100  65 100
M  END
>  <TORSDO>  (70) 
F 21

>  <SCORE>  (70) 
-13.062

>  <name>  (70) 
69

>  <ligand_id>  (70) 
69

>  <original_smiles>  (70) 
[H]c1c([H])c([H])c2c(c1[H])C([H])([H])C([H])([H])C([H])([H])C2([H])N([H])C(=O)C1([H])N(C(=O)C([H])(N([H])C(=O)C([H])(N([H])C([H])([H])[H])C([H])([H])[H])C(C([H])([H])[H])(C([H])([H])[H])C([H])([H])[H])C([H])([H])c2c([H])c(OC([H])([H])C([H])([H])C(=O)C3(C([H])([H])c4c([H])c([H])c([H])c(N([H])C(=O)N5C([H])([H])C([H])([H])C([H])([H])C([H])(n6nc(-c7c([H])c([H])c(Oc8c([H])c([H])c(F)c([H])c8F)c([H])c7[H])c(C(=O)N([H])[H])c6N([H])[H])C5([H])[H])c4[H])C([H])([H])C([H])([H])C3([H])[H])c([H])c([H])c2C1([H])[H]

>  <smiles>  (70) 
[H]c1c([H])c([H])c2c(c1[H])C([H])([H])C([H])([H])C([H])([H])C2([H])N([H])C(=O)C1([H])N(C(=O)C([H])(N([H])C(=O)C([H])(N([H])C([H])([H])[H])C([H])([H])[H])C(C([H])([H])[H])(C([H])([H])[H])C([H])([H])[H])C([H])([H])c2c([H])c(OC([H])([H])C([H])([H])C(=O)C3(C([H])([H])c4c([H])c([H])c([H])c(N([H])C(=O)N5C([H])([H])C([H])([H])C([H])([H])C([H])(n6nc(-c7c([H])c([H])c(Oc8c([H])c([H])c(F)c([H])c8F)c([H])c7[H])c(C(=O)N([H])[H])c6N([H])[H])C5([H])[H])c4[H])C([H])([H])C([H])([H])C3([H])[H])c([H])c([H])c2C1([H])[H]

$$$$
70:0:0
     RDKit          3D

 99101  0  0  1  0  0  0  0  0999 V2000
  -23.0550  -23.5590   18.2710 C   0  0  0  0  0  0  0  0  0  0  0  0
  -22.9460  -22.7510   19.1830 O   0  0  0  0  0  0  0  0  0  0  0  0
  -25.1250  -24.2020   16.7220 C   0  0  0  0  0  1  0  0  0  0  0  0
  -23.7540  -22.0950   16.3120 C   0  0  0  0  0  1  0  0  0  0  0  0
  -24.4870  -22.9210   17.3930 C   0  0  2  0  0  0  0  0  0  0  0  0
  -25.9790  -21.9050   17.9990 C   0  0  0  0  0  2  0  0  0  0  0  0
  -27.9780  -19.7350   17.0600 C   0  0  0  0  0  3  0  0  0  0  0  0
  -28.9500  -18.5850   17.3490 C   0  0  0  0  0  3  0  0  0  0  0  0
  -27.1590  -19.5770   19.1200 C   0  0  0  0  0  3  0  0  0  0  0  0
  -26.9390  -20.3660   17.9360 C   0  0  0  0  0  0  0  0  0  0  0  0
  -28.1270  -18.4890   19.4380 C   0  0  0  0  0  0  0  0  0  0  0  0
  -29.1510  -17.8190   18.6080 C   0  0  0  0  0  0  0  0  0  0  0  0
  -27.9790  -18.0640   20.8570 C   0  0  0  0  0  1  0  0  0  0  0  0
  -31.1320  -15.4440   19.0910 C   0  0  0  0  0  0  0  0  0  0  0  0
  -31.4200  -12.8900   18.6950 C   0  0  0  0  0  2  0  0  0  0  0  0
  -30.4520  -12.4430   17.5760 C   0  0  0  0  0  2  0  0  0  0  0  0
  -29.0250  -12.2430   18.1240 C   0  0  0  0  0  2  0  0  0  0  0  0
  -28.6250  -13.3630   19.1200 C   0  0  0  0  0  3  0  0  0  0  0  0
  -29.6970  -13.6510   20.1650 C   0  0  0  0  0  2  0  0  0  0  0  0
  -30.8090  -14.0880   19.3600 N   0  0  0  0  0  0  0  0  0  0  0  0
  -32.3600  -15.5140   18.8520 O   0  0  0  0  0  0  0  0  0  0  0  0
  -30.1730  -16.6230   19.2200 N   0  0  0  0  0  0  0  0  0  0  0  0
  -30.6060  -17.0970   20.0000 H   0  0  0  0  0  0  0  0  0  0  0  0
  -26.4550  -14.1300   20.1530 C   0  0  0  0  0  0  0  0  0  0  0  0
  -25.3650  -13.4460   20.6080 C   0  0  0  0  0  0  0  0  0  0  0  0
  -25.6980  -12.0580   20.5000 C   0  0  0  0  0  0  0  0  0  0  0  0
  -27.3550  -13.1590   19.7620 N   0  0  0  0  0  0  0  0  0  0  0  0
  -26.9310  -11.9070   20.0560 N   0  0  0  0  0  0  0  0  0  0  0  0
  -24.8750  -10.8650   20.7300 C   0  0  0  0  0  0  0  0  0  0  0  0
  -25.1860   -9.9340   21.7450 C   0  0  0  0  0  3  0  0  0  0  0  0
  -24.3680   -8.8080   21.9540 C   0  0  0  0  0  3  0  0  0  0  0  0
  -23.2280   -8.6020   21.1450 C   0  0  0  0  0  0  0  0  0  0  0  0
  -22.9360   -9.5150   20.1200 C   0  0  0  0  0  3  0  0  0  0  0  0
  -23.7530  -10.6350   19.9090 C   0  0  0  0  0  3  0  0  0  0  0  0
  -22.3840   -7.5190   21.2610 O   0  0  0  0  0  0  0  0  0  0  0  0
  -22.0230   -7.0200   22.4840 C   0  0  0  0  0  0  0  0  0  0  0  0
  -21.3410   -7.8040   23.4380 C   0  0  0  0  0  3  0  0  0  0  0  0
  -20.9240   -7.2310   24.6590 C   0  0  0  0  0  3  0  0  0  0  0  0
  -21.1830   -5.8680   24.9170 C   0  0  0  0  0  0  0  0  0  0  0  0
  -21.8590   -5.0830   23.9630 C   0  0  0  0  0  3  0  0  0  0  0  0
  -22.2730   -5.6610   22.7500 C   0  0  0  0  0  0  0  0  0  0  0  0
  -22.9060   -4.8940   21.8260 F   0  0  0  0  0  0  0  0  0  0  0  0
  -20.7780   -5.3140   26.0800 F   0  0  0  0  0  0  0  0  0  0  0  0
  -24.0540  -14.0460   21.0130 C   0  0  0  0  0  0  0  0  0  0  0  0
  -23.3940  -13.4570   22.0020 N   0  0  0  0  0  0  0  0  0  0  0  0
  -23.6310  -15.0710   20.4800 O   0  0  0  0  0  0  0  0  0  0  0  0
  -23.7500  -12.6300   22.4550 H   0  0  0  0  0  0  0  0  0  0  0  0
  -22.5130  -13.8470   22.3200 H   0  0  0  0  0  0  0  0  0  0  0  0
  -26.7480  -15.4820   20.0070 N   0  0  0  0  0  0  0  0  0  0  0  0
  -26.0840  -16.2110   20.2380 H   0  0  0  0  0  0  0  0  0  0  0  0
  -27.6240  -15.8460   19.6550 H   0  0  0  0  0  0  0  0  0  0  0  0
  -21.6130  -24.7640   18.0220 C   0  0  0  0  0  1  0  0  0  0  0  0
  -20.0540  -27.0620   18.2650 C   0  0  0  0  0  1  0  0  0  0  0  0
  -18.9370  -25.0610   18.5810 C   0  0  0  0  0  1  0  0  0  0  0  0
  -20.2420  -25.7670   19.2460 C   0  0  0  0  0  2  0  0  0  0  0  0
  -21.4910  -25.7510   21.9310 C   0  0  0  0  0  2  0  0  0  0  0  0
  -20.8660  -25.6420   23.0100 O   0  0  0  0  0  1  0  0  0  0  0  0
  -23.4870  -25.9630   22.0570 C   0  0  0  0  0 15  0  0  0  0  0  0
  -25.0340  -26.2180   20.9760 O   0  0  0  0  0  1  0  0  0  0  0  0
  -24.4030  -31.4310   23.3720 C   0  0  0  0  0  0  0  0  0  0  0  0
  -25.9330  -27.2070   20.3500 C   0  0  0  0  0  3  0  0  0  0  0  0
  -23.3050  -30.5920   21.3640 C   0  0  0  0  0  3  0  0  0  0  0  0
  -24.6990  -29.3670   19.6130 C   0  0  0  0  0  3  0  0  0  0  0  0
  -25.7660  -30.8170   21.3530 C   0  0  0  0  0  2  0  0  0  0  0  0
  -25.7420  -29.5640   20.5160 C   0  0  0  0  0  3  0  0  0  0  0  0
  -26.4760  -28.4210   20.8620 C   0  0  0  0  0  2  0  0  0  0  0  0
  -25.7120  -27.2860   18.9560 C   0  0  0  0  0  2  0  0  0  0  0  0
  -24.7820  -28.2990   18.6720 C   0  0  0  0  0  2  0  0  0  0  0  0
  -23.5030  -30.2360   19.8450 C   0  0  0  0  0  2  0  0  0  0  0  0
  -24.5150  -30.9890   22.0880 N   0  0  0  0  0  0  0  0  0  0  0  0
  -23.3030  -31.4930   23.9550 O   0  0  0  0  0  0  0  0  0  0  0  0
  -22.7070  -29.4410   22.0690 C   0  0  0  0  0  0  0  0  0  0  0  0
  -21.4860  -29.7810   22.3910 N   0  0  0  0  0  0  0  0  0  0  0  0
  -23.2510  -28.3350   22.2700 O   0  0  0  0  0  0  0  0  0  0  0  0
  -21.1720  -30.7140   22.1930 H   0  0  0  0  0  0  0  0  0  0  0  0
  -17.9660  -28.2730   23.2810 C   0  0  0  0  0  0  0  0  0  0  0  0
  -20.5730  -28.8110   22.3590 C   0  0  0  0  0  2  0  0  0  0  0  0
  -21.1730  -27.1930   21.1340 C   0  0  0  0  0  1  0  0  0  0  0  0
  -19.2350  -25.5360   21.6940 C   0  0  0  0  0 15  0  0  0  0  0  0
  -17.9350  -26.5600   22.8350 C   0  0  0  0  0  1  0  0  0  0  0  0
  -19.1610  -29.1160   23.2360 C   0  0  0  0  0  0  0  0  0  0  0  0
  -19.1770  -30.3100   24.0760 C   0  0  0  0  0  3  0  0  0  0  0  0
  -18.0410  -30.9190   24.6390 C   0  0  0  0  0  3  0  0  0  0  0  0
  -16.8070  -30.3300   24.3460 C   0  0  0  0  0  3  0  0  0  0  0  0
  -16.7850  -29.0310   23.7210 C   0  0  0  0  0  3  0  0  0  0  0  0
  -25.6460  -31.9190   24.1270 C   0  0  0  0  0  3  0  0  0  0  0  0
  -25.4030  -33.3330   24.4030 N   0  0  0  0  0  0  0  0  0  0  0  0
  -25.8010  -34.3340   23.6070 C   0  0  0  0  0  0  0  0  0  0  0  0
  -26.4930  -34.1510   22.6040 O   0  0  0  0  0  0  0  0  0  0  0  0
  -24.8180  -33.5410   25.1970 H   0  0  0  0  0  0  0  0  0  0  0  0
  -24.2550  -36.2390   23.0380 C   0  0  0  0  0  1  0  0  0  0  0  0
  -25.3720  -35.7620   23.9820 C   0  0  0  0  0  3  0  0  0  0  0  0
  -27.4610  -36.5000   25.0340 C   0  0  0  0  0  1  0  0  0  0  0  0
  -26.4890  -36.7320   23.9690 N   0  0  0  0  0  0  0  0  0  0  0  0
  -26.1430  -37.6860   24.0510 H   0  0  0  0  0  0  0  0  0  0  0  0
  -25.9380  -31.1220   25.4530 C   0  0  1  0  0  0  0  0  0  0  0  0
  -24.7420  -31.0180   26.4330 C   0  0  0  0  0  1  0  0  0  0  0  0
  -26.4180  -29.6880   25.1390 C   0  0  0  0  0  1  0  0  0  0  0  0
  -27.0890  -31.8250   26.2020 C   0  0  0  0  0  1  0  0  0  0  0  0
  1  2  2  0
  5  3  1  6
  4  5  1  0
  5  6  1  0
  5  1  1  0
  7  8  2  0
  7 10  1  0
  8 12  1  0
  9 11  1  0
 10  6  1  0
 10  9  2  0
 11 13  1  0
 12 22  1  0
 12 11  2  0
 14 22  1  0
 14 20  1  0
 15 20  1  0
 16 17  1  0
 16 15  1  0
 18 17  1  0
 18 27  1  0
 18 19  1  0
 20 19  1  0
 21 14  2  0
 22 23  1  0
 24 25  2  0
 25 44  1  0
 26 25  1  0
 26 29  1  0
 27 28  1  0
 27 24  1  0
 28 26  2  0
 29 30  1  0
 30 31  2  0
 32 35  1  0
 32 31  1  0
 33 32  2  0
 34 33  1  0
 34 29  2  0
 35 36  1  0
 36 41  2  0
 36 37  1  0
 37 38  2  0
 38 39  1  0
 39 43  1  0
 40 39  2  0
 41 40  1  0
 42 41  1  0
 44 45  1  0
 45 48  1  0
 45 47  1  0
 46 44  2  0
 49 24  1  0
 49 50  1  0
 51 49  1  0
 52  1  1  0
 53 55  1  0
 54 55  1  0
 56 57  1  0
 60 71  2  0
 61 66  1  0
 61 59  1  0
 62 72  1  0
 62 70  1  0
 63 68  1  0
 63 69  1  0
 63 65  1  0
 64 70  1  0
 65 66  1  0
 65 64  1  0
 67 61  1  0
 68 67  1  0
 69 62  1  0
 70 60  1  0
 72 74  2  0
 72 73  1  0
 75 73  1  0
 76 85  1  0
 77 73  1  0
 77 81  1  0
 78 56  1  0
 80 76  1  0
 81 76  2  0
 81 82  1  0
 82 83  2  0
 84 83  1  0
 85 84  2  0
 86 60  1  0
 86 87  1  0
 86 96  1  0
 87 90  1  0
 88 92  1  0
 88 87  1  0
 89 88  2  0
 92 91  1  0
 94 92  1  0
 94 95  1  0
 94 93  1  0
 96 99  1  1
 96 97  1  0
 98 96  1  0
M  ISO  4  14 100  22 100  58 101  59 101
M  END
>  <TORSDO>  (71) 
F 23

>  <SCORE>  (71) 
-13.617

>  <name>  (71) 
70

>  <ligand_id>  (71) 
70

>  <original_smiles>  (71) 
[H]c1c([H])c([H])c2c(c1[H])C([H])([H])C([H])([H])C([H])([H])C2([H])N([H])C(=O)C1([H])N(C(=O)C([H])(N([H])C(=O)C([H])(N([H])C([H])([H])[H])C([H])([H])[H])C(C([H])([H])[H])(C([H])([H])[H])C([H])([H])[H])C([H])([H])c2c([H])c(OC([H])([H])C(=O)C(C([H])([H])[H])(C([H])([H])[H])C([H])([H])C(=O)C(C([H])([H])[H])(C([H])([H])[H])C([H])([H])c3c([H])c([H])c(N([H])C(=O)N4C([H])([H])C([H])([H])C([H])([H])C([H])(n5nc(-c6c([H])c([H])c(Oc7c([H])c([H])c(F)c([H])c7F)c([H])c6[H])c(C(=O)N([H])[H])c5N([H])[H])C4([H])[H])c(C([H])([H])[H])c3[H])c([H])c([H])c2C1([H])[H]

>  <smiles>  (71) 
[H]c1c([H])c([H])c2c(c1[H])C([H])([H])C([H])([H])C([H])([H])C2([H])N([H])C(=O)C1([H])N(C(=O)C([H])(N([H])C(=O)C([H])(N([H])C([H])([H])[H])C([H])([H])[H])C(C([H])([H])[H])(C([H])([H])[H])C([H])([H])[H])C([H])([H])c2c([H])c(OC([H])([H])C(=O)C(C([H])([H])[H])(C([H])([H])[H])C([H])([H])C(=O)C(C([H])([H])[H])(C([H])([H])[H])C([H])([H])c3c([H])c([H])c(N([H])C(=O)N4C([H])([H])C([H])([H])C([H])([H])C([H])(n5nc(-c6c([H])c([H])c(Oc7c([H])c([H])c(F)c([H])c7F)c([H])c6[H])c(C(=O)N([H])[H])c5N([H])[H])C4([H])[H])c(C([H])([H])[H])c3[H])c([H])c([H])c2C1([H])[H]

$$$$
71:0:0
     RDKit          3D

 94103  0  0  1  0  0  0  0  0999 V2000
  -30.5100  -22.6830   21.1760 C   0  0  0  0  0  2  0  0  0  0  0  0
  -30.7890  -21.2520   20.6910 C   0  0  0  0  0  2  0  0  0  0  0  0
  -28.4560  -21.5750   20.4660 C   0  0  0  0  0  2  0  0  0  0  0  0
  -28.9920  -22.9220   21.0280 C   0  0  0  0  0  3  0  0  0  0  0  0
  -29.5070  -20.5640   20.6670 N   0  0  0  0  0  0  0  0  0  0  0  0
  -29.6120  -17.9600   17.9350 C   0  0  0  0  0  3  0  0  0  0  0  0
  -29.7430  -16.7880   18.6940 C   0  0  0  0  0  3  0  0  0  0  0  0
  -29.6330  -18.1180   20.7280 C   0  0  0  0  0  3  0  0  0  0  0  0
  -29.5050  -19.2250   18.5480 C   0  0  0  0  0  0  0  0  0  0  0  0
  -29.5190  -19.3250   19.9710 C   0  0  0  0  0  0  0  0  0  0  0  0
  -29.7620  -16.8440   20.1050 C   0  0  0  0  0  0  0  0  0  0  0  0
  -29.3820  -20.4210   17.6140 C   0  0  0  0  0  1  0  0  0  0  0  0
  -30.5970  -14.5570   20.5330 C   0  0  0  0  0  0  0  0  0  0  0  0
  -30.3550  -12.3560   19.4660 C   0  0  0  0  0  2  0  0  0  0  0  0
  -29.4530  -12.5480   18.2270 C   0  0  0  0  0  2  0  0  0  0  0  0
  -27.9640  -12.4220   18.6120 C   0  0  0  0  0  2  0  0  0  0  0  0
  -27.5900  -13.2650   19.8610 C   0  0  0  0  0  3  0  0  0  0  0  0
  -28.6160  -13.0700   21.0020 C   0  0  0  0  0  2  0  0  0  0  0  0
  -29.9540  -13.3600   20.4650 N   0  0  0  0  0  0  0  0  0  0  0  0
  -31.7590  -14.7140   20.1470 O   0  0  0  0  0  0  0  0  0  0  0  0
  -29.8310  -15.6230   20.8620 N   0  0  0  0  0  0  0  0  0  0  0  0
  -29.0010  -15.3980   21.3890 H   0  0  0  0  0  0  0  0  0  0  0  0
  -25.1700  -13.8640   20.4930 C   0  0  0  0  0  0  0  0  0  0  0  0
  -24.0950  -13.0900   20.8420 C   0  0  0  0  0  0  0  0  0  0  0  0
  -24.5660  -11.7420   20.8470 C   0  0  0  0  0  0  0  0  0  0  0  0
  -26.2260  -12.9870   20.3060 N   0  0  0  0  0  0  0  0  0  0  0  0
  -25.8650  -11.7070   20.5770 N   0  0  0  0  0  0  0  0  0  0  0  0
  -23.8430  -10.4780   21.0360 C   0  0  0  0  0  0  0  0  0  0  0  0
  -24.2620   -9.5230   21.9900 C   0  0  0  0  0  3  0  0  0  0  0  0
  -23.5380   -8.3240   22.1660 C   0  0  0  0  0  3  0  0  0  0  0  0
  -22.3830   -8.0710   21.3880 C   0  0  0  0  0  0  0  0  0  0  0  0
  -21.9840   -9.0150   20.4250 C   0  0  0  0  0  3  0  0  0  0  0  0
  -22.7080  -10.2060   20.2470 C   0  0  0  0  0  3  0  0  0  0  0  0
  -21.6350   -6.9220   21.4710 O   0  0  0  0  0  0  0  0  0  0  0  0
  -21.5700   -6.1850   22.6280 C   0  0  0  0  0  0  0  0  0  0  0  0
  -21.1180   -6.7450   23.8420 C   0  0  0  0  0  3  0  0  0  0  0  0
  -20.9990   -5.9340   24.9900 C   0  0  0  0  0  3  0  0  0  0  0  0
  -21.3250   -4.5670   24.9230 C   0  0  0  0  0  0  0  0  0  0  0  0
  -21.7720   -4.0070   23.7130 C   0  0  0  0  0  3  0  0  0  0  0  0
  -21.8900   -4.8140   22.5670 C   0  0  0  0  0  0  0  0  0  0  0  0
  -22.3000   -4.2640   21.3980 F   0  0  0  0  0  0  0  0  0  0  0  0
  -21.2060   -3.7860   26.0220 F   0  0  0  0  0  0  0  0  0  0  0  0
  -22.6870  -13.5620   21.0680 C   0  0  0  0  0  0  0  0  0  0  0  0
  -21.9400  -12.8740   21.9210 N   0  0  0  0  0  0  0  0  0  0  0  0
  -22.2590  -14.5790   20.5230 O   0  0  0  0  0  0  0  0  0  0  0  0
  -22.2980  -12.0510   22.3830 H   0  0  0  0  0  0  0  0  0  0  0  0
  -20.9960  -13.1770   22.1180 H   0  0  0  0  0  0  0  0  0  0  0  0
  -25.3310  -15.2330   20.3000 N   0  0  0  0  0  0  0  0  0  0  0  0
  -24.5560  -15.8840   20.3740 H   0  0  0  0  0  0  0  0  0  0  0  0
  -26.1880  -15.6750   19.9950 H   0  0  0  0  0  0  0  0  0  0  0  0
  -28.6520  -24.2000   20.2050 C   0  0  0  0  0  0  0  0  0  0  0  0
  -28.6520  -24.1870   18.9690 O   0  0  0  0  0  0  0  0  0  0  0  0
  -28.3160  -25.4880   21.0000 C   0  0  0  0  0  2  0  0  0  0  0  0
  -28.3870  -26.7030   20.2150 O   0  0  0  0  0  0  0  0  0  0  0  0
  -24.5660  -31.9150   23.2770 C   0  0  0  0  0  0  0  0  0  0  0  0
  -27.2340  -27.4600   20.2210 C   0  0  0  0  0  0  0  0  0  0  0  0
  -23.3700  -30.5050   21.6330 C   0  0  0  0  0  3  0  0  0  0  0  0
  -24.8350  -28.9650   20.2180 C   0  0  0  0  0  0  0  0  0  0  0  0
  -25.8970  -30.8700   21.4420 C   0  0  0  0  0  2  0  0  0  0  0  0
  -25.9920  -29.4960   20.8040 C   0  0  0  0  0  0  0  0  0  0  0  0
  -27.1970  -28.7540   20.7980 C   0  0  0  0  0  3  0  0  0  0  0  0
  -26.0620  -26.9450   19.6310 C   0  0  0  0  0  3  0  0  0  0  0  0
  -24.8650  -27.6880   19.6290 C   0  0  0  0  0  3  0  0  0  0  0  0
  -23.5870  -29.8210   20.2570 C   0  0  0  0  0  2  0  0  0  0  0  0
  -24.6290  -31.1120   22.1760 N   0  0  0  0  0  0  0  0  0  0  0  0
  -23.4820  -32.1860   23.8120 O   0  0  0  0  0  0  0  0  0  0  0  0
  -22.7190  -29.4850   22.5960 C   0  0  0  0  0  0  0  0  0  0  0  0
  -21.3950  -29.2950   22.4620 N   0  0  0  0  0  0  0  0  0  0  0  0
  -23.3990  -28.8670   23.4180 O   0  0  0  0  0  0  0  0  0  0  0  0
  -20.9070  -29.8480   21.7710 H   0  0  0  0  0  0  0  0  0  0  0  0
  -18.0240  -28.0820   22.9400 C   0  0  0  0  0  0  0  0  0  0  0  0
  -20.5790  -28.3560   23.2290 C   0  0  0  0  0  3  0  0  0  0  0  0
  -20.6940  -26.9230   22.6580 C   0  0  0  0  0  2  0  0  0  0  0  0
  -19.6000  -26.5910   21.6360 C   0  0  0  0  0  2  0  0  0  0  0  0
  -18.2130  -26.7310   22.2710 C   0  0  0  0  0  2  0  0  0  0  0  0
  -19.1340  -28.8520   23.3750 C   0  0  0  0  0  0  0  0  0  0  0  0
  -18.9040  -30.1170   23.9580 C   0  0  0  0  0  3  0  0  0  0  0  0
  -17.5950  -30.6100   24.1120 C   0  0  0  0  0  3  0  0  0  0  0  0
  -16.4980  -29.8370   23.6940 C   0  0  0  0  0  3  0  0  0  0  0  0
  -16.7150  -28.5750   23.1130 C   0  0  0  0  0  3  0  0  0  0  0  0
  -25.8470  -32.5510   23.9000 C   0  0  0  0  0  3  0  0  0  0  0  0
  -26.3590  -31.7910   25.1850 C   0  0  1  0  0  0  0  0  0  0  0  0
  -25.2590  -31.5650   26.2500 C   0  0  0  0  0  1  0  0  0  0  0  0
  -26.9420  -30.4110   24.8050 C   0  0  0  0  0  1  0  0  0  0  0  0
  -27.5070  -32.5890   25.8440 C   0  0  0  0  0  1  0  0  0  0  0  0
  -25.5390  -33.9520   24.2140 N   0  0  0  0  0  0  0  0  0  0  0  0
  -25.8820  -34.9970   23.4500 C   0  0  0  0  0  0  0  0  0  0  0  0
  -26.5630  -34.8830   22.4260 O   0  0  0  0  0  0  0  0  0  0  0  0
  -24.9360  -34.1160   25.0090 H   0  0  0  0  0  0  0  0  0  0  0  0
  -24.1630  -36.7900   23.0540 C   0  0  0  0  0  1  0  0  0  0  0  0
  -25.3920  -36.3900   23.8880 C   0  0  0  0  0  3  0  0  0  0  0  0
  -27.5160  -37.2730   24.7450 C   0  0  0  0  0  1  0  0  0  0  0  0
  -26.4290  -37.4390   23.7820 N   0  0  0  0  0  0  0  0  0  0  0  0
  -26.0240  -38.3610   23.9160 H   0  0  0  0  0  0  0  0  0  0  0  0
  2  1  1  0
  3  5  1  0
  3  4  1  0
  4 51  1  0
  4  1  1  0
  5  2  1  0
  6  9  2  0
  6  7  1  0
  7 11  2  0
  9 10  1  0
 10  5  1  0
 10  8  2  0
 11  8  1  0
 11 21  1  0
 12  9  1  0
 13 21  1  0
 14 19  1  0
 15 16  1  0
 15 14  1  0
 17 16  1  0
 17 26  1  0
 17 18  1  0
 19 13  1  0
 19 18  1  0
 20 13  2  0
 21 22  1  0
 23 24  2  0
 24 25  1  0
 24 43  1  0
 25 28  1  0
 26 23  1  0
 26 27  1  0
 27 25  2  0
 28 29  1  0
 29 30  2  0
 31 34  1  0
 31 30  1  0
 32 31  2  0
 33 32  1  0
 33 28  2  0
 34 35  1  0
 35 36  1  0
 36 37  2  0
 38 37  1  0
 38 42  1  0
 39 38  2  0
 40 35  2  0
 40 39  1  0
 41 40  1  0
 43 44  1  0
 44 47  1  0
 44 46  1  0
 45 43  2  0
 48 49  1  0
 48 23  1  0
 50 48  1  0
 51 53  1  0
 52 51  2  0
 54 56  1  0
 54 53  1  0
 55 66  2  0
 56 61  1  0
 57 65  1  0
 57 67  1  0
 58 64  1  0
 58 60  1  0
 59 65  1  0
 60 59  1  0
 61 60  2  0
 62 56  2  0
 63 62  1  0
 63 58  2  0
 64 57  1  0
 65 55  1  0
 67 69  2  0
 68 67  1  0
 70 68  1  0
 71 80  2  0
 71 76  1  0
 72 68  1  0
 72 76  1  0
 73 72  1  0
 74 75  1  0
 74 73  1  0
 75 71  1  0
 76 77  2  0
 77 78  1  0
 79 78  2  0
 80 79  1  0
 81 55  1  0
 81 86  1  0
 81 82  1  0
 82 85  1  1
 82 83  1  0
 84 82  1  0
 86 89  1  0
 87 91  1  0
 87 86  1  0
 88 87  2  0
 91 90  1  0
 93 91  1  0
 93 94  1  0
 93 92  1  0
M  ISO  4  13 100  21 100  53 101  54 101
M  END
>  <TORSDO>  (72) 
F 19

>  <SCORE>  (72) 
-14.283

>  <name>  (72) 
71

>  <ligand_id>  (72) 
71

>  <original_smiles>  (72) 
[H]c1c([H])c([H])c2c(c1[H])C([H])([H])C([H])([H])C([H])([H])C2([H])N([H])C(=O)C1([H])N(C(=O)C([H])(N([H])C(=O)C([H])(N([H])C([H])([H])[H])C([H])([H])[H])C(C([H])([H])[H])(C([H])([H])[H])C([H])([H])[H])C([H])([H])c2c([H])c(OC([H])([H])C(=O)C3([H])C([H])([H])N(c4c([H])c(N([H])C(=O)N5C([H])([H])C([H])([H])C([H])([H])C([H])(n6nc(-c7c([H])c([H])c(Oc8c([H])c([H])c(F)c([H])c8F)c([H])c7[H])c(C(=O)N([H])[H])c6N([H])[H])C5([H])[H])c([H])c([H])c4C([H])([H])[H])C([H])([H])C3([H])[H])c([H])c([H])c2C1([H])[H]

>  <smiles>  (72) 
[H]c1c([H])c([H])c2c(c1[H])C([H])([H])C([H])([H])C([H])([H])C2([H])N([H])C(=O)C1([H])N(C(=O)C([H])(N([H])C(=O)C([H])(N([H])C([H])([H])[H])C([H])([H])[H])C(C([H])([H])[H])(C([H])([H])[H])C([H])([H])[H])C([H])([H])c2c([H])c(OC([H])([H])C(=O)C3([H])C([H])([H])N(c4c([H])c(N([H])C(=O)N5C([H])([H])C([H])([H])C([H])([H])C([H])(n6nc(-c7c([H])c([H])c(Oc8c([H])c([H])c(F)c([H])c8F)c([H])c7[H])c(C(=O)N([H])[H])c6N([H])[H])C5([H])[H])c([H])c([H])c4C([H])([H])[H])C([H])([H])C3([H])[H])c([H])c([H])c2C1([H])[H]

$$$$
72:0:0
     RDKit          3D

 99107  0  0  1  0  0  0  0  0999 V2000
  -28.0580  -20.9900   21.2880 C   0  0  0  0  0  1  0  0  0  0  0  0
  -29.5540  -21.7860   23.1130 C   0  0  0  0  0  1  0  0  0  0  0  0
  -29.2880  -21.8940   21.5870 C   0  0  1  0  0  0  0  0  0  0  0  0
  -30.7810  -22.0390   19.4190 C   0  0  0  0  0  1  0  0  0  0  0  0
  -30.5370  -21.3330   20.7830 C   0  0  0  0  0  3  0  0  0  0  0  0
  -30.4010  -19.1190   19.4210 C   0  0  0  0  0  3  0  0  0  0  0  0
  -30.4330  -17.6990   19.5830 C   0  0  0  0  0  0  0  0  0  0  0  0
  -30.5200  -19.8220   20.5950 C   0  0  0  0  0  0  0  0  0  0  0  0
  -30.5460  -17.2960   20.9040 C   0  0  0  0  0  0  0  0  0  0  0  0
  -30.6530  -18.7070   21.9410 S   0  0  0  0  0  0  0  0  0  0  0  0
  -31.2520  -15.0050   21.1030 C   0  0  0  0  0  0  0  0  0  0  0  0
  -31.1190  -12.7320   20.1810 C   0  0  0  0  0  2  0  0  0  0  0  0
  -30.3160  -12.7580   18.8630 C   0  0  0  0  0  2  0  0  0  0  0  0
  -28.8010  -12.6340   19.1240 C   0  0  0  0  0  2  0  0  0  0  0  0
  -28.3040  -13.5920   20.2420 C   0  0  0  0  0  3  0  0  0  0  0  0
  -29.2300  -13.5320   21.4780 C   0  0  0  0  0  2  0  0  0  0  0  0
  -30.6110  -13.8070   21.0440 N   0  0  0  0  0  0  0  0  0  0  0  0
  -32.4230  -15.1690   20.7450 O   0  0  0  0  0  0  0  0  0  0  0  0
  -30.4920  -16.0490   21.4560 N   0  0  0  0  0  0  0  0  0  0  0  0
  -29.6550  -15.8300   21.9780 H   0  0  0  0  0  0  0  0  0  0  0  0
  -25.8460  -14.2110   20.6950 C   0  0  0  0  0  0  0  0  0  0  0  0
  -24.7430  -13.4410   20.9550 C   0  0  0  0  0  0  0  0  0  0  0  0
  -25.1970  -12.0870   20.9840 C   0  0  0  0  0  0  0  0  0  0  0  0
  -26.9070  -13.3230   20.5900 N   0  0  0  0  0  0  0  0  0  0  0  0
  -26.5130  -12.0410   20.8100 N   0  0  0  0  0  0  0  0  0  0  0  0
  -24.4440  -10.8300   21.1030 C   0  0  0  0  0  0  0  0  0  0  0  0
  -24.7810   -9.8680   22.0830 C   0  0  0  0  0  3  0  0  0  0  0  0
  -24.0420   -8.6690   22.1930 C   0  0  0  0  0  3  0  0  0  0  0  0
  -22.9530   -8.4250   21.3190 C   0  0  0  0  0  0  0  0  0  0  0  0
  -22.6340   -9.3770   20.3370 C   0  0  0  0  0  3  0  0  0  0  0  0
  -23.3730  -10.5690   20.2260 C   0  0  0  0  0  3  0  0  0  0  0  0
  -22.1970   -7.2770   21.3350 O   0  0  0  0  0  0  0  0  0  0  0  0
  -21.9910   -6.5630   22.4860 C   0  0  0  0  0  0  0  0  0  0  0  0
  -21.3700   -7.1370   23.6180 C   0  0  0  0  0  3  0  0  0  0  0  0
  -21.1080   -6.3480   24.7550 C   0  0  0  0  0  3  0  0  0  0  0  0
  -21.4630   -4.9840   24.7620 C   0  0  0  0  0  0  0  0  0  0  0  0
  -22.0780   -4.4100   23.6370 C   0  0  0  0  0  3  0  0  0  0  0  0
  -22.3360   -5.1970   22.5000 C   0  0  0  0  0  0  0  0  0  0  0  0
  -22.9070   -4.6310   21.4100 F   0  0  0  0  0  0  0  0  0  0  0  0
  -21.2060   -4.2230   25.8530 F   0  0  0  0  0  0  0  0  0  0  0  0
  -23.3290  -13.9230   21.0840 C   0  0  0  0  0  0  0  0  0  0  0  0
  -22.5230  -13.2490   21.8980 N   0  0  0  0  0  0  0  0  0  0  0  0
  -22.9440  -14.9380   20.5060 O   0  0  0  0  0  0  0  0  0  0  0  0
  -22.8450  -12.4330   22.3990 H   0  0  0  0  0  0  0  0  0  0  0  0
  -21.5700  -13.5620   22.0180 H   0  0  0  0  0  0  0  0  0  0  0  0
  -26.0330  -15.5770   20.5170 N   0  0  0  0  0  0  0  0  0  0  0  0
  -25.2630  -16.2060   20.3080 H   0  0  0  0  0  0  0  0  0  0  0  0
  -26.9350  -16.0000   20.3440 H   0  0  0  0  0  0  0  0  0  0  0  0
  -30.3670  -16.8220   18.4140 C   0  0  0  0  0  0  0  0  0  0  0  0
  -29.0570  -16.8630   17.6460 C   0  0  0  0  0  1  0  0  0  0  0  0
  -31.2700  -16.0870   18.0140 O   0  0  0  0  0  0  0  0  0  0  0  0
  -28.8180  -23.3550   21.2090 C   0  0  0  0  0  2  0  0  0  0  0  0
  -31.2130  -24.4220   21.4930 C   0  0  0  0  0  1  0  0  0  0  0  0
  -29.3010  -25.3590   22.7630 C   0  0  0  0  0  1  0  0  0  0  0  0
  -29.6830  -24.6640   21.4290 C   0  0  2  0  0  0  0  0  0  0  0  0
  -29.3740  -25.6590   20.2660 C   0  0  0  0  0  0  0  0  0  0  0  0
  -30.1650  -25.8330   19.3330 O   0  0  0  0  0  0  0  0  0  0  0  0
  -28.0390  -26.4240   20.3160 C   0  0  0  0  0  2  0  0  0  0  0  0
  -27.7310  -27.0590   19.0710 O   0  0  0  0  0  0  0  0  0  0  0  0
  -24.4310  -31.8770   23.0630 C   0  0  0  0  0  0  0  0  0  0  0  0
  -26.6120  -27.8310   19.2210 C   0  0  0  0  0  0  0  0  0  0  0  0
  -23.0060  -30.6700   21.4360 C   0  0  0  0  0  3  0  0  0  0  0  0
  -24.2520  -29.3020   19.6770 C   0  0  0  0  0  0  0  0  0  0  0  0
  -25.4860  -31.0580   20.9630 C   0  0  0  0  0  2  0  0  0  0  0  0
  -25.4750  -29.7670   20.1750 C   0  0  0  0  0  0  0  0  0  0  0  0
  -26.6610  -29.0390   19.9460 C   0  0  0  0  0  3  0  0  0  0  0  0
  -25.3790  -27.3710   18.7150 C   0  0  0  0  0  3  0  0  0  0  0  0
  -24.1970  -28.1020   18.9450 C   0  0  0  0  0  3  0  0  0  0  0  0
  -23.0320  -30.1460   19.9730 C   0  0  0  0  0  2  0  0  0  0  0  0
  -24.3340  -31.2090   21.8790 N   0  0  0  0  0  0  0  0  0  0  0  0
  -23.4310  -32.0910   23.7610 O   0  0  0  0  0  0  0  0  0  0  0  0
  -22.4620  -29.5510   22.3530 C   0  0  0  0  0  0  0  0  0  0  0  0
  -21.1390  -29.3260   22.2960 N   0  0  0  0  0  0  0  0  0  0  0  0
  -23.2230  -28.8920   23.0660 O   0  0  0  0  0  0  0  0  0  0  0  0
  -20.5820  -29.9150   21.6910 H   0  0  0  0  0  0  0  0  0  0  0  0
  -17.8710  -27.8800   22.8100 C   0  0  0  0  0  0  0  0  0  0  0  0
  -20.4100  -28.3010   23.0430 C   0  0  0  0  0  3  0  0  0  0  0  0
  -20.5980  -26.9090   22.3950 C   0  0  0  0  0  2  0  0  0  0  0  0
  -19.4970  -26.5580   21.3890 C   0  0  0  0  0  2  0  0  0  0  0  0
  -18.1240  -26.5780   22.0680 C   0  0  0  0  0  2  0  0  0  0  0  0
  -18.9440  -28.6970   23.2530 C   0  0  0  0  0  0  0  0  0  0  0  0
  -18.6570  -29.9130   23.9070 C   0  0  0  0  0  3  0  0  0  0  0  0
  -17.3260  -30.3170   24.1240 C   0  0  0  0  0  3  0  0  0  0  0  0
  -16.2660  -29.4970   23.6950 C   0  0  0  0  0  3  0  0  0  0  0  0
  -16.5400  -28.2810   23.0460 C   0  0  0  0  0  3  0  0  0  0  0  0
  -25.7980  -32.4270   23.5850 C   0  0  0  0  0  3  0  0  0  0  0  0
  -25.5690  -33.7980   24.0600 N   0  0  0  0  0  0  0  0  0  0  0  0
  -25.8840  -34.9020   23.3690 C   0  0  0  0  0  0  0  0  0  0  0  0
  -26.4710  -34.8720   22.2840 O   0  0  0  0  0  0  0  0  0  0  0  0
  -25.0400  -33.9010   24.9150 H   0  0  0  0  0  0  0  0  0  0  0  0
  -24.2060  -36.7740   23.2960 C   0  0  0  0  0  1  0  0  0  0  0  0
  -25.4830  -36.2580   23.9800 C   0  0  0  0  0  3  0  0  0  0  0  0
  -27.7020  -36.9900   24.7350 C   0  0  0  0  0  1  0  0  0  0  0  0
  -26.5460  -37.2840   23.8910 N   0  0  0  0  0  0  0  0  0  0  0  0
  -26.1840  -38.1960   24.1580 H   0  0  0  0  0  0  0  0  0  0  0  0
  -26.4310  -31.5360   24.7200 C   0  0  1  0  0  0  0  0  0  0  0  0
  -25.4650  -31.2390   25.8900 C   0  0  0  0  0  1  0  0  0  0  0  0
  -26.9090  -30.1820   24.1460 C   0  0  0  0  0  1  0  0  0  0  0  0
  -27.6830  -32.2390   25.2980 C   0  0  0  0  0  1  0  0  0  0  0  0
  3  1  1  1
  3  2  1  0
  5  4  1  0
  5  3  1  0
  6  7  1  0
  6  8  2  0
  7  9  2  0
  8  5  1  0
  8 10  1  0
  9 19  1  0
  9 10  1  0
 11 19  1  0
 12 17  1  0
 13 14  1  0
 13 12  1  0
 15 14  1  0
 15 24  1  0
 15 16  1  0
 17 11  1  0
 17 16  1  0
 18 11  2  0
 19 20  1  0
 21 22  2  0
 22 23  1  0
 22 41  1  0
 23 26  1  0
 24 21  1  0
 24 25  1  0
 25 23  2  0
 26 27  1  0
 27 28  2  0
 29 32  1  0
 29 28  1  0
 30 29  2  0
 31 30  1  0
 31 26  2  0
 32 33  1  0
 33 38  2  0
 33 34  1  0
 34 35  2  0
 35 36  1  0
 36 40  1  0
 37 36  2  0
 38 37  1  0
 39 38  1  0
 41 42  1  0
 42 45  1  0
 42 44  1  0
 43 41  2  0
 46 21  1  0
 47 46  1  0
 48 46  1  0
 49  7  1  0
 50 49  1  0
 51 49  2  0
 52 55  1  0
 52  3  1  0
 55 53  1  1
 55 54  1  0
 56 58  1  0
 56 55  1  0
 57 56  2  0
 59 61  1  0
 59 58  1  0
 60 71  2  0
 61 66  1  0
 62 70  1  0
 62 72  1  0
 63 69  1  0
 63 65  1  0
 64 70  1  0
 65 64  1  0
 66 65  2  0
 67 68  1  0
 67 61  2  0
 68 63  2  0
 69 62  1  0
 70 60  1  0
 72 74  2  0
 73 72  1  0
 75 73  1  0
 76 85  2  0
 76 81  1  0
 77 73  1  0
 77 81  1  0
 78 77  1  0
 79 80  1  0
 79 78  1  0
 80 76  1  0
 81 82  2  0
 82 83  1  0
 84 83  2  0
 85 84  1  0
 86 60  1  0
 86 87  1  0
 86 96  1  0
 87 90  1  0
 88 92  1  0
 88 87  1  0
 89 88  2  0
 92 91  1  0
 94 92  1  0
 94 95  1  0
 94 93  1  0
 96 99  1  1
 96 97  1  0
 98 96  1  0
M  ISO  4  11 100  19 100  58 101  59 101
M  END
>  <TORSDO>  (73) 
F 23

>  <SCORE>  (73) 
-9.893

>  <name>  (73) 
72

>  <ligand_id>  (73) 
72

>  <original_smiles>  (73) 
[H]c1c([H])c([H])c2c(c1[H])C([H])([H])C([H])([H])C([H])([H])C2([H])N([H])C(=O)C1([H])N(C(=O)C([H])(N([H])C(=O)C([H])(N([H])C([H])([H])[H])C([H])([H])[H])C(C([H])([H])[H])(C([H])([H])[H])C([H])([H])[H])C([H])([H])c2c([H])c(OC([H])([H])C(=O)C(C([H])([H])[H])(C([H])([H])[H])C([H])([H])C(C([H])([H])[H])(C([H])([H])[H])C([H])(c3sc(N([H])C(=O)N4C([H])([H])C([H])([H])C([H])([H])C([H])(n5nc(-c6c([H])c([H])c(Oc7c([H])c([H])c(F)c([H])c7F)c([H])c6[H])c(C(=O)N([H])[H])c5N([H])[H])C4([H])[H])c(C(=O)C([H])([H])[H])c3[H])C([H])([H])[H])c([H])c([H])c2C1([H])[H]

>  <smiles>  (73) 
[H]c1c([H])c([H])c2c(c1[H])C([H])([H])C([H])([H])C([H])([H])C2([H])N([H])C(=O)C1([H])N(C(=O)C([H])(N([H])C(=O)C([H])(N([H])C([H])([H])[H])C([H])([H])[H])C(C([H])([H])[H])(C([H])([H])[H])C([H])([H])[H])C([H])([H])c2c([H])c(OC([H])([H])C(=O)C(C([H])([H])[H])(C([H])([H])[H])C([H])([H])C(C([H])([H])[H])(C([H])([H])[H])C([H])(c3sc(N([H])C(=O)N4C([H])([H])C([H])([H])C([H])([H])C([H])(n5nc(-c6c([H])c([H])c(Oc7c([H])c([H])c(F)c([H])c7F)c([H])c6[H])c(C(=O)N([H])[H])c5N([H])[H])C4([H])[H])c(C(=O)C([H])([H])[H])c3[H])C([H])([H])[H])c([H])c([H])c2C1([H])[H]

$$$$
73:0:0
     RDKit          3D

 90 99  0  0  1  0  0  0  0  0999 V2000
  -28.5290  -21.0470   21.6810 C   0  0  0  0  0  2  0  0  0  0  0  0
  -28.4170  -22.6310   21.6710 C   0  0  0  0  0  2  0  0  0  0  0  0
  -29.0920  -21.9010   19.5150 C   0  0  0  0  0  2  0  0  0  0  0  0
  -28.9590  -20.4330   20.2980 C   0  0  0  0  0  3  0  0  0  0  0  0
  -28.2160  -23.0950   20.2210 C   0  0  0  0  0  3  0  0  0  0  0  0
  -31.9280  -17.7580   20.8590 C   0  0  0  0  0  3  0  0  0  0  0  0
  -32.6040  -18.9240   21.0140 C   0  0  0  0  0  3  0  0  0  0  0  0
  -30.5510  -17.8650   20.4440 C   0  0  0  0  0  0  0  0  0  0  0  0
  -30.1560  -19.3040   20.4140 C   0  0  0  0  0  0  0  0  0  0  0  0
  -31.5950  -20.2730   20.7240 S   0  0  0  0  0  0  0  0  0  0  0  0
  -30.5730  -15.1690   20.0560 C   0  0  0  0  0  0  0  0  0  0  0  0
  -30.3620  -12.8000   19.1460 C   0  0  0  0  0  2  0  0  0  0  0  0
  -29.3960  -12.7120   17.9450 C   0  0  0  0  0  2  0  0  0  0  0  0
  -27.9580  -12.4870   18.4380 C   0  0  0  0  0  2  0  0  0  0  0  0
  -27.5800  -13.4330   19.6080 C   0  0  0  0  0  3  0  0  0  0  0  0
  -28.6760  -13.5190   20.6930 C   0  0  0  0  0  2  0  0  0  0  0  0
  -29.9130  -13.9340   20.0190 N   0  0  0  0  0  0  0  0  0  0  0  0
  -31.7540  -15.1170   19.6960 O   0  0  0  0  0  0  0  0  0  0  0  0
  -29.9300  -16.4520   20.2530 N   0  0  0  0  0  0  0  0  0  0  0  0
  -28.9240  -16.4100   20.3210 H   0  0  0  0  0  0  0  0  0  0  0  0
  -25.2420  -13.9880   20.4760 C   0  0  0  0  0  0  0  0  0  0  0  0
  -24.1940  -13.2040   20.8700 C   0  0  0  0  0  0  0  0  0  0  0  0
  -24.6530  -11.8530   20.7810 C   0  0  0  0  0  0  0  0  0  0  0  0
  -26.2710  -13.1160   20.1640 N   0  0  0  0  0  0  0  0  0  0  0  0
  -25.9300  -11.8240   20.4140 N   0  0  0  0  0  0  0  0  0  0  0  0
  -23.9300  -10.5880   20.9660 C   0  0  0  0  0  0  0  0  0  0  0  0
  -24.3590   -9.6200   21.9020 C   0  0  0  0  0  3  0  0  0  0  0  0
  -23.6330   -8.4220   22.0760 C   0  0  0  0  0  3  0  0  0  0  0  0
  -22.4640   -8.1820   21.3150 C   0  0  0  0  0  0  0  0  0  0  0  0
  -22.0550   -9.1380   20.3700 C   0  0  0  0  0  3  0  0  0  0  0  0
  -22.7810  -10.3280   20.1930 C   0  0  0  0  0  3  0  0  0  0  0  0
  -21.7110   -7.0360   21.4000 O   0  0  0  0  0  0  0  0  0  0  0  0
  -21.6100   -6.3260   22.5690 C   0  0  0  0  0  0  0  0  0  0  0  0
  -21.0810   -6.8990   23.7460 C   0  0  0  0  0  3  0  0  0  0  0  0
  -20.9300   -6.1120   24.9060 C   0  0  0  0  0  3  0  0  0  0  0  0
  -21.2970   -4.7540   24.8880 C   0  0  0  0  0  0  0  0  0  0  0  0
  -21.8190   -4.1800   23.7150 C   0  0  0  0  0  3  0  0  0  0  0  0
  -21.9710   -4.9640   22.5580 C   0  0  0  0  0  0  0  0  0  0  0  0
  -22.4540   -4.4000   21.4250 F   0  0  0  0  0  0  0  0  0  0  0  0
  -21.1460   -3.9960   26.0000 F   0  0  0  0  0  0  0  0  0  0  0  0
  -22.8120  -13.6760   21.2120 C   0  0  0  0  0  0  0  0  0  0  0  0
  -22.1140  -12.9530   22.0800 N   0  0  0  0  0  0  0  0  0  0  0  0
  -22.3610  -14.7220   20.7460 O   0  0  0  0  0  0  0  0  0  0  0  0
  -22.4930  -12.1070   22.4790 H   0  0  0  0  0  0  0  0  0  0  0  0
  -21.1880  -13.2510   22.3530 H   0  0  0  0  0  0  0  0  0  0  0  0
  -25.4010  -15.3620   20.3290 N   0  0  0  0  0  0  0  0  0  0  0  0
  -24.6410  -16.0130   20.4930 H   0  0  0  0  0  0  0  0  0  0  0  0
  -26.2290  -15.8090   19.9580 H   0  0  0  0  0  0  0  0  0  0  0  0
  -27.7940  -24.7090   19.7690 C   0  0  0  0  0  2  0  0  0  0  0  0
  -28.1030  -26.2080   20.1510 O   0  0  0  0  0  0  0  0  0  0  0  0
  -24.5970  -31.9650   23.2210 C   0  0  0  0  0  0  0  0  0  0  0  0
  -27.0870  -27.2490   20.0770 C   0  0  0  0  0  0  0  0  0  0  0  0
  -23.3590  -30.5870   21.6010 C   0  0  0  0  0  3  0  0  0  0  0  0
  -24.7710  -29.0340   20.1160 C   0  0  0  0  0  0  0  0  0  0  0  0
  -25.9120  -30.8420   21.3830 C   0  0  0  0  0  2  0  0  0  0  0  0
  -25.9670  -29.4540   20.7130 C   0  0  0  0  0  0  0  0  0  0  0  0
  -27.1210  -28.5760   20.6850 C   0  0  0  0  0  3  0  0  0  0  0  0
  -25.8740  -26.9680   19.4030 C   0  0  0  0  0  3  0  0  0  0  0  0
  -24.7410  -27.8060   19.4430 C   0  0  0  0  0  3  0  0  0  0  0  0
  -23.5460  -29.9300   20.2070 C   0  0  0  0  0  2  0  0  0  0  0  0
  -24.6440  -31.1540   22.1220 N   0  0  0  0  0  0  0  0  0  0  0  0
  -23.5240  -32.2460   23.7780 O   0  0  0  0  0  0  0  0  0  0  0  0
  -22.7040  -29.5680   22.5670 C   0  0  0  0  0  0  0  0  0  0  0  0
  -21.3800  -29.3680   22.4460 N   0  0  0  0  0  0  0  0  0  0  0  0
  -23.3920  -28.9610   23.3920 O   0  0  0  0  0  0  0  0  0  0  0  0
  -20.8800  -29.9110   21.7560 H   0  0  0  0  0  0  0  0  0  0  0  0
  -18.0300  -28.0790   22.9530 C   0  0  0  0  0  0  0  0  0  0  0  0
  -20.5810  -28.4170   23.2250 C   0  0  0  0  0  3  0  0  0  0  0  0
  -20.7240  -26.9820   22.6680 C   0  0  0  0  0  2  0  0  0  0  0  0
  -19.6350  -26.6160   21.6540 C   0  0  0  0  0  2  0  0  0  0  0  0
  -18.2480  -26.7290   22.2910 C   0  0  0  0  0  2  0  0  0  0  0  0
  -19.1260  -28.8780   23.3770 C   0  0  0  0  0  0  0  0  0  0  0  0
  -18.8670  -30.1390   23.9580 C   0  0  0  0  0  3  0  0  0  0  0  0
  -17.5470  -30.6020   24.1170 C   0  0  0  0  0  3  0  0  0  0  0  0
  -16.4670  -29.8010   23.7080 C   0  0  0  0  0  3  0  0  0  0  0  0
  -16.7090  -28.5410   23.1320 C   0  0  0  0  0  3  0  0  0  0  0  0
  -25.8890  -32.5980   23.8220 C   0  0  0  0  0  3  0  0  0  0  0  0
  -25.5850  -33.9970   24.1670 N   0  0  0  0  0  0  0  0  0  0  0  0
  -25.9040  -35.0570   23.4130 C   0  0  0  0  0  0  0  0  0  0  0  0
  -26.5520  -34.9610   22.3680 O   0  0  0  0  0  0  0  0  0  0  0  0
  -25.0070  -34.1450   24.9810 H   0  0  0  0  0  0  0  0  0  0  0  0
  -24.1780  -36.8650   23.1110 C   0  0  0  0  0  1  0  0  0  0  0  0
  -25.4330  -36.4440   23.8940 C   0  0  0  0  0  3  0  0  0  0  0  0
  -27.5820  -37.3180   24.7000 C   0  0  0  0  0  1  0  0  0  0  0  0
  -26.4670  -37.4940   23.7730 N   0  0  0  0  0  0  0  0  0  0  0  0
  -26.0680  -38.4160   23.9290 H   0  0  0  0  0  0  0  0  0  0  0  0
  -26.4250  -31.8250   25.0910 C   0  0  1  0  0  0  0  0  0  0  0  0
  -25.3460  -31.5770   26.1700 C   0  0  0  0  0  1  0  0  0  0  0  0
  -27.0130  -30.4520   24.6930 C   0  0  0  0  0  1  0  0  0  0  0  0
  -27.5780  -32.6250   25.7410 C   0  0  0  0  0  1  0  0  0  0  0  0
  2  1  1  0
  3  5  1  0
  3  4  1  0
  4  9  1  0
  4  1  1  0
  5 49  1  0
  5  2  1  0
  6  7  2  0
  8  6  1  0
  9  8  2  0
  9 10  1  0
 10  7  1  0
 11 19  1  0
 12 17  1  0
 13 14  1  0
 13 12  1  0
 15 14  1  0
 15 24  1  0
 15 16  1  0
 17 11  1  0
 17 16  1  0
 18 11  2  0
 19 20  1  0
 19  8  1  0
 21 22  2  0
 22 41  1  0
 23 22  1  0
 23 26  1  0
 24 25  1  0
 24 21  1  0
 25 23  2  0
 26 27  1  0
 27 28  2  0
 29 32  1  0
 29 28  1  0
 30 29  2  0
 31 30  1  0
 31 26  2  0
 32 33  1  0
 33 34  1  0
 34 35  2  0
 36 35  1  0
 36 40  1  0
 37 36  2  0
 38 33  2  0
 38 37  1  0
 39 38  1  0
 41 42  1  0
 42 45  1  0
 42 44  1  0
 43 41  2  0
 46 21  1  0
 46 47  1  0
 48 46  1  0
 49 50  1  0
 51 62  2  0
 52 50  1  0
 52 57  1  0
 53 61  1  0
 53 63  1  0
 54 60  1  0
 54 56  1  0
 55 61  1  0
 56 55  1  0
 57 56  2  0
 58 59  1  0
 58 52  2  0
 59 54  2  0
 60 53  1  0
 61 51  1  0
 63 65  2  0
 64 63  1  0
 66 64  1  0
 67 76  2  0
 67 72  1  0
 68 64  1  0
 68 72  1  0
 69 68  1  0
 70 71  1  0
 70 69  1  0
 71 67  1  0
 72 73  2  0
 73 74  1  0
 75 74  2  0
 76 75  1  0
 77 51  1  0
 77 78  1  0
 77 87  1  0
 78 81  1  0
 79 83  1  0
 79 78  1  0
 80 79  2  0
 83 82  1  0
 85 83  1  0
 85 86  1  0
 85 84  1  0
 87 90  1  1
 87 88  1  0
 89 87  1  0
M  ISO  4  11 100  19 100  49 101  50 101
M  END
>  <TORSDO>  (74) 
F 18

>  <SCORE>  (74) 
-15.179

>  <name>  (74) 
73

>  <ligand_id>  (74) 
73

>  <original_smiles>  (74) 
[H]c1sc(C2([H])C([H])([H])C([H])([H])C([H])(C([H])([H])Oc3c([H])c([H])c4c(c3[H])C([H])([H])N(C(=O)C([H])(N([H])C(=O)C([H])(N([H])C([H])([H])[H])C([H])([H])[H])C(C([H])([H])[H])(C([H])([H])[H])C([H])([H])[H])C([H])(C(=O)N([H])C3([H])c5c([H])c([H])c([H])c([H])c5C([H])([H])C([H])([H])C3([H])[H])C4([H])[H])C2([H])[H])c(N([H])C(=O)N2C([H])([H])C([H])([H])C([H])([H])C([H])(n3nc(-c4c([H])c([H])c(Oc5c([H])c([H])c(F)c([H])c5F)c([H])c4[H])c(C(=O)N([H])[H])c3N([H])[H])C2([H])[H])c1[H]

>  <smiles>  (74) 
[H]c1sc(C2([H])C([H])([H])C([H])([H])C([H])(C([H])([H])Oc3c([H])c([H])c4c(c3[H])C([H])([H])N(C(=O)C([H])(N([H])C(=O)C([H])(N([H])C([H])([H])[H])C([H])([H])[H])C(C([H])([H])[H])(C([H])([H])[H])C([H])([H])[H])C([H])(C(=O)N([H])C3([H])c5c([H])c([H])c([H])c([H])c5C([H])([H])C([H])([H])C3([H])[H])C4([H])[H])C2([H])[H])c(N([H])C(=O)N2C([H])([H])C([H])([H])C([H])([H])C([H])(n3nc(-c4c([H])c([H])c(Oc5c([H])c([H])c(F)c([H])c5F)c([H])c4[H])c(C(=O)N([H])[H])c3N([H])[H])C2([H])[H])c1[H]

$$$$
74:0:0
     RDKit          3D

 96104  0  0  1  0  0  0  0  0999 V2000
  -29.8960  -21.7170   21.1830 C   0  0  0  0  0  3  0  0  0  0  0  0
  -30.3170  -20.9880   19.8630 C   0  0  0  0  0  0  0  0  0  0  0  0
  -30.6640  -21.6550   18.8880 O   0  0  0  0  0  0  0  0  0  0  0  0
  -29.6540  -18.3540   20.3320 C   0  0  0  0  0  3  0  0  0  0  0  0
  -31.3720  -18.8870   19.0280 C   0  0  0  0  0  3  0  0  0  0  0  0
  -30.3880  -19.4730   19.7870 C   0  0  0  0  0  0  0  0  0  0  0  0
  -30.2870  -17.2070   19.9010 C   0  0  0  0  0  0  0  0  0  0  0  0
  -31.3350  -17.5230   19.0930 O   0  0  0  0  0  0  0  0  0  0  0  0
  -30.6890  -14.7890   20.0700 C   0  0  0  0  0  0  0  0  0  0  0  0
  -30.4380  -12.4900   19.2160 C   0  0  0  0  0  2  0  0  0  0  0  0
  -29.4830  -12.5230   18.0070 C   0  0  0  0  0  2  0  0  0  0  0  0
  -28.0230  -12.3710   18.4800 C   0  0  0  0  0  2  0  0  0  0  0  0
  -27.6580  -13.3360   19.6430 C   0  0  0  0  0  3  0  0  0  0  0  0
  -28.7400  -13.3100   20.7470 C   0  0  0  0  0  2  0  0  0  0  0  0
  -30.0380  -13.5900   20.1140 N   0  0  0  0  0  0  0  0  0  0  0  0
  -31.8720  -14.8580   19.7270 O   0  0  0  0  0  0  0  0  0  0  0  0
  -29.9260  -15.9090   20.1930 N   0  0  0  0  0  0  0  0  0  0  0  0
  -28.9600  -15.7560   20.4260 H   0  0  0  0  0  0  0  0  0  0  0  0
  -25.2960  -13.9370   20.4720 C   0  0  0  0  0  0  0  0  0  0  0  0
  -24.2400  -13.1630   20.8680 C   0  0  0  0  0  0  0  0  0  0  0  0
  -24.6900  -11.8080   20.7860 C   0  0  0  0  0  0  0  0  0  0  0  0
  -26.3250  -13.0560   20.1760 N   0  0  0  0  0  0  0  0  0  0  0  0
  -25.9680  -11.7700   20.4290 N   0  0  0  0  0  0  0  0  0  0  0  0
  -23.9610  -10.5470   20.9760 C   0  0  0  0  0  0  0  0  0  0  0  0
  -24.4080   -9.5610   21.8830 C   0  0  0  0  0  3  0  0  0  0  0  0
  -23.6810   -8.3650   22.0580 C   0  0  0  0  0  3  0  0  0  0  0  0
  -22.4890   -8.1450   21.3280 C   0  0  0  0  0  0  0  0  0  0  0  0
  -22.0610   -9.1180   20.4080 C   0  0  0  0  0  3  0  0  0  0  0  0
  -22.7900  -10.3070   20.2280 C   0  0  0  0  0  3  0  0  0  0  0  0
  -21.7300   -7.0030   21.4150 O   0  0  0  0  0  0  0  0  0  0  0  0
  -21.6960   -6.2470   22.5610 C   0  0  0  0  0  0  0  0  0  0  0  0
  -21.2930   -6.7900   23.8010 C   0  0  0  0  0  3  0  0  0  0  0  0
  -21.2050   -5.9610   24.9360 C   0  0  0  0  0  3  0  0  0  0  0  0
  -21.5110   -4.5910   24.8360 C   0  0  0  0  0  0  0  0  0  0  0  0
  -21.9070   -4.0490   23.6000 C   0  0  0  0  0  3  0  0  0  0  0  0
  -21.9980   -4.8740   22.4660 C   0  0  0  0  0  0  0  0  0  0  0  0
  -22.3600   -4.3410   21.2740 F   0  0  0  0  0  0  0  0  0  0  0  0
  -21.4190   -3.7920   25.9240 F   0  0  0  0  0  0  0  0  0  0  0  0
  -22.8550  -13.6430   21.2020 C   0  0  0  0  0  0  0  0  0  0  0  0
  -22.1540  -12.9410   22.0870 N   0  0  0  0  0  0  0  0  0  0  0  0
  -22.4050  -14.6770   20.7110 O   0  0  0  0  0  0  0  0  0  0  0  0
  -22.5280  -12.1060   22.5130 H   0  0  0  0  0  0  0  0  0  0  0  0
  -21.2250  -13.2460   22.3450 H   0  0  0  0  0  0  0  0  0  0  0  0
  -25.4610  -15.3100   20.3150 N   0  0  0  0  0  0  0  0  0  0  0  0
  -24.6960  -15.9590   20.4620 H   0  0  0  0  0  0  0  0  0  0  0  0
  -26.2870  -15.7550   19.9360 H   0  0  0  0  0  0  0  0  0  0  0  0
  -30.9660  -21.4030   22.2810 C   0  0  0  0  0  2  0  0  0  0  0  0
  -29.6450  -20.9290   24.4120 C   0  0  0  0  0  1  0  0  0  0  0  0
  -31.9190  -21.9910   24.5620 C   0  0  0  0  0  1  0  0  0  0  0  0
  -30.6390  -21.8710   23.7200 C   0  0  0  0  0  3  0  0  0  0  0  0
  -29.6720  -23.3050   21.1770 C   0  0  0  0  0  2  0  0  0  0  0  0
  -27.6830  -23.3200   19.5760 C   0  0  0  0  0  1  0  0  0  0  0  0
  -29.7810  -24.5980   18.9510 C   0  0  0  0  0  1  0  0  0  0  0  0
  -28.8640  -24.1510   20.1090 C   0  0  2  0  0  0  0  0  0  0  0  0
  -28.3160  -25.4810   20.7740 C   0  0  0  0  0  2  0  0  0  0  0  0
  -28.3550  -26.6910   19.9670 O   0  0  0  0  0  0  0  0  0  0  0  0
  -24.6400  -31.8080   23.3140 C   0  0  0  0  0  0  0  0  0  0  0  0
  -27.2190  -27.4770   20.0170 C   0  0  0  0  0  0  0  0  0  0  0  0
  -23.4070  -30.4800   21.6280 C   0  0  0  0  0  3  0  0  0  0  0  0
  -24.8370  -29.0040   20.1140 C   0  0  0  0  0  0  0  0  0  0  0  0
  -25.9330  -30.8460   21.4090 C   0  0  0  0  0  2  0  0  0  0  0  0
  -26.0110  -29.5070   20.6950 C   0  0  0  0  0  0  0  0  0  0  0  0
  -27.2140  -28.7590   20.6260 C   0  0  0  0  0  3  0  0  0  0  0  0
  -26.0290  -26.9980   19.4330 C   0  0  0  0  0  3  0  0  0  0  0  0
  -24.8420  -27.7520   19.4760 C   0  0  0  0  0  3  0  0  0  0  0  0
  -23.5970  -29.8630   20.2150 C   0  0  0  0  0  2  0  0  0  0  0  0
  -24.6770  -31.0570   22.1740 N   0  0  0  0  0  0  0  0  0  0  0  0
  -23.5690  -32.0560   23.8860 O   0  0  0  0  0  0  0  0  0  0  0  0
  -22.7680  -29.4180   22.5570 C   0  0  0  0  0  0  0  0  0  0  0  0
  -21.4540  -29.1910   22.3960 N   0  0  0  0  0  0  0  0  0  0  0  0
  -23.4550  -28.8040   23.3780 O   0  0  0  0  0  0  0  0  0  0  0  0
  -20.9570  -29.7500   21.7150 H   0  0  0  0  0  0  0  0  0  0  0  0
  -18.1340  -27.7970   22.7320 C   0  0  0  0  0  0  0  0  0  0  0  0
  -20.6540  -28.2100   23.1340 C   0  0  0  0  0  3  0  0  0  0  0  0
  -20.8700  -26.7840   22.5790 C   0  0  0  0  0  2  0  0  0  0  0  0
  -19.8460  -26.3900   21.5090 C   0  0  0  0  0  2  0  0  0  0  0  0
  -18.4270  -26.4570   22.0780 C   0  0  0  0  0  2  0  0  0  0  0  0
  -19.1800  -28.6280   23.2130 C   0  0  0  0  0  0  0  0  0  0  0  0
  -18.8550  -29.8790   23.7800 C   0  0  0  0  0  3  0  0  0  0  0  0
  -17.5160  -30.3040   23.8690 C   0  0  0  0  0  3  0  0  0  0  0  0
  -16.4830  -29.4710   23.4050 C   0  0  0  0  0  3  0  0  0  0  0  0
  -16.7920  -28.2190   22.8430 C   0  0  0  0  0  3  0  0  0  0  0  0
  -25.9380  -32.4110   23.9380 C   0  0  0  0  0  3  0  0  0  0  0  0
  -25.6460  -33.8020   24.3130 N   0  0  0  0  0  0  0  0  0  0  0  0
  -25.9890  -34.8730   23.5850 C   0  0  0  0  0  0  0  0  0  0  0  0
  -26.6630  -34.7960   22.5540 O   0  0  0  0  0  0  0  0  0  0  0  0
  -25.0630  -33.9360   25.1260 H   0  0  0  0  0  0  0  0  0  0  0  0
  -24.2790  -36.6890   23.2800 C   0  0  0  0  0  1  0  0  0  0  0  0
  -25.5130  -36.2520   24.0840 C   0  0  0  0  0  3  0  0  0  0  0  0
  -27.6590  -37.0850   24.9440 C   0  0  0  0  0  1  0  0  0  0  0  0
  -26.5560  -37.3000   24.0090 N   0  0  0  0  0  0  0  0  0  0  0  0
  -26.1570  -38.2160   24.1950 H   0  0  0  0  0  0  0  0  0  0  0  0
  -26.4650  -31.6010   25.1870 C   0  0  1  0  0  0  0  0  0  0  0  0
  -25.3850  -31.3470   26.2620 C   0  0  0  0  0  1  0  0  0  0  0  0
  -27.0240  -30.2260   24.7520 C   0  0  0  0  0  1  0  0  0  0  0  0
  -27.6380  -32.3580   25.8540 C   0  0  0  0  0  1  0  0  0  0  0  0
  1 51  1  0
  1 47  1  0
  2  1  1  0
  3  2  2  0
  5  8  1  0
  5  6  2  0
  6  2  1  0
  6  4  1  0
  7 17  1  0
  7  4  2  0
  8  7  1  0
  9 15  1  0
  9 17  1  0
 10 15  1  0
 11 12  1  0
 11 10  1  0
 13 12  1  0
 13 22  1  0
 13 14  1  0
 15 14  1  0
 16  9  2  0
 17 18  1  0
 19 20  2  0
 20 39  1  0
 21 20  1  0
 21 24  1  0
 22 23  1  0
 22 19  1  0
 23 21  2  0
 24 25  1  0
 25 26  2  0
 27 30  1  0
 27 26  1  0
 28 27  2  0
 29 28  1  0
 29 24  2  0
 30 31  1  0
 31 32  1  0
 32 33  2  0
 34 33  1  0
 34 38  1  0
 35 34  2  0
 36 31  2  0
 36 35  1  0
 37 36  1  0
 39 40  1  0
 40 43  1  0
 40 42  1  0
 41 39  2  0
 44 45  1  0
 44 19  1  0
 46 44  1  0
 47 50  1  0
 50 48  1  0
 50 49  1  0
 54 52  1  6
 53 54  1  0
 54 55  1  0
 54 51  1  0
 56 58  1  0
 56 55  1  0
 57 68  2  0
 58 63  1  0
 59 67  1  0
 59 69  1  0
 60 66  1  0
 60 62  1  0
 61 67  1  0
 62 61  1  0
 63 62  2  0
 64 65  1  0
 64 58  2  0
 65 60  2  0
 66 59  1  0
 67 57  1  0
 69 71  2  0
 70 69  1  0
 72 70  1  0
 73 82  2  0
 73 78  1  0
 74 70  1  0
 74 78  1  0
 75 74  1  0
 76 77  1  0
 76 75  1  0
 77 73  1  0
 78 79  2  0
 79 80  1  0
 81 80  2  0
 82 81  1  0
 83 57  1  0
 83 84  1  0
 83 93  1  0
 84 87  1  0
 85 89  1  0
 85 84  1  0
 86 85  2  0
 89 88  1  0
 91 89  1  0
 91 92  1  0
 91 90  1  0
 93 96  1  1
 93 94  1  0
 95 93  1  0
M  ISO  4   9 100  17 100  55 101  56 101
M  END
>  <TORSDO>  (75) 
F 23

>  <SCORE>  (75) 
-12.254

>  <name>  (75) 
74

>  <ligand_id>  (75) 
74

>  <original_smiles>  (75) 
[H]c1oc(N([H])C(=O)N2C([H])([H])C([H])([H])C([H])([H])C([H])(n3nc(-c4c([H])c([H])c(Oc5c([H])c([H])c(F)c([H])c5F)c([H])c4[H])c(C(=O)N([H])[H])c3N([H])[H])C2([H])[H])c([H])c1C(=O)C([H])(C([H])([H])C([H])(C([H])([H])[H])C([H])([H])[H])C([H])([H])C(C([H])([H])[H])(C([H])([H])[H])C([H])([H])Oc1c([H])c([H])c2c(c1[H])C([H])([H])N(C(=O)C([H])(N([H])C(=O)C([H])(N([H])C([H])([H])[H])C([H])([H])[H])C(C([H])([H])[H])(C([H])([H])[H])C([H])([H])[H])C([H])(C(=O)N([H])C1([H])c3c([H])c([H])c([H])c([H])c3C([H])([H])C([H])([H])C1([H])[H])C2([H])[H]

>  <smiles>  (75) 
[H]c1oc(N([H])C(=O)N2C([H])([H])C([H])([H])C([H])([H])C([H])(n3nc(-c4c([H])c([H])c(Oc5c([H])c([H])c(F)c([H])c5F)c([H])c4[H])c(C(=O)N([H])[H])c3N([H])[H])C2([H])[H])c([H])c1C(=O)C([H])(C([H])([H])C([H])(C([H])([H])[H])C([H])([H])[H])C([H])([H])C(C([H])([H])[H])(C([H])([H])[H])C([H])([H])Oc1c([H])c([H])c2c(c1[H])C([H])([H])N(C(=O)C([H])(N([H])C(=O)C([H])(N([H])C([H])([H])[H])C([H])([H])[H])C(C([H])([H])[H])(C([H])([H])[H])C([H])([H])[H])C([H])(C(=O)N([H])C1([H])c3c([H])c([H])c([H])c([H])c3C([H])([H])C([H])([H])C1([H])[H])C2([H])[H]

$$$$
75:0:0
     RDKit          3D

 93101  0  0  1  0  0  0  0  0999 V2000
  -25.6920  -22.3060   19.7110 C   0  0  0  0  0  1  0  0  0  0  0  0
  -27.7170  -21.7730   21.0970 C   0  0  0  0  0  1  0  0  0  0  0  0
  -27.2050  -21.9920   19.6530 C   0  0  2  0  0  0  0  0  0  0  0  0
  -27.9680  -23.1980   19.0340 C   0  0  0  0  0  0  0  0  0  0  0  0
  -28.6880  -23.0610   18.0410 O   0  0  0  0  0  0  0  0  0  0  0  0
  -27.8240  -24.5620   19.7310 C   0  0  0  0  0  2  0  0  0  0  0  0
  -28.4490  -26.1050   17.6260 C   0  0  0  0  0  1  0  0  0  0  0  0
  -28.5870  -25.7800   19.1330 C   0  0  0  0  0  3  0  0  0  0  0  0
  -28.3800  -26.9620   19.9220 O   0  0  0  0  0  0  0  0  0  0  0  0
  -24.5720  -31.9870   23.2190 C   0  0  0  0  0  0  0  0  0  0  0  0
  -27.1670  -27.6300   19.9590 C   0  0  0  0  0  0  0  0  0  0  0  0
  -23.3300  -30.6080   21.5860 C   0  0  0  0  0  3  0  0  0  0  0  0
  -24.7540  -29.1160   20.0950 C   0  0  0  0  0  0  0  0  0  0  0  0
  -25.8520  -30.9790   21.3390 C   0  0  0  0  0  2  0  0  0  0  0  0
  -25.9220  -29.6230   20.6720 C   0  0  0  0  0  0  0  0  0  0  0  0
  -27.1250  -28.8800   20.6210 C   0  0  0  0  0  3  0  0  0  0  0  0
  -25.9720  -27.1460   19.3700 C   0  0  0  0  0  3  0  0  0  0  0  0
  -24.7720  -27.8710   19.4500 C   0  0  0  0  0  3  0  0  0  0  0  0
  -23.5050  -29.9590   20.1890 C   0  0  0  0  0  2  0  0  0  0  0  0
  -24.6040  -31.2060   22.1040 N   0  0  0  0  0  0  0  0  0  0  0  0
  -23.5050  -32.2460   23.7920 O   0  0  0  0  0  0  0  0  0  0  0  0
  -22.7180  -29.5580   22.5410 C   0  0  0  0  0  0  0  0  0  0  0  0
  -21.3960  -29.3550   22.4310 N   0  0  0  0  0  0  0  0  0  0  0  0
  -23.4260  -28.9330   23.3350 O   0  0  0  0  0  0  0  0  0  0  0  0
  -20.8850  -29.9090   21.7560 H   0  0  0  0  0  0  0  0  0  0  0  0
  -18.0520  -28.0920   22.9490 C   0  0  0  0  0  0  0  0  0  0  0  0
  -20.6060  -28.3970   23.2020 C   0  0  0  0  0  3  0  0  0  0  0  0
  -20.7320  -26.9710   22.6150 C   0  0  0  0  0  2  0  0  0  0  0  0
  -19.6270  -26.6340   21.6090 C   0  0  0  0  0  2  0  0  0  0  0  0
  -18.2480  -26.7510   22.2640 C   0  0  0  0  0  2  0  0  0  0  0  0
  -19.1590  -28.8720   23.3740 C   0  0  0  0  0  0  0  0  0  0  0  0
  -18.9200  -30.1300   23.9700 C   0  0  0  0  0  3  0  0  0  0  0  0
  -17.6050  -30.6060   24.1450 C   0  0  0  0  0  3  0  0  0  0  0  0
  -16.5130  -29.8200   23.7380 C   0  0  0  0  0  3  0  0  0  0  0  0
  -16.7370  -28.5650   23.1450 C   0  0  0  0  0  3  0  0  0  0  0  0
  -25.8740  -32.6110   23.8150 C   0  0  0  0  0  3  0  0  0  0  0  0
  -25.5730  -34.0060   24.1610 N   0  0  0  0  0  0  0  0  0  0  0  0
  -25.8920  -35.0620   23.4020 C   0  0  0  0  0  0  0  0  0  0  0  0
  -26.5430  -34.9640   22.3590 O   0  0  0  0  0  0  0  0  0  0  0  0
  -24.9950  -34.1570   24.9760 H   0  0  0  0  0  0  0  0  0  0  0  0
  -24.1660  -36.8580   23.0800 C   0  0  0  0  0  1  0  0  0  0  0  0
  -25.4120  -36.4450   23.8790 C   0  0  0  0  0  3  0  0  0  0  0  0
  -27.5560  -37.3150   24.7020 C   0  0  0  0  0  1  0  0  0  0  0  0
  -26.4450  -37.4980   23.7690 N   0  0  0  0  0  0  0  0  0  0  0  0
  -26.0430  -38.4170   23.9340 H   0  0  0  0  0  0  0  0  0  0  0  0
  -26.4270  -31.8300   25.0690 C   0  0  1  0  0  0  0  0  0  0  0  0
  -25.3600  -31.5710   26.1580 C   0  0  0  0  0  1  0  0  0  0  0  0
  -27.0120  -30.4610   24.6490 C   0  0  0  0  0  1  0  0  0  0  0  0
  -27.5910  -32.6240   25.7090 C   0  0  0  0  0  1  0  0  0  0  0  0
  -27.3920  -20.6970   18.7920 C   0  0  0  0  0  2  0  0  0  0  0  0
  -28.5360  -18.4830   19.6720 C   0  0  0  0  0  3  0  0  0  0  0  0
  -29.8940  -20.1480   19.1230 C   0  0  0  0  0  3  0  0  0  0  0  0
  -28.5680  -19.8220   19.1790 C   0  0  0  0  0  0  0  0  0  0  0  0
  -29.8340  -18.0930   19.8600 C   0  0  0  0  0  0  0  0  0  0  0  0
  -30.6700  -19.1170   19.5410 O   0  0  0  0  0  0  0  0  0  0  0  0
  -30.5280  -16.8710   20.2130 C   0  0  0  0  0  2  0  0  0  0  0  0
  -29.9950  -15.7480   20.5290 N   0  0  0  0  0  2  0  0  0  0  0  0
  -30.8180  -14.6320   20.3830 C   0  0  0  0  0  0  0  0  0  0  0  0
  -30.5090  -12.4390   19.3430 C   0  0  0  0  0  2  0  0  0  0  0  0
  -29.5930  -12.6480   18.1170 C   0  0  0  0  0  2  0  0  0  0  0  0
  -28.1110  -12.5240   18.5240 C   0  0  0  0  0  2  0  0  0  0  0  0
  -27.7570  -13.3930   19.7590 C   0  0  0  0  0  3  0  0  0  0  0  0
  -28.7960  -13.2150   20.8870 C   0  0  0  0  0  2  0  0  0  0  0  0
  -30.1400  -13.4560   20.3380 N   0  0  0  0  0  0  0  0  0  0  0  0
  -32.0130  -14.6750   20.0700 O   0  0  0  0  0  0  0  0  0  0  0  0
  -25.3490  -14.0070   20.4330 C   0  0  0  0  0  0  0  0  0  0  0  0
  -24.2770  -13.2400   20.7950 C   0  0  0  0  0  0  0  0  0  0  0  0
  -24.7400  -11.8880   20.7930 C   0  0  0  0  0  0  0  0  0  0  0  0
  -26.3990  -13.1260   20.2300 N   0  0  0  0  0  0  0  0  0  0  0  0
  -26.0340  -11.8470   20.5070 N   0  0  0  0  0  0  0  0  0  0  0  0
  -24.0130  -10.6270   20.9900 C   0  0  0  0  0  0  0  0  0  0  0  0
  -24.4360   -9.6700   21.9380 C   0  0  0  0  0  3  0  0  0  0  0  0
  -23.7050   -8.4750   22.1210 C   0  0  0  0  0  3  0  0  0  0  0  0
  -22.5420   -8.2280   21.3560 C   0  0  0  0  0  0  0  0  0  0  0  0
  -22.1390   -9.1760   20.3980 C   0  0  0  0  0  3  0  0  0  0  0  0
  -22.8690  -10.3610   20.2120 C   0  0  0  0  0  3  0  0  0  0  0  0
  -21.7870   -7.0830   21.4490 O   0  0  0  0  0  0  0  0  0  0  0  0
  -21.7340   -6.3480   22.6050 C   0  0  0  0  0  0  0  0  0  0  0  0
  -21.3050   -6.9120   23.8260 C   0  0  0  0  0  3  0  0  0  0  0  0
  -21.1940   -6.1030   24.9750 C   0  0  0  0  0  3  0  0  0  0  0  0
  -21.5070   -4.7320   24.9040 C   0  0  0  0  0  0  0  0  0  0  0  0
  -21.9340   -4.1680   23.6880 C   0  0  0  0  0  3  0  0  0  0  0  0
  -22.0420   -4.9730   22.5420 C   0  0  0  0  0  0  0  0  0  0  0  0
  -22.4310   -4.4210   21.3670 F   0  0  0  0  0  0  0  0  0  0  0  0
  -21.3960   -3.9530   26.0060 F   0  0  0  0  0  0  0  0  0  0  0  0
  -22.8740  -13.7180   21.0370 C   0  0  0  0  0  0  0  0  0  0  0  0
  -22.1340  -13.0330   21.9010 N   0  0  0  0  0  0  0  0  0  0  0  0
  -22.4430  -14.7370   20.4940 O   0  0  0  0  0  0  0  0  0  0  0  0
  -22.4960  -12.2070   22.3560 H   0  0  0  0  0  0  0  0  0  0  0  0
  -21.1940  -13.3370   22.1090 H   0  0  0  0  0  0  0  0  0  0  0  0
  -25.5160  -15.3760   20.2400 N   0  0  0  0  0  0  0  0  0  0  0  0
  -24.7590  -16.0400   20.3450 H   0  0  0  0  0  0  0  0  0  0  0  0
  -26.3920  -15.8060   19.9730 H   0  0  0  0  0  0  0  0  0  0  0  0
  3  1  1  1
  3  2  1  0
  4  3  1  0
  4  6  1  0
  5  4  2  0
  8  7  1  0
  8  6  1  0
  8  9  1  0
  9 11  1  0
 10 21  2  0
 11 16  1  0
 12 20  1  0
 12 22  1  0
 13 19  1  0
 13 15  1  0
 14 20  1  0
 15 14  1  0
 16 15  2  0
 17 18  1  0
 17 11  2  0
 18 13  2  0
 19 12  1  0
 20 10  1  0
 22 24  2  0
 23 22  1  0
 25 23  1  0
 26 35  2  0
 26 31  1  0
 27 23  1  0
 27 31  1  0
 28 27  1  0
 29 30  1  0
 29 28  1  0
 30 26  1  0
 31 32  2  0
 32 33  1  0
 34 33  2  0
 35 34  1  0
 36 10  1  0
 36 37  1  0
 36 46  1  0
 37 40  1  0
 38 42  1  0
 38 37  1  0
 39 38  2  0
 42 41  1  0
 44 42  1  0
 44 45  1  0
 44 43  1  0
 46 49  1  1
 46 47  1  0
 48 46  1  0
 50 53  1  0
 50  3  1  0
 51 54  2  0
 52 53  2  0
 52 55  1  0
 53 51  1  0
 54 56  1  0
 55 54  1  0
 56 57  1  0
 58 57  1  0
 59 64  1  0
 60 61  1  0
 60 59  1  0
 62 61  1  0
 62 69  1  0
 62 63  1  0
 64 58  1  0
 64 63  1  0
 65 58  2  0
 66 67  2  0
 67 86  1  0
 68 67  1  0
 68 71  1  0
 69 66  1  0
 69 70  1  0
 70 68  2  0
 71 72  1  0
 72 73  2  0
 74 77  1  0
 74 73  1  0
 75 74  2  0
 76 75  1  0
 76 71  2  0
 77 78  1  0
 78 79  1  0
 79 80  2  0
 81 80  1  0
 81 85  1  0
 82 81  2  0
 83 78  2  0
 83 82  1  0
 84 83  1  0
 86 87  1  0
 87 90  1  0
 87 89  1  0
 88 86  2  0
 91 92  1  0
 91 66  1  0
 93 91  1  0
M  ISO  4   8 101   9 101  57 100  58 100
M  END
>  <TORSDO>  (76) 
F 22

>  <SCORE>  (76) 
-12.872

>  <name>  (76) 
75

>  <ligand_id>  (76) 
75

>  <original_smiles>  (76) 
[H]C(=NC(=O)N1C([H])([H])C([H])([H])C([H])([H])C([H])(n2nc(-c3c([H])c([H])c(Oc4c([H])c([H])c(F)c([H])c4F)c([H])c3[H])c(C(=O)N([H])[H])c2N([H])[H])C1([H])[H])c1oc([H])c(C([H])([H])C(C(=O)C([H])([H])C([H])(Oc2c([H])c([H])c3c(c2[H])C([H])([H])N(C(=O)C([H])(N([H])C(=O)C([H])(N([H])C([H])([H])[H])C([H])([H])[H])C(C([H])([H])[H])(C([H])([H])[H])C([H])([H])[H])C([H])(C(=O)N([H])C2([H])c4c([H])c([H])c([H])c([H])c4C([H])([H])C([H])([H])C2([H])[H])C3([H])[H])C([H])([H])[H])(C([H])([H])[H])C([H])([H])[H])c1[H]

>  <smiles>  (76) 
[H]C(=NC(=O)N1C([H])([H])C([H])([H])C([H])([H])C([H])(n2nc(-c3c([H])c([H])c(Oc4c([H])c([H])c(F)c([H])c4F)c([H])c3[H])c(C(=O)N([H])[H])c2N([H])[H])C1([H])[H])c1oc([H])c(C([H])([H])C(C(=O)C([H])([H])C([H])(Oc2c([H])c([H])c3c(c2[H])C([H])([H])N(C(=O)C([H])(N([H])C(=O)C([H])(N([H])C([H])([H])[H])C([H])([H])[H])C(C([H])([H])[H])(C([H])([H])[H])C([H])([H])[H])C([H])(C(=O)N([H])C2([H])c4c([H])c([H])c([H])c([H])c4C([H])([H])C([H])([H])C2([H])[H])C3([H])[H])C([H])([H])[H])(C([H])([H])[H])C([H])([H])[H])c1[H]

$$$$
76:0:0
     RDKit          3D

 95104  0  0  1  0  0  0  0  0999 V2000
  -29.3250  -22.2490   20.5060 C   0  0  0  0  0  2  0  0  0  0  0  0
  -30.9420  -18.1210   23.0230 C   0  0  0  0  0  3  0  0  0  0  0  0
  -30.9190  -17.0660   22.1090 C   0  0  0  0  0  3  0  0  0  0  0  0
  -30.3520  -18.6700   20.3190 C   0  0  0  0  0  3  0  0  0  0  0  0
  -30.7190  -19.4320   22.5750 C   0  0  0  0  0  0  0  0  0  0  0  0
  -30.4160  -19.8080   21.2540 C   0  0  0  0  0  0  0  0  0  0  0  0
  -30.6430  -17.2790   20.7440 C   0  0  0  0  0  0  0  0  0  0  0  0
  -30.8440  -20.5870   23.4870 C   0  0  0  0  0  2  0  0  0  0  0  0
  -30.7770  -21.7400   22.5050 C   0  0  0  0  0  2  0  0  0  0  0  0
  -30.3270  -21.2870   21.1690 N   0  0  0  0  0  0  0  0  0  0  0  0
  -31.2730  -14.8450   19.9770 C   0  0  0  0  0  0  0  0  0  0  0  0
  -30.9700  -12.5650   18.9770 C   0  0  0  0  0  2  0  0  0  0  0  0
  -29.9930  -12.6520   17.7840 C   0  0  0  0  0  2  0  0  0  0  0  0
  -28.5270  -12.5680   18.2670 C   0  0  0  0  0  2  0  0  0  0  0  0
  -28.2300  -13.4800   19.4840 C   0  0  0  0  0  3  0  0  0  0  0  0
  -29.3150  -13.3470   20.5700 C   0  0  0  0  0  2  0  0  0  0  0  0
  -30.5960  -13.6450   19.9170 N   0  0  0  0  0  0  0  0  0  0  0  0
  -32.4760  -14.8790   19.7020 O   0  0  0  0  0  0  0  0  0  0  0  0
  -30.5020  -16.0070   19.9890 N   0  0  0  0  0  0  0  0  0  0  0  0
  -29.5300  -15.7550   19.8790 H   0  0  0  0  0  0  0  0  0  0  0  0
  -25.9140  -14.2150   20.3030 C   0  0  0  0  0  0  0  0  0  0  0  0
  -24.8100  -13.5050   20.6990 C   0  0  0  0  0  0  0  0  0  0  0  0
  -25.1880  -12.1300   20.6450 C   0  0  0  0  0  0  0  0  0  0  0  0
  -26.8880  -13.2730   20.0160 N   0  0  0  0  0  0  0  0  0  0  0  0
  -26.4610  -12.0120   20.2840 N   0  0  0  0  0  0  0  0  0  0  0  0
  -24.3860  -10.9160   20.8500 C   0  0  0  0  0  0  0  0  0  0  0  0
  -24.7580   -9.9350   21.7950 C   0  0  0  0  0  3  0  0  0  0  0  0
  -23.9580   -8.7870   21.9820 C   0  0  0  0  0  3  0  0  0  0  0  0
  -22.7790   -8.6110   21.2210 C   0  0  0  0  0  0  0  0  0  0  0  0
  -22.4300   -9.5770   20.2640 C   0  0  0  0  0  3  0  0  0  0  0  0
  -23.2260  -10.7190   20.0740 C   0  0  0  0  0  3  0  0  0  0  0  0
  -21.9490   -7.5210   21.3210 O   0  0  0  0  0  0  0  0  0  0  0  0
  -21.8000   -6.8380   22.5020 C   0  0  0  0  0  0  0  0  0  0  0  0
  -21.3610   -7.4770   23.6800 C   0  0  0  0  0  3  0  0  0  0  0  0
  -21.1510   -6.7230   24.8530 C   0  0  0  0  0  3  0  0  0  0  0  0
  -21.3680   -5.3340   24.8490 C   0  0  0  0  0  0  0  0  0  0  0  0
  -21.8010   -4.6950   23.6740 C   0  0  0  0  0  3  0  0  0  0  0  0
  -22.0150   -5.4440   22.5040 C   0  0  0  0  0  0  0  0  0  0  0  0
  -22.4100   -4.8180   21.3680 F   0  0  0  0  0  0  0  0  0  0  0  0
  -21.1650   -4.6080   25.9740 F   0  0  0  0  0  0  0  0  0  0  0  0
  -23.4580  -14.0740   21.0160 C   0  0  0  0  0  0  0  0  0  0  0  0
  -22.7170  -13.4340   21.9160 N   0  0  0  0  0  0  0  0  0  0  0  0
  -23.0660  -15.1190   20.5000 O   0  0  0  0  0  0  0  0  0  0  0  0
  -23.0450  -12.5880   22.3620 H   0  0  0  0  0  0  0  0  0  0  0  0
  -21.8060  -13.7980   22.1640 H   0  0  0  0  0  0  0  0  0  0  0  0
  -26.1490  -15.5740   20.1360 N   0  0  0  0  0  0  0  0  0  0  0  0
  -25.4100  -16.2550   20.2830 H   0  0  0  0  0  0  0  0  0  0  0  0
  -26.9890  -15.9950   19.7640 H   0  0  0  0  0  0  0  0  0  0  0  0
  -30.9660  -24.1100   19.8700 C   0  0  0  0  0  1  0  0  0  0  0  0
  -29.5690  -24.6130   21.8320 C   0  0  0  0  0  1  0  0  0  0  0  0
  -29.5340  -23.9290   20.4450 C   0  0  2  0  0  0  0  0  0  0  0  0
  -27.1820  -23.9980   19.3830 C   0  0  0  0  0  1  0  0  0  0  0  0
  -28.9400  -25.2470   18.2070 C   0  0  0  0  0  1  0  0  0  0  0  0
  -28.4270  -24.8800   19.6160 C   0  0  2  0  0  0  0  0  0  0  0  0
  -28.2000  -26.3190   20.1190 O   0  0  0  0  0  0  0  0  0  0  0  0
  -24.5920  -31.8740   23.1440 C   0  0  0  0  0  0  0  0  0  0  0  0
  -27.0740  -27.1960   20.0320 C   0  0  0  0  0  0  0  0  0  0  0  0
  -23.3420  -30.4820   21.5390 C   0  0  0  0  0  3  0  0  0  0  0  0
  -24.7390  -28.9100   20.0820 C   0  0  0  0  0  0  0  0  0  0  0  0
  -25.8890  -30.7370   21.3150 C   0  0  0  0  0  2  0  0  0  0  0  0
  -25.9320  -29.3530   20.6650 C   0  0  0  0  0  0  0  0  0  0  0  0
  -27.0910  -28.5090   20.6300 C   0  0  0  0  0  3  0  0  0  0  0  0
  -25.8420  -26.8420   19.4250 C   0  0  0  0  0  3  0  0  0  0  0  0
  -24.7060  -27.6670   19.4500 C   0  0  0  0  0  3  0  0  0  0  0  0
  -23.5170  -29.8020   20.1590 C   0  0  0  0  0  2  0  0  0  0  0  0
  -24.6300  -31.0520   22.0520 N   0  0  0  0  0  0  0  0  0  0  0  0
  -23.5220  -32.1680   23.6970 O   0  0  0  0  0  0  0  0  0  0  0  0
  -22.6830  -29.4780   22.5170 C   0  0  0  0  0  0  0  0  0  0  0  0
  -21.3570  -29.2930   22.3950 N   0  0  0  0  0  0  0  0  0  0  0  0
  -23.3620  -28.8700   23.3510 O   0  0  0  0  0  0  0  0  0  0  0  0
  -20.8670  -29.8230   21.6860 H   0  0  0  0  0  0  0  0  0  0  0  0
  -17.9960  -28.0560   22.8840 C   0  0  0  0  0  0  0  0  0  0  0  0
  -20.5430  -28.3710   23.1900 C   0  0  0  0  0  3  0  0  0  0  0  0
  -20.6840  -26.9240   22.6600 C   0  0  0  0  0  2  0  0  0  0  0  0
  -19.6040  -26.5490   21.6430 C   0  0  0  0  0  2  0  0  0  0  0  0
  -18.2100  -26.6900   22.2600 C   0  0  0  0  0  2  0  0  0  0  0  0
  -19.0920  -28.8520   23.3080 C   0  0  0  0  0  0  0  0  0  0  0  0
  -18.8390  -30.1300   23.8560 C   0  0  0  0  0  3  0  0  0  0  0  0
  -17.5220  -30.6080   23.9920 C   0  0  0  0  0  3  0  0  0  0  0  0
  -16.4390  -29.8070   23.5900 C   0  0  0  0  0  3  0  0  0  0  0  0
  -16.6770  -28.5350   23.0380 C   0  0  0  0  0  3  0  0  0  0  0  0
  -25.8920  -32.5000   23.7380 C   0  0  0  0  0  3  0  0  0  0  0  0
  -26.4480  -31.7080   24.9840 C   0  0  1  0  0  0  0  0  0  0  0  0
  -25.3880  -31.4370   26.0780 C   0  0  0  0  0  1  0  0  0  0  0  0
  -27.0160  -30.3390   24.5490 C   0  0  0  0  0  1  0  0  0  0  0  0
  -27.6240  -32.4850   25.6230 C   0  0  0  0  0  1  0  0  0  0  0  0
  -25.5900  -33.8910   24.1110 N   0  0  0  0  0  0  0  0  0  0  0  0
  -25.9130  -34.9630   23.3770 C   0  0  0  0  0  0  0  0  0  0  0  0
  -26.5630  -34.8880   22.3320 O   0  0  0  0  0  0  0  0  0  0  0  0
  -25.0180  -34.0220   24.9310 H   0  0  0  0  0  0  0  0  0  0  0  0
  -24.1920  -36.7720   23.0890 C   0  0  0  0  0  1  0  0  0  0  0  0
  -25.4360  -36.3420   23.8810 C   0  0  0  0  0  3  0  0  0  0  0  0
  -27.5820  -37.1840   24.7230 C   0  0  0  0  0  1  0  0  0  0  0  0
  -26.4780  -37.3900   23.7930 N   0  0  0  0  0  0  0  0  0  0  0  0
  -26.0810  -38.3080   23.9720 H   0  0  0  0  0  0  0  0  0  0  0  0
  1 10  1  0
  3  2  2  0
  4  7  2  0
  4  6  1  0
  5  2  1  0
  5  8  1  0
  6  5  2  0
  7  3  1  0
  9  8  1  0
 10  6  1  0
 10  9  1  0
 11 19  1  0
 12 17  1  0
 13 14  1  0
 13 12  1  0
 15 14  1  0
 15 24  1  0
 15 16  1  0
 17 11  1  0
 17 16  1  0
 18 11  2  0
 19  7  1  0
 20 19  1  0
 21 22  2  0
 22 41  1  0
 23 22  1  0
 23 26  1  0
 24 25  1  0
 24 21  1  0
 25 23  2  0
 26 27  1  0
 27 28  2  0
 29 32  1  0
 29 28  1  0
 30 29  2  0
 31 30  1  0
 31 26  2  0
 32 33  1  0
 33 38  2  0
 33 34  1  0
 34 35  2  0
 36 35  1  0
 36 40  1  0
 37 36  2  0
 38 37  1  0
 39 38  1  0
 41 42  1  0
 42 45  1  0
 42 44  1  0
 43 41  2  0
 46 47  1  0
 46 21  1  0
 48 46  1  0
 51 49  1  6
 51  1  1  0
 51 50  1  0
 54 52  1  6
 53 54  1  0
 54 55  1  0
 54 51  1  0
 56 67  2  0
 57 55  1  0
 57 62  1  0
 58 66  1  0
 58 68  1  0
 59 65  1  0
 59 61  1  0
 60 66  1  0
 61 60  1  0
 62 61  2  0
 63 64  1  0
 63 57  2  0
 64 59  2  0
 65 58  1  0
 66 56  1  0
 68 70  2  0
 69 68  1  0
 71 69  1  0
 72 81  2  0
 72 77  1  0
 73 69  1  0
 73 77  1  0
 74 73  1  0
 75 76  1  0
 75 74  1  0
 76 72  1  0
 77 78  2  0
 78 79  1  0
 80 79  2  0
 81 80  1  0
 82 56  1  0
 82 87  1  0
 82 83  1  0
 83 86  1  1
 83 84  1  0
 85 83  1  0
 87 90  1  0
 88 92  1  0
 88 87  1  0
 89 88  2  0
 92 91  1  0
 94 92  1  0
 94 95  1  0
 94 93  1  0
M  ISO  4  11 100  19 100  54 101  55 101
M  END
>  <TORSDO>  (77) 
F 19

>  <SCORE>  (77) 
-13.543

>  <name>  (77) 
76

>  <ligand_id>  (77) 
76

>  <original_smiles>  (77) 
[H]c1c([H])c([H])c2c(c1[H])C([H])([H])C([H])([H])C([H])([H])C2([H])N([H])C(=O)C1([H])N(C(=O)C([H])(N([H])C(=O)C([H])(N([H])C([H])([H])[H])C([H])([H])[H])C(C([H])([H])[H])(C([H])([H])[H])C([H])([H])[H])C([H])([H])c2c([H])c(OC(C([H])([H])[H])(C([H])([H])[H])C(C([H])([H])[H])(C([H])([H])[H])C([H])([H])N3c4c([H])c(N([H])C(=O)N5C([H])([H])C([H])([H])C([H])([H])C([H])(n6nc(-c7c([H])c([H])c(Oc8c([H])c([H])c(F)c([H])c8F)c([H])c7[H])c(C(=O)N([H])[H])c6N([H])[H])C5([H])[H])c([H])c([H])c4C([H])([H])C3([H])[H])c([H])c([H])c2C1([H])[H]

>  <smiles>  (77) 
[H]c1c([H])c([H])c2c(c1[H])C([H])([H])C([H])([H])C([H])([H])C2([H])N([H])C(=O)C1([H])N(C(=O)C([H])(N([H])C(=O)C([H])(N([H])C([H])([H])[H])C([H])([H])[H])C(C([H])([H])[H])(C([H])([H])[H])C([H])([H])[H])C([H])([H])c2c([H])c(OC(C([H])([H])[H])(C([H])([H])[H])C(C([H])([H])[H])(C([H])([H])[H])C([H])([H])N3c4c([H])c(N([H])C(=O)N5C([H])([H])C([H])([H])C([H])([H])C([H])(n6nc(-c7c([H])c([H])c(Oc8c([H])c([H])c(F)c([H])c8F)c([H])c7[H])c(C(=O)N([H])[H])c6N([H])[H])C5([H])[H])c([H])c([H])c4C([H])([H])C3([H])[H])c([H])c([H])c2C1([H])[H]

$$$$
77:0:0
     RDKit          3D

 92101  0  0  1  0  0  0  0  0999 V2000
  -29.7990  -18.5580   21.3310 C   0  0  0  0  0  3  0  0  0  0  0  0
  -29.3850  -19.9110   20.8730 C   0  0  0  0  0  0  0  0  0  0  0  0
  -28.9880  -19.8960   19.5720 C   0  0  0  0  0  0  0  0  0  0  0  0
  -29.7410  -17.4820   20.4190 C   0  0  0  0  0  0  0  0  0  0  0  0
  -29.1590  -21.2240   21.6830 C   0  0  0  0  0  2  0  0  0  0  0  0
  -28.2390  -21.0670   18.8940 C   0  0  0  0  0  2  0  0  0  0  0  0
  -29.7060  -22.6560   21.1820 C   0  0  0  0  0  2  0  0  0  0  0  0
  -28.8650  -22.5260   18.7590 C   0  0  0  0  0  2  0  0  0  0  0  0
  -29.1310  -23.5540   19.9670 C   0  0  2  0  0  0  0  0  0  0  0  0
  -30.3190  -24.4150   19.4680 C   0  0  0  0  0  1  0  0  0  0  0  0
  -29.2260  -18.2500   18.8880 S   0  0  0  0  0  0  0  0  0  0  0  0
  -30.5330  -14.9710   20.2280 C   0  0  0  0  0  0  0  0  0  0  0  0
  -30.3740  -12.6550   19.2410 C   0  0  0  0  0  2  0  0  0  0  0  0
  -29.4090  -12.6940   18.0330 C   0  0  0  0  0  2  0  0  0  0  0  0
  -27.9510  -12.5050   18.4910 C   0  0  0  0  0  2  0  0  0  0  0  0
  -27.5950  -13.3790   19.7230 C   0  0  0  0  0  3  0  0  0  0  0  0
  -28.6800  -13.3080   20.8180 C   0  0  0  0  0  2  0  0  0  0  0  0
  -29.9540  -13.7090   20.2020 N   0  0  0  0  0  0  0  0  0  0  0  0
  -31.6870  -15.0960   19.8030 O   0  0  0  0  0  0  0  0  0  0  0  0
  -29.7660  -16.0700   20.6540 N   0  0  0  0  0  0  0  0  0  0  0  0
  -28.9430  -15.7460   21.1420 H   0  0  0  0  0  0  0  0  0  0  0  0
  -25.2340  -13.9530   20.5330 C   0  0  0  0  0  0  0  0  0  0  0  0
  -24.1770  -13.1720   20.9180 C   0  0  0  0  0  0  0  0  0  0  0  0
  -24.6350  -11.8200   20.8470 C   0  0  0  0  0  0  0  0  0  0  0  0
  -26.2660  -13.0750   20.2450 N   0  0  0  0  0  0  0  0  0  0  0  0
  -25.9170  -11.7870   20.4960 N   0  0  0  0  0  0  0  0  0  0  0  0
  -23.9080  -10.5590   21.0350 C   0  0  0  0  0  0  0  0  0  0  0  0
  -24.3460   -9.5830   21.9560 C   0  0  0  0  0  3  0  0  0  0  0  0
  -23.6220   -8.3850   22.1310 C   0  0  0  0  0  3  0  0  0  0  0  0
  -22.4420   -8.1540   21.3830 C   0  0  0  0  0  0  0  0  0  0  0  0
  -22.0230   -9.1170   20.4480 C   0  0  0  0  0  3  0  0  0  0  0  0
  -22.7500  -10.3060   20.2720 C   0  0  0  0  0  3  0  0  0  0  0  0
  -21.6850   -7.0110   21.4700 O   0  0  0  0  0  0  0  0  0  0  0  0
  -21.6150   -6.2790   22.6270 C   0  0  0  0  0  0  0  0  0  0  0  0
  -21.1300   -6.8340   23.8330 C   0  0  0  0  0  3  0  0  0  0  0  0
  -21.0090   -6.0260   24.9800 C   0  0  0  0  0  3  0  0  0  0  0  0
  -21.3650   -4.6640   24.9260 C   0  0  0  0  0  0  0  0  0  0  0  0
  -21.8420   -4.1090   23.7250 C   0  0  0  0  0  3  0  0  0  0  0  0
  -21.9640   -4.9150   22.5800 C   0  0  0  0  0  0  0  0  0  0  0  0
  -22.4050   -4.3690   21.4200 F   0  0  0  0  0  0  0  0  0  0  0  0
  -21.2410   -3.8860   26.0270 F   0  0  0  0  0  0  0  0  0  0  0  0
  -22.7900  -13.6460   21.2400 C   0  0  0  0  0  0  0  0  0  0  0  0
  -22.0900  -12.9340   22.1170 N   0  0  0  0  0  0  0  0  0  0  0  0
  -22.3380  -14.6810   20.7530 O   0  0  0  0  0  0  0  0  0  0  0  0
  -22.4740  -12.1010   22.5360 H   0  0  0  0  0  0  0  0  0  0  0  0
  -21.1550  -13.2200   22.3700 H   0  0  0  0  0  0  0  0  0  0  0  0
  -25.3980  -15.3270   20.3850 N   0  0  0  0  0  0  0  0  0  0  0  0
  -24.6380  -15.9810   20.5400 H   0  0  0  0  0  0  0  0  0  0  0  0
  -26.2390  -15.7710   20.0370 H   0  0  0  0  0  0  0  0  0  0  0  0
  -27.2500  -24.4810   21.5580 C   0  0  0  0  0  1  0  0  0  0  0  0
  -27.9940  -24.7650   20.2420 C   0  0  0  0  0  3  0  0  0  0  0  0
  -28.2670  -26.2980   20.2060 O   0  0  0  0  0  0  0  0  0  0  0  0
  -24.6280  -31.9330   23.2500 C   0  0  0  0  0  0  0  0  0  0  0  0
  -27.2040  -27.2680   20.1620 C   0  0  0  0  0  0  0  0  0  0  0  0
  -23.4280  -30.5460   21.6040 C   0  0  0  0  0  3  0  0  0  0  0  0
  -24.8740  -28.9960   20.1600 C   0  0  0  0  0  0  0  0  0  0  0  0
  -25.9800  -30.8230   21.4370 C   0  0  0  0  0  2  0  0  0  0  0  0
  -26.0540  -29.4400   20.7710 C   0  0  0  0  0  0  0  0  0  0  0  0
  -27.2210  -28.5910   20.7590 C   0  0  0  0  0  3  0  0  0  0  0  0
  -26.0010  -26.9310   19.5030 C   0  0  0  0  0  3  0  0  0  0  0  0
  -24.8590  -27.7550   19.5130 C   0  0  0  0  0  3  0  0  0  0  0  0
  -23.6460  -29.8870   20.2180 C   0  0  0  0  0  2  0  0  0  0  0  0
  -24.6990  -31.1210   22.1530 N   0  0  0  0  0  0  0  0  0  0  0  0
  -23.5420  -32.2110   23.7810 O   0  0  0  0  0  0  0  0  0  0  0  0
  -22.7550  -29.5260   22.5570 C   0  0  0  0  0  0  0  0  0  0  0  0
  -21.4290  -29.3470   22.4250 N   0  0  0  0  0  0  0  0  0  0  0  0
  -23.4280  -28.9010   23.3820 O   0  0  0  0  0  0  0  0  0  0  0  0
  -20.9430  -29.9030   21.7350 H   0  0  0  0  0  0  0  0  0  0  0  0
  -18.0500  -28.1430   22.9250 C   0  0  0  0  0  0  0  0  0  0  0  0
  -20.6090  -28.4050   23.1890 C   0  0  0  0  0  3  0  0  0  0  0  0
  -20.7110  -26.9780   22.6050 C   0  0  0  0  0  2  0  0  0  0  0  0
  -19.6080  -26.6610   21.5910 C   0  0  0  0  0  2  0  0  0  0  0  0
  -18.2260  -26.8000   22.2390 C   0  0  0  0  0  2  0  0  0  0  0  0
  -19.1680  -28.9040   23.3580 C   0  0  0  0  0  0  0  0  0  0  0  0
  -18.9480  -30.1610   23.9620 C   0  0  0  0  0  3  0  0  0  0  0  0
  -17.6420  -30.6560   24.1380 C   0  0  0  0  0  3  0  0  0  0  0  0
  -16.5370  -29.8920   23.7210 C   0  0  0  0  0  3  0  0  0  0  0  0
  -16.7430  -28.6380   23.1190 C   0  0  0  0  0  3  0  0  0  0  0  0
  -25.9070  -32.5650   23.8780 C   0  0  0  0  0  3  0  0  0  0  0  0
  -25.5990  -33.9670   24.2080 N   0  0  0  0  0  0  0  0  0  0  0  0
  -25.9130  -35.0190   23.4410 C   0  0  0  0  0  0  0  0  0  0  0  0
  -26.5640  -34.9170   22.3970 O   0  0  0  0  0  0  0  0  0  0  0  0
  -25.0220  -34.1220   25.0220 H   0  0  0  0  0  0  0  0  0  0  0  0
  -24.1700  -36.8060   23.1210 C   0  0  0  0  0  1  0  0  0  0  0  0
  -25.4310  -36.4090   23.9050 C   0  0  0  0  0  3  0  0  0  0  0  0
  -27.5830  -37.3020   24.6820 C   0  0  0  0  0  1  0  0  0  0  0  0
  -26.4540  -37.4680   23.7690 N   0  0  0  0  0  0  0  0  0  0  0  0
  -26.0450  -38.3840   23.9390 H   0  0  0  0  0  0  0  0  0  0  0  0
  -26.4130  -31.7960   25.1600 C   0  0  1  0  0  0  0  0  0  0  0  0
  -25.3140  -31.5590   26.2210 C   0  0  0  0  0  1  0  0  0  0  0  0
  -26.9980  -30.4170   24.7790 C   0  0  0  0  0  1  0  0  0  0  0  0
  -27.5610  -32.5890   25.8280 C   0  0  0  0  0  1  0  0  0  0  0  0
  2  1  1  0
  2  5  1  0
  3  2  2  0
  4 20  1  0
  4  1  2  0
  6  3  1  0
  7  5  1  0
  8  6  1  0
  8  9  1  0
  9 10  1  6
  9 51  1  0
  9  7  1  0
 11  3  1  0
 11  4  1  0
 12 20  1  0
 13 18  1  0
 14 15  1  0
 14 13  1  0
 16 15  1  0
 16 25  1  0
 16 17  1  0
 18 12  1  0
 18 17  1  0
 19 12  2  0
 20 21  1  0
 22 23  2  0
 23 42  1  0
 24 23  1  0
 24 27  1  0
 25 26  1  0
 25 22  1  0
 26 24  2  0
 27 28  1  0
 28 29  2  0
 30 33  1  0
 30 29  1  0
 31 30  2  0
 32 31  1  0
 32 27  2  0
 33 34  1  0
 34 35  1  0
 35 36  2  0
 37 36  1  0
 37 41  1  0
 38 37  2  0
 39 34  2  0
 39 38  1  0
 40 39  1  0
 42 43  1  0
 43 46  1  0
 43 45  1  0
 44 42  2  0
 47 22  1  0
 47 48  1  0
 49 47  1  0
 51 50  1  0
 52 51  1  0
 53 64  2  0
 54 52  1  0
 54 59  1  0
 55 63  1  0
 55 65  1  0
 56 62  1  0
 56 58  1  0
 57 63  1  0
 58 57  1  0
 59 58  2  0
 60 61  1  0
 60 54  2  0
 61 56  2  0
 62 55  1  0
 63 53  1  0
 65 67  2  0
 66 65  1  0
 68 66  1  0
 69 78  2  0
 69 74  1  0
 70 66  1  0
 70 74  1  0
 71 70  1  0
 72 73  1  0
 72 71  1  0
 73 69  1  0
 74 75  2  0
 75 76  1  0
 77 76  2  0
 78 77  1  0
 79 53  1  0
 79 80  1  0
 79 89  1  0
 80 83  1  0
 81 85  1  0
 81 80  1  0
 82 81  2  0
 85 84  1  0
 87 85  1  0
 87 88  1  0
 87 86  1  0
 89 92  1  1
 89 90  1  0
 91 89  1  0
M  ISO  4  12 100  20 100  51 101  52 101
M  END
>  <TORSDO>  (78) 
F 17

>  <SCORE>  (78) 
-15.104

>  <name>  (78) 
77

>  <ligand_id>  (78) 
77

>  <original_smiles>  (78) 
[H]c1c([H])c([H])c2c(c1[H])C([H])([H])C([H])([H])C([H])([H])C2([H])N([H])C(=O)C1([H])N(C(=O)C([H])(N([H])C(=O)C([H])(N([H])C([H])([H])[H])C([H])([H])[H])C(C([H])([H])[H])(C([H])([H])[H])C([H])([H])[H])C([H])([H])c2c([H])c(OC([H])(C([H])([H])[H])C3(C([H])([H])[H])C([H])([H])C([H])([H])c4sc(N([H])C(=O)N5C([H])([H])C([H])([H])C([H])([H])C([H])(n6nc(-c7c([H])c([H])c(Oc8c([H])c([H])c(F)c([H])c8F)c([H])c7[H])c(C(=O)N([H])[H])c6N([H])[H])C5([H])[H])c([H])c4C([H])([H])C3([H])[H])c([H])c([H])c2C1([H])[H]

>  <smiles>  (78) 
[H]c1c([H])c([H])c2c(c1[H])C([H])([H])C([H])([H])C([H])([H])C2([H])N([H])C(=O)C1([H])N(C(=O)C([H])(N([H])C(=O)C([H])(N([H])C([H])([H])[H])C([H])([H])[H])C(C([H])([H])[H])(C([H])([H])[H])C([H])([H])[H])C([H])([H])c2c([H])c(OC([H])(C([H])([H])[H])C3(C([H])([H])[H])C([H])([H])C([H])([H])c4sc(N([H])C(=O)N5C([H])([H])C([H])([H])C([H])([H])C([H])(n6nc(-c7c([H])c([H])c(Oc8c([H])c([H])c(F)c([H])c8F)c([H])c7[H])c(C(=O)N([H])[H])c6N([H])[H])C5([H])[H])c([H])c4C([H])([H])C3([H])[H])c([H])c([H])c2C1([H])[H]

$$$$
78:0:0
     RDKit          3D

 99107  0  0  1  0  0  0  0  0999 V2000
  -30.3340  -17.2590   22.4480 C   0  0  0  0  0  3  0  0  0  0  0  0
  -30.3650  -19.5650   21.6480 C   0  0  0  0  0  3  0  0  0  0  0  0
  -30.3420  -17.7260   20.0490 C   0  0  0  0  0  3  0  0  0  0  0  0
  -30.3590  -18.6430   22.7140 C   0  0  0  0  0  0  0  0  0  0  0  0
  -30.3420  -16.7900   21.1180 C   0  0  0  0  0  0  0  0  0  0  0  0
  -30.3330  -19.1230   20.3020 C   0  0  0  0  0  0  0  0  0  0  0  0
  -30.6050  -14.6400   19.8750 C   0  0  0  0  0  0  0  0  0  0  0  0
  -30.2560  -12.4940   18.6930 C   0  0  0  0  0  2  0  0  0  0  0  0
  -29.1920  -12.6410   17.5860 C   0  0  0  0  0  2  0  0  0  0  0  0
  -27.7680  -12.4720   18.1520 C   0  0  0  0  0  2  0  0  0  0  0  0
  -27.5280  -13.3250   19.4230 C   0  0  0  0  0  3  0  0  0  0  0  0
  -28.6770  -13.1170   20.4330 C   0  0  0  0  0  2  0  0  0  0  0  0
  -29.9530  -13.4500   19.7670 N   0  0  0  0  0  0  0  0  0  0  0  0
  -31.5300  -14.9790   19.1290 O   0  0  0  0  0  0  0  0  0  0  0  0
  -30.2120  -15.3880   20.9200 N   0  0  0  0  0  0  0  0  0  0  0  0
  -29.6500  -14.8970   21.5990 H   0  0  0  0  0  0  0  0  0  0  0  0
  -25.2440  -13.9120   20.4660 C   0  0  0  0  0  0  0  0  0  0  0  0
  -24.1980  -13.1290   20.8770 C   0  0  0  0  0  0  0  0  0  0  0  0
  -24.6040  -11.7780   20.6480 C   0  0  0  0  0  0  0  0  0  0  0  0
  -26.2250  -13.0370   20.0220 N   0  0  0  0  0  0  0  0  0  0  0  0
  -25.8470  -11.7430   20.1830 N   0  0  0  0  0  0  0  0  0  0  0  0
  -23.8610  -10.5190   20.7900 C   0  0  0  0  0  0  0  0  0  0  0  0
  -24.3440   -9.4630   21.5920 C   0  0  0  0  0  3  0  0  0  0  0  0
  -23.6020   -8.2690   21.7270 C   0  0  0  0  0  3  0  0  0  0  0  0
  -22.3630   -8.1260   21.0580 C   0  0  0  0  0  0  0  0  0  0  0  0
  -21.8980   -9.1720   20.2420 C   0  0  0  0  0  3  0  0  0  0  0  0
  -22.6400  -10.3560   20.1050 C   0  0  0  0  0  3  0  0  0  0  0  0
  -21.5860   -6.9930   21.1090 O   0  0  0  0  0  0  0  0  0  0  0  0
  -21.5780   -6.1740   22.2110 C   0  0  0  0  0  0  0  0  0  0  0  0
  -21.1920   -6.6430   23.4860 C   0  0  0  0  0  3  0  0  0  0  0  0
  -21.1310   -5.7520   24.5740 C   0  0  0  0  0  3  0  0  0  0  0  0
  -21.4460   -4.3930   24.3900 C   0  0  0  0  0  0  0  0  0  0  0  0
  -21.8260   -3.9230   23.1210 C   0  0  0  0  0  3  0  0  0  0  0  0
  -21.8890   -4.8120   22.0340 C   0  0  0  0  0  0  0  0  0  0  0  0
  -22.2350   -4.3510   20.8070 F   0  0  0  0  0  0  0  0  0  0  0  0
  -21.3810   -3.5340   25.4350 F   0  0  0  0  0  0  0  0  0  0  0  0
  -22.8600  -13.6050   21.3660 C   0  0  0  0  0  0  0  0  0  0  0  0
  -22.2210  -12.8460   22.2490 N   0  0  0  0  0  0  0  0  0  0  0  0
  -22.3930  -14.6840   21.0020 O   0  0  0  0  0  0  0  0  0  0  0  0
  -22.6120  -11.9720   22.5690 H   0  0  0  0  0  0  0  0  0  0  0  0
  -21.3290  -13.1470   22.6150 H   0  0  0  0  0  0  0  0  0  0  0  0
  -25.4330  -15.2900   20.4180 N   0  0  0  0  0  0  0  0  0  0  0  0
  -24.7070  -15.9440   20.6910 H   0  0  0  0  0  0  0  0  0  0  0  0
  -26.2590  -15.7460   20.0490 H   0  0  0  0  0  0  0  0  0  0  0  0
  -30.3680  -19.1290   24.0920 C   0  0  0  0  0  0  0  0  0  0  0  0
  -30.9050  -18.3990   25.0640 N   0  0  0  0  0  0  0  0  0  0  0  0
  -29.8470  -20.3180   24.3930 N   0  0  0  0  0  4  0  0  0  0  0  0
  -31.3650  -17.5330   24.8250 H   0  0  0  0  0  0  0  0  0  0  0  0
  -30.9310  -18.6970   26.0260 H   0  0  0  0  0  0  0  0  0  0  0  0
  -29.3650  -20.8420   23.6770 H   0  0  0  0  0  0  0  0  0  0  0  0
  -29.8970  -20.7120   25.3180 H   0  0  0  0  0  0  0  0  0  0  0  0
  -30.2750  -19.9960   19.2260 O   0  0  0  0  0  0  0  0  0  0  0  0
  -30.1760  -21.4020   19.5150 C   0  0  0  0  0  2  0  0  0  0  0  0
  -29.6000  -22.1900   18.3280 C   0  0  0  0  0  0  0  0  0  0  0  0
  -29.1750  -21.6140   17.3190 O   0  0  0  0  0  0  0  0  0  0  0  0
  -29.5710  -23.7260   18.4480 C   0  0  0  0  0  2  0  0  0  0  0  0
  -28.3400  -24.3890   17.7850 C   0  0  0  0  0  2  0  0  0  0  0  0
  -28.3840  -25.9340   17.7270 C   0  0  0  0  0  2  0  0  0  0  0  0
  -28.1850  -26.5910   18.9850 O   0  0  0  0  0  0  0  0  0  0  0  0
  -24.5910  -31.1800   23.0910 C   0  0  0  0  0  0  0  0  0  0  0  0
  -27.0240  -27.3180   19.1540 C   0  0  0  0  0  0  0  0  0  0  0  0
  -23.3070  -30.1530   21.2450 C   0  0  0  0  0  3  0  0  0  0  0  0
  -24.6770  -28.8590   19.5280 C   0  0  0  0  0  0  0  0  0  0  0  0
  -25.8410  -30.4510   21.0630 C   0  0  0  0  0  2  0  0  0  0  0  0
  -25.8620  -29.2190   20.1810 C   0  0  0  0  0  0  0  0  0  0  0  0
  -27.0310  -28.4460   20.0080 C   0  0  0  0  0  3  0  0  0  0  0  0
  -25.8160  -26.9670   18.5080 C   0  0  0  0  0  3  0  0  0  0  0  0
  -24.6460  -27.7260   18.6970 C   0  0  0  0  0  3  0  0  0  0  0  0
  -23.4690  -29.7380   19.7590 C   0  0  0  0  0  2  0  0  0  0  0  0
  -24.5990  -30.5980   21.8580 N   0  0  0  0  0  0  0  0  0  0  0  0
  -23.5310  -31.3850   23.6970 O   0  0  0  0  0  0  0  0  0  0  0  0
  -22.6340  -28.9920   22.0120 C   0  0  0  0  0  0  0  0  0  0  0  0
  -21.2970  -28.9070   21.9180 N   0  0  0  0  0  0  0  0  0  0  0  0
  -23.3110  -28.1800   22.6510 O   0  0  0  0  0  0  0  0  0  0  0  0
  -20.8170  -29.6130   21.3790 H   0  0  0  0  0  0  0  0  0  0  0  0
  -17.8770  -27.8350   22.3660 C   0  0  0  0  0  0  0  0  0  0  0  0
  -20.4560  -27.8770   22.5260 C   0  0  0  0  0  3  0  0  0  0  0  0
  -20.4300  -26.5970   21.6580 C   0  0  0  0  0  2  0  0  0  0  0  0
  -19.2600  -26.5640   20.6700 C   0  0  0  0  0  2  0  0  0  0  0  0
  -17.9240  -26.6510   21.4150 C   0  0  0  0  0  2  0  0  0  0  0  0
  -19.0680  -28.4190   22.8760 C   0  0  0  0  0  0  0  0  0  0  0  0
  -18.9690  -29.5390   23.7300 C   0  0  0  0  0  3  0  0  0  0  0  0
  -17.7140  -30.0710   24.0770 C   0  0  0  0  0  3  0  0  0  0  0  0
  -16.5380  -29.4800   23.5810 C   0  0  0  0  0  3  0  0  0  0  0  0
  -16.6220  -28.3630   22.7310 C   0  0  0  0  0  3  0  0  0  0  0  0
  -25.9120  -31.6390   23.7870 C   0  0  0  0  0  3  0  0  0  0  0  0
  -25.6770  -32.9810   24.3350 N   0  0  0  0  0  0  0  0  0  0  0  0
  -26.1290  -34.1170   23.7850 C   0  0  0  0  0  0  0  0  0  0  0  0
  -26.8560  -34.1350   22.7880 O   0  0  0  0  0  0  0  0  0  0  0  0
  -25.0370  -33.0450   25.1130 H   0  0  0  0  0  0  0  0  0  0  0  0
  -24.5880  -36.0970   23.6210 C   0  0  0  0  0  1  0  0  0  0  0  0
  -25.7070  -35.4420   24.4460 C   0  0  0  0  0  3  0  0  0  0  0  0
  -27.8050  -35.9660   25.6090 C   0  0  0  0  0  1  0  0  0  0  0  0
  -26.8230  -36.3960   24.6170 N   0  0  0  0  0  0  0  0  0  0  0  0
  -26.4760  -37.3120   24.8900 H   0  0  0  0  0  0  0  0  0  0  0  0
  -26.3970  -30.6500   24.9160 C   0  0  1  0  0  0  0  0  0  0  0  0
  -25.3040  -30.3130   25.9570 C   0  0  0  0  0  1  0  0  0  0  0  0
  -26.8910  -29.3180   24.3030 C   0  0  0  0  0  1  0  0  0  0  0  0
  -27.6010  -31.2640   25.6690 C   0  0  0  0  0  1  0  0  0  0  0  0
  1  4  1  0
  2  4  2  0
  3  6  2  0
  3  5  1  0
  4 45  1  0
  5  1  2  0
  6  2  1  0
  7 15  1  0
  8 13  1  0
  9 10  1  0
  9  8  1  0
 11 10  1  0
 11 20  1  0
 11 12  1  0
 13  7  1  0
 13 12  1  0
 14  7  2  0
 15  5  1  0
 15 16  1  0
 17 18  2  0
 18 37  1  0
 19 22  1  0
 19 18  1  0
 20 21  1  0
 20 17  1  0
 21 19  2  0
 22 23  1  0
 23 24  2  0
 25 28  1  0
 25 24  1  0
 26 25  2  0
 27 26  1  0
 27 22  2  0
 28 29  1  0
 29 30  1  0
 30 31  2  0
 32 31  1  0
 32 36  1  0
 33 32  2  0
 34 29  2  0
 34 33  1  0
 35 34  1  0
 37 38  1  0
 38 40  1  0
 38 41  1  0
 39 37  2  0
 42 17  1  0
 42 43  1  0
 44 42  1  0
 45 47  2  0
 45 46  1  0
 46 49  1  0
 47 51  1  0
 48 46  1  0
 50 47  1  0
 52 53  1  0
 52  6  1  0
 54 56  1  0
 54 53  1  0
 55 54  2  0
 57 56  1  0
 58 57  1  0
 58 59  1  0
 59 61  1  0
 60 71  2  0
 61 66  1  0
 62 70  1  0
 62 72  1  0
 63 69  1  0
 63 65  1  0
 64 70  1  0
 65 64  1  0
 66 65  2  0
 67 68  1  0
 67 61  2  0
 68 63  2  0
 69 62  1  0
 70 60  1  0
 72 74  2  0
 73 72  1  0
 75 73  1  0
 76 85  2  0
 76 81  1  0
 77 73  1  0
 77 81  1  0
 78 77  1  0
 79 80  1  0
 79 78  1  0
 80 76  1  0
 81 82  2  0
 82 83  1  0
 84 83  2  0
 85 84  1  0
 86 60  1  0
 86 87  1  0
 86 96  1  0
 87 90  1  0
 88 87  1  0
 88 92  1  0
 89 88  2  0
 92 91  1  0
 92 94  1  0
 94 95  1  0
 94 93  1  0
 96 99  1  1
 96 97  1  0
 98 96  1  0
M  ISO  4   7 100  15 100  58 101  59 101
M  END
>  <TORSDO>  (79) 
F 23

>  <SCORE>  (79) 
-8.439

>  <name>  (79) 
78

>  <ligand_id>  (79) 
78

>  <original_smiles>  (79) 
[H]c1c([H])c([H])c2c(c1[H])C([H])([H])C([H])([H])C([H])([H])C2([H])N([H])C(=O)C1([H])N(C(=O)C([H])(N([H])C(=O)C([H])(N([H])C([H])([H])[H])C([H])([H])[H])C(C([H])([H])[H])(C([H])([H])[H])C([H])([H])[H])C([H])([H])c2c([H])c(OC([H])([H])C([H])([H])C([H])([H])C(=O)C([H])([H])Oc3c([H])c(C(N([H])[H])=[N+]([H])[H])c([H])c(N([H])C(=O)N4C([H])([H])C([H])([H])C([H])([H])C([H])(n5nc(-c6c([H])c([H])c(Oc7c([H])c([H])c(F)c([H])c7F)c([H])c6[H])c(C(=O)N([H])[H])c5N([H])[H])C4([H])[H])c3[H])c([H])c([H])c2C1([H])[H]

>  <smiles>  (79) 
[H]c1c([H])c([H])c2c(c1[H])C([H])([H])C([H])([H])C([H])([H])C2([H])N([H])C(=O)C1([H])N(C(=O)C([H])(N([H])C(=O)C([H])(N([H])C([H])([H])[H])C([H])([H])[H])C(C([H])([H])[H])(C([H])([H])[H])C([H])([H])[H])C([H])([H])c2c([H])c(OC([H])([H])C([H])([H])C([H])([H])C(=O)C([H])([H])Oc3c([H])c(C(N([H])[H])=[N+]([H])[H])c([H])c(N([H])C(=O)N4C([H])([H])C([H])([H])C([H])([H])C([H])(n5nc(-c6c([H])c([H])c(Oc7c([H])c([H])c(F)c([H])c7F)c([H])c6[H])c(C(=O)N([H])[H])c5N([H])[H])C4([H])[H])c3[H])c([H])c([H])c2C1([H])[H]

$$$$
79:0:0
     RDKit          3D

 96104  0  0  1  0  0  0  0  0999 V2000
  -29.2540  -21.9770   20.3520 C   0  0  0  0  0  0  0  0  0  0  0  0
  -29.6960  -20.7390   20.7310 N   0  0  0  0  0  0  0  0  0  0  0  0
  -28.3200  -22.1260   19.5610 O   0  0  0  0  0  0  0  0  0  0  0  0
  -30.3320  -20.7480   21.5150 H   0  0  0  0  0  0  0  0  0  0  0  0
  -29.0400  -19.3060   18.7920 C   0  0  0  0  0  3  0  0  0  0  0  0
  -29.1890  -16.8730   18.9260 C   0  0  0  0  0  3  0  0  0  0  0  0
  -29.7650  -18.2390   20.8640 C   0  0  0  0  0  3  0  0  0  0  0  0
  -28.8990  -18.0360   18.1940 C   0  0  0  0  0  0  0  0  0  0  0  0
  -29.4700  -19.4380   20.1360 C   0  0  0  0  0  0  0  0  0  0  0  0
  -29.6430  -16.9480   20.2590 C   0  0  0  0  0  0  0  0  0  0  0  0
  -28.4450  -17.9050   16.7550 C   0  0  0  0  0  1  0  0  0  0  0  0
  -30.6460  -14.6990   20.4570 C   0  0  0  0  0  0  0  0  0  0  0  0
  -30.4140  -12.5280   19.3000 C   0  0  0  0  0  2  0  0  0  0  0  0
  -29.4760  -12.7360   18.0940 C   0  0  0  0  0  2  0  0  0  0  0  0
  -27.9960  -12.6100   18.5070 C   0  0  0  0  0  2  0  0  0  0  0  0
  -27.6510  -13.3890   19.8040 C   0  0  0  0  0  3  0  0  0  0  0  0
  -28.7080  -13.1460   20.9060 C   0  0  0  0  0  2  0  0  0  0  0  0
  -30.0240  -13.4890   20.3470 N   0  0  0  0  0  0  0  0  0  0  0  0
  -31.7720  -14.9090   19.9950 O   0  0  0  0  0  0  0  0  0  0  0  0
  -29.8910  -15.7120   20.9590 N   0  0  0  0  0  0  0  0  0  0  0  0
  -29.1090  -15.3900   21.5110 H   0  0  0  0  0  0  0  0  0  0  0  0
  -25.2440  -13.9620   20.4990 C   0  0  0  0  0  0  0  0  0  0  0  0
  -24.1850  -13.1730   20.8580 C   0  0  0  0  0  0  0  0  0  0  0  0
  -24.6620  -11.8270   20.8240 C   0  0  0  0  0  0  0  0  0  0  0  0
  -26.3000  -13.0920   20.2710 N   0  0  0  0  0  0  0  0  0  0  0  0
  -25.9530  -11.8030   20.5190 N   0  0  0  0  0  0  0  0  0  0  0  0
  -23.9520  -10.5560   21.0110 C   0  0  0  0  0  0  0  0  0  0  0  0
  -24.3710   -9.6080   21.9710 C   0  0  0  0  0  3  0  0  0  0  0  0
  -23.6600   -8.4010   22.1460 C   0  0  0  0  0  3  0  0  0  0  0  0
  -22.5150   -8.1340   21.3560 C   0  0  0  0  0  0  0  0  0  0  0  0
  -22.1150   -9.0710   20.3880 C   0  0  0  0  0  3  0  0  0  0  0  0
  -22.8270  -10.2680   20.2130 C   0  0  0  0  0  3  0  0  0  0  0  0
  -21.7770   -6.9760   21.4360 O   0  0  0  0  0  0  0  0  0  0  0  0
  -21.6840   -6.2620   22.6030 C   0  0  0  0  0  0  0  0  0  0  0  0
  -21.1620   -6.8310   23.7850 C   0  0  0  0  0  3  0  0  0  0  0  0
  -21.0160   -6.0420   24.9420 C   0  0  0  0  0  3  0  0  0  0  0  0
  -21.3840   -4.6830   24.9190 C   0  0  0  0  0  0  0  0  0  0  0  0
  -21.9020   -4.1130   23.7430 C   0  0  0  0  0  3  0  0  0  0  0  0
  -22.0490   -4.9000   22.5870 C   0  0  0  0  0  0  0  0  0  0  0  0
  -22.5270   -4.3410   21.4490 F   0  0  0  0  0  0  0  0  0  0  0  0
  -21.2380   -3.9220   26.0300 F   0  0  0  0  0  0  0  0  0  0  0  0
  -22.7820  -13.6310   21.1340 C   0  0  0  0  0  0  0  0  0  0  0  0
  -22.0630  -12.9150   21.9900 N   0  0  0  0  0  0  0  0  0  0  0  0
  -22.3340  -14.6590   20.6260 O   0  0  0  0  0  0  0  0  0  0  0  0
  -22.4430  -12.0810   22.4120 H   0  0  0  0  0  0  0  0  0  0  0  0
  -21.1220  -13.2000   22.2190 H   0  0  0  0  0  0  0  0  0  0  0  0
  -25.4020  -15.3340   20.3330 N   0  0  0  0  0  0  0  0  0  0  0  0
  -24.6440  -15.9960   20.4570 H   0  0  0  0  0  0  0  0  0  0  0  0
  -26.2580  -15.7700   20.0150 H   0  0  0  0  0  0  0  0  0  0  0  0
  -29.4840  -23.3700   22.4880 C   0  0  0  0  0  1  0  0  0  0  0  0
  -31.4810  -23.0320   20.9750 C   0  0  0  0  0  1  0  0  0  0  0  0
  -29.9350  -23.2360   21.0080 C   0  0  1  0  0  0  0  0  0  0  0  0
  -29.5980  -24.5780   20.2360 C   0  0  0  0  0  0  0  0  0  0  0  0
  -30.4150  -25.0590   19.4390 O   0  0  0  0  0  0  0  0  0  0  0  0
  -28.2490  -25.3250   20.4470 C   0  0  0  0  0  2  0  0  0  0  0  0
  -28.3880  -26.7680   20.2750 O   0  0  0  0  0  0  0  0  0  0  0  0
  -24.5280  -31.9970   23.3090 C   0  0  0  0  0  0  0  0  0  0  0  0
  -27.2220  -27.5220   20.2600 C   0  0  0  0  0  0  0  0  0  0  0  0
  -23.3470  -30.5790   21.6650 C   0  0  0  0  0  3  0  0  0  0  0  0
  -24.8230  -29.0490   20.2530 C   0  0  0  0  0  0  0  0  0  0  0  0
  -25.8800  -30.9430   21.4940 C   0  0  0  0  0  2  0  0  0  0  0  0
  -25.9780  -29.5710   20.8490 C   0  0  0  0  0  0  0  0  0  0  0  0
  -27.1820  -28.8190   20.8420 C   0  0  0  0  0  3  0  0  0  0  0  0
  -26.0460  -27.0340   19.6460 C   0  0  0  0  0  3  0  0  0  0  0  0
  -24.8560  -27.7840   19.6440 C   0  0  0  0  0  3  0  0  0  0  0  0
  -23.5750  -29.9050   20.2880 C   0  0  0  0  0  2  0  0  0  0  0  0
  -24.6040  -31.1890   22.2130 N   0  0  0  0  0  0  0  0  0  0  0  0
  -23.4390  -32.2630   23.8380 O   0  0  0  0  0  0  0  0  0  0  0  0
  -22.6970  -29.5520   22.6230 C   0  0  0  0  0  0  0  0  0  0  0  0
  -21.3800  -29.3390   22.4710 N   0  0  0  0  0  0  0  0  0  0  0  0
  -23.3770  -28.9540   23.4590 O   0  0  0  0  0  0  0  0  0  0  0  0
  -20.8910  -29.8770   21.7700 H   0  0  0  0  0  0  0  0  0  0  0  0
  -18.0230  -28.0780   22.9280 C   0  0  0  0  0  0  0  0  0  0  0  0
  -20.5700  -28.3920   23.2380 C   0  0  0  0  0  3  0  0  0  0  0  0
  -20.7110  -26.9580   22.6820 C   0  0  0  0  0  2  0  0  0  0  0  0
  -19.6330  -26.6000   21.6530 C   0  0  0  0  0  2  0  0  0  0  0  0
  -18.2380  -26.7250   22.2720 C   0  0  0  0  0  2  0  0  0  0  0  0
  -19.1180  -28.8680   23.3670 C   0  0  0  0  0  0  0  0  0  0  0  0
  -18.8640  -30.1320   23.9410 C   0  0  0  0  0  3  0  0  0  0  0  0
  -17.5470  -30.6090   24.0800 C   0  0  0  0  0  3  0  0  0  0  0  0
  -16.4660  -29.8180   23.6550 C   0  0  0  0  0  3  0  0  0  0  0  0
  -16.7040  -28.5530   23.0860 C   0  0  0  0  0  3  0  0  0  0  0  0
  -25.8030  -32.6440   23.9340 C   0  0  0  0  0  3  0  0  0  0  0  0
  -26.3120  -31.8940   25.2260 C   0  0  1  0  0  0  0  0  0  0  0  0
  -25.2050  -31.6500   26.2770 C   0  0  0  0  0  1  0  0  0  0  0  0
  -26.9270  -30.5230   24.8600 C   0  0  0  0  0  1  0  0  0  0  0  0
  -27.4380  -32.7150   25.8990 C   0  0  0  0  0  1  0  0  0  0  0  0
  -25.4780  -34.0440   24.2420 N   0  0  0  0  0  0  0  0  0  0  0  0
  -25.8210  -35.0900   23.4780 C   0  0  0  0  0  0  0  0  0  0  0  0
  -26.5130  -34.9790   22.4620 O   0  0  0  0  0  0  0  0  0  0  0  0
  -24.8650  -34.2040   25.0260 H   0  0  0  0  0  0  0  0  0  0  0  0
  -24.1000  -36.8770   23.0590 C   0  0  0  0  0  1  0  0  0  0  0  0
  -25.3160  -36.4790   23.9120 C   0  0  0  0  0  3  0  0  0  0  0  0
  -27.4190  -37.3770   24.8070 C   0  0  0  0  0  1  0  0  0  0  0  0
  -26.3490  -37.5360   23.8250 N   0  0  0  0  0  0  0  0  0  0  0  0
  -25.9350  -38.4540   23.9510 H   0  0  0  0  0  0  0  0  0  0  0  0
  1  2  1  0
  1 52  1  0
  2  4  1  0
  3  1  2  0
  5  9  1  0
  6 10  2  0
  8  5  2  0
  8  6  1  0
  9  2  1  0
  9  7  2  0
 10  7  1  0
 10 20  1  0
 11  8  1  0
 12 20  1  0
 13 18  1  0
 14 15  1  0
 14 13  1  0
 16 15  1  0
 16 25  1  0
 16 17  1  0
 18 12  1  0
 18 17  1  0
 19 12  2  0
 20 21  1  0
 22 23  2  0
 23 42  1  0
 24 23  1  0
 24 27  1  0
 25 22  1  0
 25 26  1  0
 26 24  2  0
 27 28  1  0
 28 29  2  0
 30 33  1  0
 30 29  1  0
 31 30  2  0
 32 31  1  0
 32 27  2  0
 33 34  1  0
 34 35  1  0
 35 36  2  0
 37 36  1  0
 37 41  1  0
 38 37  2  0
 39 34  2  0
 39 38  1  0
 40 39  1  0
 42 43  1  0
 43 46  1  0
 43 45  1  0
 44 42  2  0
 47 48  1  0
 47 22  1  0
 49 47  1  0
 52 51  1  1
 52 50  1  0
 53 55  1  0
 53 52  1  0
 54 53  2  0
 56 55  1  0
 57 68  2  0
 58 56  1  0
 58 63  1  0
 59 67  1  0
 59 69  1  0
 60 66  1  0
 60 62  1  0
 61 67  1  0
 62 61  1  0
 63 62  2  0
 64 58  2  0
 65 64  1  0
 65 60  2  0
 66 59  1  0
 67 57  1  0
 69 71  2  0
 70 69  1  0
 72 70  1  0
 73 82  2  0
 73 78  1  0
 74 70  1  0
 74 78  1  0
 75 74  1  0
 76 77  1  0
 76 75  1  0
 77 73  1  0
 78 79  2  0
 79 80  1  0
 81 80  2  0
 82 81  1  0
 83 57  1  0
 83 88  1  0
 83 84  1  0
 84 87  1  1
 84 85  1  0
 86 84  1  0
 88 91  1  0
 89 93  1  0
 89 88  1  0
 90 89  2  0
 93 92  1  0
 95 93  1  0
 95 96  1  0
 95 94  1  0
M  ISO  4  12 100  20 100  55 101  56 101
M  END
>  <TORSDO>  (80) 
F 20

>  <SCORE>  (80) 
-13.464

>  <name>  (80) 
79

>  <ligand_id>  (80) 
79

>  <original_smiles>  (80) 
[H]c1c([H])c([H])c2c(c1[H])C([H])([H])C([H])([H])C([H])([H])C2([H])N([H])C(=O)C1([H])N(C(=O)C([H])(N([H])C(=O)C([H])(N([H])C([H])([H])[H])C([H])([H])[H])C(C([H])([H])[H])(C([H])([H])[H])C([H])([H])[H])C([H])([H])c2c([H])c(OC([H])([H])C(=O)C(C(=O)N([H])c3c([H])c(N([H])C(=O)N4C([H])([H])C([H])([H])C([H])([H])C([H])(n5nc(-c6c([H])c([H])c(Oc7c([H])c([H])c(F)c([H])c7F)c([H])c6[H])c(C(=O)N([H])[H])c5N([H])[H])C4([H])[H])c([H])c(C([H])([H])[H])c3[H])(C([H])([H])[H])C([H])([H])[H])c([H])c([H])c2C1([H])[H]

>  <smiles>  (80) 
[H]c1c([H])c([H])c2c(c1[H])C([H])([H])C([H])([H])C([H])([H])C2([H])N([H])C(=O)C1([H])N(C(=O)C([H])(N([H])C(=O)C([H])(N([H])C([H])([H])[H])C([H])([H])[H])C(C([H])([H])[H])(C([H])([H])[H])C([H])([H])[H])C([H])([H])c2c([H])c(OC([H])([H])C(=O)C(C(=O)N([H])c3c([H])c(N([H])C(=O)N4C([H])([H])C([H])([H])C([H])([H])C([H])(n5nc(-c6c([H])c([H])c(Oc7c([H])c([H])c(F)c([H])c7F)c([H])c6[H])c(C(=O)N([H])[H])c5N([H])[H])C4([H])[H])c([H])c(C([H])([H])[H])c3[H])(C([H])([H])[H])C([H])([H])[H])c([H])c([H])c2C1([H])[H]

$$$$
80:0:0
     RDKit          3D

 94102  0  0  1  0  0  0  0  0999 V2000
  -30.9000  -21.0490   18.3720 C   0  0  0  0  0  1  0  0  0  0  0  0
  -30.5620  -21.8190   19.6860 C   0  0  0  0  0  3  0  0  0  0  0  0
  -29.5810  -23.0060   19.3380 C   0  0  0  0  0  0  0  0  0  0  0  0
  -28.7850  -22.8740   18.4000 O   0  0  0  0  0  0  0  0  0  0  0  0
  -29.6310  -24.3690   20.1000 C   0  0  0  0  0  2  0  0  0  0  0  0
  -28.7700  -25.5180   19.4440 C   0  0  0  0  0  2  0  0  0  0  0  0
  -28.5450  -26.7130   20.2540 O   0  0  0  0  0  0  0  0  0  0  0  0
  -24.6490  -31.8880   23.3310 C   0  0  0  0  0  0  0  0  0  0  0  0
  -27.3560  -27.4440   20.2110 C   0  0  0  0  0  0  0  0  0  0  0  0
  -23.4670  -30.5020   21.6600 C   0  0  0  0  0  3  0  0  0  0  0  0
  -24.9440  -28.9840   20.2360 C   0  0  0  0  0  0  0  0  0  0  0  0
  -26.0010  -30.8560   21.4990 C   0  0  0  0  0  2  0  0  0  0  0  0
  -26.0990  -29.4890   20.8410 C   0  0  0  0  0  0  0  0  0  0  0  0
  -27.3000  -28.7260   20.8280 C   0  0  0  0  0  3  0  0  0  0  0  0
  -26.1600  -26.9650   19.6160 C   0  0  0  0  0  3  0  0  0  0  0  0
  -24.9710  -27.7200   19.6280 C   0  0  0  0  0  3  0  0  0  0  0  0
  -23.6970  -29.8420   20.2770 C   0  0  0  0  0  2  0  0  0  0  0  0
  -24.7230  -31.0960   22.2220 N   0  0  0  0  0  0  0  0  0  0  0  0
  -23.5590  -32.1530   23.8600 O   0  0  0  0  0  0  0  0  0  0  0  0
  -22.8000  -29.4730   22.6020 C   0  0  0  0  0  0  0  0  0  0  0  0
  -21.4770  -29.2830   22.4540 N   0  0  0  0  0  0  0  0  0  0  0  0
  -23.4730  -28.8440   23.4250 O   0  0  0  0  0  0  0  0  0  0  0  0
  -20.9900  -29.8480   21.7700 H   0  0  0  0  0  0  0  0  0  0  0  0
  -18.1060  -28.0560   22.8910 C   0  0  0  0  0  0  0  0  0  0  0  0
  -20.6560  -28.3300   23.2040 C   0  0  0  0  0  3  0  0  0  0  0  0
  -20.7780  -26.9050   22.6170 C   0  0  0  0  0  2  0  0  0  0  0  0
  -19.6970  -26.5820   21.5840 C   0  0  0  0  0  2  0  0  0  0  0  0
  -18.3030  -26.7140   22.2060 C   0  0  0  0  0  2  0  0  0  0  0  0
  -19.2110  -28.8230   23.3420 C   0  0  0  0  0  0  0  0  0  0  0  0
  -18.9750  -30.0800   23.9400 C   0  0  0  0  0  3  0  0  0  0  0  0
  -17.6650  -30.5710   24.0880 C   0  0  0  0  0  3  0  0  0  0  0  0
  -16.5720  -29.8010   23.6540 C   0  0  0  0  0  3  0  0  0  0  0  0
  -16.7930  -28.5460   23.0590 C   0  0  0  0  0  3  0  0  0  0  0  0
  -25.9250  -32.5200   23.9710 C   0  0  0  0  0  3  0  0  0  0  0  0
  -25.6260  -33.9270   24.2660 N   0  0  0  0  0  0  0  0  0  0  0  0
  -25.9700  -34.9600   23.4840 C   0  0  0  0  0  0  0  0  0  0  0  0
  -26.6430  -34.8280   22.4580 O   0  0  0  0  0  0  0  0  0  0  0  0
  -25.0300  -34.1070   25.0610 H   0  0  0  0  0  0  0  0  0  0  0  0
  -24.2580  -36.7590   23.0760 C   0  0  0  0  0  1  0  0  0  0  0  0
  -25.4890  -36.3620   23.9050 C   0  0  0  0  0  3  0  0  0  0  0  0
  -27.6210  -37.2570   24.7360 C   0  0  0  0  0  1  0  0  0  0  0  0
  -26.5310  -37.4070   23.7760 N   0  0  0  0  0  0  0  0  0  0  0  0
  -26.1240  -38.3310   23.9000 H   0  0  0  0  0  0  0  0  0  0  0  0
  -26.4050  -31.7680   25.2740 C   0  0  1  0  0  0  0  0  0  0  0  0
  -25.2870  -31.5570   26.3210 C   0  0  0  0  0  1  0  0  0  0  0  0
  -26.9870  -30.3780   24.9220 C   0  0  0  0  0  1  0  0  0  0  0  0
  -27.5430  -32.5670   25.9510 C   0  0  0  0  0  1  0  0  0  0  0  0
  -29.1350  -21.4820   21.8480 C   0  0  0  0  0  1  0  0  0  0  0  0
  -30.2430  -20.8650   20.9570 C   0  0  1  0  0  0  0  0  0  0  0  0
  -30.3860  -18.1500   21.0630 C   0  0  0  0  0  3  0  0  0  0  0  0
  -28.7810  -19.1390   19.7300 C   0  0  0  0  0  3  0  0  0  0  0  0
  -29.8280  -19.4090   20.5800 C   0  0  0  0  0  0  0  0  0  0  0  0
  -29.8070  -17.0000   20.5560 C   0  0  0  0  0  0  0  0  0  0  0  0
  -28.5800  -17.4390   19.3930 S   0  0  0  0  0  0  0  0  0  0  0  0
  -30.6920  -14.7310   20.3520 C   0  0  0  0  0  0  0  0  0  0  0  0
  -30.4510  -12.5570   19.1980 C   0  0  0  0  0  2  0  0  0  0  0  0
  -29.4730  -12.7870   18.0280 C   0  0  0  0  0  2  0  0  0  0  0  0
  -28.0180  -12.6140   18.5060 C   0  0  0  0  0  2  0  0  0  0  0  0
  -27.7060  -13.3960   19.8100 C   0  0  0  0  0  3  0  0  0  0  0  0
  -28.7970  -13.1350   20.8720 C   0  0  0  0  0  2  0  0  0  0  0  0
  -30.0920  -13.5050   20.2690 N   0  0  0  0  0  0  0  0  0  0  0  0
  -31.7890  -14.9660   19.8330 O   0  0  0  0  0  0  0  0  0  0  0  0
  -29.9680  -15.7010   20.9630 N   0  0  0  0  0  0  0  0  0  0  0  0
  -29.1650  -15.3380   21.4540 H   0  0  0  0  0  0  0  0  0  0  0  0
  -25.3040  -13.9600   20.5550 C   0  0  0  0  0  0  0  0  0  0  0  0
  -24.2560  -13.1720   20.9360 C   0  0  0  0  0  0  0  0  0  0  0  0
  -24.7370  -11.8280   20.8780 C   0  0  0  0  0  0  0  0  0  0  0  0
  -26.3610  -13.1010   20.3040 N   0  0  0  0  0  0  0  0  0  0  0  0
  -26.0250  -11.8090   20.5560 N   0  0  0  0  0  0  0  0  0  0  0  0
  -24.0310  -10.5550   21.0680 C   0  0  0  0  0  0  0  0  0  0  0  0
  -24.4760   -9.6070   22.0140 C   0  0  0  0  0  3  0  0  0  0  0  0
  -23.7730   -8.3980   22.2020 C   0  0  0  0  0  3  0  0  0  0  0  0
  -22.6160   -8.1240   21.4330 C   0  0  0  0  0  0  0  0  0  0  0  0
  -22.1930   -9.0600   20.4690 C   0  0  0  0  0  3  0  0  0  0  0  0
  -22.8990  -10.2600   20.2840 C   0  0  0  0  0  3  0  0  0  0  0  0
  -21.8860   -6.9640   21.5250 O   0  0  0  0  0  0  0  0  0  0  0  0
  -21.8050   -6.2490   22.6950 C   0  0  0  0  0  0  0  0  0  0  0  0
  -21.2640   -6.8080   23.8720 C   0  0  0  0  0  3  0  0  0  0  0  0
  -21.1460   -6.0180   25.0330 C   0  0  0  0  0  3  0  0  0  0  0  0
  -21.5490   -4.6710   25.0160 C   0  0  0  0  0  0  0  0  0  0  0  0
  -22.0790   -4.1090   23.8400 C   0  0  0  0  0  3  0  0  0  0  0  0
  -22.2090   -4.8980   22.6820 C   0  0  0  0  0  0  0  0  0  0  0  0
  -22.7040   -4.3480   21.5470 F   0  0  0  0  0  0  0  0  0  0  0  0
  -21.4180   -3.9120   26.1270 F   0  0  0  0  0  0  0  0  0  0  0  0
  -22.8570  -13.6200   21.2410 C   0  0  0  0  0  0  0  0  0  0  0  0
  -22.1580  -12.8910   22.0990 N   0  0  0  0  0  0  0  0  0  0  0  0
  -22.3990  -14.6550   20.7550 O   0  0  0  0  0  0  0  0  0  0  0  0
  -22.5590  -12.0750   22.5430 H   0  0  0  0  0  0  0  0  0  0  0  0
  -21.2120  -13.1590   22.3350 H   0  0  0  0  0  0  0  0  0  0  0  0
  -25.4580  -15.3330   20.3680 N   0  0  0  0  0  0  0  0  0  0  0  0
  -24.6810  -15.9820   20.3740 H   0  0  0  0  0  0  0  0  0  0  0  0
  -26.2280  -15.6460   19.7950 H   0  0  0  0  0  0  0  0  0  0  0  0
  -31.4210  -20.3900   23.3060 C   0  0  0  0  0  1  0  0  0  0  0  0
  -31.5470  -20.8340   21.8290 C   0  0  0  0  0  2  0  0  0  0  0  0
  2  1  1  0
  2 49  1  0
  3  2  1  0
  3  5  1  0
  4  3  2  0
  6  5  1  0
  6  7  1  0
  8 19  2  0
  9  7  1  0
  9 14  1  0
 10 18  1  0
 10 20  1  0
 11 17  1  0
 11 13  1  0
 12 18  1  0
 13 12  1  0
 14 13  2  0
 15 16  1  0
 15  9  2  0
 16 11  2  0
 17 10  1  0
 18  8  1  0
 20 22  2  0
 21 20  1  0
 23 21  1  0
 24 33  2  0
 24 29  1  0
 25 21  1  0
 25 29  1  0
 26 25  1  0
 27 28  1  0
 27 26  1  0
 28 24  1  0
 29 30  2  0
 30 31  1  0
 32 31  2  0
 33 32  1  0
 34  8  1  0
 34 35  1  0
 34 44  1  0
 35 38  1  0
 36 40  1  0
 36 35  1  0
 37 36  2  0
 40 39  1  0
 42 43  1  0
 42 40  1  0
 42 41  1  0
 44 47  1  1
 44 45  1  0
 46 44  1  0
 49 94  1  0
 49 48  1  1
 51 52  2  0
 52 49  1  0
 52 50  1  0
 53 63  1  0
 53 50  2  0
 54 51  1  0
 54 53  1  0
 55 63  1  0
 56 61  1  0
 57 58  1  0
 57 56  1  0
 59 58  1  0
 59 68  1  0
 59 60  1  0
 61 55  1  0
 61 60  1  0
 62 55  2  0
 63 64  1  0
 65 66  2  0
 66 85  1  0
 67 66  1  0
 67 70  1  0
 68 65  1  0
 68 69  1  0
 69 67  2  0
 70 71  1  0
 71 72  2  0
 73 76  1  0
 73 72  1  0
 74 73  2  0
 75 74  1  0
 75 70  2  0
 76 77  1  0
 77 78  1  0
 78 79  2  0
 80 79  1  0
 80 84  1  0
 81 80  2  0
 82 77  2  0
 82 81  1  0
 83 82  1  0
 85 86  1  0
 86 89  1  0
 86 88  1  0
 87 85  2  0
 90 91  1  0
 90 65  1  0
 92 90  1  0
 94 93  1  0
M  ISO  4   6 101   7 101  55 100  63 100
M  END
>  <TORSDO>  (81) 
F 22

>  <SCORE>  (81) 
-13.674

>  <name>  (81) 
80

>  <ligand_id>  (81) 
80

>  <original_smiles>  (81) 
[H]c1sc(N([H])C(=O)N2C([H])([H])C([H])([H])C([H])([H])C([H])(n3nc(-c4c([H])c([H])c(Oc5c([H])c([H])c(F)c([H])c5F)c([H])c4[H])c(C(=O)N([H])[H])c3N([H])[H])C2([H])[H])c([H])c1C(C([H])([H])[H])(C([H])([H])C([H])([H])[H])C([H])(C(=O)C([H])([H])C([H])([H])Oc1c([H])c([H])c2c(c1[H])C([H])([H])N(C(=O)C([H])(N([H])C(=O)C([H])(N([H])C([H])([H])[H])C([H])([H])[H])C(C([H])([H])[H])(C([H])([H])[H])C([H])([H])[H])C([H])(C(=O)N([H])C1([H])c3c([H])c([H])c([H])c([H])c3C([H])([H])C([H])([H])C1([H])[H])C2([H])[H])C([H])([H])[H]

>  <smiles>  (81) 
[H]c1sc(N([H])C(=O)N2C([H])([H])C([H])([H])C([H])([H])C([H])(n3nc(-c4c([H])c([H])c(Oc5c([H])c([H])c(F)c([H])c5F)c([H])c4[H])c(C(=O)N([H])[H])c3N([H])[H])C2([H])[H])c([H])c1C(C([H])([H])[H])(C([H])([H])C([H])([H])[H])C([H])(C(=O)C([H])([H])C([H])([H])Oc1c([H])c([H])c2c(c1[H])C([H])([H])N(C(=O)C([H])(N([H])C(=O)C([H])(N([H])C([H])([H])[H])C([H])([H])[H])C(C([H])([H])[H])(C([H])([H])[H])C([H])([H])[H])C([H])(C(=O)N([H])C1([H])c3c([H])c([H])c([H])c([H])c3C([H])([H])C([H])([H])C1([H])[H])C2([H])[H])C([H])([H])[H]

$$$$
81:0:0
     RDKit          3D

100109  0  0  1  0  0  0  0  0999 V2000
  -28.8380  -19.8030   19.6850 C   0  0  0  0  0  3  0  0  0  0  0  0
  -29.1030  -17.3830   19.8460 C   0  0  0  0  0  3  0  0  0  0  0  0
  -30.2600  -18.8440   21.3980 C   0  0  0  0  0  3  0  0  0  0  0  0
  -28.5070  -18.5100   19.2230 C   0  0  0  0  0  0  0  0  0  0  0  0
  -29.7170  -20.0390   20.7580 C   0  0  0  0  0  0  0  0  0  0  0  0
  -29.9710  -17.4840   20.9540 C   0  0  0  0  0  0  0  0  0  0  0  0
  -31.0470  -15.1120   21.2460 C   0  0  0  0  0  0  0  0  0  0  0  0
  -31.0230  -12.7970   20.3040 C   0  0  0  0  0  2  0  0  0  0  0  0
  -30.2580  -12.8300   18.9600 C   0  0  0  0  0  2  0  0  0  0  0  0
  -28.7550  -12.5950   19.2120 C   0  0  0  0  0  2  0  0  0  0  0  0
  -28.1920  -13.5020   20.3430 C   0  0  0  0  0  3  0  0  0  0  0  0
  -29.1000  -13.4930   21.5970 C   0  0  0  0  0  2  0  0  0  0  0  0
  -30.4610  -13.8590   21.1760 N   0  0  0  0  0  0  0  0  0  0  0  0
  -32.2250  -15.2420   20.9040 O   0  0  0  0  0  0  0  0  0  0  0  0
  -30.3080  -16.2140   21.6590 N   0  0  0  0  0  0  0  0  0  0  0  0
  -29.5890  -15.9580   22.3210 H   0  0  0  0  0  0  0  0  0  0  0  0
  -25.7250  -14.0620   20.7900 C   0  0  0  0  0  0  0  0  0  0  0  0
  -24.6260  -13.2800   21.0110 C   0  0  0  0  0  0  0  0  0  0  0  0
  -25.1040  -11.9340   21.0260 C   0  0  0  0  0  0  0  0  0  0  0  0
  -26.8000  -13.1950   20.6650 N   0  0  0  0  0  0  0  0  0  0  0  0
  -26.4220  -11.9050   20.8660 N   0  0  0  0  0  0  0  0  0  0  0  0
  -24.3660  -10.6690   21.1320 C   0  0  0  0  0  0  0  0  0  0  0  0
  -24.7060   -9.6970   22.0990 C   0  0  0  0  0  3  0  0  0  0  0  0
  -23.9730   -8.4950   22.1920 C   0  0  0  0  0  3  0  0  0  0  0  0
  -22.8850   -8.2570   21.3190 C   0  0  0  0  0  0  0  0  0  0  0  0
  -22.5640   -9.2200   20.3440 C   0  0  0  0  0  3  0  0  0  0  0  0
  -23.3010  -10.4120   20.2500 C   0  0  0  0  0  3  0  0  0  0  0  0
  -22.1400   -7.1020   21.3140 O   0  0  0  0  0  0  0  0  0  0  0  0
  -21.9810   -6.3440   22.4440 C   0  0  0  0  0  0  0  0  0  0  0  0
  -21.4290   -6.8770   23.6280 C   0  0  0  0  0  3  0  0  0  0  0  0
  -21.2210   -6.0420   24.7430 C   0  0  0  0  0  3  0  0  0  0  0  0
  -21.5560   -4.6770   24.6770 C   0  0  0  0  0  0  0  0  0  0  0  0
  -22.1060   -4.1470   23.4990 C   0  0  0  0  0  3  0  0  0  0  0  0
  -22.3160   -4.9760   22.3850 C   0  0  0  0  0  0  0  0  0  0  0  0
  -22.8240   -4.4550   21.2430 F   0  0  0  0  0  0  0  0  0  0  0  0
  -21.3510   -3.8720   25.7500 F   0  0  0  0  0  0  0  0  0  0  0  0
  -23.2040  -13.7530   21.1130 C   0  0  0  0  0  0  0  0  0  0  0  0
  -22.3730  -13.0710   21.8910 N   0  0  0  0  0  0  0  0  0  0  0  0
  -22.8330  -14.7730   20.5380 O   0  0  0  0  0  0  0  0  0  0  0  0
  -22.6780  -12.2580   22.4040 H   0  0  0  0  0  0  0  0  0  0  0  0
  -21.4150  -13.3830   21.9820 H   0  0  0  0  0  0  0  0  0  0  0  0
  -25.8920  -15.4360   20.6810 N   0  0  0  0  0  0  0  0  0  0  0  0
  -25.1010  -16.0590   20.7930 H   0  0  0  0  0  0  0  0  0  0  0  0
  -26.7720  -15.9230   20.5990 H   0  0  0  0  0  0  0  0  0  0  0  0
  -29.8320  -22.9000   23.1250 C   0  0  0  0  0  2  0  0  0  0  0  0
  -29.8500  -24.2350   22.3420 C   0  0  0  0  0  2  0  0  0  0  0  0
  -30.5370  -21.7240   22.4220 C   0  0  0  0  0  2  0  0  0  0  0  0
  -29.1940  -22.5910   20.4690 C   0  0  0  0  0  2  0  0  0  0  0  0
  -29.6050  -24.1170   20.8100 C   0  0  2  0  0  0  0  0  0  0  0  0
  -30.8980  -24.4100   20.0250 C   0  0  0  0  0  1  0  0  0  0  0  0
  -29.9420  -21.4380   21.1210 N   0  0  0  0  0  0  0  0  0  0  0  0
  -28.5170  -25.2320   20.3680 C   0  0  0  0  0  2  0  0  0  0  0  0
  -28.7280  -26.7040   20.5530 O   0  0  0  0  0  0  0  0  0  0  0  0
  -24.8360  -32.0450   23.5400 C   0  0  0  0  0  0  0  0  0  0  0  0
  -27.6090  -27.5650   20.4710 C   0  0  0  0  0  0  0  0  0  0  0  0
  -23.7060  -30.6710   21.8290 C   0  0  0  0  0  3  0  0  0  0  0  0
  -25.2250  -29.1740   20.4120 C   0  0  0  0  0  0  0  0  0  0  0  0
  -26.2510  -31.0140   21.7460 C   0  0  0  0  0  2  0  0  0  0  0  0
  -26.3690  -29.6510   21.0660 C   0  0  0  0  0  0  0  0  0  0  0  0
  -27.5640  -28.8630   21.0820 C   0  0  0  0  0  3  0  0  0  0  0  0
  -26.4450  -27.1600   19.7770 C   0  0  0  0  0  3  0  0  0  0  0  0
  -25.2700  -27.9370   19.7550 C   0  0  0  0  0  3  0  0  0  0  0  0
  -23.9770  -30.0380   20.4400 C   0  0  0  0  0  2  0  0  0  0  0  0
  -24.9480  -31.2580   22.4280 N   0  0  0  0  0  0  0  0  0  0  0  0
  -23.7320  -32.3010   24.0380 O   0  0  0  0  0  0  0  0  0  0  0  0
  -23.0210  -29.6240   22.7390 C   0  0  0  0  0  0  0  0  0  0  0  0
  -21.7110  -29.4060   22.5330 N   0  0  0  0  0  0  0  0  0  0  0  0
  -23.6690  -29.0110   23.5900 O   0  0  0  0  0  0  0  0  0  0  0  0
  -21.2470  -29.9480   21.8170 H   0  0  0  0  0  0  0  0  0  0  0  0
  -18.3520  -28.0920   22.8130 C   0  0  0  0  0  0  0  0  0  0  0  0
  -20.8780  -28.4400   23.2490 C   0  0  0  0  0  3  0  0  0  0  0  0
  -21.0670  -27.0160   22.6800 C   0  0  0  0  0  2  0  0  0  0  0  0
  -20.0450  -26.6570   21.5960 C   0  0  0  0  0  2  0  0  0  0  0  0
  -18.6200  -26.7520   22.1480 C   0  0  0  0  0  2  0  0  0  0  0  0
  -19.4140  -28.8920   23.3150 C   0  0  0  0  0  0  0  0  0  0  0  0
  -19.1140  -30.1430   23.8960 C   0  0  0  0  0  3  0  0  0  0  0  0
  -17.7850  -30.5990   23.9750 C   0  0  0  0  0  3  0  0  0  0  0  0
  -16.7350  -29.7970   23.4920 C   0  0  0  0  0  3  0  0  0  0  0  0
  -17.0200  -28.5440   22.9180 C   0  0  0  0  0  3  0  0  0  0  0  0
  -26.0900  -32.6760   24.2200 C   0  0  0  0  0  3  0  0  0  0  0  0
  -25.7610  -34.0740   24.5380 N   0  0  0  0  0  0  0  0  0  0  0  0
  -26.1150  -35.1270   23.7910 C   0  0  0  0  0  0  0  0  0  0  0  0
  -26.8240  -35.0270   22.7840 O   0  0  0  0  0  0  0  0  0  0  0  0
  -25.1360  -34.2280   25.3160 H   0  0  0  0  0  0  0  0  0  0  0  0
  -24.3900  -36.9070   23.3800 C   0  0  0  0  0  1  0  0  0  0  0  0
  -25.6080  -36.5130   24.2300 C   0  0  0  0  0  3  0  0  0  0  0  0
  -27.7110  -37.4110   25.1230 C   0  0  0  0  0  1  0  0  0  0  0  0
  -26.6360  -37.5750   24.1470 N   0  0  0  0  0  0  0  0  0  0  0  0
  -26.2180  -38.4910   24.2830 H   0  0  0  0  0  0  0  0  0  0  0  0
  -26.5430  -31.9040   25.5200 C   0  0  1  0  0  0  0  0  0  0  0  0
  -25.3930  -31.6460   26.5220 C   0  0  0  0  0  1  0  0  0  0  0  0
  -27.1620  -30.5350   25.1540 C   0  0  0  0  0  1  0  0  0  0  0  0
  -27.6490  -32.7030   26.2480 C   0  0  0  0  0  1  0  0  0  0  0  0
  -26.1740  -19.1400   18.5980 C   0  0  0  0  0  1  0  0  0  0  0  0
  -27.0030  -16.9040   17.8930 C   0  0  0  0  0  1  0  0  0  0  0  0
  -27.4300  -18.3720   18.1190 C   0  0  2  0  0  0  0  0  0  0  0  0
  -27.9120  -18.9700   16.7610 C   0  0  0  0  0  0  0  0  0  0  0  0
  -27.2670  -19.8530   16.1800 O   0  0  0  0  0  0  0  0  0  0  0  0
  -29.8150  -19.3770   15.0740 C   0  0  0  0  0  1  0  0  0  0  0  0
  -29.2300  -18.4590   16.1660 C   0  0  0  0  0  2  0  0  0  0  0  0
  1  5  1  0
  2  6  2  0
  4  1  2  0
  4  2  1  0
  5 51  1  0
  5  3  2  0
  6  3  1  0
  6 15  1  0
  7 15  1  0
  8 13  1  0
  9 10  1  0
  9  8  1  0
 11 10  1  0
 11 20  1  0
 11 12  1  0
 13  7  1  0
 13 12  1  0
 14  7  2  0
 15 16  1  0
 17 18  2  0
 18 19  1  0
 18 37  1  0
 19 22  1  0
 20 17  1  0
 20 21  1  0
 21 19  2  0
 22 23  1  0
 23 24  2  0
 25 24  1  0
 26 25  2  0
 27 26  1  0
 27 22  2  0
 28 25  1  0
 28 29  1  0
 29 30  1  0
 30 31  2  0
 32 31  1  0
 32 36  1  0
 33 32  2  0
 34 29  2  0
 34 33  1  0
 35 34  1  0
 37 38  1  0
 38 41  1  0
 38 40  1  0
 39 37  2  0
 42 17  1  0
 42 43  1  0
 44 42  1  0
 46 45  1  0
 47 45  1  0
 48 49  1  0
 48 51  1  0
 49 50  1  6
 49 46  1  0
 51 47  1  0
 52 53  1  0
 52 49  1  0
 54 65  2  0
 55 53  1  0
 55 60  1  0
 56 64  1  0
 56 66  1  0
 57 63  1  0
 57 59  1  0
 58 64  1  0
 59 60  2  0
 59 58  1  0
 61 55  2  0
 62 61  1  0
 62 57  2  0
 63 56  1  0
 64 54  1  0
 66 68  2  0
 67 66  1  0
 69 67  1  0
 70 79  2  0
 70 75  1  0
 71 67  1  0
 71 75  1  0
 72 71  1  0
 73 74  1  0
 73 72  1  0
 74 70  1  0
 75 76  2  0
 76 77  1  0
 78 77  2  0
 79 78  1  0
 80 54  1  0
 80 81  1  0
 80 90  1  0
 81 84  1  0
 82 86  1  0
 82 81  1  0
 83 82  2  0
 86 85  1  0
 88 86  1  0
 88 89  1  0
 88 87  1  0
 90 93  1  1
 90 91  1  0
 92 90  1  0
 96 95  1  6
 96 94  1  0
 96  4  1  0
 97 96  1  0
 98 97  2  0
 99100  1  0
100 97  1  0
M  ISO  4   7 100  15 100  52 101  53 101
M  END
>  <TORSDO>  (82) 
F 21

>  <SCORE>  (82) 
-10.570

>  <name>  (82) 
81

>  <ligand_id>  (82) 
81

>  <original_smiles>  (82) 
[H]c1c([H])c([H])c2c(c1[H])C([H])([H])C([H])([H])C([H])([H])C2([H])N([H])C(=O)C1([H])N(C(=O)C([H])(N([H])C(=O)C([H])(N([H])C([H])([H])[H])C([H])([H])[H])C(C([H])([H])[H])(C([H])([H])[H])C([H])([H])[H])C([H])([H])c2c([H])c(OC([H])([H])C3(C([H])([H])[H])C([H])([H])N(c4c([H])c(N([H])C(=O)N5C([H])([H])C([H])([H])C([H])([H])C([H])(n6nc(-c7c([H])c([H])c(Oc8c([H])c([H])c(F)c([H])c8F)c([H])c7[H])c(C(=O)N([H])[H])c6N([H])[H])C5([H])[H])c([H])c(C(C(=O)C([H])([H])C([H])([H])[H])(C([H])([H])[H])C([H])([H])[H])c4[H])C([H])([H])C([H])([H])C3([H])[H])c([H])c([H])c2C1([H])[H]

>  <smiles>  (82) 
[H]c1c([H])c([H])c2c(c1[H])C([H])([H])C([H])([H])C([H])([H])C2([H])N([H])C(=O)C1([H])N(C(=O)C([H])(N([H])C(=O)C([H])(N([H])C([H])([H])[H])C([H])([H])[H])C(C([H])([H])[H])(C([H])([H])[H])C([H])([H])[H])C([H])([H])c2c([H])c(OC([H])([H])C3(C([H])([H])[H])C([H])([H])N(c4c([H])c(N([H])C(=O)N5C([H])([H])C([H])([H])C([H])([H])C([H])(n6nc(-c7c([H])c([H])c(Oc8c([H])c([H])c(F)c([H])c8F)c([H])c7[H])c(C(=O)N([H])[H])c6N([H])[H])C5([H])[H])c([H])c(C(C(=O)C([H])([H])C([H])([H])[H])(C([H])([H])[H])C([H])([H])[H])c4[H])C([H])([H])C([H])([H])C3([H])[H])c([H])c([H])c2C1([H])[H]

$$$$
82:0:0
     RDKit          3D

 98107  0  0  1  0  0  0  0  0999 V2000
  -30.2590  -20.6110   20.0060 C   0  0  0  0  0  3  0  0  0  0  0  0
  -32.4060  -22.2310   22.5560 C   0  0  0  0  0  2  0  0  0  0  0  0
  -32.4490  -23.2110   21.3840 C   0  0  0  0  0  2  0  0  0  0  0  0
  -31.7270  -20.9820   21.9870 C   0  0  0  0  0  2  0  0  0  0  0  0
  -31.1850  -22.8920   20.5770 C   0  0  0  0  0  3  0  0  0  0  0  0
  -30.9400  -21.4490   20.8250 N   0  0  0  0  0  0  0  0  0  0  0  0
  -29.6200  -21.1080   18.9480 N   0  0  0  0  0  0  0  0  0  0  0  0
  -29.0840  -20.4790   18.3700 H   0  0  0  0  0  0  0  0  0  0  0  0
  -29.5830  -22.0910   18.7410 H   0  0  0  0  0  0  0  0  0  0  0  0
  -29.7740  -18.5690   21.4030 C   0  0  0  0  0  3  0  0  0  0  0  0
  -30.5930  -18.3200   19.1240 C   0  0  0  0  0  3  0  0  0  0  0  0
  -29.7170  -17.1640   21.5330 C   0  0  0  0  0  3  0  0  0  0  0  0
  -30.5410  -16.9200   19.2570 C   0  0  0  0  0  3  0  0  0  0  0  0
  -30.2170  -19.1550   20.1970 C   0  0  0  0  0  0  0  0  0  0  0  0
  -30.1080  -16.3210   20.4680 C   0  0  0  0  0  0  0  0  0  0  0  0
  -30.5620  -13.9400   19.9110 C   0  0  0  0  0  0  0  0  0  0  0  0
  -30.1370  -11.8010   18.7770 C   0  0  0  0  0  2  0  0  0  0  0  0
  -29.0690  -12.0320   17.6880 C   0  0  0  0  0  2  0  0  0  0  0  0
  -27.6530  -11.8790   18.2730 C   0  0  0  0  0  2  0  0  0  0  0  0
  -27.4530  -12.6900   19.5810 C   0  0  0  0  0  3  0  0  0  0  0  0
  -28.6260  -12.4550   20.5630 C   0  0  0  0  0  2  0  0  0  0  0  0
  -29.8850  -12.7620   19.8610 N   0  0  0  0  0  0  0  0  0  0  0  0
  -31.6010  -14.1390   19.2770 O   0  0  0  0  0  0  0  0  0  0  0  0
  -29.9810  -14.9100   20.6380 N   0  0  0  0  0  0  0  0  0  0  0  0
  -29.2530  -14.6040   21.2650 H   0  0  0  0  0  0  0  0  0  0  0  0
  -25.1510  -13.2660   20.5820 C   0  0  0  0  0  0  0  0  0  0  0  0
  -24.1310  -12.4760   21.0410 C   0  0  0  0  0  0  0  0  0  0  0  0
  -24.5800  -11.1280   20.9000 C   0  0  0  0  0  0  0  0  0  0  0  0
  -26.1610  -12.3960   20.1980 N   0  0  0  0  0  0  0  0  0  0  0  0
  -25.8240  -11.1030   20.4410 N   0  0  0  0  0  0  0  0  0  0  0  0
  -23.8770   -9.8580   21.1210 C   0  0  0  0  0  0  0  0  0  0  0  0
  -24.3270   -8.9210   22.0770 C   0  0  0  0  0  3  0  0  0  0  0  0
  -23.6230   -7.7140   22.2830 C   0  0  0  0  0  3  0  0  0  0  0  0
  -22.4550   -7.4370   21.5340 C   0  0  0  0  0  0  0  0  0  0  0  0
  -22.0260   -8.3630   20.5670 C   0  0  0  0  0  3  0  0  0  0  0  0
  -22.7300   -9.5610   20.3580 C   0  0  0  0  0  3  0  0  0  0  0  0
  -21.7200   -6.2820   21.6490 O   0  0  0  0  0  0  0  0  0  0  0  0
  -21.5830   -5.6330   22.8500 C   0  0  0  0  0  0  0  0  0  0  0  0
  -20.9610   -6.2440   23.9610 C   0  0  0  0  0  3  0  0  0  0  0  0
  -20.7790   -5.5160   25.1540 C   0  0  0  0  0  3  0  0  0  0  0  0
  -21.2090   -4.1790   25.2360 C   0  0  0  0  0  0  0  0  0  0  0  0
  -21.8240   -3.5670   24.1300 C   0  0  0  0  0  3  0  0  0  0  0  0
  -22.0080   -4.2920   22.9390 C   0  0  0  0  0  0  0  0  0  0  0  0
  -22.5820   -3.6910   21.8690 F   0  0  0  0  0  0  0  0  0  0  0  0
  -21.0280   -3.4770   26.3800 F   0  0  0  0  0  0  0  0  0  0  0  0
  -22.7780  -12.9390   21.4970 C   0  0  0  0  0  0  0  0  0  0  0  0
  -22.1540  -12.2060   22.4130 N   0  0  0  0  0  0  0  0  0  0  0  0
  -22.2840  -13.9840   21.0740 O   0  0  0  0  0  0  0  0  0  0  0  0
  -22.5690  -11.3570   22.7720 H   0  0  0  0  0  0  0  0  0  0  0  0
  -21.2500  -12.4930   22.7590 H   0  0  0  0  0  0  0  0  0  0  0  0
  -25.3000  -14.6420   20.4410 N   0  0  0  0  0  0  0  0  0  0  0  0
  -24.5540  -15.2940   20.6600 H   0  0  0  0  0  0  0  0  0  0  0  0
  -26.1090  -15.0910   20.0310 H   0  0  0  0  0  0  0  0  0  0  0  0
  -29.9830  -23.7880   20.9600 C   0  0  0  0  0  2  0  0  0  0  0  0
  -30.0820  -25.2170   20.4060 C   0  0  0  0  0  0  0  0  0  0  0  0
  -31.0030  -25.5700   19.6620 O   0  0  0  0  0  0  0  0  0  0  0  0
  -28.9700  -26.1950   20.7760 C   0  0  0  0  0  2  0  0  0  0  0  0
  -28.1020  -26.3030   19.6570 O   0  0  0  0  0  0  0  0  0  0  0  0
  -24.6820  -31.5710   23.0800 C   0  0  0  0  0  0  0  0  0  0  0  0
  -27.0100  -27.1190   19.7970 C   0  0  0  0  0  0  0  0  0  0  0  0
  -23.3600  -30.2940   21.4240 C   0  0  0  0  0  3  0  0  0  0  0  0
  -24.6930  -28.7220   19.9230 C   0  0  0  0  0  0  0  0  0  0  0  0
  -25.8920  -30.5240   21.1750 C   0  0  0  0  0  2  0  0  0  0  0  0
  -25.8870  -29.1680   20.5040 C   0  0  0  0  0  0  0  0  0  0  0  0
  -27.0490  -28.3710   20.4510 C   0  0  0  0  0  3  0  0  0  0  0  0
  -25.8060  -26.6840   19.2110 C   0  0  0  0  0  3  0  0  0  0  0  0
  -24.6420  -27.4730   19.2810 C   0  0  0  0  0  3  0  0  0  0  0  0
  -23.4990  -29.6440   20.0210 C   0  0  0  0  0  2  0  0  0  0  0  0
  -24.6650  -30.8080   21.9510 N   0  0  0  0  0  0  0  0  0  0  0  0
  -23.6310  -31.8850   23.6550 O   0  0  0  0  0  0  0  0  0  0  0  0
  -22.6750  -29.2780   22.3670 C   0  0  0  0  0  0  0  0  0  0  0  0
  -21.3420  -29.1690   22.2570 N   0  0  0  0  0  0  0  0  0  0  0  0
  -23.3400  -28.5940   23.1490 O   0  0  0  0  0  0  0  0  0  0  0  0
  -20.8700  -29.7700   21.5980 H   0  0  0  0  0  0  0  0  0  0  0  0
  -17.9190  -28.1510   22.7920 C   0  0  0  0  0  0  0  0  0  0  0  0
  -20.4910  -28.2530   23.0160 C   0  0  0  0  0  3  0  0  0  0  0  0
  -20.5000  -26.8380   22.3960 C   0  0  0  0  0  2  0  0  0  0  0  0
  -19.3630  -26.6110   21.3930 C   0  0  0  0  0  2  0  0  0  0  0  0
  -18.0040  -26.8170   22.0690 C   0  0  0  0  0  2  0  0  0  0  0  0
  -19.0880  -28.8330   23.2220 C   0  0  0  0  0  0  0  0  0  0  0  0
  -18.9550  -30.0880   23.8550 C   0  0  0  0  0  3  0  0  0  0  0  0
  -17.6860  -30.6580   24.0630 C   0  0  0  0  0  3  0  0  0  0  0  0
  -16.5310  -29.9720   23.6480 C   0  0  0  0  0  3  0  0  0  0  0  0
  -16.6490  -28.7200   23.0190 C   0  0  0  0  0  3  0  0  0  0  0  0
  -26.0180  -32.1050   23.6850 C   0  0  0  0  0  3  0  0  0  0  0  0
  -26.5500  -31.2320   24.8870 C   0  0  1  0  0  0  0  0  0  0  0  0
  -25.4880  -30.9740   25.9830 C   0  0  0  0  0  1  0  0  0  0  0  0
  -27.0530  -29.8590   24.3850 C   0  0  0  0  0  1  0  0  0  0  0  0
  -27.7620  -31.9310   25.5480 C   0  0  0  0  0  1  0  0  0  0  0  0
  -25.7850  -33.4910   24.1100 N   0  0  0  0  0  0  0  0  0  0  0  0
  -26.1280  -34.5730   23.3960 C   0  0  0  0  0  0  0  0  0  0  0  0
  -26.7430  -34.5030   22.3290 O   0  0  0  0  0  0  0  0  0  0  0  0
  -25.2280  -33.6200   24.9410 H   0  0  0  0  0  0  0  0  0  0  0  0
  -24.4460  -36.4370   23.2410 C   0  0  0  0  0  1  0  0  0  0  0  0
  -25.7170  -35.9480   23.9540 C   0  0  0  0  0  3  0  0  0  0  0  0
  -27.9270  -36.7120   24.7060 C   0  0  0  0  0  1  0  0  0  0  0  0
  -26.7770  -36.9730   23.8430 N   0  0  0  0  0  0  0  0  0  0  0  0
  -26.4110  -37.8930   24.0780 H   0  0  0  0  0  0  0  0  0  0  0  0
  1  7  1  0
  1 14  1  0
  1  6  1  0
  3  2  1  0
  4  2  1  0
  5  6  1  0
  5 54  1  0
  5  3  1  0
  6  4  1  0
  8  7  1  0
  9  7  1  0
 10 12  1  0
 11 13  2  0
 11 14  1  0
 13 15  1  0
 14 10  2  0
 15 24  1  0
 15 12  2  0
 16 24  1  0
 17 22  1  0
 18 19  1  0
 18 17  1  0
 20 19  1  0
 20 29  1  0
 20 21  1  0
 22 16  1  0
 22 21  1  0
 23 16  2  0
 24 25  1  0
 26 27  2  0
 27 46  1  0
 28 27  1  0
 28 31  1  0
 29 30  1  0
 29 26  1  0
 30 28  2  0
 31 32  1  0
 32 33  2  0
 34 37  1  0
 34 33  1  0
 35 34  2  0
 36 35  1  0
 36 31  2  0
 37 38  1  0
 38 43  2  0
 38 39  1  0
 39 40  2  0
 40 41  1  0
 41 45  1  0
 42 41  2  0
 43 42  1  0
 44 43  1  0
 46 47  1  0
 47 50  1  0
 47 49  1  0
 48 46  2  0
 51 26  1  0
 51 52  1  0
 53 51  1  0
 55 57  1  0
 55 54  1  0
 56 55  2  0
 58 60  1  0
 58 57  1  0
 59 70  2  0
 60 65  1  0
 61 69  1  0
 61 71  1  0
 62 68  1  0
 62 64  1  0
 63 69  1  0
 64 63  1  0
 65 64  2  0
 66 67  1  0
 66 60  2  0
 67 62  2  0
 68 61  1  0
 69 59  1  0
 71 73  2  0
 72 71  1  0
 74 72  1  0
 75 84  2  0
 75 80  1  0
 76 72  1  0
 76 80  1  0
 77 76  1  0
 78 79  1  0
 78 77  1  0
 79 75  1  0
 80 81  2  0
 81 82  1  0
 83 82  2  0
 84 83  1  0
 85 59  1  0
 85 90  1  0
 85 86  1  0
 86 89  1  1
 86 87  1  0
 88 86  1  0
 90 93  1  0
 91 95  1  0
 91 90  1  0
 92 91  2  0
 95 94  1  0
 97 95  1  0
 97 98  1  0
 97 96  1  0
M  ISO  4  16 100  24 100  57 101  58 101
M  END
>  <TORSDO>  (83) 
F 20

>  <SCORE>  (83) 
-9.776

>  <name>  (83) 
82

>  <ligand_id>  (83) 
82

>  <original_smiles>  (83) 
[H]c1c([H])c([H])c2c(c1[H])C([H])([H])C([H])([H])C([H])([H])C2([H])N([H])C(=O)C1([H])N(C(=O)C([H])(N([H])C(=O)C([H])(N([H])C([H])([H])[H])C([H])([H])[H])C(C([H])([H])[H])(C([H])([H])[H])C([H])([H])[H])C([H])([H])c2c([H])c(OC([H])([H])C(=O)C([H])([H])C3([H])N(C(c4c([H])c([H])c(N([H])C(=O)N5C([H])([H])C([H])([H])C([H])([H])C([H])(n6nc(-c7c([H])c([H])c(Oc8c([H])c([H])c(F)c([H])c8F)c([H])c7[H])c(C(=O)N([H])[H])c6N([H])[H])C5([H])[H])c([H])c4[H])=[N+]([H])[H])C([H])([H])C([H])([H])C3([H])[H])c([H])c([H])c2C1([H])[H]

>  <smiles>  (83) 
[H]c1c([H])c([H])c2c(c1[H])C([H])([H])C([H])([H])C([H])([H])C2([H])N([H])C(=O)C1([H])N(C(=O)C([H])(N([H])C(=O)C([H])(N([H])C([H])([H])[H])C([H])([H])[H])C(C([H])([H])[H])(C([H])([H])[H])C([H])([H])[H])C([H])([H])c2c([H])c(OC([H])([H])C(=O)C([H])([H])C3([H])N(C(c4c([H])c([H])c(N([H])C(=O)N5C([H])([H])C([H])([H])C([H])([H])C([H])(n6nc(-c7c([H])c([H])c(Oc8c([H])c([H])c(F)c([H])c8F)c([H])c7[H])c(C(=O)N([H])[H])c6N([H])[H])C5([H])[H])c([H])c4[H])=[N+]([H])[H])C([H])([H])C([H])([H])C3([H])[H])c([H])c([H])c2C1([H])[H]

$$$$
83:0:0
     RDKit          3D

 90 98  0  0  1  0  0  0  0  0999 V2000
  -28.7200  -20.9670   22.1900 O   0  0  0  0  0  0  0  0  0  0  0  0
  -31.0880  -21.5680   21.5560 O   0  0  0  0  0  0  0  0  0  0  0  0
  -29.7330  -21.1620   21.1360 S   0  0  1  0  0  0  0  0  0  0  0  0
  -30.6030  -17.7020   19.0850 C   0  0  0  0  0  3  0  0  0  0  0  0
  -30.4780  -19.1320   19.1120 C   0  0  0  0  0  3  0  0  0  0  0  0
  -30.1490  -17.2420   20.2930 C   0  0  0  0  0  0  0  0  0  0  0  0
  -29.9470  -19.5040   20.3220 C   0  0  0  0  0  0  0  0  0  0  0  0
  -29.7090  -18.3270   21.0490 O   0  0  0  0  0  0  0  0  0  0  0  0
  -30.7920  -14.8260   20.2820 C   0  0  0  0  0  0  0  0  0  0  0  0
  -30.5750  -12.5840   19.2430 C   0  0  0  0  0  2  0  0  0  0  0  0
  -29.6400  -12.7140   18.0220 C   0  0  0  0  0  2  0  0  0  0  0  0
  -28.1650  -12.5580   18.4430 C   0  0  0  0  0  2  0  0  0  0  0  0
  -27.8040  -13.4080   19.6940 C   0  0  0  0  0  3  0  0  0  0  0  0
  -28.8630  -13.2600   20.8100 C   0  0  0  0  0  2  0  0  0  0  0  0
  -30.1700  -13.6040   20.2330 N   0  0  0  0  0  0  0  0  0  0  0  0
  -31.9470  -14.9610   19.8620 O   0  0  0  0  0  0  0  0  0  0  0  0
  -30.0450  -15.9090   20.6800 N   0  0  0  0  0  0  0  0  0  0  0  0
  -29.2220  -15.6800   21.2150 H   0  0  0  0  0  0  0  0  0  0  0  0
  -25.4080  -13.9930   20.4070 C   0  0  0  0  0  0  0  0  0  0  0  0
  -24.3450  -13.2160   20.7740 C   0  0  0  0  0  0  0  0  0  0  0  0
  -24.8120  -11.8650   20.7440 C   0  0  0  0  0  0  0  0  0  0  0  0
  -26.4570  -13.1180   20.1730 N   0  0  0  0  0  0  0  0  0  0  0  0
  -26.1040  -11.8320   20.4350 N   0  0  0  0  0  0  0  0  0  0  0  0
  -24.0900  -10.6010   20.9360 C   0  0  0  0  0  0  0  0  0  0  0  0
  -24.4940   -9.6630   21.9110 C   0  0  0  0  0  3  0  0  0  0  0  0
  -23.7750   -8.4610   22.0890 C   0  0  0  0  0  3  0  0  0  0  0  0
  -22.6350   -8.1900   21.2930 C   0  0  0  0  0  0  0  0  0  0  0  0
  -22.2530   -9.1190   20.3080 C   0  0  0  0  0  3  0  0  0  0  0  0
  -22.9720  -10.3110   20.1280 C   0  0  0  0  0  3  0  0  0  0  0  0
  -21.8890   -7.0390   21.3770 O   0  0  0  0  0  0  0  0  0  0  0  0
  -21.7600   -6.3520   22.5570 C   0  0  0  0  0  0  0  0  0  0  0  0
  -21.1810   -6.9410   23.7030 C   0  0  0  0  0  3  0  0  0  0  0  0
  -21.0030   -6.1760   24.8730 C   0  0  0  0  0  3  0  0  0  0  0  0
  -21.3950   -4.8240   24.8980 C   0  0  0  0  0  0  0  0  0  0  0  0
  -21.9670   -4.2350   23.7570 C   0  0  0  0  0  3  0  0  0  0  0  0
  -22.1470   -4.9970   22.5890 C   0  0  0  0  0  0  0  0  0  0  0  0
  -22.6790   -4.4190   21.4860 F   0  0  0  0  0  0  0  0  0  0  0  0
  -21.2180   -4.0860   26.0190 F   0  0  0  0  0  0  0  0  0  0  0  0
  -22.9450  -13.6880   21.0450 C   0  0  0  0  0  0  0  0  0  0  0  0
  -22.2130  -12.9830   21.9010 N   0  0  0  0  0  0  0  0  0  0  0  0
  -22.5080  -14.7180   20.5320 O   0  0  0  0  0  0  0  0  0  0  0  0
  -22.5810  -12.1530   22.3390 H   0  0  0  0  0  0  0  0  0  0  0  0
  -21.2750  -13.2830   22.1230 H   0  0  0  0  0  0  0  0  0  0  0  0
  -25.5690  -15.3650   20.2320 N   0  0  0  0  0  0  0  0  0  0  0  0
  -24.8040  -16.0180   20.3580 H   0  0  0  0  0  0  0  0  0  0  0  0
  -26.4180  -15.8050   19.9000 H   0  0  0  0  0  0  0  0  0  0  0  0
  -29.0830  -22.5270   19.9770 C   0  0  0  0  0  2  0  0  0  0  0  0
  -29.1910  -24.0370   20.5130 C   0  0  0  0  0  3  0  0  0  0  0  0
  -28.2940  -25.1560   19.8090 C   0  0  0  0  0  3  0  0  0  0  0  0
  -28.4320  -26.5990   20.1570 O   0  0  0  0  0  0  0  0  0  0  0  0
  -24.6140  -31.9010   23.2310 C   0  0  0  0  0  0  0  0  0  0  0  0
  -27.3080  -27.4450   20.0850 C   0  0  0  0  0  0  0  0  0  0  0  0
  -23.4370  -30.5190   21.5570 C   0  0  0  0  0  3  0  0  0  0  0  0
  -24.9200  -29.0330   20.0960 C   0  0  0  0  0  0  0  0  0  0  0  0
  -25.9740  -30.8790   21.3950 C   0  0  0  0  0  2  0  0  0  0  0  0
  -26.0770  -29.5180   20.7150 C   0  0  0  0  0  0  0  0  0  0  0  0
  -27.2710  -28.7340   20.7040 C   0  0  0  0  0  3  0  0  0  0  0  0
  -26.1290  -27.0310   19.4200 C   0  0  0  0  0  3  0  0  0  0  0  0
  -24.9490  -27.7960   19.4360 C   0  0  0  0  0  3  0  0  0  0  0  0
  -23.6680  -29.8820   20.1620 C   0  0  0  0  0  2  0  0  0  0  0  0
  -24.6930  -31.1150   22.1180 N   0  0  0  0  0  0  0  0  0  0  0  0
  -23.5250  -32.1490   23.7700 O   0  0  0  0  0  0  0  0  0  0  0  0
  -22.7890  -29.4710   22.4910 C   0  0  0  0  0  0  0  0  0  0  0  0
  -21.4670  -29.2670   22.3490 N   0  0  0  0  0  0  0  0  0  0  0  0
  -23.4730  -28.8440   23.3030 O   0  0  0  0  0  0  0  0  0  0  0  0
  -20.9720  -29.8240   21.6670 H   0  0  0  0  0  0  0  0  0  0  0  0
  -18.1100  -28.0030   22.8080 C   0  0  0  0  0  0  0  0  0  0  0  0
  -20.6620  -28.3000   23.0970 C   0  0  0  0  0  3  0  0  0  0  0  0
  -20.7920  -26.8830   22.4930 C   0  0  0  0  0  2  0  0  0  0  0  0
  -19.7030  -26.5630   21.4660 C   0  0  0  0  0  2  0  0  0  0  0  0
  -18.3140  -26.6710   22.1050 C   0  0  0  0  0  2  0  0  0  0  0  0
  -19.2120  -28.7760   23.2590 C   0  0  0  0  0  0  0  0  0  0  0  0
  -18.9680  -30.0220   23.8750 C   0  0  0  0  0  3  0  0  0  0  0  0
  -17.6530  -30.4960   24.0450 C   0  0  0  0  0  3  0  0  0  0  0  0
  -16.5660  -29.7200   23.6110 C   0  0  0  0  0  3  0  0  0  0  0  0
  -16.7940  -28.4750   22.9980 C   0  0  0  0  0  3  0  0  0  0  0  0
  -25.8870  -32.5410   23.8680 C   0  0  0  0  0  3  0  0  0  0  0  0
  -26.3890  -31.7770   25.1540 C   0  0  1  0  0  0  0  0  0  0  0  0
  -25.2790  -31.5290   26.2030 C   0  0  0  0  0  1  0  0  0  0  0  0
  -26.9920  -30.4040   24.7760 C   0  0  0  0  0  1  0  0  0  0  0  0
  -27.5180  -32.5820   25.8390 C   0  0  0  0  0  1  0  0  0  0  0  0
  -25.5660  -33.9380   24.1920 N   0  0  0  0  0  0  0  0  0  0  0  0
  -25.9140  -34.9940   23.4440 C   0  0  0  0  0  0  0  0  0  0  0  0
  -26.6060  -34.8940   22.4280 O   0  0  0  0  0  0  0  0  0  0  0  0
  -24.9550  -34.0910   24.9800 H   0  0  0  0  0  0  0  0  0  0  0  0
  -24.2110  -36.8000   23.0320 C   0  0  0  0  0  1  0  0  0  0  0  0
  -25.4120  -36.3800   23.8940 C   0  0  0  0  0  3  0  0  0  0  0  0
  -27.5030  -37.2530   24.8390 C   0  0  0  0  0  1  0  0  0  0  0  0
  -26.4520  -37.4290   23.8400 N   0  0  0  0  0  0  0  0  0  0  0  0
  -26.0420  -38.3490   23.9750 H   0  0  0  0  0  0  0  0  0  0  0  0
  3  2  2  0
  3  1  2  0
  4  5  1  0
  4  6  2  0
  5  7  2  0
  6 17  1  0
  6  8  1  0
  7  8  1  0
  7  3  1  0
  9 17  1  0
 10 15  1  0
 11 12  1  0
 11 10  1  0
 13 12  1  0
 13 22  1  0
 13 14  1  0
 15  9  1  0
 15 14  1  0
 16  9  2  0
 17 18  1  0
 19 20  2  0
 20 39  1  0
 21 20  1  0
 21 24  1  0
 22 19  1  0
 22 23  1  0
 23 21  2  0
 24 25  1  0
 25 26  2  0
 27 30  1  0
 27 26  1  0
 28 27  2  0
 29 28  1  0
 29 24  2  0
 30 31  1  0
 31 36  2  0
 31 32  1  0
 32 33  2  0
 33 34  1  0
 34 38  1  0
 35 34  2  0
 36 35  1  0
 37 36  1  0
 39 40  1  0
 40 43  1  0
 40 42  1  0
 41 39  2  0
 44 45  1  0
 44 19  1  0
 46 44  1  0
 47 48  1  0
  3 47  1  6
 49 50  1  0
 49 48  2  0
 51 62  2  0
 52 50  1  0
 52 57  1  0
 53 61  1  0
 53 63  1  0
 54 60  1  0
 54 56  1  0
 55 61  1  0
 56 55  1  0
 57 56  2  0
 58 59  1  0
 58 52  2  0
 59 54  2  0
 60 53  1  0
 61 51  1  0
 63 65  2  0
 64 63  1  0
 66 64  1  0
 67 76  2  0
 67 72  1  0
 68 64  1  0
 68 72  1  0
 69 68  1  0
 70 71  1  0
 70 69  1  0
 71 67  1  0
 72 73  2  0
 73 74  1  0
 75 74  2  0
 76 75  1  0
 77 51  1  0
 77 82  1  0
 77 78  1  0
 78 81  1  1
 78 79  1  0
 80 78  1  0
 82 85  1  0
 83 87  1  0
 83 82  1  0
 84 83  2  0
 87 86  1  0
 89 87  1  0
 89 90  1  0
 89 88  1  0
M  ISO  4   9 100  17 100  49 101  50 101
M  END
>  <TORSDO>  (84) 
F 20

>  <SCORE>  (84) 
-13.484

>  <name>  (84) 
83

>  <ligand_id>  (84) 
83

>  <original_smiles>  (84) 
[H]c1c(N([H])C(=O)N2C([H])([H])C([H])([H])C([H])([H])C([H])(n3nc(-c4c([H])c([H])c(Oc5c([H])c([H])c(F)c([H])c5F)c([H])c4[H])c(C(=O)N([H])[H])c3N([H])[H])C2([H])[H])oc(S(=O)(=O)C([H])([H])C([H])([H])C([H])([H])Oc2c([H])c([H])c3c(c2[H])C([H])([H])N(C(=O)C([H])(N([H])C(=O)C([H])(N([H])C([H])([H])[H])C([H])([H])[H])C(C([H])([H])[H])(C([H])([H])[H])C([H])([H])[H])C([H])(C(=O)N([H])C2([H])c4c([H])c([H])c([H])c([H])c4C([H])([H])C([H])([H])C2([H])[H])C3([H])[H])c1[H]

>  <smiles>  (84) 
[H]c1c(N([H])C(=O)N2C([H])([H])C([H])([H])C([H])([H])C([H])(n3nc(-c4c([H])c([H])c(Oc5c([H])c([H])c(F)c([H])c5F)c([H])c4[H])c(C(=O)N([H])[H])c3N([H])[H])C2([H])[H])oc(S(=O)(=O)C([H])([H])C([H])([H])C([H])([H])Oc2c([H])c([H])c3c(c2[H])C([H])([H])N(C(=O)C([H])(N([H])C(=O)C([H])(N([H])C([H])([H])[H])C([H])([H])[H])C(C([H])([H])[H])(C([H])([H])[H])C([H])([H])[H])C([H])(C(=O)N([H])C2([H])c4c([H])c([H])c([H])c([H])c4C([H])([H])C([H])([H])C2([H])[H])C3([H])[H])c1[H]

$$$$
84:0:0
     RDKit          3D

 98107  0  0  1  0  0  0  0  0999 V2000
  -29.4130  -24.7350   20.4030 C   0  0  0  0  0  0  0  0  0  0  0  0
  -28.9830  -26.0170   20.5260 C   0  0  0  0  0  3  0  0  0  0  0  0
  -30.9510  -21.5760   21.6360 C   0  0  0  0  0  3  0  0  0  0  0  0
  -29.2800  -23.8500   19.1830 C   0  0  0  0  0  2  0  0  0  0  0  0
  -30.1190  -23.9520   21.4960 C   0  0  0  0  0  2  0  0  0  0  0  0
  -29.6950  -22.4300   19.6300 C   0  0  0  0  0  2  0  0  0  0  0  0
  -30.3120  -22.5760   20.9620 N   0  0  0  0  0  0  0  0  0  0  0  0
  -31.5610  -21.8910   22.7770 N   0  0  0  0  0  0  0  0  0  0  0  0
  -32.0410  -21.1630   23.2850 H   0  0  0  0  0  0  0  0  0  0  0  0
  -31.5880  -22.8290   23.1390 H   0  0  0  0  0  0  0  0  0  0  0  0
  -32.1580  -19.3730   21.5590 C   0  0  0  0  0  3  0  0  0  0  0  0
  -32.1650  -17.9580   21.4270 C   0  0  0  0  0  3  0  0  0  0  0  0
  -29.8850  -18.0440   20.6140 C   0  0  0  0  0  3  0  0  0  0  0  0
  -29.8650  -19.4540   20.7460 C   0  0  0  0  0  0  0  0  0  0  0  0
  -31.0110  -20.1420   21.2400 C   0  0  0  0  0  0  0  0  0  0  0  0
  -31.0110  -17.2710   20.9740 C   0  0  0  0  0  0  0  0  0  0  0  0
  -31.5520  -14.8930   20.2010 C   0  0  0  0  0  0  0  0  0  0  0  0
  -31.1730  -12.7690   18.9840 C   0  0  0  0  0  2  0  0  0  0  0  0
  -30.2230  -13.0410   17.7970 C   0  0  0  0  0  2  0  0  0  0  0  0
  -28.7450  -12.9760   18.2350 C   0  0  0  0  0  2  0  0  0  0  0  0
  -28.4680  -13.8000   19.5200 C   0  0  0  0  0  3  0  0  0  0  0  0
  -29.5120  -13.4640   20.6090 C   0  0  0  0  0  2  0  0  0  0  0  0
  -30.8520  -13.7330   20.0480 N   0  0  0  0  0  0  0  0  0  0  0  0
  -32.6650  -15.0730   19.6970 O   0  0  0  0  0  0  0  0  0  0  0  0
  -30.8680  -15.8470   20.8680 N   0  0  0  0  0  0  0  0  0  0  0  0
  -30.0120  -15.4860   21.2580 H   0  0  0  0  0  0  0  0  0  0  0  0
  -26.1170  -14.5500   20.2560 C   0  0  0  0  0  0  0  0  0  0  0  0
  -25.0030  -13.8410   20.6190 C   0  0  0  0  0  0  0  0  0  0  0  0
  -25.3770  -12.4630   20.5580 C   0  0  0  0  0  0  0  0  0  0  0  0
  -27.1010  -13.6070   20.0010 N   0  0  0  0  0  0  0  0  0  0  0  0
  -26.6590  -12.3460   20.2390 N   0  0  0  0  0  0  0  0  0  0  0  0
  -24.5720  -11.2460   20.7310 C   0  0  0  0  0  0  0  0  0  0  0  0
  -24.9320  -10.2510   21.6650 C   0  0  0  0  0  3  0  0  0  0  0  0
  -24.1350   -9.0970   21.8250 C   0  0  0  0  0  3  0  0  0  0  0  0
  -22.9620   -8.9320   21.0500 C   0  0  0  0  0  0  0  0  0  0  0  0
  -22.6210   -9.9160   20.1040 C   0  0  0  0  0  3  0  0  0  0  0  0
  -23.4200  -11.0610   19.9430 C   0  0  0  0  0  3  0  0  0  0  0  0
  -22.1410   -7.8340   21.1190 O   0  0  0  0  0  0  0  0  0  0  0  0
  -21.9670   -7.1380   22.2880 C   0  0  0  0  0  0  0  0  0  0  0  0
  -21.5260   -7.7680   23.4720 C   0  0  0  0  0  3  0  0  0  0  0  0
  -21.2930   -7.0030   24.6330 C   0  0  0  0  0  3  0  0  0  0  0  0
  -21.4900   -5.6100   24.6090 C   0  0  0  0  0  0  0  0  0  0  0  0
  -21.9240   -4.9790   23.4300 C   0  0  0  0  0  3  0  0  0  0  0  0
  -22.1580   -5.7410   22.2710 C   0  0  0  0  0  0  0  0  0  0  0  0
  -22.5550   -5.1260   21.1310 F   0  0  0  0  0  0  0  0  0  0  0  0
  -21.2600   -4.8730   25.7210 F   0  0  0  0  0  0  0  0  0  0  0  0
  -23.6410  -14.4010   20.9120 C   0  0  0  0  0  0  0  0  0  0  0  0
  -22.8890  -13.7510   21.7950 N   0  0  0  0  0  0  0  0  0  0  0  0
  -23.2550  -15.4480   20.3960 O   0  0  0  0  0  0  0  0  0  0  0  0
  -23.2140  -12.9040   22.2350 H   0  0  0  0  0  0  0  0  0  0  0  0
  -21.9740  -14.1090   22.0330 H   0  0  0  0  0  0  0  0  0  0  0  0
  -26.3690  -15.9100   20.1020 N   0  0  0  0  0  0  0  0  0  0  0  0
  -25.6400  -16.6060   20.2150 H   0  0  0  0  0  0  0  0  0  0  0  0
  -27.2290  -16.2950   19.7330 H   0  0  0  0  0  0  0  0  0  0  0  0
  -28.6170  -20.1410   20.4250 C   0  0  0  0  0  0  0  0  0  0  0  0
  -27.5570  -20.7060   20.2030 C   0  0  0  0  0  0  0  0  0  0  0  0
  -26.2710  -21.3770   19.9740 C   0  0  0  0  0  1  0  0  0  0  0  0
  -28.4800  -26.7720   19.4920 O   0  0  0  0  0  0  0  0  0  0  0  0
  -24.6550  -31.6810   23.0900 C   0  0  0  0  0  0  0  0  0  0  0  0
  -27.3120  -27.4780   19.6870 C   0  0  0  0  0  0  0  0  0  0  0  0
  -23.4260  -30.3150   21.4340 C   0  0  0  0  0  3  0  0  0  0  0  0
  -24.8700  -28.8970   19.8780 C   0  0  0  0  0  0  0  0  0  0  0  0
  -25.9280  -30.7720   21.1470 C   0  0  0  0  0  2  0  0  0  0  0  0
  -26.0360  -29.4320   20.4430 C   0  0  0  0  0  0  0  0  0  0  0  0
  -27.2630  -28.7280   20.3490 C   0  0  0  0  0  3  0  0  0  0  0  0
  -26.1320  -26.9600   19.1190 C   0  0  0  0  0  3  0  0  0  0  0  0
  -24.9130  -27.6570   19.2160 C   0  0  0  0  0  3  0  0  0  0  0  0
  -23.6000  -29.7080   20.0160 C   0  0  0  0  0  2  0  0  0  0  0  0
  -24.6900  -30.9360   21.9480 N   0  0  0  0  0  0  0  0  0  0  0  0
  -23.5900  -31.8870   23.6900 O   0  0  0  0  0  0  0  0  0  0  0  0
  -22.8540  -29.2260   22.3710 C   0  0  0  0  0  0  0  0  0  0  0  0
  -21.5520  -28.9320   22.2230 N   0  0  0  0  0  0  0  0  0  0  0  0
  -23.5790  -28.6480   23.1850 O   0  0  0  0  0  0  0  0  0  0  0  0
  -21.0250  -29.4550   21.5370 H   0  0  0  0  0  0  0  0  0  0  0  0
  -18.3210  -27.3440   22.5600 C   0  0  0  0  0  0  0  0  0  0  0  0
  -20.8090  -27.9130   22.9670 C   0  0  0  0  0  3  0  0  0  0  0  0
  -21.1170  -26.4980   22.4250 C   0  0  0  0  0  2  0  0  0  0  0  0
  -20.1200  -26.0310   21.3600 C   0  0  0  0  0  2  0  0  0  0  0  0
  -18.6970  -26.0160   21.9250 C   0  0  0  0  0  2  0  0  0  0  0  0
  -19.3140  -28.2420   23.0340 C   0  0  0  0  0  0  0  0  0  0  0  0
  -18.9130  -29.4780   23.5850 C   0  0  0  0  0  3  0  0  0  0  0  0
  -17.5520  -29.8220   23.6670 C   0  0  0  0  0  3  0  0  0  0  0  0
  -16.5720  -28.9240   23.2110 C   0  0  0  0  0  3  0  0  0  0  0  0
  -16.9570  -27.6870   22.6630 C   0  0  0  0  0  3  0  0  0  0  0  0
  -25.9450  -32.3280   23.6840 C   0  0  0  0  0  3  0  0  0  0  0  0
  -25.6070  -33.6990   24.0880 N   0  0  0  0  0  0  0  0  0  0  0  0
  -25.8940  -34.7960   23.3720 C   0  0  0  0  0  0  0  0  0  0  0  0
  -26.5440  -34.7610   22.3240 O   0  0  0  0  0  0  0  0  0  0  0  0
  -25.0220  -33.7990   24.9040 H   0  0  0  0  0  0  0  0  0  0  0  0
  -24.1060  -36.5500   23.1420 C   0  0  0  0  0  1  0  0  0  0  0  0
  -25.3780  -36.1470   23.9040 C   0  0  0  0  0  3  0  0  0  0  0  0
  -27.5060  -37.0530   24.7270 C   0  0  0  0  0  1  0  0  0  0  0  0
  -26.3770  -37.2340   23.8190 N   0  0  0  0  0  0  0  0  0  0  0  0
  -25.9490  -38.1340   24.0190 H   0  0  0  0  0  0  0  0  0  0  0  0
  -26.5440  -31.5190   24.8990 C   0  0  1  0  0  0  0  0  0  0  0  0
  -25.5100  -31.2010   26.0040 C   0  0  0  0  0  1  0  0  0  0  0  0
  -27.1480  -30.1780   24.4200 C   0  0  0  0  0  1  0  0  0  0  0  0
  -27.7010  -32.3200   25.5420 C   0  0  0  0  0  1  0  0  0  0  0  0
  1  2  2  0
  1  5  1  0
  3  8  1  0
  4  6  1  0
  4  1  1  0
  6  7  1  0
  7  5  1  0
  7  3  1  0
  8 10  1  0
  8  9  1  0
 12 11  1  0
 13 14  2  0
 13 16  1  0
 14 15  1  0
 15 11  2  0
 15  3  1  0
 16 12  2  0
 17 25  1  0
 18 23  1  0
 19 20  1  0
 19 18  1  0
 21 20  1  0
 21 30  1  0
 21 22  1  0
 23 17  1  0
 23 22  1  0
 24 17  2  0
 25 16  1  0
 25 26  1  0
 27 28  2  0
 28 47  1  0
 29 28  1  0
 29 32  1  0
 30 31  1  0
 30 27  1  0
 31 29  2  0
 32 33  1  0
 33 34  2  0
 35 38  1  0
 35 34  1  0
 36 35  2  0
 37 36  1  0
 37 32  2  0
 38 39  1  0
 39 40  1  0
 40 41  2  0
 42 41  1  0
 42 46  1  0
 43 42  2  0
 44 39  2  0
 44 43  1  0
 45 44  1  0
 47 48  1  0
 48 51  1  0
 48 50  1  0
 49 47  2  0
 52 53  1  0
 52 27  1  0
 54 52  1  0
 55 14  1  0
 56 55  3  0
 57 56  1  0
 58 60  1  0
 58  2  1  0
 59 70  2  0
 60 65  1  0
 61 69  1  0
 61 71  1  0
 62 68  1  0
 62 64  1  0
 63 69  1  0
 64 63  1  0
 65 64  2  0
 66 67  1  0
 66 60  2  0
 67 62  2  0
 68 61  1  0
 69 59  1  0
 71 73  2  0
 72 71  1  0
 74 72  1  0
 75 84  2  0
 75 80  1  0
 76 72  1  0
 76 80  1  0
 77 76  1  0
 78 79  1  0
 78 77  1  0
 79 75  1  0
 80 81  2  0
 81 82  1  0
 83 82  2  0
 84 83  1  0
 85 59  1  0
 85 86  1  0
 85 95  1  0
 86 89  1  0
 87 91  1  0
 87 86  1  0
 88 87  2  0
 91 90  1  0
 93 91  1  0
 93 94  1  0
 93 92  1  0
 95 98  1  1
 95 96  1  0
 97 95  1  0
M  ISO  4   2 101  17 100  25 100  58 101
M  END
>  <TORSDO>  (85) 
F 18

>  <SCORE>  (85) 
-11.952

>  <name>  (85) 
84

>  <ligand_id>  (85) 
84

>  <original_smiles>  (85) 
[H]C(Oc1c([H])c([H])c2c(c1[H])C([H])([H])N(C(=O)C([H])(N([H])C(=O)C([H])(N([H])C([H])([H])[H])C([H])([H])[H])C(C([H])([H])[H])(C([H])([H])[H])C([H])([H])[H])C([H])(C(=O)N([H])C1([H])c3c([H])c([H])c([H])c([H])c3C([H])([H])C([H])([H])C1([H])[H])C2([H])[H])=C1C([H])([H])N(C(c2c([H])c([H])c(N([H])C(=O)N3C([H])([H])C([H])([H])C([H])([H])C([H])(n4nc(-c5c([H])c([H])c(Oc6c([H])c([H])c(F)c([H])c6F)c([H])c5[H])c(C(=O)N([H])[H])c4N([H])[H])C3([H])[H])c([H])c2C#CC([H])([H])[H])=[N+]([H])[H])C([H])([H])C1([H])[H]

>  <smiles>  (85) 
[H]C(Oc1c([H])c([H])c2c(c1[H])C([H])([H])N(C(=O)C([H])(N([H])C(=O)C([H])(N([H])C([H])([H])[H])C([H])([H])[H])C(C([H])([H])[H])(C([H])([H])[H])C([H])([H])[H])C([H])(C(=O)N([H])C1([H])c3c([H])c([H])c([H])c([H])c3C([H])([H])C([H])([H])C1([H])[H])C2([H])[H])=C1C([H])([H])N(C(c2c([H])c([H])c(N([H])C(=O)N3C([H])([H])C([H])([H])C([H])([H])C([H])(n4nc(-c5c([H])c([H])c(Oc6c([H])c([H])c(F)c([H])c6F)c([H])c5[H])c(C(=O)N([H])[H])c4N([H])[H])C3([H])[H])c([H])c2C#CC([H])([H])[H])=[N+]([H])[H])C([H])([H])C1([H])[H]

$$$$
85:0:0
     RDKit          3D

 94102  0  0  1  0  0  0  0  0999 V2000
  -29.9950  -21.0020   20.4640 C   0  0  0  0  0  2  0  0  0  0  0  0
  -30.2920  -22.4990   20.2770 C   0  0  0  0  0  0  0  0  0  0  0  0
  -31.3770  -22.8830   19.8250 O   0  0  0  0  0  0  0  0  0  0  0  0
  -29.2050  -23.4870   20.7120 C   0  0  0  0  0  2  0  0  0  0  0  0
  -29.3840  -24.9260   20.1710 C   0  0  0  0  0  2  0  0  0  0  0  0
  -28.1220  -25.7670   20.4100 C   0  0  0  0  0  2  0  0  0  0  0  0
  -28.2840  -27.1230   19.9740 O   0  0  0  0  0  0  0  0  0  0  0  0
  -24.5310  -32.0040   23.5480 C   0  0  0  0  0  0  0  0  0  0  0  0
  -27.1310  -27.8760   20.0340 C   0  0  0  0  0  0  0  0  0  0  0  0
  -23.3200  -30.8000   21.7590 C   0  0  0  0  0  3  0  0  0  0  0  0
  -24.7610  -29.4090   20.1870 C   0  0  0  0  0  0  0  0  0  0  0  0
  -25.8500  -31.1480   21.6140 C   0  0  0  0  0  2  0  0  0  0  0  0
  -25.9230  -29.8510   20.8330 C   0  0  0  0  0  0  0  0  0  0  0  0
  -27.1140  -29.0910   20.7530 C   0  0  0  0  0  3  0  0  0  0  0  0
  -25.9540  -27.4560   19.3750 C   0  0  0  0  0  3  0  0  0  0  0  0
  -24.7720  -28.2110   19.4560 C   0  0  0  0  0  3  0  0  0  0  0  0
  -23.5300  -30.2760   20.3150 C   0  0  0  0  0  2  0  0  0  0  0  0
  -24.5850  -31.3270   22.3650 N   0  0  0  0  0  0  0  0  0  0  0  0
  -23.4510  -32.2300   24.1090 O   0  0  0  0  0  0  0  0  0  0  0  0
  -22.6510  -29.6910   22.5990 C   0  0  0  0  0  0  0  0  0  0  0  0
  -21.3410  -29.4870   22.3880 N   0  0  0  0  0  0  0  0  0  0  0  0
  -23.3090  -29.0180   23.3980 O   0  0  0  0  0  0  0  0  0  0  0  0
  -20.8750  -30.0810   21.7170 H   0  0  0  0  0  0  0  0  0  0  0  0
  -17.9910  -28.1460   22.5590 C   0  0  0  0  0  0  0  0  0  0  0  0
  -20.5090  -28.4770   23.0410 C   0  0  0  0  0  3  0  0  0  0  0  0
  -20.7150  -27.0890   22.3910 C   0  0  0  0  0  2  0  0  0  0  0  0
  -19.7050  -26.7880   21.2800 C   0  0  0  0  0  2  0  0  0  0  0  0
  -18.2730  -26.8450   21.8240 C   0  0  0  0  0  2  0  0  0  0  0  0
  -19.0430  -28.9190   23.1160 C   0  0  0  0  0  0  0  0  0  0  0  0
  -18.7320  -30.1360   23.7590 C   0  0  0  0  0  3  0  0  0  0  0  0
  -17.3990  -30.5800   23.8590 C   0  0  0  0  0  3  0  0  0  0  0  0
  -16.3600  -29.8010   23.3210 C   0  0  0  0  0  3  0  0  0  0  0  0
  -16.6550  -28.5880   22.6740 C   0  0  0  0  0  3  0  0  0  0  0  0
  -25.8220  -32.5480   24.2360 C   0  0  0  0  0  3  0  0  0  0  0  0
  -25.5530  -33.9290   24.6570 N   0  0  0  0  0  0  0  0  0  0  0  0
  -25.9630  -35.0170   23.9930 C   0  0  0  0  0  0  0  0  0  0  0  0
  -26.6830  -34.9600   22.9910 O   0  0  0  0  0  0  0  0  0  0  0  0
  -24.9240  -34.0490   25.4370 H   0  0  0  0  0  0  0  0  0  0  0  0
  -24.3400  -36.9090   23.6700 C   0  0  0  0  0  1  0  0  0  0  0  0
  -25.5070  -36.3890   24.5270 C   0  0  0  0  0  3  0  0  0  0  0  0
  -27.6130  -37.1080   25.5610 C   0  0  0  0  0  1  0  0  0  0  0  0
  -26.5870  -37.3980   24.5620 N   0  0  0  0  0  0  0  0  0  0  0  0
  -26.2100  -38.3220   24.7550 H   0  0  0  0  0  0  0  0  0  0  0  0
  -26.2850  -31.6740   25.4630 C   0  0  1  0  0  0  0  0  0  0  0  0
  -25.1520  -31.3680   26.4720 C   0  0  0  0  0  1  0  0  0  0  0  0
  -26.8730  -30.3260   24.9820 C   0  0  0  0  0  1  0  0  0  0  0  0
  -27.4210  -32.3980   26.2240 C   0  0  0  0  0  1  0  0  0  0  0  0
  -31.0750  -20.1450   19.9690 N   0  0  0  0  0  0  0  0  0  0  0  0
  -31.9040  -20.7280   19.8780 H   0  0  0  0  0  0  0  0  0  0  0  0
  -32.0670  -18.0050   22.8440 C   0  0  0  0  0  3  0  0  0  0  0  0
  -31.9310  -19.1260   22.0030 C   0  0  0  0  0  3  0  0  0  0  0  0
  -30.7650  -17.7500   20.3630 C   0  0  0  0  0  3  0  0  0  0  0  0
  -31.5480  -16.7510   22.4570 C   0  0  0  0  0  0  0  0  0  0  0  0
  -31.2640  -19.0100   20.7680 C   0  0  0  0  0  0  0  0  0  0  0  0
  -30.9140  -16.6140   21.1980 C   0  0  0  0  0  0  0  0  0  0  0  0
  -31.6830  -15.5630   23.3970 C   0  0  0  0  0  1  0  0  0  0  0  0
  -30.6490  -14.6240   19.7510 C   0  0  0  0  0  0  0  0  0  0  0  0
  -30.1730  -12.5290   18.5340 C   0  0  0  0  0  2  0  0  0  0  0  0
  -29.0520  -12.7210   17.4960 C   0  0  0  0  0  2  0  0  0  0  0  0
  -27.6660  -12.5370   18.1440 C   0  0  0  0  0  2  0  0  0  0  0  0
  -27.5070  -13.3560   19.4510 C   0  0  0  0  0  3  0  0  0  0  0  0
  -28.7150  -13.1280   20.3850 C   0  0  0  0  0  2  0  0  0  0  0  0
  -29.9490  -13.4640   19.6470 N   0  0  0  0  0  0  0  0  0  0  0  0
  -31.5290  -14.9580   18.9500 O   0  0  0  0  0  0  0  0  0  0  0  0
  -30.3610  -15.3580   20.8360 N   0  0  0  0  0  0  0  0  0  0  0  0
  -29.7560  -14.9140   21.5100 H   0  0  0  0  0  0  0  0  0  0  0  0
  -25.2440  -13.9140   20.5520 C   0  0  0  0  0  0  0  0  0  0  0  0
  -24.2490  -13.1160   21.0510 C   0  0  0  0  0  0  0  0  0  0  0  0
  -24.7030  -11.7710   20.8880 C   0  0  0  0  0  0  0  0  0  0  0  0
  -26.2430  -13.0520   20.1220 N   0  0  0  0  0  0  0  0  0  0  0  0
  -25.9270  -11.7560   20.3760 N   0  0  0  0  0  0  0  0  0  0  0  0
  -24.0210  -10.4950   21.1390 C   0  0  0  0  0  0  0  0  0  0  0  0
  -24.4940   -9.5830   22.1060 C   0  0  0  0  0  3  0  0  0  0  0  0
  -23.8120   -8.3700   22.3410 C   0  0  0  0  0  3  0  0  0  0  0  0
  -22.6430   -8.0610   21.6070 C   0  0  0  0  0  0  0  0  0  0  0  0
  -22.1890   -8.9610   20.6280 C   0  0  0  0  0  3  0  0  0  0  0  0
  -22.8720  -10.1660   20.3920 C   0  0  0  0  0  3  0  0  0  0  0  0
  -21.9300   -6.8940   21.7460 O   0  0  0  0  0  0  0  0  0  0  0  0
  -21.7850   -6.2810   22.9650 C   0  0  0  0  0  0  0  0  0  0  0  0
  -21.1860   -6.9370   24.0630 C   0  0  0  0  0  3  0  0  0  0  0  0
  -20.9930   -6.2460   25.2760 C   0  0  0  0  0  3  0  0  0  0  0  0
  -21.3910   -4.9000   25.3920 C   0  0  0  0  0  0  0  0  0  0  0  0
  -21.9850   -4.2440   24.3000 C   0  0  0  0  0  3  0  0  0  0  0  0
  -22.1780   -4.9330   23.0890 C   0  0  0  0  0  0  0  0  0  0  0  0
  -22.7300   -4.2900   22.0320 F   0  0  0  0  0  0  0  0  0  0  0  0
  -21.2000   -4.2340   26.5550 F   0  0  0  0  0  0  0  0  0  0  0  0
  -22.9110  -13.5680   21.5640 C   0  0  0  0  0  0  0  0  0  0  0  0
  -22.3330  -12.8280   22.5030 N   0  0  0  0  0  0  0  0  0  0  0  0
  -22.3920  -14.6090   21.1670 O   0  0  0  0  0  0  0  0  0  0  0  0
  -22.7700  -11.9840   22.8470 H   0  0  0  0  0  0  0  0  0  0  0  0
  -21.4420  -13.1090   22.8860 H   0  0  0  0  0  0  0  0  0  0  0  0
  -25.3760  -15.2920   20.4100 N   0  0  0  0  0  0  0  0  0  0  0  0
  -24.6410  -15.9370   20.6790 H   0  0  0  0  0  0  0  0  0  0  0  0
  -26.1740  -15.7510   19.9900 H   0  0  0  0  0  0  0  0  0  0  0  0
  2  1  1  0
  2  4  1  0
  3  2  2  0
  5  6  1  0
  5  4  1  0
  7  9  1  0
  7  6  1  0
  8 19  2  0
  9 14  1  0
 10 18  1  0
 10 20  1  0
 11 17  1  0
 11 13  1  0
 12 18  1  0
 13 12  1  0
 14 13  2  0
 15 16  1  0
 15  9  2  0
 16 11  2  0
 17 10  1  0
 18  8  1  0
 20 22  2  0
 21 20  1  0
 23 21  1  0
 24 33  2  0
 24 29  1  0
 25 21  1  0
 25 29  1  0
 26 25  1  0
 27 28  1  0
 27 26  1  0
 28 24  1  0
 29 30  2  0
 30 31  1  0
 32 31  2  0
 33 32  1  0
 34  8  1  0
 34 35  1  0
 34 44  1  0
 35 38  1  0
 36 40  1  0
 36 35  1  0
 37 36  2  0
 40 39  1  0
 40 42  1  0
 42 43  1  0
 42 41  1  0
 44 47  1  1
 44 45  1  0
 46 44  1  0
 48  1  1  0
 48 54  1  0
 49 48  1  0
 51 50  2  0
 52 54  2  0
 52 55  1  0
 53 50  1  0
 53 56  1  0
 54 51  1  0
 55 53  2  0
 57 65  1  0
 58 63  1  0
 59 60  1  0
 59 58  1  0
 61 60  1  0
 61 70  1  0
 61 62  1  0
 63 57  1  0
 63 62  1  0
 64 57  2  0
 65 55  1  0
 65 66  1  0
 67 68  2  0
 68 87  1  0
 69 68  1  0
 69 72  1  0
 70 71  1  0
 70 67  1  0
 71 69  2  0
 72 73  1  0
 73 74  2  0
 75 78  1  0
 75 74  1  0
 76 75  2  0
 77 76  1  0
 77 72  2  0
 78 79  1  0
 79 84  2  0
 79 80  1  0
 80 81  2  0
 81 82  1  0
 82 86  1  0
 83 82  2  0
 84 83  1  0
 85 84  1  0
 87 88  1  0
 88 90  1  0
 88 91  1  0
 89 87  2  0
 92 67  1  0
 92 93  1  0
 94 92  1  0
M  ISO  4   6 101   7 101  57 100  65 100
M  END
>  <TORSDO>  (86) 
F 22

>  <SCORE>  (86) 
-6.667

>  <name>  (86) 
85

>  <ligand_id>  (86) 
85

>  <original_smiles>  (86) 
[H]c1c([H])c([H])c2c(c1[H])C([H])([H])C([H])([H])C([H])([H])C2([H])N([H])C(=O)C1([H])N(C(=O)C([H])(N([H])C(=O)C([H])(N([H])C([H])([H])[H])C([H])([H])[H])C(C([H])([H])[H])(C([H])([H])[H])C([H])([H])[H])C([H])([H])c2c([H])c(OC([H])([H])C([H])([H])C([H])([H])C(=O)C([H])([H])N([H])c3c([H])c([H])c(C([H])([H])[H])c(N([H])C(=O)N4C([H])([H])C([H])([H])C([H])([H])C([H])(n5nc(-c6c([H])c([H])c(Oc7c([H])c([H])c(F)c([H])c7F)c([H])c6[H])c(C(=O)N([H])[H])c5N([H])[H])C4([H])[H])c3[H])c([H])c([H])c2C1([H])[H]

>  <smiles>  (86) 
[H]c1c([H])c([H])c2c(c1[H])C([H])([H])C([H])([H])C([H])([H])C2([H])N([H])C(=O)C1([H])N(C(=O)C([H])(N([H])C(=O)C([H])(N([H])C([H])([H])[H])C([H])([H])[H])C(C([H])([H])[H])(C([H])([H])[H])C([H])([H])[H])C([H])([H])c2c([H])c(OC([H])([H])C([H])([H])C([H])([H])C(=O)C([H])([H])N([H])c3c([H])c([H])c(C([H])([H])[H])c(N([H])C(=O)N4C([H])([H])C([H])([H])C([H])([H])C([H])(n5nc(-c6c([H])c([H])c(Oc7c([H])c([H])c(F)c([H])c7F)c([H])c6[H])c(C(=O)N([H])[H])c5N([H])[H])C4([H])[H])c3[H])c([H])c([H])c2C1([H])[H]

$$$$
86:0:0
     RDKit          3D

 98106  0  0  1  0  0  0  0  0999 V2000
  -30.6410  -20.2650   21.8980 C   0  0  0  0  0  0  0  0  0  0  0  0
  -31.2990  -20.1190   23.0450 N   0  0  0  0  0  4  0  0  0  0  0  0
  -29.9450  -21.3870   21.6140 N   0  0  0  0  0  0  0  0  0  0  0  0
  -31.9110  -19.3290   23.1830 H   0  0  0  0  0  0  0  0  0  0  0  0
  -31.2320  -20.8120   23.7700 H   0  0  0  0  0  0  0  0  0  0  0  0
  -29.5250  -21.3230   20.6940 H   0  0  0  0  0  0  0  0  0  0  0  0
  -30.7980  -18.4390   18.5980 C   0  0  0  0  0  3  0  0  0  0  0  0
  -30.8350  -19.4730   19.5520 C   0  0  0  0  0  3  0  0  0  0  0  0
  -30.5930  -17.1090   19.0090 C   0  0  0  0  0  3  0  0  0  0  0  0
  -30.4540  -17.8380   21.3330 C   0  0  0  0  0  3  0  0  0  0  0  0
  -30.6520  -19.1790   20.9200 C   0  0  0  0  0  0  0  0  0  0  0  0
  -30.4410  -16.7930   20.3800 C   0  0  0  0  0  0  0  0  0  0  0  0
  -30.8980  -14.4030   20.2660 C   0  0  0  0  0  0  0  0  0  0  0  0
  -30.5130  -12.2780   19.1010 C   0  0  0  0  0  2  0  0  0  0  0  0
  -29.5580  -12.5550   17.9220 C   0  0  0  0  0  2  0  0  0  0  0  0
  -28.0900  -12.4430   18.3780 C   0  0  0  0  0  2  0  0  0  0  0  0
  -27.8010  -13.2580   19.6670 C   0  0  0  0  0  3  0  0  0  0  0  0
  -28.8700  -12.9790   20.7470 C   0  0  0  0  0  2  0  0  0  0  0  0
  -30.1940  -13.2460   20.1610 N   0  0  0  0  0  0  0  0  0  0  0  0
  -32.0240  -14.5560   19.7820 O   0  0  0  0  0  0  0  0  0  0  0  0
  -30.2320  -15.4460   20.7890 N   0  0  0  0  0  0  0  0  0  0  0  0
  -29.3700  -15.2450   21.2720 H   0  0  0  0  0  0  0  0  0  0  0  0
  -25.4230  -13.9040   20.4150 C   0  0  0  0  0  0  0  0  0  0  0  0
  -24.3490  -13.1470   20.7980 C   0  0  0  0  0  0  0  0  0  0  0  0
  -24.7910  -11.7900   20.7600 C   0  0  0  0  0  0  0  0  0  0  0  0
  -26.4520  -13.0080   20.1660 N   0  0  0  0  0  0  0  0  0  0  0  0
  -26.0740  -11.7320   20.4310 N   0  0  0  0  0  0  0  0  0  0  0  0
  -24.0520  -10.5380   20.9620 C   0  0  0  0  0  0  0  0  0  0  0  0
  -24.4730   -9.5790   21.9080 C   0  0  0  0  0  3  0  0  0  0  0  0
  -23.7350   -8.3900   22.0990 C   0  0  0  0  0  3  0  0  0  0  0  0
  -22.5630   -8.1540   21.3420 C   0  0  0  0  0  0  0  0  0  0  0  0
  -22.1640   -9.1020   20.3820 C   0  0  0  0  0  3  0  0  0  0  0  0
  -22.9000  -10.2830   20.1910 C   0  0  0  0  0  3  0  0  0  0  0  0
  -21.8000   -7.0160   21.4400 O   0  0  0  0  0  0  0  0  0  0  0  0
  -21.7230   -6.2960   22.6060 C   0  0  0  0  0  0  0  0  0  0  0  0
  -21.2430   -6.8690   23.8030 C   0  0  0  0  0  3  0  0  0  0  0  0
  -21.1130   -6.0760   24.9610 C   0  0  0  0  0  3  0  0  0  0  0  0
  -21.4520   -4.7110   24.9220 C   0  0  0  0  0  0  0  0  0  0  0  0
  -21.9220   -4.1360   23.7290 C   0  0  0  0  0  3  0  0  0  0  0  0
  -22.0550   -4.9260   22.5740 C   0  0  0  0  0  0  0  0  0  0  0  0
  -22.4890   -4.3620   21.4210 F   0  0  0  0  0  0  0  0  0  0  0  0
  -21.3200   -3.9470   26.0330 F   0  0  0  0  0  0  0  0  0  0  0  0
  -22.9620  -13.6410   21.0960 C   0  0  0  0  0  0  0  0  0  0  0  0
  -22.2440  -12.9540   21.9780 N   0  0  0  0  0  0  0  0  0  0  0  0
  -22.5260  -14.6710   20.5840 O   0  0  0  0  0  0  0  0  0  0  0  0
  -22.6140  -12.1230   22.4140 H   0  0  0  0  0  0  0  0  0  0  0  0
  -21.3130  -13.2650   22.2210 H   0  0  0  0  0  0  0  0  0  0  0  0
  -25.6020  -15.2730   20.2430 N   0  0  0  0  0  0  0  0  0  0  0  0
  -24.8580  -15.9430   20.3990 H   0  0  0  0  0  0  0  0  0  0  0  0
  -26.4600  -15.7070   19.9260 H   0  0  0  0  0  0  0  0  0  0  0  0
  -30.0400  -22.6460   23.8140 C   0  0  0  0  0  1  0  0  0  0  0  0
  -28.0820  -22.8010   22.3080 C   0  0  0  0  0  1  0  0  0  0  0  0
  -29.6190  -22.6590   22.3250 C   0  0  2  0  0  0  0  0  0  0  0  0
  -30.3550  -23.8650   21.6550 C   0  0  0  0  0  2  0  0  0  0  0  0
  -29.6360  -24.6310   20.5320 C   0  0  0  0  0  0  0  0  0  0  0  0
  -29.8780  -24.3980   19.3430 O   0  0  0  0  0  0  0  0  0  0  0  0
  -28.6100  -25.6920   20.9510 C   0  0  0  0  0  2  0  0  0  0  0  0
  -28.6610  -26.8270   20.0830 O   0  0  0  0  0  0  0  0  0  0  0  0
  -24.6610  -31.7950   23.2320 C   0  0  0  0  0  0  0  0  0  0  0  0
  -27.4880  -27.5360   20.0850 C   0  0  0  0  0  0  0  0  0  0  0  0
  -23.5250  -30.4140   21.5210 C   0  0  0  0  0  3  0  0  0  0  0  0
  -25.0510  -28.9550   20.0900 C   0  0  0  0  0  0  0  0  0  0  0  0
  -26.0430  -30.8480   21.3880 C   0  0  0  0  0  2  0  0  0  0  0  0
  -26.1820  -29.5010   20.7120 C   0  0  0  0  0  0  0  0  0  0  0  0
  -27.4080  -28.8010   20.7050 C   0  0  0  0  0  3  0  0  0  0  0  0
  -26.3440  -26.9920   19.4650 C   0  0  0  0  0  3  0  0  0  0  0  0
  -25.1250  -27.6970   19.4650 C   0  0  0  0  0  3  0  0  0  0  0  0
  -23.7830  -29.7760   20.1290 C   0  0  0  0  0  2  0  0  0  0  0  0
  -24.7590  -31.0320   22.1060 N   0  0  0  0  0  0  0  0  0  0  0  0
  -23.5630  -32.0240   23.7550 O   0  0  0  0  0  0  0  0  0  0  0  0
  -22.8810  -29.3480   22.4370 C   0  0  0  0  0  0  0  0  0  0  0  0
  -21.5600  -29.1590   22.2930 N   0  0  0  0  0  0  0  0  0  0  0  0
  -23.5660  -28.6950   23.2290 O   0  0  0  0  0  0  0  0  0  0  0  0
  -21.0690  -29.7380   21.6250 H   0  0  0  0  0  0  0  0  0  0  0  0
  -18.1830  -27.9720   22.7820 C   0  0  0  0  0  0  0  0  0  0  0  0
  -20.7470  -28.1850   23.0210 C   0  0  0  0  0  3  0  0  0  0  0  0
  -20.8230  -26.7910   22.3570 C   0  0  0  0  0  2  0  0  0  0  0  0
  -19.7000  -26.5430   21.3450 C   0  0  0  0  0  2  0  0  0  0  0  0
  -18.3320  -26.6640   22.0220 C   0  0  0  0  0  2  0  0  0  0  0  0
  -19.3170  -28.6950   23.2360 C   0  0  0  0  0  0  0  0  0  0  0  0
  -19.1250  -29.9220   23.9050 C   0  0  0  0  0  3  0  0  0  0  0  0
  -17.8300  -30.4270   24.1250 C   0  0  0  0  0  3  0  0  0  0  0  0
  -16.7100  -29.7000   23.6870 C   0  0  0  0  0  3  0  0  0  0  0  0
  -16.8870  -28.4740   23.0220 C   0  0  0  0  0  3  0  0  0  0  0  0
  -25.9180  -32.4380   23.8980 C   0  0  0  0  0  3  0  0  0  0  0  0
  -25.5910  -33.8370   24.2000 N   0  0  0  0  0  0  0  0  0  0  0  0
  -25.9540  -34.8820   23.4450 C   0  0  0  0  0  0  0  0  0  0  0  0
  -26.6680  -34.7710   22.4440 O   0  0  0  0  0  0  0  0  0  0  0  0
  -24.9670  -33.9990   24.9770 H   0  0  0  0  0  0  0  0  0  0  0  0
  -24.2450  -36.6680   22.9830 C   0  0  0  0  0  1  0  0  0  0  0  0
  -25.4390  -36.2720   23.8660 C   0  0  0  0  0  3  0  0  0  0  0  0
  -27.5170  -37.1690   24.8160 C   0  0  0  0  0  1  0  0  0  0  0  0
  -26.4730  -37.3270   23.8060 N   0  0  0  0  0  0  0  0  0  0  0  0
  -26.0560  -38.2460   23.9240 H   0  0  0  0  0  0  0  0  0  0  0  0
  -26.3900  -31.6790   25.1990 C   0  0  1  0  0  0  0  0  0  0  0  0
  -25.2580  -31.4400   26.2240 C   0  0  0  0  0  1  0  0  0  0  0  0
  -27.0000  -30.3040   24.8380 C   0  0  0  0  0  1  0  0  0  0  0  0
  -27.5080  -32.4870   25.9010 C   0  0  0  0  0  1  0  0  0  0  0  0
  1  2  2  0
  2  4  1  0
  2  5  1  0
  3  1  1  0
  3 53  1  0
  6  3  1  0
  7  9  2  0
  7  8  1  0
  8 11  2  0
  9 12  1  0
 11 10  1  0
 11  1  1  0
 12 21  1  0
 12 10  2  0
 13 21  1  0
 14 19  1  0
 15 16  1  0
 15 14  1  0
 17 16  1  0
 17 26  1  0
 17 18  1  0
 19 13  1  0
 19 18  1  0
 20 13  2  0
 21 22  1  0
 23 24  2  0
 24 43  1  0
 25 24  1  0
 25 28  1  0
 26 23  1  0
 26 27  1  0
 27 25  2  0
 28 29  1  0
 29 30  2  0
 31 34  1  0
 31 30  1  0
 32 31  2  0
 33 32  1  0
 33 28  2  0
 34 35  1  0
 35 36  1  0
 36 37  2  0
 38 37  1  0
 38 42  1  0
 39 38  2  0
 40 35  2  0
 40 39  1  0
 41 40  1  0
 43 44  1  0
 44 47  1  0
 44 46  1  0
 45 43  2  0
 48 49  1  0
 48 23  1  0
 50 48  1  0
 53 52  1  1
 53 51  1  0
 54 53  1  0
 55 57  1  0
 55 54  1  0
 56 55  2  0
 58 60  1  0
 58 57  1  0
 59 70  2  0
 60 65  1  0
 61 69  1  0
 61 71  1  0
 62 68  1  0
 62 64  1  0
 63 69  1  0
 64 63  1  0
 65 64  2  0
 66 60  2  0
 67 66  1  0
 67 62  2  0
 68 61  1  0
 69 59  1  0
 71 73  2  0
 72 71  1  0
 74 72  1  0
 75 84  2  0
 75 80  1  0
 76 72  1  0
 76 80  1  0
 77 76  1  0
 78 79  1  0
 78 77  1  0
 79 75  1  0
 80 81  2  0
 81 82  1  0
 83 82  2  0
 84 83  1  0
 85 59  1  0
 85 86  1  0
 85 95  1  0
 86 89  1  0
 87 91  1  0
 87 86  1  0
 88 87  2  0
 91 90  1  0
 93 91  1  0
 93 94  1  0
 93 92  1  0
 95 98  1  1
 95 96  1  0
 97 95  1  0
M  ISO  4  13 100  21 100  57 101  58 101
M  END
>  <TORSDO>  (87) 
F 21

>  <SCORE>  (87) 
-13.744

>  <name>  (87) 
86

>  <ligand_id>  (87) 
86

>  <original_smiles>  (87) 
[H]c1c([H])c(C(N([H])[H])=[N+]([H])C(C([H])([H])[H])(C([H])([H])[H])C([H])([H])C(=O)C([H])([H])Oc2c([H])c([H])c3c(c2[H])C([H])([H])N(C(=O)C([H])(N([H])C(=O)C([H])(N([H])C([H])([H])[H])C([H])([H])[H])C(C([H])([H])[H])(C([H])([H])[H])C([H])([H])[H])C([H])(C(=O)N([H])C2([H])c4c([H])c([H])c([H])c([H])c4C([H])([H])C([H])([H])C2([H])[H])C3([H])[H])c([H])c(N([H])C(=O)N2C([H])([H])C([H])([H])C([H])([H])C([H])(n3nc(-c4c([H])c([H])c(Oc5c([H])c([H])c(F)c([H])c5F)c([H])c4[H])c(C(=O)N([H])[H])c3N([H])[H])C2([H])[H])c1[H]

>  <smiles>  (87) 
[H]c1c([H])c(C(N([H])[H])=[N+]([H])C(C([H])([H])[H])(C([H])([H])[H])C([H])([H])C(=O)C([H])([H])Oc2c([H])c([H])c3c(c2[H])C([H])([H])N(C(=O)C([H])(N([H])C(=O)C([H])(N([H])C([H])([H])[H])C([H])([H])[H])C(C([H])([H])[H])(C([H])([H])[H])C([H])([H])[H])C([H])(C(=O)N([H])C2([H])c4c([H])c([H])c([H])c([H])c4C([H])([H])C([H])([H])C2([H])[H])C3([H])[H])c([H])c(N([H])C(=O)N2C([H])([H])C([H])([H])C([H])([H])C([H])(n3nc(-c4c([H])c([H])c(Oc5c([H])c([H])c(F)c([H])c5F)c([H])c4[H])c(C(=O)N([H])[H])c3N([H])[H])C2([H])[H])c1[H]

$$$$
87:0:0
     RDKit          3D

100109  0  0  1  0  0  0  0  0999 V2000
  -29.2640  -20.6810   20.7080 C   0  0  0  0  0  3  0  0  0  0  0  0
  -29.2140  -22.6000   17.6000 C   0  0  0  0  0  2  0  0  0  0  0  0
  -27.9330  -22.9800   18.3590 C   0  0  0  0  0  2  0  0  0  0  0  0
  -30.0200  -21.7230   18.5710 C   0  0  0  0  0  2  0  0  0  0  0  0
  -28.3370  -22.9100   19.8370 C   0  0  0  0  0  3  0  0  0  0  0  0
  -29.2590  -21.7370   19.8380 N   0  0  0  0  0  0  0  0  0  0  0  0
  -28.4130  -20.6800   21.7290 N   0  0  0  0  0  0  0  0  0  0  0  0
  -28.4450  -19.9160   22.3880 H   0  0  0  0  0  0  0  0  0  0  0  0
  -27.8090  -21.4590   21.9290 H   0  0  0  0  0  0  0  0  0  0  0  0
  -31.5600  -19.7870   20.4300 C   0  0  0  0  0  3  0  0  0  0  0  0
  -29.7360  -18.1770   20.6520 C   0  0  0  0  0  3  0  0  0  0  0  0
  -32.0330  -17.4020   20.3880 C   0  0  0  0  0  3  0  0  0  0  0  0
  -30.1840  -19.5270   20.5820 C   0  0  0  0  0  0  0  0  0  0  0  0
  -32.5010  -18.7400   20.3200 C   0  0  0  0  0  0  0  0  0  0  0  0
  -30.6530  -17.0950   20.5290 C   0  0  0  0  0  0  0  0  0  0  0  0
  -30.8620  -14.6190   20.1670 C   0  0  0  0  0  0  0  0  0  0  0  0
  -30.5750  -12.3290   19.2830 C   0  0  0  0  0  2  0  0  0  0  0  0
  -29.6480  -12.3650   18.0520 C   0  0  0  0  0  2  0  0  0  0  0  0
  -28.1750  -12.2470   18.4860 C   0  0  0  0  0  2  0  0  0  0  0  0
  -27.8080  -13.2280   19.6330 C   0  0  0  0  0  3  0  0  0  0  0  0
  -28.8570  -13.1890   20.7680 C   0  0  0  0  0  2  0  0  0  0  0  0
  -30.1800  -13.4370   20.1710 N   0  0  0  0  0  0  0  0  0  0  0  0
  -31.9890  -14.7060   19.6730 O   0  0  0  0  0  0  0  0  0  0  0  0
  -30.1900  -15.7250   20.5770 N   0  0  0  0  0  0  0  0  0  0  0  0
  -29.2280  -15.5760   20.8380 H   0  0  0  0  0  0  0  0  0  0  0  0
  -25.4360  -13.8860   20.3740 C   0  0  0  0  0  0  0  0  0  0  0  0
  -24.3550  -13.1390   20.7560 C   0  0  0  0  0  0  0  0  0  0  0  0
  -24.7830  -11.7760   20.7210 C   0  0  0  0  0  0  0  0  0  0  0  0
  -26.4570  -12.9800   20.1310 N   0  0  0  0  0  0  0  0  0  0  0  0
  -26.0680  -11.7060   20.3970 N   0  0  0  0  0  0  0  0  0  0  0  0
  -24.0290  -10.5310   20.9200 C   0  0  0  0  0  0  0  0  0  0  0  0
  -24.4160   -9.5770   21.8860 C   0  0  0  0  0  3  0  0  0  0  0  0
  -23.6610   -8.3980   22.0690 C   0  0  0  0  0  3  0  0  0  0  0  0
  -22.5050   -8.1660   21.2860 C   0  0  0  0  0  0  0  0  0  0  0  0
  -22.1400   -9.1080   20.3080 C   0  0  0  0  0  3  0  0  0  0  0  0
  -22.8950  -10.2780   20.1240 C   0  0  0  0  0  3  0  0  0  0  0  0
  -21.7250   -7.0390   21.3760 O   0  0  0  0  0  0  0  0  0  0  0  0
  -21.5830   -6.3560   22.5590 C   0  0  0  0  0  0  0  0  0  0  0  0
  -21.0810   -6.9790   23.7230 C   0  0  0  0  0  3  0  0  0  0  0  0
  -20.8860   -6.2240   24.8960 C   0  0  0  0  0  3  0  0  0  0  0  0
  -21.1810   -4.8480   24.9060 C   0  0  0  0  0  0  0  0  0  0  0  0
  -21.6750   -4.2250   23.7470 C   0  0  0  0  0  3  0  0  0  0  0  0
  -21.8730   -4.9770   22.5770 C   0  0  0  0  0  0  0  0  0  0  0  0
  -22.3290   -4.3680   21.4560 F   0  0  0  0  0  0  0  0  0  0  0  0
  -20.9850   -4.1200   26.0310 F   0  0  0  0  0  0  0  0  0  0  0  0
  -22.9730  -13.6500   21.0480 C   0  0  0  0  0  0  0  0  0  0  0  0
  -22.2470  -12.9800   21.9350 N   0  0  0  0  0  0  0  0  0  0  0  0
  -22.5480  -14.6800   20.5250 O   0  0  0  0  0  0  0  0  0  0  0  0
  -22.6010  -12.1440   22.3770 H   0  0  0  0  0  0  0  0  0  0  0  0
  -21.3200  -13.3040   22.1750 H   0  0  0  0  0  0  0  0  0  0  0  0
  -25.6310  -15.2520   20.1910 N   0  0  0  0  0  0  0  0  0  0  0  0
  -24.8780  -15.9230   20.2950 H   0  0  0  0  0  0  0  0  0  0  0  0
  -26.4790  -15.6650   19.8220 H   0  0  0  0  0  0  0  0  0  0  0  0
  -34.5210  -19.7310   21.4410 C   0  0  0  0  0  1  0  0  0  0  0  0
  -34.1680  -20.0890   18.9790 C   0  0  0  0  0  1  0  0  0  0  0  0
  -34.8670  -17.8570   19.8280 C   0  0  0  0  0  1  0  0  0  0  0  0
  -33.9920  -19.0890   20.1440 C   0  0  2  0  0  0  0  0  0  0  0  0
  -28.9730  -24.2770   20.2820 C   0  0  0  0  0  2  0  0  0  0  0  0
  -27.8980  -25.3730   20.5440 C   0  0  0  0  0  2  0  0  0  0  0  0
  -28.1640  -26.7370   20.1040 O   0  0  0  0  0  0  0  0  0  0  0  0
  -24.5210  -32.0110   23.2890 C   0  0  0  0  0  0  0  0  0  0  0  0
  -27.0430  -27.5570   20.0910 C   0  0  0  0  0  0  0  0  0  0  0  0
  -23.2640  -30.6310   21.6710 C   0  0  0  0  0  3  0  0  0  0  0  0
  -24.6700  -29.1150   20.1810 C   0  0  0  0  0  0  0  0  0  0  0  0
  -25.7920  -30.9730   21.4090 C   0  0  0  0  0  2  0  0  0  0  0  0
  -25.8520  -29.6100   20.7470 C   0  0  0  0  0  0  0  0  0  0  0  0
  -27.0430  -28.8400   20.6990 C   0  0  0  0  0  3  0  0  0  0  0  0
  -25.8450  -27.1160   19.4780 C   0  0  0  0  0  3  0  0  0  0  0  0
  -24.6640  -27.8680   19.5410 C   0  0  0  0  0  3  0  0  0  0  0  0
  -23.4310  -29.9750   20.2750 C   0  0  0  0  0  2  0  0  0  0  0  0
  -24.5460  -31.2200   22.1790 N   0  0  0  0  0  0  0  0  0  0  0  0
  -23.4560  -32.2800   23.8620 O   0  0  0  0  0  0  0  0  0  0  0  0
  -22.6400  -29.5970   22.6360 C   0  0  0  0  0  0  0  0  0  0  0  0
  -21.3230  -29.3660   22.5000 N   0  0  0  0  0  0  0  0  0  0  0  0
  -23.3360  -29.0090   23.4700 O   0  0  0  0  0  0  0  0  0  0  0  0
  -20.8190  -29.8930   21.8010 H   0  0  0  0  0  0  0  0  0  0  0  0
  -18.0060  -27.9960   22.9240 C   0  0  0  0  0  0  0  0  0  0  0  0
  -20.5330  -28.4110   23.2770 C   0  0  0  0  0  3  0  0  0  0  0  0
  -20.7390  -26.9680   22.7620 C   0  0  0  0  0  2  0  0  0  0  0  0
  -19.6970  -26.5450   21.7230 C   0  0  0  0  0  2  0  0  0  0  0  0
  -18.2850  -26.6340   22.3080 C   0  0  0  0  0  2  0  0  0  0  0  0
  -19.0630  -28.8360   23.3650 C   0  0  0  0  0  0  0  0  0  0  0  0
  -18.7510  -30.1060   23.8970 C   0  0  0  0  0  3  0  0  0  0  0  0
  -17.4150  -30.5380   23.9940 C   0  0  0  0  0  3  0  0  0  0  0  0
  -16.3720  -29.6960   23.5720 C   0  0  0  0  0  3  0  0  0  0  0  0
  -16.6680  -28.4260   23.0430 C   0  0  0  0  0  3  0  0  0  0  0  0
  -25.8260  -32.6330   23.8750 C   0  0  0  0  0  3  0  0  0  0  0  0
  -26.3760  -31.8550   25.1340 C   0  0  1  0  0  0  0  0  0  0  0  0
  -25.3050  -31.5960   26.2170 C   0  0  0  0  0  1  0  0  0  0  0  0
  -26.9680  -30.4880   24.7160 C   0  0  0  0  0  1  0  0  0  0  0  0
  -27.5300  -32.6540   25.7820 C   0  0  0  0  0  1  0  0  0  0  0  0
  -25.5340  -34.0320   24.2160 N   0  0  0  0  0  0  0  0  0  0  0  0
  -25.8490  -35.0840   23.4470 C   0  0  0  0  0  0  0  0  0  0  0  0
  -26.4890  -34.9770   22.3970 O   0  0  0  0  0  0  0  0  0  0  0  0
  -24.9670  -34.1890   25.0350 H   0  0  0  0  0  0  0  0  0  0  0  0
  -24.1140  -36.8770   23.1440 C   0  0  0  0  0  1  0  0  0  0  0  0
  -25.3790  -36.4730   23.9170 C   0  0  0  0  0  3  0  0  0  0  0  0
  -27.5420  -37.3510   24.6760 C   0  0  0  0  0  1  0  0  0  0  0  0
  -26.4090  -37.5240   23.7700 N   0  0  0  0  0  0  0  0  0  0  0  0
  -26.0100  -38.4440   23.9350 H   0  0  0  0  0  0  0  0  0  0  0  0
  1  7  1  0
  2  3  1  0
  2  4  1  0
  3  5  1  0
  4  6  1  0
  5  6  1  0
  5 58  1  0
  6  1  1  0
  7  9  1  0
  7  8  1  0
 10 13  1  0
 12 15  2  0
 13 11  2  0
 13  1  1  0
 14 12  1  0
 14 10  2  0
 15 24  1  0
 15 11  1  0
 16 22  1  0
 16 24  1  0
 17 22  1  0
 18 19  1  0
 18 17  1  0
 20 19  1  0
 20 29  1  0
 20 21  1  0
 22 21  1  0
 23 16  2  0
 24 25  1  0
 26 27  2  0
 27 46  1  0
 28 27  1  0
 28 31  1  0
 29 26  1  0
 29 30  1  0
 30 28  2  0
 31 32  1  0
 32 33  2  0
 34 37  1  0
 34 33  1  0
 35 34  2  0
 36 35  1  0
 36 31  2  0
 37 38  1  0
 38 43  2  0
 38 39  1  0
 39 40  2  0
 40 41  1  0
 41 45  1  0
 42 41  2  0
 43 42  1  0
 44 43  1  0
 46 47  1  0
 47 50  1  0
 47 49  1  0
 48 46  2  0
 51 52  1  0
 51 26  1  0
 53 51  1  0
 57 55  1  6
 56 57  1  0
 57 14  1  0
 57 54  1  0
 58 59  1  0
 60 59  1  0
 61 72  2  0
 62 60  1  0
 62 67  1  0
 63 71  1  0
 63 73  1  0
 64 70  1  0
 64 66  1  0
 65 71  1  0
 66 65  1  0
 67 66  2  0
 68 69  1  0
 68 62  2  0
 69 64  2  0
 70 63  1  0
 71 61  1  0
 73 75  2  0
 74 73  1  0
 76 74  1  0
 77 86  2  0
 77 82  1  0
 78 74  1  0
 78 82  1  0
 79 78  1  0
 80 81  1  0
 80 79  1  0
 81 77  1  0
 82 83  2  0
 83 84  1  0
 85 84  2  0
 86 85  1  0
 87 61  1  0
 87 92  1  0
 87 88  1  0
 88 91  1  1
 88 89  1  0
 90 88  1  0
 92 95  1  0
 93 97  1  0
 93 92  1  0
 94 93  2  0
 97 96  1  0
 99 97  1  0
 99100  1  0
 99 98  1  0
M  ISO  4  16 100  24 100  59 101  60 101
M  END
>  <TORSDO>  (88) 
F 20

>  <SCORE>  (88) 
-13.804

>  <name>  (88) 
87

>  <ligand_id>  (88) 
87

>  <original_smiles>  (88) 
[H]c1c([H])c([H])c2c(c1[H])C([H])([H])C([H])([H])C([H])([H])C2([H])N([H])C(=O)C1([H])N(C(=O)C([H])(N([H])C(=O)C([H])(N([H])C([H])([H])[H])C([H])([H])[H])C(C([H])([H])[H])(C([H])([H])[H])C([H])([H])[H])C([H])([H])c2c([H])c(OC([H])([H])C([H])([H])C3([H])N(C(c4c([H])c(N([H])C(=O)N5C([H])([H])C([H])([H])C([H])([H])C([H])(n6nc(-c7c([H])c([H])c(Oc8c([H])c([H])c(F)c([H])c8F)c([H])c7[H])c(C(=O)N([H])[H])c6N([H])[H])C5([H])[H])c([H])c(C(C([H])([H])[H])(C([H])([H])[H])C([H])([H])[H])c4[H])=[N+]([H])[H])C([H])([H])C([H])([H])C3([H])[H])c([H])c([H])c2C1([H])[H]

>  <smiles>  (88) 
[H]c1c([H])c([H])c2c(c1[H])C([H])([H])C([H])([H])C([H])([H])C2([H])N([H])C(=O)C1([H])N(C(=O)C([H])(N([H])C(=O)C([H])(N([H])C([H])([H])[H])C([H])([H])[H])C(C([H])([H])[H])(C([H])([H])[H])C([H])([H])[H])C([H])([H])c2c([H])c(OC([H])([H])C([H])([H])C3([H])N(C(c4c([H])c(N([H])C(=O)N5C([H])([H])C([H])([H])C([H])([H])C([H])(n6nc(-c7c([H])c([H])c(Oc8c([H])c([H])c(F)c([H])c8F)c([H])c7[H])c(C(=O)N([H])[H])c6N([H])[H])C5([H])[H])c([H])c(C(C([H])([H])[H])(C([H])([H])[H])C([H])([H])[H])c4[H])=[N+]([H])[H])C([H])([H])C([H])([H])C3([H])[H])c([H])c([H])c2C1([H])[H]

$$$$
88:0:0
     RDKit          3D

 95103  0  0  1  0  0  0  0  0999 V2000
  -28.8360  -22.4540   19.6330 C   0  0  0  0  0  2  0  0  0  0  0  0
  -29.0670  -21.0130   20.1030 C   0  0  0  0  0  0  0  0  0  0  0  0
  -29.6030  -20.1740   19.2080 N   0  0  0  0  0  0  0  0  0  0  0  0
  -28.7440  -20.6900   21.2460 O   0  0  0  0  0  0  0  0  0  0  0  0
  -29.8570  -20.5870   18.3190 H   0  0  0  0  0  0  0  0  0  0  0  0
  -29.5200  -17.9060   20.4010 C   0  0  0  0  0  3  0  0  0  0  0  0
  -30.8080  -18.1540   18.5500 C   0  0  0  0  0  3  0  0  0  0  0  0
  -29.9590  -18.8180   19.3950 C   0  0  0  0  0  0  0  0  0  0  0  0
  -30.1410  -16.7320   20.0760 C   0  0  0  0  0  0  0  0  0  0  0  0
  -30.9350  -16.8640   18.9680 O   0  0  0  0  0  0  0  0  0  0  0  0
  -30.6780  -14.4470   20.4470 C   0  0  0  0  0  0  0  0  0  0  0  0
  -30.3250  -12.2920   19.3480 C   0  0  0  0  0  2  0  0  0  0  0  0
  -29.4200  -12.5510   18.1250 C   0  0  0  0  0  2  0  0  0  0  0  0
  -27.9320  -12.4570   18.5260 C   0  0  0  0  0  2  0  0  0  0  0  0
  -27.5940  -13.2760   19.8030 C   0  0  0  0  0  3  0  0  0  0  0  0
  -28.6330  -13.0430   20.9250 C   0  0  0  0  0  2  0  0  0  0  0  0
  -29.9710  -13.2900   20.3670 N   0  0  0  0  0  0  0  0  0  0  0  0
  -31.8560  -14.5350   20.0940 O   0  0  0  0  0  0  0  0  0  0  0  0
  -29.9620  -15.5480   20.7180 N   0  0  0  0  0  0  0  0  0  0  0  0
  -29.0680  -15.4110   21.1610 H   0  0  0  0  0  0  0  0  0  0  0  0
  -25.1870  -13.8840   20.4830 C   0  0  0  0  0  0  0  0  0  0  0  0
  -24.1120  -13.1190   20.8490 C   0  0  0  0  0  0  0  0  0  0  0  0
  -24.5690  -11.7670   20.8360 C   0  0  0  0  0  0  0  0  0  0  0  0
  -26.2330  -13.0020   20.2690 N   0  0  0  0  0  0  0  0  0  0  0  0
  -25.8630  -11.7210   20.5400 N   0  0  0  0  0  0  0  0  0  0  0  0
  -23.8370  -10.5090   21.0300 C   0  0  0  0  0  0  0  0  0  0  0  0
  -24.2560   -9.5470   21.9750 C   0  0  0  0  0  3  0  0  0  0  0  0
  -23.5260   -8.3520   22.1520 C   0  0  0  0  0  3  0  0  0  0  0  0
  -22.3590   -8.1110   21.3870 C   0  0  0  0  0  0  0  0  0  0  0  0
  -21.9610   -9.0620   20.4320 C   0  0  0  0  0  3  0  0  0  0  0  0
  -22.6930  -10.2460   20.2500 C   0  0  0  0  0  3  0  0  0  0  0  0
  -21.5980   -6.9710   21.4800 O   0  0  0  0  0  0  0  0  0  0  0  0
  -21.5400   -6.2380   22.6380 C   0  0  0  0  0  0  0  0  0  0  0  0
  -21.0990   -6.8010   23.8540 C   0  0  0  0  0  3  0  0  0  0  0  0
  -20.9750   -5.9890   25.0000 C   0  0  0  0  0  3  0  0  0  0  0  0
  -21.2900   -4.6190   24.9340 C   0  0  0  0  0  0  0  0  0  0  0  0
  -21.7290   -4.0590   23.7210 C   0  0  0  0  0  3  0  0  0  0  0  0
  -21.8470   -4.8650   22.5760 C   0  0  0  0  0  0  0  0  0  0  0  0
  -22.2470   -4.3120   21.4060 F   0  0  0  0  0  0  0  0  0  0  0  0
  -21.1720   -3.8390   26.0340 F   0  0  0  0  0  0  0  0  0  0  0  0
  -22.7100  -13.6040   21.0960 C   0  0  0  0  0  0  0  0  0  0  0  0
  -21.9640  -12.9160   21.9550 N   0  0  0  0  0  0  0  0  0  0  0  0
  -22.2840  -14.6290   20.5630 O   0  0  0  0  0  0  0  0  0  0  0  0
  -22.3200  -12.0910   22.4180 H   0  0  0  0  0  0  0  0  0  0  0  0
  -21.0210  -13.2240   22.1530 H   0  0  0  0  0  0  0  0  0  0  0  0
  -25.3560  -15.2530   20.2960 N   0  0  0  0  0  0  0  0  0  0  0  0
  -24.5910  -15.9120   20.3830 H   0  0  0  0  0  0  0  0  0  0  0  0
  -26.2140  -15.6880   19.9800 H   0  0  0  0  0  0  0  0  0  0  0  0
  -30.4880  -23.5620   18.0130 C   0  0  0  0  0  1  0  0  0  0  0  0
  -31.3670  -22.8060   20.2140 C   0  0  0  0  0  1  0  0  0  0  0  0
  -30.1030  -23.3860   19.5070 C   0  0  2  0  0  0  0  0  0  0  0  0
  -29.7760  -24.7840   20.1180 C   0  0  0  0  0  0  0  0  0  0  0  0
  -30.5430  -25.3350   20.9170 O   0  0  0  0  0  0  0  0  0  0  0  0
  -28.4630  -25.4700   19.7100 C   0  0  0  0  0  2  0  0  0  0  0  0
  -28.4410  -26.8280   20.1440 O   0  0  0  0  0  0  0  0  0  0  0  0
  -24.5730  -31.8880   23.2480 C   0  0  0  0  0  0  0  0  0  0  0  0
  -27.2290  -27.4820   20.1490 C   0  0  0  0  0  0  0  0  0  0  0  0
  -23.3620  -30.4880   21.6060 C   0  0  0  0  0  3  0  0  0  0  0  0
  -24.8140  -28.9490   20.1860 C   0  0  0  0  0  0  0  0  0  0  0  0
  -25.8810  -30.8570   21.3980 C   0  0  0  0  0  2  0  0  0  0  0  0
  -25.9680  -29.4850   20.7660 C   0  0  0  0  0  0  0  0  0  0  0  0
  -27.1750  -28.7560   20.7520 C   0  0  0  0  0  3  0  0  0  0  0  0
  -26.0500  -26.9470   19.5700 C   0  0  0  0  0  3  0  0  0  0  0  0
  -24.8450  -27.6730   19.5970 C   0  0  0  0  0  3  0  0  0  0  0  0
  -23.5700  -29.8050   20.2260 C   0  0  0  0  0  2  0  0  0  0  0  0
  -24.6240  -31.0910   22.1430 N   0  0  0  0  0  0  0  0  0  0  0  0
  -23.4920  -32.1600   23.7890 O   0  0  0  0  0  0  0  0  0  0  0  0
  -22.7130  -29.4670   22.5660 C   0  0  0  0  0  0  0  0  0  0  0  0
  -21.3880  -29.2850   22.4390 N   0  0  0  0  0  0  0  0  0  0  0  0
  -23.3970  -28.8400   23.3790 O   0  0  0  0  0  0  0  0  0  0  0  0
  -20.8980  -29.8410   21.7530 H   0  0  0  0  0  0  0  0  0  0  0  0
  -18.0150  -28.1010   22.9460 C   0  0  0  0  0  0  0  0  0  0  0  0
  -20.5750  -28.3460   23.2100 C   0  0  0  0  0  3  0  0  0  0  0  0
  -20.6700  -26.9190   22.6280 C   0  0  0  0  0  2  0  0  0  0  0  0
  -19.5660  -26.6060   21.6150 C   0  0  0  0  0  2  0  0  0  0  0  0
  -18.1850  -26.7520   22.2640 C   0  0  0  0  0  2  0  0  0  0  0  0
  -19.1380  -28.8560   23.3740 C   0  0  0  0  0  0  0  0  0  0  0  0
  -18.9300  -30.1170   23.9740 C   0  0  0  0  0  3  0  0  0  0  0  0
  -17.6300  -30.6270   24.1450 C   0  0  0  0  0  3  0  0  0  0  0  0
  -16.5200  -29.8710   23.7320 C   0  0  0  0  0  3  0  0  0  0  0  0
  -16.7120  -28.6080   23.1430 C   0  0  0  0  0  3  0  0  0  0  0  0
  -25.8610  -32.5170   23.8660 C   0  0  0  0  0  3  0  0  0  0  0  0
  -25.5580  -33.9180   24.1900 N   0  0  0  0  0  0  0  0  0  0  0  0
  -25.8990  -34.9650   23.4250 C   0  0  0  0  0  0  0  0  0  0  0  0
  -26.5690  -34.8540   22.3960 O   0  0  0  0  0  0  0  0  0  0  0  0
  -24.9700  -34.0810   24.9950 H   0  0  0  0  0  0  0  0  0  0  0  0
  -24.1820  -36.7630   23.0530 C   0  0  0  0  0  1  0  0  0  0  0  0
  -25.4150  -36.3570   23.8750 C   0  0  0  0  0  3  0  0  0  0  0  0
  -27.5500  -37.2320   24.7180 C   0  0  0  0  0  1  0  0  0  0  0  0
  -26.4540  -37.4040   23.7660 N   0  0  0  0  0  0  0  0  0  0  0  0
  -26.0510  -38.3260   23.9110 H   0  0  0  0  0  0  0  0  0  0  0  0
  -26.3820  -31.7470   25.1420 C   0  0  1  0  0  0  0  0  0  0  0  0
  -25.2920  -31.5160   26.2140 C   0  0  0  0  0  1  0  0  0  0  0  0
  -26.9610  -30.3700   24.7430 C   0  0  0  0  0  1  0  0  0  0  0  0
  -27.5350  -32.5410   25.7980 C   0  0  0  0  0  1  0  0  0  0  0  0
  1  2  1  0
  2  4  2  0
  3  8  1  0
  3  2  1  0
  5  3  1  0
  7 10  1  0
  7  8  2  0
  8  6  1  0
  9  6  2  0
  9 19  1  0
 10  9  1  0
 11 19  1  0
 12 17  1  0
 13 14  1  0
 13 12  1  0
 15 14  1  0
 15 24  1  0
 15 16  1  0
 17 11  1  0
 17 16  1  0
 18 11  2  0
 19 20  1  0
 21 22  2  0
 22 41  1  0
 23 22  1  0
 23 26  1  0
 24 21  1  0
 24 25  1  0
 25 23  2  0
 26 27  1  0
 27 28  2  0
 29 32  1  0
 29 28  1  0
 30 29  2  0
 31 30  1  0
 31 26  2  0
 32 33  1  0
 33 34  1  0
 34 35  2  0
 36 35  1  0
 36 40  1  0
 37 36  2  0
 38 33  2  0
 38 37  1  0
 39 38  1  0
 41 42  1  0
 42 45  1  0
 42 44  1  0
 43 41  2  0
 46 47  1  0
 46 21  1  0
 48 46  1  0
 51 49  1  6
 51  1  1  0
 51 52  1  0
 51 50  1  0
 52 53  2  0
 54 52  1  0
 54 55  1  0
 55 57  1  0
 56 67  2  0
 57 62  1  0
 58 66  1  0
 58 68  1  0
 59 65  1  0
 59 61  1  0
 60 66  1  0
 61 60  1  0
 62 61  2  0
 63 64  1  0
 63 57  2  0
 64 59  2  0
 65 58  1  0
 66 56  1  0
 68 70  2  0
 69 68  1  0
 71 69  1  0
 72 81  2  0
 72 77  1  0
 73 69  1  0
 73 77  1  0
 74 73  1  0
 75 76  1  0
 75 74  1  0
 76 72  1  0
 77 78  2  0
 78 79  1  0
 80 79  2  0
 81 80  1  0
 82 56  1  0
 82 83  1  0
 82 92  1  0
 83 86  1  0
 84 88  1  0
 84 83  1  0
 85 84  2  0
 88 87  1  0
 90 88  1  0
 90 91  1  0
 90 89  1  0
 92 95  1  1
 92 93  1  0
 94 92  1  0
M  ISO  4  11 100  19 100  54 101  55 101
M  END
>  <TORSDO>  (89) 
F 21

>  <SCORE>  (89) 
-13.639

>  <name>  (89) 
88

>  <ligand_id>  (89) 
88

>  <original_smiles>  (89) 
[H]c1oc(N([H])C(=O)N2C([H])([H])C([H])([H])C([H])([H])C([H])(n3nc(-c4c([H])c([H])c(Oc5c([H])c([H])c(F)c([H])c5F)c([H])c4[H])c(C(=O)N([H])[H])c3N([H])[H])C2([H])[H])c([H])c1N([H])C(=O)C([H])([H])C(C(=O)C([H])([H])Oc1c([H])c([H])c2c(c1[H])C([H])([H])N(C(=O)C([H])(N([H])C(=O)C([H])(N([H])C([H])([H])[H])C([H])([H])[H])C(C([H])([H])[H])(C([H])([H])[H])C([H])([H])[H])C([H])(C(=O)N([H])C1([H])c3c([H])c([H])c([H])c([H])c3C([H])([H])C([H])([H])C1([H])[H])C2([H])[H])(C([H])([H])[H])C([H])([H])[H]

>  <smiles>  (89) 
[H]c1oc(N([H])C(=O)N2C([H])([H])C([H])([H])C([H])([H])C([H])(n3nc(-c4c([H])c([H])c(Oc5c([H])c([H])c(F)c([H])c5F)c([H])c4[H])c(C(=O)N([H])[H])c3N([H])[H])C2([H])[H])c([H])c1N([H])C(=O)C([H])([H])C(C(=O)C([H])([H])Oc1c([H])c([H])c2c(c1[H])C([H])([H])N(C(=O)C([H])(N([H])C(=O)C([H])(N([H])C([H])([H])[H])C([H])([H])[H])C(C([H])([H])[H])(C([H])([H])[H])C([H])([H])[H])C([H])(C(=O)N([H])C1([H])c3c([H])c([H])c([H])c([H])c3C([H])([H])C([H])([H])C1([H])[H])C2([H])[H])(C([H])([H])[H])C([H])([H])[H]

$$$$
89:0:0
     RDKit          3D

 98101  0  0  1  0  0  0  0  0999 V2000
  -23.2140  -29.0960   22.3860 C   0  0  0  0  0  2  0  0  0  0  0  0
  -20.7510  -29.0650   22.8180 C   0  0  0  0  0  1  0  0  0  0  0  0
  -24.0220  -29.4140   21.1740 C   0  0  0  0  0  2  0  0  0  0  0  0
  -19.6510  -28.2520   21.7360 C   0  0  0  0  0  1  0  0  0  0  0  0
  -23.2100  -28.1940   21.3570 C   0  0  0  0  0  2  0  0  0  0  0  0
  -20.2920  -27.0610   23.6940 C   0  0  0  0  0  1  0  0  0  0  0  0
  -21.0550  -28.2110   22.6040 N   0  0  2  0  0  4  0  0  0  0  0  0
  -21.2060  -27.3250   22.1610 H   0  0  0  0  0  0  0  0  0  0  0  0
  -19.3180  -27.6670   19.8060 C   0  0  0  0  0  1  0  0  0  0  0  0
  -17.9230  -26.9420   18.6450 C   0  0  0  0  0  0  0  0  0  0  0  0
  -16.8360  -27.3810   19.1150 N   0  0  0  0  0  0  0  0  0  0  0  0
  -16.0540  -27.0390   18.5640 H   0  0  0  0  0  0  0  0  0  0  0  0
  -18.1290  -24.6220   16.5770 C   0  0  0  0  0  3  0  0  0  0  0  0
  -16.2550  -25.7040   16.2820 C   0  0  0  0  0  3  0  0  0  0  0  0
  -17.6940  -23.5810   15.5110 C   0  0  0  0  0  3  0  0  0  0  0  0
  -15.8210  -24.6600   15.2220 C   0  0  0  0  0  3  0  0  0  0  0  0
  -17.4820  -25.8690   17.1490 C   0  0  0  0  0  0  0  0  0  0  0  0
  -16.4790  -23.4470   14.6210 C   0  0  0  0  0  0  0  0  0  0  0  0
  -15.6850  -20.6870   13.0200 C   0  0  0  0  0  0  0  0  0  0  0  0
  -14.8210  -19.3470   10.8470 C   0  0  0  0  0  2  0  0  0  0  0  0
  -15.1460  -20.0450    9.4850 C   0  0  0  0  0  2  0  0  0  0  0  0
  -14.2920  -21.3160    9.2840 C   0  0  0  0  0  2  0  0  0  0  0  0
  -14.1700  -22.0720   10.6230 C   0  0  0  0  0  3  0  0  0  0  0  0
  -13.5960  -21.1610   11.7010 C   0  0  0  0  0  2  0  0  0  0  0  0
  -14.7340  -20.3500   11.9990 N   0  0  0  0  0  0  0  0  0  0  0  0
  -16.3710  -19.6370   13.1930 O   0  0  0  0  0  0  0  0  0  0  0  0
  -15.8100  -22.1630   13.6050 N   0  0  0  0  0  0  0  0  0  0  0  0
  -15.2150  -22.6460   12.9550 H   0  0  0  0  0  0  0  0  0  0  0  0
  -12.4970  -23.7110   11.5380 C   0  0  0  0  0  0  0  0  0  0  0  0
  -12.0710  -24.9120   11.0700 C   0  0  0  0  0  0  0  0  0  0  0  0
  -12.7270  -25.0990    9.8160 C   0  0  0  0  0  0  0  0  0  0  0  0
  -13.4160  -23.2740   10.6020 N   0  0  0  0  0  0  0  0  0  0  0  0
  -13.4970  -24.0700    9.5220 N   0  0  0  0  0  0  0  0  0  0  0  0
  -12.7380  -26.2250    8.8990 C   0  0  0  0  0  0  0  0  0  0  0  0
  -11.5430  -26.8600    8.5000 C   0  0  0  0  0  3  0  0  0  0  0  0
  -11.5920  -27.9570    7.6190 C   0  0  0  0  0  3  0  0  0  0  0  0
  -12.8390  -28.4200    7.1360 C   0  0  0  0  0  0  0  0  0  0  0  0
  -14.0200  -27.7570    7.5170 C   0  0  0  0  0  3  0  0  0  0  0  0
  -13.9710  -26.6620    8.3890 C   0  0  0  0  0  3  0  0  0  0  0  0
  -12.9840  -29.4640    6.2580 O   0  0  0  0  0  0  0  0  0  0  0  0
  -14.0920  -29.5800    5.4600 C   0  0  0  0  0  0  0  0  0  0  0  0
  -14.9830  -30.6700    5.5740 C   0  0  0  0  0  3  0  0  0  0  0  0
  -16.1470  -30.7100    4.7820 C   0  0  0  0  0  3  0  0  0  0  0  0
  -16.4260  -29.6620    3.8860 C   0  0  0  0  0  0  0  0  0  0  0  0
  -15.5400  -28.5750    3.7740 C   0  0  0  0  0  3  0  0  0  0  0  0
  -14.3780  -28.5340    4.5630 C   0  0  0  0  0  0  0  0  0  0  0  0
  -13.5380  -27.4740    4.4690 F   0  0  0  0  0  0  0  0  0  0  0  0
  -17.5490  -29.6950    3.1310 F   0  0  0  0  0  0  0  0  0  0  0  0
  -11.1650  -25.8620   11.7860 C   0  0  0  0  0  0  0  0  0  0  0  0
  -11.3630  -27.1570   11.5850 N   0  0  0  0  0  0  0  0  0  0  0  0
  -10.2450  -25.4530   12.4950 O   0  0  0  0  0  0  0  0  0  0  0  0
  -12.1010  -27.4830   10.9790 H   0  0  0  0  0  0  0  0  0  0  0  0
  -10.7610  -27.8280   12.0380 H   0  0  0  0  0  0  0  0  0  0  0  0
  -12.1840  -22.9680   12.6760 N   0  0  0  0  0  0  0  0  0  0  0  0
  -11.4450  -23.2610   13.3040 H   0  0  0  0  0  0  0  0  0  0  0  0
  -12.4900  -22.0300   12.8830 H   0  0  0  0  0  0  0  0  0  0  0  0
  -23.3100  -27.3250   19.5600 C   0  0  0  0  0  1  0  0  0  0  0  0
  -24.3120  -26.2060   18.6240 O   0  0  0  0  0  0  0  0  0  0  0  0
  -30.1480  -25.3230   18.5850 C   0  0  0  0  0  0  0  0  0  0  0  0
  -24.4390  -25.9110   17.2450 C   0  0  0  0  0  3  0  0  0  0  0  0
  -28.7010  -27.2400   18.8310 C   0  0  0  0  0  3  0  0  0  0  0  0
  -26.5910  -27.4080   17.3740 C   0  0  0  0  0  3  0  0  0  0  0  0
  -28.2440  -25.5800   16.9790 C   0  0  0  0  0  2  0  0  0  0  0  0
  -26.8010  -26.0630   17.0610 C   0  0  0  0  0  3  0  0  0  0  0  0
  -25.6590  -25.2640   16.8840 C   0  0  0  0  0  2  0  0  0  0  0  0
  -24.2590  -27.1600   16.7210 C   0  0  0  0  0  2  0  0  0  0  0  0
  -25.3500  -27.9940   17.0180 C   0  0  0  0  0  2  0  0  0  0  0  0
  -27.7620  -28.1350   17.9520 C   0  0  0  0  0  2  0  0  0  0  0  0
  -29.1040  -26.0410   18.0900 N   0  0  0  0  0  0  0  0  0  0  0  0
  -30.8040  -25.7110   19.5650 O   0  0  0  0  0  0  0  0  0  0  0  0
  -28.1330  -26.6720   20.1510 C   0  0  0  0  0  3  0  0  0  0  0  0
  -28.1530  -25.3910   20.3460 N   0  0  0  0  0  0  0  0  0  0  0  0
  -27.7250  -27.3840   21.0650 O   0  0  0  0  0  0  0  0  0  0  0  0
  -28.6130  -24.7970   19.6740 H   0  0  0  0  0  0  0  0  0  0  0  0
  -26.0390  -27.0640   23.2250 C   0  0  0  0  0  3  0  0  0  0  0  0
  -28.0890  -24.9180   21.7160 C   0  0  0  0  0  2  0  0  0  0  0  0
  -27.2520  -22.7250   22.0580 C   0  0  0  0  0 15  0  0  0  0  0  0
  -24.5600  -23.5020   22.8900 C   0  0  0  0  0 15  0  0  0  0  0  0
  -24.3180  -25.8930   23.4030 C   0  0  0  0  0 15  0  0  0  0  0  0
  -27.4870  -26.6060   22.5340 C   0  0  0  0  0  0  0  0  0  0  0  0
  -28.3530  -27.7080   22.1390 C   0  0  0  0  0  0  0  0  0  0  0  0
  -28.1490  -29.0830   22.4160 C   0  0  0  0  0  3  0  0  0  0  0  0
  -27.0240  -29.4580   23.1630 C   0  0  0  0  0  3  0  0  0  0  0  0
  -26.0230  -28.4950   23.5260 C   0  0  0  0  0  3  0  0  0  0  0  0
  -30.5530  -23.9970   17.9170 C   0  0  0  0  0  3  0  0  0  0  0  0
  -30.9370  -22.8610   18.9400 C   0  0  1  0  0  0  0  0  0  0  0  0
  -32.1190  -23.2240   19.8700 C   0  0  0  0  0  1  0  0  0  0  0  0
  -29.7440  -22.4700   19.8450 C   0  0  0  0  0  1  0  0  0  0  0  0
  -31.3210  -21.5910   18.1470 C   0  0  0  0  0  1  0  0  0  0  0  0
  -31.6830  -24.3320   17.0540 N   0  0  0  0  0  0  0  0  0  0  0  0
  -31.9290  -23.7430   15.8790 C   0  0  0  0  0  0  0  0  0  0  0  0
  -31.2820  -22.7760   15.4640 O   0  0  0  0  0  0  0  0  0  0  0  0
  -32.2270  -25.1410   17.3130 H   0  0  0  0  0  0  0  0  0  0  0  0
  -32.5300  -24.9610   13.7650 C   0  0  0  0  0  1  0  0  0  0  0  0
  -33.0850  -24.3110   15.0420 C   0  0  0  0  0  3  0  0  0  0  0  0
  -34.8890  -22.8530   15.8420 C   0  0  0  0  0  1  0  0  0  0  0  0
  -34.1090  -23.3040   14.6930 N   0  0  0  0  0  0  0  0  0  0  0  0
  -34.7560  -23.6800   14.0050 H   0  0  0  0  0  0  0  0  0  0  0  0
  3  5  1  0
  3  1  1  0
  4  7  1  0
  5  1  1  0
  7  2  1  0
  7  6  1  0
  7  8  1  6
 10 11  2  0
 10  9  1  0
 12 11  1  0
 13 17  1  0
 14 17  2  0
 15 13  2  0
 16 14  1  0
 17 10  1  0
 18 16  2  0
 18 15  1  0
 19 26  2  0
 19 27  1  0
 20 25  1  0
 21 20  1  0
 22 21  1  0
 23 22  1  0
 23 24  1  0
 24 25  1  0
 25 19  1  0
 27 18  1  0
 28 27  1  0
 29 54  1  0
 30 29  2  0
 30 49  1  0
 31 30  1  0
 32 23  1  0
 32 29  1  0
 33 31  2  0
 33 32  1  0
 34 31  1  0
 35 34  1  0
 36 35  2  0
 37 38  2  0
 37 36  1  0
 38 39  1  0
 39 34  2  0
 40 37  1  0
 41 42  1  0
 41 40  1  0
 43 42  2  0
 44 43  1  0
 45 44  2  0
 45 46  1  0
 46 41  2  0
 47 46  1  0
 48 44  1  0
 49 51  2  0
 50 49  1  0
 50 53  1  0
 52 50  1  0
 54 56  1  0
 54 55  1  0
 58 57  1  0
 59 70  2  0
 60 58  1  0
 61 68  1  0
 61 71  1  0
 62 67  1  0
 62 68  1  0
 63 64  1  0
 63 69  1  0
 64 65  1  0
 64 62  1  0
 65 60  1  0
 66 67  1  0
 66 60  1  0
 69 59  1  0
 69 61  1  0
 71 72  1  0
 71 73  1  0
 72 76  1  0
 73 81  1  0
 74 72  1  0
 75 84  1  0
 76 80  1  0
 80 75  2  0
 81 82  2  3
 81 80  1  0
 82 83  1  0
 83 84  2  0
 85 59  1  0
 85 86  1  0
 86 88  1  1
 86 87  1  0
 89 86  1  0
 90 93  1  0
 90 85  1  0
 91 90  1  0
 92 91  2  0
 95 94  1  0
 95 91  1  0
 97 95  1  0
 97 96  1  0
 98 97  1  0
M  ISO  4  19 100  27 100  57 101  58 101
M  END
>  <TORSDO>  (90) 
F 20

>  <SCORE>  (90) 
20.121

>  <name>  (90) 
89

>  <ligand_id>  (90) 
89

>  <original_smiles>  (90) 
[H]N=C(c1c([H])c([H])c(N([H])C(=O)N2C([H])([H])C([H])([H])C([H])([H])C([H])(n3nc(-c4c([H])c([H])c(Oc5c([H])c([H])c(F)c([H])c5F)c([H])c4[H])c(C(=O)N([H])[H])c3N([H])[H])C2([H])[H])c([H])c1[H])C([H])([H])C1([H])C([H])([H])C([H])([H])C([H])([H])C([H])(C([H])([H])Oc2c([H])c([H])c3c(c2[H])C([H])([H])N(C(=O)C([H])(N([H])C(=O)C([H])(N([H])C([H])([H])[H])C([H])([H])[H])C(C([H])([H])[H])(C([H])([H])[H])C([H])([H])[H])C([H])(C(=O)N([H])C2([H])c4c([H])c([H])c([H])c([H])c4C([H])([H])C([H])([H])C2([H])[H])C3([H])[H])[N+]1([H])C([H])([H])[H]

>  <smiles>  (90) 
[H]N=C(c1c([H])c([H])c(N([H])C(=O)N2C([H])([H])C([H])([H])C([H])([H])C([H])(n3nc(-c4c([H])c([H])c(Oc5c([H])c([H])c(F)c([H])c5F)c([H])c4[H])c(C(=O)N([H])[H])c3N([H])[H])C2([H])[H])c([H])c1[H])C([H])([H])C1([H])C([H])([H])C([H])([H])C([H])([H])C([H])(C([H])([H])Oc2c([H])c([H])c3c(c2[H])C([H])([H])N(C(=O)C([H])(N([H])C(=O)C([H])(N([H])C([H])([H])[H])C([H])([H])[H])C(C([H])([H])[H])(C([H])([H])[H])C([H])([H])[H])C([H])(C(=O)N([H])C2([H])c4c([H])c([H])c([H])c([H])c4C([H])([H])C([H])([H])C2([H])[H])C3([H])[H])[N+]1([H])C([H])([H])[H]

$$$$
90:0:0
     RDKit          3D

 96104  0  0  1  0  0  0  0  0999 V2000
  -29.1440  -21.5090   20.0440 C   0  0  0  0  0  0  0  0  0  0  0  0
  -29.7200  -20.3440   20.4670 N   0  0  0  0  0  0  0  0  0  0  0  0
  -28.3630  -21.5530   19.0910 O   0  0  0  0  0  0  0  0  0  0  0  0
  -30.5060  -20.4690   21.0910 H   0  0  0  0  0  0  0  0  0  0  0  0
  -30.3190  -17.9030   20.4080 C   0  0  0  0  0  3  0  0  0  0  0  0
  -28.6420  -16.2030   19.9880 C   0  0  0  0  0  3  0  0  0  0  0  0
  -28.0080  -18.5750   19.9490 C   0  0  0  0  0  0  0  0  0  0  0  0
  -29.9810  -16.5110   20.2920 C   0  0  0  0  0  0  0  0  0  0  0  0
  -29.3560  -18.9570   20.2140 C   0  0  0  0  0  0  0  0  0  0  0  0
  -27.6760  -17.2090   19.8240 C   0  0  0  0  0  0  0  0  0  0  0  0
  -26.8540  -19.5690   19.8810 C   0  0  0  0  0  1  0  0  0  0  0  0
  -26.3900  -16.8490   19.6020 F   0  0  0  0  0  0  0  0  0  0  0  0
  -31.2660  -14.3120   20.0750 C   0  0  0  0  0  0  0  0  0  0  0  0
  -30.9280  -11.9420   19.4060 C   0  0  0  0  0  2  0  0  0  0  0  0
  -30.0210  -11.8430   18.1630 C   0  0  0  0  0  2  0  0  0  0  0  0
  -28.5370  -11.8150   18.5750 C   0  0  0  0  0  2  0  0  0  0  0  0
  -28.1840  -12.9250   19.6040 C   0  0  0  0  0  3  0  0  0  0  0  0
  -29.2140  -12.9590   20.7580 C   0  0  0  0  0  2  0  0  0  0  0  0
  -30.5410  -13.1520   20.1620 N   0  0  0  0  0  0  0  0  0  0  0  0
  -32.3580  -14.3340   19.5010 O   0  0  0  0  0  0  0  0  0  0  0  0
  -30.8630  -15.4400   20.7240 N   0  0  0  0  0  0  0  0  0  0  0  0
  -31.7210  -15.8540   21.0570 H   0  0  0  0  0  0  0  0  0  0  0  0
  -25.8510  -13.7620   20.2790 C   0  0  0  0  0  0  0  0  0  0  0  0
  -24.7240  -13.1100   20.6910 C   0  0  0  0  0  0  0  0  0  0  0  0
  -25.0570  -11.7210   20.6990 C   0  0  0  0  0  0  0  0  0  0  0  0
  -26.8150  -12.7850   20.0900 N   0  0  0  0  0  0  0  0  0  0  0  0
  -26.3370  -11.5510   20.3910 N   0  0  0  0  0  0  0  0  0  0  0  0
  -24.2130  -10.5420   20.9220 C   0  0  0  0  0  0  0  0  0  0  0  0
  -24.5730   -9.5420   21.8520 C   0  0  0  0  0  3  0  0  0  0  0  0
  -23.7340   -8.4260   22.0630 C   0  0  0  0  0  3  0  0  0  0  0  0
  -22.5200   -8.3060   21.3450 C   0  0  0  0  0  0  0  0  0  0  0  0
  -22.1780   -9.2930   20.4040 C   0  0  0  0  0  3  0  0  0  0  0  0
  -23.0170  -10.4000   20.1910 C   0  0  0  0  0  3  0  0  0  0  0  0
  -21.6540   -7.2460   21.4680 O   0  0  0  0  0  0  0  0  0  0  0  0
  -21.5810   -6.5080   22.6210 C   0  0  0  0  0  0  0  0  0  0  0  0
  -21.2790   -7.0980   23.8670 C   0  0  0  0  0  3  0  0  0  0  0  0
  -21.1470   -6.2910   25.0150 C   0  0  0  0  0  3  0  0  0  0  0  0
  -21.3050   -4.8960   24.9170 C   0  0  0  0  0  0  0  0  0  0  0  0
  -21.5960   -4.3050   23.6750 C   0  0  0  0  0  3  0  0  0  0  0  0
  -21.7320   -5.1090   22.5300 C   0  0  0  0  0  0  0  0  0  0  0  0
  -21.9940   -4.5320   21.3320 F   0  0  0  0  0  0  0  0  0  0  0  0
  -21.1690   -4.1200   26.0170 F   0  0  0  0  0  0  0  0  0  0  0  0
  -23.3820  -13.7290   20.9620 C   0  0  0  0  0  0  0  0  0  0  0  0
  -22.6080  -13.1400   21.8670 N   0  0  0  0  0  0  0  0  0  0  0  0
  -23.0310  -14.7680   20.4020 O   0  0  0  0  0  0  0  0  0  0  0  0
  -22.9060  -12.3020   22.3440 H   0  0  0  0  0  0  0  0  0  0  0  0
  -21.7060  -13.5360   22.0860 H   0  0  0  0  0  0  0  0  0  0  0  0
  -26.1260  -15.0970   20.0200 N   0  0  0  0  0  0  0  0  0  0  0  0
  -25.4450  -15.8310   20.1740 H   0  0  0  0  0  0  0  0  0  0  0  0
  -27.0150  -15.4470   19.6930 H   0  0  0  0  0  0  0  0  0  0  0  0
  -29.5720  -22.8440   20.7400 C   0  0  0  0  0  2  0  0  0  0  0  0
  -27.0940  -23.5820   21.2040 C   0  0  0  0  0  1  0  0  0  0  0  0
  -28.9910  -24.7340   22.3140 C   0  0  0  0  0  1  0  0  0  0  0  0
  -28.5480  -24.0570   20.9950 C   0  0  1  0  0  0  0  0  0  0  0  0
  -28.5640  -25.1700   19.8730 C   0  0  0  0  0  2  0  0  0  0  0  0
  -28.4130  -26.5500   20.3380 O   0  0  0  0  0  0  0  0  0  0  0  0
  -24.5970  -31.8450   23.2640 C   0  0  0  0  0  0  0  0  0  0  0  0
  -27.2210  -27.2690   20.2960 C   0  0  0  0  0  0  0  0  0  0  0  0
  -23.3940  -30.4270   21.6340 C   0  0  0  0  0  3  0  0  0  0  0  0
  -24.8420  -28.8360   20.2570 C   0  0  0  0  0  0  0  0  0  0  0  0
  -25.9290  -30.7430   21.4570 C   0  0  0  0  0  2  0  0  0  0  0  0
  -26.0030  -29.3530   20.8420 C   0  0  0  0  0  0  0  0  0  0  0  0
  -27.1910  -28.5800   20.8480 C   0  0  0  0  0  3  0  0  0  0  0  0
  -26.0330  -26.7750   19.7110 C   0  0  0  0  0  3  0  0  0  0  0  0
  -24.8550  -27.5500   19.6880 C   0  0  0  0  0  3  0  0  0  0  0  0
  -23.6100  -29.7170   20.2710 C   0  0  0  0  0  2  0  0  0  0  0  0
  -24.6590  -31.0220   22.1770 N   0  0  0  0  0  0  0  0  0  0  0  0
  -23.5120  -32.1400   23.7850 O   0  0  0  0  0  0  0  0  0  0  0  0
  -22.7170  -29.4340   22.6080 C   0  0  0  0  0  0  0  0  0  0  0  0
  -21.3900  -29.2720   22.4770 N   0  0  0  0  0  0  0  0  0  0  0  0
  -23.3850  -28.8100   23.4370 O   0  0  0  0  0  0  0  0  0  0  0  0
  -20.9130  -29.8330   21.7840 H   0  0  0  0  0  0  0  0  0  0  0  0
  -17.9910  -28.1450   22.9780 C   0  0  0  0  0  0  0  0  0  0  0  0
  -20.5530  -28.3570   23.2530 C   0  0  0  0  0  3  0  0  0  0  0  0
  -20.6270  -26.9180   22.6920 C   0  0  0  0  0  2  0  0  0  0  0  0
  -19.5220  -26.6060   21.6780 C   0  0  0  0  0  2  0  0  0  0  0  0
  -18.1430  -26.7860   22.3170 C   0  0  0  0  0  2  0  0  0  0  0  0
  -19.1230  -28.8890   23.4020 C   0  0  0  0  0  0  0  0  0  0  0  0
  -18.9270  -30.1630   23.9790 C   0  0  0  0  0  3  0  0  0  0  0  0
  -17.6320  -30.6910   24.1360 C   0  0  0  0  0  3  0  0  0  0  0  0
  -16.5140  -29.9420   23.7290 C   0  0  0  0  0  3  0  0  0  0  0  0
  -16.6950  -28.6720   23.1550 C   0  0  0  0  0  3  0  0  0  0  0  0
  -25.8810  -32.4770   23.8890 C   0  0  0  0  0  3  0  0  0  0  0  0
  -26.3840  -31.7170   25.1770 C   0  0  1  0  0  0  0  0  0  0  0  0
  -25.2820  -31.4840   26.2370 C   0  0  0  0  0  1  0  0  0  0  0  0
  -26.9730  -30.3400   24.7960 C   0  0  0  0  0  1  0  0  0  0  0  0
  -27.5270  -32.5180   25.8460 C   0  0  0  0  0  1  0  0  0  0  0  0
  -25.5800  -33.8800   24.2030 N   0  0  0  0  0  0  0  0  0  0  0  0
  -25.9180  -34.9230   23.4330 C   0  0  0  0  0  0  0  0  0  0  0  0
  -26.5870  -34.8040   22.4030 O   0  0  0  0  0  0  0  0  0  0  0  0
  -24.9920  -34.0490   25.0060 H   0  0  0  0  0  0  0  0  0  0  0  0
  -24.1990  -36.7200   23.0570 C   0  0  0  0  0  1  0  0  0  0  0  0
  -25.4380  -36.3180   23.8730 C   0  0  0  0  0  3  0  0  0  0  0  0
  -27.5790  -37.1990   24.6940 C   0  0  0  0  0  1  0  0  0  0  0  0
  -26.4770  -37.3660   23.7500 N   0  0  0  0  0  0  0  0  0  0  0  0
  -26.0750  -38.2890   23.8890 H   0  0  0  0  0  0  0  0  0  0  0  0
  1  2  1  0
  1 51  1  0
  2  4  1  0
  3  1  2  0
  6  8  2  0
  7  9  1  0
  8  5  1  0
  8 21  1  0
  9  5  2  0
  9  2  1  0
 10  7  2  0
 10  6  1  0
 11  7  1  0
 12 10  1  0
 13 19  1  0
 13 21  1  0
 14 19  1  0
 15 16  1  0
 15 14  1  0
 17 16  1  0
 17 26  1  0
 17 18  1  0
 19 18  1  0
 20 13  2  0
 21 22  1  0
 23 24  2  0
 24 25  1  0
 24 43  1  0
 25 28  1  0
 26 23  1  0
 26 27  1  0
 27 25  2  0
 28 29  1  0
 29 30  2  0
 31 34  1  0
 31 30  1  0
 32 31  2  0
 33 32  1  0
 33 28  2  0
 34 35  1  0
 35 36  1  0
 36 37  2  0
 38 37  1  0
 38 42  1  0
 39 38  2  0
 40 35  2  0
 40 39  1  0
 41 40  1  0
 43 44  1  0
 44 47  1  0
 44 46  1  0
 45 43  2  0
 48 49  1  0
 48 23  1  0
 50 48  1  0
 51 54  1  0
 54 52  1  1
 54 53  1  0
 55 56  1  0
 55 54  1  0
 57 68  2  0
 58 56  1  0
 58 63  1  0
 59 67  1  0
 59 69  1  0
 60 66  1  0
 60 62  1  0
 61 67  1  0
 62 63  2  0
 62 61  1  0
 64 58  2  0
 65 64  1  0
 65 60  2  0
 66 59  1  0
 67 57  1  0
 69 71  2  0
 70 69  1  0
 72 70  1  0
 73 82  2  0
 73 78  1  0
 74 70  1  0
 74 78  1  0
 75 74  1  0
 76 77  1  0
 76 75  1  0
 77 73  1  0
 78 79  2  0
 79 80  1  0
 81 80  2  0
 82 81  1  0
 83 57  1  0
 83 88  1  0
 83 84  1  0
 84 87  1  1
 84 85  1  0
 86 84  1  0
 88 91  1  0
 89 93  1  0
 89 88  1  0
 90 89  2  0
 93 92  1  0
 95 93  1  0
 95 96  1  0
 95 94  1  0
M  ISO  4  13 100  21 100  55 101  56 101
M  END
>  <TORSDO>  (91) 
F 20

>  <SCORE>  (91) 
-13.760

>  <name>  (91) 
90

>  <ligand_id>  (91) 
90

>  <original_smiles>  (91) 
[H]c1c([H])c([H])c2c(c1[H])C([H])([H])C([H])([H])C([H])([H])C2([H])N([H])C(=O)C1([H])N(C(=O)C([H])(N([H])C(=O)C([H])(N([H])C([H])([H])[H])C([H])([H])[H])C(C([H])([H])[H])(C([H])([H])[H])C([H])([H])[H])C([H])([H])c2c([H])c(OC([H])([H])C(C([H])([H])[H])(C([H])([H])[H])C([H])([H])C(=O)N([H])c3c([H])c(N([H])C(=O)N4C([H])([H])C([H])([H])C([H])([H])C([H])(n5nc(-c6c([H])c([H])c(Oc7c([H])c([H])c(F)c([H])c7F)c([H])c6[H])c(C(=O)N([H])[H])c5N([H])[H])C4([H])[H])c([H])c(F)c3C([H])([H])[H])c([H])c([H])c2C1([H])[H]

>  <smiles>  (91) 
[H]c1c([H])c([H])c2c(c1[H])C([H])([H])C([H])([H])C([H])([H])C2([H])N([H])C(=O)C1([H])N(C(=O)C([H])(N([H])C(=O)C([H])(N([H])C([H])([H])[H])C([H])([H])[H])C(C([H])([H])[H])(C([H])([H])[H])C([H])([H])[H])C([H])([H])c2c([H])c(OC([H])([H])C(C([H])([H])[H])(C([H])([H])[H])C([H])([H])C(=O)N([H])c3c([H])c(N([H])C(=O)N4C([H])([H])C([H])([H])C([H])([H])C([H])(n5nc(-c6c([H])c([H])c(Oc7c([H])c([H])c(F)c([H])c7F)c([H])c6[H])c(C(=O)N([H])[H])c5N([H])[H])C4([H])[H])c([H])c(F)c3C([H])([H])[H])c([H])c([H])c2C1([H])[H]

$$$$
91:0:0
     RDKit          3D

 96105  0  0  1  0  0  0  0  0999 V2000
  -29.1880  -21.0790   20.5310 C   0  0  0  0  0  3  0  0  0  0  0  0
  -29.1620  -22.3360   17.0600 C   0  0  0  0  0  2  0  0  0  0  0  0
  -28.0400  -23.0850   17.7780 C   0  0  0  0  0  2  0  0  0  0  0  0
  -29.6470  -21.3260   18.1010 C   0  0  0  0  0  2  0  0  0  0  0  0
  -28.5450  -23.1940   19.2280 C   0  0  0  0  0  3  0  0  0  0  0  0
  -29.1930  -21.8510   19.4080 N   0  0  0  0  0  0  0  0  0  0  0  0
  -28.7830  -21.6420   21.6670 N   0  0  0  0  0  0  0  0  0  0  0  0
  -28.8030  -21.0930   22.5130 H   0  0  0  0  0  0  0  0  0  0  0  0
  -28.5760  -22.6220   21.7340 H   0  0  0  0  0  0  0  0  0  0  0  0
  -30.7770  -19.0950   20.1380 C   0  0  0  0  0  3  0  0  0  0  0  0
  -28.5770  -18.7270   21.0810 C   0  0  0  0  0  3  0  0  0  0  0  0
  -31.0350  -17.6960   20.1950 C   0  0  0  0  0  3  0  0  0  0  0  0
  -28.8320  -17.3400   21.1430 C   0  0  0  0  0  3  0  0  0  0  0  0
  -29.5360  -19.6290   20.5690 C   0  0  0  0  0  0  0  0  0  0  0  0
  -30.0570  -16.7980   20.6950 C   0  0  0  0  0  0  0  0  0  0  0  0
  -30.8250  -14.4870   19.9920 C   0  0  0  0  0  0  0  0  0  0  0  0
  -30.4570  -12.3780   18.7510 C   0  0  0  0  0  2  0  0  0  0  0  0
  -29.4170  -12.6360   17.6390 C   0  0  0  0  0  2  0  0  0  0  0  0
  -27.9770  -12.4860   18.1750 C   0  0  0  0  0  2  0  0  0  0  0  0
  -27.7510  -13.2590   19.5010 C   0  0  0  0  0  3  0  0  0  0  0  0
  -28.8860  -12.9540   20.5060 C   0  0  0  0  0  2  0  0  0  0  0  0
  -30.1700  -13.2970   19.8640 N   0  0  0  0  0  0  0  0  0  0  0  0
  -31.8750  -14.7420   19.3940 O   0  0  0  0  0  0  0  0  0  0  0  0
  -30.1940  -15.3730   20.7900 N   0  0  0  0  0  0  0  0  0  0  0  0
  -29.4710  -14.9310   21.3330 H   0  0  0  0  0  0  0  0  0  0  0  0
  -25.4180  -13.8610   20.4090 C   0  0  0  0  0  0  0  0  0  0  0  0
  -24.3730  -13.0840   20.8320 C   0  0  0  0  0  0  0  0  0  0  0  0
  -24.8150  -11.7310   20.7190 C   0  0  0  0  0  0  0  0  0  0  0  0
  -26.4330  -12.9810   20.0690 N   0  0  0  0  0  0  0  0  0  0  0  0
  -26.0780  -11.6920   20.3100 N   0  0  0  0  0  0  0  0  0  0  0  0
  -24.0930  -10.4690   20.9200 C   0  0  0  0  0  0  0  0  0  0  0  0
  -24.5230   -9.5160   21.8710 C   0  0  0  0  0  3  0  0  0  0  0  0
  -23.8020   -8.3170   22.0590 C   0  0  0  0  0  3  0  0  0  0  0  0
  -22.6400   -8.0600   21.2940 C   0  0  0  0  0  0  0  0  0  0  0  0
  -22.2290   -9.0010   20.3330 C   0  0  0  0  0  3  0  0  0  0  0  0
  -22.9490  -10.1920   20.1430 C   0  0  0  0  0  3  0  0  0  0  0  0
  -21.8920   -6.9120   21.3890 O   0  0  0  0  0  0  0  0  0  0  0  0
  -21.7500   -6.2420   22.5780 C   0  0  0  0  0  0  0  0  0  0  0  0
  -21.1930   -6.8580   23.7190 C   0  0  0  0  0  3  0  0  0  0  0  0
  -21.0010   -6.1140   24.9000 C   0  0  0  0  0  3  0  0  0  0  0  0
  -21.3580   -4.7520   24.9390 C   0  0  0  0  0  0  0  0  0  0  0  0
  -21.9080   -4.1340   23.8030 C   0  0  0  0  0  3  0  0  0  0  0  0
  -22.1010   -4.8770   22.6240 C   0  0  0  0  0  0  0  0  0  0  0  0
  -22.6120   -4.2720   21.5250 F   0  0  0  0  0  0  0  0  0  0  0  0
  -21.1670   -4.0330   26.0690 F   0  0  0  0  0  0  0  0  0  0  0  0
  -23.0050  -13.5610   21.2300 C   0  0  0  0  0  0  0  0  0  0  0  0
  -22.3420  -12.8430   22.1290 N   0  0  0  0  0  0  0  0  0  0  0  0
  -22.5350  -14.6050   20.7790 O   0  0  0  0  0  0  0  0  0  0  0  0
  -22.7350  -11.9970   22.5150 H   0  0  0  0  0  0  0  0  0  0  0  0
  -21.4270  -13.1440   22.4350 H   0  0  0  0  0  0  0  0  0  0  0  0
  -25.5830  -15.2360   20.2670 N   0  0  0  0  0  0  0  0  0  0  0  0
  -24.8290  -15.8920   20.4440 H   0  0  0  0  0  0  0  0  0  0  0  0
  -26.3920  -15.6720   19.8440 H   0  0  0  0  0  0  0  0  0  0  0  0
  -29.5180  -24.3980   19.4530 C   0  0  0  0  0  2  0  0  0  0  0  0
  -29.0440  -25.8330   19.0370 C   0  0  0  0  0  2  0  0  0  0  0  0
  -28.6590  -26.7030   20.1180 O   0  0  0  0  0  0  0  0  0  0  0  0
  -24.6120  -31.7350   23.1460 C   0  0  0  0  0  0  0  0  0  0  0  0
  -27.4560  -27.3900   20.0660 C   0  0  0  0  0  0  0  0  0  0  0  0
  -23.4800  -30.3060   21.4740 C   0  0  0  0  0  3  0  0  0  0  0  0
  -25.0070  -28.8250   20.0620 C   0  0  0  0  0  0  0  0  0  0  0  0
  -25.9980  -30.7420   21.3240 C   0  0  0  0  0  2  0  0  0  0  0  0
  -26.1380  -29.3770   20.6750 C   0  0  0  0  0  0  0  0  0  0  0  0
  -27.3590  -28.6620   20.6830 C   0  0  0  0  0  3  0  0  0  0  0  0
  -26.2950  -26.8460   19.4700 C   0  0  0  0  0  3  0  0  0  0  0  0
  -25.0800  -27.5570   19.4610 C   0  0  0  0  0  3  0  0  0  0  0  0
  -23.7360  -29.6450   20.0930 C   0  0  0  0  0  2  0  0  0  0  0  0
  -24.7140  -30.9430   22.0400 N   0  0  0  0  0  0  0  0  0  0  0  0
  -23.5130  -31.9680   23.6690 O   0  0  0  0  0  0  0  0  0  0  0  0
  -22.8450  -29.2580   22.4170 C   0  0  0  0  0  0  0  0  0  0  0  0
  -21.5290  -29.0360   22.2690 N   0  0  0  0  0  0  0  0  0  0  0  0
  -23.5360  -28.6470   23.2370 O   0  0  0  0  0  0  0  0  0  0  0  0
  -21.0320  -29.5850   21.5810 H   0  0  0  0  0  0  0  0  0  0  0  0
  -18.1810  -27.7610   22.7350 C   0  0  0  0  0  0  0  0  0  0  0  0
  -20.7310  -28.0680   23.0200 C   0  0  0  0  0  3  0  0  0  0  0  0
  -20.8660  -26.6500   22.4200 C   0  0  0  0  0  2  0  0  0  0  0  0
  -19.7740  -26.3220   21.3960 C   0  0  0  0  0  2  0  0  0  0  0  0
  -18.3890  -26.4270   22.0370 C   0  0  0  0  0  2  0  0  0  0  0  0
  -19.2810  -28.5380   23.1830 C   0  0  0  0  0  0  0  0  0  0  0  0
  -19.0340  -29.7860   23.7950 C   0  0  0  0  0  3  0  0  0  0  0  0
  -17.7180  -30.2570   23.9640 C   0  0  0  0  0  3  0  0  0  0  0  0
  -16.6320  -29.4770   23.5310 C   0  0  0  0  0  3  0  0  0  0  0  0
  -16.8640  -28.2300   22.9240 C   0  0  0  0  0  3  0  0  0  0  0  0
  -25.8660  -32.4030   23.7910 C   0  0  0  0  0  3  0  0  0  0  0  0
  -26.3810  -31.6480   25.0770 C   0  0  1  0  0  0  0  0  0  0  0  0
  -25.2750  -31.3750   26.1210 C   0  0  0  0  0  1  0  0  0  0  0  0
  -27.0190  -30.2920   24.6960 C   0  0  0  0  0  1  0  0  0  0  0  0
  -27.4910  -32.4800   25.7630 C   0  0  0  0  0  1  0  0  0  0  0  0
  -25.5120  -33.7920   24.1110 N   0  0  0  0  0  0  0  0  0  0  0  0
  -25.8480  -34.8540   23.3660 C   0  0  0  0  0  0  0  0  0  0  0  0
  -26.5590  -34.7690   22.3610 O   0  0  0  0  0  0  0  0  0  0  0  0
  -24.8840  -33.9310   24.8890 H   0  0  0  0  0  0  0  0  0  0  0  0
  -24.1110  -36.6190   22.9260 C   0  0  0  0  0  1  0  0  0  0  0  0
  -25.3100  -36.2300   23.8060 C   0  0  0  0  0  3  0  0  0  0  0  0
  -27.3720  -37.1460   24.7720 C   0  0  0  0  0  1  0  0  0  0  0  0
  -26.3280  -37.3010   23.7630 N   0  0  0  0  0  0  0  0  0  0  0  0
  -25.8970  -38.2130   23.8900 H   0  0  0  0  0  0  0  0  0  0  0  0
  1 14  1  0
  1  7  1  0
  2  3  1  0
  2  4  1  0
  3  5  1  0
  4  6  1  0
  5  6  1  0
  5 54  1  0
  6  1  1  0
  7  9  1  0
  7  8  1  0
 10 12  2  0
 10 14  1  0
 11 13  1  0
 12 15  1  0
 14 11  2  0
 15 24  1  0
 15 13  2  0
 16 24  1  0
 17 22  1  0
 18 19  1  0
 18 17  1  0
 20 19  1  0
 20 29  1  0
 20 21  1  0
 22 16  1  0
 22 21  1  0
 23 16  2  0
 24 25  1  0
 26 27  2  0
 27 46  1  0
 28 27  1  0
 28 31  1  0
 29 30  1  0
 29 26  1  0
 30 28  2  0
 31 32  1  0
 32 33  2  0
 34 37  1  0
 34 33  1  0
 35 34  2  0
 36 35  1  0
 36 31  2  0
 37 38  1  0
 38 43  2  0
 38 39  1  0
 39 40  2  0
 40 41  1  0
 41 45  1  0
 42 41  2  0
 43 42  1  0
 44 43  1  0
 46 47  1  0
 47 50  1  0
 47 49  1  0
 48 46  2  0
 51 26  1  0
 51 52  1  0
 53 51  1  0
 55 54  1  0
 55 56  1  0
 57 68  2  0
 58 56  1  0
 58 63  1  0
 59 67  1  0
 59 69  1  0
 60 66  1  0
 60 62  1  0
 61 67  1  0
 62 63  2  0
 62 61  1  0
 64 58  2  0
 65 64  1  0
 65 60  2  0
 66 59  1  0
 67 57  1  0
 69 71  2  0
 70 69  1  0
 72 70  1  0
 73 82  2  0
 73 78  1  0
 74 70  1  0
 74 78  1  0
 75 74  1  0
 76 77  1  0
 76 75  1  0
 77 73  1  0
 78 79  2  0
 79 80  1  0
 81 80  2  0
 82 81  1  0
 83 57  1  0
 83 88  1  0
 83 84  1  0
 84 87  1  1
 84 85  1  0
 86 84  1  0
 88 91  1  0
 89 93  1  0
 89 88  1  0
 90 89  2  0
 93 92  1  0
 95 93  1  0
 95 96  1  0
 95 94  1  0
M  ISO  4  16 100  24 100  55 101  56 101
M  END
>  <TORSDO>  (92) 
F 19

>  <SCORE>  (92) 
-13.228

>  <name>  (92) 
91

>  <ligand_id>  (92) 
91

>  <original_smiles>  (92) 
[H]c1c([H])c([H])c2c(c1[H])C([H])([H])C([H])([H])C([H])([H])C2([H])N([H])C(=O)C1([H])N(C(=O)C([H])(N([H])C(=O)C([H])(N([H])C([H])([H])[H])C([H])([H])[H])C(C([H])([H])[H])(C([H])([H])[H])C([H])([H])[H])C([H])([H])c2c([H])c(OC([H])([H])C([H])([H])C3([H])N(C(c4c([H])c([H])c(N([H])C(=O)N5C([H])([H])C([H])([H])C([H])([H])C([H])(n6nc(-c7c([H])c([H])c(Oc8c([H])c([H])c(F)c([H])c8F)c([H])c7[H])c(C(=O)N([H])[H])c6N([H])[H])C5([H])[H])c([H])c4[H])=[N+]([H])[H])C([H])([H])C([H])([H])C3([H])[H])c([H])c([H])c2C1([H])[H]

>  <smiles>  (92) 
[H]c1c([H])c([H])c2c(c1[H])C([H])([H])C([H])([H])C([H])([H])C2([H])N([H])C(=O)C1([H])N(C(=O)C([H])(N([H])C(=O)C([H])(N([H])C([H])([H])[H])C([H])([H])[H])C(C([H])([H])[H])(C([H])([H])[H])C([H])([H])[H])C([H])([H])c2c([H])c(OC([H])([H])C([H])([H])C3([H])N(C(c4c([H])c([H])c(N([H])C(=O)N5C([H])([H])C([H])([H])C([H])([H])C([H])(n6nc(-c7c([H])c([H])c(Oc8c([H])c([H])c(F)c([H])c8F)c([H])c7[H])c(C(=O)N([H])[H])c6N([H])[H])C5([H])[H])c([H])c4[H])=[N+]([H])[H])C([H])([H])C([H])([H])C3([H])[H])c([H])c([H])c2C1([H])[H]

$$$$
92:0:0
     RDKit          3D

 94103  0  0  1  0  0  0  0  0999 V2000
  -28.3020  -21.3400   19.8780 C   0  0  0  0  0  2  0  0  0  0  0  0
  -30.6400  -22.1980   19.9850 C   0  0  0  0  0  2  0  0  0  0  0  0
  -28.1100  -22.7430   19.1880 C   0  0  0  0  0  2  0  0  0  0  0  0
  -30.1320  -23.6530   20.3320 C   0  0  0  0  0  2  0  0  0  0  0  0
  -29.7190  -21.0290   20.4760 C   0  0  1  0  0  0  0  0  0  0  0  0
  -28.6280  -23.9760   19.9980 C   0  0  2  0  0  0  0  0  0  0  0  0
  -29.7500  -21.1140   22.0220 C   0  0  0  0  0  1  0  0  0  0  0  0
  -27.7760  -24.1000   21.2780 C   0  0  0  0  0  1  0  0  0  0  0  0
  -31.4320  -19.4030   19.4690 C   0  0  0  0  0  3  0  0  0  0  0  0
  -30.2280  -19.5920   20.1030 C   0  0  0  0  0  0  0  0  0  0  0  0
  -29.6200  -18.2810   20.3850 C   0  0  0  0  0  0  0  0  0  0  0  0
  -30.4100  -17.1720   20.0790 C   0  0  0  0  0  0  0  0  0  0  0  0
  -28.2470  -18.0640   20.9620 C   0  0  0  0  0  1  0  0  0  0  0  0
  -31.8720  -17.7290   19.2920 S   0  0  0  0  0  0  0  0  0  0  0  0
  -30.8100  -14.7000   19.9850 C   0  0  0  0  0  0  0  0  0  0  0  0
  -30.4280  -12.5050   18.9130 C   0  0  0  0  0  2  0  0  0  0  0  0
  -29.4240  -12.6930   17.7610 C   0  0  0  0  0  2  0  0  0  0  0  0
  -27.9800  -12.5370   18.2720 C   0  0  0  0  0  2  0  0  0  0  0  0
  -27.7060  -13.3720   19.5540 C   0  0  0  0  0  3  0  0  0  0  0  0
  -28.8350  -13.2240   20.6000 C   0  0  0  0  0  2  0  0  0  0  0  0
  -30.1140  -13.5210   19.9360 N   0  0  0  0  0  0  0  0  0  0  0  0
  -31.9720  -14.7560   19.5810 O   0  0  0  0  0  0  0  0  0  0  0  0
  -30.1060  -15.8300   20.2970 N   0  0  0  0  0  0  0  0  0  0  0  0
  -29.1800  -15.6510   20.6520 H   0  0  0  0  0  0  0  0  0  0  0  0
  -25.3680  -13.9610   20.4420 C   0  0  0  0  0  0  0  0  0  0  0  0
  -24.3180  -13.1810   20.8530 C   0  0  0  0  0  0  0  0  0  0  0  0
  -24.7680  -11.8310   20.7540 C   0  0  0  0  0  0  0  0  0  0  0  0
  -26.3910  -13.0830   20.1190 N   0  0  0  0  0  0  0  0  0  0  0  0
  -26.0380  -11.7940   20.3680 N   0  0  0  0  0  0  0  0  0  0  0  0
  -24.0430  -10.5660   20.9440 C   0  0  0  0  0  0  0  0  0  0  0  0
  -24.4940   -9.5860   21.8550 C   0  0  0  0  0  3  0  0  0  0  0  0
  -23.7680   -8.3890   22.0340 C   0  0  0  0  0  3  0  0  0  0  0  0
  -22.5770   -8.1630   21.3040 C   0  0  0  0  0  0  0  0  0  0  0  0
  -22.1490   -9.1330   20.3780 C   0  0  0  0  0  3  0  0  0  0  0  0
  -22.8760  -10.3210   20.1950 C   0  0  0  0  0  3  0  0  0  0  0  0
  -21.8220   -7.0190   21.3950 O   0  0  0  0  0  0  0  0  0  0  0  0
  -21.7580   -6.2880   22.5550 C   0  0  0  0  0  0  0  0  0  0  0  0
  -21.2980   -6.8500   23.7660 C   0  0  0  0  0  3  0  0  0  0  0  0
  -21.1800   -6.0460   24.9170 C   0  0  0  0  0  3  0  0  0  0  0  0
  -21.5140   -4.6790   24.8600 C   0  0  0  0  0  0  0  0  0  0  0  0
  -21.9650   -4.1150   23.6530 C   0  0  0  0  0  3  0  0  0  0  0  0
  -22.0830   -4.9180   22.5040 C   0  0  0  0  0  0  0  0  0  0  0  0
  -22.4990   -4.3640   21.3400 F   0  0  0  0  0  0  0  0  0  0  0  0
  -21.3960   -3.9030   25.9630 F   0  0  0  0  0  0  0  0  0  0  0  0
  -22.9420  -13.6570   21.2210 C   0  0  0  0  0  0  0  0  0  0  0  0
  -22.2580  -12.9360   22.1020 N   0  0  0  0  0  0  0  0  0  0  0  0
  -22.4810  -14.6990   20.7560 O   0  0  0  0  0  0  0  0  0  0  0  0
  -22.6530  -12.1010   22.5100 H   0  0  0  0  0  0  0  0  0  0  0  0
  -21.3280  -13.2220   22.3740 H   0  0  0  0  0  0  0  0  0  0  0  0
  -25.5240  -15.3350   20.2930 N   0  0  0  0  0  0  0  0  0  0  0  0
  -24.7520  -15.9770   20.4440 H   0  0  0  0  0  0  0  0  0  0  0  0
  -26.3380  -15.7870   19.8950 H   0  0  0  0  0  0  0  0  0  0  0  0
  -28.4490  -25.3430   19.1900 C   0  0  0  0  0  2  0  0  0  0  0  0
  -28.3340  -26.6170   19.9240 O   0  0  0  0  0  0  0  0  0  0  0  0
  -24.5620  -31.8440   23.1520 C   0  0  0  0  0  0  0  0  0  0  0  0
  -27.1560  -27.3800   19.9470 C   0  0  0  0  0  0  0  0  0  0  0  0
  -23.3330  -30.4680   21.5110 C   0  0  0  0  0  3  0  0  0  0  0  0
  -24.7620  -28.9440   20.0410 C   0  0  0  0  0  0  0  0  0  0  0  0
  -25.8660  -30.8030   21.2880 C   0  0  0  0  0  2  0  0  0  0  0  0
  -25.9390  -29.4390   20.6150 C   0  0  0  0  0  0  0  0  0  0  0  0
  -27.1350  -28.6670   20.5600 C   0  0  0  0  0  3  0  0  0  0  0  0
  -25.9400  -26.9140   19.3980 C   0  0  0  0  0  3  0  0  0  0  0  0
  -24.7600  -27.6800   19.4330 C   0  0  0  0  0  3  0  0  0  0  0  0
  -23.5220  -29.8090   20.1200 C   0  0  0  0  0  2  0  0  0  0  0  0
  -24.6070  -31.0530   22.0420 N   0  0  0  0  0  0  0  0  0  0  0  0
  -23.4870  -32.1100   23.7120 O   0  0  0  0  0  0  0  0  0  0  0  0
  -22.6910  -29.4360   22.4680 C   0  0  0  0  0  0  0  0  0  0  0  0
  -21.3630  -29.2580   22.3630 N   0  0  0  0  0  0  0  0  0  0  0  0
  -23.3850  -28.7980   23.2650 O   0  0  0  0  0  0  0  0  0  0  0  0
  -20.8630  -29.8260   21.6920 H   0  0  0  0  0  0  0  0  0  0  0  0
  -17.9960  -28.0570   22.9120 C   0  0  0  0  0  0  0  0  0  0  0  0
  -20.5580  -28.3100   23.1360 C   0  0  0  0  0  3  0  0  0  0  0  0
  -20.6490  -26.8890   22.5340 C   0  0  0  0  0  2  0  0  0  0  0  0
  -19.5260  -26.5830   21.5390 C   0  0  0  0  0  2  0  0  0  0  0  0
  -18.1570  -26.7190   22.2110 C   0  0  0  0  0  2  0  0  0  0  0  0
  -19.1240  -28.8120   23.3320 C   0  0  0  0  0  0  0  0  0  0  0  0
  -18.9180  -30.0650   23.9490 C   0  0  0  0  0  3  0  0  0  0  0  0
  -17.6170  -30.5650   24.1480 C   0  0  0  0  0  3  0  0  0  0  0  0
  -16.5040  -29.8080   23.7430 C   0  0  0  0  0  3  0  0  0  0  0  0
  -16.6950  -28.5560   23.1310 C   0  0  0  0  0  3  0  0  0  0  0  0
  -25.8530  -32.4720   23.7620 C   0  0  0  0  0  3  0  0  0  0  0  0
  -25.5450  -33.8640   24.1230 N   0  0  0  0  0  0  0  0  0  0  0  0
  -25.8660  -34.9320   23.3810 C   0  0  0  0  0  0  0  0  0  0  0  0
  -26.5260  -34.8480   22.3410 O   0  0  0  0  0  0  0  0  0  0  0  0
  -24.9640  -34.0020   24.9370 H   0  0  0  0  0  0  0  0  0  0  0  0
  -24.1390  -36.7330   23.0680 C   0  0  0  0  0  1  0  0  0  0  0  0
  -25.3810  -36.3100   23.8700 C   0  0  0  0  0  3  0  0  0  0  0  0
  -27.5150  -37.1790   24.7200 C   0  0  0  0  0  1  0  0  0  0  0  0
  -26.4160  -37.3640   23.7770 N   0  0  0  0  0  0  0  0  0  0  0  0
  -26.0110  -38.2820   23.9380 H   0  0  0  0  0  0  0  0  0  0  0  0
  -26.3920  -31.6810   25.0170 C   0  0  1  0  0  0  0  0  0  0  0  0
  -25.3170  -31.4190   26.0990 C   0  0  0  0  0  1  0  0  0  0  0  0
  -26.9740  -30.3120   24.5920 C   0  0  0  0  0  1  0  0  0  0  0  0
  -27.5520  -32.4670   25.6700 C   0  0  0  0  0  1  0  0  0  0  0  0
  1  5  1  0
  2  4  1  0
  2  5  1  0
  3  1  1  0
  3  6  1  0
  5  7  1  1
  6  4  1  0
  6  8  1  1
  9 10  2  0
 10 11  1  0
 10  5  1  0
 11 13  1  0
 12 23  1  0
 12 11  2  0
 14  9  1  0
 14 12  1  0
 15 23  1  0
 16 21  1  0
 17 18  1  0
 17 16  1  0
 19 18  1  0
 19 28  1  0
 19 20  1  0
 21 15  1  0
 21 20  1  0
 22 15  2  0
 23 24  1  0
 25 26  2  0
 26 45  1  0
 27 26  1  0
 27 30  1  0
 28 29  1  0
 28 25  1  0
 29 27  2  0
 30 31  1  0
 31 32  2  0
 33 36  1  0
 33 32  1  0
 34 33  2  0
 35 34  1  0
 35 30  2  0
 36 37  1  0
 37 38  1  0
 38 39  2  0
 40 39  1  0
 40 44  1  0
 41 40  2  0
 42 37  2  0
 42 41  1  0
 43 42  1  0
 45 46  1  0
 46 49  1  0
 46 48  1  0
 47 45  2  0
 50 25  1  0
 50 51  1  0
 52 50  1  0
 53 54  1  0
 53  6  1  0
 54 56  1  0
 55 66  2  0
 56 61  1  0
 57 65  1  0
 57 67  1  0
 58 64  1  0
 58 60  1  0
 59 65  1  0
 60 59  1  0
 61 60  2  0
 62 63  1  0
 62 56  2  0
 63 58  2  0
 64 57  1  0
 65 55  1  0
 67 69  2  0
 68 67  1  0
 70 68  1  0
 71 80  2  0
 71 76  1  0
 72 68  1  0
 72 76  1  0
 73 72  1  0
 74 75  1  0
 74 73  1  0
 75 71  1  0
 76 77  2  0
 77 78  1  0
 79 78  2  0
 80 79  1  0
 81 55  1  0
 81 82  1  0
 81 91  1  0
 82 85  1  0
 83 87  1  0
 83 82  1  0
 84 83  2  0
 87 86  1  0
 89 87  1  0
 89 90  1  0
 89 88  1  0
 91 94  1  1
 91 92  1  0
 93 91  1  0
M  ISO  4  15 100  23 100  53 101  54 101
M  END
>  <TORSDO>  (93) 
F 18

>  <SCORE>  (93) 
-14.169

>  <name>  (93) 
92

>  <ligand_id>  (93) 
92

>  <original_smiles>  (93) 
[H]c1sc(N([H])C(=O)N2C([H])([H])C([H])([H])C([H])([H])C([H])(n3nc(-c4c([H])c([H])c(Oc5c([H])c([H])c(F)c([H])c5F)c([H])c4[H])c(C(=O)N([H])[H])c3N([H])[H])C2([H])[H])c(C([H])([H])[H])c1C1(C([H])([H])[H])C([H])([H])C([H])([H])C(C([H])([H])[H])(C([H])([H])Oc2c([H])c([H])c3c(c2[H])C([H])([H])N(C(=O)C([H])(N([H])C(=O)C([H])(N([H])C([H])([H])[H])C([H])([H])[H])C(C([H])([H])[H])(C([H])([H])[H])C([H])([H])[H])C([H])(C(=O)N([H])C2([H])c4c([H])c([H])c([H])c([H])c4C([H])([H])C([H])([H])C2([H])[H])C3([H])[H])C([H])([H])C1([H])[H]

>  <smiles>  (93) 
[H]c1sc(N([H])C(=O)N2C([H])([H])C([H])([H])C([H])([H])C([H])(n3nc(-c4c([H])c([H])c(Oc5c([H])c([H])c(F)c([H])c5F)c([H])c4[H])c(C(=O)N([H])[H])c3N([H])[H])C2([H])[H])c(C([H])([H])[H])c1C1(C([H])([H])[H])C([H])([H])C([H])([H])C(C([H])([H])[H])(C([H])([H])Oc2c([H])c([H])c3c(c2[H])C([H])([H])N(C(=O)C([H])(N([H])C(=O)C([H])(N([H])C([H])([H])[H])C([H])([H])[H])C(C([H])([H])[H])(C([H])([H])[H])C([H])([H])[H])C([H])(C(=O)N([H])C2([H])c4c([H])c([H])c([H])c([H])c4C([H])([H])C([H])([H])C2([H])[H])C3([H])[H])C([H])([H])C1([H])[H]

$$$$
93:0:0
     RDKit          3D

 95104  0  0  1  0  0  0  0  0999 V2000
  -29.0900  -23.4140   19.5230 C   0  0  0  0  0  0  0  0  0  0  0  0
  -28.4550  -24.4460   18.8900 C   0  0  0  0  0  0  0  0  0  0  0  0
  -30.1080  -23.5580   20.6360 C   0  0  0  0  0  2  0  0  0  0  0  0
  -30.2730  -22.1420   21.2200 C   0  0  0  0  0  2  0  0  0  0  0  0
  -28.9470  -21.9000   19.2530 C   0  0  0  0  0  3  0  0  0  0  0  0
  -27.4930  -24.1770   17.7380 C   0  0  0  0  0  1  0  0  0  0  0  0
  -29.2270  -21.4740   17.7980 C   0  0  0  0  0  1  0  0  0  0  0  0
  -29.9090  -21.2350   20.1400 N   0  0  0  0  0  0  0  0  0  0  0  0
  -28.7380  -19.0800   20.4370 C   0  0  0  0  0  3  0  0  0  0  0  0
  -28.7540  -17.6760   20.6090 C   0  0  0  0  0  3  0  0  0  0  0  0
  -31.1720  -17.6970   20.6080 C   0  0  0  0  0  3  0  0  0  0  0  0
  -31.1630  -19.1110   20.4490 C   0  0  0  0  0  0  0  0  0  0  0  0
  -29.9360  -19.8280   20.3490 C   0  0  0  0  0  0  0  0  0  0  0  0
  -29.9680  -16.9560   20.6750 C   0  0  0  0  0  0  0  0  0  0  0  0
  -32.5040  -19.8250   20.3590 C   0  0  0  0  0  1  0  0  0  0  0  0
  -30.6380  -14.5480   20.2710 C   0  0  0  0  0  0  0  0  0  0  0  0
  -30.3400  -12.4000   19.0840 C   0  0  0  0  0  2  0  0  0  0  0  0
  -29.3560  -12.6280   17.9170 C   0  0  0  0  0  2  0  0  0  0  0  0
  -27.8930  -12.4800   18.3880 C   0  0  0  0  0  2  0  0  0  0  0  0
  -27.5970  -13.2810   19.6860 C   0  0  0  0  0  3  0  0  0  0  0  0
  -28.6890  -13.0170   20.7500 C   0  0  0  0  0  2  0  0  0  0  0  0
  -29.9940  -13.3510   20.1530 N   0  0  0  0  0  0  0  0  0  0  0  0
  -31.7530  -14.7500   19.7800 O   0  0  0  0  0  0  0  0  0  0  0  0
  -29.9010  -15.5290   20.8470 N   0  0  0  0  0  0  0  0  0  0  0  0
  -29.0280  -15.1870   21.2150 H   0  0  0  0  0  0  0  0  0  0  0  0
  -25.2200  -13.8780   20.4700 C   0  0  0  0  0  0  0  0  0  0  0  0
  -24.1630  -13.1010   20.8630 C   0  0  0  0  0  0  0  0  0  0  0  0
  -24.6220  -11.7500   20.7990 C   0  0  0  0  0  0  0  0  0  0  0  0
  -26.2570  -13.0000   20.1980 N   0  0  0  0  0  0  0  0  0  0  0  0
  -25.9020  -11.7140   20.4510 N   0  0  0  0  0  0  0  0  0  0  0  0
  -23.9000  -10.4850   20.9950 C   0  0  0  0  0  0  0  0  0  0  0  0
  -24.3390   -9.5220   21.9300 C   0  0  0  0  0  3  0  0  0  0  0  0
  -23.6180   -8.3210   22.1120 C   0  0  0  0  0  3  0  0  0  0  0  0
  -22.4460   -8.0770   21.3590 C   0  0  0  0  0  0  0  0  0  0  0  0
  -22.0260   -9.0280   20.4130 C   0  0  0  0  0  3  0  0  0  0  0  0
  -22.7460  -10.2200   20.2300 C   0  0  0  0  0  3  0  0  0  0  0  0
  -21.6960   -6.9290   21.4510 O   0  0  0  0  0  0  0  0  0  0  0  0
  -21.6280   -6.2050   22.6140 C   0  0  0  0  0  0  0  0  0  0  0  0
  -21.1250   -6.7600   23.8110 C   0  0  0  0  0  3  0  0  0  0  0  0
  -21.0100   -5.9600   24.9640 C   0  0  0  0  0  3  0  0  0  0  0  0
  -21.3870   -4.6040   24.9220 C   0  0  0  0  0  0  0  0  0  0  0  0
  -21.8830   -4.0480   23.7310 C   0  0  0  0  0  3  0  0  0  0  0  0
  -22.0010   -4.8460   22.5790 C   0  0  0  0  0  0  0  0  0  0  0  0
  -22.4610   -4.2990   21.4270 F   0  0  0  0  0  0  0  0  0  0  0  0
  -21.2680   -3.8330   26.0280 F   0  0  0  0  0  0  0  0  0  0  0  0
  -22.7750  -13.5760   21.1840 C   0  0  0  0  0  0  0  0  0  0  0  0
  -22.0680  -12.8640   22.0570 N   0  0  0  0  0  0  0  0  0  0  0  0
  -22.3240  -14.6110   20.6950 O   0  0  0  0  0  0  0  0  0  0  0  0
  -22.4420  -12.0270   22.4770 H   0  0  0  0  0  0  0  0  0  0  0  0
  -21.1370  -13.1650   22.3110 H   0  0  0  0  0  0  0  0  0  0  0  0
  -25.3780  -15.2500   20.3010 N   0  0  0  0  0  0  0  0  0  0  0  0
  -24.6040  -15.8950   20.4230 H   0  0  0  0  0  0  0  0  0  0  0  0
  -26.1910  -15.6840   19.8870 H   0  0  0  0  0  0  0  0  0  0  0  0
  -28.8320  -25.9440   19.0390 C   0  0  0  0  0  2  0  0  0  0  0  0
  -28.3850  -26.6660   20.2100 O   0  0  0  0  0  0  0  0  0  0  0  0
  -24.5670  -31.8970   23.2420 C   0  0  0  0  0  0  0  0  0  0  0  0
  -27.2290  -27.4310   20.1620 C   0  0  0  0  0  0  0  0  0  0  0  0
  -23.3690  -30.4890   21.6000 C   0  0  0  0  0  3  0  0  0  0  0  0
  -24.8300  -28.9540   20.1770 C   0  0  0  0  0  0  0  0  0  0  0  0
  -25.8980  -30.8470   21.4090 C   0  0  0  0  0  2  0  0  0  0  0  0
  -25.9890  -29.4750   20.7670 C   0  0  0  0  0  0  0  0  0  0  0  0
  -27.1880  -28.7170   20.7610 C   0  0  0  0  0  3  0  0  0  0  0  0
  -26.0390  -26.9240   19.6010 C   0  0  0  0  0  3  0  0  0  0  0  0
  -24.8510  -27.6780   19.5930 C   0  0  0  0  0  3  0  0  0  0  0  0
  -23.5840  -29.8110   20.2220 C   0  0  0  0  0  2  0  0  0  0  0  0
  -24.6300  -31.0930   22.1420 N   0  0  0  0  0  0  0  0  0  0  0  0
  -23.4830  -32.1670   23.7780 O   0  0  0  0  0  0  0  0  0  0  0  0
  -22.7170  -29.4680   22.5610 C   0  0  0  0  0  0  0  0  0  0  0  0
  -21.3930  -29.2810   22.4300 N   0  0  0  0  0  0  0  0  0  0  0  0
  -23.3980  -28.8470   23.3800 O   0  0  0  0  0  0  0  0  0  0  0  0
  -20.9020  -29.8340   21.7410 H   0  0  0  0  0  0  0  0  0  0  0  0
  -18.0170  -28.0990   22.9440 C   0  0  0  0  0  0  0  0  0  0  0  0
  -20.5770  -28.3420   23.2010 C   0  0  0  0  0  3  0  0  0  0  0  0
  -20.6690  -26.9160   22.6130 C   0  0  0  0  0  2  0  0  0  0  0  0
  -19.5590  -26.6060   21.6050 C   0  0  0  0  0  2  0  0  0  0  0  0
  -18.1820  -26.7530   22.2580 C   0  0  0  0  0  2  0  0  0  0  0  0
  -19.1410  -28.8520   23.3720 C   0  0  0  0  0  0  0  0  0  0  0  0
  -18.9330  -30.1130   23.9720 C   0  0  0  0  0  3  0  0  0  0  0  0
  -17.6310  -30.6210   24.1490 C   0  0  0  0  0  3  0  0  0  0  0  0
  -16.5220  -29.8640   23.7370 C   0  0  0  0  0  3  0  0  0  0  0  0
  -16.7150  -28.6050   23.1410 C   0  0  0  0  0  3  0  0  0  0  0  0
  -25.8480  -32.5330   23.8630 C   0  0  0  0  0  3  0  0  0  0  0  0
  -25.5390  -33.9360   24.1740 N   0  0  0  0  0  0  0  0  0  0  0  0
  -25.8830  -34.9790   23.4070 C   0  0  0  0  0  0  0  0  0  0  0  0
  -26.5640  -34.8620   22.3840 O   0  0  0  0  0  0  0  0  0  0  0  0
  -24.9370  -34.1000   24.9670 H   0  0  0  0  0  0  0  0  0  0  0  0
  -24.1770  -36.7810   22.9960 C   0  0  0  0  0  1  0  0  0  0  0  0
  -25.3940  -36.3730   23.8440 C   0  0  0  0  0  3  0  0  0  0  0  0
  -27.5060  -37.2530   24.7320 C   0  0  0  0  0  1  0  0  0  0  0  0
  -26.4360  -37.4190   23.7520 N   0  0  0  0  0  0  0  0  0  0  0  0
  -26.0310  -38.3430   23.8770 H   0  0  0  0  0  0  0  0  0  0  0  0
  -26.3560  -31.7770   25.1510 C   0  0  1  0  0  0  0  0  0  0  0  0
  -25.2550  -31.5470   26.2120 C   0  0  0  0  0  1  0  0  0  0  0  0
  -26.9440  -30.3960   24.7760 C   0  0  0  0  0  1  0  0  0  0  0  0
  -27.4990  -32.5790   25.8150 C   0  0  0  0  0  1  0  0  0  0  0  0
  1  3  1  0
  2 54  1  0
  2  1  2  0
  3  4  1  0
  5  7  1  0
  5  1  1  0
  5  8  1  0
  6  2  1  0
  8 13  1  0
  8  4  1  0
  9 10  1  0
 10 14  2  0
 11 14  1  0
 12 11  2  0
 13  9  2  0
 13 12  1  0
 14 24  1  0
 15 12  1  0
 16 24  1  0
 17 22  1  0
 18 19  1  0
 18 17  1  0
 20 19  1  0
 20 29  1  0
 20 21  1  0
 22 16  1  0
 22 21  1  0
 23 16  2  0
 24 25  1  0
 26 27  2  0
 27 46  1  0
 28 27  1  0
 28 31  1  0
 29 30  1  0
 29 26  1  0
 30 28  2  0
 31 32  1  0
 32 33  2  0
 34 37  1  0
 34 33  1  0
 35 34  2  0
 36 35  1  0
 36 31  2  0
 37 38  1  0
 38 39  1  0
 39 40  2  0
 41 40  1  0
 41 45  1  0
 42 41  2  0
 43 38  2  0
 43 42  1  0
 44 43  1  0
 46 47  1  0
 47 50  1  0
 47 49  1  0
 48 46  2  0
 51 52  1  0
 51 26  1  0
 53 51  1  0
 54 55  1  0
 56 67  2  0
 57 55  1  0
 57 62  1  0
 58 66  1  0
 58 68  1  0
 59 65  1  0
 59 61  1  0
 60 66  1  0
 61 60  1  0
 62 61  2  0
 63 57  2  0
 64 63  1  0
 64 59  2  0
 65 58  1  0
 66 56  1  0
 68 70  2  0
 69 68  1  0
 71 69  1  0
 72 81  2  0
 72 77  1  0
 73 69  1  0
 73 77  1  0
 74 73  1  0
 75 76  1  0
 75 74  1  0
 76 72  1  0
 77 78  2  0
 78 79  1  0
 80 79  2  0
 81 80  1  0
 82 56  1  0
 82 83  1  0
 82 92  1  0
 83 86  1  0
 84 88  1  0
 84 83  1  0
 85 84  2  0
 88 87  1  0
 90 88  1  0
 90 91  1  0
 90 89  1  0
 92 95  1  1
 92 93  1  0
 94 92  1  0
M  ISO  4  16 100  24 100  54 101  55 101
M  END
>  <TORSDO>  (94) 
F 18

>  <SCORE>  (94) 
-15.076

>  <name>  (94) 
93

>  <ligand_id>  (94) 
93

>  <original_smiles>  (94) 
[H]c1c([H])c([H])c2c(c1[H])C([H])([H])C([H])([H])C([H])([H])C2([H])N([H])C(=O)C1([H])N(C(=O)C([H])(N([H])C(=O)C([H])(N([H])C([H])([H])[H])C([H])([H])[H])C(C([H])([H])[H])(C([H])([H])[H])C([H])([H])[H])C([H])([H])c2c([H])c(OC([H])([H])C(=C3C([H])([H])C([H])([H])N(c4c([H])c([H])c(N([H])C(=O)N5C([H])([H])C([H])([H])C([H])([H])C([H])(n6nc(-c7c([H])c([H])c(Oc8c([H])c([H])c(F)c([H])c8F)c([H])c7[H])c(C(=O)N([H])[H])c6N([H])[H])C5([H])[H])c([H])c4C([H])([H])[H])C3([H])C([H])([H])[H])C([H])([H])[H])c([H])c([H])c2C1([H])[H]

>  <smiles>  (94) 
[H]c1c([H])c([H])c2c(c1[H])C([H])([H])C([H])([H])C([H])([H])C2([H])N([H])C(=O)C1([H])N(C(=O)C([H])(N([H])C(=O)C([H])(N([H])C([H])([H])[H])C([H])([H])[H])C(C([H])([H])[H])(C([H])([H])[H])C([H])([H])[H])C([H])([H])c2c([H])c(OC([H])([H])C(=C3C([H])([H])C([H])([H])N(c4c([H])c([H])c(N([H])C(=O)N5C([H])([H])C([H])([H])C([H])([H])C([H])(n6nc(-c7c([H])c([H])c(Oc8c([H])c([H])c(F)c([H])c8F)c([H])c7[H])c(C(=O)N([H])[H])c6N([H])[H])C5([H])[H])c([H])c4C([H])([H])[H])C3([H])C([H])([H])[H])C([H])([H])[H])c([H])c([H])c2C1([H])[H]

$$$$
94:0:0
     RDKit          3D

 98107  0  0  1  0  0  0  0  0999 V2000
  -28.1510  -21.8490   22.0730 C   0  0  0  0  0  2  0  0  0  0  0  0
  -28.5910  -20.3950   21.8660 C   0  0  0  0  0  2  0  0  0  0  0  0
  -30.5410  -21.6710   21.6590 C   0  0  0  0  0  2  0  0  0  0  0  0
  -29.4360  -22.7150   21.9410 C   0  0  2  0  0  0  0  0  0  0  0  0
  -29.8190  -20.5400   21.1150 N   0  0  0  0  0  0  0  0  0  0  0  0
  -31.5970  -18.8240   18.3160 C   0  0  0  0  0  3  0  0  0  0  0  0
  -31.3820  -17.4850   18.6550 C   0  0  0  0  0  3  0  0  0  0  0  0
  -30.2070  -18.1690   20.6660 C   0  0  0  0  0  3  0  0  0  0  0  0
  -31.0900  -19.8540   19.1230 C   0  0  0  0  0  0  0  0  0  0  0  0
  -30.3920  -19.5340   20.3190 C   0  0  0  0  0  0  0  0  0  0  0  0
  -30.6850  -17.1270   19.8390 C   0  0  0  0  0  0  0  0  0  0  0  0
  -31.2500  -21.2680   18.5870 C   0  0  0  0  0  1  0  0  0  0  0  0
  -30.9900  -14.6630   19.7070 C   0  0  0  0  0  0  0  0  0  0  0  0
  -30.5660  -12.4530   18.7450 C   0  0  0  0  0  2  0  0  0  0  0  0
  -29.5450  -12.5770   17.6010 C   0  0  0  0  0  2  0  0  0  0  0  0
  -28.1150  -12.4420   18.1530 C   0  0  0  0  0  2  0  0  0  0  0  0
  -27.8510  -13.3630   19.3750 C   0  0  0  0  0  3  0  0  0  0  0  0
  -28.9950  -13.2670   20.4120 C   0  0  0  0  0  2  0  0  0  0  0  0
  -30.2700  -13.5140   19.7180 N   0  0  0  0  0  0  0  0  0  0  0  0
  -32.1010  -14.7260   19.1810 O   0  0  0  0  0  0  0  0  0  0  0  0
  -30.3850  -15.7640   20.1850 N   0  0  0  0  0  0  0  0  0  0  0  0
  -29.5440  -15.5970   20.7170 H   0  0  0  0  0  0  0  0  0  0  0  0
  -25.5460  -13.9680   20.3400 C   0  0  0  0  0  0  0  0  0  0  0  0
  -24.5020  -13.1930   20.7790 C   0  0  0  0  0  0  0  0  0  0  0  0
  -24.9340  -11.8390   20.6450 C   0  0  0  0  0  0  0  0  0  0  0  0
  -26.5480  -13.0840   19.9740 N   0  0  0  0  0  0  0  0  0  0  0  0
  -26.1870  -11.7960   20.2110 N   0  0  0  0  0  0  0  0  0  0  0  0
  -24.2050  -10.5780   20.8450 C   0  0  0  0  0  0  0  0  0  0  0  0
  -24.6300   -9.6240   21.7950 C   0  0  0  0  0  3  0  0  0  0  0  0
  -23.9040   -8.4290   21.9850 C   0  0  0  0  0  3  0  0  0  0  0  0
  -22.7360   -8.1810   21.2270 C   0  0  0  0  0  0  0  0  0  0  0  0
  -22.3290   -9.1230   20.2650 C   0  0  0  0  0  3  0  0  0  0  0  0
  -23.0560  -10.3110   20.0740 C   0  0  0  0  0  3  0  0  0  0  0  0
  -21.9840   -7.0360   21.3230 O   0  0  0  0  0  0  0  0  0  0  0  0
  -21.8180   -6.3800   22.5170 C   0  0  0  0  0  0  0  0  0  0  0  0
  -21.2460   -7.0140   23.6410 C   0  0  0  0  0  3  0  0  0  0  0  0
  -21.0310   -6.2850   24.8270 C   0  0  0  0  0  3  0  0  0  0  0  0
  -21.3810   -4.9220   24.8890 C   0  0  0  0  0  0  0  0  0  0  0  0
  -21.9460   -4.2870   23.7700 C   0  0  0  0  0  3  0  0  0  0  0  0
  -22.1620   -5.0150   22.5860 C   0  0  0  0  0  0  0  0  0  0  0  0
  -22.6870   -4.3950   21.5020 F   0  0  0  0  0  0  0  0  0  0  0  0
  -21.1680   -4.2200   26.0270 F   0  0  0  0  0  0  0  0  0  0  0  0
  -23.1490  -13.6800   21.2080 C   0  0  0  0  0  0  0  0  0  0  0  0
  -22.5010  -12.9580   22.1180 N   0  0  0  0  0  0  0  0  0  0  0  0
  -22.6770  -14.7290   20.7760 O   0  0  0  0  0  0  0  0  0  0  0  0
  -22.8990  -12.1090   22.4910 H   0  0  0  0  0  0  0  0  0  0  0  0
  -21.5980  -13.2620   22.4520 H   0  0  0  0  0  0  0  0  0  0  0  0
  -25.7200  -15.3380   20.2090 N   0  0  0  0  0  0  0  0  0  0  0  0
  -24.9830  -16.0050   20.4120 H   0  0  0  0  0  0  0  0  0  0  0  0
  -26.5410  -15.7680   19.8020 H   0  0  0  0  0  0  0  0  0  0  0  0
  -29.7590  -23.3350   23.1680 O   0  0  0  0  0  0  0  0  0  0  0  0
  -29.0830  -23.9780   23.3510 H   0  0  0  0  0  0  0  0  0  0  0  0
  -29.3650  -23.7400   20.7700 C   0  0  0  0  0  2  0  0  0  0  0  0
  -27.2730  -25.0690   21.5590 C   0  0  0  0  0  1  0  0  0  0  0  0
  -29.5630  -26.0890   21.7510 C   0  0  0  0  0  1  0  0  0  0  0  0
  -28.6770  -25.1350   20.9110 C   0  0  1  0  0  0  0  0  0  0  0  0
  -28.5800  -25.6570   19.4420 C   0  0  0  0  0  2  0  0  0  0  0  0
  -28.4700  -27.0710   19.3250 O   0  0  0  0  0  0  0  0  0  0  0  0
  -24.6190  -31.6950   23.0160 C   0  0  0  0  0  0  0  0  0  0  0  0
  -27.2390  -27.6680   19.4380 C   0  0  0  0  0  0  0  0  0  0  0  0
  -23.3680  -30.3850   21.3300 C   0  0  0  0  0  3  0  0  0  0  0  0
  -24.7860  -29.0330   19.7080 C   0  0  0  0  0  0  0  0  0  0  0  0
  -25.8560  -30.8830   21.0170 C   0  0  0  0  0  2  0  0  0  0  0  0
  -25.9520  -29.5710   20.2660 C   0  0  0  0  0  0  0  0  0  0  0  0
  -27.1790  -28.8970   20.1250 C   0  0  0  0  0  3  0  0  0  0  0  0
  -26.0570  -27.1310   18.8780 C   0  0  0  0  0  3  0  0  0  0  0  0
  -24.8310  -27.8090   19.0140 C   0  0  0  0  0  3  0  0  0  0  0  0
  -23.5160  -29.8300   19.8890 C   0  0  0  0  0  2  0  0  0  0  0  0
  -24.6340  -30.9980   21.8460 N   0  0  0  0  0  0  0  0  0  0  0  0
  -23.5620  -31.8730   23.6380 O   0  0  0  0  0  0  0  0  0  0  0  0
  -22.8150  -29.2610   22.2370 C   0  0  0  0  0  0  0  0  0  0  0  0
  -21.5000  -29.0150   22.1430 N   0  0  0  0  0  0  0  0  0  0  0  0
  -23.5620  -28.6190   22.9800 O   0  0  0  0  0  0  0  0  0  0  0  0
  -20.9540  -29.5990   21.5240 H   0  0  0  0  0  0  0  0  0  0  0  0
  -18.2140  -27.5910   22.6410 C   0  0  0  0  0  0  0  0  0  0  0  0
  -20.7590  -27.9810   22.8680 C   0  0  0  0  0  3  0  0  0  0  0  0
  -20.9290  -26.5990   22.1950 C   0  0  0  0  0  2  0  0  0  0  0  0
  -19.8190  -26.2790   21.1890 C   0  0  0  0  0  2  0  0  0  0  0  0
  -18.4480  -26.3000   21.8750 C   0  0  0  0  0  2  0  0  0  0  0  0
  -19.2990  -28.3880   23.0940 C   0  0  0  0  0  0  0  0  0  0  0  0
  -19.0260  -29.5950   23.7710 C   0  0  0  0  0  3  0  0  0  0  0  0
  -17.7010  -30.0070   24.0010 C   0  0  0  0  0  3  0  0  0  0  0  0
  -16.6300  -29.2070   23.5660 C   0  0  0  0  0  3  0  0  0  0  0  0
  -16.8890  -28.0010   22.8920 C   0  0  0  0  0  3  0  0  0  0  0  0
  -25.9150  -32.3240   23.6180 C   0  0  0  0  0  3  0  0  0  0  0  0
  -25.5910  -33.6930   24.0390 N   0  0  0  0  0  0  0  0  0  0  0  0
  -25.8790  -34.7930   23.3300 C   0  0  0  0  0  0  0  0  0  0  0  0
  -26.5170  -34.7600   22.2750 O   0  0  0  0  0  0  0  0  0  0  0  0
  -25.0290  -33.7920   24.8710 H   0  0  0  0  0  0  0  0  0  0  0  0
  -24.1020  -36.5570   23.1200 C   0  0  0  0  0  1  0  0  0  0  0  0
  -25.3750  -36.1430   23.8760 C   0  0  0  0  0  3  0  0  0  0  0  0
  -27.5130  -37.0260   24.6970 C   0  0  0  0  0  1  0  0  0  0  0  0
  -26.3820  -37.2240   23.7930 N   0  0  0  0  0  0  0  0  0  0  0  0
  -25.9630  -38.1260   24.0050 H   0  0  0  0  0  0  0  0  0  0  0  0
  -26.5070  -31.4960   24.8240 C   0  0  1  0  0  0  0  0  0  0  0  0
  -25.4700  -31.1690   25.9240 C   0  0  0  0  0  1  0  0  0  0  0  0
  -27.1010  -30.1590   24.3220 C   0  0  0  0  0  1  0  0  0  0  0  0
  -27.6700  -32.2780   25.4810 C   0  0  0  0  0  1  0  0  0  0  0  0
  2  1  1  0
  3  4  1  0
  4 53  1  6
  4  1  1  0
  4 51  1  0
  5  3  1  0
  5  2  1  0
  6  7  2  0
  6  9  1  0
  7 11  1  0
  9 10  2  0
 10  8  1  0
 10  5  1  0
 11 21  1  0
 11  8  2  0
 12  9  1  0
 13 19  1  0
 13 21  1  0
 14 19  1  0
 15 16  1  0
 15 14  1  0
 17 16  1  0
 17 26  1  0
 17 18  1  0
 19 18  1  0
 20 13  2  0
 21 22  1  0
 23 24  2  0
 24 43  1  0
 25 24  1  0
 25 28  1  0
 26 27  1  0
 26 23  1  0
 27 25  2  0
 28 29  1  0
 29 30  2  0
 31 34  1  0
 31 30  1  0
 32 31  2  0
 33 32  1  0
 33 28  2  0
 34 35  1  0
 35 40  2  0
 35 36  1  0
 36 37  2  0
 37 38  1  0
 38 42  1  0
 39 38  2  0
 40 39  1  0
 41 40  1  0
 43 44  1  0
 44 47  1  0
 44 46  1  0
 45 43  2  0
 48 23  1  0
 48 49  1  0
 50 48  1  0
 51 52  1  0
 53 56  1  0
 56 54  1  1
 56 55  1  0
 57 56  1  0
 58 60  1  0
 58 57  1  0
 59 70  2  0
 60 65  1  0
 61 69  1  0
 61 71  1  0
 62 68  1  0
 62 64  1  0
 63 69  1  0
 64 63  1  0
 65 64  2  0
 66 67  1  0
 66 60  2  0
 67 62  2  0
 68 61  1  0
 69 59  1  0
 71 73  2  0
 72 71  1  0
 74 72  1  0
 75 84  2  0
 75 80  1  0
 76 72  1  0
 76 80  1  0
 77 76  1  0
 78 79  1  0
 78 77  1  0
 79 75  1  0
 80 81  2  0
 81 82  1  0
 83 82  2  0
 84 83  1  0
 85 59  1  0
 85 86  1  0
 85 95  1  0
 86 89  1  0
 87 91  1  0
 87 86  1  0
 88 87  2  0
 91 90  1  0
 93 91  1  0
 93 94  1  0
 93 92  1  0
 95 98  1  1
 95 96  1  0
 97 95  1  0
M  ISO  4  13 100  21 100  57 101  58 101
M  END
>  <TORSDO>  (95) 
F 21

>  <SCORE>  (95) 
-11.881

>  <name>  (95) 
94

>  <ligand_id>  (95) 
94

>  <original_smiles>  (95) 
[H]OC1(C([H])([H])C(C([H])([H])[H])(C([H])([H])[H])C([H])([H])Oc2c([H])c([H])c3c(c2[H])C([H])([H])N(C(=O)C([H])(N([H])C(=O)C([H])(N([H])C([H])([H])[H])C([H])([H])[H])C(C([H])([H])[H])(C([H])([H])[H])C([H])([H])[H])C([H])(C(=O)N([H])C2([H])c4c([H])c([H])c([H])c([H])c4C([H])([H])C([H])([H])C2([H])[H])C3([H])[H])C([H])([H])N(c2c([H])c(N([H])C(=O)N3C([H])([H])C([H])([H])C([H])([H])C([H])(n4nc(-c5c([H])c([H])c(Oc6c([H])c([H])c(F)c([H])c6F)c([H])c5[H])c(C(=O)N([H])[H])c4N([H])[H])C3([H])[H])c([H])c([H])c2C([H])([H])[H])C([H])([H])C1([H])[H]

>  <smiles>  (95) 
[H]OC1(C([H])([H])C(C([H])([H])[H])(C([H])([H])[H])C([H])([H])Oc2c([H])c([H])c3c(c2[H])C([H])([H])N(C(=O)C([H])(N([H])C(=O)C([H])(N([H])C([H])([H])[H])C([H])([H])[H])C(C([H])([H])[H])(C([H])([H])[H])C([H])([H])[H])C([H])(C(=O)N([H])C2([H])c4c([H])c([H])c([H])c([H])c4C([H])([H])C([H])([H])C2([H])[H])C3([H])[H])C([H])([H])N(c2c([H])c(N([H])C(=O)N3C([H])([H])C([H])([H])C([H])([H])C([H])(n4nc(-c5c([H])c([H])c(Oc6c([H])c([H])c(F)c([H])c6F)c([H])c5[H])c(C(=O)N([H])[H])c4N([H])[H])C3([H])[H])c([H])c([H])c2C([H])([H])[H])C([H])([H])C1([H])[H]

$$$$
95:0:0
     RDKit          3D

 92101  0  0  1  0  0  0  0  0999 V2000
  -29.3460  -22.5150   19.9790 C   0  0  0  0  0  0  0  0  0  0  0  0
  -29.0190  -21.3530   20.6520 N   0  0  0  0  0  0  0  0  0  0  0  0
  -30.0300  -22.4690   18.9500 O   0  0  0  0  0  0  0  0  0  0  0  0
  -28.4780  -21.5120   21.4970 H   0  0  0  0  0  0  0  0  0  0  0  0
  -30.6510  -14.6960   20.0170 C   0  0  0  0  0  0  0  0  0  0  0  0
  -30.3260  -12.4630   18.9510 C   0  0  0  0  0  2  0  0  0  0  0  0
  -29.3230  -12.6050   17.7880 C   0  0  0  0  0  2  0  0  0  0  0  0
  -27.8800  -12.4470   18.3130 C   0  0  0  0  0  2  0  0  0  0  0  0
  -27.5930  -13.2990   19.5800 C   0  0  0  0  0  3  0  0  0  0  0  0
  -28.7220  -13.1450   20.6220 C   0  0  0  0  0  2  0  0  0  0  0  0
  -29.9830  -13.4950   19.9540 N   0  0  0  0  0  0  0  0  0  0  0  0
  -31.7720  -14.8040   19.5110 O   0  0  0  0  0  0  0  0  0  0  0  0
  -28.8010  -17.7390   19.1960 C   0  0  0  0  0  3  0  0  0  0  0  0
  -28.6900  -19.1750   19.3570 C   0  0  0  0  0  3  0  0  0  0  0  0
  -30.1800  -19.2190   21.3300 C   0  0  0  0  0  3  0  0  0  0  0  0
  -30.2900  -17.8170   21.1440 C   0  0  0  0  0  0  0  0  0  0  0  0
  -29.6350  -17.0640   20.1170 C   0  0  0  0  0  0  0  0  0  0  0  0
  -29.3480  -19.9370   20.3950 C   0  0  0  0  0  0  0  0  0  0  0  0
  -30.8240  -16.5280   21.7430 C   0  0  0  0  0  2  0  0  0  0  0  0
  -30.0700  -15.7740   20.6550 N   0  0  0  0  0  0  0  0  0  0  0  0
  -25.2470  -13.8740   20.4570 C   0  0  0  0  0  0  0  0  0  0  0  0
  -24.2040  -13.0870   20.8720 C   0  0  0  0  0  0  0  0  0  0  0  0
  -24.6620  -11.7380   20.7800 C   0  0  0  0  0  0  0  0  0  0  0  0
  -26.2760  -13.0020   20.1420 N   0  0  0  0  0  0  0  0  0  0  0  0
  -25.9320  -11.7110   20.3940 N   0  0  0  0  0  0  0  0  0  0  0  0
  -23.9460  -10.4730   20.9870 C   0  0  0  0  0  0  0  0  0  0  0  0
  -24.4000   -9.5090   21.9120 C   0  0  0  0  0  3  0  0  0  0  0  0
  -23.6840   -8.3080   22.1070 C   0  0  0  0  0  3  0  0  0  0  0  0
  -22.4990   -8.0610   21.3740 C   0  0  0  0  0  0  0  0  0  0  0  0
  -22.0600   -9.0160   20.4420 C   0  0  0  0  0  3  0  0  0  0  0  0
  -22.7770  -10.2080   20.2460 C   0  0  0  0  0  3  0  0  0  0  0  0
  -21.7560   -6.9080   21.4760 O   0  0  0  0  0  0  0  0  0  0  0  0
  -21.6960   -6.1930   22.6460 C   0  0  0  0  0  0  0  0  0  0  0  0
  -21.1950   -6.7570   23.8400 C   0  0  0  0  0  3  0  0  0  0  0  0
  -21.0870   -5.9660   25.0000 C   0  0  0  0  0  3  0  0  0  0  0  0
  -21.4670   -4.6120   24.9670 C   0  0  0  0  0  0  0  0  0  0  0  0
  -21.9570   -4.0460   23.7760 C   0  0  0  0  0  3  0  0  0  0  0  0
  -22.0690   -4.8350   22.6180 C   0  0  0  0  0  0  0  0  0  0  0  0
  -22.5230   -4.2800   21.4680 F   0  0  0  0  0  0  0  0  0  0  0  0
  -21.3540   -3.8470   26.0780 F   0  0  0  0  0  0  0  0  0  0  0  0
  -22.8300  -13.5620   21.2410 C   0  0  0  0  0  0  0  0  0  0  0  0
  -22.1510  -12.8450   22.1320 N   0  0  0  0  0  0  0  0  0  0  0  0
  -22.3670  -14.6040   20.7820 O   0  0  0  0  0  0  0  0  0  0  0  0
  -22.5280  -11.9950   22.5220 H   0  0  0  0  0  0  0  0  0  0  0  0
  -21.2370  -13.1590   22.4240 H   0  0  0  0  0  0  0  0  0  0  0  0
  -25.3870  -15.2470   20.2900 N   0  0  0  0  0  0  0  0  0  0  0  0
  -24.6120  -15.8830   20.4520 H   0  0  0  0  0  0  0  0  0  0  0  0
  -26.2000  -15.7130   19.9000 H   0  0  0  0  0  0  0  0  0  0  0  0
  -28.9240  -23.9420   20.5820 C   0  0  0  0  0  2  0  0  0  0  0  0
  -29.7270  -25.5790   18.6830 C   0  0  0  0  0  1  0  0  0  0  0  0
  -28.5930  -25.2290   19.6650 C   0  0  0  0  0  3  0  0  0  0  0  0
  -28.3920  -26.5310   20.3600 O   0  0  0  0  0  0  0  0  0  0  0  0
  -24.5830  -31.9070   23.2320 C   0  0  0  0  0  0  0  0  0  0  0  0
  -27.2480  -27.3420   20.2330 C   0  0  0  0  0  0  0  0  0  0  0  0
  -23.4050  -30.5180   21.5670 C   0  0  0  0  0  3  0  0  0  0  0  0
  -24.8750  -28.9580   20.1690 C   0  0  0  0  0  0  0  0  0  0  0  0
  -25.9430  -30.8310   21.4210 C   0  0  0  0  0  2  0  0  0  0  0  0
  -26.0310  -29.4470   20.7890 C   0  0  0  0  0  0  0  0  0  0  0  0
  -27.2110  -28.6470   20.8210 C   0  0  0  0  0  3  0  0  0  0  0  0
  -26.0680  -26.9130   19.5800 C   0  0  0  0  0  3  0  0  0  0  0  0
  -24.8970  -27.6970   19.5590 C   0  0  0  0  0  3  0  0  0  0  0  0
  -23.6390  -29.8360   20.1910 C   0  0  0  0  0  2  0  0  0  0  0  0
  -24.6640  -31.0990   22.1330 N   0  0  0  0  0  0  0  0  0  0  0  0
  -23.4920  -32.1880   23.7480 O   0  0  0  0  0  0  0  0  0  0  0  0
  -22.7180  -29.5060   22.5160 C   0  0  0  0  0  0  0  0  0  0  0  0
  -21.3900  -29.3440   22.3710 N   0  0  0  0  0  0  0  0  0  0  0  0
  -23.3800  -28.8670   23.3370 O   0  0  0  0  0  0  0  0  0  0  0  0
  -20.9130  -29.9100   21.6820 H   0  0  0  0  0  0  0  0  0  0  0  0
  -17.9910  -28.2300   22.8780 C   0  0  0  0  0  0  0  0  0  0  0  0
  -20.5570  -28.4140   23.1320 C   0  0  0  0  0  3  0  0  0  0  0  0
  -20.6160  -26.9930   22.5240 C   0  0  0  0  0  2  0  0  0  0  0  0
  -19.4970  -26.7250   21.5110 C   0  0  0  0  0  2  0  0  0  0  0  0
  -18.1250  -26.8940   22.1690 C   0  0  0  0  0  2  0  0  0  0  0  0
  -19.1330  -28.9510   23.3190 C   0  0  0  0  0  0  0  0  0  0  0  0
  -18.9520  -30.2060   23.9400 C   0  0  0  0  0  3  0  0  0  0  0  0
  -17.6630  -30.7400   24.1250 C   0  0  0  0  0  3  0  0  0  0  0  0
  -16.5360  -30.0150   23.7010 C   0  0  0  0  0  3  0  0  0  0  0  0
  -16.7010  -28.7620   23.0850 C   0  0  0  0  0  3  0  0  0  0  0  0
  -25.8560  -32.5370   23.8760 C   0  0  0  0  0  3  0  0  0  0  0  0
  -25.5490  -33.9400   24.1900 N   0  0  0  0  0  0  0  0  0  0  0  0
  -25.8970  -34.9870   23.4300 C   0  0  0  0  0  0  0  0  0  0  0  0
  -26.5770  -34.8700   22.4080 O   0  0  0  0  0  0  0  0  0  0  0  0
  -24.9400  -34.0990   24.9800 H   0  0  0  0  0  0  0  0  0  0  0  0
  -24.1920  -36.7910   23.0190 C   0  0  0  0  0  1  0  0  0  0  0  0
  -25.4070  -36.3810   23.8650 C   0  0  0  0  0  3  0  0  0  0  0  0
  -27.5220  -37.2620   24.7490 C   0  0  0  0  0  1  0  0  0  0  0  0
  -26.4500  -37.4240   23.7730 N   0  0  0  0  0  0  0  0  0  0  0  0
  -26.0460  -38.3500   23.8920 H   0  0  0  0  0  0  0  0  0  0  0  0
  -26.3330  -31.7720   25.1700 C   0  0  1  0  0  0  0  0  0  0  0  0
  -25.2110  -31.5480   26.2100 C   0  0  0  0  0  1  0  0  0  0  0  0
  -26.9170  -30.3900   24.7970 C   0  0  0  0  0  1  0  0  0  0  0  0
  -27.4680  -32.5620   25.8630 C   0  0  0  0  0  1  0  0  0  0  0  0
  1 49  1  0
  1  2  1  0
  2  4  1  0
  3  1  2  0
  5 20  1  0
  6 11  1  0
  7  8  1  0
  7  6  1  0
  9  8  1  0
  9 24  1  0
  9 10  1  0
 11  5  1  0
 11 10  1  0
 12  5  2  0
 13 14  2  0
 13 17  1  0
 14 18  1  0
 16 15  1  0
 16 19  1  0
 17 20  1  0
 17 16  2  0
 18  2  1  0
 18 15  2  0
 20 19  1  0
 21 22  2  0
 22 41  1  0
 23 22  1  0
 23 26  1  0
 24 25  1  0
 24 21  1  0
 25 23  2  0
 26 27  1  0
 27 28  2  0
 29 32  1  0
 29 28  1  0
 30 29  2  0
 31 30  1  0
 31 26  2  0
 32 33  1  0
 33 34  1  0
 34 35  2  0
 36 35  1  0
 36 40  1  0
 37 36  2  0
 38 33  2  0
 38 37  1  0
 39 38  1  0
 41 42  1  0
 42 45  1  0
 42 44  1  0
 43 41  2  0
 46 47  1  0
 46 21  1  0
 48 46  1  0
 51 50  1  0
 51 52  1  0
 51 49  1  0
 53 64  2  0
 54 52  1  0
 54 59  1  0
 55 63  1  0
 55 65  1  0
 56 62  1  0
 56 58  1  0
 57 63  1  0
 58 59  2  0
 58 57  1  0
 60 54  2  0
 61 60  1  0
 61 56  2  0
 62 55  1  0
 63 53  1  0
 65 67  2  0
 66 65  1  0
 68 66  1  0
 69 78  2  0
 69 74  1  0
 70 66  1  0
 70 74  1  0
 71 70  1  0
 72 73  1  0
 72 71  1  0
 73 69  1  0
 74 75  2  0
 75 76  1  0
 77 76  2  0
 78 77  1  0
 79 53  1  0
 79 80  1  0
 79 89  1  0
 80 83  1  0
 81 85  1  0
 81 80  1  0
 82 81  2  0
 85 84  1  0
 87 85  1  0
 87 88  1  0
 87 86  1  0
 89 92  1  1
 89 90  1  0
 91 89  1  0
M  ISO  4   5 100  20 100  51 101  52 101
M  END
>  <TORSDO>  (96) 
F 18

>  <SCORE>  (96) 
-14.827

>  <name>  (96) 
95

>  <ligand_id>  (96) 
95

>  <original_smiles>  (96) 
[H]c1c([H])c([H])c2c(c1[H])C([H])([H])C([H])([H])C([H])([H])C2([H])N([H])C(=O)C1([H])N(C(=O)C([H])(N([H])C(=O)C([H])(N([H])C([H])([H])[H])C([H])([H])[H])C(C([H])([H])[H])(C([H])([H])[H])C([H])([H])[H])C([H])([H])c2c([H])c(OC([H])(C([H])([H])[H])C([H])([H])C(=O)N([H])c3c([H])c([H])c4c(c3[H])C([H])([H])N4C(=O)N3C([H])([H])C([H])([H])C([H])([H])C([H])(n4nc(-c5c([H])c([H])c(Oc6c([H])c([H])c(F)c([H])c6F)c([H])c5[H])c(C(=O)N([H])[H])c4N([H])[H])C3([H])[H])c([H])c([H])c2C1([H])[H]

>  <smiles>  (96) 
[H]c1c([H])c([H])c2c(c1[H])C([H])([H])C([H])([H])C([H])([H])C2([H])N([H])C(=O)C1([H])N(C(=O)C([H])(N([H])C(=O)C([H])(N([H])C([H])([H])[H])C([H])([H])[H])C(C([H])([H])[H])(C([H])([H])[H])C([H])([H])[H])C([H])([H])c2c([H])c(OC([H])(C([H])([H])[H])C([H])([H])C(=O)N([H])c3c([H])c([H])c4c(c3[H])C([H])([H])N4C(=O)N3C([H])([H])C([H])([H])C([H])([H])C([H])(n4nc(-c5c([H])c([H])c(Oc6c([H])c([H])c(F)c([H])c6F)c([H])c5[H])c(C(=O)N([H])[H])c4N([H])[H])C3([H])[H])c([H])c([H])c2C1([H])[H]

$$$$
96:0:0
     RDKit          3D

 95104  0  0  1  0  0  0  0  0999 V2000
  -27.8280  -20.2000   20.7830 C   0  0  0  0  0  2  0  0  0  0  0  0
  -27.7470  -21.7580   20.7130 C   0  0  0  0  0  2  0  0  0  0  0  0
  -29.1890  -21.0700   18.9860 C   0  0  0  0  0  2  0  0  0  0  0  0
  -28.8770  -19.6800   19.7670 C   0  0  0  0  0  3  0  0  0  0  0  0
  -28.0950  -22.2150   19.2780 C   0  0  1  0  0  0  0  0  0  0  0  0
  -26.8900  -21.9770   18.3430 C   0  0  0  0  0  1  0  0  0  0  0  0
  -31.6570  -17.1380   21.2310 C   0  0  0  0  0  3  0  0  0  0  0  0
  -32.3820  -18.0780   21.9720 C   0  0  0  0  0  3  0  0  0  0  0  0
  -30.8190  -19.7730   21.2810 C   0  0  0  0  0  3  0  0  0  0  0  0
  -30.0710  -18.8820   20.4640 C   0  0  0  0  0  0  0  0  0  0  0  0
  -30.4990  -17.4490   20.4560 C   0  0  0  0  0  0  0  0  0  0  0  0
  -31.9540  -19.4010   22.0080 C   0  0  0  0  0  0  0  0  0  0  0  0
  -32.8060  -20.5680   22.9510 Cl  0  0  0  0  0  0  0  0  0  0  0  0
  -30.5550  -15.0190   19.5640 C   0  0  0  0  0  0  0  0  0  0  0  0
  -30.2770  -12.6880   18.6780 C   0  0  0  0  0  2  0  0  0  0  0  0
  -29.2270  -12.6360   17.5490 C   0  0  0  0  0  2  0  0  0  0  0  0
  -27.8190  -12.4380   18.1370 C   0  0  0  0  0  2  0  0  0  0  0  0
  -27.5280  -13.3970   19.3240 C   0  0  0  0  0  3  0  0  0  0  0  0
  -28.6930  -13.4480   20.3350 C   0  0  0  0  0  2  0  0  0  0  0  0
  -29.9010  -13.8040   19.5820 N   0  0  0  0  0  0  0  0  0  0  0  0
  -31.6950  -15.0650   19.0930 O   0  0  0  0  0  0  0  0  0  0  0  0
  -29.8950  -16.2170   19.8710 N   0  0  0  0  0  0  0  0  0  0  0  0
  -28.8890  -16.1600   19.9180 H   0  0  0  0  0  0  0  0  0  0  0  0
  -25.2630  -13.9670   20.3780 C   0  0  0  0  0  0  0  0  0  0  0  0
  -24.2360  -13.1840   20.8310 C   0  0  0  0  0  0  0  0  0  0  0  0
  -24.6690  -11.8320   20.6690 C   0  0  0  0  0  0  0  0  0  0  0  0
  -26.2530  -13.0910   19.9650 N   0  0  0  0  0  0  0  0  0  0  0  0
  -25.9120  -11.7980   20.2030 N   0  0  0  0  0  0  0  0  0  0  0  0
  -23.9470  -10.5690   20.8740 C   0  0  0  0  0  0  0  0  0  0  0  0
  -24.4040   -9.5970   21.7920 C   0  0  0  0  0  3  0  0  0  0  0  0
  -23.6810   -8.4000   21.9870 C   0  0  0  0  0  3  0  0  0  0  0  0
  -22.4860   -8.1660   21.2650 C   0  0  0  0  0  0  0  0  0  0  0  0
  -22.0480   -9.1270   20.3360 C   0  0  0  0  0  3  0  0  0  0  0  0
  -22.7730  -10.3150   20.1390 C   0  0  0  0  0  3  0  0  0  0  0  0
  -21.7320   -7.0220   21.3700 O   0  0  0  0  0  0  0  0  0  0  0  0
  -21.6360   -6.3300   22.5510 C   0  0  0  0  0  0  0  0  0  0  0  0
  -21.1280   -6.9270   23.7250 C   0  0  0  0  0  3  0  0  0  0  0  0
  -20.9820   -6.1600   24.8980 C   0  0  0  0  0  3  0  0  0  0  0  0
  -21.3320   -4.7960   24.8970 C   0  0  0  0  0  0  0  0  0  0  0  0
  -21.8330   -4.1990   23.7260 C   0  0  0  0  0  3  0  0  0  0  0  0
  -21.9810   -4.9640   22.5550 C   0  0  0  0  0  0  0  0  0  0  0  0
  -22.4440   -4.3780   21.4250 F   0  0  0  0  0  0  0  0  0  0  0  0
  -21.1850   -4.0560   26.0200 F   0  0  0  0  0  0  0  0  0  0  0  0
  -22.8910  -13.6610   21.2950 C   0  0  0  0  0  0  0  0  0  0  0  0
  -22.2690  -12.9370   22.2180 N   0  0  0  0  0  0  0  0  0  0  0  0
  -22.4050  -14.7100   20.8740 O   0  0  0  0  0  0  0  0  0  0  0  0
  -22.6770  -12.0870   22.5780 H   0  0  0  0  0  0  0  0  0  0  0  0
  -21.3710  -13.2370   22.5700 H   0  0  0  0  0  0  0  0  0  0  0  0
  -25.4280  -15.3430   20.2560 N   0  0  0  0  0  0  0  0  0  0  0  0
  -24.6900  -15.9980   20.4920 H   0  0  0  0  0  0  0  0  0  0  0  0
  -26.2300  -15.7900   19.8310 H   0  0  0  0  0  0  0  0  0  0  0  0
  -28.5060  -23.7910   19.1990 C   0  0  0  0  0  0  0  0  0  0  0  0
  -29.6970  -24.1040   19.2810 O   0  0  0  0  0  0  0  0  0  0  0  0
  -27.4010  -24.9550   19.0290 C   0  0  0  0  0  2  0  0  0  0  0  0
  -27.7600  -26.4270   19.1340 O   0  0  0  0  0  0  0  0  0  0  0  0
  -24.4610  -31.6420   23.0290 C   0  0  0  0  0  0  0  0  0  0  0  0
  -26.6880  -27.3520   19.2750 C   0  0  0  0  0  0  0  0  0  0  0  0
  -23.0810  -30.3940   21.4120 C   0  0  0  0  0  3  0  0  0  0  0  0
  -24.3560  -29.0000   19.6850 C   0  0  0  0  0  0  0  0  0  0  0  0
  -25.5910  -30.7320   20.9770 C   0  0  0  0  0  2  0  0  0  0  0  0
  -25.5930  -29.4180   20.1930 C   0  0  0  0  0  0  0  0  0  0  0  0
  -26.7600  -28.6080   19.9780 C   0  0  0  0  0  3  0  0  0  0  0  0
  -25.4200  -27.0230   18.7380 C   0  0  0  0  0  3  0  0  0  0  0  0
  -24.2760  -27.8130   18.9470 C   0  0  0  0  0  3  0  0  0  0  0  0
  -23.1380  -29.8610   19.9570 C   0  0  0  0  0  2  0  0  0  0  0  0
  -24.4040  -30.9350   21.8600 N   0  0  0  0  0  0  0  0  0  0  0  0
  -23.4440  -31.8580   23.7040 O   0  0  0  0  0  0  0  0  0  0  0  0
  -22.5270  -29.2830   22.3400 C   0  0  0  0  0  0  0  0  0  0  0  0
  -21.2120  -29.0200   22.2560 N   0  0  0  0  0  0  0  0  0  0  0  0
  -23.2810  -28.6660   23.0980 O   0  0  0  0  0  0  0  0  0  0  0  0
  -20.6560  -29.5740   21.6200 H   0  0  0  0  0  0  0  0  0  0  0  0
  -17.9820  -27.4480   22.7090 C   0  0  0  0  0  0  0  0  0  0  0  0
  -20.4930  -27.9870   23.0080 C   0  0  0  0  0  3  0  0  0  0  0  0
  -20.7590  -26.5830   22.4190 C   0  0  0  0  0  2  0  0  0  0  0  0
  -19.7090  -26.1520   21.3900 C   0  0  0  0  0  2  0  0  0  0  0  0
  -18.3140  -26.1350   22.0200 C   0  0  0  0  0  2  0  0  0  0  0  0
  -19.0050  -28.3240   23.1590 C   0  0  0  0  0  0  0  0  0  0  0  0
  -18.6420  -29.5460   23.7650 C   0  0  0  0  0  3  0  0  0  0  0  0
  -17.2880  -29.8970   23.9230 C   0  0  0  0  0  3  0  0  0  0  0  0
  -16.2780  -29.0190   23.4890 C   0  0  0  0  0  3  0  0  0  0  0  0
  -16.6260  -27.7960   22.8880 C   0  0  0  0  0  3  0  0  0  0  0  0
  -25.8040  -32.2290   23.5590 C   0  0  0  0  0  3  0  0  0  0  0  0
  -26.4480  -31.3640   24.7100 C   0  0  1  0  0  0  0  0  0  0  0  0
  -25.4730  -31.0410   25.8650 C   0  0  0  0  0  1  0  0  0  0  0  0
  -26.9810  -30.0230   24.1560 C   0  0  0  0  0  1  0  0  0  0  0  0
  -27.6670  -32.1080   25.3060 C   0  0  0  0  0  1  0  0  0  0  0  0
  -25.5380  -33.5970   24.0300 N   0  0  0  0  0  0  0  0  0  0  0  0
  -25.8320  -34.7100   23.3470 C   0  0  0  0  0  0  0  0  0  0  0  0
  -26.4260  -34.6930   22.2650 O   0  0  0  0  0  0  0  0  0  0  0  0
  -25.0050  -33.6850   24.8840 H   0  0  0  0  0  0  0  0  0  0  0  0
  -24.1180  -36.5520   23.2650 C   0  0  0  0  0  1  0  0  0  0  0  0
  -25.3980  -36.0570   23.9580 C   0  0  0  0  0  3  0  0  0  0  0  0
  -27.5930  -36.8360   24.7380 C   0  0  0  0  0  1  0  0  0  0  0  0
  -26.4410  -37.1040   23.8790 N   0  0  0  0  0  0  0  0  0  0  0  0
  -26.0620  -38.0120   24.1330 H   0  0  0  0  0  0  0  0  0  0  0  0
  2  1  1  0
  3  5  1  0
  3  4  1  0
  4 10  1  0
  4  1  1  0
  5  6  1  6
  5  2  1  0
  7  8  1  0
  8 12  2  0
  9 12  1  0
 10  9  2  0
 11 10  1  0
 11  7  2  0
 12 13  1  0
 14 20  1  0
 14 22  1  0
 15 20  1  0
 16 17  1  0
 16 15  1  0
 18 17  1  0
 18 27  1  0
 18 19  1  0
 20 19  1  0
 21 14  2  0
 22 23  1  0
 22 11  1  0
 24 25  2  0
 25 44  1  0
 26 25  1  0
 26 29  1  0
 27 28  1  0
 27 24  1  0
 28 26  2  0
 29 30  1  0
 30 31  2  0
 32 35  1  0
 32 31  1  0
 33 32  2  0
 34 33  1  0
 34 29  2  0
 35 36  1  0
 36 41  2  0
 36 37  1  0
 37 38  2  0
 39 38  1  0
 39 43  1  0
 40 39  2  0
 41 40  1  0
 42 41  1  0
 44 45  1  0
 45 48  1  0
 45 47  1  0
 46 44  2  0
 49 24  1  0
 49 50  1  0
 51 49  1  0
 52  5  1  0
 52 53  2  0
 54 55  1  0
 54 52  1  0
 55 57  1  0
 56 67  2  0
 57 62  1  0
 58 66  1  0
 58 68  1  0
 59 65  1  0
 59 61  1  0
 60 66  1  0
 61 60  1  0
 62 61  2  0
 63 64  1  0
 63 57  2  0
 64 59  2  0
 65 58  1  0
 66 56  1  0
 68 70  2  0
 69 68  1  0
 71 69  1  0
 72 81  2  0
 72 77  1  0
 73 69  1  0
 73 77  1  0
 74 73  1  0
 75 76  1  0
 75 74  1  0
 76 72  1  0
 77 78  2  0
 78 79  1  0
 80 79  2  0
 81 80  1  0
 82 56  1  0
 82 87  1  0
 82 83  1  0
 83 86  1  1
 83 84  1  0
 85 83  1  0
 87 90  1  0
 88 92  1  0
 88 87  1  0
 89 88  2  0
 92 91  1  0
 94 92  1  0
 94 95  1  0
 94 93  1  0
M  ISO  4  14 100  22 100  54 101  55 101
M  END
>  <TORSDO>  (97) 
F 19

>  <SCORE>  (97) 
-12.281

>  <name>  (97) 
96

>  <ligand_id>  (97) 
96

>  <original_smiles>  (97) 
[H]c1c([H])c([H])c2c(c1[H])C([H])([H])C([H])([H])C([H])([H])C2([H])N([H])C(=O)C1([H])N(C(=O)C([H])(N([H])C(=O)C([H])(N([H])C([H])([H])[H])C([H])([H])[H])C(C([H])([H])[H])(C([H])([H])[H])C([H])([H])[H])C([H])([H])c2c([H])c(OC([H])([H])C(=O)C3(C([H])([H])[H])C([H])([H])C([H])([H])C([H])(c4c([H])c(Cl)c([H])c([H])c4N([H])C(=O)N4C([H])([H])C([H])([H])C([H])([H])C([H])(n5nc(-c6c([H])c([H])c(Oc7c([H])c([H])c(F)c([H])c7F)c([H])c6[H])c(C(=O)N([H])[H])c5N([H])[H])C4([H])[H])C3([H])[H])c([H])c([H])c2C1([H])[H]

>  <smiles>  (97) 
[H]c1c([H])c([H])c2c(c1[H])C([H])([H])C([H])([H])C([H])([H])C2([H])N([H])C(=O)C1([H])N(C(=O)C([H])(N([H])C(=O)C([H])(N([H])C([H])([H])[H])C([H])([H])[H])C(C([H])([H])[H])(C([H])([H])[H])C([H])([H])[H])C([H])([H])c2c([H])c(OC([H])([H])C(=O)C3(C([H])([H])[H])C([H])([H])C([H])([H])C([H])(c4c([H])c(Cl)c([H])c([H])c4N([H])C(=O)N4C([H])([H])C([H])([H])C([H])([H])C([H])(n5nc(-c6c([H])c([H])c(Oc7c([H])c([H])c(F)c([H])c7F)c([H])c6[H])c(C(=O)N([H])[H])c5N([H])[H])C4([H])[H])C3([H])[H])c([H])c([H])c2C1([H])[H]

$$$$
97:0:0
     RDKit          3D

 95103  0  0  1  0  0  0  0  0999 V2000
  -27.5900  -19.8750   20.5280 C   0  0  0  0  0  2  0  0  0  0  0  0
  -28.6250  -18.7030   18.5470 C   0  0  0  0  0  3  0  0  0  0  0  0
  -29.1750  -17.9070   20.7950 C   0  0  0  0  0  3  0  0  0  0  0  0
  -30.2230  -16.8940   18.8410 C   0  0  0  0  0  3  0  0  0  0  0  0
  -28.4720  -18.7900   19.9460 C   0  0  0  0  0  0  0  0  0  0  0  0
  -29.5060  -17.7570   17.9920 C   0  0  0  0  0  0  0  0  0  0  0  0
  -30.0490  -16.9430   20.2480 C   0  0  0  0  0  0  0  0  0  0  0  0
  -31.4330  -15.0010   20.7400 C   0  0  0  0  0  0  0  0  0  0  0  0
  -31.1140  -12.8430   19.5890 C   0  0  0  0  0  2  0  0  0  0  0  0
  -30.2670  -13.0090   18.3130 C   0  0  0  0  0  2  0  0  0  0  0  0
  -28.7630  -12.9360   18.6420 C   0  0  0  0  0  2  0  0  0  0  0  0
  -28.3570  -13.8410   19.8350 C   0  0  0  0  0  3  0  0  0  0  0  0
  -29.3230  -13.6530   21.0260 C   0  0  0  0  0  2  0  0  0  0  0  0
  -30.6920  -13.8810   20.5370 N   0  0  0  0  0  0  0  0  0  0  0  0
  -32.6130  -15.1100   20.4050 O   0  0  0  0  0  0  0  0  0  0  0  0
  -30.7620  -16.0890   21.1370 N   0  0  0  0  0  0  0  0  0  0  0  0
  -31.2390  -16.5990   21.8670 H   0  0  0  0  0  0  0  0  0  0  0  0
  -25.9400  -14.5520   20.3550 C   0  0  0  0  0  0  0  0  0  0  0  0
  -24.8180  -13.8240   20.6510 C   0  0  0  0  0  0  0  0  0  0  0  0
  -25.2310  -12.4570   20.6780 C   0  0  0  0  0  0  0  0  0  0  0  0
  -26.9660  -13.6290   20.2200 N   0  0  0  0  0  0  0  0  0  0  0  0
  -26.5380  -12.3660   20.4730 N   0  0  0  0  0  0  0  0  0  0  0  0
  -24.4490  -11.2230   20.8300 C   0  0  0  0  0  0  0  0  0  0  0  0
  -24.7920  -10.2450   21.7890 C   0  0  0  0  0  3  0  0  0  0  0  0
  -24.0130   -9.0760   21.9270 C   0  0  0  0  0  3  0  0  0  0  0  0
  -22.8790   -8.8770   21.1060 C   0  0  0  0  0  0  0  0  0  0  0  0
  -22.5570   -9.8430   20.1350 C   0  0  0  0  0  3  0  0  0  0  0  0
  -23.3360  -11.0030   19.9940 C   0  0  0  0  0  3  0  0  0  0  0  0
  -22.0800   -7.7610   21.1530 O   0  0  0  0  0  0  0  0  0  0  0  0
  -21.9270   -7.0330   22.3050 C   0  0  0  0  0  0  0  0  0  0  0  0
  -21.4290   -7.6140   23.4910 C   0  0  0  0  0  3  0  0  0  0  0  0
  -21.2220   -6.8150   24.6340 C   0  0  0  0  0  3  0  0  0  0  0  0
  -21.5010   -5.4370   24.5890 C   0  0  0  0  0  0  0  0  0  0  0  0
  -21.9920   -4.8550   23.4060 C   0  0  0  0  0  3  0  0  0  0  0  0
  -22.2000   -5.6510   22.2660 C   0  0  0  0  0  0  0  0  0  0  0  0
  -22.6540   -5.0820   21.1230 F   0  0  0  0  0  0  0  0  0  0  0  0
  -21.2940   -4.6660   25.6820 F   0  0  0  0  0  0  0  0  0  0  0  0
  -23.4230  -14.3550   20.8060 C   0  0  0  0  0  0  0  0  0  0  0  0
  -22.6070  -13.7000   21.6260 N   0  0  0  0  0  0  0  0  0  0  0  0
  -23.0610  -15.3830   20.2370 O   0  0  0  0  0  0  0  0  0  0  0  0
  -22.9110  -12.8680   22.1100 H   0  0  0  0  0  0  0  0  0  0  0  0
  -21.6660  -14.0360   21.7730 H   0  0  0  0  0  0  0  0  0  0  0  0
  -26.1670  -15.9120   20.1700 N   0  0  0  0  0  0  0  0  0  0  0  0
  -25.4210  -16.5960   20.2140 H   0  0  0  0  0  0  0  0  0  0  0  0
  -27.0660  -16.3200   19.9440 H   0  0  0  0  0  0  0  0  0  0  0  0
  -29.6830  -17.6850   16.6130 N   0  0  0  0  0  0  0  0  0  0  0  0
  -28.9760  -18.0860   16.0040 H   0  0  0  0  0  0  0  0  0  0  0  0
  -30.1300  -16.8660   16.2120 H   0  0  0  0  0  0  0  0  0  0  0  0
  -28.2570  -21.2520   20.3750 C   0  0  0  0  0  2  0  0  0  0  0  0
  -27.4120  -22.4150   20.8910 C   0  0  0  0  0  0  0  0  0  0  0  0
  -26.1880  -22.3280   21.0190 O   0  0  0  0  0  0  0  0  0  0  0  0
  -28.1450  -23.7080   21.2370 C   0  0  0  0  0  2  0  0  0  0  0  0
  -28.3440  -24.6250   20.0150 C   0  0  0  0  0  2  0  0  0  0  0  0
  -28.8620  -26.0270   20.4450 C   0  0  0  0  0  2  0  0  0  0  0  0
  -28.7960  -27.3920   19.9740 O   0  0  0  0  0  0  0  0  0  0  0  0
  -24.6570  -32.0290   23.4260 C   0  0  0  0  0  0  0  0  0  0  0  0
  -27.5810  -28.0500   20.0130 C   0  0  0  0  0  0  0  0  0  0  0  0
  -23.5520  -30.7220   21.6400 C   0  0  0  0  0  3  0  0  0  0  0  0
  -25.1070  -29.4010   20.1130 C   0  0  0  0  0  0  0  0  0  0  0  0
  -26.0550  -31.2360   21.5240 C   0  0  0  0  0  2  0  0  0  0  0  0
  -26.2240  -29.9370   20.7660 C   0  0  0  0  0  0  0  0  0  0  0  0
  -27.4660  -29.2700   20.7110 C   0  0  0  0  0  3  0  0  0  0  0  0
  -26.4490  -27.5220   19.3540 C   0  0  0  0  0  3  0  0  0  0  0  0
  -25.2130  -28.1900   19.4060 C   0  0  0  0  0  3  0  0  0  0  0  0
  -23.8170  -30.1800   20.2090 C   0  0  0  0  0  2  0  0  0  0  0  0
  -24.7710  -31.3380   22.2550 N   0  0  0  0  0  0  0  0  0  0  0  0
  -23.5540  -32.1940   23.9660 O   0  0  0  0  0  0  0  0  0  0  0  0
  -22.9460  -29.5830   22.4900 C   0  0  0  0  0  0  0  0  0  0  0  0
  -21.6410  -29.3290   22.3010 N   0  0  0  0  0  0  0  0  0  0  0  0
  -23.6450  -28.9340   23.2720 O   0  0  0  0  0  0  0  0  0  0  0  0
  -21.1370  -29.9110   21.6480 H   0  0  0  0  0  0  0  0  0  0  0  0
  -18.3400  -27.8880   22.5750 C   0  0  0  0  0  0  0  0  0  0  0  0
  -20.8650  -28.2800   22.9600 C   0  0  0  0  0  3  0  0  0  0  0  0
  -21.0810  -26.9130   22.2700 C   0  0  0  0  0  2  0  0  0  0  0  0
  -20.0310  -26.6100   21.1950 C   0  0  0  0  0  2  0  0  0  0  0  0
  -18.6270  -26.6090   21.8080 C   0  0  0  0  0  2  0  0  0  0  0  0
  -19.3930  -28.6810   23.1040 C   0  0  0  0  0  0  0  0  0  0  0  0
  -19.0750  -29.8780   23.7820 C   0  0  0  0  0  3  0  0  0  0  0  0
  -17.7360  -30.2820   23.9370 C   0  0  0  0  0  3  0  0  0  0  0  0
  -16.6960  -29.4840   23.4270 C   0  0  0  0  0  3  0  0  0  0  0  0
  -16.9990  -28.2890   22.7510 C   0  0  0  0  0  3  0  0  0  0  0  0
  -25.8990  -32.6650   24.1250 C   0  0  0  0  0  3  0  0  0  0  0  0
  -25.5590  -34.0560   24.4460 N   0  0  0  0  0  0  0  0  0  0  0  0
  -25.9150  -35.1150   23.7060 C   0  0  0  0  0  0  0  0  0  0  0  0
  -26.6360  -35.0240   22.7080 O   0  0  0  0  0  0  0  0  0  0  0  0
  -24.9240  -34.2010   25.2170 H   0  0  0  0  0  0  0  0  0  0  0  0
  -24.1780  -36.8840   23.2760 C   0  0  0  0  0  1  0  0  0  0  0  0
  -25.3870  -36.4950   24.1420 C   0  0  0  0  0  3  0  0  0  0  0  0
  -27.4640  -37.4150   25.0720 C   0  0  0  0  0  1  0  0  0  0  0  0
  -26.4080  -37.5630   24.0740 N   0  0  0  0  0  0  0  0  0  0  0  0
  -25.9830  -38.4780   24.1960 H   0  0  0  0  0  0  0  0  0  0  0  0
  -26.3490  -31.8880   25.4230 C   0  0  1  0  0  0  0  0  0  0  0  0
  -25.1910  -31.5910   26.4050 C   0  0  0  0  0  1  0  0  0  0  0  0
  -27.0070  -30.5400   25.0480 C   0  0  0  0  0  1  0  0  0  0  0  0
  -27.4200  -32.7050   26.1800 C   0  0  0  0  0  1  0  0  0  0  0  0
  2  5  1  0
  4  7  2  0
  5  1  1  0
  5  3  2  0
  6  2  2  0
  6  4  1  0
  7  3  1  0
  7 16  1  0
  8 16  1  0
  9 14  1  0
 10 11  1  0
 10  9  1  0
 12 11  1  0
 12 21  1  0
 12 13  1  0
 14  8  1  0
 14 13  1  0
 15  8  2  0
 16 17  1  0
 18 19  2  0
 19 20  1  0
 19 38  1  0
 20 23  1  0
 21 18  1  0
 21 22  1  0
 22 20  2  0
 23 24  1  0
 24 25  2  0
 26 29  1  0
 26 25  1  0
 27 26  2  0
 28 27  1  0
 28 23  2  0
 29 30  1  0
 30 31  1  0
 31 32  2  0
 33 32  1  0
 33 37  1  0
 34 33  2  0
 35 30  2  0
 35 34  1  0
 36 35  1  0
 38 39  1  0
 39 42  1  0
 39 41  1  0
 40 38  2  0
 43 44  1  0
 43 18  1  0
 45 43  1  0
 46  6  1  0
 47 46  1  0
 48 46  1  0
 49  1  1  0
 49 50  1  0
 50 51  2  0
 50 52  1  0
 53 54  1  0
 53 52  1  0
 55 57  1  0
 55 54  1  0
 56 67  2  0
 57 62  1  0
 58 66  1  0
 58 68  1  0
 59 65  1  0
 59 61  1  0
 60 66  1  0
 61 60  1  0
 62 61  2  0
 63 64  1  0
 63 57  2  0
 64 59  2  0
 65 58  1  0
 66 56  1  0
 68 70  2  0
 69 68  1  0
 71 69  1  0
 72 81  2  0
 72 77  1  0
 73 69  1  0
 73 77  1  0
 74 73  1  0
 75 76  1  0
 75 74  1  0
 76 72  1  0
 77 78  2  0
 78 79  1  0
 80 79  2  0
 81 80  1  0
 82 56  1  0
 82 83  1  0
 82 92  1  0
 83 86  1  0
 84 88  1  0
 84 83  1  0
 85 84  2  0
 88 87  1  0
 90 88  1  0
 90 91  1  0
 90 89  1  0
 92 95  1  1
 92 93  1  0
 94 92  1  0
M  ISO  4   8 100  16 100  54 101  55 101
M  END
>  <TORSDO>  (98) 
F 23

>  <SCORE>  (98) 
-10.369

>  <name>  (98) 
97

>  <ligand_id>  (98) 
97

>  <original_smiles>  (98) 
[H]c1c([H])c([H])c2c(c1[H])C([H])([H])C([H])([H])C([H])([H])C2([H])N([H])C(=O)C1([H])N(C(=O)C([H])(N([H])C(=O)C([H])(N([H])C([H])([H])[H])C([H])([H])[H])C(C([H])([H])[H])(C([H])([H])[H])C([H])([H])[H])C([H])([H])c2c([H])c(OC([H])([H])C([H])([H])C([H])([H])C(=O)C([H])([H])C([H])([H])c3c([H])c(N([H])[H])c([H])c(N([H])C(=O)N4C([H])([H])C([H])([H])C([H])([H])C([H])(n5nc(-c6c([H])c([H])c(Oc7c([H])c([H])c(F)c([H])c7F)c([H])c6[H])c(C(=O)N([H])[H])c5N([H])[H])C4([H])[H])c3[H])c([H])c([H])c2C1([H])[H]

>  <smiles>  (98) 
[H]c1c([H])c([H])c2c(c1[H])C([H])([H])C([H])([H])C([H])([H])C2([H])N([H])C(=O)C1([H])N(C(=O)C([H])(N([H])C(=O)C([H])(N([H])C([H])([H])[H])C([H])([H])[H])C(C([H])([H])[H])(C([H])([H])[H])C([H])([H])[H])C([H])([H])c2c([H])c(OC([H])([H])C([H])([H])C([H])([H])C(=O)C([H])([H])C([H])([H])c3c([H])c(N([H])[H])c([H])c(N([H])C(=O)N4C([H])([H])C([H])([H])C([H])([H])C([H])(n5nc(-c6c([H])c([H])c(Oc7c([H])c([H])c(F)c([H])c7F)c([H])c6[H])c(C(=O)N([H])[H])c5N([H])[H])C4([H])[H])c3[H])c([H])c([H])c2C1([H])[H]

$$$$
